AV-unprocessed.smi:2114|AV-procd|sdf|8617|dock7
  -GOLD-   2272011363D 1   1.00000     0.00000
 Structure written by MMmdl.
 47 48  0  0  0  0  0  0  0  0  1 V2000
  153.3406  133.1560  165.3812 C   0  0  0  0  0  0  0  0  0  0  0  0
  154.5104  133.7619  164.8600 O   0  0  0  0  0  0  0  0  0  0  0  0
  154.2548  135.0337  164.2858 C   0  0  0  0  0  0  0  0  0  0  0  0
  155.1975  135.2541  163.0927 C   0  0  2  0  0  0  0  0  0  0  0  0
  156.6550  135.4255  163.5510 C   0  0  0  0  0  0  0  0  0  0  0  0
  154.7640  136.4292  162.3421 N   0  0  0  0  0  0  0  0  0  0  0  0
  154.4013  136.4384  161.0491 C   0  0  0  0  0  0  0  0  0  0  0  0
  154.3837  135.4324  160.3396 O   0  0  0  0  0  0  0  0  0  0  0  0
  153.9430  137.7646  160.5155 C   0  0  0  0  0  0  0  0  0  0  0  0
  154.3897  138.9839  161.0700 C   0  0  0  0  0  0  0  0  0  0  0  0
  153.9386  140.1962  160.5137 C   0  0  0  0  0  0  0  0  0  0  0  0
  153.0543  140.1634  159.4098 C   0  0  0  0  0  0  0  0  0  0  0  0
  152.5830  141.3672  158.8425 N   0  0  0  0  0  0  0  0  0  0  0  0
  151.5193  141.2829  157.8441 C   0  0  0  0  0  0  0  0  0  0  0  0
  151.3398  142.6372  157.1337 C   0  0  1  0  0  0  0  0  0  0  0  0
  150.1561  142.6245  156.1614 C   0  0  0  0  0  0  0  0  0  0  0  0
  151.1066  143.6482  158.1100 O   0  0  0  0  0  0  0  0  0  0  0  0
  152.1995  143.7964  159.0122 C   0  0  1  0  0  0  0  0  0  0  0  0
  151.8893  144.9635  159.9554 C   0  0  0  0  0  0  0  0  0  0  0  0
  152.4092  142.4759  159.7770 C   0  0  0  0  0  0  0  0  0  0  0  0
  152.6435  138.9915  158.8659 N   0  0  0  0  0  0  0  0  0  0  0  0
  153.0779  137.8317  159.4028 C   0  0  0  0  0  0  0  0  0  0  0  0
  153.5935  132.1924  165.8236 H   0  0  0  0  0  0  0  0  0  0  0  0
  152.6039  132.9826  164.5954 H   0  0  0  0  0  0  0  0  0  0  0  0
  152.8871  133.7742  166.1569 H   0  0  0  0  0  0  0  0  0  0  0  0
  153.2131  135.1059  163.9674 H   0  0  0  0  0  0  0  0  0  0  0  0
  154.4207  135.8071  165.0375 H   0  0  0  0  0  0  0  0  0  0  0  0
  155.1397  134.3736  162.4500 H   0  0  0  0  0  0  0  0  0  0  0  0
  156.9938  134.5536  164.1111 H   0  0  0  0  0  0  0  0  0  0  0  0
  156.7689  136.2988  164.1938 H   0  0  0  0  0  0  0  0  0  0  0  0
  157.3267  135.5478  162.7007 H   0  0  0  0  0  0  0  0  0  0  0  0
  154.7183  137.2995  162.8517 H   0  0  0  0  0  0  0  0  0  0  0  0
  155.0725  139.0031  161.9071 H   0  0  0  0  0  0  0  0  0  0  0  0
  154.2861  141.1308  160.9281 H   0  0  0  0  0  0  0  0  0  0  0  0
  151.7581  140.5161  157.1056 H   0  0  0  0  0  0  0  0  0  0  0  0
  150.5896  140.9877  158.3330 H   0  0  0  0  0  0  0  0  0  0  0  0
  152.2448  142.8813  156.5744 H   0  0  0  0  0  0  0  0  0  0  0  0
  150.2922  141.8694  155.3869 H   0  0  0  0  0  0  0  0  0  0  0  0
  150.0475  143.5907  155.6683 H   0  0  0  0  0  0  0  0  0  0  0  0
  149.2217  142.4079  156.6801 H   0  0  0  0  0  0  0  0  0  0  0  0
  153.1005  144.0390  158.4460 H   0  0  0  0  0  0  0  0  0  0  0  0
  152.7030  145.1234  160.6630 H   0  0  0  0  0  0  0  0  0  0  0  0
  150.9794  144.7782  160.5271 H   0  0  0  0  0  0  0  0  0  0  0  0
  151.7488  145.8890  159.3963 H   0  0  0  0  0  0  0  0  0  0  0  0
  151.5453  142.2666  160.4093 H   0  0  0  0  0  0  0  0  0  0  0  0
  153.2672  142.5816  160.4394 H   0  0  0  0  0  0  0  0  0  0  0  0
  152.7149  136.9323  158.9267 H   0  0  0  0  0  0  0  0  0  0  0  0
  1  2  1  0  0  0  0
  1 23  1  0  0  0  0
  1 24  1  0  0  0  0
  1 25  1  0  0  0  0
  2  3  1  0  0  0  0
  3  4  1  0  0  0  0
  3 26  1  0  0  0  0
  3 27  1  0  0  0  0
  4  5  1  0  0  0  0
  4  6  1  0  0  0  0
  4 28  1  0  0  0  0
  5 29  1  0  0  0  0
  5 30  1  0  0  0  0
  5 31  1  0  0  0  0
  6  7  1  0  0  0  0
  6 32  1  0  0  0  0
  7  8  2  0  0  0  0
  7  9  1  0  0  0  0
  9 22  1  0  0  0  0
  9 10  2  0  0  0  0
 10 11  1  0  0  0  0
 10 33  1  0  0  0  0
 11 12  2  0  0  0  0
 11 34  1  0  0  0  0
 12 13  1  0  0  0  0
 12 21  1  0  0  0  0
 13 20  1  0  0  0  0
 13 14  1  0  0  0  0
 14 15  1  0  0  0  0
 14 35  1  0  0  0  0
 14 36  1  0  0  0  0
 15 16  1  0  0  0  0
 15 17  1  0  0  0  0
 15 37  1  0  0  0  0
 16 38  1  0  0  0  0
 16 39  1  0  0  0  0
 16 40  1  0  0  0  0
 17 18  1  0  0  0  0
 18 19  1  0  0  0  0
 18 20  1  0  0  0  0
 18 41  1  0  0  0  0
 19 42  1  0  0  0  0
 19 43  1  0  0  0  0
 19 44  1  0  0  0  0
 20 45  1  0  0  0  0
 20 46  1  0  0  0  0
 21 22  2  0  0  0  0
 22 47  1  0  0  0  0
M  END
> <s_m_source_file>
AV-unprocessed.smi

> <i_m_source_file_index>
2114

> <i_lp_mmshare_version>
43012

> <i_f3d_flags>
0

> <s_epik_input>
W0NIM11PW0NIMl1bQ0BIXShbQ0gzXSlbTkhdQyg9TyljMVtjSF1bY0hdYyhuW2NIXTEpTjJbQ0gyXVtDQEBIXShbQ0gzXSlPW0NAQEhdKFtDSDNdKVtDSDJdMg==

> <s_epik_cmdline>
J2VwaWtfcHl0aG9uJywgJy1waCcsICc3LjAnLCAnLXRuJywgJzgnLCAnLW1hJywgJzIwMCcsICctbWV0YWxfYmluZGluZycsICctaW1hZScsICc8aW5maWxlLm1hZT4nLCAnLW9tYWUnLCAnPG91dGZpbGUubWFlPic=

> <r_lp_tautomer_probability>
1

> <r_epik_Ionization_Penalty>
1.92915e-05

> <r_epik_Ionization_Penalty_Charging>
0

> <r_epik_Ionization_Penalty_Neutral>
1.92915e-05

> <r_epik_State_Penalty>
-0

> <r_epik_Charging_Adjusted_Penalty>
0

> <i_epik_Tot_Q>
0

> <i_epik_Tot_abs_Q>
0

> <r_epik_Metal_State_Penalty>
-0

> <b_epik_Metal_Only>
0

> <s_lp_Force_Field>
OPLS_2005

> <r_lp_Energy>
18.4653

> <b_lp_Chiralities_Consistent>
1

> <s_lp_Variant>
AV-unprocessed.smi:2114-1

> <Gold.Version>
5.8.1

> <Gold.Id.Protein>
6NUR|6NUR_protein|mol2

> <Gold.PLP.Fitness>
37.6109

> <Gold.PLP.PLP>
-36.2796

> <Gold.PLP.part.hbond>
-0.9896

> <Gold.PLP.part.metal>
0.0000

> <Gold.PLP.part.buried>
-1.8220

> <Gold.PLP.part.nonpolar>
-33.7676

> <Gold.PLP.part.repulsive>
0.2448

> <Gold.PLP.ligand.clash>
0.0000

> <Gold.PLP.ligand.torsion>
0.9903

> <Gold.PLP.Chemscore.Hbond>
0.9913

> <Gold.PLP.Chemscore.CHOScore>
0.0000

> <Gold.PLP.Chemscore.Metal>
0.0000

> <Gold.Chemscore.Hbonds>
donor molecule, donor type, donor heavy atom, donor atom, acceptor molecule, acceptor atom, score
      P1  H  6896  6908       L1     8  0.84

> <Gold.PLP.Chemscore.Internal.Correction>
0.3382

> <Gold.Rescore>
     Score         DG    S(hbond)    S(metal)    S(lipo)     H(rot)  DE(clash)    DE(int)     intcor
     15.64     -18.35       1.00        0.00     114.85       1.52       1.74       0.98       ----

> <Gold.Chemscore.Fitness>
15.6353

> <Gold.Chemscore.DG>
-18.3539

> <Gold.Chemscore.ZeroCoef>
-5.4800

> <Gold.Chemscore.Hbond>
0.9985

> <Gold.Chemscore.Metal>
0.0000

> <Gold.Chemscore.Lipo>
114.8461

> <Gold.Chemscore.Internal_Hbond>
0.0000

> <Gold.Chemscore.DEClash>
1.7417

> <Gold.Chemscore.DEInternal>
0.9769

> <Gold.Chemscore.Rot>
1.5226

> <Gold.Chemscore.Internal.Correction>
   9.000000E+99

> <Gold.Chemscore.Hbonds>
donor molecule, donor type, donor heavy atom, donor atom, acceptor molecule, acceptor atom, score
      P1  H  6896  6908       L1     8  0.78

> <Gold.Chemscore.Hbond.Weighted>
-3.3348

> <Gold.Chemscore.Metal.Weighted>
-0.0000

> <Gold.Chemscore.Lipo.Weighted>
-13.4370

> <Gold.Chemscore.Internal_Hbond.Weighted>
0.0000

> <Gold.Chemscore.DEClash.Weighted>
1.7417

> <Gold.Chemscore.DEInternal.Weighted>
0.9769

> <Gold.Chemscore.Rot.Weighted>
3.8980

> <Gold.Chemscore.Internal.Correction.Weighted>
   9.000000E+99

> <Gold.Protein.RotatedTorsions>
[ 6907 6896 6895 6894 ] final  -55.16 input  -60.11 | X-H torsion
[ 7974 7965 7964 7962 ] final  -18.93 input  175.53 | X-H torsion
[ 8008 7997 7996 7995 ] final -171.74 input   59.86 | X-H torsion
[ 10167 10162 10161 10158 ] final  172.82 input  -65.29 | X-H torsion
[ 10718 10713 10712 10709 ] final   50.12 input   66.30 | X-H torsion
[ 10763 10752 10751 10750 ] final   53.07 input  -60.55 | X-H torsion
[ 11005 11000 10999 10996 ] final   31.26 input  -57.11 | X-H torsion

> <Gold.Protein.ActiveResidues>
 VAL166  LYS551  ARG553  GLY616  TRP617  ASP618  TYR619  PRO620  LYS621  CYS622 
 ASP623  PHE694  ASN695  SER759  ASP760  ASP761  ALA762  ILE779  LEU786  VAL792 
 PHE793  MET794  SER795  GLU796  ALA797  LYS798  CYS799  TRP800  GLU811  SER814 

> <Gold.Protein.RotatedAtoms>
  150.8275  134.7513  159.6825 H   0  0  0  0  0  0  0  0  0  0  0  0  # atno 6907 bound_to 6896
  152.4384  134.5636  159.9911 H   0  0  0  0  0  0  0  0  0  0  0  0  # atno 6908 bound_to 6896
  151.5805  133.3341  159.3043 H   0  0  0  0  0  0  0  0  0  0  0  0  # atno 6909 bound_to 6896
  146.1867  140.3990  142.8473 H   0  0  0  0  0  0  0  0  0  0  0  0  # atno 7974 bound_to 7965
  155.9355  140.1099  157.1098 H   0  0  0  0  0  0  0  0  0  0  0  0  # atno 8008 bound_to 7997
  154.4079  140.1229  156.4924 H   0  0  0  0  0  0  0  0  0  0  0  0  # atno 8009 bound_to 7997
  155.7027  140.3471  155.4942 H   0  0  0  0  0  0  0  0  0  0  0  0  # atno 8010 bound_to 7997
  139.5088  144.3331  152.0092 H   0  0  0  0  0  0  0  0  0  0  0  0  # atno 10167 bound_to 10162
  157.4853  130.8341  149.8140 H   0  0  0  0  0  0  0  0  0  0  0  0  # atno 10718 bound_to 10713
  152.9792  135.5791  154.4681 H   0  0  0  0  0  0  0  0  0  0  0  0  # atno 10763 bound_to 10752
  154.4247  135.2772  155.1954 H   0  0  0  0  0  0  0  0  0  0  0  0  # atno 10764 bound_to 10752
  154.3688  135.6172  153.5783 H   0  0  0  0  0  0  0  0  0  0  0  0  # atno 10765 bound_to 10752
  140.2857  134.2921  155.7789 H   0  0  0  0  0  0  0  0  0  0  0  0  # atno 11005 bound_to 11000
  144.8411  140.6858  143.6229 LP  0  0  0  0  0  0  0  0  0  0  0  0  # atno 17320 bound_to 7965
  145.3916  139.1615  143.4226 LP  0  0  0  0  0  0  0  0  0  0  0  0  # atno 17321 bound_to 7965
  140.2770  144.3901  150.6131 LP  0  0  0  0  0  0  0  0  0  0  0  0  # atno 17342 bound_to 10162
  140.6046  143.2167  151.7006 LP  0  0  0  0  0  0  0  0  0  0  0  0  # atno 17343 bound_to 10162
  156.0143  130.3820  150.2160 LP  0  0  0  0  0  0  0  0  0  0  0  0  # atno 17370 bound_to 10713
  157.0347  131.0018  151.3301 LP  0  0  0  0  0  0  0  0  0  0  0  0  # atno 17371 bound_to 10713
  141.2155  133.7553  156.9549 LP  0  0  0  0  0  0  0  0  0  0  0  0  # atno 17394 bound_to 11000
  140.1242  134.9398  157.2246 LP  0  0  0  0  0  0  0  0  0  0  0  0  # atno 17395 bound_to 11000

$$$$
