AV-unprocessed.smi:2592|AV-procd|sdf|10161|dock3
  -GOLD-   2272014173D 1   1.00000     0.00000
 Structure written by MMmdl.
 42 43  0  0  0  0  0  0  0  0  3 V2000
  152.9032  142.3402  161.2919 C   0  0  0  0  0  0  0  0  0  0  0  0
  152.3312  142.0436  159.9398 C   0  0  0  0  0  0  0  0  0  0  0  0
  152.7788  140.9270  159.2291 N   0  0  0  0  0  0  0  0  0  0  0  0
  152.1820  140.7713  158.0433 C   0  0  0  0  0  0  0  0  0  0  0  0
  152.4700  139.7634  157.2036 N   0  5  0  0  0  0  0  0  0  0  0  0
  151.7247  139.5762  156.0913 C   0  0  0  0  0  0  0  0  0  0  0  0
  151.3429  140.4512  155.3103 O   0  0  0  0  0  0  0  0  0  0  0  0
  151.4085  138.2932  155.8637 N   0  0  0  0  0  0  0  0  0  0  0  0
  150.6396  137.7920  154.7300 C   0  0  0  0  0  0  0  0  0  0  0  0
  149.6553  136.6929  155.1623 C   0  0  0  0  0  0  0  0  0  0  0  0
  150.2582  135.2844  155.0414 C   0  0  0  0  0  0  0  0  0  0  0  0
  149.4813  134.4169  154.1212 N   0  3  0  0  0  0  0  0  0  0  0  0
  150.1329  133.1046  153.8951 C   0  0  0  0  0  0  0  0  0  0  0  0
  149.3209  132.2642  152.8947 C   0  0  0  0  0  0  0  0  0  0  0  0
  147.9922  132.1037  153.3746 O   0  0  0  0  0  0  0  0  0  0  0  0
  147.3230  133.3508  153.5130 C   0  0  0  0  0  0  0  0  0  0  0  0
  148.0678  134.2278  154.5334 C   0  0  0  0  0  0  0  0  0  0  0  0
  151.0104  142.0507  157.7242 S   0  0  0  0  0  0  0  0  0  0  0  0
  151.3738  142.7662  159.2720 C   0  0  0  0  0  0  0  0  0  0  0  0
  150.6789  144.0060  159.7271 C   0  0  0  0  0  0  0  0  0  0  0  0
  153.4967  143.2544  161.2738 H   0  0  0  0  0  0  0  0  0  0  0  0
  153.5495  141.5348  161.6424 H   0  0  0  0  0  0  0  0  0  0  0  0
  152.1136  142.4721  162.0319 H   0  0  0  0  0  0  0  0  0  0  0  0
  151.7377  137.6112  156.5313 H   0  0  0  0  0  0  0  0  0  0  0  0
  150.0957  138.6306  154.2953 H   0  0  0  0  0  0  0  0  0  0  0  0
  151.3133  137.4231  153.9548 H   0  0  0  0  0  0  0  0  0  0  0  0
  149.3456  136.8790  156.1903 H   0  0  0  0  0  0  0  0  0  0  0  0
  148.7535  136.7560  154.5519 H   0  0  0  0  0  0  0  0  0  0  0  0
  151.2757  135.3847  154.6607 H   0  0  0  0  0  0  0  0  0  0  0  0
  150.3397  134.8114  156.0213 H   0  0  0  0  0  0  0  0  0  0  0  0
  151.1433  133.2523  153.5118 H   0  0  0  0  0  0  0  0  0  0  0  0
  150.2233  132.5732  154.8437 H   0  0  0  0  0  0  0  0  0  0  0  0
  149.3117  132.7317  151.9089 H   0  0  0  0  0  0  0  0  0  0  0  0
  149.7745  131.2799  152.7759 H   0  0  0  0  0  0  0  0  0  0  0  0
  147.2550  133.8510  152.5455 H   0  0  0  0  0  0  0  0  0  0  0  0
  146.3021  133.1682  153.8488 H   0  0  0  0  0  0  0  0  0  0  0  0
  148.0318  133.7626  155.5198 H   0  0  0  0  0  0  0  0  0  0  0  0
  147.5603  135.1882  154.6149 H   0  0  0  0  0  0  0  0  0  0  0  0
  149.9417  143.7734  160.4957 H   0  0  0  0  0  0  0  0  0  0  0  0
  150.1625  144.4944  158.9006 H   0  0  0  0  0  0  0  0  0  0  0  0
  151.3900  144.7188  160.1451 H   0  0  0  0  0  0  0  0  0  0  0  0
  149.4688  134.8853  153.2264 H   0  0  0  0  0  0  0  0  0  0  0  0
  1  2  1  0  0  0  0
  1 21  1  0  0  0  0
  1 22  1  0  0  0  0
  1 23  1  0  0  0  0
  2 19  2  0  0  0  0
  2  3  1  0  0  0  0
  3  4  2  0  0  0  0
  4  5  1  0  0  0  0
  4 18  1  0  0  0  0
  5  6  1  0  0  0  0
  6  7  2  0  0  0  0
  6  8  1  0  0  0  0
  8  9  1  0  0  0  0
  8 24  1  0  0  0  0
  9 10  1  0  0  0  0
  9 25  1  0  0  0  0
  9 26  1  0  0  0  0
 10 11  1  0  0  0  0
 10 27  1  0  0  0  0
 10 28  1  0  0  0  0
 11 12  1  0  0  0  0
 11 29  1  0  0  0  0
 11 30  1  0  0  0  0
 12 17  1  0  0  0  0
 12 13  1  0  0  0  0
 12 42  1  0  0  0  0
 13 14  1  0  0  0  0
 13 31  1  0  0  0  0
 13 32  1  0  0  0  0
 14 15  1  0  0  0  0
 14 33  1  0  0  0  0
 14 34  1  0  0  0  0
 15 16  1  0  0  0  0
 16 17  1  0  0  0  0
 16 35  1  0  0  0  0
 16 36  1  0  0  0  0
 17 37  1  0  0  0  0
 17 38  1  0  0  0  0
 18 19  1  0  0  0  0
 19 20  1  0  0  0  0
 20 39  1  0  0  0  0
 20 40  1  0  0  0  0
 20 41  1  0  0  0  0
M  CHG  1   5  -1
M  CHG  1  12   1
M  END
> <s_m_source_file>
AV-unprocessed.smi

> <i_m_source_file_index>
2592

> <i_lp_mmshare_version>
43012

> <i_f3d_flags>
0

> <s_epik_input>
W0NIM11jMW5jKHNjMVtDSDNdKVtOSF1DKD1PKVtOSF1bQ0gyXVtDSDJdW0NIMl1OMltDSDJdW0NIMl1PW0NIMl1bQ0gyXTI=

> <s_epik_cmdline>
J2VwaWtfcHl0aG9uJywgJy1waCcsICc3LjAnLCAnLXRuJywgJzgnLCAnLW1hJywgJzIwMCcsICctbWV0YWxfYmluZGluZycsICctaW1hZScsICc8aW5maWxlLm1hZT4nLCAnLW9tYWUnLCAnPG91dGZpbGUubWFlPic=

> <r_lp_tautomer_probability>
0.999

> <r_epik_Ionization_Penalty>
7.73516

> <r_epik_Ionization_Penalty_Charging>
6.31615

> <r_epik_Ionization_Penalty_Neutral>
1.41901

> <r_epik_State_Penalty>
6.31054

> <r_epik_Charging_Adjusted_Penalty>
12.6267

> <i_epik_Tot_Q>
0

> <i_epik_Tot_abs_Q>
2

> <r_epik_Metal_State_Penalty>
2.25864

> <b_epik_Metal_Only>
1

> <s_lp_Force_Field>
OPLS_2005

> <r_lp_Energy>
6.70997

> <b_lp_Chiralities_Consistent>
1

> <s_lp_Variant>
AV-unprocessed.smi:2592-3

> <Gold.Version>
5.8.1

> <Gold.Id.Protein>
6NUR|6NUR_protein|mol2

> <Gold.PLP.Fitness>
48.2314

> <Gold.PLP.PLP>
-35.8234

> <Gold.PLP.part.hbond>
-3.0000

> <Gold.PLP.part.metal>
0.0000

> <Gold.PLP.part.buried>
-5.5587

> <Gold.PLP.part.nonpolar>
-28.1602

> <Gold.PLP.part.repulsive>
0.2007

> <Gold.PLP.ligand.clash>
0.0000

> <Gold.PLP.ligand.torsion>
1.1047

> <Gold.PLP.Chemscore.Hbond>
4.8480

> <Gold.PLP.Chemscore.CHOScore>
0.0000

> <Gold.PLP.Chemscore.Metal>
0.0000

> <Gold.Chemscore.Hbonds>
donor molecule, donor type, donor heavy atom, donor atom, acceptor molecule, acceptor atom, score
      L1  H    12    42       P1  7948  0.70
      P1  H  7989  7998       L1     7  0.91
      P1  H  7997  8010       L1     5  1.85

> <Gold.PLP.Chemscore.Internal.Correction>
0.0734

> <Gold.Rescore>
     Score         DG    S(hbond)    S(metal)    S(lipo)     H(rot)  DE(clash)    DE(int)     intcor
     14.30     -16.49       1.89        0.00      77.69       1.72       0.15       2.05       ----

> <Gold.Chemscore.Fitness>
14.2970

> <Gold.Chemscore.DG>
-16.4943

> <Gold.Chemscore.ZeroCoef>
-5.4800

> <Gold.Chemscore.Hbond>
1.8911

> <Gold.Chemscore.Metal>
0.0000

> <Gold.Chemscore.Lipo>
77.6875

> <Gold.Chemscore.Internal_Hbond>
0.0000

> <Gold.Chemscore.DEClash>
0.1508

> <Gold.Chemscore.DEInternal>
2.0466

> <Gold.Chemscore.Rot>
1.7154

> <Gold.Chemscore.Internal.Correction>
   9.000000E+99

> <Gold.Chemscore.Hbonds>
donor molecule, donor type, donor heavy atom, donor atom, acceptor molecule, acceptor atom, score
      L1  H    12    42       P1  7948  0.01
      P1  H  7989  7998       L1     7  0.90
      P1  H  7997  8010       L1     5  0.19

> <Gold.Chemscore.Hbond.Weighted>
-6.3162

> <Gold.Chemscore.Metal.Weighted>
-0.0000

> <Gold.Chemscore.Lipo.Weighted>
-9.0894

> <Gold.Chemscore.Internal_Hbond.Weighted>
0.0000

> <Gold.Chemscore.DEClash.Weighted>
0.1508

> <Gold.Chemscore.DEInternal.Weighted>
2.0466

> <Gold.Chemscore.Rot.Weighted>
4.3914

> <Gold.Chemscore.Internal.Correction.Weighted>
   9.000000E+99

> <Gold.Protein.RotatedTorsions>
[ 6907 6896 6895 6894 ] final  157.81 input  -60.11 | X-H torsion
[ 7974 7965 7964 7962 ] final   51.52 input  175.53 | X-H torsion
[ 8008 7997 7996 7995 ] final   74.77 input   59.86 | X-H torsion
[ 10167 10162 10161 10158 ] final -176.97 input  -65.29 | X-H torsion
[ 10718 10713 10712 10709 ] final -149.41 input   66.30 | X-H torsion
[ 10763 10752 10751 10750 ] final  -73.65 input  -60.55 | X-H torsion
[ 11005 11000 10999 10996 ] final  -26.55 input  -57.11 | X-H torsion

> <Gold.Protein.ActiveResidues>
 VAL166  LYS551  ARG553  GLY616  TRP617  ASP618  TYR619  PRO620  LYS621  CYS622 
 ASP623  PHE694  ASN695  SER759  ASP760  ASP761  ALA762  ILE779  LEU786  VAL792 
 PHE793  MET794  SER795  GLU796  ALA797  LYS798  CYS799  TRP800  GLU811  SER814 

> <Gold.Protein.RotatedAtoms>
  152.0097  133.3856  159.4214 H   0  0  0  0  0  0  0  0  0  0  0  0  # atno 6907 bound_to 6896
  150.6901  134.3744  159.5015 H   0  0  0  0  0  0  0  0  0  0  0  0  # atno 6908 bound_to 6896
  152.1503  134.8993  160.0599 H   0  0  0  0  0  0  0  0  0  0  0  0  # atno 6909 bound_to 6896
  145.9905  139.4334  143.0077 H   0  0  0  0  0  0  0  0  0  0  0  0  # atno 7974 bound_to 7965
  155.8032  140.3475  155.5414 H   0  0  0  0  0  0  0  0  0  0  0  0  # atno 8008 bound_to 7997
  155.8517  140.0957  157.1691 H   0  0  0  0  0  0  0  0  0  0  0  0  # atno 8009 bound_to 7997
  154.4008  140.1375  156.3839 H   0  0  0  0  0  0  0  0  0  0  0  0  # atno 8010 bound_to 7997
  139.5503  144.2126  152.1065 H   0  0  0  0  0  0  0  0  0  0  0  0  # atno 10167 bound_to 10162
  156.4328  130.8084  151.2311 H   0  0  0  0  0  0  0  0  0  0  0  0  # atno 10718 bound_to 10713
  154.4624  135.5890  153.6265 H   0  0  0  0  0  0  0  0  0  0  0  0  # atno 10763 bound_to 10752
  152.9825  135.6047  154.3469 H   0  0  0  0  0  0  0  0  0  0  0  0  # atno 10764 bound_to 10752
  154.3342  135.2842  155.2435 H   0  0  0  0  0  0  0  0  0  0  0  0  # atno 10765 bound_to 10752
  140.9039  133.7505  156.0581 H   0  0  0  0  0  0  0  0  0  0  0  0  # atno 11005 bound_to 11000
  145.7637  140.9925  143.1186 LP  0  0  0  0  0  0  0  0  0  0  0  0  # atno 17320 bound_to 7965
  144.6887  139.9362  143.7473 LP  0  0  0  0  0  0  0  0  0  0  0  0  # atno 17321 bound_to 7965
  140.1620  144.5016  150.6627 LP  0  0  0  0  0  0  0  0  0  0  0  0  # atno 17342 bound_to 10162
  140.6764  143.2307  151.5497 LP  0  0  0  0  0  0  0  0  0  0  0  0  # atno 17343 bound_to 10162
  157.7508  131.0193  150.3661 LP  0  0  0  0  0  0  0  0  0  0  0  0  # atno 17370 bound_to 10713
  156.4002  130.3914  149.6965 LP  0  0  0  0  0  0  0  0  0  0  0  0  # atno 17371 bound_to 10713
  140.8195  134.3306  157.5386 LP  0  0  0  0  0  0  0  0  0  0  0  0  # atno 17394 bound_to 11000
  139.8746  134.9301  156.3493 LP  0  0  0  0  0  0  0  0  0  0  0  0  # atno 17395 bound_to 11000

$$$$
