AV-unprocessed.smi:142|AV-procd|sdf|1190|dock5
  -GOLD-   2262018343D 1   1.00000     0.00000
 Structure written by MMmdl.
 52 55  0  0  0  0  0  0  0  0  1 V2000
  153.5916  137.4490  158.9389 C   0  0  0  0  0  0  0  0  0  0  0  0
  152.6986  138.3930  158.1226 C   0  0  1  0  0  0  0  0  0  0  0  0
  151.3645  137.8095  158.0003 N   0  0  0  0  0  0  0  0  0  0  0  0
  150.9964  136.9140  157.0717 C   0  0  0  0  0  0  0  0  0  0  0  0
  151.7767  136.4370  156.2466 O   0  0  0  0  0  0  0  0  0  0  0  0
  149.5183  136.4996  157.0826 C   0  0  0  0  0  0  0  0  0  0  0  0
  149.1944  135.5855  158.1991 N   0  0  0  0  0  0  0  0  0  0  0  0
  148.9616  134.2153  157.9221 C   0  0  0  0  0  0  0  0  0  0  0  0
  149.0320  133.7733  156.7744 O   0  0  0  0  0  0  0  0  0  0  0  0
  148.6352  133.3864  159.0770 C   0  0  0  0  0  0  0  0  0  0  0  0
  148.4184  132.0705  158.9116 F   0  0  0  0  0  0  0  0  0  0  0  0
  148.5504  133.9191  160.3133 C   0  0  0  0  0  0  0  0  0  0  0  0
  148.7601  135.2626  160.5660 N   0  0  0  0  0  0  0  0  0  0  0  0
  148.6521  135.8301  161.9646 C   0  0  2  0  0  0  0  0  0  0  0  0
  148.3208  134.7162  162.9639 C   0  0  0  0  0  0  0  0  0  0  0  0
  146.8100  134.7853  163.0140 C   0  0  0  0  0  0  0  0  0  0  0  0
  146.5665  136.2829  162.8643 C   0  0  0  0  0  0  0  0  0  0  0  0
  147.6026  136.7543  162.0058 O   0  0  0  0  0  0  0  0  0  0  0  0
  149.0975  136.1281  159.5032 C   0  0  0  0  0  0  0  0  0  0  0  0
  149.3034  137.3269  159.7080 O   0  0  0  0  0  0  0  0  0  0  0  0
  152.6831  139.7929  158.7304 C   0  0  0  0  0  0  0  0  0  0  0  0
  153.4791  140.1129  159.8543 C   0  0  0  0  0  0  0  0  0  0  0  0
  153.4500  141.4089  160.4032 C   0  0  0  0  0  0  0  0  0  0  0  0
  152.6288  142.4008  159.8309 C   0  0  0  0  0  0  0  0  0  0  0  0
  152.5948  143.7005  160.3771 C   0  0  0  0  0  0  0  0  0  0  0  0
  151.7724  144.6872  159.7990 C   0  0  0  0  0  0  0  0  0  0  0  0
  150.9826  144.3784  158.6745 C   0  0  0  0  0  0  0  0  0  0  0  0
  151.0127  143.0819  158.1249 C   0  0  0  0  0  0  0  0  0  0  0  0
  151.8341  142.0898  158.6996 C   0  0  0  0  0  0  0  0  0  0  0  0
  151.8672  140.7900  158.1544 C   0  0  0  0  0  0  0  0  0  0  0  0
  154.6131  137.8264  158.9924 H   0  0  0  0  0  0  0  0  0  0  0  0
  153.6315  136.4564  158.4887 H   0  0  0  0  0  0  0  0  0  0  0  0
  153.2244  137.3382  159.9599 H   0  0  0  0  0  0  0  0  0  0  0  0
  153.1236  138.4641  157.1193 H   0  0  0  0  0  0  0  0  0  0  0  0
  150.6608  138.1426  158.6432 H   0  0  0  0  0  0  0  0  0  0  0  0
  148.9126  137.4064  157.1066 H   0  0  0  0  0  0  0  0  0  0  0  0
  149.2612  136.0336  156.1295 H   0  0  0  0  0  0  0  0  0  0  0  0
  148.3111  133.2550  161.1303 H   0  0  0  0  0  0  0  0  0  0  0  0
  149.5979  136.3381  162.1602 H   0  0  0  0  0  0  0  0  0  0  0  0
  148.7135  133.7467  162.6552 H   0  0  0  0  0  0  0  0  0  0  0  0
  148.7479  134.9793  163.9324 H   0  0  0  0  0  0  0  0  0  0  0  0
  146.3786  134.2441  162.1709 H   0  0  0  0  0  0  0  0  0  0  0  0
  146.3917  134.3752  163.9335 H   0  0  0  0  0  0  0  0  0  0  0  0
  145.5790  136.5099  162.4619 H   0  0  0  0  0  0  0  0  0  0  0  0
  146.6621  136.7796  163.8305 H   0  0  0  0  0  0  0  0  0  0  0  0
  154.1172  139.3667  160.3045 H   0  0  0  0  0  0  0  0  0  0  0  0
  154.0611  141.6363  161.2645 H   0  0  0  0  0  0  0  0  0  0  0  0
  153.1973  143.9461  161.2395 H   0  0  0  0  0  0  0  0  0  0  0  0
  151.7475  145.6819  160.2190 H   0  0  0  0  0  0  0  0  0  0  0  0
  150.3524  145.1365  158.2329 H   0  0  0  0  0  0  0  0  0  0  0  0
  150.4027  142.8533  157.2629 H   0  0  0  0  0  0  0  0  0  0  0  0
  151.2607  140.5536  157.2918 H   0  0  0  0  0  0  0  0  0  0  0  0
  1  2  1  0  0  0  0
  1 31  1  0  0  0  0
  1 32  1  0  0  0  0
  1 33  1  0  0  0  0
  2  3  1  0  0  0  0
  2 21  1  0  0  0  0
  2 34  1  0  0  0  0
  3  4  1  0  0  0  0
  3 35  1  0  0  0  0
  4  5  2  0  0  0  0
  4  6  1  0  0  0  0
  6  7  1  0  0  0  0
  6 36  1  0  0  0  0
  6 37  1  0  0  0  0
  7 19  1  0  0  0  0
  7  8  1  0  0  0  0
  8  9  2  0  0  0  0
  8 10  1  0  0  0  0
 10 11  1  0  0  0  0
 10 12  2  0  0  0  0
 12 13  1  0  0  0  0
 12 38  1  0  0  0  0
 13 14  1  0  0  0  0
 13 19  1  0  0  0  0
 14 18  1  0  0  0  0
 14 15  1  0  0  0  0
 14 39  1  0  0  0  0
 15 16  1  0  0  0  0
 15 40  1  0  0  0  0
 15 41  1  0  0  0  0
 16 17  1  0  0  0  0
 16 42  1  0  0  0  0
 16 43  1  0  0  0  0
 17 18  1  0  0  0  0
 17 44  1  0  0  0  0
 17 45  1  0  0  0  0
 19 20  2  0  0  0  0
 21 30  1  0  0  0  0
 21 22  2  0  0  0  0
 22 23  1  0  0  0  0
 22 46  1  0  0  0  0
 23 24  2  0  0  0  0
 23 47  1  0  0  0  0
 24 29  1  0  0  0  0
 24 25  1  0  0  0  0
 25 26  2  0  0  0  0
 25 48  1  0  0  0  0
 26 27  1  0  0  0  0
 26 49  1  0  0  0  0
 27 28  2  0  0  0  0
 27 50  1  0  0  0  0
 28 29  1  0  0  0  0
 28 51  1  0  0  0  0
 29 30  2  0  0  0  0
 30 52  1  0  0  0  0
M  END
> <s_m_source_file>
AV-unprocessed.smi

> <i_m_source_file_index>
142

> <i_lp_mmshare_version>
43012

> <i_f3d_flags>
0

> <s_epik_input>
W2NIXTFbY0hdW2NIXVtjSF1jKGMxMilbY0hdYyhbY0hdW2NIXTIpW0NASF0oW0NIM10pW05IXUMoPU8pW0NIMl1uM2MoPU8pYyhGKVtjSF1uKGMzPU8pW0NAQEhdNFtDSDJdW0NIMl1bQ0gyXU80

> <s_epik_cmdline>
J2VwaWtfcHl0aG9uJywgJy1waCcsICc3LjAnLCAnLXRuJywgJzgnLCAnLW1hJywgJzIwMCcsICctbWV0YWxfYmluZGluZycsICctaW1hZScsICc8aW5maWxlLm1hZT4nLCAnLW9tYWUnLCAnPG91dGZpbGUubWFlPic=

> <r_lp_tautomer_probability>
1

> <r_epik_Ionization_Penalty>
3.35688e-08

> <r_epik_Ionization_Penalty_Charging>
3.59856e-09

> <r_epik_Ionization_Penalty_Neutral>
2.99702e-08

> <r_epik_State_Penalty>
-0

> <r_epik_Charging_Adjusted_Penalty>
3.59856e-09

> <i_epik_Tot_Q>
0

> <i_epik_Tot_abs_Q>
0

> <r_epik_Metal_State_Penalty>
-0

> <b_epik_Metal_Only>
0

> <s_epik_Chemistry_Notes>
This compound contains an acetal/aminal-like group ( X-CH(R)-Y where X, Y are N, S, or O) that may be acid/base labile, releasing an aldehyde.

> <s_lp_Force_Field>
OPLS_2005

> <r_lp_Energy>
30.4955

> <b_lp_Chiralities_Consistent>
1

> <s_lp_Variant>
AV-unprocessed.smi:142-2

> <Gold.Version>
5.8.1

> <Gold.Id.Protein>
6NUR|6NUR_protein|mol2

> <Gold.PLP.Fitness>
61.5477

> <Gold.PLP.PLP>
-57.0140

> <Gold.PLP.part.hbond>
-4.3073

> <Gold.PLP.part.metal>
0.0000

> <Gold.PLP.part.buried>
-6.1792

> <Gold.PLP.part.nonpolar>
-47.2559

> <Gold.PLP.part.repulsive>
0.0568

> <Gold.PLP.ligand.clash>
0.0000

> <Gold.PLP.ligand.torsion>
0.7723

> <Gold.PLP.Chemscore.Hbond>
2.0000

> <Gold.PLP.Chemscore.CHOScore>
0.0000

> <Gold.PLP.Chemscore.Metal>
0.0000

> <Gold.Chemscore.Hbonds>
donor molecule, donor type, donor heavy atom, donor atom, acceptor molecule, acceptor atom, score
      P1  H  6931  6943       L1    18  0.36
      P1  H 10752 10765       L1     5  0.94

> <Gold.PLP.Chemscore.Internal.Correction>
0.0783

> <Gold.Rescore>
     Score         DG    S(hbond)    S(metal)    S(lipo)     H(rot)  DE(clash)    DE(int)     intcor
     20.57     -23.86       1.92        0.00     146.58       2.02       0.06       3.23       ----

> <Gold.Chemscore.Fitness>
20.5678

> <Gold.Chemscore.DG>
-23.8625

> <Gold.Chemscore.ZeroCoef>
-5.4800

> <Gold.Chemscore.Hbond>
1.9155

> <Gold.Chemscore.Metal>
0.0000

> <Gold.Chemscore.Lipo>
146.5781

> <Gold.Chemscore.Internal_Hbond>
0.0000

> <Gold.Chemscore.DEClash>
0.0642

> <Gold.Chemscore.DEInternal>
3.2305

> <Gold.Chemscore.Rot>
2.0175

> <Gold.Chemscore.Internal.Correction>
   9.000000E+99

> <Gold.Chemscore.Hbonds>
donor molecule, donor type, donor heavy atom, donor atom, acceptor molecule, acceptor atom, score
      P1  H  6931  6943       L1    20  0.05
      P1  H 10752 10765       L1     5  0.90

> <Gold.Chemscore.Hbond.Weighted>
-6.3977

> <Gold.Chemscore.Metal.Weighted>
-0.0000

> <Gold.Chemscore.Lipo.Weighted>
-17.1496

> <Gold.Chemscore.Internal_Hbond.Weighted>
0.0000

> <Gold.Chemscore.DEClash.Weighted>
0.0642

> <Gold.Chemscore.DEInternal.Weighted>
3.2305

> <Gold.Chemscore.Rot.Weighted>
5.1648

> <Gold.Chemscore.Internal.Correction.Weighted>
   9.000000E+99

> <Gold.Protein.RotatedTorsions>
[ 6907 6896 6895 6894 ] final    3.06 input  -60.11 | X-H torsion
[ 7974 7965 7964 7962 ] final   39.83 input  175.53 | X-H torsion
[ 8008 7997 7996 7995 ] final  -73.74 input   59.86 | X-H torsion
[ 10167 10162 10161 10158 ] final  111.06 input  -65.29 | X-H torsion
[ 10718 10713 10712 10709 ] final  -37.46 input   66.30 | X-H torsion
[ 10763 10752 10751 10750 ] final -157.36 input  -60.55 | X-H torsion
[ 11005 11000 10999 10996 ] final   82.56 input  -57.11 | X-H torsion

> <Gold.Protein.ActiveResidues>
 VAL166  LYS551  ARG553  GLY616  TRP617  ASP618  TYR619  PRO620  LYS621  CYS622 
 ASP623  PHE694  ASN695  SER759  ASP760  ASP761  ALA762  ILE779  LEU786  VAL792 
 PHE793  MET794  SER795  GLU796  ALA797  LYS798  CYS799  TRP800  GLU811  SER814 

> <Gold.Protein.RotatedAtoms>
  151.6190  135.1034  160.0097 H   0  0  0  0  0  0  0  0  0  0  0  0  # atno 6907 bound_to 6896
  152.4168  133.7047  159.6455 H   0  0  0  0  0  0  0  0  0  0  0  0  # atno 6908 bound_to 6896
  150.8056  133.8442  159.3228 H   0  0  0  0  0  0  0  0  0  0  0  0  # atno 6909 bound_to 6896
  146.0954  139.5605  142.9449 H   0  0  0  0  0  0  0  0  0  0  0  0  # atno 7974 bound_to 7965
  154.5272  140.0774  156.8280 H   0  0  0  0  0  0  0  0  0  0  0  0  # atno 8008 bound_to 7997
  155.3451  140.3409  155.4221 H   0  0  0  0  0  0  0  0  0  0  0  0  # atno 8009 bound_to 7997
  156.1744  140.1630  156.8377 H   0  0  0  0  0  0  0  0  0  0  0  0  # atno 8010 bound_to 7997
  139.6640  144.7128  151.1811 H   0  0  0  0  0  0  0  0  0  0  0  0  # atno 10167 bound_to 10162
  156.3150  130.4257  149.8014 H   0  0  0  0  0  0  0  0  0  0  0  0  # atno 10718 bound_to 10713
  154.7642  135.3126  154.8318 H   0  0  0  0  0  0  0  0  0  0  0  0  # atno 10763 bound_to 10752
  153.9071  135.6809  153.4757 H   0  0  0  0  0  0  0  0  0  0  0  0  # atno 10764 bound_to 10752
  153.1246  135.4807  154.9184 H   0  0  0  0  0  0  0  0  0  0  0  0  # atno 10765 bound_to 10752
  139.9059  134.8080  156.2191 H   0  0  0  0  0  0  0  0  0  0  0  0  # atno 11005 bound_to 11000
  145.5959  141.0362  143.2045 LP  0  0  0  0  0  0  0  0  0  0  0  0  # atno 17320 bound_to 7965
  144.7391  139.7500  143.7318 LP  0  0  0  0  0  0  0  0  0  0  0  0  # atno 17321 bound_to 7965
  140.7592  143.5949  150.8759 LP  0  0  0  0  0  0  0  0  0  0  0  0  # atno 17342 bound_to 10162
  139.9608  143.6165  152.3002 LP  0  0  0  0  0  0  0  0  0  0  0  0  # atno 17343 bound_to 10162
  156.5343  130.8272  151.3248 LP  0  0  0  0  0  0  0  0  0  0  0  0  # atno 17370 bound_to 10713
  157.7399  130.9841  150.2346 LP  0  0  0  0  0  0  0  0  0  0  0  0  # atno 17371 bound_to 10713
  141.0417  133.6934  156.1609 LP  0  0  0  0  0  0  0  0  0  0  0  0  # atno 17394 bound_to 11000
  140.6946  134.4630  157.5588 LP  0  0  0  0  0  0  0  0  0  0  0  0  # atno 17395 bound_to 11000

$$$$
