AV-unprocessed.smi:1553|AV-procd|sdf|6239|dock10
  -GOLD-   22720 6423D 1   1.00000     0.00000
 Structure written by MMmdl.
 37 38  0  0  0  0  0  0  0  0  1 V2000
  147.0489  138.6584  153.2032 C   0  0  0  0  0  0  0  0  0  0  0  0
  147.9482  139.6630  153.8381 C   0  0  0  0  0  0  0  0  0  0  0  0
  149.0452  139.3406  154.5282 N   0  0  0  0  0  0  0  0  0  0  0  0
  149.7192  140.4612  155.0232 C   0  0  0  0  0  0  0  0  0  0  0  0
  150.9716  140.2855  155.8270 C   0  0  0  0  0  0  0  0  0  0  0  0
  150.6857  140.2015  157.3354 C   0  0  0  0  0  0  0  0  0  0  0  0
  151.6468  140.9799  158.1079 N   0  0  0  0  0  0  0  0  0  0  0  0
  151.3437  142.0282  158.8925 C   0  0  0  0  0  0  0  0  0  0  0  0
  150.1971  142.4652  158.9915 O   0  0  0  0  0  0  0  0  0  0  0  0
  152.4317  142.6145  159.4517 N   0  0  0  0  0  0  0  0  0  0  0  0
  153.5106  141.8100  160.0455 C   0  0  0  0  0  0  0  0  0  0  0  0
  153.2517  141.6931  161.5605 C   0  0  0  0  0  0  0  0  0  0  0  0
  153.1879  142.9926  162.1435 O   0  0  0  0  0  0  0  0  0  0  0  0
  152.1892  143.8269  161.5596 C   0  0  0  0  0  0  0  0  0  0  0  0
  152.4611  143.9651  160.0482 C   0  0  2  0  0  0  0  0  0  0  0  0
  151.5521  145.0146  159.3744 C   0  0  0  0  0  0  0  0  0  0  0  0
  149.1086  141.6468  154.6983 C   0  0  0  0  0  0  0  0  0  0  0  0
  147.6653  141.3973  153.7548 S   0  0  0  0  0  0  0  0  0  0  0  0
  147.5251  137.6776  153.1799 H   0  0  0  0  0  0  0  0  0  0  0  0
  146.8174  138.9576  152.1809 H   0  0  0  0  0  0  0  0  0  0  0  0
  146.1189  138.5830  153.7664 H   0  0  0  0  0  0  0  0  0  0  0  0
  151.4935  139.3848  155.5006 H   0  0  0  0  0  0  0  0  0  0  0  0
  151.6558  141.1126  155.6327 H   0  0  0  0  0  0  0  0  0  0  0  0
  149.6899  140.5926  157.5455 H   0  0  0  0  0  0  0  0  0  0  0  0
  150.6880  139.1627  157.6706 H   0  0  0  0  0  0  0  0  0  0  0  0
  152.6161  140.7053  158.0405 H   0  0  0  0  0  0  0  0  0  0  0  0
  153.5936  140.8114  159.6151 H   0  0  0  0  0  0  0  0  0  0  0  0
  154.4730  142.2899  159.8624 H   0  0  0  0  0  0  0  0  0  0  0  0
  152.3238  141.1534  161.7560 H   0  0  0  0  0  0  0  0  0  0  0  0
  154.0544  141.1314  162.0385 H   0  0  0  0  0  0  0  0  0  0  0  0
  151.1968  143.4136  161.7470 H   0  0  0  0  0  0  0  0  0  0  0  0
  152.2273  144.8024  162.0448 H   0  0  0  0  0  0  0  0  0  0  0  0
  153.4768  144.3452  159.9261 H   0  0  0  0  0  0  0  0  0  0  0  0
  151.7926  146.0141  159.7376 H   0  0  0  0  0  0  0  0  0  0  0  0
  150.4961  144.8513  159.5876 H   0  0  0  0  0  0  0  0  0  0  0  0
  151.6870  145.0215  158.2923 H   0  0  0  0  0  0  0  0  0  0  0  0
  149.4182  142.6485  154.9573 H   0  0  0  0  0  0  0  0  0  0  0  0
  1  2  1  0  0  0  0
  1 19  1  0  0  0  0
  1 20  1  0  0  0  0
  1 21  1  0  0  0  0
  2 18  1  0  0  0  0
  2  3  2  0  0  0  0
  3  4  1  0  0  0  0
  4  5  1  0  0  0  0
  4 17  2  0  0  0  0
  5  6  1  0  0  0  0
  5 22  1  0  0  0  0
  5 23  1  0  0  0  0
  6  7  1  0  0  0  0
  6 24  1  0  0  0  0
  6 25  1  0  0  0  0
  7  8  1  0  0  0  0
  7 26  1  0  0  0  0
  8  9  2  0  0  0  0
  8 10  1  0  0  0  0
 10 15  1  0  0  0  0
 10 11  1  0  0  0  0
 11 12  1  0  0  0  0
 11 27  1  0  0  0  0
 11 28  1  0  0  0  0
 12 13  1  0  0  0  0
 12 29  1  0  0  0  0
 12 30  1  0  0  0  0
 13 14  1  0  0  0  0
 14 15  1  0  0  0  0
 14 31  1  0  0  0  0
 14 32  1  0  0  0  0
 15 16  1  0  0  0  0
 15 33  1  0  0  0  0
 16 34  1  0  0  0  0
 16 35  1  0  0  0  0
 16 36  1  0  0  0  0
 17 18  1  0  0  0  0
 17 37  1  0  0  0  0
M  END
> <s_m_source_file>
AV-unprocessed.smi

> <i_m_source_file_index>
1553

> <i_lp_mmshare_version>
43012

> <i_f3d_flags>
0

> <s_epik_input>
W0NIM11jMW5jKFtjSF1zMSlbQ0gyXVtDSDJdW05IXUMoPU8pTjJbQ0gyXVtDSDJdT1tDSDJdW0NASF0yW0NIM10=

> <s_epik_cmdline>
J2VwaWtfcHl0aG9uJywgJy1waCcsICc3LjAnLCAnLXRuJywgJzgnLCAnLW1hJywgJzIwMCcsICctbWV0YWxfYmluZGluZycsICctaW1hZScsICc8aW5maWxlLm1hZT4nLCAnLW9tYWUnLCAnPG91dGZpbGUubWFlPic=

> <r_epik_Ionization_Penalty>
0.0020768

> <r_epik_Ionization_Penalty_Charging>
0

> <r_epik_Ionization_Penalty_Neutral>
0.0020768

> <r_epik_State_Penalty>
0.00139904

> <r_epik_Charging_Adjusted_Penalty>
0.00139904

> <i_epik_Tot_Q>
0

> <i_epik_Tot_abs_Q>
0

> <r_epik_Metal_State_Penalty>
-0

> <b_epik_Metal_Only>
0

> <s_lp_Force_Field>
OPLS_2005

> <r_lp_Energy>
26.8806

> <b_lp_Chiralities_Consistent>
1

> <s_lp_Variant>
AV-unprocessed.smi:1553-2

> <Gold.Version>
5.8.1

> <Gold.Id.Protein>
6NUR|6NUR_protein|mol2

> <Gold.PLP.Fitness>
43.9660

> <Gold.PLP.PLP>
-42.6531

> <Gold.PLP.part.hbond>
-0.9320

> <Gold.PLP.part.metal>
0.0000

> <Gold.PLP.part.buried>
-2.2908

> <Gold.PLP.part.nonpolar>
-39.3979

> <Gold.PLP.part.repulsive>
0.3516

> <Gold.PLP.ligand.clash>
0.0000

> <Gold.PLP.ligand.torsion>
1.0529

> <Gold.PLP.Chemscore.Hbond>
0.0000

> <Gold.PLP.Chemscore.CHOScore>
1.0000

> <Gold.PLP.Chemscore.Metal>
0.0000

> <Gold.Chemscore.Hbonds>
donor molecule, donor type, donor heavy atom, donor atom, acceptor molecule, acceptor atom, score
      L1  C    17    37       P1  8028  1.00

> <Gold.PLP.Chemscore.Internal.Correction>
0.4187

> <Gold.Rescore>
     Score         DG    S(hbond)    S(metal)    S(lipo)     H(rot)  DE(clash)    DE(int)     intcor
     11.90     -14.41       0.00        0.00     105.49       1.33       0.22       2.30       ----

> <Gold.Chemscore.Fitness>
11.8954

> <Gold.Chemscore.DG>
-14.4112

> <Gold.Chemscore.ZeroCoef>
-5.4800

> <Gold.Chemscore.Hbond>
0.0000

> <Gold.Chemscore.Metal>
0.0000

> <Gold.Chemscore.Lipo>
105.4900

> <Gold.Chemscore.Internal_Hbond>
0.0000

> <Gold.Chemscore.DEClash>
0.2207

> <Gold.Chemscore.DEInternal>
2.2951

> <Gold.Chemscore.Rot>
1.3325

> <Gold.Chemscore.Internal.Correction>
   9.000000E+99

> <Gold.Chemscore.Hbond.Weighted>
-0.0000

> <Gold.Chemscore.Metal.Weighted>
-0.0000

> <Gold.Chemscore.Lipo.Weighted>
-12.3423

> <Gold.Chemscore.Internal_Hbond.Weighted>
0.0000

> <Gold.Chemscore.DEClash.Weighted>
0.2207

> <Gold.Chemscore.DEInternal.Weighted>
2.2951

> <Gold.Chemscore.Rot.Weighted>
3.4111

> <Gold.Chemscore.Internal.Correction.Weighted>
   9.000000E+99

> <Gold.Protein.RotatedTorsions>
[ 6907 6896 6895 6894 ] final   64.05 input  -60.11 | X-H torsion
[ 7974 7965 7964 7962 ] final   77.12 input  175.53 | X-H torsion
[ 8008 7997 7996 7995 ] final   -6.93 input   59.86 | X-H torsion
[ 10167 10162 10161 10158 ] final  124.46 input  -65.29 | X-H torsion
[ 10718 10713 10712 10709 ] final -142.69 input   66.30 | X-H torsion
[ 10763 10752 10751 10750 ] final  172.81 input  -60.55 | X-H torsion
[ 11005 11000 10999 10996 ] final  -78.88 input  -57.11 | X-H torsion

> <Gold.Protein.ActiveResidues>
 VAL166  LYS551  ARG553  GLY616  TRP617  ASP618  TYR619  PRO620  LYS621  CYS622 
 ASP623  PHE694  ASN695  SER759  ASP760  ASP761  ALA762  ILE779  LEU786  VAL792 
 PHE793  MET794  SER795  GLU796  ALA797  LYS798  CYS799  TRP800  GLU811  SER814 

> <Gold.Protein.RotatedAtoms>
  152.4301  134.5793  159.9943 H   0  0  0  0  0  0  0  0  0  0  0  0  # atno 6907 bound_to 6896
  151.5918  133.3360  159.3037 H   0  0  0  0  0  0  0  0  0  0  0  0  # atno 6908 bound_to 6896
  150.8194  134.7429  159.6823 H   0  0  0  0  0  0  0  0  0  0  0  0  # atno 6909 bound_to 6896
  145.6941  139.2561  143.1743 H   0  0  0  0  0  0  0  0  0  0  0  0  # atno 7974 bound_to 7965
  154.5888  140.2420  155.7949 H   0  0  0  0  0  0  0  0  0  0  0  0  # atno 8008 bound_to 7997
  156.2232  140.2991  155.9958 H   0  0  0  0  0  0  0  0  0  0  0  0  # atno 8009 bound_to 7997
  155.2410  140.0407  157.2965 H   0  0  0  0  0  0  0  0  0  0  0  0  # atno 8010 bound_to 7997
  139.5740  144.6954  151.3702 H   0  0  0  0  0  0  0  0  0  0  0  0  # atno 10167 bound_to 10162
  156.3490  130.7678  151.1827 H   0  0  0  0  0  0  0  0  0  0  0  0  # atno 10718 bound_to 10713
  154.4313  135.2760  155.1910 H   0  0  0  0  0  0  0  0  0  0  0  0  # atno 10763 bound_to 10752
  154.3815  135.6086  153.5797 H   0  0  0  0  0  0  0  0  0  0  0  0  # atno 10764 bound_to 10752
  152.9836  135.5881  154.4625 H   0  0  0  0  0  0  0  0  0  0  0  0  # atno 10765 bound_to 10752
  141.1666  133.7082  156.8039 H   0  0  0  0  0  0  0  0  0  0  0  0  # atno 11005 bound_to 11000
  146.0856  140.7714  142.9620 LP  0  0  0  0  0  0  0  0  0  0  0  0  # atno 17320 bound_to 7965
  144.6988  140.3557  143.7173 LP  0  0  0  0  0  0  0  0  0  0  0  0  # atno 17321 bound_to 7965
  140.7024  143.7599  150.7425 LP  0  0  0  0  0  0  0  0  0  0  0  0  # atno 17342 bound_to 10162
  140.1113  143.4696  152.2368 LP  0  0  0  0  0  0  0  0  0  0  0  0  # atno 17343 bound_to 10162
  157.7458  131.0433  150.4737 LP  0  0  0  0  0  0  0  0  0  0  0  0  # atno 17370 bound_to 10713
  156.4929  130.4099  149.6396 LP  0  0  0  0  0  0  0  0  0  0  0  0  # atno 17371 bound_to 10713
  140.2236  134.8738  157.3403 LP  0  0  0  0  0  0  0  0  0  0  0  0  # atno 17394 bound_to 11000
  140.1962  134.4310  155.7688 LP  0  0  0  0  0  0  0  0  0  0  0  0  # atno 17395 bound_to 11000

$$$$
