AV-unprocessed.smi:2727|AV-procd|sdf|10523|dock2
  -GOLD-   2272014563D 1   1.00000     0.00000
 Structure written by MMmdl.
 40 41  0  0  0  0  0  0  0  0  1 V2000
  146.4088  133.0059  153.8592 O   0  0  0  0  0  0  0  0  0  0  0  0
  146.7352  133.9562  153.1401 C   0  0  0  0  0  0  0  0  0  0  0  0
  147.7646  134.7550  153.4607 N   0  0  0  0  0  0  0  0  0  0  0  0
  148.6070  134.6118  154.6437 C   0  0  0  0  0  0  0  0  0  0  0  0
  148.9715  135.9827  155.2492 C   0  0  0  0  0  0  0  0  0  0  0  0
  150.4386  136.3888  155.0206 C   0  0  0  0  0  0  0  0  0  0  0  0
  151.3312  135.5802  155.2821 O   0  0  0  0  0  0  0  0  0  0  0  0
  150.7122  137.6296  154.5471 N   0  0  0  0  0  0  0  0  0  0  0  0
  152.0935  138.0993  154.3842 C   0  0  0  0  0  0  0  0  0  0  0  0
  152.6871  138.6216  155.7085 C   0  0  0  0  0  0  0  0  0  0  0  0
  151.7007  139.3495  156.6483 C   0  0  0  0  0  0  0  0  0  0  0  0
  150.7065  140.2997  155.9518 C   0  0  0  0  0  0  0  0  0  0  0  0
  149.4465  139.5911  155.4104 C   0  0  0  0  0  0  0  0  0  0  0  0
  149.7040  138.6481  154.2197 C   0  0  0  0  0  0  0  0  0  0  0  0
  146.1654  134.3694  151.9437 N   0  0  0  0  0  0  0  0  0  0  0  0
  145.2643  133.6360  151.3645 C   0  0  0  0  0  0  0  0  0  0  0  0
  144.6796  132.4149  151.6910 N   0  0  0  0  0  0  0  0  0  0  0  0
  143.7800  132.0971  150.7123 C   0  0  0  0  0  0  0  0  0  0  0  0
  143.7941  133.0720  149.8084 C   0  0  0  0  0  0  0  0  0  0  0  0
  144.6917  134.0274  150.1806 O   0  0  0  0  0  0  0  0  0  0  0  0
  147.9852  135.5145  152.8330 H   0  0  0  0  0  0  0  0  0  0  0  0
  148.1029  133.9811  155.3787 H   0  0  0  0  0  0  0  0  0  0  0  0
  149.5127  134.0811  154.3481 H   0  0  0  0  0  0  0  0  0  0  0  0
  148.3221  136.7507  154.8276 H   0  0  0  0  0  0  0  0  0  0  0  0
  148.7811  135.9562  156.3219 H   0  0  0  0  0  0  0  0  0  0  0  0
  152.7283  137.3125  153.9732 H   0  0  0  0  0  0  0  0  0  0  0  0
  152.1360  138.8992  153.6444 H   0  0  0  0  0  0  0  0  0  0  0  0
  153.1269  137.7883  156.2577 H   0  0  0  0  0  0  0  0  0  0  0  0
  153.5181  139.2873  155.4722 H   0  0  0  0  0  0  0  0  0  0  0  0
  151.1453  138.6174  157.2362 H   0  0  0  0  0  0  0  0  0  0  0  0
  152.2850  139.9163  157.3738 H   0  0  0  0  0  0  0  0  0  0  0  0
  150.3791  141.0396  156.6826 H   0  0  0  0  0  0  0  0  0  0  0  0
  151.2040  140.8629  155.1614 H   0  0  0  0  0  0  0  0  0  0  0  0
  148.9640  139.0442  156.2208 H   0  0  0  0  0  0  0  0  0  0  0  0
  148.7266  140.3483  155.0984 H   0  0  0  0  0  0  0  0  0  0  0  0
  150.0257  139.2345  153.3582 H   0  0  0  0  0  0  0  0  0  0  0  0
  148.7661  138.1967  153.8969 H   0  0  0  0  0  0  0  0  0  0  0  0
  144.8584  131.8318  152.4960 H   0  0  0  0  0  0  0  0  0  0  0  0
  143.2105  131.1812  150.7693 H   0  0  0  0  0  0  0  0  0  0  0  0
  143.2507  133.2264  148.8879 H   0  0  0  0  0  0  0  0  0  0  0  0
  1  2  2  0  0  0  0
  2 15  1  0  0  0  0
  2  3  1  0  0  0  0
  3  4  1  0  0  0  0
  3 21  1  0  0  0  0
  4  5  1  0  0  0  0
  4 22  1  0  0  0  0
  4 23  1  0  0  0  0
  5  6  1  0  0  0  0
  5 24  1  0  0  0  0
  5 25  1  0  0  0  0
  6  7  2  0  0  0  0
  6  8  1  0  0  0  0
  8 14  1  0  0  0  0
  8  9  1  0  0  0  0
  9 10  1  0  0  0  0
  9 26  1  0  0  0  0
  9 27  1  0  0  0  0
 10 11  1  0  0  0  0
 10 28  1  0  0  0  0
 10 29  1  0  0  0  0
 11 12  1  0  0  0  0
 11 30  1  0  0  0  0
 11 31  1  0  0  0  0
 12 13  1  0  0  0  0
 12 32  1  0  0  0  0
 12 33  1  0  0  0  0
 13 14  1  0  0  0  0
 13 34  1  0  0  0  0
 13 35  1  0  0  0  0
 14 36  1  0  0  0  0
 14 37  1  0  0  0  0
 15 16  2  0  0  0  0
 16 20  1  0  0  0  0
 16 17  1  0  0  0  0
 17 38  1  0  0  0  0
 17 18  1  0  0  0  0
 18 39  1  0  0  0  0
 18 19  2  0  0  0  0
 19 40  1  0  0  0  0
 19 20  1  0  0  0  0
M  END
> <s_m_source_file>
AV-unprocessed.smi

> <i_m_source_file_index>
2727

> <i_lp_mmshare_version>
43012

> <i_f3d_flags>
0

> <s_epik_input>
bzFbY0hdW2NIXW5jMVtOSF1DKD1PKVtOSF1bQ0gyXVtDSDJdQyg9TylOMltDSDJdW0NIMl1bQ0gyXVtDSDJdW0NIMl1bQ0gyXTI=

> <s_epik_cmdline>
J2VwaWtfcHl0aG9uJywgJy1waCcsICc3LjAnLCAnLXRuJywgJzgnLCAnLW1hJywgJzIwMCcsICctbWV0YWxfYmluZGluZycsICctaW1hZScsICc8aW5maWxlLm1hZT4nLCAnLW9tYWUnLCAnPG91dGZpbGUubWFlPic=

> <r_lp_tautomer_probability>
0.107061

> <r_epik_Ionization_Penalty>
0.376272

> <r_epik_Ionization_Penalty_Charging>
0.375918

> <r_epik_Ionization_Penalty_Neutral>
0.000353756

> <r_epik_State_Penalty>
2.48665

> <r_epik_Charging_Adjusted_Penalty>
2.86256

> <i_epik_Tot_Q>
0

> <i_epik_Tot_abs_Q>
0

> <r_epik_Metal_State_Penalty>
4.1171

> <b_epik_Metal_Only>
0

> <s_lp_Force_Field>
OPLS_2005

> <r_lp_Energy>
47.9019

> <b_lp_Chiralities_Consistent>
1

> <s_lp_Variant>
AV-unprocessed.smi:2727-3

> <Gold.Version>
5.8.1

> <Gold.Id.Protein>
6NUR|6NUR_protein|mol2

> <Gold.PLP.Fitness>
37.9363

> <Gold.PLP.PLP>
-30.8730

> <Gold.PLP.part.hbond>
-1.8545

> <Gold.PLP.part.metal>
0.0000

> <Gold.PLP.part.buried>
-3.7527

> <Gold.PLP.part.nonpolar>
-26.6347

> <Gold.PLP.part.repulsive>
0.9116

> <Gold.PLP.ligand.clash>
0.0000

> <Gold.PLP.ligand.torsion>
0.6190

> <Gold.PLP.Chemscore.Hbond>
2.0000

> <Gold.PLP.Chemscore.CHOScore>
0.7532

> <Gold.PLP.Chemscore.Metal>
0.0000

> <Gold.Chemscore.Hbonds>
donor molecule, donor type, donor heavy atom, donor atom, acceptor molecule, acceptor atom, score
      L1  H     3    21       P1  7948  0.99
      P1  H 10752 10765       L1     7  1.00
      L1  C    18    39       P1 10952  0.33
      L1  C    19    40       P1 10186  0.42

> <Gold.PLP.Chemscore.Internal.Correction>
0.0419

> <Gold.Rescore>
     Score         DG    S(hbond)    S(metal)    S(lipo)     H(rot)  DE(clash)    DE(int)     intcor
     15.08     -15.79       1.96        0.00      69.35       1.70       0.06       0.65       ----

> <Gold.Chemscore.Fitness>
15.0810

> <Gold.Chemscore.DG>
-15.7909

> <Gold.Chemscore.ZeroCoef>
-5.4800

> <Gold.Chemscore.Hbond>
1.9625

> <Gold.Chemscore.Metal>
0.0000

> <Gold.Chemscore.Lipo>
69.3542

> <Gold.Chemscore.Internal_Hbond>
0.0000

> <Gold.Chemscore.DEClash>
0.0619

> <Gold.Chemscore.DEInternal>
0.6481

> <Gold.Chemscore.Rot>
1.7025

> <Gold.Chemscore.Internal.Correction>
   9.000000E+99

> <Gold.Chemscore.Hbonds>
donor molecule, donor type, donor heavy atom, donor atom, acceptor molecule, acceptor atom, score
      L1  H     3    21       P1  7948  0.88
      P1  H 10752 10765       L1     7  0.99

> <Gold.Chemscore.Hbond.Weighted>
-6.5548

> <Gold.Chemscore.Metal.Weighted>
-0.0000

> <Gold.Chemscore.Lipo.Weighted>
-8.1144

> <Gold.Chemscore.Internal_Hbond.Weighted>
0.0000

> <Gold.Chemscore.DEClash.Weighted>
0.0619

> <Gold.Chemscore.DEInternal.Weighted>
0.6481

> <Gold.Chemscore.Rot.Weighted>
4.3584

> <Gold.Chemscore.Internal.Correction.Weighted>
   9.000000E+99

> <Gold.Protein.RotatedTorsions>
[ 6907 6896 6895 6894 ] final -173.92 input  -60.11 | X-H torsion
[ 7974 7965 7964 7962 ] final   75.32 input  175.53 | X-H torsion
[ 8008 7997 7996 7995 ] final  -86.65 input   59.86 | X-H torsion
[ 10167 10162 10161 10158 ] final -109.45 input  -65.29 | X-H torsion
[ 10718 10713 10712 10709 ] final  164.17 input   66.30 | X-H torsion
[ 10763 10752 10751 10750 ] final -176.80 input  -60.55 | X-H torsion
[ 11005 11000 10999 10996 ] final  -49.48 input  -57.11 | X-H torsion

> <Gold.Protein.ActiveResidues>
 VAL166  LYS551  ARG553  GLY616  TRP617  ASP618  TYR619  PRO620  LYS621  CYS622 
 ASP623  PHE694  ASN695  SER759  ASP760  ASP761  ALA762  ILE779  LEU786  VAL792 
 PHE793  MET794  SER795  GLU796  ALA797  LYS798  CYS799  TRP800  GLU811  SER814 

> <Gold.Protein.RotatedAtoms>
  151.5640  133.3399  159.2976 H   0  0  0  0  0  0  0  0  0  0  0  0  # atno 6907 bound_to 6896
  150.8406  134.7699  159.6940 H   0  0  0  0  0  0  0  0  0  0  0  0  # atno 6908 bound_to 6896
  152.4474  134.5472  159.9908 H   0  0  0  0  0  0  0  0  0  0  0  0  # atno 6909 bound_to 6896
  145.7170  139.2635  143.1618 H   0  0  0  0  0  0  0  0  0  0  0  0  # atno 7974 bound_to 7965
  154.6542  140.0576  156.9990 H   0  0  0  0  0  0  0  0  0  0  0  0  # atno 8008 bound_to 7997
  155.1325  140.3258  155.4452 H   0  0  0  0  0  0  0  0  0  0  0  0  # atno 8009 bound_to 7997
  156.2590  140.1978  156.6443 H   0  0  0  0  0  0  0  0  0  0  0  0  # atno 8010 bound_to 7997
  140.1551  143.4166  152.1466 H   0  0  0  0  0  0  0  0  0  0  0  0  # atno 10167 bound_to 10162
  157.0982  131.0436  151.2509 H   0  0  0  0  0  0  0  0  0  0  0  0  # atno 10718 bound_to 10713
  154.5679  135.2825  155.0856 H   0  0  0  0  0  0  0  0  0  0  0  0  # atno 10763 bound_to 10752
  154.2239  135.6386  153.5157 H   0  0  0  0  0  0  0  0  0  0  0  0  # atno 10764 bound_to 10752
  153.0048  135.5521  154.6294 H   0  0  0  0  0  0  0  0  0  0  0  0  # atno 10765 bound_to 10752
  141.0761  133.6665  156.3592 H   0  0  0  0  0  0  0  0  0  0  0  0  # atno 11005 bound_to 11000
  146.0660  140.7920  142.9711 LP  0  0  0  0  0  0  0  0  0  0  0  0  # atno 17320 bound_to 7965
  144.6926  140.3269  143.7222 LP  0  0  0  0  0  0  0  0  0  0  0  0  # atno 17321 bound_to 7965
  139.5407  144.7253  151.4743 LP  0  0  0  0  0  0  0  0  0  0  0  0  # atno 17342 bound_to 10162
  140.6678  143.8360  150.6962 LP  0  0  0  0  0  0  0  0  0  0  0  0  # atno 17343 bound_to 10162
  157.4663  130.7683  149.7282 LP  0  0  0  0  0  0  0  0  0  0  0  0  # atno 17370 bound_to 10713
  155.9880  130.3962  150.3137 LP  0  0  0  0  0  0  0  0  0  0  0  0  # atno 17371 bound_to 10713
  140.5569  134.5972  157.5423 LP  0  0  0  0  0  0  0  0  0  0  0  0  # atno 17394 bound_to 11000
  139.9574  134.7512  156.0312 LP  0  0  0  0  0  0  0  0  0  0  0  0  # atno 17395 bound_to 11000

$$$$
