AV-unprocessed.smi:3289|AV-procd|sdf|12610|dock7
  -GOLD-   2272018543D 1   1.00000     0.00000
 Structure written by MMmdl.
 39 40  0  0  0  0  0  0  0  0  1 V2000
  151.4093  144.2358  157.7251 C   0  0  0  0  0  0  0  0  0  0  0  0
  151.3272  143.9698  159.2348 C   0  0  0  0  0  0  0  0  0  0  0  0
  151.6358  145.2294  160.0583 C   0  0  0  0  0  0  0  0  0  0  0  0
  152.2009  142.8126  159.6383 C   0  0  0  0  0  0  0  0  0  0  0  0
  153.3390  142.9625  160.3122 N   0  0  0  0  0  0  0  0  0  0  0  0
  153.8485  141.6779  160.4546 C   0  0  0  0  0  0  0  0  0  0  0  0
  153.0009  140.7852  159.8474 C   0  0  0  0  0  0  0  0  0  0  0  0
  151.9486  141.5234  159.3186 N   0  0  0  0  0  0  0  0  0  0  0  0
  150.8324  140.9643  158.5694 C   0  0  0  0  0  0  0  0  0  0  0  0
  151.2955  140.3884  157.2292 C   0  0  0  0  0  0  0  0  0  0  0  0
  152.4942  140.1998  157.0225 O   0  0  0  0  0  0  0  0  0  0  0  0
  150.3381  140.1205  156.3278 N   0  0  0  0  0  0  0  0  0  0  0  0
  150.5688  139.5746  154.9953 C   0  0  0  0  0  0  0  0  0  0  0  0
  149.3131  139.6860  154.1152 C   0  0  1  0  0  0  0  0  0  0  0  0
  148.0894  138.9875  154.6993 C   0  0  0  0  0  0  0  0  0  0  0  0
  146.9603  139.6512  153.9393 C   0  0  0  0  0  0  0  0  0  0  0  0
  147.4872  141.0681  153.7007 C   0  0  0  0  0  0  0  0  0  0  0  0
  148.8799  141.0352  154.0014 O   0  0  0  0  0  0  0  0  0  0  0  0
  151.1186  143.3519  157.1564 H   0  0  0  0  0  0  0  0  0  0  0  0
  152.4211  144.5081  157.4234 H   0  0  0  0  0  0  0  0  0  0  0  0
  150.7444  145.0487  157.4328 H   0  0  0  0  0  0  0  0  0  0  0  0
  150.2909  143.7180  159.4498 H   0  0  0  0  0  0  0  0  0  0  0  0
  151.5174  145.0382  161.1253 H   0  0  0  0  0  0  0  0  0  0  0  0
  150.9642  146.0463  159.7933 H   0  0  0  0  0  0  0  0  0  0  0  0
  152.6572  145.5738  159.8928 H   0  0  0  0  0  0  0  0  0  0  0  0
  154.7780  141.4976  160.9738 H   0  0  0  0  0  0  0  0  0  0  0  0
  153.0619  139.7120  159.7421 H   0  0  0  0  0  0  0  0  0  0  0  0
  150.3791  140.1649  159.1567 H   0  0  0  0  0  0  0  0  0  0  0  0
  150.0616  141.7243  158.4373 H   0  0  0  0  0  0  0  0  0  0  0  0
  149.3792  140.3047  156.5847 H   0  0  0  0  0  0  0  0  0  0  0  0
  151.3810  140.1450  154.5441 H   0  0  0  0  0  0  0  0  0  0  0  0
  150.9134  138.5406  155.0508 H   0  0  0  0  0  0  0  0  0  0  0  0
  149.5119  139.2961  153.1152 H   0  0  0  0  0  0  0  0  0  0  0  0
  148.1128  137.9052  154.5693 H   0  0  0  0  0  0  0  0  0  0  0  0
  147.9986  139.2037  155.7649 H   0  0  0  0  0  0  0  0  0  0  0  0
  146.8080  139.1459  152.9844 H   0  0  0  0  0  0  0  0  0  0  0  0
  146.0164  139.6357  154.4848 H   0  0  0  0  0  0  0  0  0  0  0  0
  147.3264  141.3809  152.6687 H   0  0  0  0  0  0  0  0  0  0  0  0
  146.9989  141.7917  154.3539 H   0  0  0  0  0  0  0  0  0  0  0  0
  1  2  1  0  0  0  0
  1 19  1  0  0  0  0
  1 20  1  0  0  0  0
  1 21  1  0  0  0  0
  2  3  1  0  0  0  0
  2  4  1  0  0  0  0
  2 22  1  0  0  0  0
  3 23  1  0  0  0  0
  3 24  1  0  0  0  0
  3 25  1  0  0  0  0
  4  8  1  0  0  0  0
  4  5  2  0  0  0  0
  5  6  1  0  0  0  0
  6  7  2  0  0  0  0
  6 26  1  0  0  0  0
  7  8  1  0  0  0  0
  7 27  1  0  0  0  0
  8  9  1  0  0  0  0
  9 10  1  0  0  0  0
  9 28  1  0  0  0  0
  9 29  1  0  0  0  0
 10 11  2  0  0  0  0
 10 12  1  0  0  0  0
 12 13  1  0  0  0  0
 12 30  1  0  0  0  0
 13 14  1  0  0  0  0
 13 31  1  0  0  0  0
 13 32  1  0  0  0  0
 14 18  1  0  0  0  0
 14 15  1  0  0  0  0
 14 33  1  0  0  0  0
 15 16  1  0  0  0  0
 15 34  1  0  0  0  0
 15 35  1  0  0  0  0
 16 17  1  0  0  0  0
 16 36  1  0  0  0  0
 16 37  1  0  0  0  0
 17 18  1  0  0  0  0
 17 38  1  0  0  0  0
 17 39  1  0  0  0  0
M  END
> <s_m_source_file>
AV-unprocessed.smi

> <i_m_source_file_index>
3289

> <i_lp_mmshare_version>
43012

> <i_f3d_flags>
0

> <s_epik_input>
W0NIM11bQ0hdKFtDSDNdKWMxbltjSF1bY0hdbjFbQ0gyXUMoPU8pW05IXVtDSDJdW0NAQEhdMltDSDJdW0NIMl1bQ0gyXU8y

> <s_epik_cmdline>
J2VwaWtfcHl0aG9uJywgJy1waCcsICc3LjAnLCAnLXRuJywgJzgnLCAnLW1hJywgJzIwMCcsICctbWV0YWxfYmluZGluZycsICctaW1hZScsICc8aW5maWxlLm1hZT4nLCAnLW9tYWUnLCAnPG91dGZpbGUubWFlPic=

> <r_lp_tautomer_probability>
1

> <r_epik_Ionization_Penalty>
0.587725

> <r_epik_Ionization_Penalty_Charging>
0.587725

> <r_epik_Ionization_Penalty_Neutral>
1.43432e-07

> <r_epik_State_Penalty>
0.601029

> <r_epik_Charging_Adjusted_Penalty>
1.18875

> <i_epik_Tot_Q>
0

> <i_epik_Tot_abs_Q>
0

> <r_epik_Metal_State_Penalty>
0.297663

> <b_epik_Metal_Only>
0

> <s_lp_Force_Field>
OPLS_2005

> <r_lp_Energy>
18.4157

> <b_lp_Chiralities_Consistent>
1

> <s_lp_Variant>
AV-unprocessed.smi:3289-4

> <Gold.Version>
5.8.1

> <Gold.Id.Protein>
6NUR|6NUR_protein|mol2

> <Gold.PLP.Fitness>
43.7799

> <Gold.PLP.PLP>
-40.1340

> <Gold.PLP.part.hbond>
-2.6106

> <Gold.PLP.part.metal>
0.0000

> <Gold.PLP.part.buried>
-1.0305

> <Gold.PLP.part.nonpolar>
-35.7952

> <Gold.PLP.part.repulsive>
0.4786

> <Gold.PLP.ligand.clash>
0.0000

> <Gold.PLP.ligand.torsion>
0.6463

> <Gold.PLP.Chemscore.Hbond>
1.6217

> <Gold.PLP.Chemscore.CHOScore>
0.0000

> <Gold.PLP.Chemscore.Metal>
0.0000

> <Gold.Chemscore.Hbonds>
donor molecule, donor type, donor heavy atom, donor atom, acceptor molecule, acceptor atom, score
      P1  H  7997  8010       L1    11  1.00
      P1  H  8011  8017       L1    18  0.17

> <Gold.PLP.Chemscore.Internal.Correction>
0.0732

> <Gold.Rescore>
     Score         DG    S(hbond)    S(metal)    S(lipo)     H(rot)  DE(clash)    DE(int)     intcor
     13.46     -16.01       1.28        0.00      90.88       1.72       0.98       1.57       ----

> <Gold.Chemscore.Fitness>
13.4581

> <Gold.Chemscore.DG>
-16.0053

> <Gold.Chemscore.ZeroCoef>
-5.4800

> <Gold.Chemscore.Hbond>
1.2840

> <Gold.Chemscore.Metal>
0.0000

> <Gold.Chemscore.Lipo>
90.8841

> <Gold.Chemscore.Internal_Hbond>
0.0000

> <Gold.Chemscore.DEClash>
0.9811

> <Gold.Chemscore.DEInternal>
1.5661

> <Gold.Chemscore.Rot>
1.7175

> <Gold.Chemscore.Internal.Correction>
   9.000000E+99

> <Gold.Chemscore.Hbonds>
donor molecule, donor type, donor heavy atom, donor atom, acceptor molecule, acceptor atom, score
      P1  H  7997  8010       L1    11  0.97
      P1  H  8011  8017       L1    18  0.06

> <Gold.Chemscore.Hbond.Weighted>
-4.2886

> <Gold.Chemscore.Metal.Weighted>
-0.0000

> <Gold.Chemscore.Lipo.Weighted>
-10.6334

> <Gold.Chemscore.Internal_Hbond.Weighted>
0.0000

> <Gold.Chemscore.DEClash.Weighted>
0.9811

> <Gold.Chemscore.DEInternal.Weighted>
1.5661

> <Gold.Chemscore.Rot.Weighted>
4.3967

> <Gold.Chemscore.Internal.Correction.Weighted>
   9.000000E+99

> <Gold.Protein.RotatedTorsions>
[ 6907 6896 6895 6894 ] final  -12.37 input  -60.11 | X-H torsion
[ 7974 7965 7964 7962 ] final  140.95 input  175.53 | X-H torsion
[ 8008 7997 7996 7995 ] final   65.42 input   59.86 | X-H torsion
[ 10167 10162 10161 10158 ] final  -49.05 input  -65.29 | X-H torsion
[ 10718 10713 10712 10709 ] final  -80.29 input   66.30 | X-H torsion
[ 10763 10752 10751 10750 ] final   35.28 input  -60.55 | X-H torsion
[ 11005 11000 10999 10996 ] final  168.94 input  -57.11 | X-H torsion

> <Gold.Protein.ActiveResidues>
 VAL166  LYS551  ARG553  GLY616  TRP617  ASP618  TYR619  PRO620  LYS621  CYS622 
 ASP623  PHE694  ASN695  SER759  ASP760  ASP761  ALA762  ILE779  LEU786  VAL792 
 PHE793  MET794  SER795  GLU796  ALA797  LYS798  CYS799  TRP800  GLU811  SER814 

> <Gold.Protein.RotatedAtoms>
  151.3716  135.0923  159.9466 H   0  0  0  0  0  0  0  0  0  0  0  0  # atno 6907 bound_to 6896
  152.5134  133.9159  159.7521 H   0  0  0  0  0  0  0  0  0  0  0  0  # atno 6908 bound_to 6896
  150.9574  133.6427  159.2789 H   0  0  0  0  0  0  0  0  0  0  0  0  # atno 6909 bound_to 6896
  144.9140  139.5255  143.5695 H   0  0  0  0  0  0  0  0  0  0  0  0  # atno 7974 bound_to 7965
  155.6615  140.3497  155.4784 H   0  0  0  0  0  0  0  0  0  0  0  0  # atno 8008 bound_to 7997
  155.9765  140.1166  157.0788 H   0  0  0  0  0  0  0  0  0  0  0  0  # atno 8009 bound_to 7997
  154.4180  140.1147  156.5363 H   0  0  0  0  0  0  0  0  0  0  0  0  # atno 8010 bound_to 7997
  140.6703  143.2714  151.4159 H   0  0  0  0  0  0  0  0  0  0  0  0  # atno 10167 bound_to 10162
  156.0073  130.4570  150.3777 H   0  0  0  0  0  0  0  0  0  0  0  0  # atno 10718 bound_to 10713
  153.0126  135.6337  154.1801 H   0  0  0  0  0  0  0  0  0  0  0  0  # atno 10763 bound_to 10752
  154.1542  135.2827  155.3128 H   0  0  0  0  0  0  0  0  0  0  0  0  # atno 10764 bound_to 10752
  154.6030  135.5581  153.7455 H   0  0  0  0  0  0  0  0  0  0  0  0  # atno 10765 bound_to 10752
  140.2925  134.7661  157.3850 H   0  0  0  0  0  0  0  0  0  0  0  0  # atno 11005 bound_to 11000
  146.3172  139.7968  142.8974 LP  0  0  0  0  0  0  0  0  0  0  0  0  # atno 17320 bound_to 7965
  145.3407  141.0287  143.3394 LP  0  0  0  0  0  0  0  0  0  0  0  0  # atno 17321 bound_to 7965
  139.5969  144.1379  152.2153 LP  0  0  0  0  0  0  0  0  0  0  0  0  # atno 17342 bound_to 10162
  140.0751  144.5747  150.7163 LP  0  0  0  0  0  0  0  0  0  0  0  0  # atno 17343 bound_to 10162
  157.1859  131.0403  151.2725 LP  0  0  0  0  0  0  0  0  0  0  0  0  # atno 17370 bound_to 10713
  157.4105  130.7382  149.6835 LP  0  0  0  0  0  0  0  0  0  0  0  0  # atno 17371 bound_to 10713
  140.1182  134.5255  155.8206 LP  0  0  0  0  0  0  0  0  0  0  0  0  # atno 17394 bound_to 11000
  141.2143  133.6747  156.6817 LP  0  0  0  0  0  0  0  0  0  0  0  0  # atno 17395 bound_to 11000

$$$$
