AV-unprocessed.smi:1406|AV-procd|sdf|5711|dock3
  -GOLD-   22720 5343D 1   1.00000     0.00000
 Structure written by MMmdl.
 41 43  0  0  0  0  0  0  0  0  2 V2000
  147.8332  133.7596  157.5905 C   0  0  0  0  0  0  0  0  0  0  0  0
  148.2455  134.2257  156.1792 C   0  0  2  0  0  0  0  0  0  0  0  0
  148.2248  133.0901  155.1447 C   0  0  0  0  0  0  0  0  0  0  0  0
  148.7902  132.0191  155.3677 O   0  0  0  0  0  0  0  0  0  0  0  0
  147.5898  133.3532  153.9919 N   0  0  0  0  0  0  0  0  0  0  0  0
  147.5694  132.4675  152.8320 C   0  0  1  0  0  0  0  0  0  0  0  0
  146.8004  131.1624  153.0793 C   0  0  0  0  0  0  0  0  0  0  0  0
  146.1745  130.8002  151.7202 C   0  0  0  0  0  0  0  0  0  0  0  0
  146.5707  131.8758  150.7841 N   0  3  1  0  0  0  0  0  0  0  0  0
  145.6836  132.0951  149.6130 C   0  0  0  0  0  0  0  0  0  0  0  0
  144.4148  132.8881  149.9686 C   0  0  0  0  0  0  0  0  0  0  0  0
  144.7765  134.1995  150.6735 C   0  0  0  0  0  0  0  0  0  0  0  0
  145.6017  133.8979  151.9286 C   0  0  0  0  0  0  0  0  0  0  0  0
  146.8740  133.0729  151.5994 C   0  0  1  0  0  0  0  0  0  0  0  0
  149.5519  134.8737  156.1712 N   0  0  0  0  0  0  0  0  0  0  0  0
  150.1799  135.5254  155.1897 C   0  0  0  0  0  0  0  0  0  0  0  0
  151.3995  135.9344  155.5082 N   0  0  0  0  0  0  0  0  0  0  0  0
  151.4698  135.4666  156.7895 C   0  0  0  0  0  0  0  0  0  0  0  0
  150.3970  134.8101  157.2304 N   0  0  0  0  0  0  0  0  0  0  0  0
  146.8290  133.3346  157.5855 H   0  0  0  0  0  0  0  0  0  0  0  0
  147.8295  134.5964  158.2895 H   0  0  0  0  0  0  0  0  0  0  0  0
  148.5102  133.0022  157.9882 H   0  0  0  0  0  0  0  0  0  0  0  0
  147.5157  134.9711  155.8586 H   0  0  0  0  0  0  0  0  0  0  0  0
  147.1411  134.2522  153.8911 H   0  0  0  0  0  0  0  0  0  0  0  0
  148.5950  132.2065  152.5621 H   0  0  0  0  0  0  0  0  0  0  0  0
  147.4565  130.3753  153.4523 H   0  0  0  0  0  0  0  0  0  0  0  0
  146.0107  131.3078  153.8179 H   0  0  0  0  0  0  0  0  0  0  0  0
  146.5255  129.8357  151.3522 H   0  0  0  0  0  0  0  0  0  0  0  0
  145.0895  130.7451  151.8147 H   0  0  0  0  0  0  0  0  0  0  0  0
  146.2515  132.6486  148.8644 H   0  0  0  0  0  0  0  0  0  0  0  0
  145.4266  131.1372  149.1593 H   0  0  0  0  0  0  0  0  0  0  0  0
  143.8447  133.0985  149.0632 H   0  0  0  0  0  0  0  0  0  0  0  0
  143.7639  132.2916  150.6087 H   0  0  0  0  0  0  0  0  0  0  0  0
  145.3438  134.8432  149.9999 H   0  0  0  0  0  0  0  0  0  0  0  0
  143.8713  134.7450  150.9418 H   0  0  0  0  0  0  0  0  0  0  0  0
  145.8754  134.8360  152.4125 H   0  0  0  0  0  0  0  0  0  0  0  0
  144.9759  133.3590  152.6411 H   0  0  0  0  0  0  0  0  0  0  0  0
  147.5678  133.7071  151.0457 H   0  0  0  0  0  0  0  0  0  0  0  0
  149.7398  135.6939  154.2179 H   0  0  0  0  0  0  0  0  0  0  0  0
  152.3415  135.6040  157.4124 H   0  0  0  0  0  0  0  0  0  0  0  0
  147.4599  131.5755  150.4103 H   0  0  0  0  0  0  0  0  0  0  0  0
  1  2  1  0  0  0  0
  1 20  1  0  0  0  0
  1 21  1  0  0  0  0
  1 22  1  0  0  0  0
  2  3  1  0  0  0  0
  2 15  1  0  0  0  0
  2 23  1  0  0  0  0
  3  4  2  0  0  0  0
  3  5  1  0  0  0  0
  5  6  1  0  0  0  0
  5 24  1  0  0  0  0
  6 14  1  0  0  0  0
  6  7  1  0  0  0  0
  6 25  1  0  0  0  0
  7  8  1  0  0  0  0
  7 26  1  0  0  0  0
  7 27  1  0  0  0  0
  8  9  1  0  0  0  0
  8 28  1  0  0  0  0
  8 29  1  0  0  0  0
  9 14  1  0  0  0  0
  9 10  1  0  0  0  0
  9 41  1  0  0  0  0
 10 11  1  0  0  0  0
 10 30  1  0  0  0  0
 10 31  1  0  0  0  0
 11 12  1  0  0  0  0
 11 32  1  0  0  0  0
 11 33  1  0  0  0  0
 12 13  1  0  0  0  0
 12 34  1  0  0  0  0
 12 35  1  0  0  0  0
 13 14  1  0  0  0  0
 13 36  1  0  0  0  0
 13 37  1  0  0  0  0
 14 38  1  0  0  0  0
 15 19  1  0  0  0  0
 15 16  1  0  0  0  0
 16 17  2  0  0  0  0
 16 39  1  0  0  0  0
 17 18  1  0  0  0  0
 18 19  2  0  0  0  0
 18 40  1  0  0  0  0
M  CHG  1   9   1
M  END
> <s_m_source_file>
AV-unprocessed.smi

> <i_m_source_file_index>
1406

> <i_lp_mmshare_version>
43012

> <i_f3d_flags>
0

> <s_epik_input>
bjFbY0hdbltjSF1uMVtDQEhdKFtDSDNdKUMoPU8pW05IXVtDQEhdKFtDSDJdW0NIMl0yKVtDQEBIXShOMjMpW0NIMl1bQ0gyXVtDSDJdW0NIMl0z

> <s_epik_cmdline>
J2VwaWtfcHl0aG9uJywgJy1waCcsICc3LjAnLCAnLXRuJywgJzgnLCAnLW1hJywgJzIwMCcsICctbWV0YWxfYmluZGluZycsICctaW1hZScsICc8aW5maWxlLm1hZT4nLCAnLW9tYWUnLCAnPG91dGZpbGUubWFlPic=

> <r_lp_tautomer_probability>
1

> <r_epik_Ionization_Penalty>
0.00197066

> <r_epik_Ionization_Penalty_Charging>
0.00196223

> <r_epik_Ionization_Penalty_Neutral>
8.43107e-06

> <r_epik_State_Penalty>
0.00133866

> <r_epik_Charging_Adjusted_Penalty>
0.00330089

> <i_epik_Tot_Q>
1

> <i_epik_Tot_abs_Q>
1

> <r_epik_Metal_State_Penalty>
-0

> <b_epik_Metal_Only>
0

> <s_lp_Force_Field>
OPLS_2005

> <r_lp_Energy>
41.142

> <b_lp_Chiralities_Consistent>
1

> <s_lp_Variant>
AV-unprocessed.smi:1406-3

> <Gold.Version>
5.8.1

> <Gold.Id.Protein>
6NUR|6NUR_protein|mol2

> <Gold.PLP.Fitness>
36.7733

> <Gold.PLP.PLP>
-27.7237

> <Gold.PLP.part.hbond>
-3.0000

> <Gold.PLP.part.metal>
0.0000

> <Gold.PLP.part.buried>
-4.8176

> <Gold.PLP.part.nonpolar>
-21.3036

> <Gold.PLP.part.repulsive>
0.1443

> <Gold.PLP.ligand.clash>
0.0000

> <Gold.PLP.ligand.torsion>
0.4882

> <Gold.PLP.Chemscore.Hbond>
2.3063

> <Gold.PLP.Chemscore.CHOScore>
1.0000

> <Gold.PLP.Chemscore.Metal>
0.0000

> <Gold.Chemscore.Hbonds>
donor molecule, donor type, donor heavy atom, donor atom, acceptor molecule, acceptor atom, score
      L1  H     9    41       P1 10747  1.00
      P1  H  6896  6908       L1    19  0.31
      P1  H 10752 10765       L1    17  1.00
      L1  C    16    39       P1  7948  1.00

> <Gold.PLP.Chemscore.Internal.Correction>
0.1071

> <Gold.Rescore>
     Score         DG    S(hbond)    S(metal)    S(lipo)     H(rot)  DE(clash)    DE(int)     intcor
     14.92     -15.33       2.19        0.00      62.97       1.89       0.03       0.37       ----

> <Gold.Chemscore.Fitness>
14.9245

> <Gold.Chemscore.DG>
-15.3292

> <Gold.Chemscore.ZeroCoef>
-5.4800

> <Gold.Chemscore.Hbond>
2.1889

> <Gold.Chemscore.Metal>
0.0000

> <Gold.Chemscore.Lipo>
62.9721

> <Gold.Chemscore.Internal_Hbond>
0.0000

> <Gold.Chemscore.DEClash>
0.0318

> <Gold.Chemscore.DEInternal>
0.3729

> <Gold.Chemscore.Rot>
1.8865

> <Gold.Chemscore.Internal.Correction>
   9.000000E+99

> <Gold.Chemscore.Hbonds>
donor molecule, donor type, donor heavy atom, donor atom, acceptor molecule, acceptor atom, score
      L1  H     9    41       P1 10747  1.00
      P1  H  6896  6908       L1    19  0.23
      P1  H 10752 10765       L1    17  0.78

> <Gold.Chemscore.Hbond.Weighted>
-7.3110

> <Gold.Chemscore.Metal.Weighted>
-0.0000

> <Gold.Chemscore.Lipo.Weighted>
-7.3677

> <Gold.Chemscore.Internal_Hbond.Weighted>
0.0000

> <Gold.Chemscore.DEClash.Weighted>
0.0318

> <Gold.Chemscore.DEInternal.Weighted>
0.3729

> <Gold.Chemscore.Rot.Weighted>
4.8295

> <Gold.Chemscore.Internal.Correction.Weighted>
   9.000000E+99

> <Gold.Protein.RotatedTorsions>
[ 6907 6896 6895 6894 ] final  141.04 input  -60.11 | X-H torsion
[ 7974 7965 7964 7962 ] final   -5.22 input  175.53 | X-H torsion
[ 8008 7997 7996 7995 ] final   46.75 input   59.86 | X-H torsion
[ 10167 10162 10161 10158 ] final   53.87 input  -65.29 | X-H torsion
[ 10718 10713 10712 10709 ] final -123.67 input   66.30 | X-H torsion
[ 10763 10752 10751 10750 ] final -179.90 input  -60.55 | X-H torsion
[ 11005 11000 10999 10996 ] final  131.02 input  -57.11 | X-H torsion

> <Gold.Protein.ActiveResidues>
 VAL166  LYS551  ARG553  GLY616  TRP617  ASP618  TYR619  PRO620  LYS621  CYS622 
 ASP623  PHE694  ASN695  SER759  ASP760  ASP761  ALA762  ILE779  LEU786  VAL792 
 PHE793  MET794  SER795  GLU796  ALA797  LYS798  CYS799  TRP800  GLU811  SER814 

> <Gold.Protein.RotatedAtoms>
  152.2358  133.5094  159.5241 H   0  0  0  0  0  0  0  0  0  0  0  0  # atno 6907 bound_to 6896
  150.7050  134.1156  159.4025 H   0  0  0  0  0  0  0  0  0  0  0  0  # atno 6908 bound_to 6896
  151.9077  135.0352  160.0562 H   0  0  0  0  0  0  0  0  0  0  0  0  # atno 6909 bound_to 6896
  146.2357  140.1989  142.8333 H   0  0  0  0  0  0  0  0  0  0  0  0  # atno 7974 bound_to 7965
  155.3576  140.3417  155.4240 H   0  0  0  0  0  0  0  0  0  0  0  0  # atno 8008 bound_to 7997
  156.1731  140.1638  156.8447 H   0  0  0  0  0  0  0  0  0  0  0  0  # atno 8009 bound_to 7997
  154.5253  140.0757  156.8230 H   0  0  0  0  0  0  0  0  0  0  0  0  # atno 8010 bound_to 7997
  140.2361  144.3634  150.6396 H   0  0  0  0  0  0  0  0  0  0  0  0  # atno 10167 bound_to 10162
  156.1522  130.6542  150.9929 H   0  0  0  0  0  0  0  0  0  0  0  0  # atno 10718 bound_to 10713
  154.5291  135.2798  155.1196 H   0  0  0  0  0  0  0  0  0  0  0  0  # atno 10763 bound_to 10752
  154.2723  135.6301  153.5318 H   0  0  0  0  0  0  0  0  0  0  0  0  # atno 10764 bound_to 10752
  152.9953  135.5631  154.5800 H   0  0  0  0  0  0  0  0  0  0  0  0  # atno 10765 bound_to 10752
  139.9706  134.9578  156.9378 H   0  0  0  0  0  0  0  0  0  0  0  0  # atno 11005 bound_to 11000
  144.9798  140.8448  143.5404 LP  0  0  0  0  0  0  0  0  0  0  0  0  # atno 17320 bound_to 7965
  145.1981  139.2266  143.5207 LP  0  0  0  0  0  0  0  0  0  0  0  0  # atno 17321 bound_to 7965
  140.6148  143.2171  151.6813 LP  0  0  0  0  0  0  0  0  0  0  0  0  # atno 17342 bound_to 10162
  139.5093  144.3582  152.0588 LP  0  0  0  0  0  0  0  0  0  0  0  0  # atno 17343 bound_to 10162
  157.6666  131.0870  150.7714 LP  0  0  0  0  0  0  0  0  0  0  0  0  # atno 17370 bound_to 10713
  156.7782  130.4850  149.5406 LP  0  0  0  0  0  0  0  0  0  0  0  0  # atno 17371 bound_to 10713
  140.5302  134.0821  155.7314 LP  0  0  0  0  0  0  0  0  0  0  0  0  # atno 17394 bound_to 11000
  141.1385  133.9179  157.2379 LP  0  0  0  0  0  0  0  0  0  0  0  0  # atno 17395 bound_to 11000

$$$$
