AV-unprocessed.smi:1703|AV-procd|sdf|6864|dock1
  -GOLD-   22720 8 53D 1   1.00000     0.00000
 Structure written by MMmdl.
 49 51  0  0  0  0  0  0  0  0  2 V2000
  148.2398  141.9830  154.1250 C   0  0  0  0  0  0  0  0  0  0  0  0
  147.3271  141.3591  155.1956 C   0  0  1  0  0  0  0  0  0  0  0  0
  147.9627  141.3212  156.5994 C   0  0  0  0  0  0  0  0  0  0  0  0
  147.9915  142.6702  157.2116 N   0  3  2  0  0  0  0  0  0  0  0  0
  148.6629  142.6780  158.5359 C   0  0  0  0  0  0  0  0  0  0  0  0
  150.0019  143.4478  158.5180 C   0  0  2  0  0  0  0  0  0  0  0  0
  149.7419  144.8139  158.2661 O   0  0  0  0  0  0  0  0  0  0  0  0
  150.9897  142.9509  157.4434 C   0  0  0  0  0  0  0  0  0  0  0  0
  151.8093  141.8388  157.9066 N   0  0  0  0  0  0  0  0  0  0  0  0
  152.0300  140.6398  157.3081 C   0  0  0  0  0  0  0  0  0  0  0  0
  151.4181  140.2720  155.9908 C   0  0  0  0  0  0  0  0  0  0  0  0
  152.3831  140.0229  154.9916 O   0  0  0  0  0  0  0  0  0  0  0  0
  152.8258  139.7998  157.9703 N   0  0  0  0  0  0  0  0  0  0  0  0
  153.1646  140.5237  159.0963 C   0  0  0  0  0  0  0  0  0  0  0  0
  153.9892  140.1843  160.1926 C   0  0  0  0  0  0  0  0  0  0  0  0
  154.1929  141.1026  161.2435 C   0  0  0  0  0  0  0  0  0  0  0  0
  153.5757  142.3697  161.2138 C   0  0  0  0  0  0  0  0  0  0  0  0
  152.7485  142.7270  160.1320 C   0  0  0  0  0  0  0  0  0  0  0  0
  152.5480  141.8067  159.0855 C   0  0  0  0  0  0  0  0  0  0  0  0
  146.6279  143.2523  157.2314 C   0  0  0  0  0  0  0  0  0  0  0  0
  146.0469  143.3007  155.8070 C   0  0  2  0  0  0  0  0  0  0  0  0
  144.6051  143.8203  155.7929 C   0  0  0  0  0  0  0  0  0  0  0  0
  146.0469  141.9888  155.2494 O   0  0  0  0  0  0  0  0  0  0  0  0
  149.1568  141.4035  154.0144 H   0  0  0  0  0  0  0  0  0  0  0  0
  148.5314  143.0036  154.3709 H   0  0  0  0  0  0  0  0  0  0  0  0
  147.7438  142.0005  153.1545 H   0  0  0  0  0  0  0  0  0  0  0  0
  147.1430  140.3290  154.8887 H   0  0  0  0  0  0  0  0  0  0  0  0
  147.3901  140.6519  157.2438 H   0  0  0  0  0  0  0  0  0  0  0  0
  148.9721  140.9126  156.5377 H   0  0  0  0  0  0  0  0  0  0  0  0
  147.9750  143.0976  159.2712 H   0  0  0  0  0  0  0  0  0  0  0  0
  148.8597  141.6532  158.8543 H   0  0  0  0  0  0  0  0  0  0  0  0
  150.4895  143.3771  159.4893 H   0  0  0  0  0  0  0  0  0  0  0  0
  148.8060  144.9459  158.2466 H   0  0  0  0  0  0  0  0  0  0  0  0
  150.4537  142.6611  156.5401 H   0  0  0  0  0  0  0  0  0  0  0  0
  151.6589  143.7605  157.1492 H   0  0  0  0  0  0  0  0  0  0  0  0
  150.8074  139.3768  156.1140 H   0  0  0  0  0  0  0  0  0  0  0  0
  150.7470  141.0649  155.6612 H   0  0  0  0  0  0  0  0  0  0  0  0
  152.7358  139.1558  155.1224 H   0  0  0  0  0  0  0  0  0  0  0  0
  154.4677  139.2167  160.2246 H   0  0  0  0  0  0  0  0  0  0  0  0
  154.8273  140.8334  162.0752 H   0  0  0  0  0  0  0  0  0  0  0  0
  153.7391  143.0676  162.0220 H   0  0  0  0  0  0  0  0  0  0  0  0
  152.2767  143.6980  160.1065 H   0  0  0  0  0  0  0  0  0  0  0  0
  145.9861  142.6553  157.8816 H   0  0  0  0  0  0  0  0  0  0  0  0
  146.6475  144.2599  157.6445 H   0  0  0  0  0  0  0  0  0  0  0  0
  146.6500  143.9646  155.1873 H   0  0  0  0  0  0  0  0  0  0  0  0
  144.5479  144.8315  156.1969 H   0  0  0  0  0  0  0  0  0  0  0  0
  143.9493  143.1846  156.3887 H   0  0  0  0  0  0  0  0  0  0  0  0
  144.2105  143.8464  154.7769 H   0  0  0  0  0  0  0  0  0  0  0  0
  148.5546  143.2480  156.6033 H   0  0  0  0  0  0  0  0  0  0  0  0
  1  2  1  0  0  0  0
  1 24  1  0  0  0  0
  1 25  1  0  0  0  0
  1 26  1  0  0  0  0
  2 23  1  0  0  0  0
  2  3  1  0  0  0  0
  2 27  1  0  0  0  0
  3  4  1  0  0  0  0
  3 28  1  0  0  0  0
  3 29  1  0  0  0  0
  4  5  1  0  0  0  0
  4 20  1  0  0  0  0
  4 49  1  0  0  0  0
  5  6  1  0  0  0  0
  5 30  1  0  0  0  0
  5 31  1  0  0  0  0
  6  7  1  0  0  0  0
  6  8  1  0  0  0  0
  6 32  1  0  0  0  0
  7 33  1  0  0  0  0
  8  9  1  0  0  0  0
  8 34  1  0  0  0  0
  8 35  1  0  0  0  0
  9 19  1  0  0  0  0
  9 10  1  0  0  0  0
 10 11  1  0  0  0  0
 10 13  2  0  0  0  0
 11 12  1  0  0  0  0
 11 36  1  0  0  0  0
 11 37  1  0  0  0  0
 12 38  1  0  0  0  0
 13 14  1  0  0  0  0
 14 19  2  0  0  0  0
 14 15  1  0  0  0  0
 15 16  2  0  0  0  0
 15 39  1  0  0  0  0
 16 17  1  0  0  0  0
 16 40  1  0  0  0  0
 17 18  2  0  0  0  0
 17 41  1  0  0  0  0
 18 19  1  0  0  0  0
 18 42  1  0  0  0  0
 20 21  1  0  0  0  0
 20 43  1  0  0  0  0
 20 44  1  0  0  0  0
 21 22  1  0  0  0  0
 21 23  1  0  0  0  0
 21 45  1  0  0  0  0
 22 46  1  0  0  0  0
 22 47  1  0  0  0  0
 22 48  1  0  0  0  0
M  CHG  1   4   1
M  END
> <s_m_source_file>
AV-unprocessed.smi

> <i_m_source_file_index>
1703

> <i_lp_mmshare_version>
43012

> <i_f3d_flags>
0

> <s_epik_input>
W0NIM11bQ0BASF0xW0NIMl1OKFtDSDJdW0NASF0oTzEpW0NIM10pW0NIMl1bQ0BIXShbT0hdKVtDSDJdbihjKG4yKVtDSDJdW09IXSljKGMyMylbY0hdW2NIXVtjSF1bY0hdMw==

> <s_epik_cmdline>
J2VwaWtfcHl0aG9uJywgJy1waCcsICc3LjAnLCAnLXRuJywgJzgnLCAnLW1hJywgJzIwMCcsICctbWV0YWxfYmluZGluZycsICctaW1hZScsICc8aW5maWxlLm1hZT4nLCAnLW9tYWUnLCAnPG91dGZpbGUubWFlPic=

> <r_epik_Ionization_Penalty>
0.655661

> <r_epik_Ionization_Penalty_Charging>
0.608065

> <r_epik_Ionization_Penalty_Neutral>
0.0475963

> <r_epik_State_Penalty>
0.695267

> <r_epik_Charging_Adjusted_Penalty>
1.30333

> <i_epik_Tot_Q>
1

> <i_epik_Tot_abs_Q>
1

> <r_epik_Metal_State_Penalty>
0.653591

> <b_epik_Metal_Only>
0

> <s_lp_Force_Field>
OPLS_2005

> <r_lp_Energy>
25.3139

> <b_lp_Chiralities_Consistent>
1

> <s_lp_Variant>
AV-unprocessed.smi:1703-12

> <Gold.Version>
5.8.1

> <Gold.Id.Protein>
6NUR|6NUR_protein|mol2

> <Gold.PLP.Fitness>
49.3316

> <Gold.PLP.PLP>
-39.6410

> <Gold.PLP.part.hbond>
-5.3225

> <Gold.PLP.part.metal>
0.0000

> <Gold.PLP.part.buried>
-0.9908

> <Gold.PLP.part.nonpolar>
-32.6869

> <Gold.PLP.part.repulsive>
0.1560

> <Gold.PLP.ligand.clash>
0.0000

> <Gold.PLP.ligand.torsion>
1.1433

> <Gold.PLP.Chemscore.Hbond>
3.9526

> <Gold.PLP.Chemscore.CHOScore>
0.0000

> <Gold.PLP.Chemscore.Metal>
0.0000

> <Gold.Chemscore.Hbonds>
donor molecule, donor type, donor heavy atom, donor atom, acceptor molecule, acceptor atom, score
      L1  H     4    49       P1  8028  2.00
      L1  H     7    33       P1  8029  0.58
      P1  H  7989  7998       L1    12  0.62
      P1  H  7997  8010       L1    13  0.74

> <Gold.PLP.Chemscore.Internal.Correction>
0.1194

> <Gold.Rescore>
     Score         DG    S(hbond)    S(metal)    S(lipo)     H(rot)  DE(clash)    DE(int)     intcor
     13.30     -15.96       1.87        0.00     101.09       2.96       1.32       1.35       ----

> <Gold.Chemscore.Fitness>
13.2987

> <Gold.Chemscore.DG>
-15.9641

> <Gold.Chemscore.ZeroCoef>
-5.4800

> <Gold.Chemscore.Hbond>
1.8675

> <Gold.Chemscore.Metal>
0.0000

> <Gold.Chemscore.Lipo>
101.0852

> <Gold.Chemscore.Internal_Hbond>
0.0000

> <Gold.Chemscore.DEClash>
1.3197

> <Gold.Chemscore.DEInternal>
1.3456

> <Gold.Chemscore.Rot>
2.9611

> <Gold.Chemscore.Internal.Correction>
   9.000000E+99

> <Gold.Chemscore.Hbonds>
donor molecule, donor type, donor heavy atom, donor atom, acceptor molecule, acceptor atom, score
      L1  H     4    49       P1  8028  0.63
      L1  H     7    33       P1  8029  0.41
      P1  H  7989  7998       L1    12  0.25
      P1  H  7997  8010       L1    13  0.04

> <Gold.Chemscore.Hbond.Weighted>
-6.2375

> <Gold.Chemscore.Metal.Weighted>
-0.0000

> <Gold.Chemscore.Lipo.Weighted>
-11.8270

> <Gold.Chemscore.Internal_Hbond.Weighted>
0.0000

> <Gold.Chemscore.DEClash.Weighted>
1.3197

> <Gold.Chemscore.DEInternal.Weighted>
1.3456

> <Gold.Chemscore.Rot.Weighted>
7.5803

> <Gold.Chemscore.Internal.Correction.Weighted>
   9.000000E+99

> <Gold.Protein.RotatedTorsions>
[ 6907 6896 6895 6894 ] final   79.08 input  -60.11 | X-H torsion
[ 7974 7965 7964 7962 ] final -164.79 input  175.53 | X-H torsion
[ 8008 7997 7996 7995 ] final   30.21 input   59.86 | X-H torsion
[ 10167 10162 10161 10158 ] final  124.19 input  -65.29 | X-H torsion
[ 10718 10713 10712 10709 ] final -173.78 input   66.30 | X-H torsion
[ 10763 10752 10751 10750 ] final -126.59 input  -60.55 | X-H torsion
[ 11005 11000 10999 10996 ] final  -16.88 input  -57.11 | X-H torsion

> <Gold.Protein.ActiveResidues>
 VAL166  LYS551  ARG553  GLY616  TRP617  ASP618  TYR619  PRO620  LYS621  CYS622 
 ASP623  PHE694  ASN695  SER759  ASP760  ASP761  ALA762  ILE779  LEU786  VAL792 
 PHE793  MET794  SER795  GLU796  ALA797  LYS798  CYS799  TRP800  GLU811  SER814 

> <Gold.Protein.RotatedAtoms>
  152.5184  134.3567  159.9269 H   0  0  0  0  0  0  0  0  0  0  0  0  # atno 6907 bound_to 6896
  151.3518  133.3916  159.2688 H   0  0  0  0  0  0  0  0  0  0  0  0  # atno 6908 bound_to 6896
  150.9721  134.9111  159.7852 H   0  0  0  0  0  0  0  0  0  0  0  0  # atno 6909 bound_to 6896
  144.7287  140.2909  143.6220 H   0  0  0  0  0  0  0  0  0  0  0  0  # atno 7974 bound_to 7965
  155.0867  140.3216  155.4585 H   0  0  0  0  0  0  0  0  0  0  0  0  # atno 8008 bound_to 7997
  156.2753  140.2085  156.5941 H   0  0  0  0  0  0  0  0  0  0  0  0  # atno 8009 bound_to 7997
  154.6935  140.0514  157.0375 H   0  0  0  0  0  0  0  0  0  0  0  0  # atno 8010 bound_to 7997
  139.5756  144.6961  151.3662 H   0  0  0  0  0  0  0  0  0  0  0  0  # atno 10167 bound_to 10162
  156.7754  130.9464  151.3120 H   0  0  0  0  0  0  0  0  0  0  0  0  # atno 10718 bound_to 10713
  154.8746  135.3990  154.3455 H   0  0  0  0  0  0  0  0  0  0  0  0  # atno 10763 bound_to 10752
  153.4248  135.7024  153.6275 H   0  0  0  0  0  0  0  0  0  0  0  0  # atno 10764 bound_to 10752
  153.4922  135.3746  155.2467 H   0  0  0  0  0  0  0  0  0  0  0  0  # atno 10765 bound_to 10752
  140.8112  133.8139  155.9565 H   0  0  0  0  0  0  0  0  0  0  0  0  # atno 11005 bound_to 11000
  145.7856  139.1907  143.2132 LP  0  0  0  0  0  0  0  0  0  0  0  0  # atno 17320 bound_to 7965
  146.0798  140.7777  142.9647 LP  0  0  0  0  0  0  0  0  0  0  0  0  # atno 17321 bound_to 7965
  140.7038  143.7564  150.7448 LP  0  0  0  0  0  0  0  0  0  0  0  0  # atno 17342 bound_to 10162
  140.1083  143.4723  152.2385 LP  0  0  0  0  0  0  0  0  0  0  0  0  # atno 17343 bound_to 10162
  157.6672  130.9018  149.9958 LP  0  0  0  0  0  0  0  0  0  0  0  0  # atno 17370 bound_to 10713
  156.1252  130.3644  149.9822 LP  0  0  0  0  0  0  0  0  0  0  0  0  # atno 17371 bound_to 10713
  140.9195  134.2159  157.4935 LP  0  0  0  0  0  0  0  0  0  0  0  0  # atno 17394 bound_to 11000
  139.8714  134.9786  156.5004 LP  0  0  0  0  0  0  0  0  0  0  0  0  # atno 17395 bound_to 11000

$$$$
