AV-unprocessed.smi:1867|AV-procd|sdf|7566|dock7
  -GOLD-   22720 9283D 1   1.00000     0.00000
 Structure written by MMmdl.
 52 55  0  0  0  0  0  0  0  0  2 V2000
  148.8618  137.2042  156.8323 O   0  0  0  0  0  0  0  0  0  0  0  0
  149.1422  137.4530  155.6622 C   0  0  0  0  0  0  0  0  0  0  0  0
  149.7691  138.5698  155.2442 N   0  0  0  0  0  0  0  0  0  0  0  0
  150.2909  139.6361  156.0232 C   0  0  0  0  0  0  0  0  0  0  0  0
  150.2377  140.9365  155.4857 C   0  0  0  0  0  0  0  0  0  0  0  0
  150.7647  142.0106  156.2269 C   0  0  0  0  0  0  0  0  0  0  0  0
  151.3434  141.7536  157.4928 C   0  0  0  0  0  0  0  0  0  0  0  0
  151.8876  142.7958  158.2698 N   0  0  0  0  0  0  0  0  0  0  0  0
  151.5401  144.1901  158.0483 C   0  0  0  0  0  0  0  0  0  0  0  0
  152.2246  144.9482  159.1854 C   0  0  0  0  0  0  0  0  0  0  0  0
  152.2154  143.9391  160.3334 C   0  0  0  0  0  0  0  0  0  0  0  0
  152.3502  142.5814  159.6355 C   0  0  0  0  0  0  0  0  0  0  0  0
  151.4140  140.5000  158.0002 N   0  0  0  0  0  0  0  0  0  0  0  0
  150.9041  139.4734  157.2877 C   0  0  0  0  0  0  0  0  0  0  0  0
  148.8157  136.5989  154.6747 N   0  0  0  0  0  0  0  0  0  0  0  0
  148.1343  135.3040  154.7708 C   0  0  2  0  0  0  0  0  0  0  0  0
  149.0490  134.1228  154.3925 C   0  0  0  0  0  0  0  0  0  0  0  0
  148.1539  133.1827  153.5790 C   0  0  0  0  0  0  0  0  0  0  0  0
  147.2545  134.1096  152.8835 N   0  3  1  0  0  0  0  0  0  0  0  0
  146.0802  133.5581  152.1776 C   0  0  0  0  0  0  0  0  0  0  0  0
  145.4134  134.6978  151.3775 C   0  0  0  0  0  0  0  0  0  0  0  0
  145.1099  135.9311  152.2582 C   0  0  0  0  0  0  0  0  0  0  0  0
  146.3458  136.3769  153.0699 C   0  0  0  0  0  0  0  0  0  0  0  0
  146.8995  135.1674  153.8455 C   0  0  2  0  0  0  0  0  0  0  0  0
  149.8448  138.6887  154.2448 H   0  0  0  0  0  0  0  0  0  0  0  0
  149.7946  141.1141  154.5165 H   0  0  0  0  0  0  0  0  0  0  0  0
  150.7187  143.0073  155.8144 H   0  0  0  0  0  0  0  0  0  0  0  0
  151.8793  144.5421  157.0737 H   0  0  0  0  0  0  0  0  0  0  0  0
  150.4571  144.3074  158.1036 H   0  0  0  0  0  0  0  0  0  0  0  0
  153.2541  145.1794  158.9080 H   0  0  0  0  0  0  0  0  0  0  0  0
  151.7229  145.8840  159.4334 H   0  0  0  0  0  0  0  0  0  0  0  0
  153.0034  144.1179  161.0655 H   0  0  0  0  0  0  0  0  0  0  0  0
  151.2576  143.9895  160.8531 H   0  0  0  0  0  0  0  0  0  0  0  0
  151.7744  141.8162  160.1575 H   0  0  0  0  0  0  0  0  0  0  0  0
  153.3928  142.2634  159.6052 H   0  0  0  0  0  0  0  0  0  0  0  0
  151.0198  138.5045  157.7478 H   0  0  0  0  0  0  0  0  0  0  0  0
  149.0740  136.8868  153.7415 H   0  0  0  0  0  0  0  0  0  0  0  0
  147.8129  135.1400  155.8009 H   0  0  0  0  0  0  0  0  0  0  0  0
  149.8722  134.4666  153.7638 H   0  0  0  0  0  0  0  0  0  0  0  0
  149.4849  133.6321  155.2633 H   0  0  0  0  0  0  0  0  0  0  0  0
  148.7178  132.5605  152.8832 H   0  0  0  0  0  0  0  0  0  0  0  0
  147.5772  132.5324  154.2388 H   0  0  0  0  0  0  0  0  0  0  0  0
  146.3956  132.7603  151.5043 H   0  0  0  0  0  0  0  0  0  0  0  0
  145.3810  133.1223  152.8926 H   0  0  0  0  0  0  0  0  0  0  0  0
  146.0764  134.9975  150.5647 H   0  0  0  0  0  0  0  0  0  0  0  0
  144.4974  134.3388  150.9074 H   0  0  0  0  0  0  0  0  0  0  0  0
  144.7519  136.7544  151.6393 H   0  0  0  0  0  0  0  0  0  0  0  0
  144.2978  135.6889  152.9450 H   0  0  0  0  0  0  0  0  0  0  0  0
  147.1067  136.7817  152.4012 H   0  0  0  0  0  0  0  0  0  0  0  0
  146.0630  137.1777  153.7532 H   0  0  0  0  0  0  0  0  0  0  0  0
  146.0935  134.7802  154.4731 H   0  0  0  0  0  0  0  0  0  0  0  0
  147.8253  134.5564  152.1801 H   0  0  0  0  0  0  0  0  0  0  0  0
  1  2  2  0  0  0  0
  2  3  1  0  0  0  0
  2 15  1  0  0  0  0
  3  4  1  0  0  0  0
  3 25  1  0  0  0  0
  4 14  1  0  0  0  0
  4  5  2  0  0  0  0
  5  6  1  0  0  0  0
  5 26  1  0  0  0  0
  6  7  2  0  0  0  0
  6 27  1  0  0  0  0
  7  8  1  0  0  0  0
  7 13  1  0  0  0  0
  8 12  1  0  0  0  0
  8  9  1  0  0  0  0
  9 10  1  0  0  0  0
  9 28  1  0  0  0  0
  9 29  1  0  0  0  0
 10 11  1  0  0  0  0
 10 30  1  0  0  0  0
 10 31  1  0  0  0  0
 11 12  1  0  0  0  0
 11 32  1  0  0  0  0
 11 33  1  0  0  0  0
 12 34  1  0  0  0  0
 12 35  1  0  0  0  0
 13 14  2  0  0  0  0
 14 36  1  0  0  0  0
 15 16  1  0  0  0  0
 15 37  1  0  0  0  0
 16 24  1  0  0  0  0
 16 17  1  0  0  0  0
 16 38  1  0  0  0  0
 17 18  1  0  0  0  0
 17 39  1  0  0  0  0
 17 40  1  0  0  0  0
 18 19  1  0  0  0  0
 18 41  1  0  0  0  0
 18 42  1  0  0  0  0
 19 24  1  0  0  0  0
 19 20  1  0  0  0  0
 19 52  1  0  0  0  0
 20 21  1  0  0  0  0
 20 43  1  0  0  0  0
 20 44  1  0  0  0  0
 21 22  1  0  0  0  0
 21 45  1  0  0  0  0
 21 46  1  0  0  0  0
 22 23  1  0  0  0  0
 22 47  1  0  0  0  0
 22 48  1  0  0  0  0
 23 24  1  0  0  0  0
 23 49  1  0  0  0  0
 23 50  1  0  0  0  0
 24 51  1  0  0  0  0
M  CHG  1  19   1
M  END
> <s_m_source_file>
AV-unprocessed.smi

> <i_m_source_file_index>
1867

> <i_lp_mmshare_version>
43012

> <i_f3d_flags>
0

> <s_epik_input>
W0NIMl0xW0NIMl1bQ0gyXVtDSDJdW0NASF0oTjEyKVtDQEBIXShbQ0gyXVtDSDJdMilbTkhdQyg9TylbTkhdYzNbY0hdW2NIXWMobltjSF0zKU40W0NIMl1bQ0gyXVtDSDJdW0NIMl00

> <s_epik_cmdline>
J2VwaWtfcHl0aG9uJywgJy1waCcsICc3LjAnLCAnLXRuJywgJzgnLCAnLW1hJywgJzIwMCcsICctbWV0YWxfYmluZGluZycsICctaW1hZScsICc8aW5maWxlLm1hZT4nLCAnLW9tYWUnLCAnPG91dGZpbGUubWFlPic=

> <r_lp_tautomer_probability>
1

> <r_epik_Ionization_Penalty>
0.0751123

> <r_epik_Ionization_Penalty_Charging>
0.000974069

> <r_epik_Ionization_Penalty_Neutral>
0.0741382

> <r_epik_State_Penalty>
0.0647261

> <r_epik_Charging_Adjusted_Penalty>
0.0657002

> <i_epik_Tot_Q>
1

> <i_epik_Tot_abs_Q>
1

> <r_epik_Metal_State_Penalty>
0.0580571

> <b_epik_Metal_Only>
0

> <s_lp_Force_Field>
OPLS_2005

> <r_lp_Energy>
77.2507

> <b_lp_Chiralities_Consistent>
1

> <s_lp_Variant>
AV-unprocessed.smi:1867-7

> <Gold.Version>
5.8.1

> <Gold.Id.Protein>
6NUR|6NUR_protein|mol2

> <Gold.PLP.Fitness>
47.9162

> <Gold.PLP.PLP>
-40.7038

> <Gold.PLP.part.hbond>
-2.0000

> <Gold.PLP.part.metal>
0.0000

> <Gold.PLP.part.buried>
-1.1015

> <Gold.PLP.part.nonpolar>
-37.0263

> <Gold.PLP.part.repulsive>
0.0276

> <Gold.PLP.ligand.clash>
0.0000

> <Gold.PLP.ligand.torsion>
0.3866

> <Gold.PLP.Chemscore.Hbond>
2.6080

> <Gold.PLP.Chemscore.CHOScore>
0.0000

> <Gold.PLP.Chemscore.Metal>
0.0000

> <Gold.Chemscore.Hbonds>
donor molecule, donor type, donor heavy atom, donor atom, acceptor molecule, acceptor atom, score
      L1  H    15    37       P1  7948  0.80
      L1  H    19    52       P1  7948  1.73

> <Gold.PLP.Chemscore.Internal.Correction>
0.1615

> <Gold.Rescore>
     Score         DG    S(hbond)    S(metal)    S(lipo)     H(rot)  DE(clash)    DE(int)     intcor
     19.32     -19.88       1.41        0.00     104.68       1.00       0.06       0.50       ----

> <Gold.Chemscore.Fitness>
19.3227

> <Gold.Chemscore.DG>
-19.8797

> <Gold.Chemscore.ZeroCoef>
-5.4800

> <Gold.Chemscore.Hbond>
1.4109

> <Gold.Chemscore.Metal>
0.0000

> <Gold.Chemscore.Lipo>
104.6781

> <Gold.Chemscore.Internal_Hbond>
0.0000

> <Gold.Chemscore.DEClash>
0.0579

> <Gold.Chemscore.DEInternal>
0.4991

> <Gold.Chemscore.Rot>
1.0000

> <Gold.Chemscore.Internal.Correction>
   9.000000E+99

> <Gold.Chemscore.Hbonds>
donor molecule, donor type, donor heavy atom, donor atom, acceptor molecule, acceptor atom, score
      L1  H    15    37       P1  7948  0.78
      L1  H    19    52       P1  7948  0.37

> <Gold.Chemscore.Hbond.Weighted>
-4.7124

> <Gold.Chemscore.Metal.Weighted>
-0.0000

> <Gold.Chemscore.Lipo.Weighted>
-12.2473

> <Gold.Chemscore.Internal_Hbond.Weighted>
0.0000

> <Gold.Chemscore.DEClash.Weighted>
0.0579

> <Gold.Chemscore.DEInternal.Weighted>
0.4991

> <Gold.Chemscore.Rot.Weighted>
2.5600

> <Gold.Chemscore.Internal.Correction.Weighted>
   9.000000E+99

> <Gold.Protein.RotatedTorsions>
[ 6907 6896 6895 6894 ] final   55.31 input  -60.11 | X-H torsion
[ 7974 7965 7964 7962 ] final  138.24 input  175.53 | X-H torsion
[ 8008 7997 7996 7995 ] final   37.60 input   59.86 | X-H torsion
[ 10167 10162 10161 10158 ] final  -92.23 input  -65.29 | X-H torsion
[ 10718 10713 10712 10709 ] final -110.65 input   66.30 | X-H torsion
[ 10763 10752 10751 10750 ] final  -78.72 input  -60.55 | X-H torsion
[ 11005 11000 10999 10996 ] final  136.91 input  -57.11 | X-H torsion

> <Gold.Protein.ActiveResidues>
 VAL166  LYS551  ARG553  GLY616  TRP617  ASP618  TYR619  PRO620  LYS621  CYS622 
 ASP623  PHE694  ASN695  SER759  ASP760  ASP761  ALA762  ILE779  LEU786  VAL792 
 PHE793  MET794  SER795  GLU796  ALA797  LYS798  CYS799  TRP800  GLU811  SER814 

> <Gold.Protein.RotatedAtoms>
  152.3526  134.6985  160.0231 H   0  0  0  0  0  0  0  0  0  0  0  0  # atno 6907 bound_to 6896
  151.7334  133.3313  159.3354 H   0  0  0  0  0  0  0  0  0  0  0  0  # atno 6908 bound_to 6896
  150.7550  134.6276  159.6214 H   0  0  0  0  0  0  0  0  0  0  0  0  # atno 6909 bound_to 6896
  144.9391  139.4952  143.5580 H   0  0  0  0  0  0  0  0  0  0  0  0  # atno 7974 bound_to 7965
  155.2064  140.3320  155.4335 H   0  0  0  0  0  0  0  0  0  0  0  0  # atno 8008 bound_to 7997
  156.2387  140.1884  156.7097 H   0  0  0  0  0  0  0  0  0  0  0  0  # atno 8009 bound_to 7997
  154.6107  140.0609  156.9475 H   0  0  0  0  0  0  0  0  0  0  0  0  # atno 8010 bound_to 7997
  140.3369  143.2964  151.9879 H   0  0  0  0  0  0  0  0  0  0  0  0  # atno 10167 bound_to 10162
  156.0602  130.5826  150.8266 H   0  0  0  0  0  0  0  0  0  0  0  0  # atno 10718 bound_to 10713
  154.5296  135.5720  153.6747 H   0  0  0  0  0  0  0  0  0  0  0  0  # atno 10763 bound_to 10752
  152.9936  135.6201  154.2647 H   0  0  0  0  0  0  0  0  0  0  0  0  # atno 10764 bound_to 10752
  154.2572  135.2857  155.2772 H   0  0  0  0  0  0  0  0  0  0  0  0  # atno 10765 bound_to 10752
  140.0078  134.9452  157.0212 H   0  0  0  0  0  0  0  0  0  0  0  0  # atno 11005 bound_to 11000
  146.3279  139.8398  142.8892 LP  0  0  0  0  0  0  0  0  0  0  0  0  # atno 17320 bound_to 7965
  145.3019  141.0196  143.3604 LP  0  0  0  0  0  0  0  0  0  0  0  0  # atno 17321 bound_to 7965
  139.4847  144.6189  151.7293 LP  0  0  0  0  0  0  0  0  0  0  0  0  # atno 17342 bound_to 10162
  140.5345  144.0677  150.6065 LP  0  0  0  0  0  0  0  0  0  0  0  0  # atno 17343 bound_to 10162
  157.5605  131.0946  150.9565 LP  0  0  0  0  0  0  0  0  0  0  0  0  # atno 17370 bound_to 10713
  156.9804  130.5525  149.5296 LP  0  0  0  0  0  0  0  0  0  0  0  0  # atno 17371 bound_to 10713
  140.4610  134.1484  155.7191 LP  0  0  0  0  0  0  0  0  0  0  0  0  # atno 17394 bound_to 11000
  141.1689  133.8648  157.1630 LP  0  0  0  0  0  0  0  0  0  0  0  0  # atno 17395 bound_to 11000

$$$$
