AV-unprocessed.smi:1076|AV-procd|sdf|4699|dock5
  -GOLD-   22720 3223D 1   1.00000     0.00000
 Structure written by MMmdl.
 44 45  0  0  0  0  0  0  0  0  1 V2000
  153.8461  142.8781  164.0277 C   0  0  0  0  0  0  0  0  0  0  0  0
  153.2271  142.8472  162.6605 C   0  0  0  0  0  0  0  0  0  0  0  0
  152.0556  143.5220  162.2132 C   0  0  0  0  0  0  0  0  0  0  0  0
  151.7846  143.2942  160.9383 N   0  0  0  0  0  0  0  0  0  0  0  0
  152.7717  142.4705  160.5270 N   0  0  0  0  0  0  0  0  0  0  0  0
  152.8184  142.0305  159.1430 C   0  0  0  0  0  0  0  0  0  0  0  0
  152.1512  143.0436  158.1914 C   0  0  2  0  0  0  0  0  0  0  0  0
  152.5006  144.4921  158.5687 C   0  0  0  0  0  0  0  0  0  0  0  0
  150.7067  142.8522  158.2490 N   0  0  0  0  0  0  0  0  0  0  0  0
  150.3177  141.4544  158.1152 C   0  0  0  0  0  0  0  0  0  0  0  0
  149.3184  141.2711  156.9538 C   0  0  0  0  0  0  0  0  0  0  0  0
  149.9216  140.6868  155.6589 C   0  0  0  0  0  0  0  0  0  0  0  0
  149.8218  141.3254  154.6096 O   0  0  0  0  0  0  0  0  0  0  0  0
  150.5449  139.4847  155.7079 N   0  0  0  0  0  0  0  0  0  0  0  0
  150.6646  138.6960  156.9381 C   0  0  0  0  0  0  0  0  0  0  0  0
  152.1521  138.6176  157.3251 C   0  0  0  0  0  0  0  0  0  0  0  0
  152.8935  138.0382  156.2547 O   0  0  0  0  0  0  0  0  0  0  0  0
  152.7782  138.7693  155.0365 C   0  0  0  0  0  0  0  0  0  0  0  0
  151.2990  138.8566  154.6175 C   0  0  0  0  0  0  0  0  0  0  0  0
  153.6513  142.1782  161.5478 C   0  0  0  0  0  0  0  0  0  0  0  0
  153.5118  143.7412  164.6039 H   0  0  0  0  0  0  0  0  0  0  0  0
  154.9340  142.9303  163.9753 H   0  0  0  0  0  0  0  0  0  0  0  0
  153.5924  141.9880  164.6033 H   0  0  0  0  0  0  0  0  0  0  0  0
  151.3996  144.1714  162.7738 H   0  0  0  0  0  0  0  0  0  0  0  0
  153.8596  141.8615  158.8638 H   0  0  0  0  0  0  0  0  0  0  0  0
  152.3172  141.0636  159.0756 H   0  0  0  0  0  0  0  0  0  0  0  0
  152.5079  142.8405  157.1803 H   0  0  0  0  0  0  0  0  0  0  0  0
  153.5799  144.6460  158.5551 H   0  0  0  0  0  0  0  0  0  0  0  0
  152.1443  144.7404  159.5691 H   0  0  0  0  0  0  0  0  0  0  0  0
  152.0642  145.2070  157.8709 H   0  0  0  0  0  0  0  0  0  0  0  0
  150.2402  143.4264  157.5615 H   0  0  0  0  0  0  0  0  0  0  0  0
  151.2043  140.8440  157.9436 H   0  0  0  0  0  0  0  0  0  0  0  0
  149.8634  141.1030  159.0428 H   0  0  0  0  0  0  0  0  0  0  0  0
  148.5110  140.6241  157.2987 H   0  0  0  0  0  0  0  0  0  0  0  0
  148.8727  142.2373  156.7143 H   0  0  0  0  0  0  0  0  0  0  0  0
  150.0877  139.1074  157.7676 H   0  0  0  0  0  0  0  0  0  0  0  0
  150.2681  137.6945  156.7645 H   0  0  0  0  0  0  0  0  0  0  0  0
  152.5464  139.6078  157.5596 H   0  0  0  0  0  0  0  0  0  0  0  0
  152.2794  138.0030  158.2162 H   0  0  0  0  0  0  0  0  0  0  0  0
  153.2068  139.7656  155.1576 H   0  0  0  0  0  0  0  0  0  0  0  0
  153.3589  138.2631  154.2654 H   0  0  0  0  0  0  0  0  0  0  0  0
  150.9008  137.8575  154.4355 H   0  0  0  0  0  0  0  0  0  0  0  0
  151.2290  139.3840  153.6682 H   0  0  0  0  0  0  0  0  0  0  0  0
  154.5071  141.5374  161.3944 H   0  0  0  0  0  0  0  0  0  0  0  0
  1  2  1  0  0  0  0
  1 21  1  0  0  0  0
  1 22  1  0  0  0  0
  1 23  1  0  0  0  0
  2 20  2  0  0  0  0
  2  3  1  0  0  0  0
  3  4  2  0  0  0  0
  3 24  1  0  0  0  0
  4  5  1  0  0  0  0
  5  6  1  0  0  0  0
  5 20  1  0  0  0  0
  6  7  1  0  0  0  0
  6 25  1  0  0  0  0
  6 26  1  0  0  0  0
  7  8  1  0  0  0  0
  7  9  1  0  0  0  0
  7 27  1  0  0  0  0
  8 28  1  0  0  0  0
  8 29  1  0  0  0  0
  8 30  1  0  0  0  0
  9 10  1  0  0  0  0
  9 31  1  0  0  0  0
 10 11  1  0  0  0  0
 10 32  1  0  0  0  0
 10 33  1  0  0  0  0
 11 12  1  0  0  0  0
 11 34  1  0  0  0  0
 11 35  1  0  0  0  0
 12 13  2  0  0  0  0
 12 14  1  0  0  0  0
 14 19  1  0  0  0  0
 14 15  1  0  0  0  0
 15 16  1  0  0  0  0
 15 36  1  0  0  0  0
 15 37  1  0  0  0  0
 16 17  1  0  0  0  0
 16 38  1  0  0  0  0
 16 39  1  0  0  0  0
 17 18  1  0  0  0  0
 18 19  1  0  0  0  0
 18 40  1  0  0  0  0
 18 41  1  0  0  0  0
 19 42  1  0  0  0  0
 19 43  1  0  0  0  0
 20 44  1  0  0  0  0
M  END
> <s_m_source_file>
AV-unprocessed.smi

> <i_m_source_file_index>
1076

> <i_lp_mmshare_version>
43012

> <i_f3d_flags>
0

> <s_epik_input>
W0NIM11jMVtjSF1ubihbY0hdMSlbQ0gyXVtDQEhdKFtDSDNdKVtOSF1bQ0gyXVtDSDJdQyg9TylOMltDSDJdW0NIMl1PW0NIMl1bQ0gyXTI=

> <s_epik_cmdline>
J2VwaWtfcHl0aG9uJywgJy1waCcsICc3LjAnLCAnLXRuJywgJzgnLCAnLW1hJywgJzIwMCcsICctbWV0YWxfYmluZGluZycsICctaW1hZScsICc8aW5maWxlLm1hZT4nLCAnLW9tYWUnLCAnPG91dGZpbGUubWFlPic=

> <r_lp_tautomer_probability>
1

> <r_epik_Ionization_Penalty>
2.55707

> <r_epik_Ionization_Penalty_Charging>
0

> <r_epik_Ionization_Penalty_Neutral>
2.55707

> <r_epik_State_Penalty>
2.726

> <r_epik_Charging_Adjusted_Penalty>
2.726

> <i_epik_Tot_Q>
0

> <i_epik_Tot_abs_Q>
0

> <r_epik_Metal_State_Penalty>
2.72594

> <b_epik_Metal_Only>
0

> <s_lp_Force_Field>
OPLS_2005

> <r_lp_Energy>
21.3245

> <b_lp_Chiralities_Consistent>
1

> <s_lp_Variant>
AV-unprocessed.smi:1076-3

> <Gold.Version>
5.8.1

> <Gold.Id.Protein>
6NUR|6NUR_protein|mol2

> <Gold.PLP.Fitness>
42.9314

> <Gold.PLP.PLP>
-44.4765

> <Gold.PLP.part.hbond>
-1.4613

> <Gold.PLP.part.metal>
0.0000

> <Gold.PLP.part.buried>
-2.9570

> <Gold.PLP.part.nonpolar>
-39.6198

> <Gold.PLP.part.repulsive>
0.2567

> <Gold.PLP.ligand.clash>
0.0000

> <Gold.PLP.ligand.torsion>
1.2966

> <Gold.PLP.Chemscore.Hbond>
0.3091

> <Gold.PLP.Chemscore.CHOScore>
0.0000

> <Gold.PLP.Chemscore.Metal>
0.0000

> <Gold.Chemscore.Hbonds>
donor molecule, donor type, donor heavy atom, donor atom, acceptor molecule, acceptor atom, score
      P1  H  7989  7998       L1    13  0.32

> <Gold.PLP.Chemscore.Internal.Correction>
0.1206

> <Gold.Rescore>
     Score         DG    S(hbond)    S(metal)    S(lipo)     H(rot)  DE(clash)    DE(int)     intcor
     16.11     -19.49       1.58        0.00     116.37       1.91       0.05       3.34       ----

> <Gold.Chemscore.Fitness>
16.1080

> <Gold.Chemscore.DG>
-19.4945

> <Gold.Chemscore.ZeroCoef>
-5.4800

> <Gold.Chemscore.Hbond>
1.5832

> <Gold.Chemscore.Metal>
0.0000

> <Gold.Chemscore.Lipo>
116.3738

> <Gold.Chemscore.Internal_Hbond>
0.0000

> <Gold.Chemscore.DEClash>
0.0500

> <Gold.Chemscore.DEInternal>
3.3365

> <Gold.Chemscore.Rot>
1.9098

> <Gold.Chemscore.Internal.Correction>
   9.000000E+99

> <Gold.Chemscore.Hbonds>
donor molecule, donor type, donor heavy atom, donor atom, acceptor molecule, acceptor atom, score
      P1  H  7989  7998       L1    13  0.18

> <Gold.Chemscore.Hbond.Weighted>
-5.2878

> <Gold.Chemscore.Metal.Weighted>
-0.0000

> <Gold.Chemscore.Lipo.Weighted>
-13.6157

> <Gold.Chemscore.Internal_Hbond.Weighted>
0.0000

> <Gold.Chemscore.DEClash.Weighted>
0.0500

> <Gold.Chemscore.DEInternal.Weighted>
3.3365

> <Gold.Chemscore.Rot.Weighted>
4.8891

> <Gold.Chemscore.Internal.Correction.Weighted>
   9.000000E+99

> <Gold.Protein.RotatedTorsions>
[ 6907 6896 6895 6894 ] final  -51.03 input  -60.11 | X-H torsion
[ 7974 7965 7964 7962 ] final  -30.73 input  175.53 | X-H torsion
[ 8008 7997 7996 7995 ] final   18.89 input   59.86 | X-H torsion
[ 10167 10162 10161 10158 ] final  -99.53 input  -65.29 | X-H torsion
[ 10718 10713 10712 10709 ] final   42.81 input   66.30 | X-H torsion
[ 10763 10752 10751 10750 ] final   -6.87 input  -60.55 | X-H torsion
[ 11005 11000 10999 10996 ] final  110.94 input  -57.11 | X-H torsion

> <Gold.Protein.ActiveResidues>
 VAL166  LYS551  ARG553  GLY616  TRP617  ASP618  TYR619  PRO620  LYS621  CYS622 
 ASP623  PHE694  ASN695  SER759  ASP760  ASP761  ALA762  ILE779  LEU786  VAL792 
 PHE793  MET794  SER795  GLU796  ALA797  LYS798  CYS799  TRP800  GLU811  SER814 

> <Gold.Protein.RotatedAtoms>
  150.8650  134.8011  159.7111 H   0  0  0  0  0  0  0  0  0  0  0  0  # atno 6907 bound_to 6896
  152.4674  134.5038  159.9743 H   0  0  0  0  0  0  0  0  0  0  0  0  # atno 6908 bound_to 6896
  151.5136  133.3442  159.2925 H   0  0  0  0  0  0  0  0  0  0  0  0  # atno 6909 bound_to 6896
  146.1121  140.5577  142.8773 H   0  0  0  0  0  0  0  0  0  0  0  0  # atno 7974 bound_to 7965
  154.9127  140.3016  155.5258 H   0  0  0  0  0  0  0  0  0  0  0  0  # atno 8008 bound_to 7997
  156.3014  140.2386  156.4103 H   0  0  0  0  0  0  0  0  0  0  0  0  # atno 8009 bound_to 7997
  154.8410  140.0414  157.1530 H   0  0  0  0  0  0  0  0  0  0  0  0  # atno 8010 bound_to 7997
  140.2614  143.3405  152.0621 H   0  0  0  0  0  0  0  0  0  0  0  0  # atno 10167 bound_to 10162
  157.4090  130.7903  149.7414 H   0  0  0  0  0  0  0  0  0  0  0  0  # atno 10718 bound_to 10713
  153.4184  135.7009  153.6311 H   0  0  0  0  0  0  0  0  0  0  0  0  # atno 10763 bound_to 10752
  153.4775  135.3701  155.2425 H   0  0  0  0  0  0  0  0  0  0  0  0  # atno 10764 bound_to 10752
  154.8721  135.4058  154.3548 H   0  0  0  0  0  0  0  0  0  0  0  0  # atno 10765 bound_to 10752
  139.8892  134.9496  156.6355 H   0  0  0  0  0  0  0  0  0  0  0  0  # atno 11005 bound_to 11000
  144.7520  140.5216  143.6795 LP  0  0  0  0  0  0  0  0  0  0  0  0  # atno 17320 bound_to 7965
  145.5642  139.1480  143.3324 LP  0  0  0  0  0  0  0  0  0  0  0  0  # atno 17321 bound_to 7965
  139.5015  144.6716  151.6229 LP  0  0  0  0  0  0  0  0  0  0  0  0  # atno 17342 bound_to 10162
  140.5962  143.9691  150.6356 LP  0  0  0  0  0  0  0  0  0  0  0  0  # atno 17343 bound_to 10162
  155.9845  130.3991  150.3309 LP  0  0  0  0  0  0  0  0  0  0  0  0  # atno 17370 bound_to 10713
  157.1445  131.0305  151.2913 LP  0  0  0  0  0  0  0  0  0  0  0  0  # atno 17371 bound_to 10713
  140.7633  133.8799  155.8435 LP  0  0  0  0  0  0  0  0  0  0  0  0  # atno 17394 bound_to 11000
  140.9903  134.1287  157.4414 LP  0  0  0  0  0  0  0  0  0  0  0  0  # atno 17395 bound_to 11000

$$$$
