AV-unprocessed.smi:1753|AV-procd|sdf|7062|dock3
  -GOLD-   22720 8283D 1   1.00000     0.00000
 Structure written by MMmdl.
 37 38  0  0  0  0  0  0  0  0  1 V2000
  153.8745  141.3805  160.8070 C   0  0  0  0  0  0  0  0  0  0  0  0
  153.0308  142.1151  159.8075 C   0  0  0  0  0  0  0  0  0  0  0  0
  152.1799  141.5659  158.8047 C   0  0  0  0  0  0  0  0  0  0  0  0
  151.6709  142.6815  158.1980 C   0  0  0  0  0  0  0  0  0  0  0  0
  150.7966  142.7674  157.1604 N   0  0  0  0  0  0  0  0  0  0  0  0
  150.3686  141.7929  156.3392 C   0  0  0  0  0  0  0  0  0  0  0  0
  150.7009  140.6090  156.3996 O   0  0  0  0  0  0  0  0  0  0  0  0
  149.5184  142.2736  155.4208 N   0  0  0  0  0  0  0  0  0  0  0  0
  148.8809  141.4825  154.3732 C   0  0  0  0  0  0  0  0  0  0  0  0
  147.3419  141.5690  154.4221 C   0  0  2  0  0  0  0  0  0  0  0  0
  146.7764  142.8639  153.8015 C   0  0  0  0  0  0  0  0  0  0  0  0
  145.2935  142.9731  154.1675 C   0  0  0  0  0  0  0  0  0  0  0  0
  145.1504  142.2634  155.8487 S   0  0  0  0  0  0  0  0  0  0  0  0
  145.1505  143.3500  156.8398 O   0  0  0  0  0  0  0  0  0  0  0  0
  144.0959  141.2381  155.8491 O   0  0  0  0  0  0  0  0  0  0  0  0
  146.7968  141.4555  155.8550 C   0  0  0  0  0  0  0  0  0  0  0  0
  152.1928  143.7989  158.8108 N   0  0  0  0  0  0  0  0  0  0  0  0
  151.9579  145.2005  158.5242 C   0  0  0  0  0  0  0  0  0  0  0  0
  153.0339  143.4435  159.8059 N   0  0  0  0  0  0  0  0  0  0  0  0
  153.8030  140.3019  160.6658 H   0  0  0  0  0  0  0  0  0  0  0  0
  153.5580  141.6030  161.8263 H   0  0  0  0  0  0  0  0  0  0  0  0
  154.9248  141.6578  160.7145 H   0  0  0  0  0  0  0  0  0  0  0  0
  151.9911  140.5258  158.5856 H   0  0  0  0  0  0  0  0  0  0  0  0
  150.4280  143.6906  156.9857 H   0  0  0  0  0  0  0  0  0  0  0  0
  149.2969  143.2582  155.4451 H   0  0  0  0  0  0  0  0  0  0  0  0
  149.2467  141.8037  153.3964 H   0  0  0  0  0  0  0  0  0  0  0  0
  149.2004  140.4472  154.4946 H   0  0  0  0  0  0  0  0  0  0  0  0
  146.9262  140.7335  153.8566 H   0  0  0  0  0  0  0  0  0  0  0  0
  147.3071  143.7220  154.2161 H   0  0  0  0  0  0  0  0  0  0  0  0
  146.9168  142.8932  152.7205 H   0  0  0  0  0  0  0  0  0  0  0  0
  144.9212  143.9976  154.1548 H   0  0  0  0  0  0  0  0  0  0  0  0
  144.6846  142.3697  153.4938 H   0  0  0  0  0  0  0  0  0  0  0  0
  146.7063  140.4228  156.1921 H   0  0  0  0  0  0  0  0  0  0  0  0
  147.4269  141.9959  156.5620 H   0  0  0  0  0  0  0  0  0  0  0  0
  150.8896  145.4119  158.5793 H   0  0  0  0  0  0  0  0  0  0  0  0
  152.3170  145.4337  157.5214 H   0  0  0  0  0  0  0  0  0  0  0  0
  152.4803  145.8329  159.2438 H   0  0  0  0  0  0  0  0  0  0  0  0
  1  2  1  0  0  0  0
  1 20  1  0  0  0  0
  1 21  1  0  0  0  0
  1 22  1  0  0  0  0
  2 19  2  0  0  0  0
  2  3  1  0  0  0  0
  3  4  2  0  0  0  0
  3 23  1  0  0  0  0
  4  5  1  0  0  0  0
  4 17  1  0  0  0  0
  5  6  1  0  0  0  0
  5 24  1  0  0  0  0
  6  7  2  0  0  0  0
  6  8  1  0  0  0  0
  8  9  1  0  0  0  0
  8 25  1  0  0  0  0
  9 10  1  0  0  0  0
  9 26  1  0  0  0  0
  9 27  1  0  0  0  0
 10 16  1  0  0  0  0
 10 11  1  0  0  0  0
 10 28  1  0  0  0  0
 11 12  1  0  0  0  0
 11 29  1  0  0  0  0
 11 30  1  0  0  0  0
 12 13  1  0  0  0  0
 12 31  1  0  0  0  0
 12 32  1  0  0  0  0
 13 14  2  0  0  0  0
 13 15  2  0  0  0  0
 13 16  1  0  0  0  0
 16 33  1  0  0  0  0
 16 34  1  0  0  0  0
 17 18  1  0  0  0  0
 17 19  1  0  0  0  0
 18 35  1  0  0  0  0
 18 36  1  0  0  0  0
 18 37  1  0  0  0  0
M  END
> <s_m_source_file>
AV-unprocessed.smi

> <i_m_source_file_index>
1753

> <i_lp_mmshare_version>
43012

> <i_f3d_flags>
0

> <s_epik_input>
W0NIM11jMVtjSF1jKG4objEpW0NIM10pW05IXUMoPU8pW05IXVtDSDJdW0NAQEhdKFtDSDJdMilbQ0gyXVtDSDJdUzIoPU8pPU8=

> <s_epik_cmdline>
J2VwaWtfcHl0aG9uJywgJy1waCcsICc3LjAnLCAnLXRuJywgJzgnLCAnLW1hJywgJzIwMCcsICctbWV0YWxfYmluZGluZycsICctaW1hZScsICc8aW5maWxlLm1hZT4nLCAnLW9tYWUnLCAnPG91dGZpbGUubWFlPic=

> <r_lp_tautomer_probability>
1

> <r_epik_Ionization_Penalty>
9.06651e-05

> <r_epik_Ionization_Penalty_Charging>
0

> <r_epik_Ionization_Penalty_Neutral>
9.06651e-05

> <r_epik_State_Penalty>
-0

> <r_epik_Charging_Adjusted_Penalty>
0

> <i_epik_Tot_Q>
0

> <i_epik_Tot_abs_Q>
0

> <r_epik_Metal_State_Penalty>
-0

> <b_epik_Metal_Only>
0

> <s_lp_Force_Field>
OPLS_2005

> <r_lp_Energy>
5.34898

> <b_lp_Chiralities_Consistent>
1

> <s_lp_Variant>
AV-unprocessed.smi:1753-1

> <Gold.Version>
5.8.1

> <Gold.Id.Protein>
6NUR|6NUR_protein|mol2

> <Gold.PLP.Fitness>
42.9057

> <Gold.PLP.PLP>
-39.2557

> <Gold.PLP.part.hbond>
-1.7485

> <Gold.PLP.part.metal>
0.0000

> <Gold.PLP.part.buried>
-6.2557

> <Gold.PLP.part.nonpolar>
-31.8466

> <Gold.PLP.part.repulsive>
0.4759

> <Gold.PLP.ligand.clash>
0.0000

> <Gold.PLP.ligand.torsion>
0.1844

> <Gold.PLP.Chemscore.Hbond>
1.3380

> <Gold.PLP.Chemscore.CHOScore>
0.0000

> <Gold.PLP.Chemscore.Metal>
0.0000

> <Gold.Chemscore.Hbonds>
donor molecule, donor type, donor heavy atom, donor atom, acceptor molecule, acceptor atom, score
      L1  H     5    24       P1  8028  0.34
      L1  H     8    25       P1  8028  0.99

> <Gold.PLP.Chemscore.Internal.Correction>
0.0047

> <Gold.Rescore>
     Score         DG    S(hbond)    S(metal)    S(lipo)     H(rot)  DE(clash)    DE(int)     intcor
     12.92     -14.17       1.00        0.00      74.48       1.31       0.04       1.21       ----

> <Gold.Chemscore.Fitness>
12.9212

> <Gold.Chemscore.DG>
-14.1743

> <Gold.Chemscore.ZeroCoef>
-5.4800

> <Gold.Chemscore.Hbond>
0.9966

> <Gold.Chemscore.Metal>
0.0000

> <Gold.Chemscore.Lipo>
74.4806

> <Gold.Chemscore.Internal_Hbond>
0.0000

> <Gold.Chemscore.DEClash>
0.0414

> <Gold.Chemscore.DEInternal>
1.2116

> <Gold.Chemscore.Rot>
1.3080

> <Gold.Chemscore.Internal.Correction>
   9.000000E+99

> <Gold.Chemscore.Hbonds>
donor molecule, donor type, donor heavy atom, donor atom, acceptor molecule, acceptor atom, score
      L1  H     5    24       P1  8028  0.34
      L1  H     8    25       P1  8028  0.92

> <Gold.Chemscore.Hbond.Weighted>
-3.3286

> <Gold.Chemscore.Metal.Weighted>
-0.0000

> <Gold.Chemscore.Lipo.Weighted>
-8.7142

> <Gold.Chemscore.Internal_Hbond.Weighted>
0.0000

> <Gold.Chemscore.DEClash.Weighted>
0.0414

> <Gold.Chemscore.DEInternal.Weighted>
1.2116

> <Gold.Chemscore.Rot.Weighted>
3.3485

> <Gold.Chemscore.Internal.Correction.Weighted>
   9.000000E+99

> <Gold.Protein.RotatedTorsions>
[ 6907 6896 6895 6894 ] final  113.48 input  -60.11 | X-H torsion
[ 7974 7965 7964 7962 ] final  -12.52 input  175.53 | X-H torsion
[ 8008 7997 7996 7995 ] final -134.70 input   59.86 | X-H torsion
[ 10167 10162 10161 10158 ] final  -94.48 input  -65.29 | X-H torsion
[ 10718 10713 10712 10709 ] final  -86.83 input   66.30 | X-H torsion
[ 10763 10752 10751 10750 ] final -150.00 input  -60.55 | X-H torsion
[ 11005 11000 10999 10996 ] final  -85.88 input  -57.11 | X-H torsion

> <Gold.Protein.ActiveResidues>
 VAL166  LYS551  ARG553  GLY616  TRP617  ASP618  TYR619  PRO620  LYS621  CYS622 
 ASP623  PHE694  ASN695  SER759  ASP760  ASP761  ALA762  ILE779  LEU786  VAL792 
 PHE793  MET794  SER795  GLU796  ALA797  LYS798  CYS799  TRP800  GLU811  SER814 

> <Gold.Protein.RotatedAtoms>
  152.4858  133.8370  159.7132 H   0  0  0  0  0  0  0  0  0  0  0  0  # atno 6907 bound_to 6896
  150.8944  133.7191  159.2902 H   0  0  0  0  0  0  0  0  0  0  0  0  # atno 6908 bound_to 6896
  151.4653  135.1045  159.9788 H   0  0  0  0  0  0  0  0  0  0  0  0  # atno 6909 bound_to 6896
  146.2149  140.3069  142.8379 H   0  0  0  0  0  0  0  0  0  0  0  0  # atno 7974 bound_to 7965
  155.3665  140.0486  157.3046 H   0  0  0  0  0  0  0  0  0  0  0  0  # atno 8008 bound_to 7997
  154.5151  140.2205  155.9044 H   0  0  0  0  0  0  0  0  0  0  0  0  # atno 8009 bound_to 7997
  156.1628  140.3113  155.8842 H   0  0  0  0  0  0  0  0  0  0  0  0  # atno 8010 bound_to 7997
  140.3140  143.3088  152.0117 H   0  0  0  0  0  0  0  0  0  0  0  0  # atno 10167 bound_to 10162
  155.9988  130.4778  150.4774 H   0  0  0  0  0  0  0  0  0  0  0  0  # atno 10718 bound_to 10713
  154.8144  135.3295  154.7216 H   0  0  0  0  0  0  0  0  0  0  0  0  # atno 10763 bound_to 10752
  153.7859  135.6915  153.4884 H   0  0  0  0  0  0  0  0  0  0  0  0  # atno 10764 bound_to 10752
  153.1949  135.4537  155.0142 H   0  0  0  0  0  0  0  0  0  0  0  0  # atno 10765 bound_to 10752
  141.1636  133.7424  156.9080 H   0  0  0  0  0  0  0  0  0  0  0  0  # atno 11005 bound_to 11000
  144.9016  140.7649  143.5863 LP  0  0  0  0  0  0  0  0  0  0  0  0  # atno 17320 bound_to 7965
  145.2996  139.1855  143.4697 LP  0  0  0  0  0  0  0  0  0  0  0  0  # atno 17321 bound_to 7965
  139.4888  144.6362  151.6970 LP  0  0  0  0  0  0  0  0  0  0  0  0  # atno 17342 bound_to 10162
  140.5543  144.0375  150.6140 LP  0  0  0  0  0  0  0  0  0  0  0  0  # atno 17343 bound_to 10162
  157.2783  131.0601  151.2215 LP  0  0  0  0  0  0  0  0  0  0  0  0  # atno 17370 bound_to 10713
  157.3270  130.6966  149.6302 LP  0  0  0  0  0  0  0  0  0  0  0  0  # atno 17371 bound_to 10713
  140.1536  134.9213  157.2625 LP  0  0  0  0  0  0  0  0  0  0  0  0  # atno 17394 bound_to 11000
  140.2693  134.3479  155.7379 LP  0  0  0  0  0  0  0  0  0  0  0  0  # atno 17395 bound_to 11000

$$$$
