AV-unprocessed.smi:2877|AV-procd|sdf|11044|dock8
  -GOLD-   2272015513D 1   1.00000     0.00000
 Structure written by MMmdl.
 40 41  0  0  0  0  0  0  0  0  2 V2000
  148.0175  137.1776  161.0752 O   0  0  0  0  0  0  0  0  0  0  0  0
  148.0834  136.1721  160.3586 C   0  0  0  0  0  0  0  0  0  0  0  0
  148.4969  136.2726  158.8636 C   0  0  0  0  0  0  0  0  0  0  0  0
  149.8478  136.9516  158.5196 C   0  0  0  0  0  0  0  0  0  0  0  0
  149.8414  137.3972  157.1277 N   0  5  0  0  0  0  0  0  0  0  0  0
  150.8987  137.2647  156.2747 C   0  0  0  0  0  0  0  0  0  0  0  0
  151.7281  136.3525  156.1778 O   0  0  0  0  0  0  0  0  0  0  0  0
  151.0126  138.4673  155.3137 C   0  0  0  0  0  0  0  0  0  0  0  0
  152.1246  138.3416  154.5839 F   0  0  0  0  0  0  0  0  0  0  0  0
  149.9788  138.4521  154.4664 F   0  0  0  0  0  0  0  0  0  0  0  0
  151.0613  139.7879  156.0828 C   0  0  0  0  0  0  0  0  0  0  0  0
  151.7487  139.8896  157.3146 C   0  0  0  0  0  0  0  0  0  0  0  0
  151.7713  141.1317  157.9766 C   0  0  0  0  0  0  0  0  0  0  0  0
  151.1065  142.2252  157.3908 C   0  0  0  0  0  0  0  0  0  0  0  0
  150.4490  142.0269  156.1609 C   0  0  0  0  0  0  0  0  0  0  0  0
  150.4213  140.8405  155.5175 N   0  0  0  0  0  0  0  0  0  0  0  0
  147.7935  134.9424  160.8565 N   0  0  0  0  0  0  0  0  0  0  0  0
  147.2892  134.7364  162.2216 C   0  0  0  0  0  0  0  0  0  0  0  0
  145.8086  134.3194  162.1447 C   0  0  0  0  0  0  0  0  0  0  0  0
  145.6335  133.0645  161.2682 C   0  0  0  0  0  0  0  0  0  0  0  0
  146.3404  133.2168  159.9079 C   0  0  0  0  0  0  0  0  0  0  0  0
  147.7953  133.6836  160.0961 C   0  0  0  0  0  0  0  0  0  0  0  0
  148.5078  135.2597  158.4586 H   0  0  0  0  0  0  0  0  0  0  0  0
  147.7105  136.8157  158.3376 H   0  0  0  0  0  0  0  0  0  0  0  0
  150.0009  137.7952  159.1934 H   0  0  0  0  0  0  0  0  0  0  0  0
  150.6648  136.2607  158.7333 H   0  0  0  0  0  0  0  0  0  0  0  0
  152.2591  139.0379  157.7390 H   0  0  0  0  0  0  0  0  0  0  0  0
  152.2910  141.2438  158.9166 H   0  0  0  0  0  0  0  0  0  0  0  0
  151.1026  143.1925  157.8706 H   0  0  0  0  0  0  0  0  0  0  0  0
  149.9303  142.8436  155.6813 H   0  0  0  0  0  0  0  0  0  0  0  0
  147.8741  133.9559  162.7103 H   0  0  0  0  0  0  0  0  0  0  0  0
  147.3918  135.6192  162.8540 H   0  0  0  0  0  0  0  0  0  0  0  0
  145.4171  134.1339  163.1453 H   0  0  0  0  0  0  0  0  0  0  0  0
  145.2218  135.1398  161.7292 H   0  0  0  0  0  0  0  0  0  0  0  0
  146.0523  132.2044  161.7922 H   0  0  0  0  0  0  0  0  0  0  0  0
  144.5744  132.8503  161.1217 H   0  0  0  0  0  0  0  0  0  0  0  0
  146.3160  132.2704  159.3672 H   0  0  0  0  0  0  0  0  0  0  0  0
  145.8026  133.9401  159.2933 H   0  0  0  0  0  0  0  0  0  0  0  0
  148.2935  133.7486  159.1304 H   0  0  0  0  0  0  0  0  0  0  0  0
  148.3558  132.9315  160.6534 H   0  0  0  0  0  0  0  0  0  0  0  0
  1  2  2  0  0  0  0
  2  3  1  0  0  0  0
  2 17  1  0  0  0  0
  3  4  1  0  0  0  0
  3 23  1  0  0  0  0
  3 24  1  0  0  0  0
  4  5  1  0  0  0  0
  4 25  1  0  0  0  0
  4 26  1  0  0  0  0
  5  6  1  0  0  0  0
  6  7  2  0  0  0  0
  6  8  1  0  0  0  0
  8  9  1  0  0  0  0
  8 10  1  0  0  0  0
  8 11  1  0  0  0  0
 11 16  1  0  0  0  0
 11 12  2  0  0  0  0
 12 13  1  0  0  0  0
 12 27  1  0  0  0  0
 13 14  2  0  0  0  0
 13 28  1  0  0  0  0
 14 15  1  0  0  0  0
 14 29  1  0  0  0  0
 15 16  2  0  0  0  0
 15 30  1  0  0  0  0
 17 22  1  0  0  0  0
 17 18  1  0  0  0  0
 18 19  1  0  0  0  0
 18 31  1  0  0  0  0
 18 32  1  0  0  0  0
 19 20  1  0  0  0  0
 19 33  1  0  0  0  0
 19 34  1  0  0  0  0
 20 21  1  0  0  0  0
 20 35  1  0  0  0  0
 20 36  1  0  0  0  0
 21 22  1  0  0  0  0
 21 37  1  0  0  0  0
 21 38  1  0  0  0  0
 22 39  1  0  0  0  0
 22 40  1  0  0  0  0
M  CHG  1   5  -1
M  END
> <s_m_source_file>
AV-unprocessed.smi

> <i_m_source_file_index>
2877

> <i_lp_mmshare_version>
43012

> <i_f3d_flags>
0

> <s_epik_input>
W0NIMl0xW0NIMl1bQ0gyXVtDSDJdW0NIMl1OMUMoPU8pW0NIMl1bQ0gyXVtOSF1DKD1PKUMoRikoRiljMltjSF1bY0hdW2NIXVtjSF1uMg==

> <s_epik_cmdline>
J2VwaWtfcHl0aG9uJywgJy1waCcsICc3LjAnLCAnLXRuJywgJzgnLCAnLW1hJywgJzIwMCcsICctbWV0YWxfYmluZGluZycsICctaW1hZScsICc8aW5maWxlLm1hZT4nLCAnLW9tYWUnLCAnPG91dGZpbGUubWFlPic=

> <r_lp_tautomer_probability>
1

> <r_epik_Ionization_Penalty>
5.30743

> <r_epik_Ionization_Penalty_Charging>
5.30743

> <r_epik_Ionization_Penalty_Neutral>
2.29237e-06

> <r_epik_State_Penalty>
5.30735

> <r_epik_Charging_Adjusted_Penalty>
10.6148

> <i_epik_Tot_Q>
-1

> <i_epik_Tot_abs_Q>
1

> <r_epik_Metal_State_Penalty>
1.35027

> <b_epik_Metal_Only>
1

> <s_lp_Force_Field>
OPLS_2005

> <r_lp_Energy>
42.7236

> <b_lp_Chiralities_Consistent>
1

> <s_lp_Variant>
AV-unprocessed.smi:2877-2

> <Gold.Version>
5.8.1

> <Gold.Id.Protein>
6NUR|6NUR_protein|mol2

> <Gold.PLP.Fitness>
48.3468

> <Gold.PLP.PLP>
-37.8592

> <Gold.PLP.part.hbond>
-4.0000

> <Gold.PLP.part.metal>
0.0000

> <Gold.PLP.part.buried>
-4.4695

> <Gold.PLP.part.nonpolar>
-30.0901

> <Gold.PLP.part.repulsive>
0.0656

> <Gold.PLP.ligand.clash>
0.0000

> <Gold.PLP.ligand.torsion>
1.6160

> <Gold.PLP.Chemscore.Hbond>
3.5532

> <Gold.PLP.Chemscore.CHOScore>
1.0000

> <Gold.PLP.Chemscore.Metal>
0.0000

> <Gold.Chemscore.Hbonds>
donor molecule, donor type, donor heavy atom, donor atom, acceptor molecule, acceptor atom, score
      P1  H  6931  6943       L1     1  0.98
      P1  H  6934  6947       L1     1  0.72
      P1  H  7989  7998       L1    16  0.15
      P1  H 10752 10763       L1     7  1.00
      L1  C    15    30       P1  8028  1.00

> <Gold.PLP.Chemscore.Internal.Correction>
0.0598

> <Gold.Rescore>
     Score         DG    S(hbond)    S(metal)    S(lipo)     H(rot)  DE(clash)    DE(int)     intcor
     18.10     -18.86       2.69        0.00      78.79       1.89       0.01       0.75       ----

> <Gold.Chemscore.Fitness>
18.1021

> <Gold.Chemscore.DG>
-18.8571

> <Gold.Chemscore.ZeroCoef>
-5.4800

> <Gold.Chemscore.Hbond>
2.6914

> <Gold.Chemscore.Metal>
0.0000

> <Gold.Chemscore.Lipo>
78.7916

> <Gold.Chemscore.Internal_Hbond>
0.0000

> <Gold.Chemscore.DEClash>
0.0077

> <Gold.Chemscore.DEInternal>
0.7473

> <Gold.Chemscore.Rot>
1.8871

> <Gold.Chemscore.Internal.Correction>
   9.000000E+99

> <Gold.Chemscore.Hbonds>
donor molecule, donor type, donor heavy atom, donor atom, acceptor molecule, acceptor atom, score
      P1  H  6931  6943       L1     1  0.93
      P1  H  6934  6947       L1     1  0.67
      P1  H  7989  7998       L1    16  0.02
      P1  H 10752 10763       L1     7  0.95

> <Gold.Chemscore.Hbond.Weighted>
-8.9894

> <Gold.Chemscore.Metal.Weighted>
-0.0000

> <Gold.Chemscore.Lipo.Weighted>
-9.2186

> <Gold.Chemscore.Internal_Hbond.Weighted>
0.0000

> <Gold.Chemscore.DEClash.Weighted>
0.0077

> <Gold.Chemscore.DEInternal.Weighted>
0.7473

> <Gold.Chemscore.Rot.Weighted>
4.8309

> <Gold.Chemscore.Internal.Correction.Weighted>
   9.000000E+99

> <Gold.Protein.RotatedTorsions>
[ 6907 6896 6895 6894 ] final  175.99 input  -60.11 | X-H torsion
[ 7974 7965 7964 7962 ] final   -2.96 input  175.53 | X-H torsion
[ 8008 7997 7996 7995 ] final  129.08 input   59.86 | X-H torsion
[ 10167 10162 10161 10158 ] final    5.11 input  -65.29 | X-H torsion
[ 10718 10713 10712 10709 ] final  143.83 input   66.30 | X-H torsion
[ 10763 10752 10751 10750 ] final   79.58 input  -60.55 | X-H torsion
[ 11005 11000 10999 10996 ] final  -18.72 input  -57.11 | X-H torsion

> <Gold.Protein.ActiveResidues>
 VAL166  LYS551  ARG553  GLY616  TRP617  ASP618  TYR619  PRO620  LYS621  CYS622 
 ASP623  PHE694  ASN695  SER759  ASP760  ASP761  ALA762  ILE779  LEU786  VAL792 
 PHE793  MET794  SER795  GLU796  ALA797  LYS798  CYS799  TRP800  GLU811  SER814 

> <Gold.Protein.RotatedAtoms>
  151.7274  133.3316  159.3330 H   0  0  0  0  0  0  0  0  0  0  0  0  # atno 6907 bound_to 6896
  150.7627  134.6394  159.6238 H   0  0  0  0  0  0  0  0  0  0  0  0  # atno 6908 bound_to 6896
  152.3613  134.6870  160.0258 H   0  0  0  0  0  0  0  0  0  0  0  0  # atno 6909 bound_to 6896
  146.2397  140.1649  142.8332 H   0  0  0  0  0  0  0  0  0  0  0  0  # atno 7974 bound_to 7965
  156.2929  140.2629  156.2540 H   0  0  0  0  0  0  0  0  0  0  0  0  # atno 8008 bound_to 7997
  154.9855  140.0389  157.2315 H   0  0  0  0  0  0  0  0  0  0  0  0  # atno 8009 bound_to 7997
  154.7733  140.2782  155.6125 H   0  0  0  0  0  0  0  0  0  0  0  0  # atno 8010 bound_to 7997
  140.6499  143.7569  150.7559 H   0  0  0  0  0  0  0  0  0  0  0  0  # atno 10167 bound_to 10162
  157.3644  131.0970  151.0886 H   0  0  0  0  0  0  0  0  0  0  0  0  # atno 10718 bound_to 10713
  153.0964  135.4834  154.8786 H   0  0  0  0  0  0  0  0  0  0  0  0  # atno 10763 bound_to 10752
  154.7329  135.3064  154.8863 H   0  0  0  0  0  0  0  0  0  0  0  0  # atno 10764 bound_to 10752
  153.9493  135.6825  153.4797 H   0  0  0  0  0  0  0  0  0  0  0  0  # atno 10765 bound_to 10752
  140.8296  133.8007  155.9744 H   0  0  0  0  0  0  0  0  0  0  0  0  # atno 11005 bound_to 11000
  145.0059  140.8672  143.5253 LP  0  0  0  0  0  0  0  0  0  0  0  0  # atno 17320 bound_to 7965
  145.1675  139.2423  143.5359 LP  0  0  0  0  0  0  0  0  0  0  0  0  # atno 17321 bound_to 7965
  140.1218  143.4605  152.2308 LP  0  0  0  0  0  0  0  0  0  0  0  0  # atno 17342 bound_to 10162
  139.5713  144.7464  151.3882 LP  0  0  0  0  0  0  0  0  0  0  0  0  # atno 17343 bound_to 10162
  157.2014  130.6396  149.5740 LP  0  0  0  0  0  0  0  0  0  0  0  0  # atno 17370 bound_to 10713
  155.9743  130.4690  150.6378 LP  0  0  0  0  0  0  0  0  0  0  0  0  # atno 17371 bound_to 10713
  140.9012  134.2376  157.5040 LP  0  0  0  0  0  0  0  0  0  0  0  0  # atno 17394 bound_to 11000
  139.8705  134.9707  156.4712 LP  0  0  0  0  0  0  0  0  0  0  0  0  # atno 17395 bound_to 11000

$$$$
