AV-unprocessed.smi:2668|AV-procd|sdf|10341|dock3
  -GOLD-   2272014363D 1   1.00000     0.00000
 Structure written by MMmdl.
 53 54  0  0  0  0  0  0  0  0  2 V2000
  145.6447  135.3837  150.8304 C   0  0  0  0  0  0  0  0  0  0  0  0
  144.9181  135.9828  151.9482 N   0  0  0  0  0  0  0  0  0  0  0  0
  144.4997  134.8768  152.8074 C   0  0  0  0  0  0  0  0  0  0  0  0
  145.7400  136.9693  152.6746 C   0  0  2  0  0  0  0  0  0  0  0  0
  144.9353  137.6542  153.8042 C   0  0  0  0  0  0  0  0  0  0  0  0
  145.7206  138.7762  154.5052 C   0  0  0  0  0  0  0  0  0  0  0  0
  146.1902  139.8097  153.5369 N   0  3  1  0  0  0  0  0  0  0  0  0
  146.7724  141.0713  154.1324 C   0  0  0  0  0  0  0  0  0  0  0  0
  147.1747  142.0867  153.0290 C   0  0  0  0  0  0  0  0  0  0  0  0
  145.7463  141.7692  155.0592 C   0  0  0  0  0  0  0  0  0  0  0  0
  148.0686  140.6928  154.9160 C   0  0  0  0  0  0  0  0  0  0  0  0
  148.6487  141.7925  155.6879 N   0  0  0  0  0  0  0  0  0  0  0  0
  149.4835  141.6634  156.7294 C   0  0  0  0  0  0  0  0  0  0  0  0
  149.8563  140.5759  157.1680 O   0  0  0  0  0  0  0  0  0  0  0  0
  149.8240  142.8644  157.2273 N   0  0  0  0  0  0  0  0  0  0  0  0
  150.6678  143.1629  158.3315 C   0  0  0  0  0  0  0  0  0  0  0  0
  151.5477  142.2359  158.9419 C   0  0  0  0  0  0  0  0  0  0  0  0
  152.3424  142.6637  160.0228 C   0  0  0  0  0  0  0  0  0  0  0  0
  152.2366  144.0020  160.4484 C   0  0  0  0  0  0  0  0  0  0  0  0
  151.4132  144.8996  159.8676 N   0  0  0  0  0  0  0  0  0  0  0  0
  150.6536  144.4821  158.8325 C   0  0  0  0  0  0  0  0  0  0  0  0
  147.0302  139.1640  152.4866 C   0  0  0  0  0  0  0  0  0  0  0  0
  146.2504  138.0804  151.7282 C   0  0  0  0  0  0  0  0  0  0  0  0
  145.8549  136.1112  150.0478 H   0  0  0  0  0  0  0  0  0  0  0  0
  145.0525  134.5975  150.3603 H   0  0  0  0  0  0  0  0  0  0  0  0
  146.5875  134.9444  151.1598 H   0  0  0  0  0  0  0  0  0  0  0  0
  143.8033  135.2062  153.5771 H   0  0  0  0  0  0  0  0  0  0  0  0
  145.3557  134.4037  153.2908 H   0  0  0  0  0  0  0  0  0  0  0  0
  143.9737  134.1147  152.2309 H   0  0  0  0  0  0  0  0  0  0  0  0
  146.5977  136.4571  153.1145 H   0  0  0  0  0  0  0  0  0  0  0  0
  144.0079  138.0633  153.3997 H   0  0  0  0  0  0  0  0  0  0  0  0
  144.6485  136.9358  154.5714 H   0  0  0  0  0  0  0  0  0  0  0  0
  145.0425  139.1950  155.2457 H   0  0  0  0  0  0  0  0  0  0  0  0
  146.5711  138.3603  155.0469 H   0  0  0  0  0  0  0  0  0  0  0  0
  147.6931  142.9542  153.4372 H   0  0  0  0  0  0  0  0  0  0  0  0
  146.3081  142.4935  152.5071 H   0  0  0  0  0  0  0  0  0  0  0  0
  147.8374  141.6341  152.2904 H   0  0  0  0  0  0  0  0  0  0  0  0
  146.1023  142.7466  155.3857 H   0  0  0  0  0  0  0  0  0  0  0  0
  145.5484  141.1906  155.9618 H   0  0  0  0  0  0  0  0  0  0  0  0
  144.7947  141.9348  154.5540 H   0  0  0  0  0  0  0  0  0  0  0  0
  147.9100  139.8496  155.5862 H   0  0  0  0  0  0  0  0  0  0  0  0
  148.8320  140.3607  154.2114 H   0  0  0  0  0  0  0  0  0  0  0  0
  148.3950  142.7271  155.4022 H   0  0  0  0  0  0  0  0  0  0  0  0
  149.3787  143.6635  156.8002 H   0  0  0  0  0  0  0  0  0  0  0  0
  151.6403  141.2171  158.6001 H   0  0  0  0  0  0  0  0  0  0  0  0
  153.0220  141.9817  160.5118 H   0  0  0  0  0  0  0  0  0  0  0  0
  152.8333  144.3624  161.2731 H   0  0  0  0  0  0  0  0  0  0  0  0
  150.0079  145.2278  158.3920 H   0  0  0  0  0  0  0  0  0  0  0  0
  147.3916  139.8868  151.7592 H   0  0  0  0  0  0  0  0  0  0  0  0
  147.9134  138.7128  152.9406 H   0  0  0  0  0  0  0  0  0  0  0  0
  146.9178  137.6745  150.9688 H   0  0  0  0  0  0  0  0  0  0  0  0
  145.4133  138.5363  151.1973 H   0  0  0  0  0  0  0  0  0  0  0  0
  145.3519  140.1169  153.0645 H   0  0  0  0  0  0  0  0  0  0  0  0
  1  2  1  0  0  0  0
  1 24  1  0  0  0  0
  1 25  1  0  0  0  0
  1 26  1  0  0  0  0
  2  3  1  0  0  0  0
  2  4  1  0  0  0  0
  3 27  1  0  0  0  0
  3 28  1  0  0  0  0
  3 29  1  0  0  0  0
  4 23  1  0  0  0  0
  4  5  1  0  0  0  0
  4 30  1  0  0  0  0
  5  6  1  0  0  0  0
  5 31  1  0  0  0  0
  5 32  1  0  0  0  0
  6  7  1  0  0  0  0
  6 33  1  0  0  0  0
  6 34  1  0  0  0  0
  7  8  1  0  0  0  0
  7 22  1  0  0  0  0
  7 53  1  0  0  0  0
  8  9  1  0  0  0  0
  8 10  1  0  0  0  0
  8 11  1  0  0  0  0
  9 35  1  0  0  0  0
  9 36  1  0  0  0  0
  9 37  1  0  0  0  0
 10 38  1  0  0  0  0
 10 39  1  0  0  0  0
 10 40  1  0  0  0  0
 11 12  1  0  0  0  0
 11 41  1  0  0  0  0
 11 42  1  0  0  0  0
 12 13  1  0  0  0  0
 12 43  1  0  0  0  0
 13 14  2  0  0  0  0
 13 15  1  0  0  0  0
 15 16  1  0  0  0  0
 15 44  1  0  0  0  0
 16 21  1  0  0  0  0
 16 17  2  0  0  0  0
 17 18  1  0  0  0  0
 17 45  1  0  0  0  0
 18 19  2  0  0  0  0
 18 46  1  0  0  0  0
 19 20  1  0  0  0  0
 19 47  1  0  0  0  0
 20 21  2  0  0  0  0
 21 48  1  0  0  0  0
 22 23  1  0  0  0  0
 22 49  1  0  0  0  0
 22 50  1  0  0  0  0
 23 51  1  0  0  0  0
 23 52  1  0  0  0  0
M  CHG  1   7   1
M  END
> <s_m_source_file>
AV-unprocessed.smi

> <i_m_source_file_index>
2668

> <i_lp_mmshare_version>
43012

> <i_f3d_flags>
0

> <s_epik_input>
W0NIM11OKFtDSDNdKVtDSF0xW0NIMl1bQ0gyXU4oW0NIMl1bQ0gyXTEpQyhbQ0gzXSkoW0NIM10pW0NIMl1bTkhdQyg9TylbTkhdYzJbY0hdW2NIXVtjSF1uW2NIXTI=

> <s_epik_cmdline>
J2VwaWtfcHl0aG9uJywgJy1waCcsICc3LjAnLCAnLXRuJywgJzgnLCAnLW1hJywgJzIwMCcsICctbWV0YWxfYmluZGluZycsICctaW1hZScsICc8aW5maWxlLm1hZT4nLCAnLW9tYWUnLCAnPG91dGZpbGUubWFlPic=

> <r_epik_Ionization_Penalty>
1.32573

> <r_epik_Ionization_Penalty_Charging>
0.00219175

> <r_epik_Ionization_Penalty_Neutral>
1.32353

> <r_epik_State_Penalty>
1.51166

> <r_epik_Charging_Adjusted_Penalty>
1.51385

> <i_epik_Tot_Q>
1

> <i_epik_Tot_abs_Q>
1

> <r_epik_Metal_State_Penalty>
1.51178

> <b_epik_Metal_Only>
0

> <s_lp_Force_Field>
OPLS_2005

> <r_lp_Energy>
37.5279

> <b_lp_Chiralities_Consistent>
1

> <s_lp_Variant>
AV-unprocessed.smi:2668-4

> <Gold.Version>
5.8.1

> <Gold.Id.Protein>
6NUR|6NUR_protein|mol2

> <Gold.PLP.Fitness>
50.3025

> <Gold.PLP.PLP>
-36.1440

> <Gold.PLP.part.hbond>
-3.0000

> <Gold.PLP.part.metal>
0.0000

> <Gold.PLP.part.buried>
-4.6506

> <Gold.PLP.part.nonpolar>
-28.4647

> <Gold.PLP.part.repulsive>
0.3842

> <Gold.PLP.ligand.clash>
0.0000

> <Gold.PLP.ligand.torsion>
0.2984

> <Gold.PLP.Chemscore.Hbond>
3.8640

> <Gold.PLP.Chemscore.CHOScore>
1.0107

> <Gold.PLP.Chemscore.Metal>
0.0000

> <Gold.Chemscore.Hbonds>
donor molecule, donor type, donor heavy atom, donor atom, acceptor molecule, acceptor atom, score
      L1  H     7    53       P1 10175  2.00
      L1  H    12    43       P1  8028  0.83
      L1  H    15    44       P1  8028  1.00
      L1  C    21    48       P1  8029  1.00

> <Gold.PLP.Chemscore.Internal.Correction>
0.1312

> <Gold.Rescore>
     Score         DG    S(hbond)    S(metal)    S(lipo)     H(rot)  DE(clash)    DE(int)     intcor
     20.62     -23.83       2.93        0.00     108.81       1.62       1.71       1.49       ----

> <Gold.Chemscore.Fitness>
20.6170

> <Gold.Chemscore.DG>
-23.8263

> <Gold.Chemscore.ZeroCoef>
-5.4800

> <Gold.Chemscore.Hbond>
2.9253

> <Gold.Chemscore.Metal>
0.0000

> <Gold.Chemscore.Lipo>
108.8062

> <Gold.Chemscore.Internal_Hbond>
0.0000

> <Gold.Chemscore.DEClash>
1.7146

> <Gold.Chemscore.DEInternal>
1.4948

> <Gold.Chemscore.Rot>
1.6228

> <Gold.Chemscore.Internal.Correction>
   9.000000E+99

> <Gold.Chemscore.Hbonds>
donor molecule, donor type, donor heavy atom, donor atom, acceptor molecule, acceptor atom, score
      L1  H     7    53       P1 10175  1.00
      L1  H    12    43       P1  8028  0.78
      L1  H    15    44       P1  8028  0.93

> <Gold.Chemscore.Hbond.Weighted>
-9.7705

> <Gold.Chemscore.Metal.Weighted>
-0.0000

> <Gold.Chemscore.Lipo.Weighted>
-12.7303

> <Gold.Chemscore.Internal_Hbond.Weighted>
0.0000

> <Gold.Chemscore.DEClash.Weighted>
1.7146

> <Gold.Chemscore.DEInternal.Weighted>
1.4948

> <Gold.Chemscore.Rot.Weighted>
4.1545

> <Gold.Chemscore.Internal.Correction.Weighted>
   9.000000E+99

> <Gold.Protein.RotatedTorsions>
[ 6907 6896 6895 6894 ] final  111.58 input  -60.11 | X-H torsion
[ 7974 7965 7964 7962 ] final -149.95 input  175.53 | X-H torsion
[ 8008 7997 7996 7995 ] final   48.56 input   59.86 | X-H torsion
[ 10167 10162 10161 10158 ] final   -6.10 input  -65.29 | X-H torsion
[ 10718 10713 10712 10709 ] final  -19.36 input   66.30 | X-H torsion
[ 10763 10752 10751 10750 ] final  100.06 input  -60.55 | X-H torsion
[ 11005 11000 10999 10996 ] final -128.94 input  -57.11 | X-H torsion

> <Gold.Protein.ActiveResidues>
 VAL166  LYS551  ARG553  GLY616  TRP617  ASP618  TYR619  PRO620  LYS621  CYS622 
 ASP623  PHE694  ASN695  SER759  ASP760  ASP761  ALA762  ILE779  LEU786  VAL792 
 PHE793  MET794  SER795  GLU796  ALA797  LYS798  CYS799  TRP800  GLU811  SER814 

> <Gold.Protein.RotatedAtoms>
  152.4962  133.8638  159.7263 H   0  0  0  0  0  0  0  0  0  0  0  0  # atno 6907 bound_to 6896
  150.9143  133.6950  159.2854 H   0  0  0  0  0  0  0  0  0  0  0  0  # atno 6908 bound_to 6896
  151.4349  135.1018  159.9705 H   0  0  0  0  0  0  0  0  0  0  0  0  # atno 6909 bound_to 6896
  144.7936  140.4996  143.5755 H   0  0  0  0  0  0  0  0  0  0  0  0  # atno 7974 bound_to 7965
  155.3876  140.3431  155.4249 H   0  0  0  0  0  0  0  0  0  0  0  0  # atno 8008 bound_to 7997
  156.1575  140.1590  156.8700 H   0  0  0  0  0  0  0  0  0  0  0  0  # atno 8009 bound_to 7997
  154.5109  140.0790  156.7969 H   0  0  0  0  0  0  0  0  0  0  0  0  # atno 8010 bound_to 7997
  140.6986  143.6232  150.8593 H   0  0  0  0  0  0  0  0  0  0  0  0  # atno 10167 bound_to 10162
  156.5468  130.4692  149.6471 H   0  0  0  0  0  0  0  0  0  0  0  0  # atno 10718 bound_to 10713
  153.3092  135.4092  155.1321 H   0  0  0  0  0  0  0  0  0  0  0  0  # atno 10763 bound_to 10752
  154.8571  135.3560  154.5746 H   0  0  0  0  0  0  0  0  0  0  0  0  # atno 10764 bound_to 10752
  153.6174  135.7065  153.5382 H   0  0  0  0  0  0  0  0  0  0  0  0  # atno 10765 bound_to 10752
  140.9474  134.1112  157.4095 H   0  0  0  0  0  0  0  0  0  0  0  0  # atno 11005 bound_to 11000
  145.5730  139.1484  143.3278 LP  0  0  0  0  0  0  0  0  0  0  0  0  # atno 17320 bound_to 7965
  146.2197  140.5862  142.9022 LP  0  0  0  0  0  0  0  0  0  0  0  0  # atno 17321 bound_to 7965
  139.9952  143.5803  152.2896 LP  0  0  0  0  0  0  0  0  0  0  0  0  # atno 17342 bound_to 10162
  139.6473  144.7659  151.2218 LP  0  0  0  0  0  0  0  0  0  0  0  0  # atno 17343 bound_to 10162
  156.2921  130.7130  151.1981 LP  0  0  0  0  0  0  0  0  0  0  0  0  # atno 17370 bound_to 10713
  157.7395  131.0528  150.5227 LP  0  0  0  0  0  0  0  0  0  0  0  0  # atno 17371 bound_to 10713
  139.8837  135.0055  156.6320 LP  0  0  0  0  0  0  0  0  0  0  0  0  # atno 17394 bound_to 11000
  140.7651  133.8785  155.8448 LP  0  0  0  0  0  0  0  0  0  0  0  0  # atno 17395 bound_to 11000

$$$$
