AV-unprocessed.smi:48|AV-procd|sdf|462|dock5
  -GOLD-   2262016333D 1   1.00000     0.00000
 Structure written by MMmdl.
 30 32  0  0  0  0  0  0  0  0  1 V2000
  151.3058  136.7554  154.4887 O   0  0  0  0  0  0  0  0  0  0  0  0
  151.2465  137.7528  155.4858 C   0  0  0  0  0  0  0  0  0  0  0  0
  150.8619  139.1022  154.8606 C   0  0  2  0  0  0  0  0  0  0  0  0
  150.9378  140.1272  155.8437 O   0  0  0  0  0  0  0  0  0  0  0  0
  150.1365  141.2006  155.4589 C   0  0  2  0  0  0  0  0  0  0  0  0
  149.4577  141.7260  156.6816 N   0  0  0  0  0  0  0  0  0  0  0  0
  150.0346  142.1051  157.8403 C   0  0  0  0  0  0  0  0  0  0  0  0
  149.2331  142.5405  158.8116 N   0  0  0  0  0  0  0  0  0  0  0  0
  147.9881  142.4218  158.2163 C   0  0  0  0  0  0  0  0  0  0  0  0
  146.6766  142.7028  158.6703 C   0  0  0  0  0  0  0  0  0  0  0  0
  146.3999  143.3260  160.2553 Cl  0  0  0  0  0  0  0  0  0  0  0  0
  145.6397  142.4713  157.8302 N   0  0  0  0  0  0  0  0  0  0  0  0
  145.8831  141.9876  156.6061 C   0  0  0  0  0  0  0  0  0  0  0  0
  147.0566  141.6793  156.0425 N   0  0  0  0  0  0  0  0  0  0  0  0
  148.1010  141.9134  156.8909 C   0  0  0  0  0  0  0  0  0  0  0  0
  149.1131  140.6822  154.4337 C   0  0  1  0  0  0  0  0  0  0  0  0
  149.3277  141.2753  153.1658 O   0  0  0  0  0  0  0  0  0  0  0  0
  149.3971  139.1802  154.4270 C   0  0  1  0  0  0  0  0  0  0  0  0
  149.1592  138.5637  153.1749 O   0  0  0  0  0  0  0  0  0  0  0  0
  151.5115  139.3542  154.0198 H   0  0  0  0  0  0  0  0  0  0  0  0
  150.7464  142.0286  155.0937 H   0  0  0  0  0  0  0  0  0  0  0  0
  148.0908  140.8942  154.7503 H   0  0  0  0  0  0  0  0  0  0  0  0
  148.7692  138.6940  155.1737 H   0  0  0  0  0  0  0  0  0  0  0  0
  150.4714  136.7226  154.0465 H   0  0  0  0  0  0  0  0  0  0  0  0
  150.4911  137.4459  156.2097 H   0  0  0  0  0  0  0  0  0  0  0  0
  152.1967  137.8178  156.0172 H   0  0  0  0  0  0  0  0  0  0  0  0
  151.1050  142.0617  157.9792 H   0  0  0  0  0  0  0  0  0  0  0  0
  145.0129  141.8256  155.9873 H   0  0  0  0  0  0  0  0  0  0  0  0
  149.2828  140.6010  152.5056 H   0  0  0  0  0  0  0  0  0  0  0  0
  149.6157  139.0539  152.5085 H   0  0  0  0  0  0  0  0  0  0  0  0
  1  2  1  0  0  0  0
  1 24  1  0  0  0  0
  2  3  1  0  0  0  0
  2 25  1  0  0  0  0
  2 26  1  0  0  0  0
  3 20  1  0  0  0  0
  3 18  1  0  0  0  0
  3  4  1  0  0  0  0
  4  5  1  0  0  0  0
  5 21  1  0  0  0  0
  5  6  1  0  0  0  0
  5 16  1  0  0  0  0
  6 15  1  0  0  0  0
  6  7  1  0  0  0  0
  7  8  2  0  0  0  0
  7 27  1  0  0  0  0
  8  9  1  0  0  0  0
  9 15  2  0  0  0  0
  9 10  1  0  0  0  0
 10 11  1  0  0  0  0
 10 12  2  0  0  0  0
 12 13  1  0  0  0  0
 13 14  2  0  0  0  0
 13 28  1  0  0  0  0
 14 15  1  0  0  0  0
 16 22  1  0  0  0  0
 16 17  1  0  0  0  0
 16 18  1  0  0  0  0
 17 29  1  0  0  0  0
 18 23  1  0  0  0  0
 18 19  1  0  0  0  0
 19 30  1  0  0  0  0
M  END
> <s_m_source_file>
AV-unprocessed.smi

> <i_m_source_file_index>
48

> <i_lp_mmshare_version>
43012

> <i_f3d_flags>
0

> <s_epik_input>
W09IXVtDSDJdW0NASF0xT1tDQEhdKFtDQEhdKFtPSF0pW0NAQEhdMVtPSF0pbihbY0hdbjIpYyhjMjMpbltjSF1uYzNDbA==

> <s_epik_cmdline>
J2VwaWtfcHl0aG9uJywgJy1waCcsICc3LjAnLCAnLXRuJywgJzgnLCAnLW1hJywgJzIwMCcsICctbWV0YWxfYmluZGluZycsICctaW1hZScsICc8aW5maWxlLm1hZT4nLCAnLW9tYWUnLCAnPG91dGZpbGUubWFlPic=

> <r_lp_tautomer_probability>
1

> <r_epik_Ionization_Penalty>
3.45505e-06

> <r_epik_Ionization_Penalty_Charging>
0

> <r_epik_Ionization_Penalty_Neutral>
3.45505e-06

> <r_epik_State_Penalty>
-0

> <r_epik_Charging_Adjusted_Penalty>
0

> <i_epik_Tot_Q>
0

> <i_epik_Tot_abs_Q>
0

> <r_epik_Metal_State_Penalty>
-0

> <b_epik_Metal_Only>
0

> <s_epik_Chemistry_Notes>
This compound contains an acetal/aminal-like group ( X-CH(R)-Y where X, Y are N, S, or O) that may be acid/base labile, releasing an aldehyde.

> <s_lp_Force_Field>
OPLS_2005

> <r_lp_Energy>
36.5243

> <b_lp_Chiralities_Consistent>
1

> <s_lp_Variant>
AV-unprocessed.smi:48-16

> <Gold.Version>
5.8.1

> <Gold.Id.Protein>
6NUR|6NUR_protein|mol2

> <Gold.PLP.Fitness>
41.0541

> <Gold.PLP.PLP>
-29.4578

> <Gold.PLP.part.hbond>
-7.2277

> <Gold.PLP.part.metal>
0.0000

> <Gold.PLP.part.buried>
-4.8631

> <Gold.PLP.part.nonpolar>
-18.6194

> <Gold.PLP.part.repulsive>
0.2770

> <Gold.PLP.ligand.clash>
0.0000

> <Gold.PLP.ligand.torsion>
0.1502

> <Gold.PLP.Chemscore.Hbond>
3.9603

> <Gold.PLP.Chemscore.CHOScore>
0.0000

> <Gold.PLP.Chemscore.Metal>
0.0000

> <Gold.Chemscore.Hbonds>
donor molecule, donor type, donor heavy atom, donor atom, acceptor molecule, acceptor atom, score
      L1  H    17    29       P1  7957  0.89
      L1  H    19    30       P1  7957  1.00
      P1  H  8011  8017       L1    17  0.85
      P1  H 10752 10763       L1     1  1.00

> <Gold.PLP.Chemscore.Internal.Correction>
0.0159

> <Gold.Rescore>
     Score         DG    S(hbond)    S(metal)    S(lipo)     H(rot)  DE(clash)    DE(int)     intcor
      8.84     -10.43       3.19        0.00      34.43       3.80       0.12       1.46       ----

> <Gold.Chemscore.Fitness>
8.8414

> <Gold.Chemscore.DG>
-10.4275

> <Gold.Chemscore.ZeroCoef>
-5.4800

> <Gold.Chemscore.Hbond>
3.1891

> <Gold.Chemscore.Metal>
0.0000

> <Gold.Chemscore.Lipo>
34.4298

> <Gold.Chemscore.Internal_Hbond>
0.0000

> <Gold.Chemscore.DEClash>
0.1229

> <Gold.Chemscore.DEInternal>
1.4632

> <Gold.Chemscore.Rot>
3.8017

> <Gold.Chemscore.Internal.Correction>
   9.000000E+99

> <Gold.Chemscore.Hbonds>
donor molecule, donor type, donor heavy atom, donor atom, acceptor molecule, acceptor atom, score
      L1  H    17    29       P1  7957  0.84
      L1  H    19    30       P1  7957  0.84
      P1  H  8011  8017       L1    17  0.18
      P1  H 10752 10763       L1     1  0.95

> <Gold.Chemscore.Hbond.Weighted>
-10.6516

> <Gold.Chemscore.Metal.Weighted>
-0.0000

> <Gold.Chemscore.Lipo.Weighted>
-4.0283

> <Gold.Chemscore.Internal_Hbond.Weighted>
0.0000

> <Gold.Chemscore.DEClash.Weighted>
0.1229

> <Gold.Chemscore.DEInternal.Weighted>
1.4632

> <Gold.Chemscore.Rot.Weighted>
9.7324

> <Gold.Chemscore.Internal.Correction.Weighted>
   9.000000E+99

> <Gold.Protein.RotatedTorsions>
[ 6907 6896 6895 6894 ] final   69.76 input  -60.11 | X-H torsion
[ 7974 7965 7964 7962 ] final    6.13 input  175.53 | X-H torsion
[ 8008 7997 7996 7995 ] final   54.47 input   59.86 | X-H torsion
[ 10167 10162 10161 10158 ] final  -69.86 input  -65.29 | X-H torsion
[ 10718 10713 10712 10709 ] final   79.52 input   66.30 | X-H torsion
[ 10763 10752 10751 10750 ] final   44.51 input  -60.55 | X-H torsion
[ 11005 11000 10999 10996 ] final  -43.96 input  -57.11 | X-H torsion

> <Gold.Protein.ActiveResidues>
 VAL166  LYS551  ARG553  GLY616  TRP617  ASP618  TYR619  PRO620  LYS621  CYS622 
 ASP623  PHE694  ASN695  SER759  ASP760  ASP761  ALA762  ILE779  LEU786  VAL792 
 PHE793  MET794  SER795  GLU796  ALA797  LYS798  CYS799  TRP800  GLU811  SER814 

> <Gold.Protein.RotatedAtoms>
  152.4707  134.4968  159.9712 H   0  0  0  0  0  0  0  0  0  0  0  0  # atno 6907 bound_to 6896
  151.4995  133.3501  159.2874 H   0  0  0  0  0  0  0  0  0  0  0  0  # atno 6908 bound_to 6896
  150.8715  134.8117  159.7220 H   0  0  0  0  0  0  0  0  0  0  0  0  # atno 6909 bound_to 6896
  146.2436  140.0279  142.8392 H   0  0  0  0  0  0  0  0  0  0  0  0  # atno 7974 bound_to 7965
  155.4853  140.3470  155.4346 H   0  0  0  0  0  0  0  0  0  0  0  0  # atno 8008 bound_to 7997
  156.1012  140.1436  156.9493 H   0  0  0  0  0  0  0  0  0  0  0  0  # atno 8009 bound_to 7997
  154.4695  140.0906  156.7086 H   0  0  0  0  0  0  0  0  0  0  0  0  # atno 8010 bound_to 7997
  140.5398  143.2315  151.7111 H   0  0  0  0  0  0  0  0  0  0  0  0  # atno 10167 bound_to 10162
  157.6779  130.9918  150.1944 H   0  0  0  0  0  0  0  0  0  0  0  0  # atno 10718 bound_to 10713
  152.9840  135.6068  154.3285 H   0  0  0  0  0  0  0  0  0  0  0  0  # atno 10763 bound_to 10752
  154.2990  135.2773  155.2621 H   0  0  0  0  0  0  0  0  0  0  0  0  # atno 10764 bound_to 10752
  154.4882  135.5899  153.6496 H   0  0  0  0  0  0  0  0  0  0  0  0  # atno 10765 bound_to 10752
  141.0418  133.6777  156.2805 H   0  0  0  0  0  0  0  0  0  0  0  0  # atno 11005 bound_to 11000
  145.1181  140.9446  143.4616 LP  0  0  0  0  0  0  0  0  0  0  0  0  # atno 17320 bound_to 7965
  145.0508  139.3183  143.5929 LP  0  0  0  0  0  0  0  0  0  0  0  0  # atno 17321 bound_to 7965
  139.4984  144.3987  152.0204 LP  0  0  0  0  0  0  0  0  0  0  0  0  # atno 17342 bound_to 10162
  140.3095  144.3555  150.6038 LP  0  0  0  0  0  0  0  0  0  0  0  0  # atno 17343 bound_to 10162
  156.2648  130.3715  149.8092 LP  0  0  0  0  0  0  0  0  0  0  0  0  # atno 17370 bound_to 10713
  156.5827  130.8472  151.3387 LP  0  0  0  0  0  0  0  0  0  0  0  0  # atno 17371 bound_to 10713
  140.6219  134.5352  157.5548 LP  0  0  0  0  0  0  0  0  0  0  0  0  # atno 17394 bound_to 11000
  139.9282  134.8015  156.1008 LP  0  0  0  0  0  0  0  0  0  0  0  0  # atno 17395 bound_to 11000

$$$$
