AV-unprocessed.smi:1762|AV-procd|sdf|7120|dock3
  -GOLD-   22720 8353D 1   1.00000     0.00000
 Structure written by MMmdl.
 52 53  0  0  0  0  0  0  0  0  3 V2000
  153.3916  138.9442  154.6001 C   0  0  0  0  0  0  0  0  0  0  0  0
  152.0431  138.3442  155.0119 C   0  0  1  0  0  0  0  0  0  0  0  0
  151.0910  138.1821  153.8100 C   0  0  0  0  0  0  0  0  0  0  0  0
  149.8055  137.5563  154.2239 N   0  3  2  0  0  0  0  0  0  0  0  0
  148.8395  138.4314  154.9809 C   0  0  2  0  0  0  0  0  0  0  0  0
  147.4852  137.7254  155.2441 C   0  0  0  0  0  0  0  0  0  0  0  0
  146.9408  137.1512  154.2953 O   0  0  0  0  0  0  0  0  0  0  0  0
  147.0710  137.8671  156.5362 N   0  5  0  0  0  0  0  0  0  0  0  0
  147.1116  136.7960  157.5303 C   0  0  0  0  0  0  0  0  0  0  0  0
  147.4481  137.3701  158.9261 C   0  0  0  0  0  0  0  0  0  0  0  0
  147.4537  136.3336  160.0450 C   0  0  0  0  0  0  0  0  0  0  0  0
  147.3696  134.9543  159.7475 C   0  0  0  0  0  0  0  0  0  0  0  0
  147.3916  134.0315  160.8108 C   0  0  0  0  0  0  0  0  0  0  0  0
  147.5006  134.5164  162.1278 C   0  0  0  0  0  0  0  0  0  0  0  0
  147.5843  135.9091  162.3239 C   0  0  0  0  0  0  0  0  0  0  0  0
  147.5660  136.8026  161.3118 N   0  0  0  0  0  0  0  0  0  0  0  0
  148.6447  139.8686  154.3858 C   0  0  0  0  0  0  0  0  0  0  0  0
  148.5227  140.9578  155.4695 C   0  0  0  0  0  0  0  0  0  0  0  0
  147.4868  139.9985  153.3743 C   0  0  0  0  0  0  0  0  0  0  0  0
  150.1128  136.2518  154.8783 C   0  0  0  0  0  0  0  0  0  0  0  0
  151.1048  136.4227  156.0493 C   0  0  1  0  0  0  0  0  0  0  0  0
  151.5057  135.0762  156.6614 C   0  0  0  0  0  0  0  0  0  0  0  0
  152.2874  137.0601  155.5764 O   0  0  0  0  0  0  0  0  0  0  0  0
  153.2634  139.9345  154.1625 H   0  0  0  0  0  0  0  0  0  0  0  0
  153.8957  138.3160  153.8651 H   0  0  0  0  0  0  0  0  0  0  0  0
  154.0527  139.0454  155.4612 H   0  0  0  0  0  0  0  0  0  0  0  0
  151.5944  138.9931  155.7657 H   0  0  0  0  0  0  0  0  0  0  0  0
  150.9499  139.1245  153.2856 H   0  0  0  0  0  0  0  0  0  0  0  0
  151.5583  137.5256  153.0743 H   0  0  0  0  0  0  0  0  0  0  0  0
  149.2804  138.5895  155.9649 H   0  0  0  0  0  0  0  0  0  0  0  0
  146.1704  136.2467  157.5796 H   0  0  0  0  0  0  0  0  0  0  0  0
  147.8662  136.0550  157.2653 H   0  0  0  0  0  0  0  0  0  0  0  0
  148.4258  137.8538  158.8987 H   0  0  0  0  0  0  0  0  0  0  0  0
  146.7345  138.1534  159.1872 H   0  0  0  0  0  0  0  0  0  0  0  0
  147.2864  134.6113  158.7267 H   0  0  0  0  0  0  0  0  0  0  0  0
  147.3264  132.9706  160.6195 H   0  0  0  0  0  0  0  0  0  0  0  0
  147.5199  133.8376  162.9674 H   0  0  0  0  0  0  0  0  0  0  0  0
  147.6697  136.3166  163.3201 H   0  0  0  0  0  0  0  0  0  0  0  0
  149.5619  140.1277  153.8583 H   0  0  0  0  0  0  0  0  0  0  0  0
  147.5879  140.8783  156.0254 H   0  0  0  0  0  0  0  0  0  0  0  0
  148.5508  141.9536  155.0262 H   0  0  0  0  0  0  0  0  0  0  0  0
  149.3433  140.8961  156.1849 H   0  0  0  0  0  0  0  0  0  0  0  0
  146.5153  139.9156  153.8612 H   0  0  0  0  0  0  0  0  0  0  0  0
  147.5314  139.2360  152.5975 H   0  0  0  0  0  0  0  0  0  0  0  0
  147.5142  140.9691  152.8786 H   0  0  0  0  0  0  0  0  0  0  0  0
  149.2121  135.7387  155.2139 H   0  0  0  0  0  0  0  0  0  0  0  0
  150.5542  135.5960  154.1266 H   0  0  0  0  0  0  0  0  0  0  0  0
  150.6616  137.0317  156.8377 H   0  0  0  0  0  0  0  0  0  0  0  0
  150.6348  134.5476  157.0495 H   0  0  0  0  0  0  0  0  0  0  0  0
  152.2039  135.2160  157.4870 H   0  0  0  0  0  0  0  0  0  0  0  0
  151.9866  134.4337  155.9234 H   0  0  0  0  0  0  0  0  0  0  0  0
  149.3101  137.3320  153.3719 H   0  0  0  0  0  0  0  0  0  0  0  0
  1  2  1  0  0  0  0
  1 24  1  0  0  0  0
  1 25  1  0  0  0  0
  1 26  1  0  0  0  0
  2 23  1  0  0  0  0
  2  3  1  0  0  0  0
  2 27  1  0  0  0  0
  3  4  1  0  0  0  0
  3 28  1  0  0  0  0
  3 29  1  0  0  0  0
  4  5  1  0  0  0  0
  4 20  1  0  0  0  0
  4 52  1  0  0  0  0
  5  6  1  0  0  0  0
  5 17  1  0  0  0  0
  5 30  1  0  0  0  0
  6  7  2  0  0  0  0
  6  8  1  0  0  0  0
  8  9  1  0  0  0  0
  9 10  1  0  0  0  0
  9 31  1  0  0  0  0
  9 32  1  0  0  0  0
 10 11  1  0  0  0  0
 10 33  1  0  0  0  0
 10 34  1  0  0  0  0
 11 16  1  0  0  0  0
 11 12  2  0  0  0  0
 12 13  1  0  0  0  0
 12 35  1  0  0  0  0
 13 14  2  0  0  0  0
 13 36  1  0  0  0  0
 14 15  1  0  0  0  0
 14 37  1  0  0  0  0
 15 16  2  0  0  0  0
 15 38  1  0  0  0  0
 17 18  1  0  0  0  0
 17 19  1  0  0  0  0
 17 39  1  0  0  0  0
 18 40  1  0  0  0  0
 18 41  1  0  0  0  0
 18 42  1  0  0  0  0
 19 43  1  0  0  0  0
 19 44  1  0  0  0  0
 19 45  1  0  0  0  0
 20 21  1  0  0  0  0
 20 46  1  0  0  0  0
 20 47  1  0  0  0  0
 21 22  1  0  0  0  0
 21 23  1  0  0  0  0
 21 48  1  0  0  0  0
 22 49  1  0  0  0  0
 22 50  1  0  0  0  0
 22 51  1  0  0  0  0
M  CHG  1   4   1
M  CHG  1   8  -1
M  END
> <s_m_source_file>
AV-unprocessed.smi

> <i_m_source_file_index>
1762

> <i_lp_mmshare_version>
43012

> <i_f3d_flags>
0

> <s_epik_input>
W0NIM11bQ0BASF0xW0NIMl1OKFtDSDJdW0NASF0oTzEpW0NIM10pW0NAQEhdKFtDSF0oW0NIM10pW0NIM10pQyg9TylbTkhdW0NIMl1bQ0gyXWMyW2NIXVtjSF1bY0hdW2NIXW4y

> <s_epik_cmdline>
J2VwaWtfcHl0aG9uJywgJy1waCcsICc3LjAnLCAnLXRuJywgJzgnLCAnLW1hJywgJzIwMCcsICctbWV0YWxfYmluZGluZycsICctaW1hZScsICc8aW5maWxlLm1hZT4nLCAnLW9tYWUnLCAnPG91dGZpbGUubWFlPic=

> <r_epik_Ionization_Penalty>
7.82966

> <r_epik_Ionization_Penalty_Charging>
7.7461

> <r_epik_Ionization_Penalty_Neutral>
0.0835571

> <r_epik_State_Penalty>
8.52273

> <r_epik_Charging_Adjusted_Penalty>
16.2688

> <i_epik_Tot_Q>
0

> <i_epik_Tot_abs_Q>
2

> <r_epik_Metal_State_Penalty>
4.47451

> <b_epik_Metal_Only>
1

> <s_lp_Force_Field>
OPLS_2005

> <r_lp_Energy>
23.0584

> <b_lp_Chiralities_Consistent>
1

> <s_lp_Variant>
AV-unprocessed.smi:1762-22

> <Gold.Version>
5.8.1

> <Gold.Id.Protein>
6NUR|6NUR_protein|mol2

> <Gold.PLP.Fitness>
41.1316

> <Gold.PLP.PLP>
-32.5880

> <Gold.PLP.part.hbond>
-4.0000

> <Gold.PLP.part.metal>
0.0000

> <Gold.PLP.part.buried>
-0.8198

> <Gold.PLP.part.nonpolar>
-28.2800

> <Gold.PLP.part.repulsive>
0.1284

> <Gold.PLP.ligand.clash>
0.0000

> <Gold.PLP.ligand.torsion>
2.2660

> <Gold.PLP.Chemscore.Hbond>
4.2080

> <Gold.PLP.Chemscore.CHOScore>
0.0000

> <Gold.PLP.Chemscore.Metal>
0.0000

> <Gold.Chemscore.Hbonds>
donor molecule, donor type, donor heavy atom, donor atom, acceptor molecule, acceptor atom, score
      L1  H     4    52       P1  7948  2.00
      P1  H  6931  6943       L1    16  0.71
      P1  H  6934  6947       L1    16  0.35
      P1  H 10752 10764       L1    23  0.46

> <Gold.PLP.Chemscore.Internal.Correction>
0.4515

> <Gold.Rescore>
     Score         DG    S(hbond)    S(metal)    S(lipo)     H(rot)  DE(clash)    DE(int)     intcor
     16.57     -20.22       2.19        0.00      98.43       1.60       0.60       3.04       ----

> <Gold.Chemscore.Fitness>
16.5744

> <Gold.Chemscore.DG>
-20.2150

> <Gold.Chemscore.ZeroCoef>
-5.4800

> <Gold.Chemscore.Hbond>
2.1908

> <Gold.Chemscore.Metal>
0.0000

> <Gold.Chemscore.Lipo>
98.4340

> <Gold.Chemscore.Internal_Hbond>
0.0000

> <Gold.Chemscore.DEClash>
0.5971

> <Gold.Chemscore.DEInternal>
3.0435

> <Gold.Chemscore.Rot>
1.6012

> <Gold.Chemscore.Internal.Correction>
   9.000000E+99

> <Gold.Chemscore.Hbonds>
donor molecule, donor type, donor heavy atom, donor atom, acceptor molecule, acceptor atom, score
      L1  H     4    52       P1  7948  0.94
      P1  H  6931  6943       L1    16  0.27
      P1  H  6934  6947       L1    16  0.09
      P1  H 10752 10764       L1    23  0.12

> <Gold.Chemscore.Hbond.Weighted>
-7.3172

> <Gold.Chemscore.Metal.Weighted>
-0.0000

> <Gold.Chemscore.Lipo.Weighted>
-11.5168

> <Gold.Chemscore.Internal_Hbond.Weighted>
0.0000

> <Gold.Chemscore.DEClash.Weighted>
0.5971

> <Gold.Chemscore.DEInternal.Weighted>
3.0435

> <Gold.Chemscore.Rot.Weighted>
4.0990

> <Gold.Chemscore.Internal.Correction.Weighted>
   9.000000E+99

> <Gold.Protein.RotatedTorsions>
[ 6907 6896 6895 6894 ] final  142.07 input  -60.11 | X-H torsion
[ 7974 7965 7964 7962 ] final -162.69 input  175.53 | X-H torsion
[ 8008 7997 7996 7995 ] final  178.57 input   59.86 | X-H torsion
[ 10167 10162 10161 10158 ] final -114.52 input  -65.29 | X-H torsion
[ 10718 10713 10712 10709 ] final   41.31 input   66.30 | X-H torsion
[ 10763 10752 10751 10750 ] final  -80.45 input  -60.55 | X-H torsion
[ 11005 11000 10999 10996 ] final   86.09 input  -57.11 | X-H torsion

> <Gold.Protein.ActiveResidues>
 VAL166  LYS551  ARG553  GLY616  TRP617  ASP618  TYR619  PRO620  LYS621  CYS622 
 ASP623  PHE694  ASN695  SER759  ASP760  ASP761  ALA762  ILE779  LEU786  VAL792 
 PHE793  MET794  SER795  GLU796  ALA797  LYS798  CYS799  TRP800  GLU811  SER814 

> <Gold.Protein.RotatedAtoms>
  152.2233  133.5000  159.5174 H   0  0  0  0  0  0  0  0  0  0  0  0  # atno 6907 bound_to 6896
  150.7018  134.1314  159.4080 H   0  0  0  0  0  0  0  0  0  0  0  0  # atno 6908 bound_to 6896
  151.9234  135.0288  160.0574 H   0  0  0  0  0  0  0  0  0  0  0  0  # atno 6909 bound_to 6896
  144.7349  140.3216  143.6170 H   0  0  0  0  0  0  0  0  0  0  0  0  # atno 7974 bound_to 7965
  156.0531  140.1330  157.0027 H   0  0  0  0  0  0  0  0  0  0  0  0  # atno 8008 bound_to 7997
  154.4444  140.1007  156.6476 H   0  0  0  0  0  0  0  0  0  0  0  0  # atno 8009 bound_to 7997
  155.5493  140.3462  155.4467 H   0  0  0  0  0  0  0  0  0  0  0  0  # atno 8010 bound_to 7997
  140.1001  143.4621  152.1817 H   0  0  0  0  0  0  0  0  0  0  0  0  # atno 10167 bound_to 10162
  157.3921  130.7812  149.7278 H   0  0  0  0  0  0  0  0  0  0  0  0  # atno 10718 bound_to 10713
  154.5513  135.5661  153.6924 H   0  0  0  0  0  0  0  0  0  0  0  0  # atno 10763 bound_to 10752
  152.9990  135.6251  154.2370 H   0  0  0  0  0  0  0  0  0  0  0  0  # atno 10764 bound_to 10752
  154.2305  135.2866  155.2871 H   0  0  0  0  0  0  0  0  0  0  0  0  # atno 10765 bound_to 10752
  139.8954  134.8331  156.2672 H   0  0  0  0  0  0  0  0  0  0  0  0  # atno 11005 bound_to 11000
  145.7563  139.1810  143.2293 LP  0  0  0  0  0  0  0  0  0  0  0  0  # atno 17320 bound_to 7965
  146.1022  140.7530  142.9544 LP  0  0  0  0  0  0  0  0  0  0  0  0  # atno 17321 bound_to 7965
  139.5676  144.7444  151.3979 LP  0  0  0  0  0  0  0  0  0  0  0  0  # atno 17342 bound_to 10162
  140.6982  143.7696  150.7361 LP  0  0  0  0  0  0  0  0  0  0  0  0  # atno 17343 bound_to 10162
  155.9801  130.4033  150.3549 LP  0  0  0  0  0  0  0  0  0  0  0  0  # atno 17370 bound_to 10713
  157.1666  131.0358  151.2815 LP  0  0  0  0  0  0  0  0  0  0  0  0  # atno 17371 bound_to 10713
  141.0124  133.7088  156.1134 LP  0  0  0  0  0  0  0  0  0  0  0  0  # atno 17394 bound_to 11000
  140.7348  134.4215  157.5562 LP  0  0  0  0  0  0  0  0  0  0  0  0  # atno 17395 bound_to 11000

$$$$
