AV-unprocessed.smi:2381|AV-procd|sdf|9457|dock2
  -GOLD-   2272013 83D 1   1.00000     0.00000
 Structure written by MMmdl.
 30 31  0  0  0  0  0  0  0  0  1 V2000
  153.6817  141.5428  160.7211 C   0  0  0  0  0  0  0  0  0  0  0  0
  152.7116  142.6123  160.2643 C   0  0  0  0  0  0  0  0  0  0  0  0
  152.4975  143.7717  161.0339 C   0  0  0  0  0  0  0  0  0  0  0  0
  151.5832  144.7275  160.5541 C   0  0  0  0  0  0  0  0  0  0  0  0
  150.9047  144.5853  159.3964 N   0  0  0  0  0  0  0  0  0  0  0  0
  151.1016  143.4723  158.6463 C   0  0  0  0  0  0  0  0  0  0  0  0
  150.4364  143.2222  157.4163 N   0  0  0  0  0  0  0  0  0  0  0  0
  150.2490  142.0429  156.7975 C   0  0  0  0  0  0  0  0  0  0  0  0
  150.6205  140.9482  157.2220 O   0  0  0  0  0  0  0  0  0  0  0  0
  149.5952  142.2014  155.6374 N   0  0  0  0  0  0  0  0  0  0  0  0
  149.2466  141.1219  154.7224 C   0  0  0  0  0  0  0  0  0  0  0  0
  147.7578  140.8971  154.5346 C   0  0  0  0  0  0  0  0  0  0  0  0
  147.1543  140.7808  153.1544 C   0  0  0  0  0  0  0  0  0  0  0  0
  146.8779  142.0018  153.9988 C   0  0  0  0  0  0  0  0  0  0  0  0
  152.0028  142.4631  159.0551 C   0  0  0  0  0  0  0  0  0  0  0  0
  154.1659  141.8205  161.6577 H   0  0  0  0  0  0  0  0  0  0  0  0
  154.4561  141.3889  159.9693 H   0  0  0  0  0  0  0  0  0  0  0  0
  153.1581  140.5989  160.8742 H   0  0  0  0  0  0  0  0  0  0  0  0
  153.0174  143.9297  161.9674 H   0  0  0  0  0  0  0  0  0  0  0  0
  151.3912  145.6301  161.1150 H   0  0  0  0  0  0  0  0  0  0  0  0
  150.0679  144.0371  156.9490 H   0  0  0  0  0  0  0  0  0  0  0  0
  149.3254  143.1347  155.3639 H   0  0  0  0  0  0  0  0  0  0  0  0
  149.6960  141.3133  153.7466 H   0  0  0  0  0  0  0  0  0  0  0  0
  149.7040  140.2039  155.0926 H   0  0  0  0  0  0  0  0  0  0  0  0
  147.3057  140.2813  155.3099 H   0  0  0  0  0  0  0  0  0  0  0  0
  147.8155  140.9015  152.2985 H   0  0  0  0  0  0  0  0  0  0  0  0
  146.3437  140.0676  153.0199 H   0  0  0  0  0  0  0  0  0  0  0  0
  145.8827  142.1027  154.4272 H   0  0  0  0  0  0  0  0  0  0  0  0
  147.3553  142.9341  153.7034 H   0  0  0  0  0  0  0  0  0  0  0  0
  152.1512  141.5808  158.4490 H   0  0  0  0  0  0  0  0  0  0  0  0
  1  2  1  0  0  0  0
  1 16  1  0  0  0  0
  1 17  1  0  0  0  0
  1 18  1  0  0  0  0
  2 15  1  0  0  0  0
  2  3  2  0  0  0  0
  3  4  1  0  0  0  0
  3 19  1  0  0  0  0
  4  5  2  0  0  0  0
  4 20  1  0  0  0  0
  5  6  1  0  0  0  0
  6  7  1  0  0  0  0
  6 15  2  0  0  0  0
  7  8  1  0  0  0  0
  7 21  1  0  0  0  0
  8  9  2  0  0  0  0
  8 10  1  0  0  0  0
 10 11  1  0  0  0  0
 10 22  1  0  0  0  0
 11 12  1  0  0  0  0
 11 23  1  0  0  0  0
 11 24  1  0  0  0  0
 12 14  1  0  0  0  0
 12 13  1  0  0  0  0
 12 25  1  0  0  0  0
 13 14  1  0  0  0  0
 13 26  1  0  0  0  0
 13 27  1  0  0  0  0
 14 28  1  0  0  0  0
 14 29  1  0  0  0  0
 15 30  1  0  0  0  0
M  END
> <s_m_source_file>
AV-unprocessed.smi

> <i_m_source_file_index>
2381

> <i_lp_mmshare_version>
43012

> <i_f3d_flags>
0

> <s_epik_input>
W0NIM11jMVtjSF1bY0hdbmMoW2NIXTEpW05IXUMoPU8pW05IXVtDSDJdW0NIXTJbQ0gyXVtDSDJdMg==

> <s_epik_cmdline>
J2VwaWtfcHl0aG9uJywgJy1waCcsICc3LjAnLCAnLXRuJywgJzgnLCAnLW1hJywgJzIwMCcsICctbWV0YWxfYmluZGluZycsICctaW1hZScsICc8aW5maWxlLm1hZT4nLCAnLW9tYWUnLCAnPG91dGZpbGUubWFlPic=

> <r_lp_tautomer_probability>
1

> <r_epik_Ionization_Penalty>
9.40607e-05

> <r_epik_Ionization_Penalty_Charging>
0

> <r_epik_Ionization_Penalty_Neutral>
9.40607e-05

> <r_epik_State_Penalty>
-0

> <r_epik_Charging_Adjusted_Penalty>
0

> <i_epik_Tot_Q>
0

> <i_epik_Tot_abs_Q>
0

> <r_epik_Metal_State_Penalty>
-0

> <b_epik_Metal_Only>
0

> <s_lp_Force_Field>
OPLS_2005

> <r_lp_Energy>
14.347

> <b_lp_Chiralities_Consistent>
1

> <s_lp_Variant>
AV-unprocessed.smi:2381-1

> <Gold.Version>
5.8.1

> <Gold.Id.Protein>
6NUR|6NUR_protein|mol2

> <Gold.PLP.Fitness>
41.7425

> <Gold.PLP.PLP>
-36.1773

> <Gold.PLP.part.hbond>
-2.0000

> <Gold.PLP.part.metal>
0.0000

> <Gold.PLP.part.buried>
-5.6175

> <Gold.PLP.part.nonpolar>
-29.5730

> <Gold.PLP.part.repulsive>
0.3245

> <Gold.PLP.ligand.clash>
0.0000

> <Gold.PLP.ligand.torsion>
0.4493

> <Gold.PLP.Chemscore.Hbond>
1.9760

> <Gold.PLP.Chemscore.CHOScore>
0.0000

> <Gold.PLP.Chemscore.Metal>
0.0000

> <Gold.Chemscore.Hbonds>
donor molecule, donor type, donor heavy atom, donor atom, acceptor molecule, acceptor atom, score
      L1  H     7    21       P1  8028  0.98
      L1  H    10    22       P1  8028  1.00

> <Gold.PLP.Chemscore.Internal.Correction>
0.5357

> <Gold.Rescore>
     Score         DG    S(hbond)    S(metal)    S(lipo)     H(rot)  DE(clash)    DE(int)     intcor
     16.87     -18.84       1.92        0.00      85.64       1.20       0.09       1.87       ----

> <Gold.Chemscore.Fitness>
16.8710

> <Gold.Chemscore.DG>
-18.8362

> <Gold.Chemscore.ZeroCoef>
-5.4800

> <Gold.Chemscore.Hbond>
1.9159

> <Gold.Chemscore.Metal>
0.0000

> <Gold.Chemscore.Lipo>
85.6350

> <Gold.Chemscore.Internal_Hbond>
0.0000

> <Gold.Chemscore.DEClash>
0.0907

> <Gold.Chemscore.DEInternal>
1.8746

> <Gold.Chemscore.Rot>
1.1962

> <Gold.Chemscore.Internal.Correction>
   9.000000E+99

> <Gold.Chemscore.Hbonds>
donor molecule, donor type, donor heavy atom, donor atom, acceptor molecule, acceptor atom, score
      L1  H     7    21       P1  8028  0.89
      L1  H    10    22       P1  8028  0.98

> <Gold.Chemscore.Hbond.Weighted>
-6.3991

> <Gold.Chemscore.Metal.Weighted>
-0.0000

> <Gold.Chemscore.Lipo.Weighted>
-10.0193

> <Gold.Chemscore.Internal_Hbond.Weighted>
0.0000

> <Gold.Chemscore.DEClash.Weighted>
0.0907

> <Gold.Chemscore.DEInternal.Weighted>
1.8746

> <Gold.Chemscore.Rot.Weighted>
3.0622

> <Gold.Chemscore.Internal.Correction.Weighted>
   9.000000E+99

> <Gold.Protein.RotatedTorsions>
[ 6907 6896 6895 6894 ] final -146.47 input  -60.11 | X-H torsion
[ 7974 7965 7964 7962 ] final  -24.89 input  175.53 | X-H torsion
[ 8008 7997 7996 7995 ] final   23.99 input   59.86 | X-H torsion
[ 10167 10162 10161 10158 ] final  -92.84 input  -65.29 | X-H torsion
[ 10718 10713 10712 10709 ] final   46.59 input   66.30 | X-H torsion
[ 10763 10752 10751 10750 ] final -165.76 input  -60.55 | X-H torsion
[ 11005 11000 10999 10996 ] final  179.17 input  -57.11 | X-H torsion

> <Gold.Protein.ActiveResidues>
 VAL166  LYS551  ARG553  GLY616  TRP617  ASP618  TYR619  PRO620  LYS621  CYS622 
 ASP623  PHE694  ASN695  SER759  ASP760  ASP761  ALA762  ILE779  LEU786  VAL792 
 PHE793  MET794  SER795  GLU796  ALA797  LYS798  CYS799  TRP800  GLU811  SER814 

> <Gold.Protein.RotatedAtoms>
  151.1420  133.4965  159.2596 H   0  0  0  0  0  0  0  0  0  0  0  0  # atno 6907 bound_to 6896
  151.1644  135.0288  159.8734 H   0  0  0  0  0  0  0  0  0  0  0  0  # atno 6908 bound_to 6896
  152.5462  134.1291  159.8484 H   0  0  0  0  0  0  0  0  0  0  0  0  # atno 6909 bound_to 6896
  146.1526  140.4812  142.8605 H   0  0  0  0  0  0  0  0  0  0  0  0  # atno 7974 bound_to 7965
  154.9894  140.3112  155.4912 H   0  0  0  0  0  0  0  0  0  0  0  0  # atno 8008 bound_to 7997
  156.2942  140.2252  156.4938 H   0  0  0  0  0  0  0  0  0  0  0  0  # atno 8009 bound_to 7997
  154.7717  140.0452  157.1045 H   0  0  0  0  0  0  0  0  0  0  0  0  # atno 8010 bound_to 7997
  140.3307  143.2996  151.9944 H   0  0  0  0  0  0  0  0  0  0  0  0  # atno 10167 bound_to 10162
  157.4497  130.8131  149.7776 H   0  0  0  0  0  0  0  0  0  0  0  0  # atno 10718 bound_to 10713
  154.6900  135.2969  154.9493 H   0  0  0  0  0  0  0  0  0  0  0  0  # atno 10763 bound_to 10752
  154.0460  135.6651  153.4799 H   0  0  0  0  0  0  0  0  0  0  0  0  # atno 10764 bound_to 10752
  153.0605  135.5118  154.7987 H   0  0  0  0  0  0  0  0  0  0  0  0  # atno 10765 bound_to 10752
  140.4032  134.6758  157.4573 H   0  0  0  0  0  0  0  0  0  0  0  0  # atno 11005 bound_to 11000
  144.7923  140.6055  143.6533 LP  0  0  0  0  0  0  0  0  0  0  0  0  # atno 17320 bound_to 7965
  145.4786  139.1497  143.3774 LP  0  0  0  0  0  0  0  0  0  0  0  0  # atno 17321 bound_to 7965
  139.4857  144.6237  151.7206 LP  0  0  0  0  0  0  0  0  0  0  0  0  # atno 17342 bound_to 10162
  140.5399  144.0595  150.6084 LP  0  0  0  0  0  0  0  0  0  0  0  0  # atno 17343 bound_to 10162
  155.9982  130.3895  150.2711 LP  0  0  0  0  0  0  0  0  0  0  0  0  # atno 17370 bound_to 10713
  157.0881  131.0162  151.3132 LP  0  0  0  0  0  0  0  0  0  0  0  0  # atno 17371 bound_to 10713
  140.0321  134.6391  155.9093 LP  0  0  0  0  0  0  0  0  0  0  0  0  # atno 17394 bound_to 11000
  141.1849  133.6554  156.5175 LP  0  0  0  0  0  0  0  0  0  0  0  0  # atno 17395 bound_to 11000

$$$$
