AV-unprocessed.smi:1376|AV-procd|sdf|5590|dock7
  -GOLD-   22720 5193D 1   1.00000     0.00000
 Structure written by MMmdl.
 42 43  0  0  0  0  0  0  0  0  1 V2000
  151.7057  141.0507  157.6307 O   0  0  0  0  0  0  0  0  0  0  0  0
  151.2416  142.1785  157.4574 C   0  0  0  0  0  0  0  0  0  0  0  0
  151.9631  143.4180  158.0051 C   0  0  0  0  0  0  0  0  0  0  0  0
  152.2413  143.3388  159.4489 N   0  0  0  0  0  0  0  0  0  0  0  0
  152.9053  142.1855  159.9127 C   0  0  0  0  0  0  0  0  0  0  0  0
  153.2080  142.0133  161.2090 C   0  0  0  0  0  0  0  0  0  0  0  0
  152.8351  143.0512  162.1406 C   0  0  0  0  0  0  0  0  0  0  0  0
  152.1955  144.1562  161.7085 C   0  0  0  0  0  0  0  0  0  0  0  0
  151.8586  144.3465  160.2928 C   0  0  0  0  0  0  0  0  0  0  0  0
  151.2698  145.3504  159.8902 O   0  0  0  0  0  0  0  0  0  0  0  0
  150.1110  142.4115  156.7736 N   0  0  0  0  0  0  0  0  0  0  0  0
  149.2688  141.3896  156.1587 C   0  0  2  0  0  0  0  0  0  0  0  0
  149.0601  141.6902  154.6608 C   0  0  0  0  0  0  0  0  0  0  0  0
  148.1118  140.6704  154.0121 C   0  0  0  0  0  0  0  0  0  0  0  0
  146.7670  140.6027  154.7551 C   0  0  0  0  0  0  0  0  0  0  0  0
  146.9549  140.3012  156.2528 C   0  0  1  0  0  0  0  0  0  0  0  0
  147.4481  138.9709  156.3671 O   0  0  0  0  0  0  0  0  0  0  0  0
  147.5165  138.4697  157.6951 C   0  0  0  0  0  0  0  0  0  0  0  0
  148.8513  137.7406  157.8910 C   0  0  0  0  0  0  0  0  0  0  0  0
  149.8511  138.6133  157.7719 F   0  0  0  0  0  0  0  0  0  0  0  0
  148.9038  137.1938  159.1053 F   0  0  0  0  0  0  0  0  0  0  0  0
  148.9983  136.7925  156.9660 F   0  0  0  0  0  0  0  0  0  0  0  0
  147.9175  141.3235  156.8958 C   0  0  0  0  0  0  0  0  0  0  0  0
  152.8902  143.5449  157.4447 H   0  0  0  0  0  0  0  0  0  0  0  0
  151.3735  144.3102  157.7852 H   0  0  0  0  0  0  0  0  0  0  0  0
  153.1420  141.4541  159.1534 H   0  0  0  0  0  0  0  0  0  0  0  0
  153.7133  141.1206  161.5468 H   0  0  0  0  0  0  0  0  0  0  0  0
  153.0691  142.9407  163.1892 H   0  0  0  0  0  0  0  0  0  0  0  0
  151.9236  144.9221  162.4199 H   0  0  0  0  0  0  0  0  0  0  0  0
  149.8084  143.3697  156.6739 H   0  0  0  0  0  0  0  0  0  0  0  0
  149.7575  140.4182  156.2601 H   0  0  0  0  0  0  0  0  0  0  0  0
  148.6491  142.6934  154.5386 H   0  0  0  0  0  0  0  0  0  0  0  0
  150.0169  141.6828  154.1371 H   0  0  0  0  0  0  0  0  0  0  0  0
  147.9451  140.9314  152.9667 H   0  0  0  0  0  0  0  0  0  0  0  0
  148.5814  139.6859  154.0124 H   0  0  0  0  0  0  0  0  0  0  0  0
  146.2453  141.5538  154.6407 H   0  0  0  0  0  0  0  0  0  0  0  0
  146.1273  139.8460  154.2997 H   0  0  0  0  0  0  0  0  0  0  0  0
  145.9782  140.3657  156.7350 H   0  0  0  0  0  0  0  0  0  0  0  0
  147.4333  139.2794  158.4198 H   0  0  0  0  0  0  0  0  0  0  0  0
  146.6910  137.7803  157.8779 H   0  0  0  0  0  0  0  0  0  0  0  0
  148.0756  141.0979  157.9500 H   0  0  0  0  0  0  0  0  0  0  0  0
  147.4476  142.3079  156.8715 H   0  0  0  0  0  0  0  0  0  0  0  0
  1  2  2  0  0  0  0
  2  3  1  0  0  0  0
  2 11  1  0  0  0  0
  3  4  1  0  0  0  0
  3 24  1  0  0  0  0
  3 25  1  0  0  0  0
  4  9  1  0  0  0  0
  4  5  1  0  0  0  0
  5  6  2  0  0  0  0
  5 26  1  0  0  0  0
  6  7  1  0  0  0  0
  6 27  1  0  0  0  0
  7  8  2  0  0  0  0
  7 28  1  0  0  0  0
  8  9  1  0  0  0  0
  8 29  1  0  0  0  0
  9 10  2  0  0  0  0
 11 12  1  0  0  0  0
 11 30  1  0  0  0  0
 12 23  1  0  0  0  0
 12 13  1  0  0  0  0
 12 31  1  0  0  0  0
 13 14  1  0  0  0  0
 13 32  1  0  0  0  0
 13 33  1  0  0  0  0
 14 15  1  0  0  0  0
 14 34  1  0  0  0  0
 14 35  1  0  0  0  0
 15 16  1  0  0  0  0
 15 36  1  0  0  0  0
 15 37  1  0  0  0  0
 16 17  1  0  0  0  0
 16 23  1  0  0  0  0
 16 38  1  0  0  0  0
 17 18  1  0  0  0  0
 18 19  1  0  0  0  0
 18 39  1  0  0  0  0
 18 40  1  0  0  0  0
 19 20  1  0  0  0  0
 19 21  1  0  0  0  0
 19 22  1  0  0  0  0
 23 41  1  0  0  0  0
 23 42  1  0  0  0  0
M  END
> <s_m_source_file>
AV-unprocessed.smi

> <i_m_source_file_index>
1376

> <i_lp_mmshare_version>
43012

> <i_f3d_flags>
0

> <s_epik_input>
Tz1jMVtjSF1bY0hdW2NIXVtjSF1uMVtDSDJdQyg9TylbTkhdW0NAQEhdMltDSDJdW0NIMl1bQ0gyXVtDQEhdKFtDSDJdMilPW0NIMl1DKEYpKEYpRg==

> <s_epik_cmdline>
J2VwaWtfcHl0aG9uJywgJy1waCcsICc3LjAnLCAnLXRuJywgJzgnLCAnLW1hJywgJzIwMCcsICctbWV0YWxfYmluZGluZycsICctaW1hZScsICc8aW5maWxlLm1hZT4nLCAnLW9tYWUnLCAnPG91dGZpbGUubWFlPic=

> <r_lp_tautomer_probability>
1

> <r_epik_Ionization_Penalty>
4.08567e-07

> <r_epik_Ionization_Penalty_Charging>
3.90028e-07

> <r_epik_Ionization_Penalty_Neutral>
1.85393e-08

> <r_epik_State_Penalty>
-0

> <r_epik_Charging_Adjusted_Penalty>
3.90028e-07

> <i_epik_Tot_Q>
0

> <i_epik_Tot_abs_Q>
0

> <r_epik_Metal_State_Penalty>
-0

> <b_epik_Metal_Only>
0

> <s_lp_Force_Field>
OPLS_2005

> <r_lp_Energy>
21.1399

> <b_lp_Chiralities_Consistent>
1

> <s_lp_Variant>
AV-unprocessed.smi:1376-1

> <Gold.Version>
5.8.1

> <Gold.Id.Protein>
6NUR|6NUR_protein|mol2

> <Gold.PLP.Fitness>
46.0706

> <Gold.PLP.PLP>
-43.9889

> <Gold.PLP.part.hbond>
-1.0000

> <Gold.PLP.part.metal>
0.0000

> <Gold.PLP.part.buried>
-5.6550

> <Gold.PLP.part.nonpolar>
-37.0991

> <Gold.PLP.part.repulsive>
0.2031

> <Gold.PLP.ligand.clash>
0.0000

> <Gold.PLP.ligand.torsion>
0.4874

> <Gold.PLP.Chemscore.Hbond>
1.0000

> <Gold.PLP.Chemscore.CHOScore>
0.0000

> <Gold.PLP.Chemscore.Metal>
0.0000

> <Gold.Chemscore.Hbonds>
donor molecule, donor type, donor heavy atom, donor atom, acceptor molecule, acceptor atom, score
      L1  H    11    30       P1  8028  1.00

> <Gold.PLP.Chemscore.Internal.Correction>
0.0564

> <Gold.Rescore>
     Score         DG    S(hbond)    S(metal)    S(lipo)     H(rot)  DE(clash)    DE(int)     intcor
     12.06     -13.62       0.98        0.00      89.14       2.18       0.04       1.52       ----

> <Gold.Chemscore.Fitness>
12.0642

> <Gold.Chemscore.DG>
-13.6187

> <Gold.Chemscore.ZeroCoef>
-5.4800

> <Gold.Chemscore.Hbond>
0.9850

> <Gold.Chemscore.Metal>
0.0000

> <Gold.Chemscore.Lipo>
89.1367

> <Gold.Chemscore.Internal_Hbond>
0.0000

> <Gold.Chemscore.DEClash>
0.0380

> <Gold.Chemscore.DEInternal>
1.5166

> <Gold.Chemscore.Rot>
2.1797

> <Gold.Chemscore.Internal.Correction>
   9.000000E+99

> <Gold.Chemscore.Hbonds>
donor molecule, donor type, donor heavy atom, donor atom, acceptor molecule, acceptor atom, score
      L1  H    11    30       P1  8028  0.94

> <Gold.Chemscore.Hbond.Weighted>
-3.2899

> <Gold.Chemscore.Metal.Weighted>
-0.0000

> <Gold.Chemscore.Lipo.Weighted>
-10.4290

> <Gold.Chemscore.Internal_Hbond.Weighted>
0.0000

> <Gold.Chemscore.DEClash.Weighted>
0.0380

> <Gold.Chemscore.DEInternal.Weighted>
1.5166

> <Gold.Chemscore.Rot.Weighted>
5.5802

> <Gold.Chemscore.Internal.Correction.Weighted>
   9.000000E+99

> <Gold.Protein.RotatedTorsions>
[ 6907 6896 6895 6894 ] final -149.44 input  -60.11 | X-H torsion
[ 7974 7965 7964 7962 ] final  -17.89 input  175.53 | X-H torsion
[ 8008 7997 7996 7995 ] final -124.10 input   59.86 | X-H torsion
[ 10167 10162 10161 10158 ] final  -63.18 input  -65.29 | X-H torsion
[ 10718 10713 10712 10709 ] final   73.78 input   66.30 | X-H torsion
[ 10763 10752 10751 10750 ] final   42.20 input  -60.55 | X-H torsion
[ 11005 11000 10999 10996 ] final   77.10 input  -57.11 | X-H torsion

> <Gold.Protein.ActiveResidues>
 VAL166  LYS551  ARG553  GLY616  TRP617  ASP618  TYR619  PRO620  LYS621  CYS622 
 ASP623  PHE694  ASN695  SER759  ASP760  ASP761  ALA762  ILE779  LEU786  VAL792 
 PHE793  MET794  SER795  GLU796  ALA797  LYS798  CYS799  TRP800  GLU811  SER814 

> <Gold.Protein.RotatedAtoms>
  151.1842  133.4706  159.2594 H   0  0  0  0  0  0  0  0  0  0  0  0  # atno 6907 bound_to 6896
  151.1228  135.0088  159.8557 H   0  0  0  0  0  0  0  0  0  0  0  0  # atno 6908 bound_to 6896
  152.5457  134.1752  159.8666 H   0  0  0  0  0  0  0  0  0  0  0  0  # atno 6909 bound_to 6896
  146.1919  140.3844  142.8455 H   0  0  0  0  0  0  0  0  0  0  0  0  # atno 7974 bound_to 7965
  155.1913  140.0413  157.2901 H   0  0  0  0  0  0  0  0  0  0  0  0  # atno 8008 bound_to 7997
  154.6136  140.2483  155.7609 H   0  0  0  0  0  0  0  0  0  0  0  0  # atno 8009 bound_to 7997
  156.2394  140.2909  156.0411 H   0  0  0  0  0  0  0  0  0  0  0  0  # atno 8010 bound_to 7997
  140.5889  143.2338  151.6183 H   0  0  0  0  0  0  0  0  0  0  0  0  # atno 10167 bound_to 10162
  157.6563  130.9645  150.1117 H   0  0  0  0  0  0  0  0  0  0  0  0  # atno 10718 bound_to 10713
  152.9889  135.6139  154.2911 H   0  0  0  0  0  0  0  0  0  0  0  0  # atno 10763 bound_to 10752
  154.2636  135.2781  155.2769 H   0  0  0  0  0  0  0  0  0  0  0  0  # atno 10764 bound_to 10752
  154.5184  135.5821  153.6718 H   0  0  0  0  0  0  0  0  0  0  0  0  # atno 10765 bound_to 10752
  139.9269  134.7655  156.1479 H   0  0  0  0  0  0  0  0  0  0  0  0  # atno 11005 bound_to 11000
  144.8503  140.6991  143.6172 LP  0  0  0  0  0  0  0  0  0  0  0  0  # atno 17320 bound_to 7965
  145.3766  139.1646  143.4303 LP  0  0  0  0  0  0  0  0  0  0  0  0  # atno 17321 bound_to 7965
  139.5215  144.3192  152.0925 LP  0  0  0  0  0  0  0  0  0  0  0  0  # atno 17342 bound_to 10162
  140.2353  144.4326  150.6282 LP  0  0  0  0  0  0  0  0  0  0  0  0  # atno 17343 bound_to 10162
  156.2012  130.3660  149.8786 LP  0  0  0  0  0  0  0  0  0  0  0  0  # atno 17370 bound_to 10713
  156.6689  130.8812  151.3559 LP  0  0  0  0  0  0  0  0  0  0  0  0  # atno 17371 bound_to 10713
  141.0832  133.6745  156.2381 LP  0  0  0  0  0  0  0  0  0  0  0  0  # atno 17394 bound_to 11000
  140.6311  134.5263  157.5559 LP  0  0  0  0  0  0  0  0  0  0  0  0  # atno 17395 bound_to 11000

$$$$
