AV-unprocessed.smi:244|AV-procd|sdf|1875|dock2
  -GOLD-   2262020513D 1   1.00000     0.00000
 Structure written by MMmdl.
 56 60  0  0  0  0  0  0  0  0  1 V2000
  148.5925  139.2907  156.1919 C   0  0  0  0  0  0  0  0  0  0  0  0
  149.8159  139.6546  155.4858 N   0  0  0  0  0  0  0  0  0  0  0  0
  149.7125  140.9531  154.8137 C   0  0  0  0  0  0  0  0  0  0  0  0
  149.7432  142.1378  155.8013 C   0  0  0  0  0  0  0  0  0  0  0  0
  151.0011  142.0701  156.6735 C   0  0  1  0  0  0  0  0  0  0  0  0
  150.9926  143.1217  157.6332 O   0  0  0  0  0  0  0  0  0  0  0  0
  152.1795  143.1210  158.4207 C   0  0  0  0  0  0  0  0  0  0  0  0
  152.2922  141.7894  159.1819 C   0  0  0  0  0  0  0  0  0  0  0  0
  152.2383  140.6656  158.2511 N   0  0  0  0  0  0  0  0  0  0  0  0
  152.4491  139.4774  158.8597 C   0  0  0  0  0  0  0  0  0  0  0  0
  151.4079  138.6365  159.0990 N   0  0  0  0  0  0  0  0  0  0  0  0
  151.6303  137.4478  159.6683 C   0  0  0  0  0  0  0  0  0  0  0  0
  152.7897  136.9121  160.0580 N   0  0  0  0  0  0  0  0  0  0  0  0
  153.8334  137.7569  159.8161 C   0  0  0  0  0  0  0  0  0  0  0  0
  153.7494  139.0508  159.2327 C   0  0  0  0  0  0  0  0  0  0  0  0
  155.0124  139.6209  159.1465 N   0  0  0  0  0  0  0  0  0  0  0  0
  155.8018  138.7120  159.6509 C   0  0  0  0  0  0  0  0  0  0  0  0
  155.1807  137.5518  160.0572 N   0  0  0  0  0  0  0  0  0  0  0  0
  155.8170  136.3772  160.6324 C   0  0  0  0  0  0  0  0  0  0  0  0
  155.6539  136.2496  162.1691 C   0  0  0  0  0  0  0  0  0  0  0  0
  156.7132  137.0103  162.7213 O   0  0  0  0  0  0  0  0  0  0  0  0
  154.3180  136.8282  162.6845 C   0  0  0  0  0  0  0  0  0  0  0  0
  154.1409  136.6049  164.1973 C   0  0  0  0  0  0  0  0  0  0  0  0
  154.2530  135.2195  164.5023 O   0  0  0  0  0  0  0  0  0  0  0  0
  155.5324  134.6838  164.1848 C   0  0  0  0  0  0  0  0  0  0  0  0
  155.7889  134.7953  162.6710 C   0  0  0  0  0  0  0  0  0  0  0  0
  151.0503  140.7101  157.3963 C   0  0  2  0  0  0  0  0  0  0  0  0
  151.0039  139.5735  156.3408 C   0  0  0  0  0  0  0  0  0  0  0  0
  147.7483  139.2777  155.5022 H   0  0  0  0  0  0  0  0  0  0  0  0
  148.3560  139.9821  156.9998 H   0  0  0  0  0  0  0  0  0  0  0  0
  148.6847  138.2916  156.6187 H   0  0  0  0  0  0  0  0  0  0  0  0
  150.5488  141.0437  154.1195 H   0  0  0  0  0  0  0  0  0  0  0  0
  148.8060  140.9839  154.2084 H   0  0  0  0  0  0  0  0  0  0  0  0
  149.7274  143.0772  155.2484 H   0  0  0  0  0  0  0  0  0  0  0  0
  148.8506  142.1380  156.4272 H   0  0  0  0  0  0  0  0  0  0  0  0
  151.8770  142.1827  156.0308 H   0  0  0  0  0  0  0  0  0  0  0  0
  153.0520  143.2802  157.7851 H   0  0  0  0  0  0  0  0  0  0  0  0
  152.1414  143.9537  159.1228 H   0  0  0  0  0  0  0  0  0  0  0  0
  153.2258  141.7605  159.7453 H   0  0  0  0  0  0  0  0  0  0  0  0
  151.4777  141.7128  159.9039 H   0  0  0  0  0  0  0  0  0  0  0  0
  150.7553  136.8358  159.8293 H   0  0  0  0  0  0  0  0  0  0  0  0
  156.8697  138.8576  159.7272 H   0  0  0  0  0  0  0  0  0  0  0  0
  155.4061  135.4966  160.1366 H   0  0  0  0  0  0  0  0  0  0  0  0
  156.8757  136.4051  160.3695 H   0  0  0  0  0  0  0  0  0  0  0  0
  157.1475  136.4881  163.3785 H   0  0  0  0  0  0  0  0  0  0  0  0
  154.2435  137.8905  162.4486 H   0  0  0  0  0  0  0  0  0  0  0  0
  153.4839  136.3427  162.1781 H   0  0  0  0  0  0  0  0  0  0  0  0
  154.8734  137.1753  164.7702 H   0  0  0  0  0  0  0  0  0  0  0  0
  153.1568  136.9530  164.5114 H   0  0  0  0  0  0  0  0  0  0  0  0
  156.3070  135.1966  164.7570 H   0  0  0  0  0  0  0  0  0  0  0  0
  155.5581  133.6374  164.4895 H   0  0  0  0  0  0  0  0  0  0  0  0
  155.0620  134.1591  162.1670 H   0  0  0  0  0  0  0  0  0  0  0  0
  156.7726  134.3937  162.4244 H   0  0  0  0  0  0  0  0  0  0  0  0
  150.1795  140.6304  158.0480 H   0  0  0  0  0  0  0  0  0  0  0  0
  151.0230  138.5920  156.8157 H   0  0  0  0  0  0  0  0  0  0  0  0
  151.8904  139.6270  155.7073 H   0  0  0  0  0  0  0  0  0  0  0  0
  1  2  1  0  0  0  0
  1 29  1  0  0  0  0
  1 30  1  0  0  0  0
  1 31  1  0  0  0  0
  2 28  1  0  0  0  0
  2  3  1  0  0  0  0
  3  4  1  0  0  0  0
  3 32  1  0  0  0  0
  3 33  1  0  0  0  0
  4  5  1  0  0  0  0
  4 34  1  0  0  0  0
  4 35  1  0  0  0  0
  5 27  1  0  0  0  0
  5  6  1  0  0  0  0
  5 36  1  0  0  0  0
  6  7  1  0  0  0  0
  7  8  1  0  0  0  0
  7 37  1  0  0  0  0
  7 38  1  0  0  0  0
  8  9  1  0  0  0  0
  8 39  1  0  0  0  0
  8 40  1  0  0  0  0
  9 10  1  0  0  0  0
  9 27  1  0  0  0  0
 10 15  1  0  0  0  0
 10 11  2  0  0  0  0
 11 12  1  0  0  0  0
 12 13  2  0  0  0  0
 12 41  1  0  0  0  0
 13 14  1  0  0  0  0
 14 18  1  0  0  0  0
 14 15  2  0  0  0  0
 15 16  1  0  0  0  0
 16 17  2  0  0  0  0
 17 18  1  0  0  0  0
 17 42  1  0  0  0  0
 18 19  1  0  0  0  0
 19 20  1  0  0  0  0
 19 43  1  0  0  0  0
 19 44  1  0  0  0  0
 20 26  1  0  0  0  0
 20 21  1  0  0  0  0
 20 22  1  0  0  0  0
 21 45  1  0  0  0  0
 22 23  1  0  0  0  0
 22 46  1  0  0  0  0
 22 47  1  0  0  0  0
 23 24  1  0  0  0  0
 23 48  1  0  0  0  0
 23 49  1  0  0  0  0
 24 25  1  0  0  0  0
 25 26  1  0  0  0  0
 25 50  1  0  0  0  0
 25 51  1  0  0  0  0
 26 52  1  0  0  0  0
 26 53  1  0  0  0  0
 27 28  1  0  0  0  0
 27 54  1  0  0  0  0
 28 55  1  0  0  0  0
 28 56  1  0  0  0  0
M  END
> <s_m_source_file>
AV-unprocessed.smi

> <i_m_source_file_index>
244

> <i_lp_mmshare_version>
43012

> <i_f3d_flags>
0

> <s_epik_input>
W0NIMl0xW0NIMl1OKFtDSDNdKVtDSDJdW0NAQEhdKFtDQEhdMTIpTihbQ0gyXVtDSDJdTzIpYyhuW2NIXW4zKWMoYzM0KW5bY0hdbjRbQ0gyXUM1KFtPSF0pW0NIMl1bQ0gyXU9bQ0gyXVtDSDJdNQ==

> <s_epik_cmdline>
J2VwaWtfcHl0aG9uJywgJy1waCcsICc3LjAnLCAnLXRuJywgJzgnLCAnLW1hJywgJzIwMCcsICctbWV0YWxfYmluZGluZycsICctaW1hZScsICc8aW5maWxlLm1hZT4nLCAnLW9tYWUnLCAnPG91dGZpbGUubWFlPic=

> <r_lp_tautomer_probability>
1

> <r_epik_Ionization_Penalty>
2.27765

> <r_epik_Ionization_Penalty_Charging>
0

> <r_epik_Ionization_Penalty_Neutral>
2.27765

> <r_epik_State_Penalty>
2.4114

> <r_epik_Charging_Adjusted_Penalty>
2.4114

> <i_epik_Tot_Q>
0

> <i_epik_Tot_abs_Q>
0

> <r_epik_Metal_State_Penalty>
2.39769

> <b_epik_Metal_Only>
0

> <s_lp_Force_Field>
OPLS_2005

> <r_lp_Energy>
45.6912

> <b_lp_Chiralities_Consistent>
1

> <s_lp_Variant>
AV-unprocessed.smi:244-12

> <Gold.Version>
5.8.1

> <Gold.Id.Protein>
6NUR|6NUR_protein|mol2

> <Gold.PLP.Fitness>
39.1269

> <Gold.PLP.PLP>
-35.5039

> <Gold.PLP.part.hbond>
-2.0000

> <Gold.PLP.part.metal>
0.0000

> <Gold.PLP.part.buried>
-2.0036

> <Gold.PLP.part.nonpolar>
-31.7258

> <Gold.PLP.part.repulsive>
0.2647

> <Gold.PLP.ligand.clash>
0.0000

> <Gold.PLP.ligand.torsion>
1.2415

> <Gold.PLP.Chemscore.Hbond>
2.0000

> <Gold.PLP.Chemscore.CHOScore>
0.0000

> <Gold.PLP.Chemscore.Metal>
0.0000

> <Gold.Chemscore.Hbonds>
donor molecule, donor type, donor heavy atom, donor atom, acceptor molecule, acceptor atom, score
      P1  H  6896  6909       L1    13  0.70
      P1  H  7997  8008       L1    16  1.00

> <Gold.PLP.Chemscore.Internal.Correction>
0.1060

> <Gold.Rescore>
     Score         DG    S(hbond)    S(metal)    S(lipo)     H(rot)  DE(clash)    DE(int)     intcor
     13.79     -18.39       1.88        0.00     101.80       2.06       2.18       2.42       ----

> <Gold.Chemscore.Fitness>
13.7910

> <Gold.Chemscore.DG>
-18.3908

> <Gold.Chemscore.ZeroCoef>
-5.4800

> <Gold.Chemscore.Hbond>
1.8793

> <Gold.Chemscore.Metal>
0.0000

> <Gold.Chemscore.Lipo>
101.7976

> <Gold.Chemscore.Internal_Hbond>
0.0000

> <Gold.Chemscore.DEClash>
2.1779

> <Gold.Chemscore.DEInternal>
2.4219

> <Gold.Chemscore.Rot>
2.0611

> <Gold.Chemscore.Internal.Correction>
   9.000000E+99

> <Gold.Chemscore.Hbonds>
donor molecule, donor type, donor heavy atom, donor atom, acceptor molecule, acceptor atom, score
      P1  H  6896  6909       L1    13  0.07
      P1  H  7997  8008       L1    16  0.63

> <Gold.Chemscore.Hbond.Weighted>
-6.2770

> <Gold.Chemscore.Metal.Weighted>
-0.0000

> <Gold.Chemscore.Lipo.Weighted>
-11.9103

> <Gold.Chemscore.Internal_Hbond.Weighted>
0.0000

> <Gold.Chemscore.DEClash.Weighted>
2.1779

> <Gold.Chemscore.DEInternal.Weighted>
2.4219

> <Gold.Chemscore.Rot.Weighted>
5.2765

> <Gold.Chemscore.Internal.Correction.Weighted>
   9.000000E+99

> <Gold.Protein.RotatedTorsions>
[ 6907 6896 6895 6894 ] final  150.19 input  -60.11 | X-H torsion
[ 7974 7965 7964 7962 ] final  136.30 input  175.53 | X-H torsion
[ 8008 7997 7996 7995 ] final -138.75 input   59.86 | X-H torsion
[ 10167 10162 10161 10158 ] final   12.71 input  -65.29 | X-H torsion
[ 10718 10713 10712 10709 ] final  138.46 input   66.30 | X-H torsion
[ 10763 10752 10751 10750 ] final   14.83 input  -60.55 | X-H torsion
[ 11005 11000 10999 10996 ] final  -95.08 input  -57.11 | X-H torsion

> <Gold.Protein.ActiveResidues>
 VAL166  LYS551  ARG553  GLY616  TRP617  ASP618  TYR619  PRO620  LYS621  CYS622 
 ASP623  PHE694  ASN695  SER759  ASP760  ASP761  ALA762  ILE779  LEU786  VAL792 
 PHE793  MET794  SER795  GLU796  ALA797  LYS798  CYS799  TRP800  GLU811  SER814 

> <Gold.Protein.RotatedAtoms>
  152.1177  133.4336  159.4660 H   0  0  0  0  0  0  0  0  0  0  0  0  # atno 6907 bound_to 6896
  150.6870  134.2572  159.4543 H   0  0  0  0  0  0  0  0  0  0  0  0  # atno 6908 bound_to 6896
  152.0446  134.9690  160.0625 H   0  0  0  0  0  0  0  0  0  0  0  0  # atno 6909 bound_to 6896
  144.9578  139.4744  143.5494 H   0  0  0  0  0  0  0  0  0  0  0  0  # atno 7974 bound_to 7965
  155.4335  140.0527  157.3016 H   0  0  0  0  0  0  0  0  0  0  0  0  # atno 8008 bound_to 7997
  154.4849  140.2097  155.9636 H   0  0  0  0  0  0  0  0  0  0  0  0  # atno 8009 bound_to 7997
  156.1260  140.3180  155.8283 H   0  0  0  0  0  0  0  0  0  0  0  0  # atno 8010 bound_to 7997
  140.6050  143.8526  150.7004 H   0  0  0  0  0  0  0  0  0  0  0  0  # atno 10167 bound_to 10162
  157.4251  131.1042  151.0312 H   0  0  0  0  0  0  0  0  0  0  0  0  # atno 10718 bound_to 10713
  153.1583  135.6791  153.8779 H   0  0  0  0  0  0  0  0  0  0  0  0  # atno 10763 bound_to 10752
  153.8183  135.3133  155.3409 H   0  0  0  0  0  0  0  0  0  0  0  0  # atno 10764 bound_to 10752
  154.7914  135.4832  154.0150 H   0  0  0  0  0  0  0  0  0  0  0  0  # atno 10765 bound_to 10752
  141.1452  133.8001  157.0385 H   0  0  0  0  0  0  0  0  0  0  0  0  # atno 11005 bound_to 11000
  146.3343  139.8708  142.8840 LP  0  0  0  0  0  0  0  0  0  0  0  0  # atno 17320 bound_to 7965
  145.2745  141.0119  143.3752 LP  0  0  0  0  0  0  0  0  0  0  0  0  # atno 17321 bound_to 7965
  140.2081  143.3905  152.1739 LP  0  0  0  0  0  0  0  0  0  0  0  0  # atno 17342 bound_to 10162
  139.5318  144.7168  151.5028 LP  0  0  0  0  0  0  0  0  0  0  0  0  # atno 17343 bound_to 10162
  157.1228  130.6069  149.5509 LP  0  0  0  0  0  0  0  0  0  0  0  0  # atno 17370 bound_to 10713
  155.9893  130.4941  150.7210 LP  0  0  0  0  0  0  0  0  0  0  0  0  # atno 17371 bound_to 10713
  140.0708  134.9703  157.1463 LP  0  0  0  0  0  0  0  0  0  0  0  0  # atno 17394 bound_to 11000
  140.3714  134.2386  155.7177 LP  0  0  0  0  0  0  0  0  0  0  0  0  # atno 17395 bound_to 11000

$$$$
