AV-unprocessed.smi:72|AV-procd|sdf|734|dock7
  -GOLD-   2262017 63D 1   1.00000     0.00000
 Structure written by MMmdl.
 28 29  0  0  0  0  0  0  0  0  2 V2000
  154.2754  138.1564  154.3479 N   0  0  0  0  0  0  0  0  0  0  0  0
  153.0592  138.4388  154.5245 C   0  0  0  0  0  0  0  0  0  0  0  0
  152.0312  137.5295  154.0661 N   0  0  0  0  0  0  0  0  0  0  0  0
  150.7934  137.8699  154.2570 C   0  0  0  0  0  0  0  0  0  0  0  0
  150.4337  139.1278  154.8972 N   0  0  0  0  0  0  0  0  0  0  0  0
  148.9850  139.5118  155.1223 C   0  0  1  0  0  0  0  0  0  0  0  0
  148.8462  140.0665  156.3921 O   0  0  0  0  0  0  0  0  0  0  0  0
  147.7262  140.9367  156.3749 C   0  0  1  0  0  0  0  0  0  0  0  0
  147.7942  141.9065  157.5647 C   0  0  0  0  0  0  0  0  0  0  0  0
  149.0148  142.6154  157.5466 O   0  0  0  0  0  0  0  0  0  0  0  0
  147.8602  141.6291  155.0128 C   0  0  2  0  0  0  0  0  0  0  0  0
  146.5880  142.0327  154.5457 O   0  0  0  0  0  0  0  0  0  0  0  0
  148.4521  140.5491  154.1082 C   0  0  1  0  0  0  0  0  0  0  0  0
  149.4440  141.1014  153.2614 O   0  0  0  0  0  0  0  0  0  0  0  0
  151.4624  139.9876  155.3637 C   0  0  0  0  0  0  0  0  0  0  0  0
  151.1348  141.0232  155.9434 O   0  0  0  0  0  0  0  0  0  0  0  0
  152.7595  139.6233  155.1617 N   0  5  0  0  0  0  0  0  0  0  0  0
  148.4133  138.5821  155.1126 H   0  0  0  0  0  0  0  0  0  0  0  0
  146.8122  140.3391  156.4019 H   0  0  0  0  0  0  0  0  0  0  0  0
  148.5311  142.4871  155.0889 H   0  0  0  0  0  0  0  0  0  0  0  0
  147.6913  140.0576  153.4999 H   0  0  0  0  0  0  0  0  0  0  0  0
  154.4073  137.2741  153.8753 H   0  0  0  0  0  0  0  0  0  0  0  0
  149.9540  137.2405  153.9594 H   0  0  0  0  0  0  0  0  0  0  0  0
  146.9506  142.5976  157.5620 H   0  0  0  0  0  0  0  0  0  0  0  0
  147.7548  141.3516  158.5025 H   0  0  0  0  0  0  0  0  0  0  0  0
  148.8486  143.4918  157.2349 H   0  0  0  0  0  0  0  0  0  0  0  0
  146.6846  142.3671  153.6671 H   0  0  0  0  0  0  0  0  0  0  0  0
  149.4691  140.5955  152.4628 H   0  0  0  0  0  0  0  0  0  0  0  0
  1  2  2  0  0  0  0
  1 22  1  0  0  0  0
  2 17  1  0  0  0  0
  2  3  1  0  0  0  0
  3  4  2  0  0  0  0
  4  5  1  0  0  0  0
  4 23  1  0  0  0  0
  5  6  1  0  0  0  0
  5 15  1  0  0  0  0
  6 18  1  0  0  0  0
  6 13  1  0  0  0  0
  6  7  1  0  0  0  0
  7  8  1  0  0  0  0
  8 19  1  0  0  0  0
  8  9  1  0  0  0  0
  8 11  1  0  0  0  0
  9 10  1  0  0  0  0
  9 24  1  0  0  0  0
  9 25  1  0  0  0  0
 10 26  1  0  0  0  0
 11 20  1  0  0  0  0
 11 12  1  0  0  0  0
 11 13  1  0  0  0  0
 12 27  1  0  0  0  0
 13 21  1  0  0  0  0
 13 14  1  0  0  0  0
 14 28  1  0  0  0  0
 15 16  2  0  0  0  0
 15 17  1  0  0  0  0
M  CHG  1  17  -1
M  END
> <s_m_source_file>
AV-unprocessed.smi

> <i_m_source_file_index>
72

> <i_lp_mmshare_version>
43012

> <i_f3d_flags>
0

> <s_epik_input>
W05IMl1jMW5bY0hdbihjKD1PKW4xKVtDQEBIXTJPW0NASF0oW0NIMl1bT0hdKVtDQEBIXShbT0hdKVtDQEhdMltPSF0=

> <s_epik_cmdline>
J2VwaWtfcHl0aG9uJywgJy1waCcsICc3LjAnLCAnLXRuJywgJzgnLCAnLW1hJywgJzIwMCcsICctbWV0YWxfYmluZGluZycsICctaW1hZScsICc8aW5maWxlLm1hZT4nLCAnLW9tYWUnLCAnPG91dGZpbGUubWFlPic=

> <r_lp_tautomer_probability>
7.17554e-07

> <r_epik_Ionization_Penalty>
12.8705

> <r_epik_Ionization_Penalty_Charging>
5.64144

> <r_epik_Ionization_Penalty_Neutral>
7.22905

> <r_epik_State_Penalty>
3.30104

> <r_epik_Charging_Adjusted_Penalty>
8.94249

> <i_epik_Tot_Q>
-1

> <i_epik_Tot_abs_Q>
1

> <r_epik_Metal_State_Penalty>
0.529074

> <b_epik_Metal_Only>
1

> <s_epik_Chemistry_Notes>
This compound contains an acetal/aminal-like group ( X-CH(R)-Y where X, Y are N, S, or O) that may be acid/base labile, releasing an aldehyde.

> <s_lp_Force_Field>
OPLS_2005

> <r_lp_Energy>
37.9918

> <b_lp_Chiralities_Consistent>
1

> <s_lp_Variant>
AV-unprocessed.smi:72-72

> <Gold.Version>
5.8.1

> <Gold.Id.Protein>
6NUR|6NUR_protein|mol2

> <Gold.PLP.Fitness>
46.1415

> <Gold.PLP.PLP>
-29.0760

> <Gold.PLP.part.hbond>
-7.8392

> <Gold.PLP.part.metal>
0.0000

> <Gold.PLP.part.buried>
-3.7331

> <Gold.PLP.part.nonpolar>
-18.5567

> <Gold.PLP.part.repulsive>
0.2184

> <Gold.PLP.ligand.clash>
0.0000

> <Gold.PLP.ligand.torsion>
0.5286

> <Gold.PLP.Chemscore.Hbond>
5.0481

> <Gold.PLP.Chemscore.CHOScore>
0.9317

> <Gold.PLP.Chemscore.Metal>
0.0000

> <Gold.Chemscore.Hbonds>
donor molecule, donor type, donor heavy atom, donor atom, acceptor molecule, acceptor atom, score
      L1  H    10    26       P1  8028  0.94
      L1  H    14    28       P1  7957  0.71
      P1  H  7989  7998       L1    14  0.05
      P1  H  7997  8008       L1    17  2.00
      P1  H  8011  8017       L1    14  0.30
      P1  H 10752 10765       L1     3  0.86
      L1  C     4    23       P1  7948  1.00

> <Gold.PLP.Chemscore.Internal.Correction>
0.1833

> <Gold.Rescore>
     Score         DG    S(hbond)    S(metal)    S(lipo)     H(rot)  DE(clash)    DE(int)     intcor
      3.51      -5.95       2.68        0.00      15.84       4.04       0.11       2.33       ----

> <Gold.Chemscore.Fitness>
3.5074

> <Gold.Chemscore.DG>
-5.9454

> <Gold.Chemscore.ZeroCoef>
-5.4800

> <Gold.Chemscore.Hbond>
2.6811

> <Gold.Chemscore.Metal>
0.0000

> <Gold.Chemscore.Lipo>
15.8429

> <Gold.Chemscore.Internal_Hbond>
0.0000

> <Gold.Chemscore.DEClash>
0.1071

> <Gold.Chemscore.DEInternal>
2.3309

> <Gold.Chemscore.Rot>
4.0403

> <Gold.Chemscore.Internal.Correction>
   9.000000E+99

> <Gold.Chemscore.Hbonds>
donor molecule, donor type, donor heavy atom, donor atom, acceptor molecule, acceptor atom, score
      L1  H    10    26       P1  8028  0.27
      L1  H    14    28       P1  7957  0.71
      P1  H  7997  8008       L1    17  0.60
      P1  H 10752 10765       L1     3  0.28

> <Gold.Chemscore.Hbond.Weighted>
-8.9548

> <Gold.Chemscore.Metal.Weighted>
-0.0000

> <Gold.Chemscore.Lipo.Weighted>
-1.8536

> <Gold.Chemscore.Internal_Hbond.Weighted>
0.0000

> <Gold.Chemscore.DEClash.Weighted>
0.1071

> <Gold.Chemscore.DEInternal.Weighted>
2.3309

> <Gold.Chemscore.Rot.Weighted>
10.3431

> <Gold.Chemscore.Internal.Correction.Weighted>
   9.000000E+99

> <Gold.Protein.RotatedTorsions>
[ 6907 6896 6895 6894 ] final   33.93 input  -60.11 | X-H torsion
[ 7974 7965 7964 7962 ] final   59.80 input  175.53 | X-H torsion
[ 8008 7997 7996 7995 ] final  -32.70 input   59.86 | X-H torsion
[ 10167 10162 10161 10158 ] final  127.18 input  -65.29 | X-H torsion
[ 10718 10713 10712 10709 ] final  -13.24 input   66.30 | X-H torsion
[ 10763 10752 10751 10750 ] final  148.74 input  -60.55 | X-H torsion
[ 11005 11000 10999 10996 ] final  -65.59 input  -57.11 | X-H torsion

> <Gold.Protein.ActiveResidues>
 VAL166  LYS551  ARG553  GLY616  TRP617  ASP618  TYR619  PRO620  LYS621  CYS622 
 ASP623  PHE694  ASN695  SER759  ASP760  ASP761  ALA762  ILE779  LEU786  VAL792 
 PHE793  MET794  SER795  GLU796  ALA797  LYS798  CYS799  TRP800  GLU811  SER814 

> <Gold.Protein.RotatedAtoms>
  152.0953  134.9379  160.0570 H   0  0  0  0  0  0  0  0  0  0  0  0  # atno 6907 bound_to 6896
  152.0614  133.4059  159.4428 H   0  0  0  0  0  0  0  0  0  0  0  0  # atno 6908 bound_to 6896
  150.6838  134.3116  159.4792 H   0  0  0  0  0  0  0  0  0  0  0  0  # atno 6909 bound_to 6896
  145.9031  139.3597  143.0580 H   0  0  0  0  0  0  0  0  0  0  0  0  # atno 7974 bound_to 7965
  154.4171  140.1730  156.1770 H   0  0  0  0  0  0  0  0  0  0  0  0  # atno 8008 bound_to 7997
  155.9713  140.3385  155.6555 H   0  0  0  0  0  0  0  0  0  0  0  0  # atno 8009 bound_to 7997
  155.6621  140.0702  157.2541 H   0  0  0  0  0  0  0  0  0  0  0  0  # atno 8010 bound_to 7997
  139.5592  144.6870  151.4093 H   0  0  0  0  0  0  0  0  0  0  0  0  # atno 10167 bound_to 10162
  156.6331  130.4907  149.6122 H   0  0  0  0  0  0  0  0  0  0  0  0  # atno 10718 bound_to 10713
  154.0597  135.2875  155.3327 H   0  0  0  0  0  0  0  0  0  0  0  0  # atno 10763 bound_to 10752
  154.6816  135.5261  153.8274 H   0  0  0  0  0  0  0  0  0  0  0  0  # atno 10764 bound_to 10752
  153.0527  135.6583  154.0786 H   0  0  0  0  0  0  0  0  0  0  0  0  # atno 10765 bound_to 10752
  141.1459  133.6684  156.6010 H   0  0  0  0  0  0  0  0  0  0  0  0  # atno 11005 bound_to 11000
  145.8765  140.9388  143.0623 LP  0  0  0  0  0  0  0  0  0  0  0  0  # atno 17320 bound_to 7965
  144.6737  140.0724  143.7472 LP  0  0  0  0  0  0  0  0  0  0  0  0  # atno 17321 bound_to 7965
  140.6869  143.7953  150.7199 LP  0  0  0  0  0  0  0  0  0  0  0  0  # atno 17342 bound_to 10162
  140.1423  143.4430  152.2185 LP  0  0  0  0  0  0  0  0  0  0  0  0  # atno 17343 bound_to 10162
  156.2219  130.6742  151.1376 LP  0  0  0  0  0  0  0  0  0  0  0  0  # atno 17370 bound_to 10713
  157.7194  131.0691  150.6198 LP  0  0  0  0  0  0  0  0  0  0  0  0  # atno 17371 bound_to 10713
  140.3689  134.7623  157.4585 LP  0  0  0  0  0  0  0  0  0  0  0  0  # atno 17394 bound_to 11000
  140.0726  134.5841  155.8625 LP  0  0  0  0  0  0  0  0  0  0  0  0  # atno 17395 bound_to 11000

$$$$
