AV-unprocessed.smi:2008|AV-procd|sdf|8141|dock5
  -GOLD-   2272010383D 1   1.00000     0.00000
 Structure written by MMmdl.
 46 47  0  0  0  0  0  0  0  0  2 V2000
  151.9444  140.8475  157.8302 C   0  0  0  0  0  0  0  0  0  0  0  0
  152.1349  140.5593  156.4494 O   0  0  0  0  0  0  0  0  0  0  0  0
  151.5740  139.4075  155.9371 C   0  0  0  0  0  0  0  0  0  0  0  0
  151.1324  138.4156  156.8348 C   0  0  0  0  0  0  0  0  0  0  0  0
  150.5615  137.2357  156.3206 C   0  0  0  0  0  0  0  0  0  0  0  0
  150.4415  137.0878  154.9178 C   0  0  0  0  0  0  0  0  0  0  0  0
  149.9020  135.9432  154.2693 N   0  0  0  0  0  0  0  0  0  0  0  0
  149.9364  134.6574  154.6593 C   0  0  0  0  0  0  0  0  0  0  0  0
  150.4344  134.2388  155.7038 O   0  0  0  0  0  0  0  0  0  0  0  0
  149.3396  133.8609  153.7609 N   0  0  0  0  0  0  0  0  0  0  0  0
  149.2134  132.4137  153.8908 C   0  0  0  0  0  0  0  0  0  0  0  0
  147.7361  131.9734  153.8579 C   0  0  0  0  0  0  0  0  0  0  0  0
  147.2000  131.8993  152.4692 N   0  3  2  0  0  0  0  0  0  0  0  0
  146.9107  133.2652  151.9435 C   0  0  0  0  0  0  0  0  0  0  0  0
  146.4814  133.2415  150.4714 C   0  0  0  0  0  0  0  0  0  0  0  0
  145.2490  132.3558  150.2941 C   0  0  0  0  0  0  0  0  0  0  0  0
  145.5555  130.9549  150.8279 C   0  0  0  0  0  0  0  0  0  0  0  0
  146.0304  130.9751  152.2992 C   0  0  1  0  0  0  0  0  0  0  0  0
  146.3381  129.5225  152.7228 C   0  0  0  0  0  0  0  0  0  0  0  0
  150.9228  138.1361  154.1063 C   0  0  0  0  0  0  0  0  0  0  0  0
  151.4723  139.2689  154.5923 N   0  0  0  0  0  0  0  0  0  0  0  0
  152.4470  141.7828  158.0757 H   0  0  0  0  0  0  0  0  0  0  0  0
  152.3689  140.0679  158.4643 H   0  0  0  0  0  0  0  0  0  0  0  0
  150.8869  140.9678  158.0696 H   0  0  0  0  0  0  0  0  0  0  0  0
  151.2349  138.5549  157.9009 H   0  0  0  0  0  0  0  0  0  0  0  0
  150.2432  136.4715  157.0118 H   0  0  0  0  0  0  0  0  0  0  0  0
  149.3941  136.1336  153.4179 H   0  0  0  0  0  0  0  0  0  0  0  0
  148.9471  134.2841  152.9324 H   0  0  0  0  0  0  0  0  0  0  0  0
  149.8004  131.9342  153.1075 H   0  0  0  0  0  0  0  0  0  0  0  0
  149.6652  132.1185  154.8383 H   0  0  0  0  0  0  0  0  0  0  0  0
  147.6910  131.0110  154.3596 H   0  0  0  0  0  0  0  0  0  0  0  0
  147.1121  132.6428  154.4521 H   0  0  0  0  0  0  0  0  0  0  0  0
  146.1268  133.7270  152.5465 H   0  0  0  0  0  0  0  0  0  0  0  0
  147.7874  133.9048  152.0350 H   0  0  0  0  0  0  0  0  0  0  0  0
  146.2637  134.2539  150.1299 H   0  0  0  0  0  0  0  0  0  0  0  0
  147.2997  132.8728  149.8512 H   0  0  0  0  0  0  0  0  0  0  0  0
  144.4002  132.7828  150.8298 H   0  0  0  0  0  0  0  0  0  0  0  0
  144.9659  132.3066  149.2422 H   0  0  0  0  0  0  0  0  0  0  0  0
  144.6648  130.3329  150.7302 H   0  0  0  0  0  0  0  0  0  0  0  0
  146.3202  130.4926  150.2016 H   0  0  0  0  0  0  0  0  0  0  0  0
  145.2127  131.3481  152.9182 H   0  0  0  0  0  0  0  0  0  0  0  0
  145.5361  128.8510  152.4146 H   0  0  0  0  0  0  0  0  0  0  0  0
  146.4229  129.4037  153.8018 H   0  0  0  0  0  0  0  0  0  0  0  0
  147.2591  129.1606  152.2649 H   0  0  0  0  0  0  0  0  0  0  0  0
  150.8643  138.0666  153.0298 H   0  0  0  0  0  0  0  0  0  0  0  0
  147.9388  131.5148  151.8979 H   0  0  0  0  0  0  0  0  0  0  0  0
  1  2  1  0  0  0  0
  1 22  1  0  0  0  0
  1 23  1  0  0  0  0
  1 24  1  0  0  0  0
  2  3  1  0  0  0  0
  3 21  1  0  0  0  0
  3  4  2  0  0  0  0
  4  5  1  0  0  0  0
  4 25  1  0  0  0  0
  5  6  2  0  0  0  0
  5 26  1  0  0  0  0
  6  7  1  0  0  0  0
  6 20  1  0  0  0  0
  7  8  1  0  0  0  0
  7 27  1  0  0  0  0
  8  9  2  0  0  0  0
  8 10  1  0  0  0  0
 10 11  1  0  0  0  0
 10 28  1  0  0  0  0
 11 12  1  0  0  0  0
 11 29  1  0  0  0  0
 11 30  1  0  0  0  0
 12 13  1  0  0  0  0
 12 31  1  0  0  0  0
 12 32  1  0  0  0  0
 13 18  1  0  0  0  0
 13 14  1  0  0  0  0
 13 46  1  0  0  0  0
 14 15  1  0  0  0  0
 14 33  1  0  0  0  0
 14 34  1  0  0  0  0
 15 16  1  0  0  0  0
 15 35  1  0  0  0  0
 15 36  1  0  0  0  0
 16 17  1  0  0  0  0
 16 37  1  0  0  0  0
 16 38  1  0  0  0  0
 17 18  1  0  0  0  0
 17 39  1  0  0  0  0
 17 40  1  0  0  0  0
 18 19  1  0  0  0  0
 18 41  1  0  0  0  0
 19 42  1  0  0  0  0
 19 43  1  0  0  0  0
 19 44  1  0  0  0  0
 20 21  2  0  0  0  0
 20 45  1  0  0  0  0
M  CHG  1  13   1
M  END
> <s_m_source_file>
AV-unprocessed.smi

> <i_m_source_file_index>
2008

> <i_lp_mmshare_version>
43012

> <i_f3d_flags>
0

> <s_epik_input>
W0NIM11PYzFbY0hdW2NIXWMoW2NIXW4xKVtOSF1DKD1PKVtOSF1bQ0gyXVtDSDJdTjJbQ0gyXVtDSDJdW0NIMl1bQ0gyXVtDQEhdMltDSDNd

> <s_epik_cmdline>
J2VwaWtfcHl0aG9uJywgJy1waCcsICc3LjAnLCAnLXRuJywgJzgnLCAnLW1hJywgJzIwMCcsICctbWV0YWxfYmluZGluZycsICctaW1hZScsICc8aW5maWxlLm1hZT4nLCAnLW9tYWUnLCAnPG91dGZpbGUubWFlPic=

> <r_lp_tautomer_probability>
1

> <r_epik_Ionization_Penalty>
0.00219526

> <r_epik_Ionization_Penalty_Charging>
0.00211816

> <r_epik_Ionization_Penalty_Neutral>
7.71003e-05

> <r_epik_State_Penalty>
0.00145254

> <r_epik_Charging_Adjusted_Penalty>
0.0035707

> <i_epik_Tot_Q>
1

> <i_epik_Tot_abs_Q>
1

> <r_epik_Metal_State_Penalty>
-0

> <b_epik_Metal_Only>
0

> <s_lp_Force_Field>
OPLS_2005

> <r_lp_Energy>
23.4607

> <b_lp_Chiralities_Consistent>
1

> <s_lp_Variant>
AV-unprocessed.smi:2008-1

> <Gold.Version>
5.8.1

> <Gold.Id.Protein>
6NUR|6NUR_protein|mol2

> <Gold.PLP.Fitness>
48.9280

> <Gold.PLP.PLP>
-35.2220

> <Gold.PLP.part.hbond>
-5.9514

> <Gold.PLP.part.metal>
0.0000

> <Gold.PLP.part.buried>
-2.3249

> <Gold.PLP.part.nonpolar>
-26.8462

> <Gold.PLP.part.repulsive>
0.1908

> <Gold.PLP.ligand.clash>
0.0000

> <Gold.PLP.ligand.torsion>
0.7056

> <Gold.PLP.Chemscore.Hbond>
4.1507

> <Gold.PLP.Chemscore.CHOScore>
0.8651

> <Gold.PLP.Chemscore.Metal>
0.0000

> <Gold.Chemscore.Hbonds>
donor molecule, donor type, donor heavy atom, donor atom, acceptor molecule, acceptor atom, score
      L1  H     7    27       P1  7948  1.00
      L1  H    10    28       P1  7948  0.21
      L1  H    13    46       P1 10747  0.99
      P1  H  7989  7998       L1    21  1.00
      P1  H  7997  8009       L1     2  0.45
      L1  C    20    45       P1  7948  0.07
      L1  C    20    45       P1  7949  0.76

> <Gold.PLP.Chemscore.Internal.Correction>
0.0698

> <Gold.Rescore>
     Score         DG    S(hbond)    S(metal)    S(lipo)     H(rot)  DE(clash)    DE(int)     intcor
     18.49     -19.93       2.51        0.00      89.18       1.71       0.05       1.39       ----

> <Gold.Chemscore.Fitness>
18.4874

> <Gold.Chemscore.DG>
-19.9332

> <Gold.Chemscore.ZeroCoef>
-5.4800

> <Gold.Chemscore.Hbond>
2.5145

> <Gold.Chemscore.Metal>
0.0000

> <Gold.Chemscore.Lipo>
89.1801

> <Gold.Chemscore.Internal_Hbond>
0.0000

> <Gold.Chemscore.DEClash>
0.0520

> <Gold.Chemscore.DEInternal>
1.3939

> <Gold.Chemscore.Rot>
1.7107

> <Gold.Chemscore.Internal.Correction>
   9.000000E+99

> <Gold.Chemscore.Hbonds>
donor molecule, donor type, donor heavy atom, donor atom, acceptor molecule, acceptor atom, score
      L1  H     7    27       P1  7948  0.59
      L1  H    10    28       P1  7948  0.01
      L1  H    13    46       P1 10747  0.93
      P1  H  7989  7998       L1    21  0.93
      P1  H  7997  8009       L1     2  0.05

> <Gold.Chemscore.Hbond.Weighted>
-8.3986

> <Gold.Chemscore.Metal.Weighted>
-0.0000

> <Gold.Chemscore.Lipo.Weighted>
-10.4341

> <Gold.Chemscore.Internal_Hbond.Weighted>
0.0000

> <Gold.Chemscore.DEClash.Weighted>
0.0520

> <Gold.Chemscore.DEInternal.Weighted>
1.3939

> <Gold.Chemscore.Rot.Weighted>
4.3794

> <Gold.Chemscore.Internal.Correction.Weighted>
   9.000000E+99

> <Gold.Protein.RotatedTorsions>
[ 6907 6896 6895 6894 ] final    9.00 input  -60.11 | X-H torsion
[ 7974 7965 7964 7962 ] final -119.88 input  175.53 | X-H torsion
[ 8008 7997 7996 7995 ] final -167.69 input   59.86 | X-H torsion
[ 10167 10162 10161 10158 ] final   77.64 input  -65.29 | X-H torsion
[ 10718 10713 10712 10709 ] final -139.25 input   66.30 | X-H torsion
[ 10763 10752 10751 10750 ] final  -50.31 input  -60.55 | X-H torsion
[ 11005 11000 10999 10996 ] final -172.65 input  -57.11 | X-H torsion

> <Gold.Protein.ActiveResidues>
 VAL166  LYS551  ARG553  GLY616  TRP617  ASP618  TYR619  PRO620  LYS621  CYS622 
 ASP623  PHE694  ASN695  SER759  ASP760  ASP761  ALA762  ILE779  LEU786  VAL792 
 PHE793  MET794  SER795  GLU796  ALA797  LYS798  CYS799  TRP800  GLU811  SER814 

> <Gold.Protein.RotatedAtoms>
  151.7151  135.0905  160.0274 H   0  0  0  0  0  0  0  0  0  0  0  0  # atno 6907 bound_to 6896
  152.3637  133.6325  159.6043 H   0  0  0  0  0  0  0  0  0  0  0  0  # atno 6908 bound_to 6896
  150.7623  133.9298  159.3465 H   0  0  0  0  0  0  0  0  0  0  0  0  # atno 6909 bound_to 6896
  145.0576  140.8266  143.4172 H   0  0  0  0  0  0  0  0  0  0  0  0  # atno 7974 bound_to 7965
  155.8811  140.1009  157.1484 H   0  0  0  0  0  0  0  0  0  0  0  0  # atno 8008 bound_to 7997
  154.4005  140.1329  156.4261 H   0  0  0  0  0  0  0  0  0  0  0  0  # atno 8009 bound_to 7997
  155.7642  140.3462  155.5215 H   0  0  0  0  0  0  0  0  0  0  0  0  # atno 8010 bound_to 7997
  139.9794  144.5837  150.7914 H   0  0  0  0  0  0  0  0  0  0  0  0  # atno 10167 bound_to 10162
  156.3086  130.7469  151.1539 H   0  0  0  0  0  0  0  0  0  0  0  0  # atno 10718 bound_to 10713
  154.1084  135.6553  153.4880 H   0  0  0  0  0  0  0  0  0  0  0  0  # atno 10763 bound_to 10752
  153.0265  135.5241  154.7217 H   0  0  0  0  0  0  0  0  0  0  0  0  # atno 10764 bound_to 10752
  154.6389  135.2986  155.0096 H   0  0  0  0  0  0  0  0  0  0  0  0  # atno 10765 bound_to 10752
  140.4946  134.5952  157.4966 H   0  0  0  0  0  0  0  0  0  0  0  0  # atno 11005 bound_to 11000
  145.1449  139.2549  143.5471 LP  0  0  0  0  0  0  0  0  0  0  0  0  # atno 17320 bound_to 7965
  146.3522  140.1136  142.8603 LP  0  0  0  0  0  0  0  0  0  0  0  0  # atno 17321 bound_to 7965
  140.7494  143.2938  151.3258 LP  0  0  0  0  0  0  0  0  0  0  0  0  # atno 17342 bound_to 10162
  139.6421  144.0520  152.2562 LP  0  0  0  0  0  0  0  0  0  0  0  0  # atno 17343 bound_to 10162
  157.7385  131.0539  150.5287 LP  0  0  0  0  0  0  0  0  0  0  0  0  # atno 17370 bound_to 10713
  156.5424  130.4211  149.6147 LP  0  0  0  0  0  0  0  0  0  0  0  0  # atno 17371 bound_to 10713
  139.9749  134.7232  155.9969 LP  0  0  0  0  0  0  0  0  0  0  0  0  # atno 17394 bound_to 11000
  141.1467  133.6555  156.3888 LP  0  0  0  0  0  0  0  0  0  0  0  0  # atno 17395 bound_to 11000

$$$$
