AV-unprocessed.smi:2279|AV-procd|sdf|9183|dock4
  -GOLD-   2272012403D 1   1.00000     0.00000
 Structure written by MMmdl.
 58 60  0  0  0  0  0  0  0  0  3 V2000
  153.6643  140.7903  159.2843 C   0  0  0  0  0  0  0  0  0  0  0  0
  152.6543  141.8469  158.8890 C   0  0  0  0  0  0  0  0  0  0  0  0
  152.6522  143.1131  159.5050 C   0  0  0  0  0  0  0  0  0  0  0  0
  151.6863  144.0516  159.0920 C   0  0  0  0  0  0  0  0  0  0  0  0
  151.6262  145.4319  159.7112 C   0  0  0  0  0  0  0  0  0  0  0  0
  150.7678  143.7917  158.1370 N   0  0  0  0  0  0  0  0  0  0  0  0
  150.7604  142.5756  157.5369 C   0  0  0  0  0  0  0  0  0  0  0  0
  149.8379  142.2033  156.5234 N   0  0  0  0  0  0  0  0  0  0  0  0
  149.4725  140.9650  156.1472 C   0  0  0  0  0  0  0  0  0  0  0  0
  149.8946  139.9182  156.6391 O   0  0  0  0  0  0  0  0  0  0  0  0
  148.5746  141.0075  155.1514 N   0  0  0  0  0  0  0  0  0  0  0  0
  147.9656  139.8487  154.5035 C   0  0  2  0  0  0  0  0  0  0  0  0
  147.5059  140.2141  153.0891 C   0  0  0  0  0  0  0  0  0  0  0  0
  146.7867  139.0344  152.4143 C   0  0  0  0  0  0  0  0  0  0  0  0
  145.6201  138.5448  153.2099 N   0  3  1  0  0  0  0  0  0  0  0  0
  144.8522  137.4443  152.5303 C   0  0  2  0  0  0  0  0  0  0  0  0
  143.9303  136.6690  153.5089 C   0  0  0  0  0  0  0  0  0  0  0  0
  143.2008  135.4932  152.8366 C   0  0  0  0  0  0  0  0  0  0  0  0
  144.1593  134.5541  152.2119 N   0  3  1  0  0  0  0  0  0  0  0  0
  143.4959  133.3508  151.6641 C   0  0  0  0  0  0  0  0  0  0  0  0
  145.0039  135.2402  151.2086 C   0  0  0  0  0  0  0  0  0  0  0  0
  145.7797  136.4095  151.8391 C   0  0  0  0  0  0  0  0  0  0  0  0
  146.0428  138.2021  154.6020 C   0  0  0  0  0  0  0  0  0  0  0  0
  146.7521  139.3707  155.3061 C   0  0  0  0  0  0  0  0  0  0  0  0
  151.6949  141.5773  157.8924 C   0  0  0  0  0  0  0  0  0  0  0  0
  154.3341  141.1524  160.0648 H   0  0  0  0  0  0  0  0  0  0  0  0
  154.2680  140.5043  158.4225 H   0  0  0  0  0  0  0  0  0  0  0  0
  153.1546  139.9019  159.6574 H   0  0  0  0  0  0  0  0  0  0  0  0
  153.3711  143.3587  160.2731 H   0  0  0  0  0  0  0  0  0  0  0  0
  152.3988  145.5591  160.4701 H   0  0  0  0  0  0  0  0  0  0  0  0
  150.6564  145.5941  160.1825 H   0  0  0  0  0  0  0  0  0  0  0  0
  151.7699  146.1967  158.9476 H   0  0  0  0  0  0  0  0  0  0  0  0
  149.4070  142.9697  156.0283 H   0  0  0  0  0  0  0  0  0  0  0  0
  148.2900  141.9159  154.8151 H   0  0  0  0  0  0  0  0  0  0  0  0
  148.6803  139.0263  154.4337 H   0  0  0  0  0  0  0  0  0  0  0  0
  146.8370  141.0755  153.1237 H   0  0  0  0  0  0  0  0  0  0  0  0
  148.3637  140.5137  152.4854 H   0  0  0  0  0  0  0  0  0  0  0  0
  146.4740  139.3902  151.4355 H   0  0  0  0  0  0  0  0  0  0  0  0
  147.4859  138.2129  152.2495 H   0  0  0  0  0  0  0  0  0  0  0  0
  144.2252  137.9041  151.7643 H   0  0  0  0  0  0  0  0  0  0  0  0
  144.5141  136.2999  154.3535 H   0  0  0  0  0  0  0  0  0  0  0  0
  143.1563  137.3152  153.9195 H   0  0  0  0  0  0  0  0  0  0  0  0
  142.6048  134.9631  153.5807 H   0  0  0  0  0  0  0  0  0  0  0  0
  142.5060  135.8643  152.0810 H   0  0  0  0  0  0  0  0  0  0  0  0
  142.8068  133.6136  150.8601 H   0  0  0  0  0  0  0  0  0  0  0  0
  142.9328  132.8335  152.4417 H   0  0  0  0  0  0  0  0  0  0  0  0
  144.2326  132.6511  151.2681 H   0  0  0  0  0  0  0  0  0  0  0  0
  145.7088  134.5276  150.7781 H   0  0  0  0  0  0  0  0  0  0  0  0
  144.3795  135.6015  150.3895 H   0  0  0  0  0  0  0  0  0  0  0  0
  146.3523  136.8668  151.0339 H   0  0  0  0  0  0  0  0  0  0  0  0
  146.5019  136.0210  152.5588 H   0  0  0  0  0  0  0  0  0  0  0  0
  145.1864  137.9494  155.2226 H   0  0  0  0  0  0  0  0  0  0  0  0
  146.6935  137.3262  154.5801 H   0  0  0  0  0  0  0  0  0  0  0  0
  147.0653  139.0610  156.3041 H   0  0  0  0  0  0  0  0  0  0  0  0
  146.0477  140.1925  155.4450 H   0  0  0  0  0  0  0  0  0  0  0  0
  151.6795  140.6118  157.4074 H   0  0  0  0  0  0  0  0  0  0  0  0
  144.9872  139.3277  153.2926 H   0  0  0  0  0  0  0  0  0  0  0  0
  144.7754  134.2311  152.9446 H   0  0  0  0  0  0  0  0  0  0  0  0
  1  2  1  0  0  0  0
  1 26  1  0  0  0  0
  1 27  1  0  0  0  0
  1 28  1  0  0  0  0
  2 25  1  0  0  0  0
  2  3  2  0  0  0  0
  3  4  1  0  0  0  0
  3 29  1  0  0  0  0
  4  5  1  0  0  0  0
  4  6  2  0  0  0  0
  5 30  1  0  0  0  0
  5 31  1  0  0  0  0
  5 32  1  0  0  0  0
  6  7  1  0  0  0  0
  7  8  1  0  0  0  0
  7 25  2  0  0  0  0
  8  9  1  0  0  0  0
  8 33  1  0  0  0  0
  9 10  2  0  0  0  0
  9 11  1  0  0  0  0
 11 12  1  0  0  0  0
 11 34  1  0  0  0  0
 12 24  1  0  0  0  0
 12 13  1  0  0  0  0
 12 35  1  0  0  0  0
 13 14  1  0  0  0  0
 13 36  1  0  0  0  0
 13 37  1  0  0  0  0
 14 15  1  0  0  0  0
 14 38  1  0  0  0  0
 14 39  1  0  0  0  0
 15 16  1  0  0  0  0
 15 23  1  0  0  0  0
 15 57  1  0  0  0  0
 16 22  1  0  0  0  0
 16 17  1  0  0  0  0
 16 40  1  0  0  0  0
 17 18  1  0  0  0  0
 17 41  1  0  0  0  0
 17 42  1  0  0  0  0
 18 19  1  0  0  0  0
 18 43  1  0  0  0  0
 18 44  1  0  0  0  0
 19 20  1  0  0  0  0
 19 21  1  0  0  0  0
 19 58  1  0  0  0  0
 20 45  1  0  0  0  0
 20 46  1  0  0  0  0
 20 47  1  0  0  0  0
 21 22  1  0  0  0  0
 21 48  1  0  0  0  0
 21 49  1  0  0  0  0
 22 50  1  0  0  0  0
 22 51  1  0  0  0  0
 23 24  1  0  0  0  0
 23 52  1  0  0  0  0
 23 53  1  0  0  0  0
 24 54  1  0  0  0  0
 24 55  1  0  0  0  0
 25 56  1  0  0  0  0
M  CHG  1  15   1
M  CHG  1  19   1
M  END
> <s_m_source_file>
AV-unprocessed.smi

> <i_m_source_file_index>
2279

> <i_lp_mmshare_version>
43012

> <i_f3d_flags>
0

> <s_epik_input>
W0NIM11jMVtjSF1jKFtDSDNdKW5jKFtjSF0xKVtOSF1DKD1PKVtOSF1bQ0hdMltDSDJdW0NIMl1OKFtDSDJdW0NIMl0yKVtDSF0zW0NIMl1bQ0gyXU4oW0NIM10pW0NIMl1bQ0gyXTM=

> <s_epik_cmdline>
J2VwaWtfcHl0aG9uJywgJy1waCcsICc3LjAnLCAnLXRuJywgJzgnLCAnLW1hJywgJzIwMCcsICctbWV0YWxfYmluZGluZycsICctaW1hZScsICc8aW5maWxlLm1hZT4nLCAnLW9tYWUnLCAnPG91dGZpbGUubWFlPic=

> <r_epik_Ionization_Penalty>
0.180973

> <r_epik_Ionization_Penalty_Charging>
0.180787

> <r_epik_Ionization_Penalty_Neutral>
0.000186186

> <r_epik_State_Penalty>
0.153592

> <r_epik_Charging_Adjusted_Penalty>
0.334379

> <i_epik_Tot_Q>
2

> <i_epik_Tot_abs_Q>
2

> <r_epik_Metal_State_Penalty>
0.153604

> <b_epik_Metal_Only>
0

> <s_lp_Force_Field>
OPLS_2005

> <r_lp_Energy>
41.0771

> <b_lp_Chiralities_Consistent>
1

> <s_lp_Variant>
AV-unprocessed.smi:2279-1

> <Gold.Version>
5.8.1

> <Gold.Id.Protein>
6NUR|6NUR_protein|mol2

> <Gold.PLP.Fitness>
49.2319

> <Gold.PLP.PLP>
-41.9653

> <Gold.PLP.part.hbond>
-2.0000

> <Gold.PLP.part.metal>
0.0000

> <Gold.PLP.part.buried>
-2.4077

> <Gold.PLP.part.nonpolar>
-38.2121

> <Gold.PLP.part.repulsive>
0.2962

> <Gold.PLP.ligand.clash>
0.0000

> <Gold.PLP.ligand.torsion>
0.8827

> <Gold.PLP.Chemscore.Hbond>
3.0000

> <Gold.PLP.Chemscore.CHOScore>
0.0000

> <Gold.PLP.Chemscore.Metal>
0.0000

> <Gold.Chemscore.Hbonds>
donor molecule, donor type, donor heavy atom, donor atom, acceptor molecule, acceptor atom, score
      L1  H     8    33       P1  8028  1.00
      L1  H    15    57       P1 10175  1.92

> <Gold.PLP.Chemscore.Internal.Correction>
0.0319

> <Gold.Rescore>
     Score         DG    S(hbond)    S(metal)    S(lipo)     H(rot)  DE(clash)    DE(int)     intcor
     19.44     -21.82       1.89        0.00     112.24       1.21       0.08       2.31       ----

> <Gold.Chemscore.Fitness>
19.4383

> <Gold.Chemscore.DG>
-21.8224

> <Gold.Chemscore.ZeroCoef>
-5.4800

> <Gold.Chemscore.Hbond>
1.8881

> <Gold.Chemscore.Metal>
0.0000

> <Gold.Chemscore.Lipo>
112.2424

> <Gold.Chemscore.Internal_Hbond>
0.0000

> <Gold.Chemscore.DEClash>
0.0773

> <Gold.Chemscore.DEInternal>
2.3068

> <Gold.Chemscore.Rot>
1.2095

> <Gold.Chemscore.Internal.Correction>
   9.000000E+99

> <Gold.Chemscore.Hbonds>
donor molecule, donor type, donor heavy atom, donor atom, acceptor molecule, acceptor atom, score
      L1  H     8    33       P1  8028  0.99
      L1  H    15    57       P1 10175  0.92

> <Gold.Chemscore.Hbond.Weighted>
-6.3063

> <Gold.Chemscore.Metal.Weighted>
-0.0000

> <Gold.Chemscore.Lipo.Weighted>
-13.1324

> <Gold.Chemscore.Internal_Hbond.Weighted>
0.0000

> <Gold.Chemscore.DEClash.Weighted>
0.0773

> <Gold.Chemscore.DEInternal.Weighted>
2.3068

> <Gold.Chemscore.Rot.Weighted>
3.0963

> <Gold.Chemscore.Internal.Correction.Weighted>
   9.000000E+99

> <Gold.Protein.RotatedTorsions>
[ 6907 6896 6895 6894 ] final  -15.40 input  -60.11 | X-H torsion
[ 7974 7965 7964 7962 ] final  119.67 input  175.53 | X-H torsion
[ 8008 7997 7996 7995 ] final  177.65 input   59.86 | X-H torsion
[ 10167 10162 10161 10158 ] final  -38.18 input  -65.29 | X-H torsion
[ 10718 10713 10712 10709 ] final   65.77 input   66.30 | X-H torsion
[ 10763 10752 10751 10750 ] final   91.37 input  -60.55 | X-H torsion
[ 11005 11000 10999 10996 ] final  -22.54 input  -57.11 | X-H torsion

> <Gold.Protein.ActiveResidues>
 VAL166  LYS551  ARG553  GLY616  TRP617  ASP618  TYR619  PRO620  LYS621  CYS622 
 ASP623  PHE694  ASN695  SER759  ASP760  ASP761  ALA762  ILE779  LEU786  VAL792 
 PHE793  MET794  SER795  GLU796  ALA797  LYS798  CYS799  TRP800  GLU811  SER814 

> <Gold.Protein.RotatedAtoms>
  151.3246  135.0827  159.9317 H   0  0  0  0  0  0  0  0  0  0  0  0  # atno 6907 bound_to 6896
  152.5249  133.9605  159.7725 H   0  0  0  0  0  0  0  0  0  0  0  0  # atno 6908 bound_to 6896
  150.9932  133.6076  159.2735 H   0  0  0  0  0  0  0  0  0  0  0  0  # atno 6909 bound_to 6896
  145.1403  139.3272  143.4619 H   0  0  0  0  0  0  0  0  0  0  0  0  # atno 7974 bound_to 7965
  156.0634  140.1353  156.9915 H   0  0  0  0  0  0  0  0  0  0  0  0  # atno 8008 bound_to 7997
  154.4493  140.0987  156.6621 H   0  0  0  0  0  0  0  0  0  0  0  0  # atno 8009 bound_to 7997
  155.5342  140.3459  155.4435 H   0  0  0  0  0  0  0  0  0  0  0  0  # atno 8010 bound_to 7997
  140.7099  143.3293  151.2605 H   0  0  0  0  0  0  0  0  0  0  0  0  # atno 10167 bound_to 10162
  157.6127  130.9232  150.0021 H   0  0  0  0  0  0  0  0  0  0  0  0  # atno 10718 bound_to 10713
  153.2075  135.4400  155.0340 H   0  0  0  0  0  0  0  0  0  0  0  0  # atno 10763 bound_to 10752
  154.8181  135.3325  154.7119 H   0  0  0  0  0  0  0  0  0  0  0  0  # atno 10764 bound_to 10752
  153.7559  135.6995  153.4991 H   0  0  0  0  0  0  0  0  0  0  0  0  # atno 10765 bound_to 10752
  140.8667  133.7750  156.0137 H   0  0  0  0  0  0  0  0  0  0  0  0  # atno 11005 bound_to 11000
  146.3505  140.1438  142.8594 LP  0  0  0  0  0  0  0  0  0  0  0  0  # atno 17320 bound_to 7965
  145.0539  140.9038  143.4979 LP  0  0  0  0  0  0  0  0  0  0  0  0  # atno 17321 bound_to 7965
  139.6771  143.9919  152.2787 LP  0  0  0  0  0  0  0  0  0  0  0  0  # atno 17342 bound_to 10162
  139.9536  144.6604  150.8147 LP  0  0  0  0  0  0  0  0  0  0  0  0  # atno 17343 bound_to 10162
  156.1236  130.3645  149.9846 LP  0  0  0  0  0  0  0  0  0  0  0  0  # atno 17370 bound_to 10713
  156.7921  130.9260  151.3646 LP  0  0  0  0  0  0  0  0  0  0  0  0  # atno 17371 bound_to 10713
  140.8621  134.2828  157.5230 LP  0  0  0  0  0  0  0  0  0  0  0  0  # atno 17394 bound_to 11000
  139.8709  134.9523  156.4112 LP  0  0  0  0  0  0  0  0  0  0  0  0  # atno 17395 bound_to 11000

$$$$
