AV-unprocessed.smi:208|AV-procd|sdf|1606|dock6
  -GOLD-   2262019523D 1   1.00000     0.00000
 Structure written by MMmdl.
 50 53  0  0  0  0  0  0  0  0  1 V2000
  152.5382  138.9720  155.1172 C   0  0  0  0  0  0  0  0  0  0  0  0
  151.9960  140.3201  155.6171 C   0  0  0  0  0  0  0  0  0  0  0  0
  151.3107  140.2731  157.0109 C   0  0  1  0  0  0  0  0  0  0  0  0
  152.3770  140.3853  158.1234 C   0  0  0  0  0  0  0  0  0  0  0  0
  153.1469  139.4374  158.2880 O   0  0  0  0  0  0  0  0  0  0  0  0
  152.4381  141.5011  158.8888 N   0  0  0  0  0  0  0  0  0  0  0  0
  153.4360  141.6216  159.9528 C   0  0  0  0  0  0  0  0  0  0  0  0
  151.5325  142.6497  158.7587 C   0  0  0  0  0  0  0  0  0  0  0  0
  150.7050  142.6566  157.4659 C   0  0  0  0  0  0  0  0  0  0  0  0
  150.2689  141.3027  157.1399 N   0  0  0  0  0  0  0  0  0  0  0  0
  149.0956  141.1371  156.4731 C   0  0  0  0  0  0  0  0  0  0  0  0
  148.0732  142.0028  156.7072 N   0  0  0  0  0  0  0  0  0  0  0  0
  146.9218  141.8885  156.0403 C   0  0  0  0  0  0  0  0  0  0  0  0
  146.5821  140.9934  155.1122 N   0  0  0  0  0  0  0  0  0  0  0  0
  147.5931  140.1086  154.8834 C   0  0  0  0  0  0  0  0  0  0  0  0
  148.8709  140.1073  155.5137 C   0  0  0  0  0  0  0  0  0  0  0  0
  149.6299  139.0484  155.0291 N   0  0  0  0  0  0  0  0  0  0  0  0
  148.8561  138.4712  154.1524 C   0  0  0  0  0  0  0  0  0  0  0  0
  147.6096  139.0367  154.0074 N   0  0  0  0  0  0  0  0  0  0  0  0
  146.5569  138.5924  153.1054 C   0  0  0  0  0  0  0  0  0  0  0  0
  145.6604  137.4726  153.6708 C   0  0  0  0  0  0  0  0  0  0  0  0
  144.6269  137.0632  152.6005 C   0  0  0  0  0  0  0  0  0  0  0  0
  143.7048  138.0960  152.3141 O   0  0  0  0  0  0  0  0  0  0  0  0
  146.3812  136.3187  154.3837 C   0  0  0  0  0  0  0  0  0  0  0  0
  145.5809  136.4793  155.5755 O   0  0  0  0  0  0  0  0  0  0  0  0
  145.1061  137.7486  155.0764 C   0  0  0  0  0  0  0  0  0  0  0  0
  153.1349  139.1112  154.2157 H   0  0  0  0  0  0  0  0  0  0  0  0
  151.7401  138.2759  154.8653 H   0  0  0  0  0  0  0  0  0  0  0  0
  153.1754  138.4998  155.8651 H   0  0  0  0  0  0  0  0  0  0  0  0
  152.8487  140.9995  155.6550 H   0  0  0  0  0  0  0  0  0  0  0  0
  151.3237  140.7434  154.8706 H   0  0  0  0  0  0  0  0  0  0  0  0
  150.8765  139.2841  157.1439 H   0  0  0  0  0  0  0  0  0  0  0  0
  154.4401  141.6708  159.5293 H   0  0  0  0  0  0  0  0  0  0  0  0
  153.3909  140.7658  160.6282 H   0  0  0  0  0  0  0  0  0  0  0  0
  153.2853  142.5178  160.5559 H   0  0  0  0  0  0  0  0  0  0  0  0
  150.8538  142.6218  159.6124 H   0  0  0  0  0  0  0  0  0  0  0  0
  152.0907  143.5837  158.8363 H   0  0  0  0  0  0  0  0  0  0  0  0
  149.8613  143.3362  157.5953 H   0  0  0  0  0  0  0  0  0  0  0  0
  151.3021  143.0471  156.6412 H   0  0  0  0  0  0  0  0  0  0  0  0
  146.1660  142.6209  156.2828 H   0  0  0  0  0  0  0  0  0  0  0  0
  149.1728  137.6049  153.5899 H   0  0  0  0  0  0  0  0  0  0  0  0
  145.9592  139.4643  152.8365 H   0  0  0  0  0  0  0  0  0  0  0  0
  147.0261  138.2623  152.1777 H   0  0  0  0  0  0  0  0  0  0  0  0
  145.1218  136.7834  151.6700 H   0  0  0  0  0  0  0  0  0  0  0  0
  144.0460  136.1994  152.9242 H   0  0  0  0  0  0  0  0  0  0  0  0
  143.8743  138.4188  151.4421 H   0  0  0  0  0  0  0  0  0  0  0  0
  146.2443  135.3454  153.9113 H   0  0  0  0  0  0  0  0  0  0  0  0
  147.4358  136.5063  154.5875 H   0  0  0  0  0  0  0  0  0  0  0  0
  145.5873  138.5855  155.5852 H   0  0  0  0  0  0  0  0  0  0  0  0
  144.0209  137.8423  155.1252 H   0  0  0  0  0  0  0  0  0  0  0  0
  1  2  1  0  0  0  0
  1 27  1  0  0  0  0
  1 28  1  0  0  0  0
  1 29  1  0  0  0  0
  2  3  1  0  0  0  0
  2 30  1  0  0  0  0
  2 31  1  0  0  0  0
  3 10  1  0  0  0  0
  3  4  1  0  0  0  0
  3 32  1  0  0  0  0
  4  5  2  0  0  0  0
  4  6  1  0  0  0  0
  6  7  1  0  0  0  0
  6  8  1  0  0  0  0
  7 33  1  0  0  0  0
  7 34  1  0  0  0  0
  7 35  1  0  0  0  0
  8  9  1  0  0  0  0
  8 36  1  0  0  0  0
  8 37  1  0  0  0  0
  9 10  1  0  0  0  0
  9 38  1  0  0  0  0
  9 39  1  0  0  0  0
 10 11  1  0  0  0  0
 11 16  1  0  0  0  0
 11 12  2  0  0  0  0
 12 13  1  0  0  0  0
 13 14  2  0  0  0  0
 13 40  1  0  0  0  0
 14 15  1  0  0  0  0
 15 19  1  0  0  0  0
 15 16  2  0  0  0  0
 16 17  1  0  0  0  0
 17 18  2  0  0  0  0
 18 19  1  0  0  0  0
 18 41  1  0  0  0  0
 19 20  1  0  0  0  0
 20 21  1  0  0  0  0
 20 42  1  0  0  0  0
 20 43  1  0  0  0  0
 21 26  1  0  0  0  0
 21 22  1  0  0  0  0
 21 24  1  0  0  0  0
 22 23  1  0  0  0  0
 22 44  1  0  0  0  0
 22 45  1  0  0  0  0
 23 46  1  0  0  0  0
 24 25  1  0  0  0  0
 24 47  1  0  0  0  0
 24 48  1  0  0  0  0
 25 26  1  0  0  0  0
 26 49  1  0  0  0  0
 26 50  1  0  0  0  0
M  END
> <s_m_source_file>
AV-unprocessed.smi

> <i_m_source_file_index>
208

> <i_lp_mmshare_version>
43012

> <i_f3d_flags>
0

> <s_epik_input>
W0NIM11bQ0gyXVtDQEBIXTFDKD1PKU4oW0NIM10pW0NIMl1bQ0gyXU4xYyhuW2NIXW4yKWMoYzIzKW5bY0hdbjNbQ0gyXUM0KFtDSDJdW09IXSlbQ0gyXU9bQ0gyXTQ=

> <s_epik_cmdline>
J2VwaWtfcHl0aG9uJywgJy1waCcsICc3LjAnLCAnLXRuJywgJzgnLCAnLW1hJywgJzIwMCcsICctbWV0YWxfYmluZGluZycsICctaW1hZScsICc8aW5maWxlLm1hZT4nLCAnLW9tYWUnLCAnPG91dGZpbGUubWFlPic=

> <r_lp_tautomer_probability>
1

> <r_epik_Ionization_Penalty>
0.000581289

> <r_epik_Ionization_Penalty_Charging>
0

> <r_epik_Ionization_Penalty_Neutral>
0.000581289

> <r_epik_State_Penalty>
0.000280365

> <r_epik_Charging_Adjusted_Penalty>
0.000280365

> <i_epik_Tot_Q>
0

> <i_epik_Tot_abs_Q>
0

> <r_epik_Metal_State_Penalty>
-0

> <b_epik_Metal_Only>
0

> <s_lp_Force_Field>
OPLS_2005

> <r_lp_Energy>
42.9171

> <b_lp_Chiralities_Consistent>
1

> <s_lp_Variant>
AV-unprocessed.smi:208-2

> <Gold.Version>
5.8.1

> <Gold.Id.Protein>
6NUR|6NUR_protein|mol2

> <Gold.PLP.Fitness>
39.0593

> <Gold.PLP.PLP>
-31.7572

> <Gold.PLP.part.hbond>
-2.3845

> <Gold.PLP.part.metal>
0.0000

> <Gold.PLP.part.buried>
-3.4787

> <Gold.PLP.part.nonpolar>
-26.6733

> <Gold.PLP.part.repulsive>
1.0280

> <Gold.PLP.ligand.clash>
0.0105

> <Gold.PLP.ligand.torsion>
1.1021

> <Gold.PLP.Chemscore.Hbond>
2.0000

> <Gold.PLP.Chemscore.CHOScore>
1.0000

> <Gold.PLP.Chemscore.Metal>
0.0000

> <Gold.Chemscore.Hbonds>
donor molecule, donor type, donor heavy atom, donor atom, acceptor molecule, acceptor atom, score
      L1  H    23    46       P1 10171  1.00
      P1  H  7997  8008       L1     5  1.00
      L1  C    18    41       P1  7948  1.00

> <Gold.PLP.Chemscore.Internal.Correction>
0.5169

> <Gold.Rescore>
     Score         DG    S(hbond)    S(metal)    S(lipo)     H(rot)  DE(clash)    DE(int)     intcor
      8.01     -13.05       1.89        0.00      64.45       2.46       0.54       4.50       ----

> <Gold.Chemscore.Fitness>
8.0099

> <Gold.Chemscore.DG>
-13.0532

> <Gold.Chemscore.ZeroCoef>
-5.4800

> <Gold.Chemscore.Hbond>
1.8950

> <Gold.Chemscore.Metal>
0.0000

> <Gold.Chemscore.Lipo>
64.4544

> <Gold.Chemscore.Internal_Hbond>
0.0000

> <Gold.Chemscore.DEClash>
0.5418

> <Gold.Chemscore.DEInternal>
4.5015

> <Gold.Chemscore.Rot>
2.4598

> <Gold.Chemscore.Internal.Correction>
   9.000000E+99

> <Gold.Chemscore.Hbonds>
donor molecule, donor type, donor heavy atom, donor atom, acceptor molecule, acceptor atom, score
      L1  H    23    46       P1 10171  0.96
      P1  H  7997  8008       L1     5  0.28

> <Gold.Chemscore.Hbond.Weighted>
-6.3293

> <Gold.Chemscore.Metal.Weighted>
-0.0000

> <Gold.Chemscore.Lipo.Weighted>
-7.5412

> <Gold.Chemscore.Internal_Hbond.Weighted>
0.0000

> <Gold.Chemscore.DEClash.Weighted>
0.5418

> <Gold.Chemscore.DEInternal.Weighted>
4.5015

> <Gold.Chemscore.Rot.Weighted>
6.2972

> <Gold.Chemscore.Internal.Correction.Weighted>
   9.000000E+99

> <Gold.Protein.RotatedTorsions>
[ 6907 6896 6895 6894 ] final -133.80 input  -60.11 | X-H torsion
[ 7974 7965 7964 7962 ] final  123.51 input  175.53 | X-H torsion
[ 8008 7997 7996 7995 ] final  -96.09 input   59.86 | X-H torsion
[ 10167 10162 10161 10158 ] final    6.19 input  -65.29 | X-H torsion
[ 10718 10713 10712 10709 ] final  -49.40 input   66.30 | X-H torsion
[ 10763 10752 10751 10750 ] final -173.66 input  -60.55 | X-H torsion
[ 11005 11000 10999 10996 ] final   85.68 input  -57.11 | X-H torsion

> <Gold.Protein.ActiveResidues>
 VAL166  LYS551  ARG553  GLY616  TRP617  ASP618  TYR619  PRO620  LYS621  CYS622 
 ASP623  PHE694  ASN695  SER759  ASP760  ASP761  ALA762  ILE779  LEU786  VAL792 
 PHE793  MET794  SER795  GLU796  ALA797  LYS798  CYS799  TRP800  GLU811  SER814 

> <Gold.Protein.RotatedAtoms>
  150.9783  133.6272  159.2726 H   0  0  0  0  0  0  0  0  0  0  0  0  # atno 6907 bound_to 6896
  151.3536  135.0888  159.9421 H   0  0  0  0  0  0  0  0  0  0  0  0  # atno 6908 bound_to 6896
  152.5207  133.9370  159.7662 H   0  0  0  0  0  0  0  0  0  0  0  0  # atno 6909 bound_to 6896
  145.0951  139.3559  143.4841 H   0  0  0  0  0  0  0  0  0  0  0  0  # atno 7974 bound_to 7965
  154.7698  140.0474  157.1042 H   0  0  0  0  0  0  0  0  0  0  0  0  # atno 8008 bound_to 7997
  154.9834  140.3104  155.4917 H   0  0  0  0  0  0  0  0  0  0  0  0  # atno 8009 bound_to 7997
  156.2919  140.2232  156.4934 H   0  0  0  0  0  0  0  0  0  0  0  0  # atno 8010 bound_to 7997
  140.6441  143.7703  150.7472 H   0  0  0  0  0  0  0  0  0  0  0  0  # atno 10167 bound_to 10162
  156.1897  130.4152  149.9389 H   0  0  0  0  0  0  0  0  0  0  0  0  # atno 10718 bound_to 10713
  154.6053  135.2859  155.0491 H   0  0  0  0  0  0  0  0  0  0  0  0  # atno 10763 bound_to 10752
  154.1741  135.6467  153.5021 H   0  0  0  0  0  0  0  0  0  0  0  0  # atno 10764 bound_to 10752
  153.0173  135.5408  154.6787 H   0  0  0  0  0  0  0  0  0  0  0  0  # atno 10765 bound_to 10752
  139.8965  134.8303  156.2615 H   0  0  0  0  0  0  0  0  0  0  0  0  # atno 11005 bound_to 11000
  146.3531  140.0802  142.8618 LP  0  0  0  0  0  0  0  0  0  0  0  0  # atno 17320 bound_to 7965
  145.1021  140.9352  143.4706 LP  0  0  0  0  0  0  0  0  0  0  0  0  # atno 17321 bound_to 7965
  140.1341  143.4500  152.2236 LP  0  0  0  0  0  0  0  0  0  0  0  0  # atno 17342 bound_to 10162
  139.5651  144.7430  151.4045 LP  0  0  0  0  0  0  0  0  0  0  0  0  # atno 17343 bound_to 10162
  156.7133  130.8978  151.3611 LP  0  0  0  0  0  0  0  0  0  0  0  0  # atno 17370 bound_to 10713
  157.6921  130.9244  150.0542 LP  0  0  0  0  0  0  0  0  0  0  0  0  # atno 17371 bound_to 10713
  141.0159  133.7069  156.1188 LP  0  0  0  0  0  0  0  0  0  0  0  0  # atno 17394 bound_to 11000
  140.7302  134.4263  157.5566 LP  0  0  0  0  0  0  0  0  0  0  0  0  # atno 17395 bound_to 11000

$$$$
