AV-unprocessed.smi:1999|AV-procd|sdf|8097|dock8
  -GOLD-   2272010313D 1   1.00000     0.00000
 Structure written by MMmdl.
 37 38  0  0  0  0  0  0  0  0  2 V2000
  146.6488  133.9784  162.2531 C   0  0  0  0  0  0  0  0  0  0  0  0
  147.1331  135.1140  161.4185 C   0  0  0  0  0  0  0  0  0  0  0  0
  147.3294  136.3400  161.9098 N   0  0  0  0  0  0  0  0  0  0  0  0
  147.7775  137.2257  160.9406 N   0  0  0  0  0  0  0  0  0  0  0  0
  147.9057  136.6615  159.7312 C   0  0  0  0  0  0  0  0  0  0  0  0
  148.3297  137.3482  158.6574 N   0  5  0  0  0  0  0  0  0  0  0  0
  149.5387  137.9545  158.6773 C   0  0  0  0  0  0  0  0  0  0  0  0
  150.4304  137.7773  159.5106 O   0  0  0  0  0  0  0  0  0  0  0  0
  149.7252  138.8191  157.6696 N   0  0  0  0  0  0  0  0  0  0  0  0
  150.9175  139.6333  157.4382 C   0  0  1  0  0  0  0  0  0  0  0  0
  151.5543  139.2633  156.0896 C   0  0  0  0  0  0  0  0  0  0  0  0
  150.5496  141.1306  157.4887 C   0  0  0  0  0  0  0  0  0  0  0  0
  151.6201  142.0355  157.9129 N   0  0  0  0  0  0  0  0  0  0  0  0
  151.2744  143.4446  157.7390 C   0  0  0  0  0  0  0  0  0  0  0  0
  152.4041  144.3749  158.2143 C   0  0  0  0  0  0  0  0  0  0  0  0
  152.7228  144.0899  159.5727 O   0  0  0  0  0  0  0  0  0  0  0  0
  153.1135  142.7351  159.7703 C   0  0  0  0  0  0  0  0  0  0  0  0
  151.9824  141.8017  159.3061 C   0  0  0  0  0  0  0  0  0  0  0  0
  147.4880  134.9483  159.7072 S   0  0  0  0  0  0  0  0  0  0  0  0
  145.5611  134.0034  162.3199 H   0  0  0  0  0  0  0  0  0  0  0  0
  147.0650  134.0422  163.2589 H   0  0  0  0  0  0  0  0  0  0  0  0
  146.9516  133.0291  161.8110 H   0  0  0  0  0  0  0  0  0  0  0  0
  148.9652  138.9343  157.0152 H   0  0  0  0  0  0  0  0  0  0  0  0
  151.6536  139.4278  158.2159 H   0  0  0  0  0  0  0  0  0  0  0  0
  152.4497  139.8568  155.9041 H   0  0  0  0  0  0  0  0  0  0  0  0
  150.8631  139.4345  155.2636 H   0  0  0  0  0  0  0  0  0  0  0  0
  151.8469  138.2131  156.0659 H   0  0  0  0  0  0  0  0  0  0  0  0
  150.1778  141.4417  156.5113 H   0  0  0  0  0  0  0  0  0  0  0  0
  149.7081  141.2421  158.1742 H   0  0  0  0  0  0  0  0  0  0  0  0
  151.0713  143.6581  156.6901 H   0  0  0  0  0  0  0  0  0  0  0  0
  150.3608  143.6733  158.2896 H   0  0  0  0  0  0  0  0  0  0  0  0
  153.2919  144.2513  157.5921 H   0  0  0  0  0  0  0  0  0  0  0  0
  152.0970  145.4174  158.1313 H   0  0  0  0  0  0  0  0  0  0  0  0
  154.0342  142.5296  159.2221 H   0  0  0  0  0  0  0  0  0  0  0  0
  153.3272  142.5760  160.8272 H   0  0  0  0  0  0  0  0  0  0  0  0
  151.1102  141.9481  159.9452 H   0  0  0  0  0  0  0  0  0  0  0  0
  152.2955  140.7654  159.4382 H   0  0  0  0  0  0  0  0  0  0  0  0
  1  2  1  0  0  0  0
  1 20  1  0  0  0  0
  1 21  1  0  0  0  0
  1 22  1  0  0  0  0
  2 19  1  0  0  0  0
  2  3  2  0  0  0  0
  3  4  1  0  0  0  0
  4  5  2  0  0  0  0
  5  6  1  0  0  0  0
  5 19  1  0  0  0  0
  6  7  1  0  0  0  0
  7  8  2  0  0  0  0
  7  9  1  0  0  0  0
  9 10  1  0  0  0  0
  9 23  1  0  0  0  0
 10 11  1  0  0  0  0
 10 12  1  0  0  0  0
 10 24  1  0  0  0  0
 11 25  1  0  0  0  0
 11 26  1  0  0  0  0
 11 27  1  0  0  0  0
 12 13  1  0  0  0  0
 12 28  1  0  0  0  0
 12 29  1  0  0  0  0
 13 18  1  0  0  0  0
 13 14  1  0  0  0  0
 14 15  1  0  0  0  0
 14 30  1  0  0  0  0
 14 31  1  0  0  0  0
 15 16  1  0  0  0  0
 15 32  1  0  0  0  0
 15 33  1  0  0  0  0
 16 17  1  0  0  0  0
 17 18  1  0  0  0  0
 17 34  1  0  0  0  0
 17 35  1  0  0  0  0
 18 36  1  0  0  0  0
 18 37  1  0  0  0  0
M  CHG  1   6  -1
M  END
> <s_m_source_file>
AV-unprocessed.smi

> <i_m_source_file_index>
1999

> <i_lp_mmshare_version>
43012

> <i_f3d_flags>
0

> <s_epik_input>
W0NIM11jMW5uYyhzMSlbTkhdQyg9TylbTkhdW0NASF0oW0NIM10pW0NIMl1OMltDSDJdW0NIMl1PW0NIMl1bQ0gyXTI=

> <s_epik_cmdline>
J2VwaWtfcHl0aG9uJywgJy1waCcsICc3LjAnLCAnLXRuJywgJzgnLCAnLW1hJywgJzIwMCcsICctbWV0YWxfYmluZGluZycsICctaW1hZScsICc8aW5maWxlLm1hZT4nLCAnLW9tYWUnLCAnPG91dGZpbGUubWFlPic=

> <r_lp_tautomer_probability>
1

> <r_epik_Ionization_Penalty>
3.74165

> <r_epik_Ionization_Penalty_Charging>
3.28066

> <r_epik_Ionization_Penalty_Neutral>
0.460988

> <r_epik_State_Penalty>
3.48767

> <r_epik_Charging_Adjusted_Penalty>
6.76834

> <i_epik_Tot_Q>
-1

> <i_epik_Tot_abs_Q>
1

> <r_epik_Metal_State_Penalty>
0.700129

> <b_epik_Metal_Only>
1

> <s_lp_Force_Field>
OPLS_2005

> <r_lp_Energy>
23.1918

> <b_lp_Chiralities_Consistent>
1

> <s_lp_Variant>
AV-unprocessed.smi:1999-6

> <Gold.Version>
5.8.1

> <Gold.Id.Protein>
6NUR|6NUR_protein|mol2

> <Gold.PLP.Fitness>
38.5324

> <Gold.PLP.PLP>
-35.1418

> <Gold.PLP.part.hbond>
-2.9601

> <Gold.PLP.part.metal>
0.0000

> <Gold.PLP.part.buried>
-5.3131

> <Gold.PLP.part.nonpolar>
-27.3628

> <Gold.PLP.part.repulsive>
0.1081

> <Gold.PLP.ligand.clash>
0.0000

> <Gold.PLP.ligand.torsion>
0.9380

> <Gold.PLP.Chemscore.Hbond>
1.7280

> <Gold.PLP.Chemscore.CHOScore>
0.0000

> <Gold.PLP.Chemscore.Metal>
0.0000

> <Gold.Chemscore.Hbonds>
donor molecule, donor type, donor heavy atom, donor atom, acceptor molecule, acceptor atom, score
      P1  H  6931  6943       L1     4  0.88
      P1  H  6934  6947       L1     4  0.85

> <Gold.PLP.Chemscore.Internal.Correction>
0.0826

> <Gold.Rescore>
     Score         DG    S(hbond)    S(metal)    S(lipo)     H(rot)  DE(clash)    DE(int)     intcor
     14.31     -15.31       1.25        0.00      82.41       1.56       0.02       0.98       ----

> <Gold.Chemscore.Fitness>
14.3106

> <Gold.Chemscore.DG>
-15.3104

> <Gold.Chemscore.ZeroCoef>
-5.4800

> <Gold.Chemscore.Hbond>
1.2489

> <Gold.Chemscore.Metal>
0.0000

> <Gold.Chemscore.Lipo>
82.4053

> <Gold.Chemscore.Internal_Hbond>
0.0000

> <Gold.Chemscore.DEClash>
0.0184

> <Gold.Chemscore.DEInternal>
0.9814

> <Gold.Chemscore.Rot>
1.5556

> <Gold.Chemscore.Internal.Correction>
   9.000000E+99

> <Gold.Chemscore.Hbonds>
donor molecule, donor type, donor heavy atom, donor atom, acceptor molecule, acceptor atom, score
      P1  H  6931  6943       L1     4  0.30
      P1  H  6934  6947       L1     4  0.76

> <Gold.Chemscore.Hbond.Weighted>
-4.1712

> <Gold.Chemscore.Metal.Weighted>
-0.0000

> <Gold.Chemscore.Lipo.Weighted>
-9.6414

> <Gold.Chemscore.Internal_Hbond.Weighted>
0.0000

> <Gold.Chemscore.DEClash.Weighted>
0.0184

> <Gold.Chemscore.DEInternal.Weighted>
0.9814

> <Gold.Chemscore.Rot.Weighted>
3.9823

> <Gold.Chemscore.Internal.Correction.Weighted>
   9.000000E+99

> <Gold.Protein.RotatedTorsions>
[ 6907 6896 6895 6894 ] final -128.61 input  -60.11 | X-H torsion
[ 7974 7965 7964 7962 ] final  122.25 input  175.53 | X-H torsion
[ 8008 7997 7996 7995 ] final  145.81 input   59.86 | X-H torsion
[ 10167 10162 10161 10158 ] final -115.33 input  -65.29 | X-H torsion
[ 10718 10713 10712 10709 ] final   53.66 input   66.30 | X-H torsion
[ 10763 10752 10751 10750 ] final -175.67 input  -60.55 | X-H torsion
[ 11005 11000 10999 10996 ] final   -2.72 input  -57.11 | X-H torsion

> <Gold.Protein.ActiveResidues>
 VAL166  LYS551  ARG553  GLY616  TRP617  ASP618  TYR619  PRO620  LYS621  CYS622 
 ASP623  PHE694  ASN695  SER759  ASP760  ASP761  ALA762  ILE779  LEU786  VAL792 
 PHE793  MET794  SER795  GLU796  ALA797  LYS798  CYS799  TRP800  GLU811  SER814 

> <Gold.Protein.RotatedAtoms>
  150.9197  133.6895  159.2834 H   0  0  0  0  0  0  0  0  0  0  0  0  # atno 6907 bound_to 6896
  151.4353  135.1013  159.9664 H   0  0  0  0  0  0  0  0  0  0  0  0  # atno 6908 bound_to 6896
  152.4973  133.8618  159.7309 H   0  0  0  0  0  0  0  0  0  0  0  0  # atno 6909 bound_to 6896
  145.1097  139.3461  143.4769 H   0  0  0  0  0  0  0  0  0  0  0  0  # atno 7974 bound_to 7965
  156.2873  140.2199  156.5275 H   0  0  0  0  0  0  0  0  0  0  0  0  # atno 8008 bound_to 7997
  154.7476  140.0483  157.0888 H   0  0  0  0  0  0  0  0  0  0  0  0  # atno 8009 bound_to 7997
  155.0150  140.3117  155.4818 H   0  0  0  0  0  0  0  0  0  0  0  0  # atno 8010 bound_to 7997
  140.0913  143.4697  152.1868 H   0  0  0  0  0  0  0  0  0  0  0  0  # atno 10167 bound_to 10162
  157.5187  130.8550  149.8530 H   0  0  0  0  0  0  0  0  0  0  0  0  # atno 10718 bound_to 10713
  154.5816  135.2836  155.0727 H   0  0  0  0  0  0  0  0  0  0  0  0  # atno 10763 bound_to 10752
  154.2061  135.6416  153.5105 H   0  0  0  0  0  0  0  0  0  0  0  0  # atno 10764 bound_to 10752
  153.0090  135.5480  154.6471 H   0  0  0  0  0  0  0  0  0  0  0  0  # atno 10765 bound_to 10752
  140.6614  133.9317  155.8438 H   0  0  0  0  0  0  0  0  0  0  0  0  # atno 11005 bound_to 11000
  146.3527  140.1011  142.8608 LP  0  0  0  0  0  0  0  0  0  0  0  0  # atno 17320 bound_to 7965
  145.0861  140.9253  143.4797 LP  0  0  0  0  0  0  0  0  0  0  0  0  # atno 17321 bound_to 7965
  139.5723  144.7469  151.3857 LP  0  0  0  0  0  0  0  0  0  0  0  0  # atno 17342 bound_to 10162
  140.7027  143.7591  150.7430 LP  0  0  0  0  0  0  0  0  0  0  0  0  # atno 17343 bound_to 10162
  156.0338  130.3757  150.1614 LP  0  0  0  0  0  0  0  0  0  0  0  0  # atno 17370 bound_to 10713
  156.9803  130.9862  151.3439 LP  0  0  0  0  0  0  0  0  0  0  0  0  # atno 17371 bound_to 10713
  141.0462  134.0550  157.3841 LP  0  0  0  0  0  0  0  0  0  0  0  0  # atno 17394 bound_to 11000
  139.9012  135.0165  156.7275 LP  0  0  0  0  0  0  0  0  0  0  0  0  # atno 17395 bound_to 11000

$$$$
