AV-unprocessed.smi:124|AV-procd|sdf|1148|dock4
  -GOLD-   2262018283D 1   1.00000     0.00000
 Structure written by MMmdl.
 52 56  0  0  0  0  0  0  0  0  1 V2000
  150.9952  138.2463  158.0372 O   0  0  0  0  0  0  0  0  0  0  0  0
  150.1320  139.0757  157.7455 C   0  0  0  0  0  0  0  0  0  0  0  0
  148.6793  138.6123  157.5315 C   0  0  0  0  0  0  0  0  0  0  0  0
  148.4419  137.2639  158.0336 N   0  0  0  0  0  0  0  0  0  0  0  0
  149.0623  136.1910  157.3453 C   0  0  0  0  0  0  0  0  0  0  0  0
  149.7838  136.3747  156.3630 O   0  0  0  0  0  0  0  0  0  0  0  0
  148.7824  134.8714  157.9003 C   0  0  0  0  0  0  0  0  0  0  0  0
  149.2989  133.7796  157.3109 F   0  0  0  0  0  0  0  0  0  0  0  0
  148.0083  134.7258  158.9973 C   0  0  0  0  0  0  0  0  0  0  0  0
  147.4378  135.7955  159.6673 N   0  0  0  0  0  0  0  0  0  0  0  0
  146.5867  135.5884  160.9006 C   0  0  1  0  0  0  0  0  0  0  0  0
  146.3314  134.0937  161.1243 C   0  0  0  0  0  0  0  0  0  0  0  0
  147.4381  133.7304  162.0906 C   0  0  0  0  0  0  0  0  0  0  0  0
  147.5496  135.0027  162.9227 C   0  0  0  0  0  0  0  0  0  0  0  0
  147.2753  136.0705  162.0190 O   0  0  0  0  0  0  0  0  0  0  0  0
  147.6361  137.1089  159.1881 C   0  0  0  0  0  0  0  0  0  0  0  0
  147.1266  138.0738  159.7629 O   0  0  0  0  0  0  0  0  0  0  0  0
  150.3819  140.5053  157.5590 C   0  0  0  0  0  0  0  0  0  0  0  0
  149.8115  141.2626  156.5550 C   0  0  0  0  0  0  0  0  0  0  0  0
  148.8270  140.9421  155.5245 C   0  0  0  0  0  0  0  0  0  0  0  0
  148.9436  139.7538  154.7701 C   0  0  0  0  0  0  0  0  0  0  0  0
  148.0011  139.4442  153.7701 C   0  0  0  0  0  0  0  0  0  0  0  0
  146.9335  140.3242  153.5116 C   0  0  0  0  0  0  0  0  0  0  0  0
  146.8117  141.5145  154.2528 C   0  0  0  0  0  0  0  0  0  0  0  0
  147.7559  141.8219  155.2514 C   0  0  0  0  0  0  0  0  0  0  0  0
  150.2951  142.5565  156.6351 N   0  0  0  0  0  0  0  0  0  0  0  0
  151.1842  142.6870  157.6781 C   0  0  0  0  0  0  0  0  0  0  0  0
  151.9214  143.7887  158.1496 C   0  0  0  0  0  0  0  0  0  0  0  0
  152.7812  143.6267  159.2495 C   0  0  0  0  0  0  0  0  0  0  0  0
  152.8971  142.3656  159.8622 C   0  0  0  0  0  0  0  0  0  0  0  0
  152.1533  141.2691  159.3819 C   0  0  0  0  0  0  0  0  0  0  0  0
  151.2674  141.3960  158.2809 C   0  0  0  0  0  0  0  0  0  0  0  0
  150.0073  143.2902  156.0035 H   0  0  0  0  0  0  0  0  0  0  0  0
  147.9819  139.2909  158.0227 H   0  0  0  0  0  0  0  0  0  0  0  0
  148.4044  138.6182  156.4754 H   0  0  0  0  0  0  0  0  0  0  0  0
  147.8335  133.7224  159.3559 H   0  0  0  0  0  0  0  0  0  0  0  0
  145.6797  136.1755  160.7483 H   0  0  0  0  0  0  0  0  0  0  0  0
  145.3556  133.9749  161.5970 H   0  0  0  0  0  0  0  0  0  0  0  0
  146.3460  133.5233  160.1948 H   0  0  0  0  0  0  0  0  0  0  0  0
  147.2122  132.8478  162.6894 H   0  0  0  0  0  0  0  0  0  0  0  0
  148.3670  133.5485  161.5490 H   0  0  0  0  0  0  0  0  0  0  0  0
  146.7943  135.0088  163.7098 H   0  0  0  0  0  0  0  0  0  0  0  0
  148.5282  135.1152  163.3897 H   0  0  0  0  0  0  0  0  0  0  0  0
  149.7575  139.0699  154.9618 H   0  0  0  0  0  0  0  0  0  0  0  0
  148.0975  138.5306  153.2021 H   0  0  0  0  0  0  0  0  0  0  0  0
  146.2101  140.0872  152.7453 H   0  0  0  0  0  0  0  0  0  0  0  0
  145.9947  142.1928  154.0554 H   0  0  0  0  0  0  0  0  0  0  0  0
  147.6544  142.7400  155.8120 H   0  0  0  0  0  0  0  0  0  0  0  0
  151.8300  144.7514  157.6685 H   0  0  0  0  0  0  0  0  0  0  0  0
  153.3529  144.4650  159.6198 H   0  0  0  0  0  0  0  0  0  0  0  0
  153.5604  142.2367  160.7049 H   0  0  0  0  0  0  0  0  0  0  0  0
  152.2715  140.3166  159.8736 H   0  0  0  0  0  0  0  0  0  0  0  0
  1  2  2  0  0  0  0
  2  3  1  0  0  0  0
  2 18  1  0  0  0  0
  3  4  1  0  0  0  0
  3 34  1  0  0  0  0
  3 35  1  0  0  0  0
  4 16  1  0  0  0  0
  4  5  1  0  0  0  0
  5  6  2  0  0  0  0
  5  7  1  0  0  0  0
  7  8  1  0  0  0  0
  7  9  2  0  0  0  0
  9 10  1  0  0  0  0
  9 36  1  0  0  0  0
 10 11  1  0  0  0  0
 10 16  1  0  0  0  0
 11 15  1  0  0  0  0
 11 12  1  0  0  0  0
 11 37  1  0  0  0  0
 12 13  1  0  0  0  0
 12 38  1  0  0  0  0
 12 39  1  0  0  0  0
 13 14  1  0  0  0  0
 13 40  1  0  0  0  0
 13 41  1  0  0  0  0
 14 15  1  0  0  0  0
 14 42  1  0  0  0  0
 14 43  1  0  0  0  0
 16 17  2  0  0  0  0
 18 32  1  0  0  0  0
 18 19  2  0  0  0  0
 19 20  1  0  0  0  0
 19 26  1  0  0  0  0
 20 25  1  0  0  0  0
 20 21  2  0  0  0  0
 21 22  1  0  0  0  0
 21 44  1  0  0  0  0
 22 23  2  0  0  0  0
 22 45  1  0  0  0  0
 23 24  1  0  0  0  0
 23 46  1  0  0  0  0
 24 25  2  0  0  0  0
 24 47  1  0  0  0  0
 25 48  1  0  0  0  0
 26 33  1  0  0  0  0
 26 27  1  0  0  0  0
 27 32  1  0  0  0  0
 27 28  2  0  0  0  0
 28 29  1  0  0  0  0
 28 49  1  0  0  0  0
 29 30  2  0  0  0  0
 29 50  1  0  0  0  0
 30 31  1  0  0  0  0
 30 51  1  0  0  0  0
 31 32  2  0  0  0  0
 31 52  1  0  0  0  0
M  END
> <s_m_source_file>
AV-unprocessed.smi

> <i_m_source_file_index>
124

> <i_lp_mmshare_version>
43012

> <i_f3d_flags>
0

> <s_epik_input>
W2NIXTFbY0hdW2NIXVtjSF1bY0hdYzEtYyhbbkhdMiljKGMoYzIzKVtjSF1bY0hdW2NIXVtjSF0zKUMoPU8pW0NIMl1uNGMoPU8pYyhGKVtjSF1uKGM0PU8pW0NAQEhdNVtDSDJdW0NIMl1bQ0gyXU81

> <s_epik_cmdline>
J2VwaWtfcHl0aG9uJywgJy1waCcsICc3LjAnLCAnLXRuJywgJzgnLCAnLW1hJywgJzIwMCcsICctbWV0YWxfYmluZGluZycsICctaW1hZScsICc8aW5maWxlLm1hZT4nLCAnLW9tYWUnLCAnPG91dGZpbGUubWFlPic=

> <r_lp_tautomer_probability>
1

> <r_epik_Ionization_Penalty>
1.43207e-08

> <r_epik_Ionization_Penalty_Charging>
5.01743e-09

> <r_epik_Ionization_Penalty_Neutral>
9.30329e-09

> <r_epik_State_Penalty>
-0

> <r_epik_Charging_Adjusted_Penalty>
5.01743e-09

> <i_epik_Tot_Q>
0

> <i_epik_Tot_abs_Q>
0

> <r_epik_Metal_State_Penalty>
-0

> <b_epik_Metal_Only>
0

> <s_epik_Chemistry_Notes>
This compound contains an acetal/aminal-like group ( X-CH(R)-Y where X, Y are N, S, or O) that may be acid/base labile, releasing an aldehyde.

> <s_lp_Force_Field>
OPLS_2005

> <r_lp_Energy>
48.1056

> <b_lp_Chiralities_Consistent>
1

> <s_lp_Variant>
AV-unprocessed.smi:124-2

> <Gold.Version>
5.8.1

> <Gold.Id.Protein>
6NUR|6NUR_protein|mol2

> <Gold.PLP.Fitness>
53.9312

> <Gold.PLP.PLP>
-51.5100

> <Gold.PLP.part.hbond>
-1.6389

> <Gold.PLP.part.metal>
0.0000

> <Gold.PLP.part.buried>
-5.1042

> <Gold.PLP.part.nonpolar>
-46.3503

> <Gold.PLP.part.repulsive>
0.0864

> <Gold.PLP.ligand.clash>
0.0084

> <Gold.PLP.ligand.torsion>
1.7492

> <Gold.PLP.Chemscore.Hbond>
1.5040

> <Gold.PLP.Chemscore.CHOScore>
0.0000

> <Gold.PLP.Chemscore.Metal>
0.0000

> <Gold.Chemscore.Hbonds>
donor molecule, donor type, donor heavy atom, donor atom, acceptor molecule, acceptor atom, score
      L1  H    26    33       P1  8028  0.98
      P1  H  6934  6947       L1    17  0.65

> <Gold.PLP.Chemscore.Internal.Correction>
1.4159

> <Gold.Rescore>
     Score         DG    S(hbond)    S(metal)    S(lipo)     H(rot)  DE(clash)    DE(int)     intcor
     16.07     -22.93       1.61        0.00     137.10       1.55       1.46       5.40       ----

> <Gold.Chemscore.Fitness>
16.0660

> <Gold.Chemscore.DG>
-22.9259

> <Gold.Chemscore.ZeroCoef>
-5.4800

> <Gold.Chemscore.Hbond>
1.6115

> <Gold.Chemscore.Metal>
0.0000

> <Gold.Chemscore.Lipo>
137.1012

> <Gold.Chemscore.Internal_Hbond>
0.0000

> <Gold.Chemscore.DEClash>
1.4556

> <Gold.Chemscore.DEInternal>
5.4043

> <Gold.Chemscore.Rot>
1.5537

> <Gold.Chemscore.Internal.Correction>
   9.000000E+99

> <Gold.Chemscore.Hbonds>
donor molecule, donor type, donor heavy atom, donor atom, acceptor molecule, acceptor atom, score
      L1  H    26    33       P1  8028  0.93
      P1  H  6934  6947       L1    17  0.63

> <Gold.Chemscore.Hbond.Weighted>
-5.3824

> <Gold.Chemscore.Metal.Weighted>
-0.0000

> <Gold.Chemscore.Lipo.Weighted>
-16.0408

> <Gold.Chemscore.Internal_Hbond.Weighted>
0.0000

> <Gold.Chemscore.DEClash.Weighted>
1.4556

> <Gold.Chemscore.DEInternal.Weighted>
5.4043

> <Gold.Chemscore.Rot.Weighted>
3.9774

> <Gold.Chemscore.Internal.Correction.Weighted>
   9.000000E+99

> <Gold.Protein.RotatedTorsions>
[ 6907 6896 6895 6894 ] final    9.71 input  -60.11 | X-H torsion
[ 7974 7965 7964 7962 ] final   97.30 input  175.53 | X-H torsion
[ 8008 7997 7996 7995 ] final  103.94 input   59.86 | X-H torsion
[ 10167 10162 10161 10158 ] final   16.04 input  -65.29 | X-H torsion
[ 10718 10713 10712 10709 ] final  -70.18 input   66.30 | X-H torsion
[ 10763 10752 10751 10750 ] final   81.75 input  -60.55 | X-H torsion
[ 11005 11000 10999 10996 ] final  -84.98 input  -57.11 | X-H torsion

> <Gold.Protein.ActiveResidues>
 VAL166  LYS551  ARG553  GLY616  TRP617  ASP618  TYR619  PRO620  LYS621  CYS622 
 ASP623  PHE694  ASN695  SER759  ASP760  ASP761  ALA762  ILE779  LEU786  VAL792 
 PHE793  MET794  SER795  GLU796  ALA797  LYS798  CYS799  TRP800  GLU811  SER814 

> <Gold.Protein.RotatedAtoms>
  151.7266  135.0883  160.0292 H   0  0  0  0  0  0  0  0  0  0  0  0  # atno 6907 bound_to 6896
  152.3568  133.6243  159.5994 H   0  0  0  0  0  0  0  0  0  0  0  0  # atno 6908 bound_to 6896
  150.7577  133.9403  159.3496 H   0  0  0  0  0  0  0  0  0  0  0  0  # atno 6909 bound_to 6896
  145.4273  139.2314  143.3163 H   0  0  0  0  0  0  0  0  0  0  0  0  # atno 7974 bound_to 7965
  156.1529  140.3156  155.8678 H   0  0  0  0  0  0  0  0  0  0  0  0  # atno 8008 bound_to 7997
  155.3935  140.0495  157.3057 H   0  0  0  0  0  0  0  0  0  0  0  0  # atno 8009 bound_to 7997
  154.5075  140.2152  155.9234 H   0  0  0  0  0  0  0  0  0  0  0  0  # atno 8010 bound_to 7997
  140.5825  143.8953  150.6802 H   0  0  0  0  0  0  0  0  0  0  0  0  # atno 10167 bound_to 10162
  156.0420  130.4326  150.2257 H   0  0  0  0  0  0  0  0  0  0  0  0  # atno 10718 bound_to 10713
  153.1143  135.4754  154.9089 H   0  0  0  0  0  0  0  0  0  0  0  0  # atno 10763 bound_to 10752
  154.7512  135.3106  154.8555 H   0  0  0  0  0  0  0  0  0  0  0  0  # atno 10764 bound_to 10752
  153.9136  135.6862  153.4803 H   0  0  0  0  0  0  0  0  0  0  0  0  # atno 10765 bound_to 10752
  141.1645  133.7375  156.8948 H   0  0  0  0  0  0  0  0  0  0  0  0  # atno 11005 bound_to 11000
  146.2625  140.5005  142.8847 LP  0  0  0  0  0  0  0  0  0  0  0  0  # atno 17320 bound_to 7965
  144.8206  140.6543  143.6355 LP  0  0  0  0  0  0  0  0  0  0  0  0  # atno 17321 bound_to 7965
  140.2456  143.3631  152.1449 LP  0  0  0  0  0  0  0  0  0  0  0  0  # atno 17342 bound_to 10162
  139.5178  144.6997  151.5530 LP  0  0  0  0  0  0  0  0  0  0  0  0  # atno 17343 bound_to 10162
  157.0351  131.0019  151.3300 LP  0  0  0  0  0  0  0  0  0  0  0  0  # atno 17370 bound_to 10713
  157.5249  130.8022  149.7851 LP  0  0  0  0  0  0  0  0  0  0  0  0  # atno 17371 bound_to 10713
  140.1623  134.9157  157.2730 LP  0  0  0  0  0  0  0  0  0  0  0  0  # atno 17394 bound_to 11000
  140.2597  134.3586  155.7411 LP  0  0  0  0  0  0  0  0  0  0  0  0  # atno 17395 bound_to 11000

$$$$
