AV-unprocessed.smi:39|AV-procd|sdf|365|dock3
  -GOLD-   2262016203D 1   1.00000     0.00000
 Structure written by MMmdl.
 31 32  0  0  0  0  0  0  0  0  4 V2000
  151.1081  143.2614  158.4415 C   0  0  0  0  0  0  0  0  0  0  0  0
  151.3011  142.0389  157.5613 C   0  0  0  0  0  0  0  0  0  0  0  0
  150.6113  141.8608  156.4126 C   0  0  0  0  0  0  0  0  0  0  0  0
  150.7879  140.7421  155.6148 N   0  0  0  0  0  0  0  0  0  0  0  0
  150.0069  140.5425  154.3302 C   0  0  1  0  0  0  0  0  0  0  0  0
  149.1195  139.2900  154.4264 C   0  0  0  0  0  0  0  0  0  0  0  0
  147.7566  139.8148  154.0042 C   0  0  1  0  0  0  0  0  0  0  0  0
  146.6466  139.0739  154.6080 N   0  0  0  0  0  0  0  0  0  0  0  0
  145.9054  139.7138  155.3650 N   0  3  0  0  0  0  0  0  0  0  0  0
  145.1402  140.2107  156.0450 N   0  5  0  0  0  0  0  0  0  0  0  0
  147.8215  141.2648  154.4841 C   0  0  2  0  0  0  0  0  0  0  0  0
  146.8152  142.1918  153.7853 C   0  0  0  0  0  0  0  0  0  0  0  0
  145.5104  141.9361  154.2595 O   0  0  0  0  0  0  0  0  0  0  0  0
  149.1486  141.6265  154.1168 O   0  0  0  0  0  0  0  0  0  0  0  0
  151.7334  139.7542  155.9964 C   0  0  0  0  0  0  0  0  0  0  0  0
  151.8783  138.7785  155.2590 O   0  0  0  0  0  0  0  0  0  0  0  0
  152.4328  139.9246  157.1540 N   0  5  0  0  0  0  0  0  0  0  0  0
  152.2670  141.0097  157.9632 C   0  0  0  0  0  0  0  0  0  0  0  0
  152.9001  141.1475  159.0096 O   0  0  0  0  0  0  0  0  0  0  0  0
  150.7515  140.5066  153.5332 H   0  0  0  0  0  0  0  0  0  0  0  0
  147.6909  139.8055  152.9140 H   0  0  0  0  0  0  0  0  0  0  0  0
  147.7041  141.3007  155.5692 H   0  0  0  0  0  0  0  0  0  0  0  0
  150.3762  143.9471  158.0137 H   0  0  0  0  0  0  0  0  0  0  0  0
  152.0489  143.8005  158.5566 H   0  0  0  0  0  0  0  0  0  0  0  0
  150.7567  142.9661  159.4307 H   0  0  0  0  0  0  0  0  0  0  0  0
  149.9055  142.6234  156.1220 H   0  0  0  0  0  0  0  0  0  0  0  0
  149.4939  138.4967  153.7788 H   0  0  0  0  0  0  0  0  0  0  0  0
  149.0980  138.9246  155.4549 H   0  0  0  0  0  0  0  0  0  0  0  0
  147.0748  143.2408  153.9302 H   0  0  0  0  0  0  0  0  0  0  0  0
  146.8141  142.0038  152.7112 H   0  0  0  0  0  0  0  0  0  0  0  0
  145.1220  141.2630  153.7221 H   0  0  0  0  0  0  0  0  0  0  0  0
  1  2  1  0  0  0  0
  1 23  1  0  0  0  0
  1 24  1  0  0  0  0
  1 25  1  0  0  0  0
  2 18  1  0  0  0  0
  2  3  2  0  0  0  0
  3  4  1  0  0  0  0
  3 26  1  0  0  0  0
  4  5  1  0  0  0  0
  4 15  1  0  0  0  0
  5 20  1  0  0  0  0
  5 14  1  0  0  0  0
  5  6  1  0  0  0  0
  6  7  1  0  0  0  0
  6 27  1  0  0  0  0
  6 28  1  0  0  0  0
  7 21  1  0  0  0  0
  7  8  1  0  0  0  0
  7 11  1  0  0  0  0
  8  9  2  0  0  0  0
  9 10  2  0  0  0  0
 11 22  1  0  0  0  0
 11 12  1  0  0  0  0
 11 14  1  0  0  0  0
 12 13  1  0  0  0  0
 12 29  1  0  0  0  0
 12 30  1  0  0  0  0
 13 31  1  0  0  0  0
 15 16  2  0  0  0  0
 15 17  1  0  0  0  0
 17 18  1  0  0  0  0
 18 19  2  0  0  0  0
M  CHG  1   9   1
M  CHG  1  10  -1
M  CHG  1  17  -1
M  END
> <s_m_source_file>
AV-unprocessed.smi

> <i_m_source_file_index>
39

> <i_lp_mmshare_version>
43012

> <i_f3d_flags>
0

> <s_epik_input>
Tz1jMVtuSF1jKD1PKW4oW2NIXWMxW0NIM10pW0NASF0yW0NIMl1bQ0BIXShOPVtOK109W04tXSlbQ0BIXShPMilbQ0gyXVtPSF0=

> <s_epik_cmdline>
J2VwaWtfcHl0aG9uJywgJy1waCcsICc3LjAnLCAnLXRuJywgJzgnLCAnLW1hJywgJzIwMCcsICctbWV0YWxfYmluZGluZycsICctaW1hZScsICc8aW5maWxlLm1hZT4nLCAnLW9tYWUnLCAnPG91dGZpbGUubWFlPic=

> <r_lp_tautomer_probability>
0.999537

> <r_epik_Ionization_Penalty>
3.6393

> <r_epik_Ionization_Penalty_Charging>
9.76484e-08

> <r_epik_Ionization_Penalty_Neutral>
3.6393

> <r_epik_State_Penalty>
3.63887

> <r_epik_Charging_Adjusted_Penalty>
3.63887

> <i_epik_Tot_Q>
-1

> <i_epik_Tot_abs_Q>
3

> <r_epik_Metal_State_Penalty>
0.225911

> <b_epik_Metal_Only>
1

> <s_epik_Chemistry_Notes>
This compound contains an acetal/aminal-like group ( X-CH(R)-Y where X, Y are N, S, or O) that may be acid/base labile, releasing an aldehyde.

> <s_lp_Force_Field>
OPLS_2005

> <r_lp_Energy>
32.9978

> <b_lp_Chiralities_Consistent>
1

> <s_lp_Variant>
AV-unprocessed.smi:39-15

> <Gold.Version>
5.8.1

> <Gold.Id.Protein>
6NUR|6NUR_protein|mol2

> <Gold.PLP.Fitness>
41.6027

> <Gold.PLP.PLP>
-28.0418

> <Gold.PLP.part.hbond>
-3.6004

> <Gold.PLP.part.metal>
0.0000

> <Gold.PLP.part.buried>
-0.9660

> <Gold.PLP.part.nonpolar>
-23.1843

> <Gold.PLP.part.repulsive>
0.4326

> <Gold.PLP.ligand.clash>
0.0000

> <Gold.PLP.ligand.torsion>
0.0744

> <Gold.PLP.Chemscore.Hbond>
3.5580

> <Gold.PLP.Chemscore.CHOScore>
1.0000

> <Gold.PLP.Chemscore.Metal>
0.0000

> <Gold.Chemscore.Hbonds>
donor molecule, donor type, donor heavy atom, donor atom, acceptor molecule, acceptor atom, score
      L1  H    13    31       P1 10175  0.98
      P1  H  7997  8009       L1    17  1.95
      P1  H  8011  8017       L1    14  0.56
      L1  C     3    26       P1  8028  1.00

> <Gold.PLP.Chemscore.Internal.Correction>
0.0359

> <Gold.Rescore>
     Score         DG    S(hbond)    S(metal)    S(lipo)     H(rot)  DE(clash)    DE(int)     intcor
      5.17      -9.67       1.61        0.00      49.29       2.72       1.62       2.88       ----

> <Gold.Chemscore.Fitness>
5.1671

> <Gold.Chemscore.DG>
-9.6709

> <Gold.Chemscore.ZeroCoef>
-5.4800

> <Gold.Chemscore.Hbond>
1.6092

> <Gold.Chemscore.Metal>
0.0000

> <Gold.Chemscore.Lipo>
49.2935

> <Gold.Chemscore.Internal_Hbond>
0.0000

> <Gold.Chemscore.DEClash>
1.6238

> <Gold.Chemscore.DEInternal>
2.8800

> <Gold.Chemscore.Rot>
2.7153

> <Gold.Chemscore.Internal.Correction>
   9.000000E+99

> <Gold.Chemscore.Hbonds>
donor molecule, donor type, donor heavy atom, donor atom, acceptor molecule, acceptor atom, score
      L1  H    13    31       P1 10175  0.40
      P1  H  7997  8009       L1    17  0.12
      P1  H  8011  8017       L1    14  0.24

> <Gold.Chemscore.Hbond.Weighted>
-5.3748

> <Gold.Chemscore.Metal.Weighted>
-0.0000

> <Gold.Chemscore.Lipo.Weighted>
-5.7673

> <Gold.Chemscore.Internal_Hbond.Weighted>
0.0000

> <Gold.Chemscore.DEClash.Weighted>
1.6238

> <Gold.Chemscore.DEInternal.Weighted>
2.8800

> <Gold.Chemscore.Rot.Weighted>
6.9512

> <Gold.Chemscore.Internal.Correction.Weighted>
   9.000000E+99

> <Gold.Protein.RotatedTorsions>
[ 6907 6896 6895 6894 ] final  -56.08 input  -60.11 | X-H torsion
[ 7974 7965 7964 7962 ] final  178.07 input  175.53 | X-H torsion
[ 8008 7997 7996 7995 ] final -167.07 input   59.86 | X-H torsion
[ 10167 10162 10161 10158 ] final -159.40 input  -65.29 | X-H torsion
[ 10718 10713 10712 10709 ] final  -53.58 input   66.30 | X-H torsion
[ 10763 10752 10751 10750 ] final   74.32 input  -60.55 | X-H torsion
[ 11005 11000 10999 10996 ] final  -32.34 input  -57.11 | X-H torsion

> <Gold.Protein.ActiveResidues>
 VAL166  LYS551  ARG553  GLY616  TRP617  ASP618  TYR619  PRO620  LYS621  CYS622 
 ASP623  PHE694  ASN695  SER759  ASP760  ASP761  ALA762  ILE779  LEU786  VAL792 
 PHE793  MET794  SER795  GLU796  ALA797  LYS798  CYS799  TRP800  GLU811  SER814 

> <Gold.Protein.RotatedAtoms>
  150.8198  134.7399  159.6761 H   0  0  0  0  0  0  0  0  0  0  0  0  # atno 6907 bound_to 6896
  152.4314  134.5767  159.9946 H   0  0  0  0  0  0  0  0  0  0  0  0  # atno 6908 bound_to 6896
  151.5954  133.3324  159.3072 H   0  0  0  0  0  0  0  0  0  0  0  0  # atno 6909 bound_to 6896
  144.7161  140.0342  143.6438 H   0  0  0  0  0  0  0  0  0  0  0  0  # atno 7974 bound_to 7965
  155.8727  140.0996  157.1539 H   0  0  0  0  0  0  0  0  0  0  0  0  # atno 8008 bound_to 7997
  154.3998  140.1344  156.4161 H   0  0  0  0  0  0  0  0  0  0  0  0  # atno 8009 bound_to 7997
  155.7733  140.3460  155.5260 H   0  0  0  0  0  0  0  0  0  0  0  0  # atno 8010 bound_to 7997
  139.6618  143.9899  152.2230 H   0  0  0  0  0  0  0  0  0  0  0  0  # atno 10167 bound_to 10162
  156.1523  130.4151  149.9925 H   0  0  0  0  0  0  0  0  0  0  0  0  # atno 10718 bound_to 10713
  153.0579  135.5030  154.8024 H   0  0  0  0  0  0  0  0  0  0  0  0  # atno 10763 bound_to 10752
  154.6836  135.2972  154.9581 H   0  0  0  0  0  0  0  0  0  0  0  0  # atno 10764 bound_to 10752
  154.0359  135.6723  153.4838 H   0  0  0  0  0  0  0  0  0  0  0  0  # atno 10765 bound_to 10752
  140.9544  133.7201  156.1270 H   0  0  0  0  0  0  0  0  0  0  0  0  # atno 11005 bound_to 11000
  146.0077  139.3143  143.0889 LP  0  0  0  0  0  0  0  0  0  0  0  0  # atno 17320 bound_to 7965
  145.8719  140.9415  143.0646 LP  0  0  0  0  0  0  0  0  0  0  0  0  # atno 17321 bound_to 7965
  139.9640  144.6538  150.8052 LP  0  0  0  0  0  0  0  0  0  0  0  0  # atno 17342 bound_to 10162
  140.7583  143.3104  151.2859 LP  0  0  0  0  0  0  0  0  0  0  0  0  # atno 17343 bound_to 10162
  156.7779  130.9210  151.3645 LP  0  0  0  0  0  0  0  0  0  0  0  0  # atno 17370 bound_to 10713
  157.6667  130.9014  149.9948 LP  0  0  0  0  0  0  0  0  0  0  0  0  # atno 17371 bound_to 10713
  140.7557  134.3995  157.5534 LP  0  0  0  0  0  0  0  0  0  0  0  0  # atno 17394 bound_to 11000
  139.8857  134.8928  156.2625 LP  0  0  0  0  0  0  0  0  0  0  0  0  # atno 17395 bound_to 11000

$$$$
