AV-unprocessed.smi:2467|AV-procd|sdf|9727|dock3
  -GOLD-   2272013373D 1   1.00000     0.00000
 Structure written by MMmdl.
 46 47  0  0  0  0  0  0  0  0  1 V2000
  152.0566  138.7655  154.7090 C   0  0  0  0  0  0  0  0  0  0  0  0
  151.5175  139.6889  155.8123 C   0  0  0  0  0  0  0  0  0  0  0  0
  150.7716  140.9446  155.2961 C   0  0  0  0  0  0  0  0  0  0  0  0
  150.8505  142.1018  156.3240 C   0  0  0  0  0  0  0  0  0  0  0  0
  150.4001  141.7201  157.7423 C   0  0  0  0  0  0  0  0  0  0  0  0
  149.3093  140.6120  154.8975 C   0  0  2  0  0  0  0  0  0  0  0  0
  149.1378  139.2524  154.1837 C   0  0  0  0  0  0  0  0  0  0  0  0
  147.6566  139.0269  153.8330 C   0  0  2  0  0  0  0  0  0  0  0  0
  147.4147  137.7434  153.1707 N   0  0  0  0  0  0  0  0  0  0  0  0
  146.2501  137.0829  153.0371 C   0  0  0  0  0  0  0  0  0  0  0  0
  145.1855  137.4984  153.4912 O   0  0  0  0  0  0  0  0  0  0  0  0
  146.3017  135.9117  152.3666 N   0  0  0  0  0  0  0  0  0  0  0  0
  145.2909  134.9606  152.0378 C   0  0  0  0  0  0  0  0  0  0  0  0
  145.7566  133.8410  151.3116 C   0  0  0  0  0  0  0  0  0  0  0  0
  144.8522  132.8295  150.9341 C   0  0  0  0  0  0  0  0  0  0  0  0
  143.4996  132.9616  151.2934 C   0  0  0  0  0  0  0  0  0  0  0  0
  143.1156  134.1051  152.0164 C   0  0  0  0  0  0  0  0  0  0  0  0
  143.9818  135.0749  152.3788 N   0  0  0  0  0  0  0  0  0  0  0  0
  147.1190  140.2300  153.0383 C   0  0  0  0  0  0  0  0  0  0  0  0
  147.3974  141.5334  153.8038 C   0  0  0  0  0  0  0  0  0  0  0  0
  148.7909  141.6575  154.0752 O   0  0  0  0  0  0  0  0  0  0  0  0
  152.6625  137.9689  155.1411 H   0  0  0  0  0  0  0  0  0  0  0  0
  152.6859  139.3144  154.0081 H   0  0  0  0  0  0  0  0  0  0  0  0
  151.2573  138.2881  154.1437 H   0  0  0  0  0  0  0  0  0  0  0  0
  150.8708  139.1213  156.4822 H   0  0  0  0  0  0  0  0  0  0  0  0
  152.3723  139.9901  156.4155 H   0  0  0  0  0  0  0  0  0  0  0  0
  151.2830  141.2774  154.3917 H   0  0  0  0  0  0  0  0  0  0  0  0
  151.8728  142.4651  156.4068 H   0  0  0  0  0  0  0  0  0  0  0  0
  150.2653  142.9518  155.9716 H   0  0  0  0  0  0  0  0  0  0  0  0
  150.5597  142.5503  158.4307 H   0  0  0  0  0  0  0  0  0  0  0  0
  150.9656  140.8674  158.1189 H   0  0  0  0  0  0  0  0  0  0  0  0
  149.3416  141.4672  157.7845 H   0  0  0  0  0  0  0  0  0  0  0  0
  148.7076  140.5666  155.8048 H   0  0  0  0  0  0  0  0  0  0  0  0
  149.7374  139.2208  153.2763 H   0  0  0  0  0  0  0  0  0  0  0  0
  149.4972  138.4458  154.8237 H   0  0  0  0  0  0  0  0  0  0  0  0
  147.0994  138.9753  154.7694 H   0  0  0  0  0  0  0  0  0  0  0  0
  148.2264  137.3060  152.7571 H   0  0  0  0  0  0  0  0  0  0  0  0
  147.2274  135.6548  152.0563 H   0  0  0  0  0  0  0  0  0  0  0  0
  146.7996  133.7529  151.0436 H   0  0  0  0  0  0  0  0  0  0  0  0
  145.1917  131.9674  150.3793 H   0  0  0  0  0  0  0  0  0  0  0  0
  142.7761  132.2069  151.0227 H   0  0  0  0  0  0  0  0  0  0  0  0
  142.0869  134.2455  152.3133 H   0  0  0  0  0  0  0  0  0  0  0  0
  147.5939  140.2907  152.0591 H   0  0  0  0  0  0  0  0  0  0  0  0
  146.0485  140.1217  152.8619 H   0  0  0  0  0  0  0  0  0  0  0  0
  147.0777  142.3900  153.2104 H   0  0  0  0  0  0  0  0  0  0  0  0
  146.8317  141.5656  154.7362 H   0  0  0  0  0  0  0  0  0  0  0  0
  1  2  1  0  0  0  0
  1 22  1  0  0  0  0
  1 23  1  0  0  0  0
  1 24  1  0  0  0  0
  2  3  1  0  0  0  0
  2 25  1  0  0  0  0
  2 26  1  0  0  0  0
  3  4  1  0  0  0  0
  3  6  1  0  0  0  0
  3 27  1  0  0  0  0
  4  5  1  0  0  0  0
  4 28  1  0  0  0  0
  4 29  1  0  0  0  0
  5 30  1  0  0  0  0
  5 31  1  0  0  0  0
  5 32  1  0  0  0  0
  6 21  1  0  0  0  0
  6  7  1  0  0  0  0
  6 33  1  0  0  0  0
  7  8  1  0  0  0  0
  7 34  1  0  0  0  0
  7 35  1  0  0  0  0
  8  9  1  0  0  0  0
  8 19  1  0  0  0  0
  8 36  1  0  0  0  0
  9 10  1  0  0  0  0
  9 37  1  0  0  0  0
 10 11  2  0  0  0  0
 10 12  1  0  0  0  0
 12 13  1  0  0  0  0
 12 38  1  0  0  0  0
 13 18  1  0  0  0  0
 13 14  2  0  0  0  0
 14 15  1  0  0  0  0
 14 39  1  0  0  0  0
 15 16  2  0  0  0  0
 15 40  1  0  0  0  0
 16 17  1  0  0  0  0
 16 41  1  0  0  0  0
 17 18  2  0  0  0  0
 17 42  1  0  0  0  0
 19 20  1  0  0  0  0
 19 43  1  0  0  0  0
 19 44  1  0  0  0  0
 20 21  1  0  0  0  0
 20 45  1  0  0  0  0
 20 46  1  0  0  0  0
M  END
> <s_m_source_file>
AV-unprocessed.smi

> <i_m_source_file_index>
2467

> <i_lp_mmshare_version>
43012

> <i_f3d_flags>
0

> <s_epik_input>
W0NIM11bQ0gyXVtDSF0oW0NIMl1bQ0gzXSlbQ0BASF0xW0NIMl1bQ0BIXShbQ0gyXVtDSDJdTzEpW05IXUMoPU8pW05IXWMyW2NIXVtjSF1bY0hdW2NIXW4y

> <s_epik_cmdline>
J2VwaWtfcHl0aG9uJywgJy1waCcsICc3LjAnLCAnLXRuJywgJzgnLCAnLW1hJywgJzIwMCcsICctbWV0YWxfYmluZGluZycsICctaW1hZScsICc8aW5maWxlLm1hZT4nLCAnLW9tYWUnLCAnPG91dGZpbGUubWFlPic=

> <r_lp_tautomer_probability>
1

> <r_epik_Ionization_Penalty>
4.80427e-05

> <r_epik_Ionization_Penalty_Charging>
0

> <r_epik_Ionization_Penalty_Neutral>
4.80427e-05

> <r_epik_State_Penalty>
-0

> <r_epik_Charging_Adjusted_Penalty>
0

> <i_epik_Tot_Q>
0

> <i_epik_Tot_abs_Q>
0

> <r_epik_Metal_State_Penalty>
-0

> <b_epik_Metal_Only>
0

> <s_lp_Force_Field>
OPLS_2005

> <r_lp_Energy>
20.5229

> <b_lp_Chiralities_Consistent>
1

> <s_lp_Variant>
AV-unprocessed.smi:2467-3

> <Gold.Version>
5.8.1

> <Gold.Id.Protein>
6NUR|6NUR_protein|mol2

> <Gold.PLP.Fitness>
43.0678

> <Gold.PLP.PLP>
-37.5314

> <Gold.PLP.part.hbond>
-2.9366

> <Gold.PLP.part.metal>
0.0000

> <Gold.PLP.part.buried>
-1.6491

> <Gold.PLP.part.nonpolar>
-32.4307

> <Gold.PLP.part.repulsive>
0.5107

> <Gold.PLP.ligand.clash>
0.0000

> <Gold.PLP.ligand.torsion>
0.7751

> <Gold.PLP.Chemscore.Hbond>
2.3224

> <Gold.PLP.Chemscore.CHOScore>
0.0000

> <Gold.PLP.Chemscore.Metal>
0.0000

> <Gold.Chemscore.Hbonds>
donor molecule, donor type, donor heavy atom, donor atom, acceptor molecule, acceptor atom, score
      L1  H     9    37       P1  7948  1.00
      L1  H    12    38       P1  7948  0.93
      P1  H  8011  8017       L1    21  0.41

> <Gold.PLP.Chemscore.Internal.Correction>
0.1192

> <Gold.Rescore>
     Score         DG    S(hbond)    S(metal)    S(lipo)     H(rot)  DE(clash)    DE(int)     intcor
     16.64     -20.32       2.18        0.00      97.11       1.49       1.08       2.59       ----

> <Gold.Chemscore.Fitness>
16.6418

> <Gold.Chemscore.DG>
-20.3171

> <Gold.Chemscore.ZeroCoef>
-5.4800

> <Gold.Chemscore.Hbond>
2.1792

> <Gold.Chemscore.Metal>
0.0000

> <Gold.Chemscore.Lipo>
97.1071

> <Gold.Chemscore.Internal_Hbond>
0.0000

> <Gold.Chemscore.DEClash>
1.0838

> <Gold.Chemscore.DEInternal>
2.5915

> <Gold.Chemscore.Rot>
1.4856

> <Gold.Chemscore.Internal.Correction>
   9.000000E+99

> <Gold.Chemscore.Hbonds>
donor molecule, donor type, donor heavy atom, donor atom, acceptor molecule, acceptor atom, score
      L1  H     9    37       P1  7948  0.95
      L1  H    12    38       P1  7948  0.90
      P1  H  8011  8017       L1    21  0.29

> <Gold.Chemscore.Hbond.Weighted>
-7.2787

> <Gold.Chemscore.Metal.Weighted>
-0.0000

> <Gold.Chemscore.Lipo.Weighted>
-11.3615

> <Gold.Chemscore.Internal_Hbond.Weighted>
0.0000

> <Gold.Chemscore.DEClash.Weighted>
1.0838

> <Gold.Chemscore.DEInternal.Weighted>
2.5915

> <Gold.Chemscore.Rot.Weighted>
3.8031

> <Gold.Chemscore.Internal.Correction.Weighted>
   9.000000E+99

> <Gold.Protein.RotatedTorsions>
[ 6907 6896 6895 6894 ] final -178.95 input  -60.11 | X-H torsion
[ 7974 7965 7964 7962 ] final   10.27 input  175.53 | X-H torsion
[ 8008 7997 7996 7995 ] final -132.47 input   59.86 | X-H torsion
[ 10167 10162 10161 10158 ] final  -86.04 input  -65.29 | X-H torsion
[ 10718 10713 10712 10709 ] final   82.29 input   66.30 | X-H torsion
[ 10763 10752 10751 10750 ] final  125.24 input  -60.55 | X-H torsion
[ 11005 11000 10999 10996 ] final  -75.76 input  -57.11 | X-H torsion

> <Gold.Protein.ActiveResidues>
 VAL166  LYS551  ARG553  GLY616  TRP617  ASP618  TYR619  PRO620  LYS621  CYS622 
 ASP623  PHE694  ASN695  SER759  ASP760  ASP761  ALA762  ILE779  LEU786  VAL792 
 PHE793  MET794  SER795  GLU796  ALA797  LYS798  CYS799  TRP800  GLU811  SER814 

> <Gold.Protein.RotatedAtoms>
  151.6455  133.3323  159.3139 H   0  0  0  0  0  0  0  0  0  0  0  0  # atno 6907 bound_to 6896
  150.7986  134.7068  159.6591 H   0  0  0  0  0  0  0  0  0  0  0  0  # atno 6908 bound_to 6896
  152.4076  134.6184  160.0095 H   0  0  0  0  0  0  0  0  0  0  0  0  # atno 6909 bound_to 6896
  146.2391  139.9659  142.8453 H   0  0  0  0  0  0  0  0  0  0  0  0  # atno 7974 bound_to 7965
  155.3294  140.0466  157.3042 H   0  0  0  0  0  0  0  0  0  0  0  0  # atno 8008 bound_to 7997
  154.5336  140.2265  155.8726 H   0  0  0  0  0  0  0  0  0  0  0  0  # atno 8009 bound_to 7997
  156.1813  140.3073  155.9161 H   0  0  0  0  0  0  0  0  0  0  0  0  # atno 8010 bound_to 7997
  140.3979  143.2675  151.9180 H   0  0  0  0  0  0  0  0  0  0  0  0  # atno 10167 bound_to 10162
  157.6853  131.0041  150.2353 H   0  0  0  0  0  0  0  0  0  0  0  0  # atno 10718 bound_to 10713
  153.6742  135.3325  155.3161 H   0  0  0  0  0  0  0  0  0  0  0  0  # atno 10763 bound_to 10752
  154.8483  135.4393  154.1674 H   0  0  0  0  0  0  0  0  0  0  0  0  # atno 10764 bound_to 10752
  153.2673  135.6997  153.7593 H   0  0  0  0  0  0  0  0  0  0  0  0  # atno 10765 bound_to 10752
  141.1648  133.6958  156.7565 H   0  0  0  0  0  0  0  0  0  0  0  0  # atno 11005 bound_to 11000
  145.1727  140.9729  143.4312 LP  0  0  0  0  0  0  0  0  0  0  0  0  # atno 17320 bound_to 7965
  145.0014  139.3595  143.6166 LP  0  0  0  0  0  0  0  0  0  0  0  0  # atno 17321 bound_to 7965
  139.4786  144.5662  151.8160 LP  0  0  0  0  0  0  0  0  0  0  0  0  # atno 17342 bound_to 10162
  140.4771  144.1504  150.5926 LP  0  0  0  0  0  0  0  0  0  0  0  0  # atno 17343 bound_to 10162
  156.2977  130.3754  149.7780 LP  0  0  0  0  0  0  0  0  0  0  0  0  # atno 17370 bound_to 10713
  156.5419  130.8304  151.3272 LP  0  0  0  0  0  0  0  0  0  0  0  0  # atno 17371 bound_to 10713
  140.2565  134.8500  157.3718 LP  0  0  0  0  0  0  0  0  0  0  0  0  # atno 17394 bound_to 11000
  140.1652  134.4678  155.7868 LP  0  0  0  0  0  0  0  0  0  0  0  0  # atno 17395 bound_to 11000

$$$$
