AV-unprocessed.smi:3154|AV-procd|sdf|12023|dock9
  -GOLD-   2272017433D 1   1.00000     0.00000
 Structure written by MMmdl.
 34 35  0  0  0  0  0  0  0  0  1 V2000
  146.4769  138.3152  151.6870 C   0  0  0  0  0  0  0  0  0  0  0  0
  145.5892  137.0917  151.9685 C   0  0  2  0  0  0  0  0  0  0  0  0
  145.5692  136.0835  150.7907 C   0  0  0  0  0  0  0  0  0  0  0  0
  144.6923  134.9426  151.0015 N   0  0  0  0  0  0  0  0  0  0  0  0
  144.5132  133.8372  150.1957 C   0  0  0  0  0  0  0  0  0  0  0  0
  143.5959  133.0316  150.8072 C   0  0  0  0  0  0  0  0  0  0  0  0
  143.2714  133.7352  152.0007 C   0  0  0  0  0  0  0  0  0  0  0  0
  143.9329  134.8751  152.1167 N   0  0  0  0  0  0  0  0  0  0  0  0
  144.2594  137.5893  152.3130 N   0  0  0  0  0  0  0  0  0  0  0  0
  143.9403  137.4530  153.7413 C   0  0  0  0  0  0  0  0  0  0  0  0
  142.4324  137.4197  154.0043 C   0  0  0  0  0  0  0  0  0  0  0  0
  141.9128  136.4609  154.5774 O   0  0  0  0  0  0  0  0  0  0  0  0
  141.7408  138.4857  153.5753 N   0  0  0  0  0  0  0  0  0  0  0  0
  140.3321  138.6714  153.7112 C   0  0  0  0  0  0  0  0  0  0  0  0
  139.4636  137.4342  153.7852 C   0  0  0  0  0  0  0  0  0  0  0  0
  139.4563  138.2789  152.5410 C   0  0  0  0  0  0  0  0  0  0  0  0
  147.4880  138.0099  151.4162 H   0  0  0  0  0  0  0  0  0  0  0  0
  146.5539  138.9554  152.5664 H   0  0  0  0  0  0  0  0  0  0  0  0
  146.0839  138.9240  150.8719 H   0  0  0  0  0  0  0  0  0  0  0  0
  146.0029  136.5887  152.8440 H   0  0  0  0  0  0  0  0  0  0  0  0
  145.2294  136.5972  149.8905 H   0  0  0  0  0  0  0  0  0  0  0  0
  146.5690  135.7206  150.5531 H   0  0  0  0  0  0  0  0  0  0  0  0
  145.0451  133.7201  149.2629 H   0  0  0  0  0  0  0  0  0  0  0  0
  143.2152  132.0841  150.4558 H   0  0  0  0  0  0  0  0  0  0  0  0
  142.5813  133.4525  152.7819 H   0  0  0  0  0  0  0  0  0  0  0  0
  144.1930  138.5546  152.0234 H   0  0  0  0  0  0  0  0  0  0  0  0
  144.3628  136.5306  154.1376 H   0  0  0  0  0  0  0  0  0  0  0  0
  144.3826  138.2826  154.2952 H   0  0  0  0  0  0  0  0  0  0  0  0
  142.2537  139.2264  153.1196 H   0  0  0  0  0  0  0  0  0  0  0  0
  139.9945  139.5304  154.2895 H   0  0  0  0  0  0  0  0  0  0  0  0
  139.9536  136.4639  153.7302 H   0  0  0  0  0  0  0  0  0  0  0  0
  138.5853  137.4761  154.4261 H   0  0  0  0  0  0  0  0  0  0  0  0
  138.5729  138.8850  152.3505 H   0  0  0  0  0  0  0  0  0  0  0  0
  139.9404  137.8714  151.6553 H   0  0  0  0  0  0  0  0  0  0  0  0
  1  2  1  0  0  0  0
  1 17  1  0  0  0  0
  1 18  1  0  0  0  0
  1 19  1  0  0  0  0
  2  3  1  0  0  0  0
  2  9  1  0  0  0  0
  2 20  1  0  0  0  0
  3  4  1  0  0  0  0
  3 21  1  0  0  0  0
  3 22  1  0  0  0  0
  4  8  1  0  0  0  0
  4  5  1  0  0  0  0
  5  6  2  0  0  0  0
  5 23  1  0  0  0  0
  6  7  1  0  0  0  0
  6 24  1  0  0  0  0
  7  8  2  0  0  0  0
  7 25  1  0  0  0  0
  9 10  1  0  0  0  0
  9 26  1  0  0  0  0
 10 11  1  0  0  0  0
 10 27  1  0  0  0  0
 10 28  1  0  0  0  0
 11 12  2  0  0  0  0
 11 13  1  0  0  0  0
 13 14  1  0  0  0  0
 13 29  1  0  0  0  0
 14 16  1  0  0  0  0
 14 15  1  0  0  0  0
 14 30  1  0  0  0  0
 15 16  1  0  0  0  0
 15 31  1  0  0  0  0
 15 32  1  0  0  0  0
 16 33  1  0  0  0  0
 16 34  1  0  0  0  0
M  END
> <s_m_source_file>
AV-unprocessed.smi

> <i_m_source_file_index>
3154

> <i_lp_mmshare_version>
43012

> <i_f3d_flags>
0

> <s_epik_input>
bjFbY0hdW2NIXVtjSF1uMVtDSDJdW0NAQEhdKFtDSDNdKVtOSF1bQ0gyXUMoPU8pW05IXVtDSF0yW0NIMl1bQ0gyXTI=

> <s_epik_cmdline>
J2VwaWtfcHl0aG9uJywgJy1waCcsICc3LjAnLCAnLXRuJywgJzgnLCAnLW1hJywgJzIwMCcsICctbWV0YWxfYmluZGluZycsICctaW1hZScsICc8aW5maWxlLm1hZT4nLCAnLW9tYWUnLCAnPG91dGZpbGUubWFlPic=

> <r_lp_tautomer_probability>
1

> <r_epik_Ionization_Penalty>
1.00229

> <r_epik_Ionization_Penalty_Charging>
0

> <r_epik_Ionization_Penalty_Neutral>
1.00229

> <r_epik_State_Penalty>
1.0509

> <r_epik_Charging_Adjusted_Penalty>
1.0509

> <i_epik_Tot_Q>
0

> <i_epik_Tot_abs_Q>
0

> <r_epik_Metal_State_Penalty>
1.05084

> <b_epik_Metal_Only>
0

> <s_lp_Force_Field>
OPLS_2005

> <r_lp_Energy>
19.1763

> <b_lp_Chiralities_Consistent>
1

> <s_lp_Variant>
AV-unprocessed.smi:3154-3

> <Gold.Version>
5.8.1

> <Gold.Id.Protein>
6NUR|6NUR_protein|mol2

> <Gold.PLP.Fitness>
41.1821

> <Gold.PLP.PLP>
-31.5619

> <Gold.PLP.part.hbond>
-3.0000

> <Gold.PLP.part.metal>
0.0000

> <Gold.PLP.part.buried>
-1.0448

> <Gold.PLP.part.nonpolar>
-27.3247

> <Gold.PLP.part.repulsive>
0.1480

> <Gold.PLP.ligand.clash>
0.0000

> <Gold.PLP.ligand.torsion>
1.1987

> <Gold.PLP.Chemscore.Hbond>
1.9825

> <Gold.PLP.Chemscore.CHOScore>
1.9989

> <Gold.PLP.Chemscore.Metal>
0.0000

> <Gold.Chemscore.Hbonds>
donor molecule, donor type, donor heavy atom, donor atom, acceptor molecule, acceptor atom, score
      L1  H     9    26       P1 10175  0.98
      L1  H    13    29       P1 10175  1.00
      L1  C     5    23       P1  7921  1.00
      L1  C     7    25       P1 10957  0.82

> <Gold.PLP.Chemscore.Internal.Correction>
0.0734

> <Gold.Rescore>
     Score         DG    S(hbond)    S(metal)    S(lipo)     H(rot)  DE(clash)    DE(int)     intcor
     11.85     -14.45       1.82        0.00      71.12       2.12       0.02       2.58       ----

> <Gold.Chemscore.Fitness>
11.8496

> <Gold.Chemscore.DG>
-14.4504

> <Gold.Chemscore.ZeroCoef>
-5.4800

> <Gold.Chemscore.Hbond>
1.8214

> <Gold.Chemscore.Metal>
0.0000

> <Gold.Chemscore.Lipo>
71.1166

> <Gold.Chemscore.Internal_Hbond>
0.0000

> <Gold.Chemscore.DEClash>
0.0176

> <Gold.Chemscore.DEInternal>
2.5833

> <Gold.Chemscore.Rot>
2.1225

> <Gold.Chemscore.Internal.Correction>
   9.000000E+99

> <Gold.Chemscore.Hbonds>
donor molecule, donor type, donor heavy atom, donor atom, acceptor molecule, acceptor atom, score
      L1  H     9    26       P1 10175  0.90
      L1  H    13    29       P1 10175  0.98

> <Gold.Chemscore.Hbond.Weighted>
-6.0835

> <Gold.Chemscore.Metal.Weighted>
-0.0000

> <Gold.Chemscore.Lipo.Weighted>
-8.3206

> <Gold.Chemscore.Internal_Hbond.Weighted>
0.0000

> <Gold.Chemscore.DEClash.Weighted>
0.0176

> <Gold.Chemscore.DEInternal.Weighted>
2.5833

> <Gold.Chemscore.Rot.Weighted>
5.4337

> <Gold.Chemscore.Internal.Correction.Weighted>
   9.000000E+99

> <Gold.Protein.RotatedTorsions>
[ 6907 6896 6895 6894 ] final   80.52 input  -60.11 | X-H torsion
[ 7974 7965 7964 7962 ] final  100.20 input  175.53 | X-H torsion
[ 8008 7997 7996 7995 ] final -122.84 input   59.86 | X-H torsion
[ 10167 10162 10161 10158 ] final  136.05 input  -65.29 | X-H torsion
[ 10718 10713 10712 10709 ] final -159.58 input   66.30 | X-H torsion
[ 10763 10752 10751 10750 ] final   62.28 input  -60.55 | X-H torsion
[ 11005 11000 10999 10996 ] final  -58.50 input  -57.11 | X-H torsion

> <Gold.Protein.ActiveResidues>
 VAL166  LYS551  ARG553  GLY616  TRP617  ASP618  TYR619  PRO620  LYS621  CYS622 
 ASP623  PHE694  ASN695  SER759  ASP760  ASP761  ALA762  ILE779  LEU786  VAL792 
 PHE793  MET794  SER795  GLU796  ALA797  LYS798  CYS799  TRP800  GLU811  SER814 

> <Gold.Protein.RotatedAtoms>
  152.5237  134.3345  159.9194 H   0  0  0  0  0  0  0  0  0  0  0  0  # atno 6907 bound_to 6896
  151.3294  133.4000  159.2669 H   0  0  0  0  0  0  0  0  0  0  0  0  # atno 6908 bound_to 6896
  150.9893  134.9249  159.7948 H   0  0  0  0  0  0  0  0  0  0  0  0  # atno 6909 bound_to 6896
  145.3887  139.2367  143.3364 H   0  0  0  0  0  0  0  0  0  0  0  0  # atno 7974 bound_to 7965
  155.1708  140.0408  157.2862 H   0  0  0  0  0  0  0  0  0  0  0  0  # atno 8008 bound_to 7997
  154.6270  140.2515  155.7452 H   0  0  0  0  0  0  0  0  0  0  0  0  # atno 8009 bound_to 7997
  156.2465  140.2883  156.0605 H   0  0  0  0  0  0  0  0  0  0  0  0  # atno 8010 bound_to 7997
  139.5194  144.6485  151.5371 H   0  0  0  0  0  0  0  0  0  0  0  0  # atno 10167 bound_to 10162
  156.5701  130.8685  151.2835 H   0  0  0  0  0  0  0  0  0  0  0  0  # atno 10718 bound_to 10713
  152.9977  135.5471  154.6168 H   0  0  0  0  0  0  0  0  0  0  0  0  # atno 10763 bound_to 10752
  154.5476  135.2824  155.1040 H   0  0  0  0  0  0  0  0  0  0  0  0  # atno 10764 bound_to 10752
  154.2293  135.6436  153.5222 H   0  0  0  0  0  0  0  0  0  0  0  0  # atno 10765 bound_to 10752
  141.1210  133.6612  156.4929 H   0  0  0  0  0  0  0  0  0  0  0  0  # atno 11005 bound_to 11000
  146.2808  140.4566  142.8777 LP  0  0  0  0  0  0  0  0  0  0  0  0  # atno 17320 bound_to 7965
  144.8456  140.6923  143.6201 LP  0  0  0  0  0  0  0  0  0  0  0  0  # atno 17321 bound_to 7965
  140.6280  143.9131  150.6581 LP  0  0  0  0  0  0  0  0  0  0  0  0  # atno 17342 bound_to 10162
  140.2426  143.3652  152.1473 LP  0  0  0  0  0  0  0  0  0  0  0  0  # atno 17343 bound_to 10162
  157.7350  130.9755  150.2058 LP  0  0  0  0  0  0  0  0  0  0  0  0  # atno 17370 bound_to 10713
  156.2722  130.3723  149.8020 LP  0  0  0  0  0  0  0  0  0  0  0  0  # atno 17371 bound_to 10713
  140.4508  134.6930  157.5039 LP  0  0  0  0  0  0  0  0  0  0  0  0  # atno 17394 bound_to 11000
  140.0167  134.6609  155.9300 LP  0  0  0  0  0  0  0  0  0  0  0  0  # atno 17395 bound_to 11000

$$$$
