AV-unprocessed.smi:779|AV-procd|sdf|3704|dock10
  -GOLD-   22720 1123D 1   1.00000     0.00000
 Structure written by MMmdl.
 21 21  0  0  0  0  0  0  0  0  2 V2000
  152.1458  138.9245  158.3948 O   0  0  0  0  0  0  0  0  0  0  0  0
  152.2085  139.7584  157.4641 C   0  0  0  0  0  0  0  0  0  0  0  0
  152.4900  139.4972  156.2731 O   0  5  0  0  0  0  0  0  0  0  0  0
  151.9039  141.2630  157.8779 C   0  0  0  0  0  0  0  0  0  0  0  0
  152.4459  141.8709  158.9661 C   0  0  0  0  0  0  0  0  0  0  0  0
  152.1830  143.1842  159.3226 N   0  0  0  0  0  0  0  0  0  0  0  0
  152.7890  143.8110  160.4714 C   0  0  0  0  0  0  0  0  0  0  0  0
  152.7815  142.9054  161.7142 C   0  0  0  0  0  0  0  0  0  0  0  0
  151.5016  142.9188  162.3085 O   0  0  0  0  0  0  0  0  0  0  0  0
  151.3212  143.9656  158.5234 C   0  0  0  0  0  0  0  0  0  0  0  0
  151.0564  145.1437  158.7654 O   0  0  0  0  0  0  0  0  0  0  0  0
  150.7618  143.3427  157.4098 N   0  0  0  0  0  0  0  0  0  0  0  0
  150.9809  142.0215  157.0059 C   0  0  0  0  0  0  0  0  0  0  0  0
  150.4017  141.6290  155.9933 O   0  0  0  0  0  0  0  0  0  0  0  0
  150.1416  143.8971  156.8382 H   0  0  0  0  0  0  0  0  0  0  0  0
  153.1233  141.3077  159.5922 H   0  0  0  0  0  0  0  0  0  0  0  0
  153.7938  144.1308  160.1861 H   0  0  0  0  0  0  0  0  0  0  0  0
  152.2199  144.7242  160.6529 H   0  0  0  0  0  0  0  0  0  0  0  0
  153.0324  141.8797  161.4422 H   0  0  0  0  0  0  0  0  0  0  0  0
  153.5159  143.2372  162.4486 H   0  0  0  0  0  0  0  0  0  0  0  0
  151.2191  143.8168  162.3909 H   0  0  0  0  0  0  0  0  0  0  0  0
  1  2  2  0  0  0  0
  2  3  1  0  0  0  0
  2  4  1  0  0  0  0
  4 13  1  0  0  0  0
  4  5  2  0  0  0  0
  5  6  1  0  0  0  0
  5 16  1  0  0  0  0
  6  7  1  0  0  0  0
  6 10  1  0  0  0  0
  7  8  1  0  0  0  0
  7 17  1  0  0  0  0
  7 18  1  0  0  0  0
  8  9  1  0  0  0  0
  8 19  1  0  0  0  0
  8 20  1  0  0  0  0
  9 21  1  0  0  0  0
 10 11  2  0  0  0  0
 10 12  1  0  0  0  0
 12 15  1  0  0  0  0
 12 13  1  0  0  0  0
 13 14  2  0  0  0  0
M  CHG  1   3  -1
M  END
> <s_m_source_file>
AV-unprocessed.smi

> <i_m_source_file_index>
779

> <i_lp_mmshare_version>
43012

> <i_f3d_flags>
0

> <s_epik_input>
Tz1DKFtPSF0pYzFbY0hdbihbQ0gyXVtDSDJdW09IXSljKD1PKVtuSF1jMT1P

> <s_epik_cmdline>
J2VwaWtfcHl0aG9uJywgJy1waCcsICc3LjAnLCAnLXRuJywgJzgnLCAnLW1hJywgJzIwMCcsICctbWV0YWxfYmluZGluZycsICctaW1hZScsICc8aW5maWxlLm1hZT4nLCAnLW9tYWUnLCAnPG91dGZpbGUubWFlPic=

> <r_lp_tautomer_probability>
1

> <r_epik_Ionization_Penalty>
0.00105006

> <r_epik_Ionization_Penalty_Charging>
0.0010499

> <r_epik_Ionization_Penalty_Neutral>
1.56052e-07

> <r_epik_State_Penalty>
-0

> <r_epik_Charging_Adjusted_Penalty>
0.0010499

> <i_epik_Tot_Q>
-1

> <i_epik_Tot_abs_Q>
1

> <r_epik_Metal_State_Penalty>
0.521421

> <b_epik_Metal_Only>
0

> <s_lp_Force_Field>
OPLS_2005

> <r_lp_Energy>
14.2726

> <b_lp_Chiralities_Consistent>
1

> <s_lp_Variant>
AV-unprocessed.smi:779-1

> <Gold.Version>
5.8.1

> <Gold.Id.Protein>
6NUR|6NUR_protein|mol2

> <Gold.PLP.Fitness>
38.2122

> <Gold.PLP.PLP>
-28.6630

> <Gold.PLP.part.hbond>
-4.0000

> <Gold.PLP.part.metal>
0.0000

> <Gold.PLP.part.buried>
-6.3337

> <Gold.PLP.part.nonpolar>
-17.9751

> <Gold.PLP.part.repulsive>
0.2324

> <Gold.PLP.ligand.clash>
0.0000

> <Gold.PLP.ligand.torsion>
1.0945

> <Gold.PLP.Chemscore.Hbond>
3.9120

> <Gold.PLP.Chemscore.CHOScore>
0.0000

> <Gold.PLP.Chemscore.Metal>
0.0000

> <Gold.Chemscore.Hbonds>
donor molecule, donor type, donor heavy atom, donor atom, acceptor molecule, acceptor atom, score
      L1  H    12    15       P1  8028  1.00
      P1  H  6933  6945       L1     9  0.90
      P1  H  7997  8009       L1     3  2.00

> <Gold.PLP.Chemscore.Internal.Correction>
0.0022

> <Gold.Rescore>
     Score         DG    S(hbond)    S(metal)    S(lipo)     H(rot)  DE(clash)    DE(int)     intcor
     10.61     -13.80       2.73        0.00      40.95       2.19       1.84       1.35       ----

> <Gold.Chemscore.Fitness>
10.6141

> <Gold.Chemscore.DG>
-13.7994

> <Gold.Chemscore.ZeroCoef>
-5.4800

> <Gold.Chemscore.Hbond>
2.7349

> <Gold.Chemscore.Metal>
0.0000

> <Gold.Chemscore.Lipo>
40.9539

> <Gold.Chemscore.Internal_Hbond>
0.0000

> <Gold.Chemscore.DEClash>
1.8358

> <Gold.Chemscore.DEInternal>
1.3495

> <Gold.Chemscore.Rot>
2.1902

> <Gold.Chemscore.Internal.Correction>
   9.000000E+99

> <Gold.Chemscore.Hbonds>
donor molecule, donor type, donor heavy atom, donor atom, acceptor molecule, acceptor atom, score
      L1  H    12    15       P1  8028  0.99
      P1  H  6933  6945       L1     9  0.66
      P1  H  7997  8009       L1     3  0.25

> <Gold.Chemscore.Hbond.Weighted>
-9.1347

> <Gold.Chemscore.Metal.Weighted>
-0.0000

> <Gold.Chemscore.Lipo.Weighted>
-4.7916

> <Gold.Chemscore.Internal_Hbond.Weighted>
0.0000

> <Gold.Chemscore.DEClash.Weighted>
1.8358

> <Gold.Chemscore.DEInternal.Weighted>
1.3495

> <Gold.Chemscore.Rot.Weighted>
5.6069

> <Gold.Chemscore.Internal.Correction.Weighted>
   9.000000E+99

> <Gold.Protein.RotatedTorsions>
[ 6907 6896 6895 6894 ] final  176.03 input  -60.11 | X-H torsion
[ 7974 7965 7964 7962 ] final   53.76 input  175.53 | X-H torsion
[ 8008 7997 7996 7995 ] final -153.58 input   59.86 | X-H torsion
[ 10167 10162 10161 10158 ] final   47.44 input  -65.29 | X-H torsion
[ 10718 10713 10712 10709 ] final   40.45 input   66.30 | X-H torsion
[ 10763 10752 10751 10750 ] final  171.69 input  -60.55 | X-H torsion
[ 11005 11000 10999 10996 ] final -137.41 input  -57.11 | X-H torsion

> <Gold.Protein.ActiveResidues>
 VAL166  LYS551  ARG553  GLY616  TRP617  ASP618  TYR619  PRO620  LYS621  CYS622 
 ASP623  PHE694  ASN695  SER759  ASP760  ASP761  ALA762  ILE779  LEU786  VAL792 
 PHE793  MET794  SER795  GLU796  ALA797  LYS798  CYS799  TRP800  GLU811  SER814 

> <Gold.Protein.RotatedAtoms>
  151.7267  133.3316  159.3329 H   0  0  0  0  0  0  0  0  0  0  0  0  # atno 6907 bound_to 6896
  150.7630  134.6400  159.6241 H   0  0  0  0  0  0  0  0  0  0  0  0  # atno 6908 bound_to 6896
  152.3618  134.6864  160.0256 H   0  0  0  0  0  0  0  0  0  0  0  0  # atno 6909 bound_to 6896
  145.9679  139.4120  143.0208 H   0  0  0  0  0  0  0  0  0  0  0  0  # atno 7974 bound_to 7965
  155.6730  140.0735  157.2513 H   0  0  0  0  0  0  0  0  0  0  0  0  # atno 8008 bound_to 7997
  154.4119  140.1695  156.1951 H   0  0  0  0  0  0  0  0  0  0  0  0  # atno 8009 bound_to 7997
  155.9600  140.3370  155.6485 H   0  0  0  0  0  0  0  0  0  0  0  0  # atno 8010 bound_to 7997
  140.3036  144.2904  150.6214 H   0  0  0  0  0  0  0  0  0  0  0  0  # atno 10167 bound_to 10162
  157.3823  130.7760  149.7202 H   0  0  0  0  0  0  0  0  0  0  0  0  # atno 10718 bound_to 10713
  154.4155  135.2757  155.2009 H   0  0  0  0  0  0  0  0  0  0  0  0  # atno 10763 bound_to 10752
  154.3977  135.6051  153.5882 H   0  0  0  0  0  0  0  0  0  0  0  0  # atno 10764 bound_to 10752
  152.9832  135.5919  154.4443 H   0  0  0  0  0  0  0  0  0  0  0  0  # atno 10765 bound_to 10752
  140.8714  134.2046  157.4649 H   0  0  0  0  0  0  0  0  0  0  0  0  # atno 11005 bound_to 11000
  145.7948  140.9798  143.1030 LP  0  0  0  0  0  0  0  0  0  0  0  0  # atno 17320 bound_to 7965
  144.6830  139.9728  143.7482 LP  0  0  0  0  0  0  0  0  0  0  0  0  # atno 17321 bound_to 7965
  140.5629  143.2190  151.7733 LP  0  0  0  0  0  0  0  0  0  0  0  0  # atno 17342 bound_to 10162
  139.4909  144.4323  151.9858 LP  0  0  0  0  0  0  0  0  0  0  0  0  # atno 17343 bound_to 10162
  155.9778  130.4058  150.3686 LP  0  0  0  0  0  0  0  0  0  0  0  0  # atno 17370 bound_to 10713
  157.1791  131.0388  151.2757 LP  0  0  0  0  0  0  0  0  0  0  0  0  # atno 17371 bound_to 10713
  139.8712  134.9776  156.4964 LP  0  0  0  0  0  0  0  0  0  0  0  0  # atno 17394 bound_to 11000
  140.8569  133.8089  155.9225 LP  0  0  0  0  0  0  0  0  0  0  0  0  # atno 17395 bound_to 11000

$$$$
