AV-unprocessed.smi:2959|AV-procd|sdf|11310|dock10
  -GOLD-   2272016213D 1   1.00000     0.00000
 Structure written by MMmdl.
 46 48  0  0  0  0  0  0  0  0  2 V2000
  149.1540  136.2569  158.7076 C   0  0  0  0  0  0  0  0  0  0  0  0
  149.6013  135.5333  157.4421 C   0  0  0  0  0  0  0  0  0  0  0  0
  149.2882  134.3578  157.2577 O   0  0  0  0  0  0  0  0  0  0  0  0
  150.3339  136.2477  156.5765 N   0  0  0  0  0  0  0  0  0  0  0  0
  150.8433  135.7315  155.3138 C   0  0  0  0  0  0  0  0  0  0  0  0
  151.4113  136.8678  154.4538 C   0  0  0  0  0  0  0  0  0  0  0  0
  150.4460  138.0031  154.3398 C   0  0  0  0  0  0  0  0  0  0  0  0
  149.2655  137.9821  153.6585 N   0  3  0  0  0  0  0  0  0  0  0  0
  148.6299  139.2191  153.7753 C   0  0  0  0  0  0  0  0  0  0  0  0
  147.4223  139.6766  153.2569 C   0  0  0  0  0  0  0  0  0  0  0  0
  147.0636  141.0051  153.5661 C   0  0  0  0  0  0  0  0  0  0  0  0
  147.8924  141.8237  154.3609 C   0  0  0  0  0  0  0  0  0  0  0  0
  149.1147  141.3487  154.8808 C   0  0  0  0  0  0  0  0  0  0  0  0
  149.4606  140.0336  154.5716 C   0  0  0  0  0  0  0  0  0  0  0  0
  150.5654  139.2415  154.9008 N   0  0  0  0  0  0  0  0  0  0  0  0
  151.6361  139.8139  155.7300 C   0  0  0  0  0  0  0  0  0  0  0  0
  151.0898  140.4773  157.0020 C   0  0  0  0  0  0  0  0  0  0  0  0
  152.0250  140.2919  158.0563 O   0  0  0  0  0  0  0  0  0  0  0  0
  152.3469  141.3733  158.8463 C   0  0  0  0  0  0  0  0  0  0  0  0
  152.8288  141.0951  160.1420 C   0  0  0  0  0  0  0  0  0  0  0  0
  153.1840  142.1386  161.0181 C   0  0  0  0  0  0  0  0  0  0  0  0
  153.0584  143.4775  160.6043 C   0  0  0  0  0  0  0  0  0  0  0  0
  152.5776  143.7693  159.3143 C   0  0  0  0  0  0  0  0  0  0  0  0
  152.2226  142.7254  158.4376 C   0  0  0  0  0  0  0  0  0  0  0  0
  150.0180  136.6132  159.2692 H   0  0  0  0  0  0  0  0  0  0  0  0
  148.5792  135.5911  159.3521 H   0  0  0  0  0  0  0  0  0  0  0  0
  148.5274  137.1129  158.4560 H   0  0  0  0  0  0  0  0  0  0  0  0
  150.5436  137.2090  156.8036 H   0  0  0  0  0  0  0  0  0  0  0  0
  151.6174  134.9875  155.5093 H   0  0  0  0  0  0  0  0  0  0  0  0
  150.0354  135.2245  154.7840 H   0  0  0  0  0  0  0  0  0  0  0  0
  152.3459  137.2344  154.8794 H   0  0  0  0  0  0  0  0  0  0  0  0
  151.6470  136.5018  153.4537 H   0  0  0  0  0  0  0  0  0  0  0  0
  146.7861  139.0523  152.6467 H   0  0  0  0  0  0  0  0  0  0  0  0
  146.1349  141.4049  153.1852 H   0  0  0  0  0  0  0  0  0  0  0  0
  147.5848  142.8368  154.5762 H   0  0  0  0  0  0  0  0  0  0  0  0
  149.7436  141.9839  155.4868 H   0  0  0  0  0  0  0  0  0  0  0  0
  152.3568  139.0319  155.9707 H   0  0  0  0  0  0  0  0  0  0  0  0
  152.1694  140.5489  155.1267 H   0  0  0  0  0  0  0  0  0  0  0  0
  150.9302  141.5416  156.8214 H   0  0  0  0  0  0  0  0  0  0  0  0
  150.1295  140.0309  157.2637 H   0  0  0  0  0  0  0  0  0  0  0  0
  152.9279  140.0700  160.4677 H   0  0  0  0  0  0  0  0  0  0  0  0
  153.5525  141.9116  162.0076 H   0  0  0  0  0  0  0  0  0  0  0  0
  153.3305  144.2790  161.2751 H   0  0  0  0  0  0  0  0  0  0  0  0
  152.4800  144.7968  158.9960 H   0  0  0  0  0  0  0  0  0  0  0  0
  151.8558  142.9882  157.4573 H   0  0  0  0  0  0  0  0  0  0  0  0
  148.9237  137.1786  153.1470 H   0  0  0  0  0  0  0  0  0  0  0  0
  1  2  1  0  0  0  0
  1 25  1  0  0  0  0
  1 26  1  0  0  0  0
  1 27  1  0  0  0  0
  2  3  2  0  0  0  0
  2  4  1  0  0  0  0
  4  5  1  0  0  0  0
  4 28  1  0  0  0  0
  5  6  1  0  0  0  0
  5 29  1  0  0  0  0
  5 30  1  0  0  0  0
  6  7  1  0  0  0  0
  6 31  1  0  0  0  0
  6 32  1  0  0  0  0
  7 15  1  0  0  0  0
  7  8  2  0  0  0  0
  8  9  1  0  0  0  0
  8 46  1  0  0  0  0
  9 14  2  0  0  0  0
  9 10  1  0  0  0  0
 10 11  2  0  0  0  0
 10 33  1  0  0  0  0
 11 12  1  0  0  0  0
 11 34  1  0  0  0  0
 12 13  2  0  0  0  0
 12 35  1  0  0  0  0
 13 14  1  0  0  0  0
 13 36  1  0  0  0  0
 14 15  1  0  0  0  0
 15 16  1  0  0  0  0
 16 17  1  0  0  0  0
 16 37  1  0  0  0  0
 16 38  1  0  0  0  0
 17 18  1  0  0  0  0
 17 39  1  0  0  0  0
 17 40  1  0  0  0  0
 18 19  1  0  0  0  0
 19 24  1  0  0  0  0
 19 20  2  0  0  0  0
 20 21  1  0  0  0  0
 20 41  1  0  0  0  0
 21 22  2  0  0  0  0
 21 42  1  0  0  0  0
 22 23  1  0  0  0  0
 22 43  1  0  0  0  0
 23 24  2  0  0  0  0
 23 44  1  0  0  0  0
 24 45  1  0  0  0  0
M  CHG  1   8   1
M  END
> <s_m_source_file>
AV-unprocessed.smi

> <i_m_source_file_index>
2959

> <i_lp_mmshare_version>
43012

> <i_f3d_flags>
0

> <s_epik_input>
W0NIM11DKD1PKVtOSF1bQ0gyXVtDSDJdYyhuMSluKGMoYzEyKVtjSF1bY0hdW2NIXVtjSF0yKVtDSDJdW0NIMl1PYzNbY0hdW2NIXVtjSF1bY0hdW2NIXTM=

> <s_epik_cmdline>
J2VwaWtfcHl0aG9uJywgJy1waCcsICc3LjAnLCAnLXRuJywgJzgnLCAnLW1hJywgJzIwMCcsICctbWV0YWxfYmluZGluZycsICctaW1hZScsICc8aW5maWxlLm1hZT4nLCAnLW9tYWUnLCAnPG91dGZpbGUubWFlPic=

> <r_lp_tautomer_probability>
1

> <r_epik_Ionization_Penalty>
1.04698

> <r_epik_Ionization_Penalty_Charging>
1.04698

> <r_epik_Ionization_Penalty_Neutral>
3.05925e-07

> <r_epik_State_Penalty>
1.0995

> <r_epik_Charging_Adjusted_Penalty>
2.14648

> <i_epik_Tot_Q>
1

> <i_epik_Tot_abs_Q>
1

> <r_epik_Metal_State_Penalty>
1.19436

> <b_epik_Metal_Only>
0

> <s_lp_Force_Field>
OPLS_2005

> <r_lp_Energy>
17.9669

> <b_lp_Chiralities_Consistent>
1

> <s_lp_Variant>
AV-unprocessed.smi:2959-2

> <Gold.Version>
5.8.1

> <Gold.Id.Protein>
6NUR|6NUR_protein|mol2

> <Gold.PLP.Fitness>
59.6541

> <Gold.PLP.PLP>
-53.0039

> <Gold.PLP.part.hbond>
-2.1387

> <Gold.PLP.part.metal>
0.0000

> <Gold.PLP.part.buried>
-1.8047

> <Gold.PLP.part.nonpolar>
-49.6832

> <Gold.PLP.part.repulsive>
0.0892

> <Gold.PLP.ligand.clash>
0.0000

> <Gold.PLP.ligand.torsion>
1.1522

> <Gold.PLP.Chemscore.Hbond>
2.9520

> <Gold.PLP.Chemscore.CHOScore>
0.0000

> <Gold.PLP.Chemscore.Metal>
0.0000

> <Gold.Chemscore.Hbonds>
donor molecule, donor type, donor heavy atom, donor atom, acceptor molecule, acceptor atom, score
      L1  H     8    46       P1  7948  1.95

> <Gold.PLP.Chemscore.Internal.Correction>
0.0985

> <Gold.Rescore>
     Score         DG    S(hbond)    S(metal)    S(lipo)     H(rot)  DE(clash)    DE(int)     intcor
     19.68     -21.15       1.77        0.00     131.86       2.21       0.19       1.28       ----

> <Gold.Chemscore.Fitness>
19.6843

> <Gold.Chemscore.DG>
-21.1532

> <Gold.Chemscore.ZeroCoef>
-5.4800

> <Gold.Chemscore.Hbond>
1.7668

> <Gold.Chemscore.Metal>
0.0000

> <Gold.Chemscore.Lipo>
131.8640

> <Gold.Chemscore.Internal_Hbond>
0.0000

> <Gold.Chemscore.DEClash>
0.1873

> <Gold.Chemscore.DEInternal>
1.2816

> <Gold.Chemscore.Rot>
2.2093

> <Gold.Chemscore.Internal.Correction>
   9.000000E+99

> <Gold.Chemscore.Hbonds>
donor molecule, donor type, donor heavy atom, donor atom, acceptor molecule, acceptor atom, score
      L1  H     8    46       P1  7948  0.91

> <Gold.Chemscore.Hbond.Weighted>
-5.9010

> <Gold.Chemscore.Metal.Weighted>
-0.0000

> <Gold.Chemscore.Lipo.Weighted>
-15.4281

> <Gold.Chemscore.Internal_Hbond.Weighted>
0.0000

> <Gold.Chemscore.DEClash.Weighted>
0.1873

> <Gold.Chemscore.DEInternal.Weighted>
1.2816

> <Gold.Chemscore.Rot.Weighted>
5.6559

> <Gold.Chemscore.Internal.Correction.Weighted>
   9.000000E+99

> <Gold.Protein.RotatedTorsions>
[ 6907 6896 6895 6894 ] final  -93.99 input  -60.11 | X-H torsion
[ 7974 7965 7964 7962 ] final  -98.70 input  175.53 | X-H torsion
[ 8008 7997 7996 7995 ] final  160.14 input   59.86 | X-H torsion
[ 10167 10162 10161 10158 ] final  -42.17 input  -65.29 | X-H torsion
[ 10718 10713 10712 10709 ] final -119.37 input   66.30 | X-H torsion
[ 10763 10752 10751 10750 ] final   60.13 input  -60.55 | X-H torsion
[ 11005 11000 10999 10996 ] final   30.91 input  -57.11 | X-H torsion

> <Gold.Protein.ActiveResidues>
 VAL166  LYS551  ARG553  GLY616  TRP617  ASP618  TYR619  PRO620  LYS621  CYS622 
 ASP623  PHE694  ASN695  SER759  ASP760  ASP761  ALA762  ILE779  LEU786  VAL792 
 PHE793  MET794  SER795  GLU796  ALA797  LYS798  CYS799  TRP800  GLU811  SER814 

> <Gold.Protein.RotatedAtoms>
  150.6933  134.1882  159.4274 H   0  0  0  0  0  0  0  0  0  0  0  0  # atno 6907 bound_to 6896
  151.9853  135.0005  160.0568 H   0  0  0  0  0  0  0  0  0  0  0  0  # atno 6908 bound_to 6896
  152.1717  133.4613  159.4949 H   0  0  0  0  0  0  0  0  0  0  0  0  # atno 6909 bound_to 6896
  145.3172  140.9413  143.2736 H   0  0  0  0  0  0  0  0  0  0  0  0  # atno 7974 bound_to 7965
  156.2192  140.1812  156.7517 H   0  0  0  0  0  0  0  0  0  0  0  0  # atno 8008 bound_to 7997
  154.5839  140.0661  156.9172 H   0  0  0  0  0  0  0  0  0  0  0  0  # atno 8009 bound_to 7997
  155.2454  140.3325  155.4290 H   0  0  0  0  0  0  0  0  0  0  0  0  # atno 8010 bound_to 7997
  140.6978  143.3053  151.3170 H   0  0  0  0  0  0  0  0  0  0  0  0  # atno 10167 bound_to 10162
  156.1176  130.6298  150.9408 H   0  0  0  0  0  0  0  0  0  0  0  0  # atno 10718 bound_to 10713
  152.9912  135.5547  154.5824 H   0  0  0  0  0  0  0  0  0  0  0  0  # atno 10763 bound_to 10752
  154.5202  135.2807  155.1270 H   0  0  0  0  0  0  0  0  0  0  0  0  # atno 10764 bound_to 10752
  154.2627  135.6378  153.5333 H   0  0  0  0  0  0  0  0  0  0  0  0  # atno 10765 bound_to 10752
  140.2894  134.2881  155.7780 H   0  0  0  0  0  0  0  0  0  0  0  0  # atno 11005 bound_to 11000
  144.8968  139.4701  143.6651 LP  0  0  0  0  0  0  0  0  0  0  0  0  # atno 17320 bound_to 7965
  146.3096  139.7699  142.9030 LP  0  0  0  0  0  0  0  0  0  0  0  0  # atno 17321 bound_to 7965
  139.6456  144.0457  152.2588 LP  0  0  0  0  0  0  0  0  0  0  0  0  # atno 17342 bound_to 10162
  139.9977  144.6316  150.7758 LP  0  0  0  0  0  0  0  0  0  0  0  0  # atno 17343 bound_to 10162
  157.6359  131.0916  150.8349 LP  0  0  0  0  0  0  0  0  0  0  0  0  # atno 17370 bound_to 10713
  156.8450  130.5061  149.5317 LP  0  0  0  0  0  0  0  0  0  0  0  0  # atno 17371 bound_to 10713
  141.2149  133.7576  156.9602 LP  0  0  0  0  0  0  0  0  0  0  0  0  # atno 17394 bound_to 11000
  140.1209  134.9417  157.2202 LP  0  0  0  0  0  0  0  0  0  0  0  0  # atno 17395 bound_to 11000

$$$$
