AV-unprocessed.smi:685|AV-procd|sdf|3334|dock5
  -GOLD-   22720 0303D 1   1.00000     0.00000
 Structure written by MMmdl.
 50 51  0  0  0  0  0  0  0  0  1 V2000
  152.6312  138.1333  154.6793 C   0  0  0  0  0  0  0  0  0  0  0  0
  151.9799  139.1527  155.5701 C   0  0  0  0  0  0  0  0  0  0  0  0
  152.5559  139.4763  156.7159 N   0  0  0  0  0  0  0  0  0  0  0  0
  151.7345  140.3921  157.2670 N   0  0  0  0  0  0  0  0  0  0  0  0
  152.0736  140.9693  158.5531 C   0  0  0  0  0  0  0  0  0  0  0  0
  150.6355  140.6455  156.4695 C   0  0  0  0  0  0  0  0  0  0  0  0
  149.5739  141.6201  156.8672 C   0  0  0  0  0  0  0  0  0  0  0  0
  150.7598  139.8583  155.3558 C   0  0  0  0  0  0  0  0  0  0  0  0
  149.8400  139.7408  154.1675 C   0  0  0  0  0  0  0  0  0  0  0  0
  148.4284  139.2540  154.5595 C   0  0  1  0  0  0  0  0  0  0  0  0
  147.3272  139.8327  153.6567 C   0  0  0  0  0  0  0  0  0  0  0  0
  148.3652  137.7959  154.5103 N   0  0  0  0  0  0  0  0  0  0  0  0
  148.1110  136.9944  155.5567 C   0  0  0  0  0  0  0  0  0  0  0  0
  147.8965  137.4167  156.6935 O   0  0  0  0  0  0  0  0  0  0  0  0
  148.0943  135.4898  155.2715 C   0  0  0  0  0  0  0  0  0  0  0  0
  149.4774  134.9435  154.8692 C   0  0  0  0  0  0  0  0  0  0  0  0
  149.4723  133.4317  154.5802 C   0  0  0  0  0  0  0  0  0  0  0  0
  148.4017  133.0096  153.5714 C   0  0  0  0  0  0  0  0  0  0  0  0
  148.2388  131.5002  153.7759 C   0  0  0  0  0  0  0  0  0  0  0  0
  148.6956  131.2112  155.2137 C   0  0  0  0  0  0  0  0  0  0  0  0
  149.1660  132.5499  155.7951 C   0  0  0  0  0  0  0  0  0  0  0  0
  152.5747  138.4331  153.6327 H   0  0  0  0  0  0  0  0  0  0  0  0
  152.1396  137.1648  154.7735 H   0  0  0  0  0  0  0  0  0  0  0  0
  153.6849  137.9967  154.9253 H   0  0  0  0  0  0  0  0  0  0  0  0
  151.3065  140.7112  159.2836 H   0  0  0  0  0  0  0  0  0  0  0  0
  152.1312  142.0544  158.4642 H   0  0  0  0  0  0  0  0  0  0  0  0
  153.0358  140.5930  158.9038 H   0  0  0  0  0  0  0  0  0  0  0  0
  148.7349  141.6005  156.1722 H   0  0  0  0  0  0  0  0  0  0  0  0
  149.9699  142.6355  156.8867 H   0  0  0  0  0  0  0  0  0  0  0  0
  149.1860  141.3878  157.8593 H   0  0  0  0  0  0  0  0  0  0  0  0
  149.7610  140.6907  153.6382 H   0  0  0  0  0  0  0  0  0  0  0  0
  150.2714  139.0502  153.4423 H   0  0  0  0  0  0  0  0  0  0  0  0
  148.2176  139.5714  155.5825 H   0  0  0  0  0  0  0  0  0  0  0  0
  147.2890  140.9202  153.7201 H   0  0  0  0  0  0  0  0  0  0  0  0
  146.3451  139.4581  153.9476 H   0  0  0  0  0  0  0  0  0  0  0  0
  147.4896  139.5662  152.6117 H   0  0  0  0  0  0  0  0  0  0  0  0
  148.5265  137.3639  153.6122 H   0  0  0  0  0  0  0  0  0  0  0  0
  147.7374  134.9774  156.1654 H   0  0  0  0  0  0  0  0  0  0  0  0
  147.3707  135.2818  154.4822 H   0  0  0  0  0  0  0  0  0  0  0  0
  149.8489  135.4839  153.9972 H   0  0  0  0  0  0  0  0  0  0  0  0
  150.1899  135.1372  155.6725 H   0  0  0  0  0  0  0  0  0  0  0  0
  150.4451  133.1418  154.1794 H   0  0  0  0  0  0  0  0  0  0  0  0
  147.4588  133.5095  153.7998 H   0  0  0  0  0  0  0  0  0  0  0  0
  148.6700  133.2639  152.5457 H   0  0  0  0  0  0  0  0  0  0  0  0
  147.2110  131.1812  153.5996 H   0  0  0  0  0  0  0  0  0  0  0  0
  148.8736  130.9588  153.0733 H   0  0  0  0  0  0  0  0  0  0  0  0
  147.8949  130.7800  155.8154 H   0  0  0  0  0  0  0  0  0  0  0  0
  149.5169  130.4934  155.2027 H   0  0  0  0  0  0  0  0  0  0  0  0
  150.0259  132.4326  156.4550 H   0  0  0  0  0  0  0  0  0  0  0  0
  148.3594  132.9924  156.3814 H   0  0  0  0  0  0  0  0  0  0  0  0
  1  2  1  0  0  0  0
  1 22  1  0  0  0  0
  1 23  1  0  0  0  0
  1 24  1  0  0  0  0
  2  8  1  0  0  0  0
  2  3  2  0  0  0  0
  3  4  1  0  0  0  0
  4  5  1  0  0  0  0
  4  6  1  0  0  0  0
  5 25  1  0  0  0  0
  5 26  1  0  0  0  0
  5 27  1  0  0  0  0
  6  7  1  0  0  0  0
  6  8  2  0  0  0  0
  7 28  1  0  0  0  0
  7 29  1  0  0  0  0
  7 30  1  0  0  0  0
  8  9  1  0  0  0  0
  9 10  1  0  0  0  0
  9 31  1  0  0  0  0
  9 32  1  0  0  0  0
 10 11  1  0  0  0  0
 10 12  1  0  0  0  0
 10 33  1  0  0  0  0
 11 34  1  0  0  0  0
 11 35  1  0  0  0  0
 11 36  1  0  0  0  0
 12 13  1  0  0  0  0
 12 37  1  0  0  0  0
 13 14  2  0  0  0  0
 13 15  1  0  0  0  0
 15 16  1  0  0  0  0
 15 38  1  0  0  0  0
 15 39  1  0  0  0  0
 16 17  1  0  0  0  0
 16 40  1  0  0  0  0
 16 41  1  0  0  0  0
 17 21  1  0  0  0  0
 17 18  1  0  0  0  0
 17 42  1  0  0  0  0
 18 19  1  0  0  0  0
 18 43  1  0  0  0  0
 18 44  1  0  0  0  0
 19 20  1  0  0  0  0
 19 45  1  0  0  0  0
 19 46  1  0  0  0  0
 20 21  1  0  0  0  0
 20 47  1  0  0  0  0
 20 48  1  0  0  0  0
 21 49  1  0  0  0  0
 21 50  1  0  0  0  0
M  END
> <s_m_source_file>
AV-unprocessed.smi

> <i_m_source_file_index>
685

> <i_lp_mmshare_version>
43012

> <i_f3d_flags>
0

> <s_epik_input>
W0NIM11jMW5uKFtDSDNdKWMoW0NIM10pYzFbQ0gyXVtDQEhdKFtDSDNdKVtOSF1DKD1PKVtDSDJdW0NIMl1bQ0hdMltDSDJdW0NIMl1bQ0gyXVtDSDJdMg==

> <s_epik_cmdline>
J2VwaWtfcHl0aG9uJywgJy1waCcsICc3LjAnLCAnLXRuJywgJzgnLCAnLW1hJywgJzIwMCcsICctbWV0YWxfYmluZGluZycsICctaW1hZScsICc8aW5maWxlLm1hZT4nLCAnLW9tYWUnLCAnPG91dGZpbGUubWFlPic=

> <r_lp_tautomer_probability>
1

> <r_epik_Ionization_Penalty>
0.0131144

> <r_epik_Ionization_Penalty_Charging>
0

> <r_epik_Ionization_Penalty_Neutral>
0.0131144

> <r_epik_State_Penalty>
0.0101889

> <r_epik_Charging_Adjusted_Penalty>
0.0101889

> <i_epik_Tot_Q>
0

> <i_epik_Tot_abs_Q>
0

> <r_epik_Metal_State_Penalty>
0.00996794

> <b_epik_Metal_Only>
0

> <s_lp_Force_Field>
OPLS_2005

> <r_lp_Energy>
16.0397

> <b_lp_Chiralities_Consistent>
1

> <s_lp_Variant>
AV-unprocessed.smi:685-2

> <Gold.Version>
5.8.1

> <Gold.Id.Protein>
6NUR|6NUR_protein|mol2

> <Gold.PLP.Fitness>
41.0670

> <Gold.PLP.PLP>
-35.9002

> <Gold.PLP.part.hbond>
-2.0000

> <Gold.PLP.part.metal>
0.0000

> <Gold.PLP.part.buried>
-0.1386

> <Gold.PLP.part.nonpolar>
-33.9548

> <Gold.PLP.part.repulsive>
0.0000

> <Gold.PLP.ligand.clash>
0.0000

> <Gold.PLP.ligand.torsion>
0.4557

> <Gold.PLP.Chemscore.Hbond>
2.0000

> <Gold.PLP.Chemscore.CHOScore>
0.0000

> <Gold.PLP.Chemscore.Metal>
0.0000

> <Gold.Chemscore.Hbonds>
donor molecule, donor type, donor heavy atom, donor atom, acceptor molecule, acceptor atom, score
      L1  H    12    37       P1  7948  0.78
      P1  H  7997  8008       L1     3  1.00

> <Gold.PLP.Chemscore.Internal.Correction>
0.0781

> <Gold.Rescore>
     Score         DG    S(hbond)    S(metal)    S(lipo)     H(rot)  DE(clash)    DE(int)     intcor
     18.26     -19.22       1.87        0.00      97.35       1.53       0.34       0.61       ----

> <Gold.Chemscore.Fitness>
18.2649

> <Gold.Chemscore.DG>
-19.2170

> <Gold.Chemscore.ZeroCoef>
-5.4800

> <Gold.Chemscore.Hbond>
1.8731

> <Gold.Chemscore.Metal>
0.0000

> <Gold.Chemscore.Lipo>
97.3453

> <Gold.Chemscore.Internal_Hbond>
0.0000

> <Gold.Chemscore.DEClash>
0.3446

> <Gold.Chemscore.DEInternal>
0.6075

> <Gold.Chemscore.Rot>
1.5268

> <Gold.Chemscore.Internal.Correction>
   9.000000E+99

> <Gold.Chemscore.Hbonds>
donor molecule, donor type, donor heavy atom, donor atom, acceptor molecule, acceptor atom, score
      L1  H    12    37       P1  7948  0.77
      P1  H  7997  8008       L1     3  0.65

> <Gold.Chemscore.Hbond.Weighted>
-6.2562

> <Gold.Chemscore.Metal.Weighted>
-0.0000

> <Gold.Chemscore.Lipo.Weighted>
-11.3894

> <Gold.Chemscore.Internal_Hbond.Weighted>
0.0000

> <Gold.Chemscore.DEClash.Weighted>
0.3446

> <Gold.Chemscore.DEInternal.Weighted>
0.6075

> <Gold.Chemscore.Rot.Weighted>
3.9086

> <Gold.Chemscore.Internal.Correction.Weighted>
   9.000000E+99

> <Gold.Protein.RotatedTorsions>
[ 6907 6896 6895 6894 ] final  164.43 input  -60.11 | X-H torsion
[ 7974 7965 7964 7962 ] final  -60.58 input  175.53 | X-H torsion
[ 8008 7997 7996 7995 ] final  -46.19 input   59.86 | X-H torsion
[ 10167 10162 10161 10158 ] final   -9.46 input  -65.29 | X-H torsion
[ 10718 10713 10712 10709 ] final -110.58 input   66.30 | X-H torsion
[ 10763 10752 10751 10750 ] final  130.85 input  -60.55 | X-H torsion
[ 11005 11000 10999 10996 ] final  152.52 input  -57.11 | X-H torsion

> <Gold.Protein.ActiveResidues>
 VAL166  LYS551  ARG553  GLY616  TRP617  ASP618  TYR619  PRO620  LYS621  CYS622 
 ASP623  PHE694  ASN695  SER759  ASP760  ASP761  ALA762  ILE779  LEU786  VAL792 
 PHE793  MET794  SER795  GLU796  ALA797  LYS798  CYS799  TRP800  GLU811  SER814 

> <Gold.Protein.RotatedAtoms>
  151.9100  133.3559  159.3860 H   0  0  0  0  0  0  0  0  0  0  0  0  # atno 6907 bound_to 6896
  150.7060  134.4742  159.5449 H   0  0  0  0  0  0  0  0  0  0  0  0  # atno 6908 bound_to 6896
  152.2346  134.8289  160.0520 H   0  0  0  0  0  0  0  0  0  0  0  0  # atno 6909 bound_to 6896
  145.8138  140.8582  143.0168 H   0  0  0  0  0  0  0  0  0  0  0  0  # atno 7974 bound_to 7965
  154.4005  140.1378  156.3970 H   0  0  0  0  0  0  0  0  0  0  0  0  # atno 8008 bound_to 7997
  155.7860  140.3480  155.5303 H   0  0  0  0  0  0  0  0  0  0  0  0  # atno 8009 bound_to 7997
  155.8626  140.0959  157.1593 H   0  0  0  0  0  0  0  0  0  0  0  0  # atno 8010 bound_to 7997
  140.7088  143.5856  150.8947 H   0  0  0  0  0  0  0  0  0  0  0  0  # atno 10167 bound_to 10162
  156.0598  130.5822  150.8256 H   0  0  0  0  0  0  0  0  0  0  0  0  # atno 10718 bound_to 10713
  153.7648  135.3190  155.3343 H   0  0  0  0  0  0  0  0  0  0  0  0  # atno 10763 bound_to 10752
  154.8217  135.4598  154.0802 H   0  0  0  0  0  0  0  0  0  0  0  0  # atno 10764 bound_to 10752
  153.2044  135.6927  153.8275 H   0  0  0  0  0  0  0  0  0  0  0  0  # atno 10765 bound_to 10752
  140.1316  134.8798  157.2210 H   0  0  0  0  0  0  0  0  0  0  0  0  # atno 11005 bound_to 11000
  144.6754  140.0434  143.7480 LP  0  0  0  0  0  0  0  0  0  0  0  0  # atno 17320 bound_to 7965
  145.9749  139.2897  143.1077 LP  0  0  0  0  0  0  0  0  0  0  0  0  # atno 17321 bound_to 7965
  139.9581  143.6195  152.3010 LP  0  0  0  0  0  0  0  0  0  0  0  0  # atno 17342 bound_to 10162
  139.6738  144.7659  151.1735 LP  0  0  0  0  0  0  0  0  0  0  0  0  # atno 17343 bound_to 10162
  157.5598  131.0945  150.9575 LP  0  0  0  0  0  0  0  0  0  0  0  0  # atno 17370 bound_to 10713
  156.9815  130.5529  149.5296 LP  0  0  0  0  0  0  0  0  0  0  0  0  # atno 17371 bound_to 10713
  140.2836  134.3322  155.7336 LP  0  0  0  0  0  0  0  0  0  0  0  0  # atno 17394 bound_to 11000
  141.2171  133.7492  156.9399 LP  0  0  0  0  0  0  0  0  0  0  0  0  # atno 17395 bound_to 11000

$$$$
