AV-unprocessed.smi:1703|AV-procd|sdf|6878|dock2
  -GOLD-   22720 8 83D 1   1.00000     0.00000
 Structure written by MMmdl.
 50 52  0  0  0  0  0  0  0  0  3 V2000
  141.3609  139.7629  154.7321 C   0  0  0  0  0  0  0  0  0  0  0  0
  141.6580  140.6485  155.9557 C   0  0  1  0  0  0  0  0  0  0  0  0
  143.1545  140.9748  156.1293 C   0  0  0  0  0  0  0  0  0  0  0  0
  143.6045  141.9601  155.1182 N   0  3  2  0  0  0  0  0  0  0  0  0
  145.0620  142.2349  155.1946 C   0  0  0  0  0  0  0  0  0  0  0  0
  145.9069  141.0990  154.5850 C   0  0  2  0  0  0  0  0  0  0  0  0
  146.1202  140.1073  155.5715 O   0  0  0  0  0  0  0  0  0  0  0  0
  147.2665  141.6073  154.0661 C   0  0  0  0  0  0  0  0  0  0  0  0
  148.2333  140.5178  153.8482 N   0  0  0  0  0  0  0  0  0  0  0  0
  148.1475  139.4223  153.0387 C   0  0  0  0  0  0  0  0  0  0  0  0
  147.0023  139.0587  152.1474 C   0  0  0  0  0  0  0  0  0  0  0  0
  147.2674  137.9393  151.3290 O   0  0  0  0  0  0  0  0  0  0  0  0
  149.2968  138.7074  153.2058 N   0  3  0  0  0  0  0  0  0  0  0  0
  150.1267  139.3509  154.1236 C   0  0  0  0  0  0  0  0  0  0  0  0
  151.3849  139.0070  154.6081 C   0  0  0  0  0  0  0  0  0  0  0  0
  151.9630  139.8855  155.5474 C   0  0  0  0  0  0  0  0  0  0  0  0
  151.2925  141.0512  155.9708 C   0  0  0  0  0  0  0  0  0  0  0  0
  150.0163  141.3886  155.4731 C   0  0  0  0  0  0  0  0  0  0  0  0
  149.4513  140.5161  154.5418 C   0  0  0  0  0  0  0  0  0  0  0  0
  142.7616  143.1784  155.1777 C   0  0  0  0  0  0  0  0  0  0  0  0
  141.2805  142.8114  154.9729 C   0  0  2  0  0  0  0  0  0  0  0  0
  140.3606  144.0291  155.1135 C   0  0  0  0  0  0  0  0  0  0  0  0
  140.8896  141.8521  155.9520 O   0  0  0  0  0  0  0  0  0  0  0  0
  141.8511  138.7937  154.8288 H   0  0  0  0  0  0  0  0  0  0  0  0
  141.7104  140.2098  153.8017 H   0  0  0  0  0  0  0  0  0  0  0  0
  140.2907  139.5804  154.6344 H   0  0  0  0  0  0  0  0  0  0  0  0
  141.3363  140.0887  156.8347 H   0  0  0  0  0  0  0  0  0  0  0  0
  143.3304  141.3826  157.1261 H   0  0  0  0  0  0  0  0  0  0  0  0
  143.7436  140.0599  156.0532 H   0  0  0  0  0  0  0  0  0  0  0  0
  145.2762  143.1830  154.6985 H   0  0  0  0  0  0  0  0  0  0  0  0
  145.3584  142.3646  156.2368 H   0  0  0  0  0  0  0  0  0  0  0  0
  145.3725  140.6376  153.7552 H   0  0  0  0  0  0  0  0  0  0  0  0
  146.7216  139.4633  155.2297 H   0  0  0  0  0  0  0  0  0  0  0  0
  147.1324  142.1163  153.1113 H   0  0  0  0  0  0  0  0  0  0  0  0
  147.6964  142.3485  154.7398 H   0  0  0  0  0  0  0  0  0  0  0  0
  146.1284  138.8468  152.7638 H   0  0  0  0  0  0  0  0  0  0  0  0
  146.7518  139.9050  151.5080 H   0  0  0  0  0  0  0  0  0  0  0  0
  147.7273  137.2921  151.8423 H   0  0  0  0  0  0  0  0  0  0  0  0
  151.8992  138.1132  154.2866 H   0  0  0  0  0  0  0  0  0  0  0  0
  152.9394  139.6597  155.9515 H   0  0  0  0  0  0  0  0  0  0  0  0
  151.7666  141.7000  156.6932 H   0  0  0  0  0  0  0  0  0  0  0  0
  149.5155  142.2833  155.8104 H   0  0  0  0  0  0  0  0  0  0  0  0
  142.8997  143.6710  156.1418 H   0  0  0  0  0  0  0  0  0  0  0  0
  143.0655  143.8906  154.4112 H   0  0  0  0  0  0  0  0  0  0  0  0
  141.1402  142.3978  153.9738 H   0  0  0  0  0  0  0  0  0  0  0  0
  140.6089  144.7963  154.3796 H   0  0  0  0  0  0  0  0  0  0  0  0
  140.4430  144.4749  156.1052 H   0  0  0  0  0  0  0  0  0  0  0  0
  139.3181  143.7490  154.9602 H   0  0  0  0  0  0  0  0  0  0  0  0
  143.4445  141.5316  154.2172 H   0  0  0  0  0  0  0  0  0  0  0  0
  149.4928  137.8381  152.7255 H   0  0  0  0  0  0  0  0  0  0  0  0
  1  2  1  0  0  0  0
  1 24  1  0  0  0  0
  1 25  1  0  0  0  0
  1 26  1  0  0  0  0
  2 23  1  0  0  0  0
  2  3  1  0  0  0  0
  2 27  1  0  0  0  0
  3  4  1  0  0  0  0
  3 28  1  0  0  0  0
  3 29  1  0  0  0  0
  4  5  1  0  0  0  0
  4 20  1  0  0  0  0
  4 49  1  0  0  0  0
  5  6  1  0  0  0  0
  5 30  1  0  0  0  0
  5 31  1  0  0  0  0
  6  7  1  0  0  0  0
  6  8  1  0  0  0  0
  6 32  1  0  0  0  0
  7 33  1  0  0  0  0
  8  9  1  0  0  0  0
  8 34  1  0  0  0  0
  8 35  1  0  0  0  0
  9 19  1  0  0  0  0
  9 10  1  0  0  0  0
 10 11  1  0  0  0  0
 10 13  2  0  0  0  0
 11 12  1  0  0  0  0
 11 36  1  0  0  0  0
 11 37  1  0  0  0  0
 12 38  1  0  0  0  0
 13 14  1  0  0  0  0
 13 50  1  0  0  0  0
 14 19  2  0  0  0  0
 14 15  1  0  0  0  0
 15 16  2  0  0  0  0
 15 39  1  0  0  0  0
 16 17  1  0  0  0  0
 16 40  1  0  0  0  0
 17 18  2  0  0  0  0
 17 41  1  0  0  0  0
 18 19  1  0  0  0  0
 18 42  1  0  0  0  0
 20 21  1  0  0  0  0
 20 43  1  0  0  0  0
 20 44  1  0  0  0  0
 21 22  1  0  0  0  0
 21 23  1  0  0  0  0
 21 45  1  0  0  0  0
 22 46  1  0  0  0  0
 22 47  1  0  0  0  0
 22 48  1  0  0  0  0
M  CHG  1   4   1
M  CHG  1  13   1
M  END
> <s_m_source_file>
AV-unprocessed.smi

> <i_m_source_file_index>
1703

> <i_lp_mmshare_version>
43012

> <i_f3d_flags>
0

> <s_epik_input>
W0NIM11bQ0BASF0xW0NIMl1OKFtDSDJdW0NASF0oTzEpW0NIM10pW0NIMl1bQ0BIXShbT0hdKVtDSDJdbihjKG4yKVtDSDJdW09IXSljKGMyMylbY0hdW2NIXVtjSF1bY0hdMw==

> <s_epik_cmdline>
J2VwaWtfcHl0aG9uJywgJy1waCcsICc3LjAnLCAnLXRuJywgJzgnLCAnLW1hJywgJzIwMCcsICctbWV0YWxfYmluZGluZycsICctaW1hZScsICc8aW5maWxlLm1hZT4nLCAnLW9tYWUnLCAnPG91dGZpbGUubWFlPic=

> <r_epik_Ionization_Penalty>
2.22579

> <r_epik_Ionization_Penalty_Charging>
2.22492

> <r_epik_Ionization_Penalty_Neutral>
0.000870007

> <r_epik_State_Penalty>
2.3141

> <r_epik_Charging_Adjusted_Penalty>
4.53902

> <i_epik_Tot_Q>
2

> <i_epik_Tot_abs_Q>
2

> <r_epik_Metal_State_Penalty>
6.36517

> <b_epik_Metal_Only>
0

> <s_lp_Force_Field>
OPLS_2005

> <r_lp_Energy>
31.039

> <b_lp_Chiralities_Consistent>
1

> <s_lp_Variant>
AV-unprocessed.smi:1703-26

> <Gold.Version>
5.8.1

> <Gold.Id.Protein>
6NUR|6NUR_protein|mol2

> <Gold.PLP.Fitness>
50.9502

> <Gold.PLP.PLP>
-34.6096

> <Gold.PLP.part.hbond>
-5.3858

> <Gold.PLP.part.metal>
0.0000

> <Gold.PLP.part.buried>
4.2925

> <Gold.PLP.part.nonpolar>
-33.4451

> <Gold.PLP.part.repulsive>
0.1365

> <Gold.PLP.ligand.clash>
0.0000

> <Gold.PLP.ligand.torsion>
0.6681

> <Gold.PLP.Chemscore.Hbond>
5.8640

> <Gold.PLP.Chemscore.CHOScore>
0.0000

> <Gold.PLP.Chemscore.Metal>
0.0000

> <Gold.Chemscore.Hbonds>
donor molecule, donor type, donor heavy atom, donor atom, acceptor molecule, acceptor atom, score
      L1  H     4    49       P1 10175  1.50
      L1  H    12    38       P1  7948  0.86
      L1  H    13    50       P1  7948  2.00
      P1  H  7954  7966       L1    12  1.00

> <Gold.PLP.Chemscore.Internal.Correction>
0.0848

> <Gold.Rescore>
     Score         DG    S(hbond)    S(metal)    S(lipo)     H(rot)  DE(clash)    DE(int)     intcor
     12.18     -14.03       2.28        0.00      74.47       3.04       1.13       0.72       ----

> <Gold.Chemscore.Fitness>
12.1767

> <Gold.Chemscore.DG>
-14.0268

> <Gold.Chemscore.ZeroCoef>
-5.4800

> <Gold.Chemscore.Hbond>
2.2785

> <Gold.Chemscore.Metal>
0.0000

> <Gold.Chemscore.Lipo>
74.4728

> <Gold.Chemscore.Internal_Hbond>
0.0000

> <Gold.Chemscore.DEClash>
1.1299

> <Gold.Chemscore.DEInternal>
0.7202

> <Gold.Chemscore.Rot>
3.0378

> <Gold.Chemscore.Internal.Correction>
   9.000000E+99

> <Gold.Chemscore.Hbonds>
donor molecule, donor type, donor heavy atom, donor atom, acceptor molecule, acceptor atom, score
      L1  H     4    49       P1 10175  0.09
      L1  H    12    38       P1  7948  0.83
      L1  H    13    50       P1  7948  0.77
      P1  H  7954  7966       L1    12  0.26

> <Gold.Chemscore.Hbond.Weighted>
-7.6102

> <Gold.Chemscore.Metal.Weighted>
-0.0000

> <Gold.Chemscore.Lipo.Weighted>
-8.7133

> <Gold.Chemscore.Internal_Hbond.Weighted>
0.0000

> <Gold.Chemscore.DEClash.Weighted>
1.1299

> <Gold.Chemscore.DEInternal.Weighted>
0.7202

> <Gold.Chemscore.Rot.Weighted>
7.7767

> <Gold.Chemscore.Internal.Correction.Weighted>
   9.000000E+99

> <Gold.Protein.RotatedTorsions>
[ 6907 6896 6895 6894 ] final -126.14 input  -60.11 | X-H torsion
[ 7974 7965 7964 7962 ] final -169.86 input  175.53 | X-H torsion
[ 8008 7997 7996 7995 ] final -101.67 input   59.86 | X-H torsion
[ 10167 10162 10161 10158 ] final   66.42 input  -65.29 | X-H torsion
[ 10718 10713 10712 10709 ] final  -68.89 input   66.30 | X-H torsion
[ 10763 10752 10751 10750 ] final   11.02 input  -60.55 | X-H torsion
[ 11005 11000 10999 10996 ] final  171.88 input  -57.11 | X-H torsion

> <Gold.Protein.ActiveResidues>
 VAL166  LYS551  ARG553  GLY616  TRP617  ASP618  TYR619  PRO620  LYS621  CYS622 
 ASP623  PHE694  ASN695  SER759  ASP760  ASP761  ALA762  ILE779  LEU786  VAL792 
 PHE793  MET794  SER795  GLU796  ALA797  LYS798  CYS799  TRP800  GLU811  SER814 

> <Gold.Protein.RotatedAtoms>
  150.8938  133.7207  159.2897 H   0  0  0  0  0  0  0  0  0  0  0  0  # atno 6907 bound_to 6896
  151.4749  135.1047  159.9771 H   0  0  0  0  0  0  0  0  0  0  0  0  # atno 6908 bound_to 6896
  152.4836  133.8269  159.7138 H   0  0  0  0  0  0  0  0  0  0  0  0  # atno 6909 bound_to 6896
  144.7179  140.2159  143.6322 H   0  0  0  0  0  0  0  0  0  0  0  0  # atno 7974 bound_to 7965
  154.8459  140.0433  157.1572 H   0  0  0  0  0  0  0  0  0  0  0  0  # atno 8008 bound_to 7997
  154.8996  140.2998  155.5305 H   0  0  0  0  0  0  0  0  0  0  0  0  # atno 8009 bound_to 7997
  156.2994  140.2378  156.4022 H   0  0  0  0  0  0  0  0  0  0  0  0  # atno 8010 bound_to 7997
  140.1006  144.4907  150.7040 H   0  0  0  0  0  0  0  0  0  0  0  0  # atno 10167 bound_to 10162
  156.0482  130.4303  150.2067 H   0  0  0  0  0  0  0  0  0  0  0  0  # atno 10718 bound_to 10713
  153.1970  135.6850  153.8279 H   0  0  0  0  0  0  0  0  0  0  0  0  # atno 10763 bound_to 10752
  153.7558  135.3217  155.3330 H   0  0  0  0  0  0  0  0  0  0  0  0  # atno 10764 bound_to 10752
  154.8150  135.4692  154.0719 H   0  0  0  0  0  0  0  0  0  0  0  0  # atno 10765 bound_to 10752
  140.3237  134.7416  157.4083 H   0  0  0  0  0  0  0  0  0  0  0  0  # atno 11005 bound_to 11000
  145.8547  139.2193  143.1751 LP  0  0  0  0  0  0  0  0  0  0  0  0  # atno 17320 bound_to 7965
  146.0228  140.8331  142.9914 LP  0  0  0  0  0  0  0  0  0  0  0  0  # atno 17321 bound_to 7965
  140.6980  143.2416  151.4947 LP  0  0  0  0  0  0  0  0  0  0  0  0  # atno 17342 bound_to 10162
  139.5673  144.2011  152.1784 LP  0  0  0  0  0  0  0  0  0  0  0  0  # atno 17343 bound_to 10162
  157.0154  130.9963  151.3354 LP  0  0  0  0  0  0  0  0  0  0  0  0  # atno 17370 bound_to 10713
  157.5381  130.8102  149.7996 LP  0  0  0  0  0  0  0  0  0  0  0  0  # atno 17371 bound_to 10713
  140.0920  134.5589  155.8435 LP  0  0  0  0  0  0  0  0  0  0  0  0  # atno 17394 bound_to 11000
  141.2080  133.6670  156.6344 LP  0  0  0  0  0  0  0  0  0  0  0  0  # atno 17395 bound_to 11000

$$$$
