AV-unprocessed.smi:845|AV-procd|sdf|3928|dock7
  -GOLD-   22720 1393D 1   1.00000     0.00000
 Structure written by MMmdl.
 43 44  0  0  0  0  0  0  0  0  2 V2000
  148.2102  140.9924  154.0318 C   0  0  0  0  0  0  0  0  0  0  0  0
  147.7239  139.6584  153.4323 C   0  0  0  0  0  0  0  0  0  0  0  0
  146.2918  139.8439  152.8963 C   0  0  0  0  0  0  0  0  0  0  0  0
  147.8221  138.4889  154.4561 C   0  0  1  0  0  0  0  0  0  0  0  0
  146.6271  137.4938  154.4326 C   0  0  0  0  0  0  0  0  0  0  0  0
  146.7732  136.4245  153.4452 N   0  0  0  0  0  0  0  0  0  0  0  0
  145.8553  135.4877  153.1672 C   0  0  0  0  0  0  0  0  0  0  0  0
  144.7695  135.4093  153.7420 O   0  0  0  0  0  0  0  0  0  0  0  0
  146.2833  134.6596  152.1984 N   0  0  0  0  0  0  0  0  0  0  0  0
  145.6156  133.5330  151.6498 C   0  0  0  0  0  0  0  0  0  0  0  0
  146.1482  132.7102  150.7388 N   0  0  0  0  0  0  0  0  0  0  0  0
  145.2664  131.6891  150.3753 C   0  0  0  0  0  0  0  0  0  0  0  0
  144.0572  131.7517  151.0222 C   0  0  0  0  0  0  0  0  0  0  0  0
  143.9776  133.1035  152.1206 S   0  0  0  0  0  0  0  0  0  0  0  0
  149.1570  137.8167  154.4007 N   0  3  0  0  0  0  0  0  0  0  0  0
  150.3153  138.7431  154.4203 C   0  0  0  0  0  0  0  0  0  0  0  0
  151.6109  137.9675  154.1266 C   0  0  0  0  0  0  0  0  0  0  0  0
  151.7655  136.9137  155.0703 O   0  0  0  0  0  0  0  0  0  0  0  0
  150.6939  135.9789  155.0137 C   0  0  0  0  0  0  0  0  0  0  0  0
  149.3734  136.6926  155.3446 C   0  0  0  0  0  0  0  0  0  0  0  0
  147.6285  141.2673  154.9122 H   0  0  0  0  0  0  0  0  0  0  0  0
  148.1168  141.8037  153.3091 H   0  0  0  0  0  0  0  0  0  0  0  0
  149.2596  140.9505  154.3239 H   0  0  0  0  0  0  0  0  0  0  0  0
  148.3628  139.4389  152.5767 H   0  0  0  0  0  0  0  0  0  0  0  0
  145.5875  140.0382  153.7060 H   0  0  0  0  0  0  0  0  0  0  0  0
  145.9406  138.9668  152.3533 H   0  0  0  0  0  0  0  0  0  0  0  0
  146.2379  140.6846  152.2042 H   0  0  0  0  0  0  0  0  0  0  0  0
  147.7855  138.9658  155.4369 H   0  0  0  0  0  0  0  0  0  0  0  0
  146.4280  137.1022  155.4301 H   0  0  0  0  0  0  0  0  0  0  0  0
  145.7223  138.0377  154.1607 H   0  0  0  0  0  0  0  0  0  0  0  0
  147.6345  136.4112  152.9186 H   0  0  0  0  0  0  0  0  0  0  0  0
  147.1934  134.8546  151.8079 H   0  0  0  0  0  0  0  0  0  0  0  0
  145.5823  130.9577  149.6460 H   0  0  0  0  0  0  0  0  0  0  0  0
  143.2121  131.0872  150.9194 H   0  0  0  0  0  0  0  0  0  0  0  0
  150.1852  139.5274  153.6739 H   0  0  0  0  0  0  0  0  0  0  0  0
  150.3919  139.2320  155.3919 H   0  0  0  0  0  0  0  0  0  0  0  0
  151.6013  137.5630  153.1131 H   0  0  0  0  0  0  0  0  0  0  0  0
  152.4714  138.6335  154.1949 H   0  0  0  0  0  0  0  0  0  0  0  0
  150.6501  135.5130  154.0281 H   0  0  0  0  0  0  0  0  0  0  0  0
  150.8814  135.1829  155.7344 H   0  0  0  0  0  0  0  0  0  0  0  0
  149.4238  137.0662  156.3664 H   0  0  0  0  0  0  0  0  0  0  0  0
  148.5485  135.9825  155.2948 H   0  0  0  0  0  0  0  0  0  0  0  0
  149.1835  137.3985  153.4818 H   0  0  0  0  0  0  0  0  0  0  0  0
  1  2  1  0  0  0  0
  1 21  1  0  0  0  0
  1 22  1  0  0  0  0
  1 23  1  0  0  0  0
  2  3  1  0  0  0  0
  2  4  1  0  0  0  0
  2 24  1  0  0  0  0
  3 25  1  0  0  0  0
  3 26  1  0  0  0  0
  3 27  1  0  0  0  0
  4  5  1  0  0  0  0
  4 15  1  0  0  0  0
  4 28  1  0  0  0  0
  5  6  1  0  0  0  0
  5 29  1  0  0  0  0
  5 30  1  0  0  0  0
  6  7  1  0  0  0  0
  6 31  1  0  0  0  0
  7  8  2  0  0  0  0
  7  9  1  0  0  0  0
  9 10  1  0  0  0  0
  9 32  1  0  0  0  0
 10 14  1  0  0  0  0
 10 11  2  0  0  0  0
 11 12  1  0  0  0  0
 12 13  2  0  0  0  0
 12 33  1  0  0  0  0
 13 14  1  0  0  0  0
 13 34  1  0  0  0  0
 15 20  1  0  0  0  0
 15 16  1  0  0  0  0
 15 43  1  0  0  0  0
 16 17  1  0  0  0  0
 16 35  1  0  0  0  0
 16 36  1  0  0  0  0
 17 18  1  0  0  0  0
 17 37  1  0  0  0  0
 17 38  1  0  0  0  0
 18 19  1  0  0  0  0
 19 20  1  0  0  0  0
 19 39  1  0  0  0  0
 19 40  1  0  0  0  0
 20 41  1  0  0  0  0
 20 42  1  0  0  0  0
M  CHG  1  15   1
M  END
> <s_m_source_file>
AV-unprocessed.smi

> <i_m_source_file_index>
845

> <i_lp_mmshare_version>
43012

> <i_f3d_flags>
0

> <s_epik_input>
W0NIMl0xW0NIMl1PW0NIMl1bQ0gyXU4xW0NASF0oW0NIXShbQ0gzXSlbQ0gzXSlbQ0gyXVtOSF1DKD1PKVtOSF1jMm5bY0hdW2NIXXMy

> <s_epik_cmdline>
J2VwaWtfcHl0aG9uJywgJy1waCcsICc3LjAnLCAnLXRuJywgJzgnLCAnLW1hJywgJzIwMCcsICctbWV0YWxfYmluZGluZycsICctaW1hZScsICc8aW5maWxlLm1hZT4nLCAnLW9tYWUnLCAnPG91dGZpbGUubWFlPic=

> <r_lp_tautomer_probability>
0.999

> <r_epik_Ionization_Penalty>
0.398341

> <r_epik_Ionization_Penalty_Charging>
0.398119

> <r_epik_Ionization_Penalty_Neutral>
0.000222117

> <r_epik_State_Penalty>
0.397286

> <r_epik_Charging_Adjusted_Penalty>
0.795404

> <i_epik_Tot_Q>
1

> <i_epik_Tot_abs_Q>
1

> <r_epik_Metal_State_Penalty>
0.407542

> <b_epik_Metal_Only>
0

> <s_lp_Force_Field>
OPLS_2005

> <r_lp_Energy>
31.69

> <b_lp_Chiralities_Consistent>
1

> <s_lp_Variant>
AV-unprocessed.smi:845-2

> <Gold.Version>
5.8.1

> <Gold.Id.Protein>
6NUR|6NUR_protein|mol2

> <Gold.PLP.Fitness>
45.6557

> <Gold.PLP.PLP>
-31.3020

> <Gold.PLP.part.hbond>
-4.0000

> <Gold.PLP.part.metal>
0.0000

> <Gold.PLP.part.buried>
-1.4108

> <Gold.PLP.part.nonpolar>
-27.7821

> <Gold.PLP.part.repulsive>
1.0749

> <Gold.PLP.ligand.clash>
0.0000

> <Gold.PLP.ligand.torsion>
1.2519

> <Gold.PLP.Chemscore.Hbond>
4.9120

> <Gold.PLP.Chemscore.CHOScore>
0.6141

> <Gold.PLP.Chemscore.Metal>
0.0000

> <Gold.Chemscore.Hbonds>
donor molecule, donor type, donor heavy atom, donor atom, acceptor molecule, acceptor atom, score
      L1  H     6    31       P1  7948  1.00
      L1  H     9    32       P1  7948  0.56
      L1  H    15    43       P1  7948  2.00
      P1  H 10752 10763       L1    18  0.55
      L1  C    13    34       P1 10952  0.21

> <Gold.PLP.Chemscore.Internal.Correction>
0.2790

> <Gold.Rescore>
     Score         DG    S(hbond)    S(metal)    S(lipo)     H(rot)  DE(clash)    DE(int)     intcor
     17.34     -20.53       3.02        0.00      81.82       1.80       1.29       1.91       ----

> <Gold.Chemscore.Fitness>
17.3355

> <Gold.Chemscore.DG>
-20.5286

> <Gold.Chemscore.ZeroCoef>
-5.4800

> <Gold.Chemscore.Hbond>
3.0227

> <Gold.Chemscore.Metal>
0.0000

> <Gold.Chemscore.Lipo>
81.8150

> <Gold.Chemscore.Internal_Hbond>
0.0000

> <Gold.Chemscore.DEClash>
1.2863

> <Gold.Chemscore.DEInternal>
1.9068

> <Gold.Chemscore.Rot>
1.8046

> <Gold.Chemscore.Internal.Correction>
   9.000000E+99

> <Gold.Chemscore.Hbonds>
donor molecule, donor type, donor heavy atom, donor atom, acceptor molecule, acceptor atom, score
      L1  H     6    31       P1  7948  1.00
      L1  H     9    32       P1  7948  0.47
      L1  H    15    43       P1  7948  0.97
      P1  H 10752 10763       L1    18  0.02

> <Gold.Chemscore.Hbond.Weighted>
-10.0959

> <Gold.Chemscore.Metal.Weighted>
-0.0000

> <Gold.Chemscore.Lipo.Weighted>
-9.5724

> <Gold.Chemscore.Internal_Hbond.Weighted>
0.0000

> <Gold.Chemscore.DEClash.Weighted>
1.2863

> <Gold.Chemscore.DEInternal.Weighted>
1.9068

> <Gold.Chemscore.Rot.Weighted>
4.6197

> <Gold.Chemscore.Internal.Correction.Weighted>
   9.000000E+99

> <Gold.Protein.RotatedTorsions>
[ 6907 6896 6895 6894 ] final -169.31 input  -60.11 | X-H torsion
[ 7974 7965 7964 7962 ] final   32.16 input  175.53 | X-H torsion
[ 8008 7997 7996 7995 ] final   99.51 input   59.86 | X-H torsion
[ 10167 10162 10161 10158 ] final -138.19 input  -65.29 | X-H torsion
[ 10718 10713 10712 10709 ] final   67.80 input   66.30 | X-H torsion
[ 10763 10752 10751 10750 ] final   49.20 input  -60.55 | X-H torsion
[ 11005 11000 10999 10996 ] final -145.34 input  -57.11 | X-H torsion

> <Gold.Protein.ActiveResidues>
 VAL166  LYS551  ARG553  GLY616  TRP617  ASP618  TYR619  PRO620  LYS621  CYS622 
 ASP623  PHE694  ASN695  SER759  ASP760  ASP761  ALA762  ILE779  LEU786  VAL792 
 PHE793  MET794  SER795  GLU796  ALA797  LYS798  CYS799  TRP800  GLU811  SER814 

> <Gold.Protein.RotatedAtoms>
  151.4895  133.3528  159.2850 H   0  0  0  0  0  0  0  0  0  0  0  0  # atno 6907 bound_to 6896
  150.8844  134.8242  159.7259 H   0  0  0  0  0  0  0  0  0  0  0  0  # atno 6908 bound_to 6896
  152.4783  134.4797  159.9713 H   0  0  0  0  0  0  0  0  0  0  0  0  # atno 6909 bound_to 6896
  146.1504  139.6562  142.9102 H   0  0  0  0  0  0  0  0  0  0  0  0  # atno 7974 bound_to 7965
  156.1112  140.3227  155.8075 H   0  0  0  0  0  0  0  0  0  0  0  0  # atno 8008 bound_to 7997
  155.4669  140.0543  157.3001 H   0  0  0  0  0  0  0  0  0  0  0  0  # atno 8009 bound_to 7997
  154.4761  140.2033  155.9888 H   0  0  0  0  0  0  0  0  0  0  0  0  # atno 8010 bound_to 7997
  139.8503  143.7207  152.2658 H   0  0  0  0  0  0  0  0  0  0  0  0  # atno 10167 bound_to 10162
  157.6252  130.9340  150.0291 H   0  0  0  0  0  0  0  0  0  0  0  0  # atno 10718 bound_to 10713
  152.9788  135.5919  154.4049 H   0  0  0  0  0  0  0  0  0  0  0  0  # atno 10763 bound_to 10752
  154.3691  135.2767  155.2278 H   0  0  0  0  0  0  0  0  0  0  0  0  # atno 10764 bound_to 10752
  154.4242  135.6052  153.6083 H   0  0  0  0  0  0  0  0  0  0  0  0  # atno 10765 bound_to 10752
  140.7933  134.2943  157.5005 H   0  0  0  0  0  0  0  0  0  0  0  0  # atno 11005 bound_to 11000
  145.4837  141.0438  143.2631 LP  0  0  0  0  0  0  0  0  0  0  0  0  # atno 17320 bound_to 7965
  144.7897  139.6354  143.7119 LP  0  0  0  0  0  0  0  0  0  0  0  0  # atno 17321 bound_to 7965
  139.7472  144.7544  151.0562 LP  0  0  0  0  0  0  0  0  0  0  0  0  # atno 17342 bound_to 10162
  140.7788  143.4903  150.9902 LP  0  0  0  0  0  0  0  0  0  0  0  0  # atno 17343 bound_to 10162
  156.1419  130.3642  149.9569 LP  0  0  0  0  0  0  0  0  0  0  0  0  # atno 17370 bound_to 10713
  156.7607  130.9150  151.3641 LP  0  0  0  0  0  0  0  0  0  0  0  0  # atno 17371 bound_to 10713
  139.8729  134.9387  156.3721 LP  0  0  0  0  0  0  0  0  0  0  0  0  # atno 17394 bound_to 11000
  140.9368  133.7541  156.0095 LP  0  0  0  0  0  0  0  0  0  0  0  0  # atno 17395 bound_to 11000

$$$$
