AV-unprocessed.smi:234|AV-procd|sdf|1798|dock7
  -GOLD-   2262020363D 1   1.00000     0.00000
 Structure written by MMmdl.
 59 62  0  0  0  0  0  0  0  0  1 V2000
  153.1638  142.2378  160.1561 C   0  0  0  0  0  0  0  0  0  0  0  0
  152.9867  140.7599  159.7843 C   0  0  0  0  0  0  0  0  0  0  0  0
  151.7407  140.5038  159.1500 O   0  0  0  0  0  0  0  0  0  0  0  0
  151.4870  141.2830  157.9879 C   0  0  1  0  0  0  0  0  0  0  0  0
  152.2815  140.8793  156.7453 C   0  0  0  0  0  0  0  0  0  0  0  0
  150.9958  141.1688  155.9587 C   0  0  1  0  0  0  0  0  0  0  0  0
  150.7588  140.2507  154.8388 N   0  0  0  0  0  0  0  0  0  0  0  0
  151.4563  138.9690  154.8448 C   0  0  0  0  0  0  0  0  0  0  0  0
  149.4914  140.1348  154.3697 C   0  0  0  0  0  0  0  0  0  0  0  0
  148.8941  141.1843  153.7439 N   0  0  0  0  0  0  0  0  0  0  0  0
  147.6405  141.0739  153.2947 C   0  0  0  0  0  0  0  0  0  0  0  0
  146.8178  140.0255  153.3653 N   0  0  0  0  0  0  0  0  0  0  0  0
  147.4118  138.9714  153.9951 C   0  0  0  0  0  0  0  0  0  0  0  0
  148.7304  138.9444  154.5294 C   0  0  0  0  0  0  0  0  0  0  0  0
  148.9868  137.7040  155.1003 N   0  0  0  0  0  0  0  0  0  0  0  0
  147.8827  137.0340  154.9111 C   0  0  0  0  0  0  0  0  0  0  0  0
  146.8876  137.7155  154.2467 N   0  0  0  0  0  0  0  0  0  0  0  0
  145.5689  137.2089  153.8970 C   0  0  0  0  0  0  0  0  0  0  0  0
  145.5572  136.3756  152.5882 C   0  0  2  0  0  0  0  0  0  0  0  0
  146.3523  137.0594  151.6331 O   0  0  0  0  0  0  0  0  0  0  0  0
  144.1667  136.1870  151.9902 C   0  0  0  0  0  0  0  0  0  0  0  0
  144.3069  134.8895  151.2094 C   0  0  0  0  0  0  0  0  0  0  0  0
  145.1078  134.0968  152.0686 O   0  0  0  0  0  0  0  0  0  0  0  0
  146.0943  134.9200  152.6881 C   0  0  2  0  0  0  0  0  0  0  0  0
  146.3238  134.3669  154.1034 C   0  0  0  0  0  0  0  0  0  0  0  0
  150.1941  140.8478  157.2522 C   0  0  0  0  0  0  0  0  0  0  0  0
  149.7650  139.3858  157.4743 C   0  0  0  0  0  0  0  0  0  0  0  0
  148.9712  141.7228  157.5304 C   0  0  0  0  0  0  0  0  0  0  0  0
  154.1754  142.4244  160.5168 H   0  0  0  0  0  0  0  0  0  0  0  0
  152.4786  142.5420  160.9459 H   0  0  0  0  0  0  0  0  0  0  0  0
  152.9943  142.8815  159.2927 H   0  0  0  0  0  0  0  0  0  0  0  0
  153.7689  140.4849  159.0766 H   0  0  0  0  0  0  0  0  0  0  0  0
  153.1212  140.1167  160.6548 H   0  0  0  0  0  0  0  0  0  0  0  0
  151.5066  142.3600  158.1719 H   0  0  0  0  0  0  0  0  0  0  0  0
  153.1155  141.5380  156.5028 H   0  0  0  0  0  0  0  0  0  0  0  0
  152.5792  139.8293  156.7445 H   0  0  0  0  0  0  0  0  0  0  0  0
  150.9220  142.2227  155.6829 H   0  0  0  0  0  0  0  0  0  0  0  0
  150.7658  138.1328  154.9679 H   0  0  0  0  0  0  0  0  0  0  0  0
  152.1793  138.9154  155.6575 H   0  0  0  0  0  0  0  0  0  0  0  0
  151.9948  138.8312  153.9071 H   0  0  0  0  0  0  0  0  0  0  0  0
  147.2390  141.9516  152.8098 H   0  0  0  0  0  0  0  0  0  0  0  0
  147.7653  136.0135  155.2459 H   0  0  0  0  0  0  0  0  0  0  0  0
  145.2029  136.6100  154.7321 H   0  0  0  0  0  0  0  0  0  0  0  0
  144.8991  138.0648  153.8137 H   0  0  0  0  0  0  0  0  0  0  0  0
  147.2616  136.8825  151.8199 H   0  0  0  0  0  0  0  0  0  0  0  0
  143.4340  136.0388  152.7842 H   0  0  0  0  0  0  0  0  0  0  0  0
  143.8300  137.0251  151.3782 H   0  0  0  0  0  0  0  0  0  0  0  0
  143.3479  134.4150  151.0013 H   0  0  0  0  0  0  0  0  0  0  0  0
  144.8272  135.0518  150.2642 H   0  0  0  0  0  0  0  0  0  0  0  0
  147.0227  134.8148  152.1236 H   0  0  0  0  0  0  0  0  0  0  0  0
  147.0814  134.9402  154.6378 H   0  0  0  0  0  0  0  0  0  0  0  0
  146.6684  133.3336  154.0606 H   0  0  0  0  0  0  0  0  0  0  0  0
  145.4056  134.3802  154.6912 H   0  0  0  0  0  0  0  0  0  0  0  0
  148.9373  139.1041  156.8233 H   0  0  0  0  0  0  0  0  0  0  0  0
  149.4364  139.2194  158.5006 H   0  0  0  0  0  0  0  0  0  0  0  0
  150.5769  138.6843  157.2819 H   0  0  0  0  0  0  0  0  0  0  0  0
  148.1142  141.4299  156.9241 H   0  0  0  0  0  0  0  0  0  0  0  0
  149.1737  142.7730  157.3180 H   0  0  0  0  0  0  0  0  0  0  0  0
  148.6689  141.6583  158.5761 H   0  0  0  0  0  0  0  0  0  0  0  0
  1  2  1  0  0  0  0
  1 29  1  0  0  0  0
  1 30  1  0  0  0  0
  1 31  1  0  0  0  0
  2  3  1  0  0  0  0
  2 32  1  0  0  0  0
  2 33  1  0  0  0  0
  3  4  1  0  0  0  0
  4 26  1  0  0  0  0
  4  5  1  0  0  0  0
  4 34  1  0  0  0  0
  5  6  1  0  0  0  0
  5 35  1  0  0  0  0
  5 36  1  0  0  0  0
  6  7  1  0  0  0  0
  6 26  1  0  0  0  0
  6 37  1  0  0  0  0
  7  8  1  0  0  0  0
  7  9  1  0  0  0  0
  8 38  1  0  0  0  0
  8 39  1  0  0  0  0
  8 40  1  0  0  0  0
  9 14  1  0  0  0  0
  9 10  2  0  0  0  0
 10 11  1  0  0  0  0
 11 12  2  0  0  0  0
 11 41  1  0  0  0  0
 12 13  1  0  0  0  0
 13 17  1  0  0  0  0
 13 14  2  0  0  0  0
 14 15  1  0  0  0  0
 15 16  2  0  0  0  0
 16 17  1  0  0  0  0
 16 42  1  0  0  0  0
 17 18  1  0  0  0  0
 18 19  1  0  0  0  0
 18 43  1  0  0  0  0
 18 44  1  0  0  0  0
 19 24  1  0  0  0  0
 19 20  1  0  0  0  0
 19 21  1  0  0  0  0
 20 45  1  0  0  0  0
 21 22  1  0  0  0  0
 21 46  1  0  0  0  0
 21 47  1  0  0  0  0
 22 23  1  0  0  0  0
 22 48  1  0  0  0  0
 22 49  1  0  0  0  0
 23 24  1  0  0  0  0
 24 25  1  0  0  0  0
 24 50  1  0  0  0  0
 25 51  1  0  0  0  0
 25 52  1  0  0  0  0
 25 53  1  0  0  0  0
 26 27  1  0  0  0  0
 26 28  1  0  0  0  0
 27 54  1  0  0  0  0
 27 55  1  0  0  0  0
 27 56  1  0  0  0  0
 28 57  1  0  0  0  0
 28 58  1  0  0  0  0
 28 59  1  0  0  0  0
M  END
> <s_m_source_file>
AV-unprocessed.smi

> <i_m_source_file_index>
234

> <i_lp_mmshare_version>
43012

> <i_f3d_flags>
0

> <s_epik_input>
W0NIM11bQ0gyXU9bQ0BASF0oQzEoW0NIM10pW0NIM10pW0NIMl1bQ0BIXTFOKFtDSDNdKWMobltjSF1uMiljKGMyMyluW2NIXW4zW0NIMl1bQ0BAXTQoW09IXSlbQ0gyXVtDSDJdT1tDQEhdNFtDSDNd

> <s_epik_cmdline>
J2VwaWtfcHl0aG9uJywgJy1waCcsICc3LjAnLCAnLXRuJywgJzgnLCAnLW1hJywgJzIwMCcsICctbWV0YWxfYmluZGluZycsICctaW1hZScsICc8aW5maWxlLm1hZT4nLCAnLW9tYWUnLCAnPG91dGZpbGUubWFlPic=

> <r_lp_tautomer_probability>
1

> <r_epik_Ionization_Penalty>
0.00349132

> <r_epik_Ionization_Penalty_Charging>
0

> <r_epik_Ionization_Penalty_Neutral>
0.00349132

> <r_epik_State_Penalty>
0.00242418

> <r_epik_Charging_Adjusted_Penalty>
0.00242418

> <i_epik_Tot_Q>
0

> <i_epik_Tot_abs_Q>
0

> <r_epik_Metal_State_Penalty>
-0

> <b_epik_Metal_Only>
0

> <s_lp_Force_Field>
OPLS_2005

> <r_lp_Energy>
48.9285

> <b_lp_Chiralities_Consistent>
1

> <s_lp_Variant>
AV-unprocessed.smi:234-14

> <Gold.Version>
5.8.1

> <Gold.Id.Protein>
6NUR|6NUR_protein|mol2

> <Gold.PLP.Fitness>
40.7696

> <Gold.PLP.PLP>
-36.0929

> <Gold.PLP.part.hbond>
-2.9458

> <Gold.PLP.part.metal>
0.0000

> <Gold.PLP.part.buried>
-6.1515

> <Gold.PLP.part.nonpolar>
-27.1859

> <Gold.PLP.part.repulsive>
1.7769

> <Gold.PLP.ligand.clash>
0.2136

> <Gold.PLP.ligand.torsion>
1.5119

> <Gold.PLP.Chemscore.Hbond>
2.2970

> <Gold.PLP.Chemscore.CHOScore>
0.0000

> <Gold.PLP.Chemscore.Metal>
0.0000

> <Gold.Chemscore.Hbonds>
donor molecule, donor type, donor heavy atom, donor atom, acceptor molecule, acceptor atom, score
      L1  H    20    45       P1  7948  1.00
      P1  H  7989  7998       L1     7  0.75
      P1  H  8011  8017       L1    10  0.79

> <Gold.PLP.Chemscore.Internal.Correction>
1.0231

> <Gold.Rescore>
     Score         DG    S(hbond)    S(metal)    S(lipo)     H(rot)  DE(clash)    DE(int)     intcor
      8.34     -13.16       1.25        0.00      87.34       2.62       1.85       2.96       ----

> <Gold.Chemscore.Fitness>
8.3425

> <Gold.Chemscore.DG>
-13.1565

> <Gold.Chemscore.ZeroCoef>
-5.4800

> <Gold.Chemscore.Hbond>
1.2485

> <Gold.Chemscore.Metal>
0.0000

> <Gold.Chemscore.Lipo>
87.3374

> <Gold.Chemscore.Internal_Hbond>
0.0000

> <Gold.Chemscore.DEClash>
1.8497

> <Gold.Chemscore.DEInternal>
2.9643

> <Gold.Chemscore.Rot>
2.6219

> <Gold.Chemscore.Internal.Correction>
   9.000000E+99

> <Gold.Chemscore.Hbonds>
donor molecule, donor type, donor heavy atom, donor atom, acceptor molecule, acceptor atom, score
      L1  H    20    45       P1  7948  1.00
      P1  H  7989  7998       L1     7  0.03
      P1  H  8011  8017       L1    10  0.29

> <Gold.Chemscore.Hbond.Weighted>
-4.1701

> <Gold.Chemscore.Metal.Weighted>
-0.0000

> <Gold.Chemscore.Lipo.Weighted>
-10.2185

> <Gold.Chemscore.Internal_Hbond.Weighted>
0.0000

> <Gold.Chemscore.DEClash.Weighted>
1.8497

> <Gold.Chemscore.DEInternal.Weighted>
2.9643

> <Gold.Chemscore.Rot.Weighted>
6.7121

> <Gold.Chemscore.Internal.Correction.Weighted>
   9.000000E+99

> <Gold.Protein.RotatedTorsions>
[ 6907 6896 6895 6894 ] final   44.68 input  -60.11 | X-H torsion
[ 7974 7965 7964 7962 ] final   34.95 input  175.53 | X-H torsion
[ 8008 7997 7996 7995 ] final   28.30 input   59.86 | X-H torsion
[ 10167 10162 10161 10158 ] final   82.95 input  -65.29 | X-H torsion
[ 10718 10713 10712 10709 ] final  -82.27 input   66.30 | X-H torsion
[ 10763 10752 10751 10750 ] final  -40.37 input  -60.55 | X-H torsion
[ 11005 11000 10999 10996 ] final -147.48 input  -57.11 | X-H torsion

> <Gold.Protein.ActiveResidues>
 VAL166  LYS551  ARG553  GLY616  TRP617  ASP618  TYR619  PRO620  LYS621  CYS622 
 ASP623  PHE694  ASN695  SER759  ASP760  ASP761  ALA762  ILE779  LEU786  VAL792 
 PHE793  MET794  SER795  GLU796  ALA797  LYS798  CYS799  TRP800  GLU811  SER814 

> <Gold.Protein.RotatedAtoms>
  152.2355  134.8280  160.0467 H   0  0  0  0  0  0  0  0  0  0  0  0  # atno 6907 bound_to 6896
  151.9014  133.3534  159.3840 H   0  0  0  0  0  0  0  0  0  0  0  0  # atno 6908 bound_to 6896
  150.7038  134.4750  159.5487 H   0  0  0  0  0  0  0  0  0  0  0  0  # atno 6909 bound_to 6896
  146.1317  139.6204  142.9222 H   0  0  0  0  0  0  0  0  0  0  0  0  # atno 7974 bound_to 7965
  155.0565  140.3185  155.4674 H   0  0  0  0  0  0  0  0  0  0  0  0  # atno 8008 bound_to 7997
  156.2823  140.2136  156.5636 H   0  0  0  0  0  0  0  0  0  0  0  0  # atno 8009 bound_to 7997
  154.7167  140.0493  157.0589 H   0  0  0  0  0  0  0  0  0  0  0  0  # atno 8010 bound_to 7997
  139.9235  144.6197  150.8416 H   0  0  0  0  0  0  0  0  0  0  0  0  # atno 10167 bound_to 10162
  156.0036  130.4629  150.4080 H   0  0  0  0  0  0  0  0  0  0  0  0  # atno 10718 bound_to 10713
  153.9448  135.6757  153.4744 H   0  0  0  0  0  0  0  0  0  0  0  0  # atno 10763 bound_to 10752
  153.0914  135.4873  154.8693 H   0  0  0  0  0  0  0  0  0  0  0  0  # atno 10764 bound_to 10752
  154.7358  135.3149  154.8773 H   0  0  0  0  0  0  0  0  0  0  0  0  # atno 10765 bound_to 10752
  140.7712  134.3187  157.5074 H   0  0  0  0  0  0  0  0  0  0  0  0  # atno 11005 bound_to 11000
  145.5245  141.0430  143.2417 LP  0  0  0  0  0  0  0  0  0  0  0  0  # atno 17320 bound_to 7965
  144.7697  139.6762  143.7200 LP  0  0  0  0  0  0  0  0  0  0  0  0  # atno 17321 bound_to 7965
  140.7656  143.3280  151.2473 LP  0  0  0  0  0  0  0  0  0  0  0  0  # atno 17342 bound_to 10162
  139.6842  143.9803  152.2825 LP  0  0  0  0  0  0  0  0  0  0  0  0  # atno 17343 bound_to 10162
  157.2144  131.0468  151.2581 LP  0  0  0  0  0  0  0  0  0  0  0  0  # atno 17370 bound_to 10713
  157.3859  130.7256  149.6662 LP  0  0  0  0  0  0  0  0  0  0  0  0  # atno 17371 bound_to 10713
  139.8755  134.9262  156.3394 LP  0  0  0  0  0  0  0  0  0  0  0  0  # atno 17394 bound_to 11000
  140.9572  133.7412  156.0351 LP  0  0  0  0  0  0  0  0  0  0  0  0  # atno 17395 bound_to 11000

$$$$
