AV-unprocessed.smi:3002|AV-procd|sdf|11433|dock9
  -GOLD-   2272016363D 1   1.00000     0.00000
 Structure written by MMmdl.
 34 35  0  0  0  0  0  0  0  0  1 V2000
  143.4574  133.1175  158.7893 C   0  0  0  0  0  0  0  0  0  0  0  0
  143.3322  132.0536  159.9024 C   0  0  2  0  0  0  0  0  0  0  0  0
  144.7188  131.6520  160.4318 C   0  0  0  0  0  0  0  0  0  0  0  0
  145.0498  130.4671  160.4816 O   0  0  0  0  0  0  0  0  0  0  0  0
  145.5147  132.6521  160.8380 N   0  0  0  0  0  0  0  0  0  0  0  0
  146.8443  132.4756  161.4070 C   0  0  0  0  0  0  0  0  0  0  0  0
  147.5481  133.8305  161.5915 C   0  0  2  0  0  0  0  0  0  0  0  0
  147.0510  134.5855  162.8395 C   0  0  0  0  0  0  0  0  0  0  0  0
  147.5959  136.0160  162.7931 C   0  0  0  0  0  0  0  0  0  0  0  0
  147.6218  136.4728  161.0200 S   0  0  0  0  0  0  0  0  0  0  0  0
  146.4241  137.2641  160.7002 O   0  0  0  0  0  0  0  0  0  0  0  0
  148.9655  136.9567  160.6689 O   0  0  0  0  0  0  0  0  0  0  0  0
  147.3947  134.7690  160.3807 C   0  0  0  0  0  0  0  0  0  0  0  0
  142.5709  130.8698  159.4939 N   0  0  0  0  0  0  0  0  0  0  0  0
  141.3834  130.4156  159.9117 C   0  0  0  0  0  0  0  0  0  0  0  0
  140.9544  129.3403  159.2667 N   0  0  0  0  0  0  0  0  0  0  0  0
  141.9834  129.1805  158.3841 C   0  0  0  0  0  0  0  0  0  0  0  0
  142.9638  130.0797  158.4622 N   0  0  0  0  0  0  0  0  0  0  0  0
  144.0892  133.9486  159.1050 H   0  0  0  0  0  0  0  0  0  0  0  0
  142.4837  133.5367  158.5336 H   0  0  0  0  0  0  0  0  0  0  0  0
  143.8899  132.7009  157.8785 H   0  0  0  0  0  0  0  0  0  0  0  0
  142.7800  132.5091  160.7263 H   0  0  0  0  0  0  0  0  0  0  0  0
  145.1702  133.5983  160.7615 H   0  0  0  0  0  0  0  0  0  0  0  0
  146.7737  131.9606  162.3668 H   0  0  0  0  0  0  0  0  0  0  0  0
  147.4285  131.8365  160.7436 H   0  0  0  0  0  0  0  0  0  0  0  0
  148.6150  133.6489  161.7314 H   0  0  0  0  0  0  0  0  0  0  0  0
  145.9608  134.6238  162.8264 H   0  0  0  0  0  0  0  0  0  0  0  0
  147.3409  134.0794  163.7608 H   0  0  0  0  0  0  0  0  0  0  0  0
  146.9918  136.7251  163.3593 H   0  0  0  0  0  0  0  0  0  0  0  0
  148.6197  136.0513  163.1662 H   0  0  0  0  0  0  0  0  0  0  0  0
  148.1173  134.5669  159.5898 H   0  0  0  0  0  0  0  0  0  0  0  0
  146.3918  134.7043  159.9571 H   0  0  0  0  0  0  0  0  0  0  0  0
  140.8148  130.8819  160.7030 H   0  0  0  0  0  0  0  0  0  0  0  0
  142.0050  128.3852  157.6536 H   0  0  0  0  0  0  0  0  0  0  0  0
  1  2  1  0  0  0  0
  1 19  1  0  0  0  0
  1 20  1  0  0  0  0
  1 21  1  0  0  0  0
  2  3  1  0  0  0  0
  2 14  1  0  0  0  0
  2 22  1  0  0  0  0
  3  4  2  0  0  0  0
  3  5  1  0  0  0  0
  5  6  1  0  0  0  0
  5 23  1  0  0  0  0
  6  7  1  0  0  0  0
  6 24  1  0  0  0  0
  6 25  1  0  0  0  0
  7 13  1  0  0  0  0
  7  8  1  0  0  0  0
  7 26  1  0  0  0  0
  8  9  1  0  0  0  0
  8 27  1  0  0  0  0
  8 28  1  0  0  0  0
  9 10  1  0  0  0  0
  9 29  1  0  0  0  0
  9 30  1  0  0  0  0
 10 11  2  0  0  0  0
 10 12  2  0  0  0  0
 10 13  1  0  0  0  0
 13 31  1  0  0  0  0
 13 32  1  0  0  0  0
 14 18  1  0  0  0  0
 14 15  1  0  0  0  0
 15 16  2  0  0  0  0
 15 33  1  0  0  0  0
 16 17  1  0  0  0  0
 17 18  2  0  0  0  0
 17 34  1  0  0  0  0
M  END
> <s_m_source_file>
AV-unprocessed.smi

> <i_m_source_file_index>
3002

> <i_lp_mmshare_version>
43012

> <i_f3d_flags>
0

> <s_epik_input>
bjFbY0hdbltjSF1uMVtDQEhdKFtDSDNdKUMoPU8pW05IXVtDSDJdW0NAQEhdKFtDSDJdMilbQ0gyXVtDSDJdUzIoPU8pPU8=

> <s_epik_cmdline>
J2VwaWtfcHl0aG9uJywgJy1waCcsICc3LjAnLCAnLXRuJywgJzgnLCAnLW1hJywgJzIwMCcsICctbWV0YWxfYmluZGluZycsICctaW1hZScsICc8aW5maWxlLm1hZT4nLCAnLW9tYWUnLCAnPG91dGZpbGUubWFlPic=

> <r_lp_tautomer_probability>
1

> <r_epik_Ionization_Penalty>
1.1748e-05

> <r_epik_Ionization_Penalty_Charging>
0

> <r_epik_Ionization_Penalty_Neutral>
1.1748e-05

> <r_epik_State_Penalty>
-0

> <r_epik_Charging_Adjusted_Penalty>
0

> <i_epik_Tot_Q>
0

> <i_epik_Tot_abs_Q>
0

> <r_epik_Metal_State_Penalty>
-0

> <b_epik_Metal_Only>
0

> <s_lp_Force_Field>
OPLS_2005

> <r_lp_Energy>
11.0715

> <b_lp_Chiralities_Consistent>
1

> <s_lp_Variant>
AV-unprocessed.smi:3002-1

> <Gold.Version>
5.8.1

> <Gold.Id.Protein>
6NUR|6NUR_protein|mol2

> <Gold.PLP.Fitness>
35.4477

> <Gold.PLP.PLP>
-30.6725

> <Gold.PLP.part.hbond>
-2.0000

> <Gold.PLP.part.metal>
0.0000

> <Gold.PLP.part.buried>
-5.5713

> <Gold.PLP.part.nonpolar>
-24.3557

> <Gold.PLP.part.repulsive>
0.3337

> <Gold.PLP.ligand.clash>
0.0000

> <Gold.PLP.ligand.torsion>
0.2528

> <Gold.PLP.Chemscore.Hbond>
1.7200

> <Gold.PLP.Chemscore.CHOScore>
0.0000

> <Gold.PLP.Chemscore.Metal>
0.0000

> <Gold.Chemscore.Hbonds>
donor molecule, donor type, donor heavy atom, donor atom, acceptor molecule, acceptor atom, score
      P1  H  6931  6943       L1    12  0.71
      P1  H  6934  6947       L1    11  0.95

> <Gold.PLP.Chemscore.Internal.Correction>
0.1209

> <Gold.Rescore>
     Score         DG    S(hbond)    S(metal)    S(lipo)     H(rot)  DE(clash)    DE(int)     intcor
      6.33      -7.96       0.96        0.00      46.11       2.39       0.15       1.48       ----

> <Gold.Chemscore.Fitness>
6.3309

> <Gold.Chemscore.DG>
-7.9620

> <Gold.Chemscore.ZeroCoef>
-5.4800

> <Gold.Chemscore.Hbond>
0.9634

> <Gold.Chemscore.Metal>
0.0000

> <Gold.Chemscore.Lipo>
46.1059

> <Gold.Chemscore.Internal_Hbond>
0.0000

> <Gold.Chemscore.DEClash>
0.1521

> <Gold.Chemscore.DEInternal>
1.4790

> <Gold.Chemscore.Rot>
2.3946

> <Gold.Chemscore.Internal.Correction>
   9.000000E+99

> <Gold.Chemscore.Hbonds>
donor molecule, donor type, donor heavy atom, donor atom, acceptor molecule, acceptor atom, score
      P1  H  6931  6943       L1    12  0.14
      P1  H  6934  6947       L1    11  0.21

> <Gold.Chemscore.Hbond.Weighted>
-3.2178

> <Gold.Chemscore.Metal.Weighted>
-0.0000

> <Gold.Chemscore.Lipo.Weighted>
-5.3944

> <Gold.Chemscore.Internal_Hbond.Weighted>
0.0000

> <Gold.Chemscore.DEClash.Weighted>
0.1521

> <Gold.Chemscore.DEInternal.Weighted>
1.4790

> <Gold.Chemscore.Rot.Weighted>
6.1301

> <Gold.Chemscore.Internal.Correction.Weighted>
   9.000000E+99

> <Gold.Protein.RotatedTorsions>
[ 6907 6896 6895 6894 ] final   84.63 input  -60.11 | X-H torsion
[ 7974 7965 7964 7962 ] final  -66.25 input  175.53 | X-H torsion
[ 8008 7997 7996 7995 ] final  -27.79 input   59.86 | X-H torsion
[ 10167 10162 10161 10158 ] final   97.69 input  -65.29 | X-H torsion
[ 10718 10713 10712 10709 ] final  154.50 input   66.30 | X-H torsion
[ 10763 10752 10751 10750 ] final   -5.02 input  -60.55 | X-H torsion
[ 11005 11000 10999 10996 ] final  158.82 input  -57.11 | X-H torsion

> <Gold.Protein.ActiveResidues>
 VAL166  LYS551  ARG553  GLY616  TRP617  ASP618  TYR619  PRO620  LYS621  CYS622 
 ASP623  PHE694  ASN695  SER759  ASP760  ASP761  ALA762  ILE779  LEU786  VAL792 
 PHE793  MET794  SER795  GLU796  ALA797  LYS798  CYS799  TRP800  GLU811  SER814 

> <Gold.Protein.RotatedAtoms>
  152.5356  134.2712  159.8971 H   0  0  0  0  0  0  0  0  0  0  0  0  # atno 6907 bound_to 6896
  151.2668  133.4268  159.2626 H   0  0  0  0  0  0  0  0  0  0  0  0  # atno 6908 bound_to 6896
  151.0403  134.9617  159.8214 H   0  0  0  0  0  0  0  0  0  0  0  0  # atno 6909 bound_to 6896
  145.7441  140.8939  143.0514 H   0  0  0  0  0  0  0  0  0  0  0  0  # atno 7974 bound_to 7965
  154.4361  140.1863  156.0987 H   0  0  0  0  0  0  0  0  0  0  0  0  # atno 8008 bound_to 7997
  156.0309  140.3330  155.7113 H   0  0  0  0  0  0  0  0  0  0  0  0  # atno 8009 bound_to 7997
  155.5840  140.0624  157.2766 H   0  0  0  0  0  0  0  0  0  0  0  0  # atno 8010 bound_to 7997
  139.7777  144.6899  151.0066 H   0  0  0  0  0  0  0  0  0  0  0  0  # atno 10167 bound_to 10162
  157.2307  131.0738  151.1854 H   0  0  0  0  0  0  0  0  0  0  0  0  # atno 10718 bound_to 10713
  153.3928  135.7002  153.6483 H   0  0  0  0  0  0  0  0  0  0  0  0  # atno 10763 bound_to 10752
  153.5048  135.3644  155.2558 H   0  0  0  0  0  0  0  0  0  0  0  0  # atno 10764 bound_to 10752
  154.8704  135.4120  154.3248 H   0  0  0  0  0  0  0  0  0  0  0  0  # atno 10765 bound_to 10752
  140.1902  134.8413  157.2903 H   0  0  0  0  0  0  0  0  0  0  0  0  # atno 11005 bound_to 11000
  144.6864  139.9501  143.7477 LP  0  0  0  0  0  0  0  0  0  0  0  0  # atno 17320 bound_to 7965
  146.0419  139.3430  143.0692 LP  0  0  0  0  0  0  0  0  0  0  0  0  # atno 17321 bound_to 7965
  140.7817  143.4517  151.0403 LP  0  0  0  0  0  0  0  0  0  0  0  0  # atno 17342 bound_to 10162
  139.8199  143.7834  152.3176 LP  0  0  0  0  0  0  0  0  0  0  0  0  # atno 17343 bound_to 10162
  157.3480  130.7067  149.6423 LP  0  0  0  0  0  0  0  0  0  0  0  0  # atno 17370 bound_to 10713
  155.9675  130.4260  150.4681 LP  0  0  0  0  0  0  0  0  0  0  0  0  # atno 17371 bound_to 10713
  140.2168  134.4071  155.7585 LP  0  0  0  0  0  0  0  0  0  0  0  0  # atno 17394 bound_to 11000
  141.2226  133.7146  156.8427 LP  0  0  0  0  0  0  0  0  0  0  0  0  # atno 17395 bound_to 11000

$$$$
