AV-unprocessed.smi:1617|AV-procd|sdf|6484|dock2
  -GOLD-   22720 7143D 1   1.00000     0.00000
 Structure written by MMmdl.
 47 49  0  0  0  0  0  0  0  0  1 V2000
  149.1205  136.0877  156.5790 O   0  0  0  0  0  0  0  0  0  0  0  0
  149.3992  136.3177  155.4025 C   0  0  0  0  0  0  0  0  0  0  0  0
  150.0026  137.4295  154.9482 N   0  0  0  0  0  0  0  0  0  0  0  0
  150.4088  138.5789  155.6788 C   0  0  0  0  0  0  0  0  0  0  0  0
  150.5146  139.8778  155.1316 C   0  0  0  0  0  0  0  0  0  0  0  0
  150.9471  140.9343  155.9561 C   0  0  0  0  0  0  0  0  0  0  0  0
  151.2713  140.6723  157.3116 C   0  0  0  0  0  0  0  0  0  0  0  0
  151.7181  141.6870  158.1901 N   0  0  0  0  0  0  0  0  0  0  0  0
  152.8404  141.4002  159.0806 C   0  0  0  0  0  0  0  0  0  0  0  0
  152.9618  142.4806  160.1688 C   0  0  0  0  0  0  0  0  0  0  0  0
  153.0440  143.7662  159.5653 O   0  0  0  0  0  0  0  0  0  0  0  0
  151.8711  144.0701  158.8193 C   0  0  0  0  0  0  0  0  0  0  0  0
  151.7038  143.0565  157.6744 C   0  0  0  0  0  0  0  0  0  0  0  0
  151.1804  139.4212  157.8237 N   0  0  0  0  0  0  0  0  0  0  0  0
  150.7672  138.4115  157.0302 C   0  0  0  0  0  0  0  0  0  0  0  0
  149.1461  135.4609  154.4017 N   0  0  0  0  0  0  0  0  0  0  0  0
  148.4830  134.1622  154.5433 C   0  0  2  0  0  0  0  0  0  0  0  0
  149.0481  133.2266  153.4499 C   0  0  0  0  0  0  0  0  0  0  0  0
  148.8853  131.7302  153.7685 C   0  0  0  0  0  0  0  0  0  0  0  0
  147.4327  131.2339  153.8328 C   0  0  0  0  0  0  0  0  0  0  0  0
  146.6011  131.8967  154.9444 C   0  0  0  0  0  0  0  0  0  0  0  0
  146.1701  133.2399  154.5795 N   0  0  0  0  0  0  0  0  0  0  0  0
  146.9546  134.3038  154.3514 C   0  0  0  0  0  0  0  0  0  0  0  0
  146.4623  135.3726  153.9897 O   0  0  0  0  0  0  0  0  0  0  0  0
  150.2395  137.4360  153.9669 H   0  0  0  0  0  0  0  0  0  0  0  0
  150.2871  140.0856  154.0978 H   0  0  0  0  0  0  0  0  0  0  0  0
  151.0141  141.9223  155.5277 H   0  0  0  0  0  0  0  0  0  0  0  0
  152.7036  140.4339  159.5667 H   0  0  0  0  0  0  0  0  0  0  0  0
  153.7598  141.3504  158.4957 H   0  0  0  0  0  0  0  0  0  0  0  0
  152.1121  142.4408  160.8524 H   0  0  0  0  0  0  0  0  0  0  0  0
  153.8573  142.3107  160.7664 H   0  0  0  0  0  0  0  0  0  0  0  0
  150.9979  144.0642  159.4738 H   0  0  0  0  0  0  0  0  0  0  0  0
  151.9584  145.0789  158.4160 H   0  0  0  0  0  0  0  0  0  0  0  0
  152.5153  143.1683  156.9542 H   0  0  0  0  0  0  0  0  0  0  0  0
  150.7765  143.2806  157.1475 H   0  0  0  0  0  0  0  0  0  0  0  0
  150.7164  137.4375  157.4947 H   0  0  0  0  0  0  0  0  0  0  0  0
  149.4087  135.7339  153.4662 H   0  0  0  0  0  0  0  0  0  0  0  0
  148.7011  133.7580  155.5336 H   0  0  0  0  0  0  0  0  0  0  0  0
  148.6121  133.4550  152.4756 H   0  0  0  0  0  0  0  0  0  0  0  0
  150.1175  133.4135  153.3402 H   0  0  0  0  0  0  0  0  0  0  0  0
  149.4130  131.1546  153.0073 H   0  0  0  0  0  0  0  0  0  0  0  0
  149.3873  131.5044  154.7101 H   0  0  0  0  0  0  0  0  0  0  0  0
  146.9448  131.3686  152.8663 H   0  0  0  0  0  0  0  0  0  0  0  0
  147.4506  130.1581  154.0103 H   0  0  0  0  0  0  0  0  0  0  0  0
  145.7005  131.3072  155.1178 H   0  0  0  0  0  0  0  0  0  0  0  0
  147.1445  131.9114  155.8902 H   0  0  0  0  0  0  0  0  0  0  0  0
  145.1762  133.3698  154.4564 H   0  0  0  0  0  0  0  0  0  0  0  0
  1  2  2  0  0  0  0
  2  3  1  0  0  0  0
  2 16  1  0  0  0  0
  3  4  1  0  0  0  0
  3 25  1  0  0  0  0
  4 15  1  0  0  0  0
  4  5  2  0  0  0  0
  5  6  1  0  0  0  0
  5 26  1  0  0  0  0
  6  7  2  0  0  0  0
  6 27  1  0  0  0  0
  7  8  1  0  0  0  0
  7 14  1  0  0  0  0
  8 13  1  0  0  0  0
  8  9  1  0  0  0  0
  9 10  1  0  0  0  0
  9 28  1  0  0  0  0
  9 29  1  0  0  0  0
 10 11  1  0  0  0  0
 10 30  1  0  0  0  0
 10 31  1  0  0  0  0
 11 12  1  0  0  0  0
 12 13  1  0  0  0  0
 12 32  1  0  0  0  0
 12 33  1  0  0  0  0
 13 34  1  0  0  0  0
 13 35  1  0  0  0  0
 14 15  2  0  0  0  0
 15 36  1  0  0  0  0
 16 17  1  0  0  0  0
 16 37  1  0  0  0  0
 17 23  1  0  0  0  0
 17 18  1  0  0  0  0
 17 38  1  0  0  0  0
 18 19  1  0  0  0  0
 18 39  1  0  0  0  0
 18 40  1  0  0  0  0
 19 20  1  0  0  0  0
 19 41  1  0  0  0  0
 19 42  1  0  0  0  0
 20 21  1  0  0  0  0
 20 43  1  0  0  0  0
 20 44  1  0  0  0  0
 21 22  1  0  0  0  0
 21 45  1  0  0  0  0
 21 46  1  0  0  0  0
 22 23  1  0  0  0  0
 22 47  1  0  0  0  0
 23 24  2  0  0  0  0
M  END
> <s_m_source_file>
AV-unprocessed.smi

> <i_m_source_file_index>
1617

> <i_lp_mmshare_version>
43012

> <i_f3d_flags>
0

> <s_epik_input>
Tz1DMVtOSF1bQ0gyXVtDSDJdW0NIMl1bQ0gyXVtDQEhdMVtOSF1DKD1PKVtOSF1jMltjSF1bY0hdYyhuW2NIXTIpTjNbQ0gyXVtDSDJdT1tDSDJdW0NIMl0z

> <s_epik_cmdline>
J2VwaWtfcHl0aG9uJywgJy1waCcsICc3LjAnLCAnLXRuJywgJzgnLCAnLW1hJywgJzIwMCcsICctbWV0YWxfYmluZGluZycsICctaW1hZScsICc8aW5maWxlLm1hZT4nLCAnLW9tYWUnLCAnPG91dGZpbGUubWFlPic=

> <r_lp_tautomer_probability>
1

> <r_epik_Ionization_Penalty>
0.00171733

> <r_epik_Ionization_Penalty_Charging>
0

> <r_epik_Ionization_Penalty_Neutral>
0.00171733

> <r_epik_State_Penalty>
0.00113787

> <r_epik_Charging_Adjusted_Penalty>
0.00113787

> <i_epik_Tot_Q>
0

> <i_epik_Tot_abs_Q>
0

> <r_epik_Metal_State_Penalty>
-0

> <b_epik_Metal_Only>
0

> <s_lp_Force_Field>
OPLS_2005

> <r_lp_Energy>
27.2722

> <b_lp_Chiralities_Consistent>
1

> <s_lp_Variant>
AV-unprocessed.smi:1617-1

> <Gold.Version>
5.8.1

> <Gold.Id.Protein>
6NUR|6NUR_protein|mol2

> <Gold.PLP.Fitness>
36.4424

> <Gold.PLP.PLP>
-34.5735

> <Gold.PLP.part.hbond>
-1.0000

> <Gold.PLP.part.metal>
0.0000

> <Gold.PLP.part.buried>
-5.7316

> <Gold.PLP.part.nonpolar>
-28.4129

> <Gold.PLP.part.repulsive>
0.1483

> <Gold.PLP.ligand.clash>
0.0000

> <Gold.PLP.ligand.torsion>
0.7995

> <Gold.PLP.Chemscore.Hbond>
1.0000

> <Gold.PLP.Chemscore.CHOScore>
0.0000

> <Gold.PLP.Chemscore.Metal>
0.0000

> <Gold.Chemscore.Hbonds>
donor molecule, donor type, donor heavy atom, donor atom, acceptor molecule, acceptor atom, score
      L1  H    16    37       P1  7948  1.00

> <Gold.PLP.Chemscore.Internal.Correction>
0.4679

> <Gold.Rescore>
     Score         DG    S(hbond)    S(metal)    S(lipo)     H(rot)  DE(clash)    DE(int)     intcor
     18.29     -20.39       2.78        0.00      75.78       1.27       0.02       2.08       ----

> <Gold.Chemscore.Fitness>
18.2945

> <Gold.Chemscore.DG>
-20.3914

> <Gold.Chemscore.ZeroCoef>
-5.4800

> <Gold.Chemscore.Hbond>
2.7821

> <Gold.Chemscore.Metal>
0.0000

> <Gold.Chemscore.Lipo>
75.7794

> <Gold.Chemscore.Internal_Hbond>
0.0000

> <Gold.Chemscore.DEClash>
0.0174

> <Gold.Chemscore.DEInternal>
2.0795

> <Gold.Chemscore.Rot>
1.2684

> <Gold.Chemscore.Internal.Correction>
   9.000000E+99

> <Gold.Chemscore.Hbonds>
donor molecule, donor type, donor heavy atom, donor atom, acceptor molecule, acceptor atom, score
      L1  H    16    37       P1  7948  0.33

> <Gold.Chemscore.Hbond.Weighted>
-9.2923

> <Gold.Chemscore.Metal.Weighted>
-0.0000

> <Gold.Chemscore.Lipo.Weighted>
-8.8662

> <Gold.Chemscore.Internal_Hbond.Weighted>
0.0000

> <Gold.Chemscore.DEClash.Weighted>
0.0174

> <Gold.Chemscore.DEInternal.Weighted>
2.0795

> <Gold.Chemscore.Rot.Weighted>
3.2471

> <Gold.Chemscore.Internal.Correction.Weighted>
   9.000000E+99

> <Gold.Protein.RotatedTorsions>
[ 6907 6896 6895 6894 ] final   90.41 input  -60.11 | X-H torsion
[ 7974 7965 7964 7962 ] final  -28.32 input  175.53 | X-H torsion
[ 8008 7997 7996 7995 ] final  -10.56 input   59.86 | X-H torsion
[ 10167 10162 10161 10158 ] final -104.92 input  -65.29 | X-H torsion
[ 10718 10713 10712 10709 ] final -151.60 input   66.30 | X-H torsion
[ 10763 10752 10751 10750 ] final  101.10 input  -60.55 | X-H torsion
[ 11005 11000 10999 10996 ] final    9.99 input  -57.11 | X-H torsion

> <Gold.Protein.ActiveResidues>
 VAL166  LYS551  ARG553  GLY616  TRP617  ASP618  TYR619  PRO620  LYS621  CYS622 
 ASP623  PHE694  ASN695  SER759  ASP760  ASP761  ALA762  ILE779  LEU786  VAL792 
 PHE793  MET794  SER795  GLU796  ALA797  LYS798  CYS799  TRP800  GLU811  SER814 

> <Gold.Protein.RotatedAtoms>
  152.5444  134.1816  159.8637 H   0  0  0  0  0  0  0  0  0  0  0  0  # atno 6907 bound_to 6896
  151.1818  133.4713  159.2601 H   0  0  0  0  0  0  0  0  0  0  0  0  # atno 6908 bound_to 6896
  151.1170  135.0070  159.8576 H   0  0  0  0  0  0  0  0  0  0  0  0  # atno 6909 bound_to 6896
  146.1296  140.5267  142.8699 H   0  0  0  0  0  0  0  0  0  0  0  0  # atno 7974 bound_to 7965
  154.5543  140.2325  155.8435 H   0  0  0  0  0  0  0  0  0  0  0  0  # atno 8008 bound_to 7997
  156.1975  140.3061  155.9417 H   0  0  0  0  0  0  0  0  0  0  0  0  # atno 8009 bound_to 7997
  155.3010  140.0431  157.3020 H   0  0  0  0  0  0  0  0  0  0  0  0  # atno 8010 bound_to 7997
  140.2041  143.3796  152.1105 H   0  0  0  0  0  0  0  0  0  0  0  0  # atno 10167 bound_to 10162
  156.4613  130.8215  151.2445 H   0  0  0  0  0  0  0  0  0  0  0  0  # atno 10718 bound_to 10713
  153.3223  135.4056  155.1427 H   0  0  0  0  0  0  0  0  0  0  0  0  # atno 10763 bound_to 10752
  154.8603  135.3590  154.5579 H   0  0  0  0  0  0  0  0  0  0  0  0  # atno 10764 bound_to 10752
  153.6014  135.7071  153.5442 H   0  0  0  0  0  0  0  0  0  0  0  0  # atno 10765 bound_to 10752
  140.5195  134.0573  155.7840 H   0  0  0  0  0  0  0  0  0  0  0  0  # atno 11005 bound_to 11000
  144.7677  140.5568  143.6691 LP  0  0  0  0  0  0  0  0  0  0  0  0  # atno 17320 bound_to 7965
  145.5289  139.1475  143.3511 LP  0  0  0  0  0  0  0  0  0  0  0  0  # atno 17321 bound_to 7965
  139.5205  144.7034  151.5426 LP  0  0  0  0  0  0  0  0  0  0  0  0  # atno 17342 bound_to 10162
  140.6369  143.8965  150.6656 LP  0  0  0  0  0  0  0  0  0  0  0  0  # atno 17343 bound_to 10162
  157.7497  131.0106  150.3313 LP  0  0  0  0  0  0  0  0  0  0  0  0  # atno 17370 bound_to 10713
  156.3713  130.3864  149.7173 LP  0  0  0  0  0  0  0  0  0  0  0  0  # atno 17371 bound_to 10713
  141.1342  133.9250  157.2470 LP  0  0  0  0  0  0  0  0  0  0  0  0  # atno 17394 bound_to 11000
  139.9614  135.0153  156.9270 LP  0  0  0  0  0  0  0  0  0  0  0  0  # atno 17395 bound_to 11000

$$$$
