AV-unprocessed.smi:2822|AV-procd|sdf|10875|dock9
  -GOLD-   2272015313D 1   1.00000     0.00000
 Structure written by MMmdl.
 40 42  0  0  0  0  0  0  0  0  2 V2000
  147.5894  133.2325  152.3039 Cl  0  0  0  0  0  0  0  0  0  0  0  0
  146.0029  132.9228  151.6890 C   0  0  0  0  0  0  0  0  0  0  0  0
  145.7959  131.8518  150.7957 C   0  0  0  0  0  0  0  0  0  0  0  0
  144.5914  131.5425  150.2720 N   0  0  0  0  0  0  0  0  0  0  0  0
  143.5370  132.3047  150.6286 C   0  0  0  0  0  0  0  0  0  0  0  0
  143.6328  133.3975  151.5133 C   0  0  0  0  0  0  0  0  0  0  0  0
  144.8965  133.7206  152.0616 C   0  0  0  0  0  0  0  0  0  0  0  0
  145.0852  134.7925  152.9474 N   0  0  0  0  0  0  0  0  0  0  0  0
  144.0685  135.8203  153.1096 C   0  0  0  0  0  0  0  0  0  0  0  0
  144.6610  137.2268  152.9449 C   0  0  1  0  0  0  0  0  0  0  0  0
  144.8515  137.9293  154.3017 C   0  0  0  0  0  0  0  0  0  0  0  0
  145.4867  139.2549  154.1174 N   0  3  1  0  0  0  0  0  0  0  0  0
  145.6530  139.9872  155.3985 C   0  0  0  0  0  0  0  0  0  0  0  0
  146.2259  141.3939  155.1613 C   0  0  0  0  0  0  0  0  0  0  0  0
  147.5504  141.3217  154.3905 C   0  0  0  0  0  0  0  0  0  0  0  0
  147.3576  140.5364  153.0863 C   0  0  0  0  0  0  0  0  0  0  0  0
  146.7608  139.1408  153.3567 C   0  0  2  0  0  0  0  0  0  0  0  0
  146.5228  138.3693  152.0439 C   0  0  0  0  0  0  0  0  0  0  0  0
  145.9368  137.1048  152.3248 O   0  0  0  0  0  0  0  0  0  0  0  0
  146.6218  131.2249  150.4930 H   0  0  0  0  0  0  0  0  0  0  0  0
  142.5853  132.0360  150.1945 H   0  0  0  0  0  0  0  0  0  0  0  0
  142.7440  133.9621  151.7510 H   0  0  0  0  0  0  0  0  0  0  0  0
  145.8270  134.7343  153.6309 H   0  0  0  0  0  0  0  0  0  0  0  0
  143.2962  135.6631  152.3558 H   0  0  0  0  0  0  0  0  0  0  0  0
  143.5950  135.7218  154.0872 H   0  0  0  0  0  0  0  0  0  0  0  0
  143.9976  137.8243  152.3160 H   0  0  0  0  0  0  0  0  0  0  0  0
  143.8860  138.0546  154.7938 H   0  0  0  0  0  0  0  0  0  0  0  0
  145.4695  137.3162  154.9601 H   0  0  0  0  0  0  0  0  0  0  0  0
  144.6887  140.0666  155.9021 H   0  0  0  0  0  0  0  0  0  0  0  0
  146.3113  139.4220  156.0600 H   0  0  0  0  0  0  0  0  0  0  0  0
  145.5074  141.9940  154.6014 H   0  0  0  0  0  0  0  0  0  0  0  0
  146.3771  141.9011  156.1147 H   0  0  0  0  0  0  0  0  0  0  0  0
  147.9174  142.3258  154.1753 H   0  0  0  0  0  0  0  0  0  0  0  0
  148.3097  140.8364  155.0054 H   0  0  0  0  0  0  0  0  0  0  0  0
  146.7011  141.0968  152.4189 H   0  0  0  0  0  0  0  0  0  0  0  0
  148.3138  140.4413  152.5703 H   0  0  0  0  0  0  0  0  0  0  0  0
  147.4665  138.5716  153.9645 H   0  0  0  0  0  0  0  0  0  0  0  0
  145.8827  138.9342  151.3639 H   0  0  0  0  0  0  0  0  0  0  0  0
  147.4688  138.2067  151.5266 H   0  0  0  0  0  0  0  0  0  0  0  0
  144.8570  139.8031  153.5487 H   0  0  0  0  0  0  0  0  0  0  0  0
  1  2  1  0  0  0  0
  2  7  1  0  0  0  0
  2  3  2  0  0  0  0
  3  4  1  0  0  0  0
  3 20  1  0  0  0  0
  4  5  2  0  0  0  0
  5  6  1  0  0  0  0
  5 21  1  0  0  0  0
  6  7  2  0  0  0  0
  6 22  1  0  0  0  0
  7  8  1  0  0  0  0
  8  9  1  0  0  0  0
  8 23  1  0  0  0  0
  9 10  1  0  0  0  0
  9 24  1  0  0  0  0
  9 25  1  0  0  0  0
 10 19  1  0  0  0  0
 10 11  1  0  0  0  0
 10 26  1  0  0  0  0
 11 12  1  0  0  0  0
 11 27  1  0  0  0  0
 11 28  1  0  0  0  0
 12 17  1  0  0  0  0
 12 13  1  0  0  0  0
 12 40  1  0  0  0  0
 13 14  1  0  0  0  0
 13 29  1  0  0  0  0
 13 30  1  0  0  0  0
 14 15  1  0  0  0  0
 14 31  1  0  0  0  0
 14 32  1  0  0  0  0
 15 16  1  0  0  0  0
 15 33  1  0  0  0  0
 15 34  1  0  0  0  0
 16 17  1  0  0  0  0
 16 35  1  0  0  0  0
 16 36  1  0  0  0  0
 17 18  1  0  0  0  0
 17 37  1  0  0  0  0
 18 19  1  0  0  0  0
 18 38  1  0  0  0  0
 18 39  1  0  0  0  0
M  CHG  1  12   1
M  END
> <s_m_source_file>
AV-unprocessed.smi

> <i_m_source_file_index>
2822

> <i_lp_mmshare_version>
43012

> <i_f3d_flags>
0

> <s_epik_input>
Q2xjMVtjSF1uW2NIXVtjSF1jMVtOSF1bQ0gyXVtDQEhdKFtDSDJdMilPW0NIMl1bQ0BASF0oTjIzKVtDSDJdW0NIMl1bQ0gyXVtDSDJdMw==

> <s_epik_cmdline>
J2VwaWtfcHl0aG9uJywgJy1waCcsICc3LjAnLCAnLXRuJywgJzgnLCAnLW1hJywgJzIwMCcsICctbWV0YWxfYmluZGluZycsICctaW1hZScsICc8aW5maWxlLm1hZT4nLCAnLW9tYWUnLCAnPG91dGZpbGUubWFlPic=

> <r_lp_tautomer_probability>
0.999999

> <r_epik_Ionization_Penalty>
0.88937

> <r_epik_Ionization_Penalty_Charging>
0.0803403

> <r_epik_Ionization_Penalty_Neutral>
0.80903

> <r_epik_State_Penalty>
0.931884

> <r_epik_Charging_Adjusted_Penalty>
1.01222

> <i_epik_Tot_Q>
1

> <i_epik_Tot_abs_Q>
1

> <r_epik_Metal_State_Penalty>
0.0782275

> <b_epik_Metal_Only>
0

> <s_lp_Force_Field>
OPLS_2005

> <r_lp_Energy>
28.742

> <b_lp_Chiralities_Consistent>
1

> <s_lp_Variant>
AV-unprocessed.smi:2822-16

> <Gold.Version>
5.8.1

> <Gold.Id.Protein>
6NUR|6NUR_protein|mol2

> <Gold.PLP.Fitness>
42.9501

> <Gold.PLP.PLP>
-30.6422

> <Gold.PLP.part.hbond>
-1.9435

> <Gold.PLP.part.metal>
0.0000

> <Gold.PLP.part.buried>
-1.8747

> <Gold.PLP.part.nonpolar>
-28.5583

> <Gold.PLP.part.repulsive>
0.3890

> <Gold.PLP.ligand.clash>
0.0000

> <Gold.PLP.ligand.torsion>
0.7024

> <Gold.PLP.Chemscore.Hbond>
2.1094

> <Gold.PLP.Chemscore.CHOScore>
2.4614

> <Gold.PLP.Chemscore.Metal>
0.0000

> <Gold.Chemscore.Hbonds>
donor molecule, donor type, donor heavy atom, donor atom, acceptor molecule, acceptor atom, score
      L1  H    12    40       P1 10175  2.00
      L1  C     3    20       P1 10747  1.00
      L1  C     5    21       P1 10186  0.01
      L1  C     5    21       P1 10952  1.00

> <Gold.PLP.Chemscore.Internal.Correction>
0.0003

> <Gold.Rescore>
     Score         DG    S(hbond)    S(metal)    S(lipo)     H(rot)  DE(clash)    DE(int)     intcor
     16.26     -17.23       1.34        0.00      87.83       1.17       0.17       0.80       ----

> <Gold.Chemscore.Fitness>
16.2556

> <Gold.Chemscore.DG>
-17.2266

> <Gold.Chemscore.ZeroCoef>
-5.4800

> <Gold.Chemscore.Hbond>
1.3364

> <Gold.Chemscore.Metal>
0.0000

> <Gold.Chemscore.Lipo>
87.8322

> <Gold.Chemscore.Internal_Hbond>
0.0000

> <Gold.Chemscore.DEClash>
0.1705

> <Gold.Chemscore.DEInternal>
0.8005

> <Gold.Chemscore.Rot>
1.1693

> <Gold.Chemscore.Internal.Correction>
   9.000000E+99

> <Gold.Chemscore.Hbonds>
donor molecule, donor type, donor heavy atom, donor atom, acceptor molecule, acceptor atom, score
      L1  H    12    40       P1 10175  1.00

> <Gold.Chemscore.Hbond.Weighted>
-4.4636

> <Gold.Chemscore.Metal.Weighted>
-0.0000

> <Gold.Chemscore.Lipo.Weighted>
-10.2764

> <Gold.Chemscore.Internal_Hbond.Weighted>
0.0000

> <Gold.Chemscore.DEClash.Weighted>
0.1705

> <Gold.Chemscore.DEInternal.Weighted>
0.8005

> <Gold.Chemscore.Rot.Weighted>
2.9934

> <Gold.Chemscore.Internal.Correction.Weighted>
   9.000000E+99

> <Gold.Protein.RotatedTorsions>
[ 6907 6896 6895 6894 ] final -122.20 input  -60.11 | X-H torsion
[ 7974 7965 7964 7962 ] final   19.34 input  175.53 | X-H torsion
[ 8008 7997 7996 7995 ] final   94.95 input   59.86 | X-H torsion
[ 10167 10162 10161 10158 ] final -123.68 input  -65.29 | X-H torsion
[ 10718 10713 10712 10709 ] final  -80.52 input   66.30 | X-H torsion
[ 10763 10752 10751 10750 ] final -108.83 input  -60.55 | X-H torsion
[ 11005 11000 10999 10996 ] final  113.02 input  -57.11 | X-H torsion

> <Gold.Protein.ActiveResidues>
 VAL166  LYS551  ARG553  GLY616  TRP617  ASP618  TYR619  PRO620  LYS621  CYS622 
 ASP623  PHE694  ASN695  SER759  ASP760  ASP761  ALA762  ILE779  LEU786  VAL792 
 PHE793  MET794  SER795  GLU796  ALA797  LYS798  CYS799  TRP800  GLU811  SER814 

> <Gold.Protein.RotatedAtoms>
  150.8554  133.7724  159.3010 H   0  0  0  0  0  0  0  0  0  0  0  0  # atno 6907 bound_to 6896
  151.5383  135.1067  159.9929 H   0  0  0  0  0  0  0  0  0  0  0  0  # atno 6908 bound_to 6896
  152.4585  133.7729  159.6865 H   0  0  0  0  0  0  0  0  0  0  0  0  # atno 6909 bound_to 6896
  146.2153  139.8327  142.8657 H   0  0  0  0  0  0  0  0  0  0  0  0  # atno 7974 bound_to 7965
  156.0636  140.3293  155.7491 H   0  0  0  0  0  0  0  0  0  0  0  0  # atno 8008 bound_to 7997
  155.5417  140.0602  157.2886 H   0  0  0  0  0  0  0  0  0  0  0  0  # atno 8009 bound_to 7997
  154.4493  140.1909  156.0585 H   0  0  0  0  0  0  0  0  0  0  0  0  # atno 8010 bound_to 7997
  140.0009  143.5542  152.2304 H   0  0  0  0  0  0  0  0  0  0  0  0  # atno 10167 bound_to 10162
  156.0068  130.4577  150.3813 H   0  0  0  0  0  0  0  0  0  0  0  0  # atno 10718 bound_to 10713
  154.8158  135.4623  154.0639 H   0  0  0  0  0  0  0  0  0  0  0  0  # atno 10763 bound_to 10752
  153.2034  135.6872  153.8210 H   0  0  0  0  0  0  0  0  0  0  0  0  # atno 10764 bound_to 10752
  153.7687  135.3273  155.3325 H   0  0  0  0  0  0  0  0  0  0  0  0  # atno 10765 bound_to 10752
  139.8942  134.9541  156.6675 H   0  0  0  0  0  0  0  0  0  0  0  0  # atno 11005 bound_to 11000
  145.2980  141.0186  143.3625 LP  0  0  0  0  0  0  0  0  0  0  0  0  # atno 17320 bound_to 7965
  144.9027  139.4628  143.6625 LP  0  0  0  0  0  0  0  0  0  0  0  0  # atno 17321 bound_to 7965
  139.6273  144.7639  151.2612 LP  0  0  0  0  0  0  0  0  0  0  0  0  # atno 17342 bound_to 10162
  140.7419  143.6542  150.8221 LP  0  0  0  0  0  0  0  0  0  0  0  0  # atno 17343 bound_to 10162
  157.1893  131.0411  151.2708 LP  0  0  0  0  0  0  0  0  0  0  0  0  # atno 17370 bound_to 10713
  157.4076  130.7367  149.6814 LP  0  0  0  0  0  0  0  0  0  0  0  0  # atno 17371 bound_to 10713
  140.7399  133.8987  155.8270 LP  0  0  0  0  0  0  0  0  0  0  0  0  # atno 17394 bound_to 11000
  141.0086  134.1052  157.4245 LP  0  0  0  0  0  0  0  0  0  0  0  0  # atno 17395 bound_to 11000

$$$$
