AV-unprocessed.smi:283|AV-procd|sdf|2154|dock6
  -GOLD-   2262021493D 1   1.00000     0.00000
 Structure written by MMmdl.
 48 51  0  0  0  0  0  0  0  0  1 V2000
  152.5341  138.5080  158.0637 C   0  0  0  0  0  0  0  0  0  0  0  0
  151.7217  139.8078  158.1386 C   0  0  1  0  0  0  0  0  0  0  0  0
  150.3097  139.4944  158.3479 N   0  0  0  0  0  0  0  0  0  0  0  0
  149.3919  139.7131  157.3800 C   0  0  0  0  0  0  0  0  0  0  0  0
  149.2096  141.0090  157.0325 N   0  0  0  0  0  0  0  0  0  0  0  0
  148.3389  141.3297  156.0721 C   0  0  0  0  0  0  0  0  0  0  0  0
  147.5619  140.5226  155.3490 N   0  0  0  0  0  0  0  0  0  0  0  0
  147.7264  139.2145  155.7003 C   0  0  0  0  0  0  0  0  0  0  0  0
  148.6118  138.7274  156.7052 C   0  0  0  0  0  0  0  0  0  0  0  0
  148.4886  137.3457  156.7920 N   0  0  0  0  0  0  0  0  0  0  0  0
  147.6024  137.0396  155.8857 C   0  0  0  0  0  0  0  0  0  0  0  0
  147.0888  138.1037  155.1812 N   0  0  0  0  0  0  0  0  0  0  0  0
  146.0628  138.0522  154.0885 C   0  0  2  0  0  0  0  0  0  0  0  0
  145.7103  136.7219  153.8430 O   0  0  0  0  0  0  0  0  0  0  0  0
  145.9610  136.3812  152.4804 C   0  0  1  0  0  0  0  0  0  0  0  0
  144.9251  135.3417  152.0237 C   0  0  0  0  0  0  0  0  0  0  0  0
  145.0996  135.0290  150.6582 O   0  0  0  0  0  0  0  0  0  0  0  0
  145.8927  137.7289  151.7564 C   0  0  2  0  0  0  0  0  0  0  0  0
  146.5415  137.7362  150.4992 O   0  0  0  0  0  0  0  0  0  0  0  0
  146.5490  138.6653  152.7610 C   0  0  2  0  0  0  0  0  0  0  0  0
  147.9628  138.7005  152.6341 O   0  0  0  0  0  0  0  0  0  0  0  0
  152.3288  140.7551  159.1779 C   0  0  0  0  0  0  0  0  0  0  0  0
  153.3590  140.2978  160.0329 C   0  0  0  0  0  0  0  0  0  0  0  0
  153.9251  141.1524  160.9972 C   0  0  0  0  0  0  0  0  0  0  0  0
  153.4728  142.4788  161.1125 C   0  0  0  0  0  0  0  0  0  0  0  0
  152.4598  142.9499  160.2573 C   0  0  0  0  0  0  0  0  0  0  0  0
  151.8900  142.0989  159.2890 C   0  0  0  0  0  0  0  0  0  0  0  0
  150.6604  142.7383  158.2547 Cl  0  0  0  0  0  0  0  0  0  0  0  0
  145.1964  138.5724  154.4990 H   0  0  0  0  0  0  0  0  0  0  0  0
  146.9688  135.9678  152.4166 H   0  0  0  0  0  0  0  0  0  0  0  0
  144.8501  138.0206  151.6201 H   0  0  0  0  0  0  0  0  0  0  0  0
  146.1727  139.6847  152.6703 H   0  0  0  0  0  0  0  0  0  0  0  0
  153.5775  138.7112  157.8208 H   0  0  0  0  0  0  0  0  0  0  0  0
  152.1425  137.8428  157.2936 H   0  0  0  0  0  0  0  0  0  0  0  0
  152.5120  137.9701  159.0121 H   0  0  0  0  0  0  0  0  0  0  0  0
  151.7834  140.2720  157.1559 H   0  0  0  0  0  0  0  0  0  0  0  0
  150.0436  139.3854  159.3158 H   0  0  0  0  0  0  0  0  0  0  0  0
  148.2538  142.3831  155.8493 H   0  0  0  0  0  0  0  0  0  0  0  0
  147.2950  136.0195  155.7073 H   0  0  0  0  0  0  0  0  0  0  0  0
  145.0444  134.4221  152.5972 H   0  0  0  0  0  0  0  0  0  0  0  0
  143.9086  135.6974  152.1942 H   0  0  0  0  0  0  0  0  0  0  0  0
  144.2766  135.1582  150.2123 H   0  0  0  0  0  0  0  0  0  0  0  0
  145.9401  138.0857  149.8590 H   0  0  0  0  0  0  0  0  0  0  0  0
  148.2570  137.8550  152.3314 H   0  0  0  0  0  0  0  0  0  0  0  0
  153.7211  139.2831  159.9566 H   0  0  0  0  0  0  0  0  0  0  0  0
  154.7069  140.7891  161.6481 H   0  0  0  0  0  0  0  0  0  0  0  0
  153.9053  143.1361  161.8524 H   0  0  0  0  0  0  0  0  0  0  0  0
  152.1199  143.9715  160.3439 H   0  0  0  0  0  0  0  0  0  0  0  0
  1  2  1  0  0  0  0
  1 33  1  0  0  0  0
  1 34  1  0  0  0  0
  1 35  1  0  0  0  0
  2  3  1  0  0  0  0
  2 22  1  0  0  0  0
  2 36  1  0  0  0  0
  3  4  1  0  0  0  0
  3 37  1  0  0  0  0
  4  9  1  0  0  0  0
  4  5  2  0  0  0  0
  5  6  1  0  0  0  0
  6  7  2  0  0  0  0
  6 38  1  0  0  0  0
  7  8  1  0  0  0  0
  8 12  1  0  0  0  0
  8  9  2  0  0  0  0
  9 10  1  0  0  0  0
 10 11  2  0  0  0  0
 11 12  1  0  0  0  0
 11 39  1  0  0  0  0
 12 13  1  0  0  0  0
 13 29  1  0  0  0  0
 13 20  1  0  0  0  0
 13 14  1  0  0  0  0
 14 15  1  0  0  0  0
 15 30  1  0  0  0  0
 15 16  1  0  0  0  0
 15 18  1  0  0  0  0
 16 17  1  0  0  0  0
 16 40  1  0  0  0  0
 16 41  1  0  0  0  0
 17 42  1  0  0  0  0
 18 31  1  0  0  0  0
 18 19  1  0  0  0  0
 18 20  1  0  0  0  0
 19 43  1  0  0  0  0
 20 32  1  0  0  0  0
 20 21  1  0  0  0  0
 21 44  1  0  0  0  0
 22 27  1  0  0  0  0
 22 23  2  0  0  0  0
 23 24  1  0  0  0  0
 23 45  1  0  0  0  0
 24 25  2  0  0  0  0
 24 46  1  0  0  0  0
 25 26  1  0  0  0  0
 25 47  1  0  0  0  0
 26 27  2  0  0  0  0
 26 48  1  0  0  0  0
 27 28  1  0  0  0  0
M  END
> <s_m_source_file>
AV-unprocessed.smi

> <i_m_source_file_index>
283

> <i_lp_mmshare_version>
43012

> <i_f3d_flags>
0

> <s_epik_input>
Q2xjMVtjSF1bY0hdW2NIXVtjSF1jMVtDQEhdKFtDSDNdKVtOSF1jKG5bY0hdbjIpYyhjMjMpbltjSF1uM1tDQEBIXTRPW0NASF0oW0NIMl1bT0hdKVtDQEBIXShbT0hdKVtDQEhdNFtPSF0=

> <s_epik_cmdline>
J2VwaWtfcHl0aG9uJywgJy1waCcsICc3LjAnLCAnLXRuJywgJzgnLCAnLW1hJywgJzIwMCcsICctbWV0YWxfYmluZGluZycsICctaW1hZScsICc8aW5maWxlLm1hZT4nLCAnLW9tYWUnLCAnPG91dGZpbGUubWFlPic=

> <r_lp_tautomer_probability>
1

> <r_epik_Ionization_Penalty>
0.000266407

> <r_epik_Ionization_Penalty_Charging>
0

> <r_epik_Ionization_Penalty_Neutral>
0.000266407

> <r_epik_State_Penalty>
-0

> <r_epik_Charging_Adjusted_Penalty>
0

> <i_epik_Tot_Q>
0

> <i_epik_Tot_abs_Q>
0

> <r_epik_Metal_State_Penalty>
-0

> <b_epik_Metal_Only>
0

> <s_epik_Chemistry_Notes>
This compound contains an acetal/aminal-like group ( X-CH(R)-Y where X, Y are N, S, or O) that may be acid/base labile, releasing an aldehyde.

> <s_lp_Force_Field>
OPLS_2005

> <r_lp_Energy>
52.4072

> <b_lp_Chiralities_Consistent>
1

> <s_lp_Variant>
AV-unprocessed.smi:283-30

> <Gold.Version>
5.8.1

> <Gold.Id.Protein>
6NUR|6NUR_protein|mol2

> <Gold.PLP.Fitness>
47.5609

> <Gold.PLP.PLP>
-37.9042

> <Gold.PLP.part.hbond>
-5.2307

> <Gold.PLP.part.metal>
0.0000

> <Gold.PLP.part.buried>
-4.4213

> <Gold.PLP.part.nonpolar>
-29.1820

> <Gold.PLP.part.repulsive>
0.3685

> <Gold.PLP.ligand.clash>
0.0000

> <Gold.PLP.ligand.torsion>
0.7799

> <Gold.PLP.Chemscore.Hbond>
2.6960

> <Gold.PLP.Chemscore.CHOScore>
1.0000

> <Gold.PLP.Chemscore.Metal>
0.0000

> <Gold.Chemscore.Hbonds>
donor molecule, donor type, donor heavy atom, donor atom, acceptor molecule, acceptor atom, score
      L1  H    19    43       P1 10171  0.61
      L1  H    21    44       P1  7948  1.00
      P1  H  7954  7966       L1    19  0.96
      L1  C     6    38       P1  8028  1.00

> <Gold.PLP.Chemscore.Internal.Correction>
0.1284

> <Gold.Rescore>
     Score         DG    S(hbond)    S(metal)    S(lipo)     H(rot)  DE(clash)    DE(int)     intcor
     11.56     -14.71       2.53        0.00      96.32       4.10       0.60       2.55       ----

> <Gold.Chemscore.Fitness>
11.5648

> <Gold.Chemscore.DG>
-14.7140

> <Gold.Chemscore.ZeroCoef>
-5.4800

> <Gold.Chemscore.Hbond>
2.5306

> <Gold.Chemscore.Metal>
0.0000

> <Gold.Chemscore.Lipo>
96.3207

> <Gold.Chemscore.Internal_Hbond>
0.0000

> <Gold.Chemscore.DEClash>
0.6021

> <Gold.Chemscore.DEInternal>
2.5470

> <Gold.Chemscore.Rot>
4.0968

> <Gold.Chemscore.Internal.Correction>
   9.000000E+99

> <Gold.Chemscore.Hbonds>
donor molecule, donor type, donor heavy atom, donor atom, acceptor molecule, acceptor atom, score
      L1  H    19    43       P1 10171  0.61
      L1  H    21    44       P1  7948  1.00
      P1  H  7954  7966       L1    19  0.65

> <Gold.Chemscore.Hbond.Weighted>
-8.4524

> <Gold.Chemscore.Metal.Weighted>
-0.0000

> <Gold.Chemscore.Lipo.Weighted>
-11.2695

> <Gold.Chemscore.Internal_Hbond.Weighted>
0.0000

> <Gold.Chemscore.DEClash.Weighted>
0.6021

> <Gold.Chemscore.DEInternal.Weighted>
2.5470

> <Gold.Chemscore.Rot.Weighted>
10.4879

> <Gold.Chemscore.Internal.Correction.Weighted>
   9.000000E+99

> <Gold.Protein.RotatedTorsions>
[ 6907 6896 6895 6894 ] final   81.55 input  -60.11 | X-H torsion
[ 7974 7965 7964 7962 ] final  -83.68 input  175.53 | X-H torsion
[ 8008 7997 7996 7995 ] final  -61.55 input   59.86 | X-H torsion
[ 10167 10162 10161 10158 ] final  -87.49 input  -65.29 | X-H torsion
[ 10718 10713 10712 10709 ] final  106.54 input   66.30 | X-H torsion
[ 10763 10752 10751 10750 ] final   32.58 input  -60.55 | X-H torsion
[ 11005 11000 10999 10996 ] final  172.24 input  -57.11 | X-H torsion

> <Gold.Protein.ActiveResidues>
 VAL166  LYS551  ARG553  GLY616  TRP617  ASP618  TYR619  PRO620  LYS621  CYS622 
 ASP623  PHE694  ASN695  SER759  ASP760  ASP761  ALA762  ILE779  LEU786  VAL792 
 PHE793  MET794  SER795  GLU796  ALA797  LYS798  CYS799  TRP800  GLU811  SER814 

> <Gold.Protein.RotatedAtoms>
  152.5272  134.3187  159.9140 H   0  0  0  0  0  0  0  0  0  0  0  0  # atno 6907 bound_to 6896
  151.3136  133.4063  159.2656 H   0  0  0  0  0  0  0  0  0  0  0  0  # atno 6908 bound_to 6896
  151.0017  134.9344  159.8015 H   0  0  0  0  0  0  0  0  0  0  0  0  # atno 6909 bound_to 6896
  145.5167  140.9535  143.1677 H   0  0  0  0  0  0  0  0  0  0  0  0  # atno 7974 bound_to 7965
  154.4453  140.1015  156.6448 H   0  0  0  0  0  0  0  0  0  0  0  0  # atno 8008 bound_to 7997
  155.5462  140.3484  155.4439 H   0  0  0  0  0  0  0  0  0  0  0  0  # atno 8009 bound_to 7997
  156.0561  140.1315  156.9984 H   0  0  0  0  0  0  0  0  0  0  0  0  # atno 8010 bound_to 7997
  140.3839  143.2736  151.9349 H   0  0  0  0  0  0  0  0  0  0  0  0  # atno 10167 bound_to 10162
  157.6664  131.0853  150.6022 H   0  0  0  0  0  0  0  0  0  0  0  0  # atno 10718 bound_to 10713
  153.0255  135.6409  154.1377 H   0  0  0  0  0  0  0  0  0  0  0  0  # atno 10763 bound_to 10752
  154.1107  135.2853  155.3233 H   0  0  0  0  0  0  0  0  0  0  0  0  # atno 10764 bound_to 10752
  154.6334  135.5485  153.7768 H   0  0  0  0  0  0  0  0  0  0  0  0  # atno 10765 bound_to 10752
  140.3276  134.7384  157.4111 H   0  0  0  0  0  0  0  0  0  0  0  0  # atno 11005 bound_to 11000
  144.7698  139.6761  143.7199 LP  0  0  0  0  0  0  0  0  0  0  0  0  # atno 17320 bound_to 7965
  146.2132  139.5503  142.9667 LP  0  0  0  0  0  0  0  0  0  0  0  0  # atno 17321 bound_to 7965
  139.4793  144.5792  151.7960 LP  0  0  0  0  0  0  0  0  0  0  0  0  # atno 17342 bound_to 10162
  140.4909  144.1311  150.5950 LP  0  0  0  0  0  0  0  0  0  0  0  0  # atno 17343 bound_to 10162
  156.6323  130.4435  149.5782 LP  0  0  0  0  0  0  0  0  0  0  0  0  # atno 17370 bound_to 10713
  156.2272  130.6773  151.1428 LP  0  0  0  0  0  0  0  0  0  0  0  0  # atno 17371 bound_to 10713
  140.0888  134.5630  155.8465 LP  0  0  0  0  0  0  0  0  0  0  0  0  # atno 17394 bound_to 11000
  141.2071  133.6661  156.6286 LP  0  0  0  0  0  0  0  0  0  0  0  0  # atno 17395 bound_to 11000

$$$$
