AV-unprocessed.smi:1802|AV-procd|sdf|7271|dock2
  -GOLD-   22720 8523D 1   1.00000     0.00000
 Structure written by MMmdl.
 41 42  0  0  0  0  0  0  0  0  2 V2000
  150.1217  135.0357  156.1917 C   0  0  0  0  0  0  0  0  0  0  0  0
  150.0991  136.1004  155.0858 C   0  0  2  0  0  0  0  0  0  0  0  0
  151.2565  137.1003  155.2464 C   0  0  0  0  0  0  0  0  0  0  0  0
  151.1959  138.1625  154.1424 C   0  0  0  0  0  0  0  0  0  0  0  0
  149.8255  138.8571  154.1251 C   0  0  0  0  0  0  0  0  0  0  0  0
  148.7253  137.8710  153.9648 N   0  3  2  0  0  0  0  0  0  0  0  0
  147.4046  138.5327  153.8113 C   0  0  0  0  0  0  0  0  0  0  0  0
  146.9639  138.6484  152.3416 C   0  0  0  0  0  0  0  0  0  0  0  0
  145.8780  137.6207  151.9810 C   0  0  0  0  0  0  0  0  0  0  0  0
  144.5497  138.0701  152.3826 N   0  0  0  0  0  0  0  0  0  0  0  0
  143.5710  137.2678  152.8261 C   0  0  0  0  0  0  0  0  0  0  0  0
  143.6874  136.0450  152.9139 O   0  0  0  0  0  0  0  0  0  0  0  0
  142.4725  137.9714  153.1526 N   0  0  0  0  0  0  0  0  0  0  0  0
  141.2457  137.4902  153.6822 C   0  0  0  0  0  0  0  0  0  0  0  0
  141.1427  136.3822  154.4330 N   0  0  0  0  0  0  0  0  0  0  0  0
  139.8323  136.1393  154.8234 N   0  0  0  0  0  0  0  0  0  0  0  0
  138.9996  137.0715  154.3517 C   0  0  0  0  0  0  0  0  0  0  0  0
  139.7348  138.3379  153.3842 S   0  0  0  0  0  0  0  0  0  0  0  0
  148.7494  136.8463  155.0443 C   0  0  0  0  0  0  0  0  0  0  0  0
  149.9992  135.4843  157.1780 H   0  0  0  0  0  0  0  0  0  0  0  0
  151.0648  134.4884  156.1898 H   0  0  0  0  0  0  0  0  0  0  0  0
  149.3205  134.3089  156.0548 H   0  0  0  0  0  0  0  0  0  0  0  0
  150.2281  135.5849  154.1328 H   0  0  0  0  0  0  0  0  0  0  0  0
  151.2004  137.5828  156.2233 H   0  0  0  0  0  0  0  0  0  0  0  0
  152.2149  136.5810  155.2093 H   0  0  0  0  0  0  0  0  0  0  0  0
  151.9854  138.8997  154.2913 H   0  0  0  0  0  0  0  0  0  0  0  0
  151.3848  137.6977  153.1737 H   0  0  0  0  0  0  0  0  0  0  0  0
  149.6773  139.4229  155.0464 H   0  0  0  0  0  0  0  0  0  0  0  0
  149.8017  139.5753  153.3046 H   0  0  0  0  0  0  0  0  0  0  0  0
  146.6537  138.0046  154.4012 H   0  0  0  0  0  0  0  0  0  0  0  0
  147.4633  139.5417  154.2218 H   0  0  0  0  0  0  0  0  0  0  0  0
  146.5871  139.6544  152.1517 H   0  0  0  0  0  0  0  0  0  0  0  0
  147.8190  138.5087  151.6809 H   0  0  0  0  0  0  0  0  0  0  0  0
  145.8904  137.4114  150.9098 H   0  0  0  0  0  0  0  0  0  0  0  0
  146.0795  136.6743  152.4834 H   0  0  0  0  0  0  0  0  0  0  0  0
  144.3715  139.0632  152.3413 H   0  0  0  0  0  0  0  0  0  0  0  0
  142.5235  138.9708  153.0212 H   0  0  0  0  0  0  0  0  0  0  0  0
  137.9448  137.0126  154.5752 H   0  0  0  0  0  0  0  0  0  0  0  0
  147.9528  136.1198  154.8885 H   0  0  0  0  0  0  0  0  0  0  0  0
  148.5532  137.3262  156.0044 H   0  0  0  0  0  0  0  0  0  0  0  0
  148.9062  137.3881  153.0963 H   0  0  0  0  0  0  0  0  0  0  0  0
  1  2  1  0  0  0  0
  1 20  1  0  0  0  0
  1 21  1  0  0  0  0
  1 22  1  0  0  0  0
  2 19  1  0  0  0  0
  2  3  1  0  0  0  0
  2 23  1  0  0  0  0
  3  4  1  0  0  0  0
  3 24  1  0  0  0  0
  3 25  1  0  0  0  0
  4  5  1  0  0  0  0
  4 26  1  0  0  0  0
  4 27  1  0  0  0  0
  5  6  1  0  0  0  0
  5 28  1  0  0  0  0
  5 29  1  0  0  0  0
  6  7  1  0  0  0  0
  6 19  1  0  0  0  0
  6 41  1  0  0  0  0
  7  8  1  0  0  0  0
  7 30  1  0  0  0  0
  7 31  1  0  0  0  0
  8  9  1  0  0  0  0
  8 32  1  0  0  0  0
  8 33  1  0  0  0  0
  9 10  1  0  0  0  0
  9 34  1  0  0  0  0
  9 35  1  0  0  0  0
 10 11  1  0  0  0  0
 10 36  1  0  0  0  0
 11 12  2  0  0  0  0
 11 13  1  0  0  0  0
 13 14  1  0  0  0  0
 13 37  1  0  0  0  0
 14 18  1  0  0  0  0
 14 15  2  0  0  0  0
 15 16  1  0  0  0  0
 16 17  2  0  0  0  0
 17 18  1  0  0  0  0
 17 38  1  0  0  0  0
 19 39  1  0  0  0  0
 19 40  1  0  0  0  0
M  CHG  1   6   1
M  END
> <s_m_source_file>
AV-unprocessed.smi

> <i_m_source_file_index>
1802

> <i_lp_mmshare_version>
43012

> <i_f3d_flags>
0

> <s_epik_input>
W0NIM11bQ0BASF0xW0NIMl1bQ0gyXVtDSDJdTihbQ0gyXTEpW0NIMl1bQ0gyXVtDSDJdW05IXUMoPU8pW05IXWMybm5bY0hdczI=

> <s_epik_cmdline>
J2VwaWtfcHl0aG9uJywgJy1waCcsICc3LjAnLCAnLXRuJywgJzgnLCAnLW1hJywgJzIwMCcsICctbWV0YWxfYmluZGluZycsICctaW1hZScsICc8aW5maWxlLm1hZT4nLCAnLW9tYWUnLCAnPG91dGZpbGUubWFlPic=

> <r_lp_tautomer_probability>
1

> <r_epik_Ionization_Penalty>
0.00272894

> <r_epik_Ionization_Penalty_Charging>
0.000288442

> <r_epik_Ionization_Penalty_Neutral>
0.0024405

> <r_epik_State_Penalty>
-0

> <r_epik_Charging_Adjusted_Penalty>
0.000288442

> <i_epik_Tot_Q>
1

> <i_epik_Tot_abs_Q>
1

> <r_epik_Metal_State_Penalty>
0.350525

> <b_epik_Metal_Only>
0

> <s_lp_Force_Field>
OPLS_2005

> <r_lp_Energy>
15.5864

> <b_lp_Chiralities_Consistent>
1

> <s_lp_Variant>
AV-unprocessed.smi:1802-1

> <Gold.Version>
5.8.1

> <Gold.Id.Protein>
6NUR|6NUR_protein|mol2

> <Gold.PLP.Fitness>
46.1997

> <Gold.PLP.PLP>
-33.9530

> <Gold.PLP.part.hbond>
-5.1692

> <Gold.PLP.part.metal>
0.0000

> <Gold.PLP.part.buried>
-1.6127

> <Gold.PLP.part.nonpolar>
-25.9647

> <Gold.PLP.part.repulsive>
0.3304

> <Gold.PLP.ligand.clash>
0.0000

> <Gold.PLP.ligand.torsion>
1.3531

> <Gold.PLP.Chemscore.Hbond>
4.9440

> <Gold.PLP.Chemscore.CHOScore>
0.0000

> <Gold.PLP.Chemscore.Metal>
0.0000

> <Gold.Chemscore.Hbonds>
donor molecule, donor type, donor heavy atom, donor atom, acceptor molecule, acceptor atom, score
      L1  H     6    41       P1  7948  2.00
      L1  H    10    36       P1 10175  1.00
      L1  H    13    37       P1 10175  0.93
      P1  H 11000 11005       L1    16  1.00

> <Gold.PLP.Chemscore.Internal.Correction>
0.1209

> <Gold.Rescore>
     Score         DG    S(hbond)    S(metal)    S(lipo)     H(rot)  DE(clash)    DE(int)     intcor
     18.73     -21.06       3.82        0.00      67.59       1.98       0.11       2.22       ----

> <Gold.Chemscore.Fitness>
18.7336

> <Gold.Chemscore.DG>
-21.0645

> <Gold.Chemscore.ZeroCoef>
-5.4800

> <Gold.Chemscore.Hbond>
3.8154

> <Gold.Chemscore.Metal>
0.0000

> <Gold.Chemscore.Lipo>
67.5898

> <Gold.Chemscore.Internal_Hbond>
0.0000

> <Gold.Chemscore.DEClash>
0.1140

> <Gold.Chemscore.DEInternal>
2.2169

> <Gold.Chemscore.Rot>
1.9793

> <Gold.Chemscore.Internal.Correction>
   9.000000E+99

> <Gold.Chemscore.Hbonds>
donor molecule, donor type, donor heavy atom, donor atom, acceptor molecule, acceptor atom, score
      L1  H     6    41       P1  7948  1.00
      L1  H    10    36       P1 10175  0.95
      L1  H    13    37       P1 10175  0.91
      P1  H 11000 11005       L1    16  0.25

> <Gold.Chemscore.Hbond.Weighted>
-12.7435

> <Gold.Chemscore.Metal.Weighted>
-0.0000

> <Gold.Chemscore.Lipo.Weighted>
-7.9080

> <Gold.Chemscore.Internal_Hbond.Weighted>
0.0000

> <Gold.Chemscore.DEClash.Weighted>
0.1140

> <Gold.Chemscore.DEInternal.Weighted>
2.2169

> <Gold.Chemscore.Rot.Weighted>
5.0670

> <Gold.Chemscore.Internal.Correction.Weighted>
   9.000000E+99

> <Gold.Protein.RotatedTorsions>
[ 6907 6896 6895 6894 ] final -112.29 input  -60.11 | X-H torsion
[ 7974 7965 7964 7962 ] final -175.65 input  175.53 | X-H torsion
[ 8008 7997 7996 7995 ] final -109.09 input   59.86 | X-H torsion
[ 10167 10162 10161 10158 ] final   71.52 input  -65.29 | X-H torsion
[ 10718 10713 10712 10709 ] final  -11.28 input   66.30 | X-H torsion
[ 10763 10752 10751 10750 ] final   93.76 input  -60.55 | X-H torsion
[ 11005 11000 10999 10996 ] final   53.65 input  -57.11 | X-H torsion

> <Gold.Protein.ActiveResidues>
 VAL166  LYS551  ARG553  GLY616  TRP617  ASP618  TYR619  PRO620  LYS621  CYS622 
 ASP623  PHE694  ASN695  SER759  ASP760  ASP761  ALA762  ILE779  LEU786  VAL792 
 PHE793  MET794  SER795  GLU796  ALA797  LYS798  CYS799  TRP800  GLU811  SER814 

> <Gold.Protein.RotatedAtoms>
  150.7748  133.9112  159.3369 H   0  0  0  0  0  0  0  0  0  0  0  0  # atno 6907 bound_to 6896
  151.6989  135.0931  160.0257 H   0  0  0  0  0  0  0  0  0  0  0  0  # atno 6908 bound_to 6896
  152.3780  133.6469  159.6174 H   0  0  0  0  0  0  0  0  0  0  0  0  # atno 6909 bound_to 6896
  144.7128  140.1289  143.6400 H   0  0  0  0  0  0  0  0  0  0  0  0  # atno 7974 bound_to 7965
  154.9542  140.0400  157.2158 H   0  0  0  0  0  0  0  0  0  0  0  0  # atno 8008 bound_to 7997
  154.7950  140.2842  155.5941 H   0  0  0  0  0  0  0  0  0  0  0  0  # atno 8009 bound_to 7997
  156.2954  140.2566  156.2806 H   0  0  0  0  0  0  0  0  0  0  0  0  # atno 8010 bound_to 7997
  140.0452  144.5357  150.7404 H   0  0  0  0  0  0  0  0  0  0  0  0  # atno 10167 bound_to 10162
  156.6613  130.4982  149.6029 H   0  0  0  0  0  0  0  0  0  0  0  0  # atno 10718 bound_to 10713
  153.2339  135.4314  155.0625 H   0  0  0  0  0  0  0  0  0  0  0  0  # atno 10763 bound_to 10752
  154.8310  135.3386  154.6747 H   0  0  0  0  0  0  0  0  0  0  0  0  # atno 10764 bound_to 10752
  153.7173  135.7019  153.5078 H   0  0  0  0  0  0  0  0  0  0  0  0  # atno 10765 bound_to 10752
  140.0750  134.5417  155.9006 H   0  0  0  0  0  0  0  0  0  0  0  0  # atno 11005 bound_to 11000
  145.9305  139.2603  143.1328 LP  0  0  0  0  0  0  0  0  0  0  0  0  # atno 17320 bound_to 7965
  145.9528  140.8895  143.0250 LP  0  0  0  0  0  0  0  0  0  0  0  0  # atno 17321 bound_to 7965
  140.7242  143.2619  151.4177 LP  0  0  0  0  0  0  0  0  0  0  0  0  # atno 17342 bound_to 10162
  139.5988  144.1340  152.2174 LP  0  0  0  0  0  0  0  0  0  0  0  0  # atno 17343 bound_to 10162
  156.2009  130.6619  151.1166 LP  0  0  0  0  0  0  0  0  0  0  0  0  # atno 17370 bound_to 10713
  157.7109  131.0735  150.6505 LP  0  0  0  0  0  0  0  0  0  0  0  0  # atno 17371 bound_to 10713
  141.2026  133.6626  156.6015 LP  0  0  0  0  0  0  0  0  0  0  0  0  # atno 17394 bound_to 11000
  140.3571  134.7719  157.4508 LP  0  0  0  0  0  0  0  0  0  0  0  0  # atno 17395 bound_to 11000

$$$$
