AV-unprocessed.smi:1812|AV-procd|sdf|7338|dock6
  -GOLD-   22720 9 03D 1   1.00000     0.00000
 Structure written by MMmdl.
 33 35  0  0  0  0  0  0  0  0  2 V2000
  150.3427  137.3410  158.8003 O   0  0  0  0  0  0  0  0  0  0  0  0
  149.7008  138.0472  158.0192 C   0  0  0  0  0  0  0  0  0  0  0  0
  148.5004  137.6415  157.5860 N   0  0  0  0  0  0  0  0  0  0  0  0
  147.8476  136.3943  157.9627 C   0  0  0  0  0  0  0  0  0  0  0  0
  147.6795  136.3018  159.4862 C   0  0  2  0  0  0  0  0  0  0  0  0
  147.1025  134.9766  159.9854 C   0  0  0  0  0  0  0  0  0  0  0  0
  146.5104  135.3877  161.3136 C   0  0  0  0  0  0  0  0  0  0  0  0
  145.9512  136.7708  160.9917 C   0  0  0  0  0  0  0  0  0  0  0  0
  146.7698  137.2964  159.9494 O   0  0  0  0  0  0  0  0  0  0  0  0
  150.0835  139.2440  157.5187 N   0  5  0  0  0  0  0  0  0  0  0  0
  150.8967  140.0417  158.2306 C   0  0  0  0  0  0  0  0  0  0  0  0
  151.8425  139.5589  159.0490 N   0  0  0  0  0  0  0  0  0  0  0  0
  152.5618  140.5533  159.6959 N   0  0  0  0  0  0  0  0  0  0  0  0
  152.1426  141.7764  159.3626 C   0  0  0  0  0  0  0  0  0  0  0  0
  152.7545  143.0132  159.9310 C   0  0  0  0  0  0  0  0  0  0  0  0
  151.9568  143.9213  160.8385 C   0  0  0  0  0  0  0  0  0  0  0  0
  152.3448  144.3914  159.4596 C   0  0  0  0  0  0  0  0  0  0  0  0
  150.8161  141.8029  158.2115 S   0  0  0  0  0  0  0  0  0  0  0  0
  148.0049  138.2463  156.9475 H   0  0  0  0  0  0  0  0  0  0  0  0
  146.8707  136.3377  157.4804 H   0  0  0  0  0  0  0  0  0  0  0  0
  148.4359  135.5513  157.5970 H   0  0  0  0  0  0  0  0  0  0  0  0
  148.6374  136.4822  159.9771 H   0  0  0  0  0  0  0  0  0  0  0  0
  146.3147  134.6230  159.3184 H   0  0  0  0  0  0  0  0  0  0  0  0
  147.8533  134.1911  160.0762 H   0  0  0  0  0  0  0  0  0  0  0  0
  145.7524  134.6951  161.6804 H   0  0  0  0  0  0  0  0  0  0  0  0
  147.2973  135.4651  162.0653 H   0  0  0  0  0  0  0  0  0  0  0  0
  144.9291  136.6912  160.6196 H   0  0  0  0  0  0  0  0  0  0  0  0
  145.9443  137.4273  161.8620 H   0  0  0  0  0  0  0  0  0  0  0  0
  153.8038  142.8485  160.1681 H   0  0  0  0  0  0  0  0  0  0  0  0
  150.9105  143.6740  161.0076 H   0  0  0  0  0  0  0  0  0  0  0  0
  152.4751  144.3642  161.6865 H   0  0  0  0  0  0  0  0  0  0  0  0
  153.1238  145.1473  159.3866 H   0  0  0  0  0  0  0  0  0  0  0  0
  151.5510  144.4686  158.7192 H   0  0  0  0  0  0  0  0  0  0  0  0
  1  2  2  0  0  0  0
  2  3  1  0  0  0  0
  2 10  1  0  0  0  0
  3  4  1  0  0  0  0
  3 19  1  0  0  0  0
  4  5  1  0  0  0  0
  4 20  1  0  0  0  0
  4 21  1  0  0  0  0
  5  9  1  0  0  0  0
  5  6  1  0  0  0  0
  5 22  1  0  0  0  0
  6  7  1  0  0  0  0
  6 23  1  0  0  0  0
  6 24  1  0  0  0  0
  7  8  1  0  0  0  0
  7 25  1  0  0  0  0
  7 26  1  0  0  0  0
  8  9  1  0  0  0  0
  8 27  1  0  0  0  0
  8 28  1  0  0  0  0
 10 11  1  0  0  0  0
 11 18  1  0  0  0  0
 11 12  2  0  0  0  0
 12 13  1  0  0  0  0
 13 14  2  0  0  0  0
 14 15  1  0  0  0  0
 14 18  1  0  0  0  0
 15 17  1  0  0  0  0
 15 16  1  0  0  0  0
 15 29  1  0  0  0  0
 16 17  1  0  0  0  0
 16 30  1  0  0  0  0
 16 31  1  0  0  0  0
 17 32  1  0  0  0  0
 17 33  1  0  0  0  0
M  CHG  1  10  -1
M  END
> <s_m_source_file>
AV-unprocessed.smi

> <i_m_source_file_index>
1812

> <i_lp_mmshare_version>
43012

> <i_f3d_flags>
0

> <s_epik_input>
TzFbQ0gyXVtDSDJdW0NIMl1bQ0BIXTFbQ0gyXVtOSF1DKD1PKVtOSF1jMm5uYyhzMilbQ0hdM1tDSDJdW0NIMl0z

> <s_epik_cmdline>
J2VwaWtfcHl0aG9uJywgJy1waCcsICc3LjAnLCAnLXRuJywgJzgnLCAnLW1hJywgJzIwMCcsICctbWV0YWxfYmluZGluZycsICctaW1hZScsICc8aW5maWxlLm1hZT4nLCAnLW9tYWUnLCAnPG91dGZpbGUubWFlPic=

> <r_lp_tautomer_probability>
1

> <r_epik_Ionization_Penalty>
4.72991

> <r_epik_Ionization_Penalty_Charging>
4.58249

> <r_epik_Ionization_Penalty_Neutral>
0.147417

> <r_epik_State_Penalty>
4.58223

> <r_epik_Charging_Adjusted_Penalty>
9.16473

> <i_epik_Tot_Q>
-1

> <i_epik_Tot_abs_Q>
1

> <r_epik_Metal_State_Penalty>
0.861876

> <b_epik_Metal_Only>
1

> <s_lp_Force_Field>
OPLS_2005

> <r_lp_Energy>
13.803

> <b_lp_Chiralities_Consistent>
1

> <s_lp_Variant>
AV-unprocessed.smi:1812-3

> <Gold.Version>
5.8.1

> <Gold.Id.Protein>
6NUR|6NUR_protein|mol2

> <Gold.PLP.Fitness>
43.2534

> <Gold.PLP.PLP>
-37.1188

> <Gold.PLP.part.hbond>
-2.9824

> <Gold.PLP.part.metal>
0.0000

> <Gold.PLP.part.buried>
-5.7907

> <Gold.PLP.part.nonpolar>
-28.6249

> <Gold.PLP.part.repulsive>
0.1500

> <Gold.PLP.ligand.clash>
0.0000

> <Gold.PLP.ligand.torsion>
0.4868

> <Gold.PLP.Chemscore.Hbond>
2.3225

> <Gold.PLP.Chemscore.CHOScore>
0.0000

> <Gold.PLP.Chemscore.Metal>
0.0000

> <Gold.Chemscore.Hbonds>
donor molecule, donor type, donor heavy atom, donor atom, acceptor molecule, acceptor atom, score
      P1  H  6934  6947       L1     9  0.75

> <Gold.PLP.Chemscore.Internal.Correction>
0.1409

> <Gold.Rescore>
     Score         DG    S(hbond)    S(metal)    S(lipo)     H(rot)  DE(clash)    DE(int)     intcor
     15.66     -17.90       1.69        0.00      89.46       1.45       0.01       2.22       ----

> <Gold.Chemscore.Fitness>
15.6640

> <Gold.Chemscore.DG>
-17.9002

> <Gold.Chemscore.ZeroCoef>
-5.4800

> <Gold.Chemscore.Hbond>
1.6925

> <Gold.Chemscore.Metal>
0.0000

> <Gold.Chemscore.Lipo>
89.4606

> <Gold.Chemscore.Internal_Hbond>
0.0000

> <Gold.Chemscore.DEClash>
0.0141

> <Gold.Chemscore.DEInternal>
2.2221

> <Gold.Chemscore.Rot>
1.4451

> <Gold.Chemscore.Internal.Correction>
   9.000000E+99

> <Gold.Chemscore.Hbonds>
donor molecule, donor type, donor heavy atom, donor atom, acceptor molecule, acceptor atom, score
      P1  H  6934  6947       L1     9  0.09

> <Gold.Chemscore.Hbond.Weighted>
-5.6528

> <Gold.Chemscore.Metal.Weighted>
-0.0000

> <Gold.Chemscore.Lipo.Weighted>
-10.4669

> <Gold.Chemscore.Internal_Hbond.Weighted>
0.0000

> <Gold.Chemscore.DEClash.Weighted>
0.0141

> <Gold.Chemscore.DEInternal.Weighted>
2.2221

> <Gold.Chemscore.Rot.Weighted>
3.6995

> <Gold.Chemscore.Internal.Correction.Weighted>
   9.000000E+99

> <Gold.Protein.RotatedTorsions>
[ 6907 6896 6895 6894 ] final -140.11 input  -60.11 | X-H torsion
[ 7974 7965 7964 7962 ] final  -60.88 input  175.53 | X-H torsion
[ 8008 7997 7996 7995 ] final   27.78 input   59.86 | X-H torsion
[ 10167 10162 10161 10158 ] final  104.47 input  -65.29 | X-H torsion
[ 10718 10713 10712 10709 ] final  105.74 input   66.30 | X-H torsion
[ 10763 10752 10751 10750 ] final -106.97 input  -60.55 | X-H torsion
[ 11005 11000 10999 10996 ] final -175.29 input  -57.11 | X-H torsion

> <Gold.Protein.ActiveResidues>
 VAL166  LYS551  ARG553  GLY616  TRP617  ASP618  TYR619  PRO620  LYS621  CYS622 
 ASP623  PHE694  ASN695  SER759  ASP760  ASP761  ALA762  ILE779  LEU786  VAL792 
 PHE793  MET794  SER795  GLU796  ALA797  LYS798  CYS799  TRP800  GLU811  SER814 

> <Gold.Protein.RotatedAtoms>
  151.0564  133.5580  159.2637 H   0  0  0  0  0  0  0  0  0  0  0  0  # atno 6907 bound_to 6896
  151.2572  135.0641  159.9094 H   0  0  0  0  0  0  0  0  0  0  0  0  # atno 6908 bound_to 6896
  152.5390  134.0316  159.8081 H   0  0  0  0  0  0  0  0  0  0  0  0  # atno 6909 bound_to 6896
  145.8102  140.8603  143.0186 H   0  0  0  0  0  0  0  0  0  0  0  0  # atno 7974 bound_to 7965
  155.0483  140.3177  155.4701 H   0  0  0  0  0  0  0  0  0  0  0  0  # atno 8008 bound_to 7997
  156.2840  140.2150  156.5552 H   0  0  0  0  0  0  0  0  0  0  0  0  # atno 8009 bound_to 7997
  154.7232  140.0488  157.0646 H   0  0  0  0  0  0  0  0  0  0  0  0  # atno 8010 bound_to 7997
  139.7174  144.7065  151.0928 H   0  0  0  0  0  0  0  0  0  0  0  0  # atno 10167 bound_to 10162
  157.6694  131.0835  150.5902 H   0  0  0  0  0  0  0  0  0  0  0  0  # atno 10718 bound_to 10713
  154.8046  135.4692  154.0360 H   0  0  0  0  0  0  0  0  0  0  0  0  # atno 10763 bound_to 10752
  153.1839  135.6845  153.8448 H   0  0  0  0  0  0  0  0  0  0  0  0  # atno 10764 bound_to 10752
  153.7989  135.3232  155.3365 H   0  0  0  0  0  0  0  0  0  0  0  0  # atno 10765 bound_to 10752
  140.4650  134.6219  157.4858 H   0  0  0  0  0  0  0  0  0  0  0  0  # atno 11005 bound_to 11000
  144.6758  140.0384  143.7481 LP  0  0  0  0  0  0  0  0  0  0  0  0  # atno 17320 bound_to 7965
  145.9785  139.2923  143.1056 LP  0  0  0  0  0  0  0  0  0  0  0  0  # atno 17321 bound_to 7965
  140.7746  143.5211  150.9535 LP  0  0  0  0  0  0  0  0  0  0  0  0  # atno 17342 bound_to 10162
  139.8898  143.6968  152.3147 LP  0  0  0  0  0  0  0  0  0  0  0  0  # atno 17343 bound_to 10162
  156.6203  130.4404  149.5825 LP  0  0  0  0  0  0  0  0  0  0  0  0  # atno 17370 bound_to 10713
  156.2361  130.6823  151.1511 LP  0  0  0  0  0  0  0  0  0  0  0  0  # atno 17371 bound_to 10713
  139.9921  134.6968  155.9671 LP  0  0  0  0  0  0  0  0  0  0  0  0  # atno 17394 bound_to 11000
  141.1604  133.6539  156.4299 LP  0  0  0  0  0  0  0  0  0  0  0  0  # atno 17395 bound_to 11000

$$$$
