AV-unprocessed.smi:867|AV-procd|sdf|4001|dock6
  -GOLD-   22720 1483D 1   1.00000     0.00000
 Structure written by MMmdl.
 54 57  0  0  0  0  0  0  0  0  3 V2000
  146.5993  139.0194  151.0378 O   0  0  0  0  0  0  0  0  0  0  0  0
  146.4634  138.3632  152.0713 C   0  0  0  0  0  0  0  0  0  0  0  0
  146.0454  137.0854  152.0604 N   0  0  0  0  0  0  0  0  0  0  0  0
  145.7481  136.2899  150.8716 C   0  0  0  0  0  0  0  0  0  0  0  0
  144.5303  135.3667  151.0687 C   0  0  0  0  0  0  0  0  0  0  0  0
  144.8355  133.8972  150.8359 C   0  0  0  0  0  0  0  0  0  0  0  0
  143.8012  132.9345  150.8307 C   0  0  0  0  0  0  0  0  0  0  0  0
  144.1173  131.5815  150.5885 C   0  0  0  0  0  0  0  0  0  0  0  0
  145.4610  131.2208  150.3590 C   0  0  0  0  0  0  0  0  0  0  0  0
  146.4236  132.1685  150.3753 N   0  3  0  0  0  0  0  0  0  0  0  0
  146.1622  133.4739  150.6039 C   0  0  0  0  0  0  0  0  0  0  0  0
  146.6579  138.8829  153.3091 N   0  0  0  0  0  0  0  0  0  0  0  0
  146.8594  138.1173  154.5461 C   0  0  0  0  0  0  0  0  0  0  0  0
  148.3512  138.1661  154.9251 C   0  0  0  0  0  0  0  0  0  0  0  0
  148.8446  139.5682  155.0540 N   0  3  0  0  0  0  0  0  0  0  0  0
  150.2930  139.6549  155.3982 C   0  0  1  0  0  0  0  0  0  0  0  0
  150.7637  138.6083  156.4377 C   0  0  0  0  0  0  0  0  0  0  0  0
  152.0205  138.0051  155.7818 C   0  0  1  0  0  0  0  0  0  0  0  0
  151.5822  137.0490  154.6594 C   0  0  0  0  0  0  0  0  0  0  0  0
  151.0532  138.0161  153.5857 C   0  0  0  0  0  0  0  0  0  0  0  0
  151.2754  139.4036  154.2268 C   0  0  2  0  0  0  0  0  0  0  0  0
  152.5780  139.1808  154.9880 C   0  0  0  0  0  0  0  0  0  0  0  0
  148.4924  140.4014  153.8680 C   0  0  0  0  0  0  0  0  0  0  0  0
  146.9975  140.2923  153.5166 C   0  0  0  0  0  0  0  0  0  0  0  0
  145.9339  136.6218  152.9506 H   0  0  0  0  0  0  0  0  0  0  0  0
  145.6021  136.9334  150.0023 H   0  0  0  0  0  0  0  0  0  0  0  0
  146.6269  135.6835  150.6520 H   0  0  0  0  0  0  0  0  0  0  0  0
  144.1491  135.4813  152.0840 H   0  0  0  0  0  0  0  0  0  0  0  0
  143.7212  135.6781  150.4066 H   0  0  0  0  0  0  0  0  0  0  0  0
  142.7756  133.2277  151.0019 H   0  0  0  0  0  0  0  0  0  0  0  0
  143.3400  130.8315  150.5771 H   0  0  0  0  0  0  0  0  0  0  0  0
  145.7924  130.2113  150.1647 H   0  0  0  0  0  0  0  0  0  0  0  0
  147.0152  134.1367  150.5843 H   0  0  0  0  0  0  0  0  0  0  0  0
  146.2589  138.5608  155.3418 H   0  0  0  0  0  0  0  0  0  0  0  0
  146.5320  137.0796  154.4828 H   0  0  0  0  0  0  0  0  0  0  0  0
  148.4862  137.6266  155.8619 H   0  0  0  0  0  0  0  0  0  0  0  0
  148.9416  137.6438  154.1707 H   0  0  0  0  0  0  0  0  0  0  0  0
  150.4830  140.6554  155.7919 H   0  0  0  0  0  0  0  0  0  0  0  0
  151.0078  139.0929  157.3839 H   0  0  0  0  0  0  0  0  0  0  0  0
  150.0230  137.8346  156.6430 H   0  0  0  0  0  0  0  0  0  0  0  0
  152.7144  137.5549  156.4923 H   0  0  0  0  0  0  0  0  0  0  0  0
  152.4319  136.4807  154.2786 H   0  0  0  0  0  0  0  0  0  0  0  0
  150.8254  136.3363  154.9892 H   0  0  0  0  0  0  0  0  0  0  0  0
  151.6363  137.9192  152.6689 H   0  0  0  0  0  0  0  0  0  0  0  0
  150.0104  137.8238  153.3329 H   0  0  0  0  0  0  0  0  0  0  0  0
  151.3200  140.2195  153.5047 H   0  0  0  0  0  0  0  0  0  0  0  0
  152.8679  140.0270  155.6135 H   0  0  0  0  0  0  0  0  0  0  0  0
  153.4162  138.9098  154.3434 H   0  0  0  0  0  0  0  0  0  0  0  0
  148.7378  141.4474  154.0489 H   0  0  0  0  0  0  0  0  0  0  0  0
  149.0923  140.0830  153.0137 H   0  0  0  0  0  0  0  0  0  0  0  0
  146.7706  140.9112  152.6472 H   0  0  0  0  0  0  0  0  0  0  0  0
  146.3907  140.6945  154.3292 H   0  0  0  0  0  0  0  0  0  0  0  0
  148.3436  139.9651  155.8363 H   0  0  0  0  0  0  0  0  0  0  0  0
  147.3894  131.8870  150.2051 H   0  0  0  0  0  0  0  0  0  0  0  0
  1  2  2  0  0  0  0
  2  3  1  0  0  0  0
  2 12  1  0  0  0  0
  3  4  1  0  0  0  0
  3 25  1  0  0  0  0
  4  5  1  0  0  0  0
  4 26  1  0  0  0  0
  4 27  1  0  0  0  0
  5  6  1  0  0  0  0
  5 28  1  0  0  0  0
  5 29  1  0  0  0  0
  6 11  1  0  0  0  0
  6  7  2  0  0  0  0
  7  8  1  0  0  0  0
  7 30  1  0  0  0  0
  8  9  2  0  0  0  0
  8 31  1  0  0  0  0
  9 10  1  0  0  0  0
  9 32  1  0  0  0  0
 10 11  2  0  0  0  0
 10 54  1  0  0  0  0
 11 33  1  0  0  0  0
 12 24  1  0  0  0  0
 12 13  1  0  0  0  0
 13 14  1  0  0  0  0
 13 34  1  0  0  0  0
 13 35  1  0  0  0  0
 14 15  1  0  0  0  0
 14 36  1  0  0  0  0
 14 37  1  0  0  0  0
 15 16  1  0  0  0  0
 15 23  1  0  0  0  0
 15 53  1  0  0  0  0
 16 21  1  0  0  0  0
 16 17  1  0  0  0  0
 16 38  1  0  0  0  0
 17 18  1  0  0  0  0
 17 39  1  0  0  0  0
 17 40  1  0  0  0  0
 18 22  1  0  0  0  0
 18 19  1  0  0  0  0
 18 41  1  0  0  0  0
 19 20  1  0  0  0  0
 19 42  1  0  0  0  0
 19 43  1  0  0  0  0
 20 21  1  0  0  0  0
 20 44  1  0  0  0  0
 20 45  1  0  0  0  0
 21 22  1  0  0  0  0
 21 46  1  0  0  0  0
 22 47  1  0  0  0  0
 22 48  1  0  0  0  0
 23 24  1  0  0  0  0
 23 49  1  0  0  0  0
 23 50  1  0  0  0  0
 24 51  1  0  0  0  0
 24 52  1  0  0  0  0
M  CHG  1  10   1
M  CHG  1  15   1
M  END
> <s_m_source_file>
AV-unprocessed.smi

> <i_m_source_file_index>
867

> <i_lp_mmshare_version>
43012

> <i_f3d_flags>
0

> <s_epik_input>
W0NIMl0xW0NIMl1bQ0BASF0oW0NIMl0yKVtDQEBIXShbQ0gyXVtDQEhdMTIpTihbQ0gyXVtDSDJdMylbQ0gyXVtDSDJdTjNDKD1PKVtOSF1bQ0gyXVtDSDJdYzRbY0hdW2NIXVtjSF1uW2NIXTQ=

> <s_epik_cmdline>
J2VwaWtfcHl0aG9uJywgJy1waCcsICc3LjAnLCAnLXRuJywgJzgnLCAnLW1hJywgJzIwMCcsICctbWV0YWxfYmluZGluZycsICctaW1hZScsICc8aW5maWxlLm1hZT4nLCAnLW9tYWUnLCAnPG91dGZpbGUubWFlPic=

> <r_epik_Ionization_Penalty>
2.25108

> <r_epik_Ionization_Penalty_Charging>
2.25105

> <r_epik_Ionization_Penalty_Neutral>
2.64641e-05

> <r_epik_State_Penalty>
2.39519

> <r_epik_Charging_Adjusted_Penalty>
4.64625

> <i_epik_Tot_Q>
2

> <i_epik_Tot_abs_Q>
2

> <r_epik_Metal_State_Penalty>
2.40865

> <b_epik_Metal_Only>
0

> <s_lp_Force_Field>
OPLS_2005

> <r_lp_Energy>
106.845

> <b_lp_Chiralities_Consistent>
1

> <s_lp_Variant>
AV-unprocessed.smi:867-8

> <Gold.Version>
5.8.1

> <Gold.Id.Protein>
6NUR|6NUR_protein|mol2

> <Gold.PLP.Fitness>
46.8032

> <Gold.PLP.PLP>
-43.0441

> <Gold.PLP.part.hbond>
-3.0000

> <Gold.PLP.part.metal>
0.0000

> <Gold.PLP.part.buried>
-2.8066

> <Gold.PLP.part.nonpolar>
-40.0095

> <Gold.PLP.part.repulsive>
1.5542

> <Gold.PLP.ligand.clash>
0.0000

> <Gold.PLP.ligand.torsion>
0.8691

> <Gold.PLP.Chemscore.Hbond>
1.7956

> <Gold.PLP.Chemscore.CHOScore>
0.0000

> <Gold.PLP.Chemscore.Metal>
0.0000

> <Gold.Chemscore.Hbonds>
donor molecule, donor type, donor heavy atom, donor atom, acceptor molecule, acceptor atom, score
      L1  H    10    54       P1 10747  1.00
      P1  H  7954  7966       L1     1  0.39

> <Gold.PLP.Chemscore.Internal.Correction>
0.1104

> <Gold.Rescore>
     Score         DG    S(hbond)    S(metal)    S(lipo)     H(rot)  DE(clash)    DE(int)     intcor
     19.25     -20.78       1.90        0.00     108.26       1.46       0.46       1.06       ----

> <Gold.Chemscore.Fitness>
19.2507

> <Gold.Chemscore.DG>
-20.7766

> <Gold.Chemscore.ZeroCoef>
-5.4800

> <Gold.Chemscore.Hbond>
1.9043

> <Gold.Chemscore.Metal>
0.0000

> <Gold.Chemscore.Lipo>
108.2645

> <Gold.Chemscore.Internal_Hbond>
0.0000

> <Gold.Chemscore.DEClash>
0.4624

> <Gold.Chemscore.DEInternal>
1.0635

> <Gold.Chemscore.Rot>
1.4572

> <Gold.Chemscore.Internal.Correction>
   9.000000E+99

> <Gold.Chemscore.Hbonds>
donor molecule, donor type, donor heavy atom, donor atom, acceptor molecule, acceptor atom, score
      L1  H    10    54       P1 10747  0.99
      P1  H  7954  7966       L1     1  0.17

> <Gold.Chemscore.Hbond.Weighted>
-6.3602

> <Gold.Chemscore.Metal.Weighted>
-0.0000

> <Gold.Chemscore.Lipo.Weighted>
-12.6669

> <Gold.Chemscore.Internal_Hbond.Weighted>
0.0000

> <Gold.Chemscore.DEClash.Weighted>
0.4624

> <Gold.Chemscore.DEInternal.Weighted>
1.0635

> <Gold.Chemscore.Rot.Weighted>
3.7305

> <Gold.Chemscore.Internal.Correction.Weighted>
   9.000000E+99

> <Gold.Protein.RotatedTorsions>
[ 6907 6896 6895 6894 ] final  -49.26 input  -60.11 | X-H torsion
[ 7974 7965 7964 7962 ] final  -56.48 input  175.53 | X-H torsion
[ 8008 7997 7996 7995 ] final  152.67 input   59.86 | X-H torsion
[ 10167 10162 10161 10158 ] final -162.35 input  -65.29 | X-H torsion
[ 10718 10713 10712 10709 ] final   24.85 input   66.30 | X-H torsion
[ 10763 10752 10751 10750 ] final  126.28 input  -60.55 | X-H torsion
[ 11005 11000 10999 10996 ] final -174.06 input  -57.11 | X-H torsion

> <Gold.Protein.ActiveResidues>
 VAL166  LYS551  ARG553  GLY616  TRP617  ASP618  TYR619  PRO620  LYS621  CYS622 
 ASP623  PHE694  ASN695  SER759  ASP760  ASP761  ALA762  ILE779  LEU786  VAL792 
 PHE793  MET794  SER795  GLU796  ALA797  LYS798  CYS799  TRP800  GLU811  SER814 

> <Gold.Protein.RotatedAtoms>
  150.8822  134.8215  159.7233 H   0  0  0  0  0  0  0  0  0  0  0  0  # atno 6907 bound_to 6896
  152.4785  134.4778  159.9666 H   0  0  0  0  0  0  0  0  0  0  0  0  # atno 6908 bound_to 6896
  151.4851  133.3499  159.2880 H   0  0  0  0  0  0  0  0  0  0  0  0  # atno 6909 bound_to 6896
  145.8621  140.8277  142.9931 H   0  0  0  0  0  0  0  0  0  0  0  0  # atno 7974 bound_to 7965
  156.2618  140.2014  156.6369 H   0  0  0  0  0  0  0  0  0  0  0  0  # atno 8008 bound_to 7997
  154.6639  140.0557  157.0117 H   0  0  0  0  0  0  0  0  0  0  0  0  # atno 8009 bound_to 7997
  155.1235  140.3227  155.4494 H   0  0  0  0  0  0  0  0  0  0  0  0  # atno 8010 bound_to 7997
  139.6398  144.0280  152.2083 H   0  0  0  0  0  0  0  0  0  0  0  0  # atno 10167 bound_to 10162
  157.1854  130.6822  149.6129 H   0  0  0  0  0  0  0  0  0  0  0  0  # atno 10718 bound_to 10713
  153.6908  135.3299  155.3201 H   0  0  0  0  0  0  0  0  0  0  0  0  # atno 10763 bound_to 10752
  154.8440  135.4431  154.1510 H   0  0  0  0  0  0  0  0  0  0  0  0  # atno 10764 bound_to 10752
  153.2551  135.6985  153.7715 H   0  0  0  0  0  0  0  0  0  0  0  0  # atno 10765 bound_to 10752
  140.4787  134.6096  157.4911 H   0  0  0  0  0  0  0  0  0  0  0  0  # atno 11005 bound_to 11000
  144.6726  140.1112  143.7455 LP  0  0  0  0  0  0  0  0  0  0  0  0  # atno 17320 bound_to 7965
  145.9235  139.2561  143.1367 LP  0  0  0  0  0  0  0  0  0  0  0  0  # atno 17321 bound_to 7965
  139.9967  144.6323  150.7766 LP  0  0  0  0  0  0  0  0  0  0  0  0  # atno 17342 bound_to 10162
  140.7485  143.2923  151.3297 LP  0  0  0  0  0  0  0  0  0  0  0  0  # atno 17343 bound_to 10162
  155.9718  130.4632  150.6175 LP  0  0  0  0  0  0  0  0  0  0  0  0  # atno 17370 bound_to 10713
  157.3912  131.0796  151.1392 LP  0  0  0  0  0  0  0  0  0  0  0  0  # atno 17371 bound_to 10713
  139.9840  134.7092  155.9808 LP  0  0  0  0  0  0  0  0  0  0  0  0  # atno 17394 bound_to 11000
  141.1541  133.6545  156.4107 LP  0  0  0  0  0  0  0  0  0  0  0  0  # atno 17395 bound_to 11000

$$$$
