AV-unprocessed.smi:2829|AV-procd|sdf|10900|dock4
  -GOLD-   2272015343D 1   1.00000     0.00000
 Structure written by MMmdl.
 50 53  0  0  0  0  0  0  0  0  1 V2000
  144.1808  131.6959  150.8969 C   0  0  0  0  0  0  0  0  0  0  0  0
  145.3225  132.6789  151.2292 C   0  0  0  0  0  0  0  0  0  0  0  0
  146.1711  132.1235  152.3920 C   0  0  0  0  0  0  0  0  0  0  0  0
  146.2371  132.7651  149.9863 C   0  0  0  0  0  0  0  0  0  0  0  0
  144.7329  134.0453  151.6225 C   0  0  0  0  0  0  0  0  0  0  0  0
  145.5141  135.2148  151.7602 C   0  0  0  0  0  0  0  0  0  0  0  0
  144.8556  136.4028  152.1197 C   0  0  0  0  0  0  0  0  0  0  0  0
  143.4616  136.3633  152.3218 C   0  0  0  0  0  0  0  0  0  0  0  0
  142.8643  137.6013  152.6713 N   0  0  0  0  0  0  0  0  0  0  0  0
  141.6484  137.8198  153.2095 C   0  0  0  0  0  0  0  0  0  0  0  0
  140.8766  136.9377  153.5808 O   0  0  0  0  0  0  0  0  0  0  0  0
  141.3268  139.1207  153.3210 N   0  0  0  0  0  0  0  0  0  0  0  0
  140.0894  139.6866  153.8603 C   0  0  2  0  0  0  0  0  0  0  0  0
  139.4007  140.6419  152.8671 C   0  0  1  0  0  0  0  0  0  0  0  0
  138.0389  140.3042  152.3223 C   0  0  0  0  0  0  0  0  0  0  0  0
  137.0999  141.1097  153.2248 C   0  0  0  0  0  0  0  0  0  0  0  0
  137.8516  141.3372  154.4146 O   0  0  0  0  0  0  0  0  0  0  0  0
  139.1945  141.6102  154.0262 C   0  0  1  0  0  0  0  0  0  0  0  0
  140.2802  140.8782  154.8245 C   0  0  0  0  0  0  0  0  0  0  0  0
  141.6417  141.5589  155.0640 C   0  0  0  0  0  0  0  0  0  0  0  0
  141.6711  140.9335  156.4609 C   0  0  0  0  0  0  0  0  0  0  0  0
  140.1615  140.7017  156.3451 C   0  0  0  0  0  0  0  0  0  0  0  0
  142.7734  135.2038  152.1740 N   0  0  0  0  0  0  0  0  0  0  0  0
  143.3938  134.0708  151.8320 N   0  0  0  0  0  0  0  0  0  0  0  0
  144.5691  130.7224  150.5961 H   0  0  0  0  0  0  0  0  0  0  0  0
  143.5623  132.0699  150.0801 H   0  0  0  0  0  0  0  0  0  0  0  0
  143.5271  131.5290  151.7539 H   0  0  0  0  0  0  0  0  0  0  0  0
  145.5739  131.9669  153.2909 H   0  0  0  0  0  0  0  0  0  0  0  0
  146.9816  132.8060  152.6511 H   0  0  0  0  0  0  0  0  0  0  0  0
  146.6195  131.1635  152.1342 H   0  0  0  0  0  0  0  0  0  0  0  0
  146.6437  131.7868  149.7266 H   0  0  0  0  0  0  0  0  0  0  0  0
  147.0866  133.4279  150.1558 H   0  0  0  0  0  0  0  0  0  0  0  0
  145.6958  133.1262  149.1111 H   0  0  0  0  0  0  0  0  0  0  0  0
  146.5809  135.2285  151.5997 H   0  0  0  0  0  0  0  0  0  0  0  0
  145.4111  137.3225  152.2331 H   0  0  0  0  0  0  0  0  0  0  0  0
  143.4001  138.4239  152.4367 H   0  0  0  0  0  0  0  0  0  0  0  0
  142.0168  139.7868  153.0042 H   0  0  0  0  0  0  0  0  0  0  0  0
  139.3880  138.9473  154.2529 H   0  0  0  0  0  0  0  0  0  0  0  0
  140.0952  141.0518  152.1311 H   0  0  0  0  0  0  0  0  0  0  0  0
  137.9247  140.5825  151.2743 H   0  0  0  0  0  0  0  0  0  0  0  0
  137.8380  139.2359  152.4086 H   0  0  0  0  0  0  0  0  0  0  0  0
  136.8607  142.0713  152.7681 H   0  0  0  0  0  0  0  0  0  0  0  0
  136.1654  140.5887  153.4334 H   0  0  0  0  0  0  0  0  0  0  0  0
  139.3889  142.6550  153.7796 H   0  0  0  0  0  0  0  0  0  0  0  0
  142.4567  141.2476  154.4109 H   0  0  0  0  0  0  0  0  0  0  0  0
  141.5635  142.6463  155.1027 H   0  0  0  0  0  0  0  0  0  0  0  0
  142.2429  140.0061  156.4981 H   0  0  0  0  0  0  0  0  0  0  0  0
  141.9645  141.6179  157.2571 H   0  0  0  0  0  0  0  0  0  0  0  0
  139.5773  141.4939  156.8157 H   0  0  0  0  0  0  0  0  0  0  0  0
  139.8307  139.7133  156.6653 H   0  0  0  0  0  0  0  0  0  0  0  0
  1  2  1  0  0  0  0
  1 25  1  0  0  0  0
  1 26  1  0  0  0  0
  1 27  1  0  0  0  0
  2  3  1  0  0  0  0
  2  4  1  0  0  0  0
  2  5  1  0  0  0  0
  3 28  1  0  0  0  0
  3 29  1  0  0  0  0
  3 30  1  0  0  0  0
  4 31  1  0  0  0  0
  4 32  1  0  0  0  0
  4 33  1  0  0  0  0
  5 24  1  0  0  0  0
  5  6  2  0  0  0  0
  6  7  1  0  0  0  0
  6 34  1  0  0  0  0
  7  8  2  0  0  0  0
  7 35  1  0  0  0  0
  8  9  1  0  0  0  0
  8 23  1  0  0  0  0
  9 10  1  0  0  0  0
  9 36  1  0  0  0  0
 10 11  2  0  0  0  0
 10 12  1  0  0  0  0
 12 13  1  0  0  0  0
 12 37  1  0  0  0  0
 13 19  1  0  0  0  0
 13 14  1  0  0  0  0
 13 38  1  0  0  0  0
 14 18  1  0  0  0  0
 14 15  1  0  0  0  0
 14 39  1  0  0  0  0
 15 16  1  0  0  0  0
 15 40  1  0  0  0  0
 15 41  1  0  0  0  0
 16 17  1  0  0  0  0
 16 42  1  0  0  0  0
 16 43  1  0  0  0  0
 17 18  1  0  0  0  0
 18 19  1  0  0  0  0
 18 44  1  0  0  0  0
 19 22  1  0  0  0  0
 19 20  1  0  0  0  0
 20 21  1  0  0  0  0
 20 45  1  0  0  0  0
 20 46  1  0  0  0  0
 21 22  1  0  0  0  0
 21 47  1  0  0  0  0
 21 48  1  0  0  0  0
 22 49  1  0  0  0  0
 22 50  1  0  0  0  0
 23 24  2  0  0  0  0
M  END
> <s_m_source_file>
AV-unprocessed.smi

> <i_m_source_file_index>
2829

> <i_lp_mmshare_version>
43012

> <i_f3d_flags>
0

> <s_epik_input>
W0NIM11DKFtDSDNdKShbQ0gzXSljMVtjSF1bY0hdYyhubjEpW05IXUMoPU8pW05IXVtDQEBIXTJbQ0BIXShbQ0gyXVtDSDJdTzMpW0NAQEhdM0MyNFtDSDJdW0NIMl1bQ0gyXTQ=

> <s_epik_cmdline>
J2VwaWtfcHl0aG9uJywgJy1waCcsICc3LjAnLCAnLXRuJywgJzgnLCAnLW1hJywgJzIwMCcsICctbWV0YWxfYmluZGluZycsICctaW1hZScsICc8aW5maWxlLm1hZT4nLCAnLW9tYWUnLCAnPG91dGZpbGUubWFlPic=

> <r_lp_tautomer_probability>
1

> <r_epik_Ionization_Penalty>
0.011915

> <r_epik_Ionization_Penalty_Charging>
0

> <r_epik_Ionization_Penalty_Neutral>
0.011915

> <r_epik_State_Penalty>
0.00486223

> <r_epik_Charging_Adjusted_Penalty>
0.00486223

> <i_epik_Tot_Q>
0

> <i_epik_Tot_abs_Q>
0

> <r_epik_Metal_State_Penalty>
-0

> <b_epik_Metal_Only>
0

> <s_lp_Force_Field>
OPLS_2005

> <r_lp_Energy>
59.5843

> <b_lp_Chiralities_Consistent>
1

> <s_lp_Variant>
AV-unprocessed.smi:2829-3

> <Gold.Version>
5.8.1

> <Gold.Id.Protein>
6NUR|6NUR_protein|mol2

> <Gold.PLP.Fitness>
35.6267

> <Gold.PLP.PLP>
-30.4136

> <Gold.PLP.part.hbond>
-2.1114

> <Gold.PLP.part.metal>
0.0000

> <Gold.PLP.part.buried>
-3.1368

> <Gold.PLP.part.nonpolar>
-26.1748

> <Gold.PLP.part.repulsive>
0.4753

> <Gold.PLP.ligand.clash>
0.0000

> <Gold.PLP.ligand.torsion>
0.4911

> <Gold.PLP.Chemscore.Hbond>
2.0000

> <Gold.PLP.Chemscore.CHOScore>
0.0000

> <Gold.PLP.Chemscore.Metal>
0.0000

> <Gold.Chemscore.Hbonds>
donor molecule, donor type, donor heavy atom, donor atom, acceptor molecule, acceptor atom, score
      L1  H     9    36       P1 10175  1.00
      L1  H    12    37       P1 10175  1.00

> <Gold.PLP.Chemscore.Internal.Correction>
0.1953

> <Gold.Rescore>
     Score         DG    S(hbond)    S(metal)    S(lipo)     H(rot)  DE(clash)    DE(int)     intcor
     15.37     -17.06       1.76        0.00      74.15       1.16       0.26       1.43       ----

> <Gold.Chemscore.Fitness>
15.3715

> <Gold.Chemscore.DG>
-17.0646

> <Gold.Chemscore.ZeroCoef>
-5.4800

> <Gold.Chemscore.Hbond>
1.7614

> <Gold.Chemscore.Metal>
0.0000

> <Gold.Chemscore.Lipo>
74.1501

> <Gold.Chemscore.Internal_Hbond>
0.0000

> <Gold.Chemscore.DEClash>
0.2594

> <Gold.Chemscore.DEInternal>
1.4336

> <Gold.Chemscore.Rot>
1.1618

> <Gold.Chemscore.Internal.Correction>
   9.000000E+99

> <Gold.Chemscore.Hbonds>
donor molecule, donor type, donor heavy atom, donor atom, acceptor molecule, acceptor atom, score
      L1  H     9    36       P1 10175  0.89
      L1  H    12    37       P1 10175  0.55

> <Gold.Chemscore.Hbond.Weighted>
-5.8831

> <Gold.Chemscore.Metal.Weighted>
-0.0000

> <Gold.Chemscore.Lipo.Weighted>
-8.6756

> <Gold.Chemscore.Internal_Hbond.Weighted>
0.0000

> <Gold.Chemscore.DEClash.Weighted>
0.2594

> <Gold.Chemscore.DEInternal.Weighted>
1.4336

> <Gold.Chemscore.Rot.Weighted>
2.9741

> <Gold.Chemscore.Internal.Correction.Weighted>
   9.000000E+99

> <Gold.Protein.RotatedTorsions>
[ 6907 6896 6895 6894 ] final  -40.45 input  -60.11 | X-H torsion
[ 7974 7965 7964 7962 ] final -127.46 input  175.53 | X-H torsion
[ 8008 7997 7996 7995 ] final -152.79 input   59.86 | X-H torsion
[ 10167 10162 10161 10158 ] final  101.60 input  -65.29 | X-H torsion
[ 10718 10713 10712 10709 ] final   76.14 input   66.30 | X-H torsion
[ 10763 10752 10751 10750 ] final  127.87 input  -60.55 | X-H torsion
[ 11005 11000 10999 10996 ] final  -14.34 input  -57.11 | X-H torsion

> <Gold.Protein.ActiveResidues>
 VAL166  LYS551  ARG553  GLY616  TRP617  ASP618  TYR619  PRO620  LYS621  CYS622 
 ASP623  PHE694  ASN695  SER759  ASP760  ASP761  ALA762  ILE779  LEU786  VAL792 
 PHE793  MET794  SER795  GLU796  ALA797  LYS798  CYS799  TRP800  GLU811  SER814 

> <Gold.Protein.RotatedAtoms>
  150.9783  134.9143  159.7828 H   0  0  0  0  0  0  0  0  0  0  0  0  # atno 6907 bound_to 6896
  152.5213  134.3445  159.9239 H   0  0  0  0  0  0  0  0  0  0  0  0  # atno 6908 bound_to 6896
  151.3453  133.3905  159.2709 H   0  0  0  0  0  0  0  0  0  0  0  0  # atno 6909 bound_to 6896
  144.9769  140.7601  143.4636 H   0  0  0  0  0  0  0  0  0  0  0  0  # atno 7974 bound_to 7965
  155.6607  140.0722  157.2555 H   0  0  0  0  0  0  0  0  0  0  0  0  # atno 8008 bound_to 7997
  154.4143  140.1717  156.1824 H   0  0  0  0  0  0  0  0  0  0  0  0  # atno 8009 bound_to 7997
  155.9700  140.3363  155.6570 H   0  0  0  0  0  0  0  0  0  0  0  0  # atno 8010 bound_to 7997
  139.7423  144.7008  151.0556 H   0  0  0  0  0  0  0  0  0  0  0  0  # atno 10167 bound_to 10162
  157.6662  130.9760  150.1454 H   0  0  0  0  0  0  0  0  0  0  0  0  # atno 10718 bound_to 10713
  153.7164  135.3260  155.3257 H   0  0  0  0  0  0  0  0  0  0  0  0  # atno 10763 bound_to 10752
  154.8369  135.4489  154.1262 H   0  0  0  0  0  0  0  0  0  0  0  0  # atno 10764 bound_to 10752
  153.2370  135.6966  153.7905 H   0  0  0  0  0  0  0  0  0  0  0  0  # atno 10765 bound_to 10752
  140.7854  133.8330  155.9330 H   0  0  0  0  0  0  0  0  0  0  0  0  # atno 11005 bound_to 11000
  145.2477  139.2045  143.4959 LP  0  0  0  0  0  0  0  0  0  0  0  0  # atno 17320 bound_to 7965
  146.3397  140.2385  142.8595 LP  0  0  0  0  0  0  0  0  0  0  0  0  # atno 17321 bound_to 7965
  140.7787  143.4909  150.9894 LP  0  0  0  0  0  0  0  0  0  0  0  0  # atno 17342 bound_to 10162
  139.8597  143.7330  152.3174 LP  0  0  0  0  0  0  0  0  0  0  0  0  # atno 17343 bound_to 10162
  156.2266  130.3678  149.8493 LP  0  0  0  0  0  0  0  0  0  0  0  0  # atno 17370 bound_to 10713
  156.6332  130.8674  151.3499 LP  0  0  0  0  0  0  0  0  0  0  0  0  # atno 17371 bound_to 10713
  140.9442  134.1862  157.4776 LP  0  0  0  0  0  0  0  0  0  0  0  0  # atno 17394 bound_to 11000
  139.8737  134.9884  156.5409 LP  0  0  0  0  0  0  0  0  0  0  0  0  # atno 17395 bound_to 11000

$$$$
