AV-unprocessed.smi:1744|AV-procd|sdf|7028|dock6
  -GOLD-   22720 8243D 1   1.00000     0.00000
 Structure written by MMmdl.
 43 44  0  0  0  0  0  0  0  0  3 V2000
  149.7385  141.7040  157.6681 C   0  0  0  0  0  0  0  0  0  0  0  0
  150.4282  141.8095  156.3024 C   0  0  0  0  0  0  0  0  0  0  0  0
  150.2836  140.5902  155.5313 N   0  0  0  0  0  0  0  0  0  0  0  0
  149.1211  139.9302  155.1855 C   0  0  0  0  0  0  0  0  0  0  0  0
  149.5117  138.8462  154.4581 C   0  0  0  0  0  0  0  0  0  0  0  0
  148.6314  137.8903  153.8923 N   0  0  0  0  0  0  0  0  0  0  0  0
  147.3430  137.6863  154.2113 C   0  0  0  0  0  0  0  0  0  0  0  0
  146.7088  138.3339  155.0438 O   0  0  0  0  0  0  0  0  0  0  0  0
  146.8184  136.6753  153.5036 N   0  0  0  0  0  0  0  0  0  0  0  0
  145.4406  136.1955  153.6117 C   0  0  2  0  0  0  0  0  0  0  0  0
  145.3812  134.6929  153.9509 C   0  0  0  0  0  0  0  0  0  0  0  0
  145.8361  133.8175  152.7702 C   0  0  0  0  0  0  0  0  0  0  0  0
  145.0404  134.1096  151.5473 N   0  3  2  0  0  0  0  0  0  0  0  0
  145.3524  133.2007  150.4162 C   0  0  0  0  0  0  0  0  0  0  0  0
  144.1268  133.0384  149.5108 C   0  0  0  0  0  0  0  0  0  0  0  0
  143.8377  134.1635  148.8299 N   0  5  0  0  0  0  0  0  0  0  0  0
  143.5441  131.9569  149.4650 O   0  0  0  0  0  0  0  0  0  0  0  0
  145.1349  135.5406  151.1617 C   0  0  0  0  0  0  0  0  0  0  0  0
  144.6718  136.4614  152.3060 C   0  0  0  0  0  0  0  0  0  0  0  0
  150.9331  138.9077  154.4020 C   0  0  0  0  0  0  0  0  0  0  0  0
  151.3890  139.9659  155.0551 N   0  0  0  0  0  0  0  0  0  0  0  0
  149.8586  142.6271  158.2353 H   0  0  0  0  0  0  0  0  0  0  0  0
  150.1603  140.8915  158.2606 H   0  0  0  0  0  0  0  0  0  0  0  0
  148.6696  141.5187  157.5579 H   0  0  0  0  0  0  0  0  0  0  0  0
  150.0110  142.6386  155.7295 H   0  0  0  0  0  0  0  0  0  0  0  0
  151.4909  142.0169  156.4323 H   0  0  0  0  0  0  0  0  0  0  0  0
  148.1433  140.2835  155.4781 H   0  0  0  0  0  0  0  0  0  0  0  0
  149.0269  137.2953  153.1793 H   0  0  0  0  0  0  0  0  0  0  0  0
  147.4144  136.2049  152.8384 H   0  0  0  0  0  0  0  0  0  0  0  0
  144.9521  136.7560  154.4111 H   0  0  0  0  0  0  0  0  0  0  0  0
  145.9825  134.4724  154.8335 H   0  0  0  0  0  0  0  0  0  0  0  0
  144.3564  134.4269  154.2135 H   0  0  0  0  0  0  0  0  0  0  0  0
  146.8954  133.9790  152.5655 H   0  0  0  0  0  0  0  0  0  0  0  0
  145.7291  132.7687  153.0484 H   0  0  0  0  0  0  0  0  0  0  0  0
  146.1425  133.6315  149.7995 H   0  0  0  0  0  0  0  0  0  0  0  0
  145.7344  132.2471  150.7875 H   0  0  0  0  0  0  0  0  0  0  0  0
  144.5933  134.6414  148.3243 H   0  0  0  0  0  0  0  0  0  0  0  0
  146.1617  135.7733  150.8761 H   0  0  0  0  0  0  0  0  0  0  0  0
  144.5143  135.7261  150.2842 H   0  0  0  0  0  0  0  0  0  0  0  0
  143.6069  136.3003  152.4806 H   0  0  0  0  0  0  0  0  0  0  0  0
  144.7744  137.5068  152.0122 H   0  0  0  0  0  0  0  0  0  0  0  0
  151.6395  138.2464  153.9232 H   0  0  0  0  0  0  0  0  0  0  0  0
  144.0718  133.9382  151.7776 H   0  0  0  0  0  0  0  0  0  0  0  0
  1  2  1  0  0  0  0
  1 22  1  0  0  0  0
  1 23  1  0  0  0  0
  1 24  1  0  0  0  0
  2  3  1  0  0  0  0
  2 25  1  0  0  0  0
  2 26  1  0  0  0  0
  3 21  1  0  0  0  0
  3  4  1  0  0  0  0
  4  5  2  0  0  0  0
  4 27  1  0  0  0  0
  5  6  1  0  0  0  0
  5 20  1  0  0  0  0
  6  7  1  0  0  0  0
  6 28  1  0  0  0  0
  7  8  2  0  0  0  0
  7  9  1  0  0  0  0
  9 10  1  0  0  0  0
  9 29  1  0  0  0  0
 10 19  1  0  0  0  0
 10 11  1  0  0  0  0
 10 30  1  0  0  0  0
 11 12  1  0  0  0  0
 11 31  1  0  0  0  0
 11 32  1  0  0  0  0
 12 13  1  0  0  0  0
 12 33  1  0  0  0  0
 12 34  1  0  0  0  0
 13 14  1  0  0  0  0
 13 18  1  0  0  0  0
 13 43  1  0  0  0  0
 14 15  1  0  0  0  0
 14 35  1  0  0  0  0
 14 36  1  0  0  0  0
 15 16  1  0  0  0  0
 15 17  2  0  0  0  0
 16 37  1  0  0  0  0
 18 19  1  0  0  0  0
 18 38  1  0  0  0  0
 18 39  1  0  0  0  0
 19 40  1  0  0  0  0
 19 41  1  0  0  0  0
 20 21  2  0  0  0  0
 20 42  1  0  0  0  0
M  CHG  1  13   1
M  CHG  1  16  -1
M  END
> <s_m_source_file>
AV-unprocessed.smi

> <i_m_source_file_index>
1744

> <i_lp_mmshare_version>
43012

> <i_f3d_flags>
0

> <s_epik_input>
W0NIM11bQ0gyXW4xW2NIXWMoW2NIXW4xKVtOSF1DKD1PKVtOSF1bQ0hdMltDSDJdW0NIMl1OKFtDSDJdW0NIMl0yKVtDSDJdQyg9TylbTkgyXQ==

> <s_epik_cmdline>
J2VwaWtfcHl0aG9uJywgJy1waCcsICc3LjAnLCAnLXRuJywgJzgnLCAnLW1hJywgJzIwMCcsICctbWV0YWxfYmluZGluZycsICctaW1hZScsICc8aW5maWxlLm1hZT4nLCAnLW9tYWUnLCAnPG91dGZpbGUubWFlPic=

> <r_lp_tautomer_probability>
1

> <r_epik_Ionization_Penalty>
5.72895

> <r_epik_Ionization_Penalty_Charging>
5.7288

> <r_epik_Ionization_Penalty_Neutral>
0.000148676

> <r_epik_State_Penalty>
6.54882

> <r_epik_Charging_Adjusted_Penalty>
12.2776

> <i_epik_Tot_Q>
0

> <i_epik_Tot_abs_Q>
2

> <r_epik_Metal_State_Penalty>
2.51309

> <b_epik_Metal_Only>
1

> <s_lp_Force_Field>
OPLS_2005

> <r_lp_Energy>
11.9421

> <b_lp_Chiralities_Consistent>
1

> <s_lp_Variant>
AV-unprocessed.smi:1744-5

> <Gold.Version>
5.8.1

> <Gold.Id.Protein>
6NUR|6NUR_protein|mol2

> <Gold.PLP.Fitness>
46.7751

> <Gold.PLP.PLP>
-33.8753

> <Gold.PLP.part.hbond>
-6.0000

> <Gold.PLP.part.metal>
0.0000

> <Gold.PLP.part.buried>
-6.5326

> <Gold.PLP.part.nonpolar>
-22.9253

> <Gold.PLP.part.repulsive>
0.3426

> <Gold.PLP.ligand.clash>
0.0000

> <Gold.PLP.ligand.torsion>
0.4691

> <Gold.PLP.Chemscore.Hbond>
4.6020

> <Gold.PLP.Chemscore.CHOScore>
0.0000

> <Gold.PLP.Chemscore.Metal>
0.0000

> <Gold.Chemscore.Hbonds>
donor molecule, donor type, donor heavy atom, donor atom, acceptor molecule, acceptor atom, score
      L1  H     6    28       P1  7948  1.00
      L1  H     9    29       P1  7948  0.96
      L1  H    16    37       P1  7921  1.00
      P1  H  7989  7998       L1    21  0.60
      P1  H 10785 10796       L1    17  0.98

> <Gold.PLP.Chemscore.Internal.Correction>
0.0321

> <Gold.Rescore>
     Score         DG    S(hbond)    S(metal)    S(lipo)     H(rot)  DE(clash)    DE(int)     intcor
     17.49     -19.44       3.83        0.00      57.64       2.18       0.05       1.90       ----

> <Gold.Chemscore.Fitness>
17.4865

> <Gold.Chemscore.DG>
-19.4379

> <Gold.Chemscore.ZeroCoef>
-5.4800

> <Gold.Chemscore.Hbond>
3.8332

> <Gold.Chemscore.Metal>
0.0000

> <Gold.Chemscore.Lipo>
57.6427

> <Gold.Chemscore.Internal_Hbond>
0.0000

> <Gold.Chemscore.DEClash>
0.0477

> <Gold.Chemscore.DEInternal>
1.9036

> <Gold.Chemscore.Rot>
2.1833

> <Gold.Chemscore.Internal.Correction>
   9.000000E+99

> <Gold.Chemscore.Hbonds>
donor molecule, donor type, donor heavy atom, donor atom, acceptor molecule, acceptor atom, score
      L1  H     6    28       P1  7948  0.98
      L1  H     9    29       P1  7948  0.92
      L1  H    16    37       P1  7921  0.99
      P1  H  7989  7998       L1    21  0.01
      P1  H 10785 10796       L1    17  0.91

> <Gold.Chemscore.Hbond.Weighted>
-12.8028

> <Gold.Chemscore.Metal.Weighted>
-0.0000

> <Gold.Chemscore.Lipo.Weighted>
-6.7442

> <Gold.Chemscore.Internal_Hbond.Weighted>
0.0000

> <Gold.Chemscore.DEClash.Weighted>
0.0477

> <Gold.Chemscore.DEInternal.Weighted>
1.9036

> <Gold.Chemscore.Rot.Weighted>
5.5892

> <Gold.Chemscore.Internal.Correction.Weighted>
   9.000000E+99

> <Gold.Protein.RotatedTorsions>
[ 6907 6896 6895 6894 ] final  155.94 input  -60.11 | X-H torsion
[ 7974 7965 7964 7962 ] final  -84.31 input  175.53 | X-H torsion
[ 8008 7997 7996 7995 ] final  121.45 input   59.86 | X-H torsion
[ 10167 10162 10161 10158 ] final   70.83 input  -65.29 | X-H torsion
[ 10718 10713 10712 10709 ] final  177.51 input   66.30 | X-H torsion
[ 10763 10752 10751 10750 ] final  120.22 input  -60.55 | X-H torsion
[ 11005 11000 10999 10996 ] final -127.77 input  -57.11 | X-H torsion

> <Gold.Protein.ActiveResidues>
 VAL166  LYS551  ARG553  GLY616  TRP617  ASP618  TYR619  PRO620  LYS621  CYS622 
 ASP623  PHE694  ASN695  SER759  ASP760  ASP761  ALA762  ILE779  LEU786  VAL792 
 PHE793  MET794  SER795  GLU796  ALA797  LYS798  CYS799  TRP800  GLU811  SER814 

> <Gold.Protein.RotatedAtoms>
  152.0369  133.3961  159.4320 H   0  0  0  0  0  0  0  0  0  0  0  0  # atno 6907 bound_to 6896
  150.6878  134.3458  159.4897 H   0  0  0  0  0  0  0  0  0  0  0  0  # atno 6908 bound_to 6896
  152.1252  134.9176  160.0612 H   0  0  0  0  0  0  0  0  0  0  0  0  # atno 6909 bound_to 6896
  145.5083  140.9542  143.1721 H   0  0  0  0  0  0  0  0  0  0  0  0  # atno 7974 bound_to 7965
  156.2687  140.2808  156.1310 H   0  0  0  0  0  0  0  0  0  0  0  0  # atno 8008 bound_to 7997
  155.1055  140.0390  157.2726 H   0  0  0  0  0  0  0  0  0  0  0  0  # atno 8009 bound_to 7997
  154.6783  140.2603  155.6941 H   0  0  0  0  0  0  0  0  0  0  0  0  # atno 8010 bound_to 7997
  140.0526  144.5299  150.7352 H   0  0  0  0  0  0  0  0  0  0  0  0  # atno 10167 bound_to 10162
  156.9043  130.9889  151.3031 H   0  0  0  0  0  0  0  0  0  0  0  0  # atno 10718 bound_to 10713
  153.5951  135.3458  155.2925 H   0  0  0  0  0  0  0  0  0  0  0  0  # atno 10763 bound_to 10752
  154.8646  135.4214  154.2474 H   0  0  0  0  0  0  0  0  0  0  0  0  # atno 10764 bound_to 10752
  153.3290  135.7043  153.7035 H   0  0  0  0  0  0  0  0  0  0  0  0  # atno 10765 bound_to 10752
  140.9572  134.0986  157.4005 H   0  0  0  0  0  0  0  0  0  0  0  0  # atno 11005 bound_to 11000
  144.7741  139.6668  143.7182 LP  0  0  0  0  0  0  0  0  0  0  0  0  # atno 17320 bound_to 7965
  146.2182  139.5588  142.9636 LP  0  0  0  0  0  0  0  0  0  0  0  0  # atno 17321 bound_to 7965
  140.7209  143.2588  151.4281 LP  0  0  0  0  0  0  0  0  0  0  0  0  # atno 17342 bound_to 10162
  139.5943  144.1431  152.2125 LP  0  0  0  0  0  0  0  0  0  0  0  0  # atno 17343 bound_to 10162
  157.6007  130.8510  149.8797 LP  0  0  0  0  0  0  0  0  0  0  0  0  # atno 17370 bound_to 10713
  156.0566  130.3707  150.1076 LP  0  0  0  0  0  0  0  0  0  0  0  0  # atno 17371 bound_to 10713
  139.8866  135.0082  156.6508 LP  0  0  0  0  0  0  0  0  0  0  0  0  # atno 17394 bound_to 11000
  140.7520  133.8889  155.8354 LP  0  0  0  0  0  0  0  0  0  0  0  0  # atno 17395 bound_to 11000

$$$$
