AV-unprocessed.smi:3140|AV-procd|sdf|11960|dock7
  -GOLD-   2272017363D 1   1.00000     0.00000
 Structure written by MMmdl.
 37 38  0  0  0  0  0  0  0  0  1 V2000
  151.3773  140.4802  155.8382 C   0  0  0  0  0  0  0  0  0  0  0  0
  151.0123  141.8065  156.5243 C   0  0  2  0  0  0  0  0  0  0  0  0
  151.2942  141.7909  158.0493 C   0  0  0  0  0  0  0  0  0  0  0  0
  151.5621  143.1034  158.6168 N   0  0  0  0  0  0  0  0  0  0  0  0
  151.4105  144.3414  158.0280 C   0  0  0  0  0  0  0  0  0  0  0  0
  151.7812  145.2789  158.9489 C   0  0  0  0  0  0  0  0  0  0  0  0
  152.1424  144.5081  160.0890 C   0  0  0  0  0  0  0  0  0  0  0  0
  152.0054  143.2081  159.8888 N   0  0  0  0  0  0  0  0  0  0  0  0
  149.6107  142.0807  156.2291 N   0  0  0  0  0  0  0  0  0  0  0  0
  148.7020  141.4646  157.1856 C   0  0  0  0  0  0  0  0  0  0  0  0
  147.5466  140.7811  156.4347 C   0  0  0  0  0  0  0  0  0  0  0  0
  146.8649  141.7047  155.5282 N   0  0  0  0  0  0  0  0  0  0  0  0
  145.5991  142.3117  155.9049 C   0  0  0  0  0  0  0  0  0  0  0  0
  145.2019  143.2045  154.7195 C   0  0  0  0  0  0  0  0  0  0  0  0
  146.3227  143.0695  153.6825 C   0  0  0  0  0  0  0  0  0  0  0  0
  147.2893  142.0857  154.3179 C   0  0  0  0  0  0  0  0  0  0  0  0
  148.3217  141.7138  153.7618 O   0  0  0  0  0  0  0  0  0  0  0  0
  152.4166  140.2139  156.0320 H   0  0  0  0  0  0  0  0  0  0  0  0
  151.2548  140.5516  154.7570 H   0  0  0  0  0  0  0  0  0  0  0  0
  150.7522  139.6565  156.1849 H   0  0  0  0  0  0  0  0  0  0  0  0
  151.6181  142.5896  156.0662 H   0  0  0  0  0  0  0  0  0  0  0  0
  150.4288  141.3772  158.5682 H   0  0  0  0  0  0  0  0  0  0  0  0
  152.1228  141.1272  158.2966 H   0  0  0  0  0  0  0  0  0  0  0  0
  151.0588  144.4499  157.0126 H   0  0  0  0  0  0  0  0  0  0  0  0
  151.7913  146.3519  158.8275 H   0  0  0  0  0  0  0  0  0  0  0  0
  152.4950  144.8520  161.0502 H   0  0  0  0  0  0  0  0  0  0  0  0
  149.4532  143.0783  156.2217 H   0  0  0  0  0  0  0  0  0  0  0  0
  149.2158  140.7388  157.8143 H   0  0  0  0  0  0  0  0  0  0  0  0
  148.3095  142.2384  157.8461 H   0  0  0  0  0  0  0  0  0  0  0  0
  147.9377  139.9463  155.8513 H   0  0  0  0  0  0  0  0  0  0  0  0
  146.8332  140.3495  157.1382 H   0  0  0  0  0  0  0  0  0  0  0  0
  144.8495  141.5418  156.0909 H   0  0  0  0  0  0  0  0  0  0  0  0
  145.7199  142.8984  156.8166 H   0  0  0  0  0  0  0  0  0  0  0  0
  144.2470  142.8864  154.2996 H   0  0  0  0  0  0  0  0  0  0  0  0
  145.0885  144.2417  155.0371 H   0  0  0  0  0  0  0  0  0  0  0  0
  145.9519  142.6807  152.7337 H   0  0  0  0  0  0  0  0  0  0  0  0
  146.8211  144.0224  153.5007 H   0  0  0  0  0  0  0  0  0  0  0  0
  1  2  1  0  0  0  0
  1 18  1  0  0  0  0
  1 19  1  0  0  0  0
  1 20  1  0  0  0  0
  2  3  1  0  0  0  0
  2  9  1  0  0  0  0
  2 21  1  0  0  0  0
  3  4  1  0  0  0  0
  3 22  1  0  0  0  0
  3 23  1  0  0  0  0
  4  8  1  0  0  0  0
  4  5  1  0  0  0  0
  5  6  2  0  0  0  0
  5 24  1  0  0  0  0
  6  7  1  0  0  0  0
  6 25  1  0  0  0  0
  7  8  2  0  0  0  0
  7 26  1  0  0  0  0
  9 10  1  0  0  0  0
  9 27  1  0  0  0  0
 10 11  1  0  0  0  0
 10 28  1  0  0  0  0
 10 29  1  0  0  0  0
 11 12  1  0  0  0  0
 11 30  1  0  0  0  0
 11 31  1  0  0  0  0
 12 16  1  0  0  0  0
 12 13  1  0  0  0  0
 13 14  1  0  0  0  0
 13 32  1  0  0  0  0
 13 33  1  0  0  0  0
 14 15  1  0  0  0  0
 14 34  1  0  0  0  0
 14 35  1  0  0  0  0
 15 16  1  0  0  0  0
 15 36  1  0  0  0  0
 15 37  1  0  0  0  0
 16 17  2  0  0  0  0
M  END
> <s_m_source_file>
AV-unprocessed.smi

> <i_m_source_file_index>
3140

> <i_lp_mmshare_version>
43012

> <i_f3d_flags>
0

> <s_epik_input>
bjFbY0hdW2NIXVtjSF1uMVtDSDJdW0NAQEhdKFtDSDNdKVtOSF1bQ0gyXVtDSDJdTjJbQ0gyXVtDSDJdW0NIMl1DMj1P

> <s_epik_cmdline>
J2VwaWtfcHl0aG9uJywgJy1waCcsICc3LjAnLCAnLXRuJywgJzgnLCAnLW1hJywgJzIwMCcsICctbWV0YWxfYmluZGluZycsICctaW1hZScsICc8aW5maWxlLm1hZT4nLCAnLW9tYWUnLCAnPG91dGZpbGUubWFlPic=

> <r_lp_tautomer_probability>
1

> <r_epik_Ionization_Penalty>
2.53587

> <r_epik_Ionization_Penalty_Charging>
0

> <r_epik_Ionization_Penalty_Neutral>
2.53587

> <r_epik_State_Penalty>
2.70334

> <r_epik_Charging_Adjusted_Penalty>
2.70334

> <i_epik_Tot_Q>
0

> <i_epik_Tot_abs_Q>
0

> <r_epik_Metal_State_Penalty>
2.7033

> <b_epik_Metal_Only>
0

> <s_lp_Force_Field>
OPLS_2005

> <r_lp_Energy>
23.3858

> <b_lp_Chiralities_Consistent>
1

> <s_lp_Variant>
AV-unprocessed.smi:3140-3

> <Gold.Version>
5.8.1

> <Gold.Id.Protein>
6NUR|6NUR_protein|mol2

> <Gold.PLP.Fitness>
43.9528

> <Gold.PLP.PLP>
-39.4648

> <Gold.PLP.part.hbond>
-2.0000

> <Gold.PLP.part.metal>
0.0000

> <Gold.PLP.part.buried>
-6.2963

> <Gold.PLP.part.nonpolar>
-31.3594

> <Gold.PLP.part.repulsive>
0.1663

> <Gold.PLP.ligand.clash>
0.0000

> <Gold.PLP.ligand.torsion>
1.2673

> <Gold.PLP.Chemscore.Hbond>
1.3185

> <Gold.PLP.Chemscore.CHOScore>
1.0000

> <Gold.PLP.Chemscore.Metal>
0.0000

> <Gold.Chemscore.Hbonds>
donor molecule, donor type, donor heavy atom, donor atom, acceptor molecule, acceptor atom, score
      L1  H     9    27       P1  8028  1.00
      P1  H  8011  8017       L1    17  0.38
      L1  C     5    24       P1  8028  0.98

> <Gold.PLP.Chemscore.Internal.Correction>
0.0672

> <Gold.Rescore>
     Score         DG    S(hbond)    S(metal)    S(lipo)     H(rot)  DE(clash)    DE(int)     intcor
     12.04     -13.75       1.28        0.00      77.38       1.97       0.43       1.28       ----

> <Gold.Chemscore.Fitness>
12.0406

> <Gold.Chemscore.DG>
-13.7545

> <Gold.Chemscore.ZeroCoef>
-5.4800

> <Gold.Chemscore.Hbond>
1.2784

> <Gold.Chemscore.Metal>
0.0000

> <Gold.Chemscore.Lipo>
77.3797

> <Gold.Chemscore.Internal_Hbond>
0.0000

> <Gold.Chemscore.DEClash>
0.4301

> <Gold.Chemscore.DEInternal>
1.2838

> <Gold.Chemscore.Rot>
1.9722

> <Gold.Chemscore.Internal.Correction>
   9.000000E+99

> <Gold.Chemscore.Hbonds>
donor molecule, donor type, donor heavy atom, donor atom, acceptor molecule, acceptor atom, score
      L1  H     9    27       P1  8028  1.00
      P1  H  8011  8017       L1    17  0.37

> <Gold.Chemscore.Hbond.Weighted>
-4.2698

> <Gold.Chemscore.Metal.Weighted>
-0.0000

> <Gold.Chemscore.Lipo.Weighted>
-9.0534

> <Gold.Chemscore.Internal_Hbond.Weighted>
0.0000

> <Gold.Chemscore.DEClash.Weighted>
0.4301

> <Gold.Chemscore.DEInternal.Weighted>
1.2838

> <Gold.Chemscore.Rot.Weighted>
5.0487

> <Gold.Chemscore.Internal.Correction.Weighted>
   9.000000E+99

> <Gold.Protein.RotatedTorsions>
[ 6907 6896 6895 6894 ] final  -67.79 input  -60.11 | X-H torsion
[ 7974 7965 7964 7962 ] final  -86.35 input  175.53 | X-H torsion
[ 8008 7997 7996 7995 ] final  -66.46 input   59.86 | X-H torsion
[ 10167 10162 10161 10158 ] final   69.75 input  -65.29 | X-H torsion
[ 10718 10713 10712 10709 ] final   81.22 input   66.30 | X-H torsion
[ 10763 10752 10751 10750 ] final  118.34 input  -60.55 | X-H torsion
[ 11005 11000 10999 10996 ] final   67.59 input  -57.11 | X-H torsion

> <Gold.Protein.ActiveResidues>
 VAL166  LYS551  ARG553  GLY616  TRP617  ASP618  TYR619  PRO620  LYS621  CYS622 
 ASP623  PHE694  ASN695  SER759  ASP760  ASP761  ALA762  ILE779  LEU786  VAL792 
 PHE793  MET794  SER795  GLU796  ALA797  LYS798  CYS799  TRP800  GLU811  SER814 

> <Gold.Protein.RotatedAtoms>
  150.7390  134.5830  159.5948 H   0  0  0  0  0  0  0  0  0  0  0  0  # atno 6907 bound_to 6896
  152.3239  134.7343  160.0316 H   0  0  0  0  0  0  0  0  0  0  0  0  # atno 6908 bound_to 6896
  151.7849  133.3317  159.3519 H   0  0  0  0  0  0  0  0  0  0  0  0  # atno 6909 bound_to 6896
  145.4811  140.9557  143.1864 H   0  0  0  0  0  0  0  0  0  0  0  0  # atno 7974 bound_to 7965
  154.4736  140.0912  156.7206 H   0  0  0  0  0  0  0  0  0  0  0  0  # atno 8008 bound_to 7997
  155.4657  140.3462  155.4300 H   0  0  0  0  0  0  0  0  0  0  0  0  # atno 8009 bound_to 7997
  156.1080  140.1440  156.9366 H   0  0  0  0  0  0  0  0  0  0  0  0  # atno 8010 bound_to 7997
  140.0644  144.5206  150.7271 H   0  0  0  0  0  0  0  0  0  0  0  0  # atno 10167 bound_to 10162
  157.6827  130.9994  150.2195 H   0  0  0  0  0  0  0  0  0  0  0  0  # atno 10718 bound_to 10713
  153.5661  135.3511  155.2819 H   0  0  0  0  0  0  0  0  0  0  0  0  # atno 10763 bound_to 10752
  154.8688  135.4148  154.2777 H   0  0  0  0  0  0  0  0  0  0  0  0  # atno 10764 bound_to 10752
  153.3533  135.7056  153.6840 H   0  0  0  0  0  0  0  0  0  0  0  0  # atno 10765 bound_to 10752
  139.9762  134.6819  156.0350 H   0  0  0  0  0  0  0  0  0  0  0  0  # atno 11005 bound_to 11000
  144.7888  139.6370  143.7122 LP  0  0  0  0  0  0  0  0  0  0  0  0  # atno 17320 bound_to 7965
  146.2340  139.5870  142.9536 LP  0  0  0  0  0  0  0  0  0  0  0  0  # atno 17321 bound_to 7965
  140.7156  143.2542  151.4444 LP  0  0  0  0  0  0  0  0  0  0  0  0  # atno 17342 bound_to 10162
  139.5874  144.1574  152.2046 LP  0  0  0  0  0  0  0  0  0  0  0  0  # atno 17343 bound_to 10162
  156.2849  130.3738  149.7898 LP  0  0  0  0  0  0  0  0  0  0  0  0  # atno 17370 bound_to 10713
  156.5575  130.8369  151.3318 LP  0  0  0  0  0  0  0  0  0  0  0  0  # atno 17371 bound_to 10713
  141.1438  133.6559  156.3808 LP  0  0  0  0  0  0  0  0  0  0  0  0  # atno 17394 bound_to 11000
  140.5191  134.6322  157.5312 LP  0  0  0  0  0  0  0  0  0  0  0  0  # atno 17395 bound_to 11000

$$$$
