AV-unprocessed.smi:2855|AV-procd|sdf|10984|dock1
  -GOLD-   2272015433D 1   1.00000     0.00000
 Structure written by MMmdl.
 47 48  0  0  0  0  0  0  0  0  1 V2000
  152.9542  139.6296  158.6476 C   0  0  0  0  0  0  0  0  0  0  0  0
  151.7137  139.5036  157.7520 C   0  0  1  0  0  0  0  0  0  0  0  0
  150.9711  140.8426  157.6252 C   0  0  0  0  0  0  0  0  0  0  0  0
  149.7313  140.7231  156.7253 C   0  0  0  0  0  0  0  0  0  0  0  0
  150.0700  140.1908  155.3093 C   0  0  2  0  0  0  0  0  0  0  0  0
  148.8047  140.1000  154.3992 C   0  0  0  0  0  0  0  0  0  0  0  0
  148.3786  141.4648  153.8244 C   0  0  0  0  0  0  0  0  0  0  0  0
  147.6003  139.4687  155.1235 C   0  0  0  0  0  0  0  0  0  0  0  0
  150.8571  138.8535  155.4236 C   0  0  2  0  0  0  0  0  0  0  0  0
  149.9681  137.7771  155.8532 N   0  0  0  0  0  0  0  0  0  0  0  0
  150.1186  136.4661  155.6057 C   0  0  0  0  0  0  0  0  0  0  0  0
  151.0995  136.0010  155.0268 O   0  0  0  0  0  0  0  0  0  0  0  0
  148.9869  135.5261  156.0548 C   0  0  0  0  0  0  0  0  0  0  0  0
  149.1290  134.1417  155.5710 N   0  0  0  0  0  0  0  0  0  0  0  0
  148.8809  133.8341  154.2407 C   0  0  0  0  0  0  0  0  0  0  0  0
  149.0326  132.5924  153.7222 C   0  0  0  0  0  0  0  0  0  0  0  0
  149.4775  131.4882  154.5660 C   0  0  0  0  0  0  0  0  0  0  0  0
  149.6477  130.3311  154.1889 O   0  0  0  0  0  0  0  0  0  0  0  0
  149.7141  131.8371  155.8982 N   0  0  0  0  0  0  0  0  0  0  0  0
  149.5603  133.1141  156.4390 C   0  0  0  0  0  0  0  0  0  0  0  0
  149.8105  133.3160  157.6265 O   0  0  0  0  0  0  0  0  0  0  0  0
  152.0826  138.9783  156.3540 C   0  0  0  0  0  0  0  0  0  0  0  0
  150.0249  131.1054  156.5206 H   0  0  0  0  0  0  0  0  0  0  0  0
  153.6747  140.3338  158.2304 H   0  0  0  0  0  0  0  0  0  0  0  0
  153.4555  138.6678  158.7598 H   0  0  0  0  0  0  0  0  0  0  0  0
  152.6852  139.9787  159.6449 H   0  0  0  0  0  0  0  0  0  0  0  0
  151.0416  138.7853  158.2239 H   0  0  0  0  0  0  0  0  0  0  0  0
  150.6705  141.1952  158.6123 H   0  0  0  0  0  0  0  0  0  0  0  0
  151.6420  141.6011  157.2194 H   0  0  0  0  0  0  0  0  0  0  0  0
  148.9977  140.0709  157.2010 H   0  0  0  0  0  0  0  0  0  0  0  0
  149.2707  141.7078  156.6673 H   0  0  0  0  0  0  0  0  0  0  0  0
  150.7459  140.9132  154.8487 H   0  0  0  0  0  0  0  0  0  0  0  0
  149.0354  139.4549  153.5506 H   0  0  0  0  0  0  0  0  0  0  0  0
  148.2117  142.1949  154.6167 H   0  0  0  0  0  0  0  0  0  0  0  0
  147.4541  141.3791  153.2527 H   0  0  0  0  0  0  0  0  0  0  0  0
  149.1246  141.8705  153.1416 H   0  0  0  0  0  0  0  0  0  0  0  0
  147.3638  140.0055  156.0427 H   0  0  0  0  0  0  0  0  0  0  0  0
  147.7758  138.4241  155.3772 H   0  0  0  0  0  0  0  0  0  0  0  0
  146.7103  139.4864  154.4937 H   0  0  0  0  0  0  0  0  0  0  0  0
  151.2412  138.5958  154.4359 H   0  0  0  0  0  0  0  0  0  0  0  0
  149.1292  138.0607  156.3380 H   0  0  0  0  0  0  0  0  0  0  0  0
  148.9245  135.5412  157.1447 H   0  0  0  0  0  0  0  0  0  0  0  0
  148.0427  135.9491  155.7088 H   0  0  0  0  0  0  0  0  0  0  0  0
  148.5564  134.6227  153.5768 H   0  0  0  0  0  0  0  0  0  0  0  0
  148.8266  132.4157  152.6766 H   0  0  0  0  0  0  0  0  0  0  0  0
  152.8040  139.6563  155.8955 H   0  0  0  0  0  0  0  0  0  0  0  0
  152.5907  138.0169  156.4388 H   0  0  0  0  0  0  0  0  0  0  0  0
  1  2  1  0  0  0  0
  1 24  1  0  0  0  0
  1 25  1  0  0  0  0
  1 26  1  0  0  0  0
  2 22  1  0  0  0  0
  2  3  1  0  0  0  0
  2 27  1  0  0  0  0
  3  4  1  0  0  0  0
  3 28  1  0  0  0  0
  3 29  1  0  0  0  0
  4  5  1  0  0  0  0
  4 30  1  0  0  0  0
  4 31  1  0  0  0  0
  5  6  1  0  0  0  0
  5  9  1  0  0  0  0
  5 32  1  0  0  0  0
  6  7  1  0  0  0  0
  6  8  1  0  0  0  0
  6 33  1  0  0  0  0
  7 34  1  0  0  0  0
  7 35  1  0  0  0  0
  7 36  1  0  0  0  0
  8 37  1  0  0  0  0
  8 38  1  0  0  0  0
  8 39  1  0  0  0  0
  9 10  1  0  0  0  0
  9 22  1  0  0  0  0
  9 40  1  0  0  0  0
 10 11  1  0  0  0  0
 10 41  1  0  0  0  0
 11 12  2  0  0  0  0
 11 13  1  0  0  0  0
 13 14  1  0  0  0  0
 13 42  1  0  0  0  0
 13 43  1  0  0  0  0
 14 20  1  0  0  0  0
 14 15  1  0  0  0  0
 15 16  2  0  0  0  0
 15 44  1  0  0  0  0
 16 17  1  0  0  0  0
 16 45  1  0  0  0  0
 17 18  2  0  0  0  0
 17 19  1  0  0  0  0
 19 23  1  0  0  0  0
 19 20  1  0  0  0  0
 20 21  2  0  0  0  0
 22 46  1  0  0  0  0
 22 47  1  0  0  0  0
M  END
> <s_m_source_file>
AV-unprocessed.smi

> <i_m_source_file_index>
2855

> <i_lp_mmshare_version>
43012

> <i_f3d_flags>
0

> <s_epik_input>
W0NIM11bQ0BASF0xW0NIMl1bQ0gyXVtDQEBIXShbQ0hdKFtDSDNdKVtDSDNdKVtDQEhdKFtDSDJdMSlbTkhdQyg9TylbQ0gyXW4yW2NIXVtjSF1jKD1PKVtuSF1jMj1P

> <s_epik_cmdline>
J2VwaWtfcHl0aG9uJywgJy1waCcsICc3LjAnLCAnLXRuJywgJzgnLCAnLW1hJywgJzIwMCcsICctbWV0YWxfYmluZGluZycsICctaW1hZScsICc8aW5maWxlLm1hZT4nLCAnLW9tYWUnLCAnPG91dGZpbGUubWFlPic=

> <r_lp_tautomer_probability>
0.999537

> <r_epik_Ionization_Penalty>
0.00306256

> <r_epik_Ionization_Penalty_Charging>
0.00306254

> <r_epik_Ionization_Penalty_Neutral>
2.0223e-08

> <r_epik_State_Penalty>
0.0021533

> <r_epik_Charging_Adjusted_Penalty>
0.00521583

> <i_epik_Tot_Q>
0

> <i_epik_Tot_abs_Q>
0

> <r_epik_Metal_State_Penalty>
0.362116

> <b_epik_Metal_Only>
0

> <s_lp_Force_Field>
OPLS_2005

> <r_lp_Energy>
12.2647

> <b_lp_Chiralities_Consistent>
1

> <s_lp_Variant>
AV-unprocessed.smi:2855-8

> <Gold.Version>
5.8.1

> <Gold.Id.Protein>
6NUR|6NUR_protein|mol2

> <Gold.PLP.Fitness>
39.4371

> <Gold.PLP.PLP>
-32.2605

> <Gold.PLP.part.hbond>
-2.0000

> <Gold.PLP.part.metal>
0.0000

> <Gold.PLP.part.buried>
-3.0818

> <Gold.PLP.part.nonpolar>
-27.4790

> <Gold.PLP.part.repulsive>
0.2349

> <Gold.PLP.ligand.clash>
0.0000

> <Gold.PLP.ligand.torsion>
0.9376

> <Gold.PLP.Chemscore.Hbond>
2.0000

> <Gold.PLP.Chemscore.CHOScore>
1.0000

> <Gold.PLP.Chemscore.Metal>
0.0000

> <Gold.Chemscore.Hbonds>
donor molecule, donor type, donor heavy atom, donor atom, acceptor molecule, acceptor atom, score
      P1  H  6896  6909       L1    21  1.00
      P1  H 10752 10764       L1    12  1.00
      L1  C    15    44       P1  7948  1.00

> <Gold.PLP.Chemscore.Internal.Correction>
0.0518

> <Gold.Rescore>
     Score         DG    S(hbond)    S(metal)    S(lipo)     H(rot)  DE(clash)    DE(int)     intcor
     14.49     -15.59       1.97        0.00      70.86       1.85       0.03       1.07       ----

> <Gold.Chemscore.Fitness>
14.4924

> <Gold.Chemscore.DG>
-15.5892

> <Gold.Chemscore.ZeroCoef>
-5.4800

> <Gold.Chemscore.Hbond>
1.9655

> <Gold.Chemscore.Metal>
0.0000

> <Gold.Chemscore.Lipo>
70.8570

> <Gold.Chemscore.Internal_Hbond>
0.0000

> <Gold.Chemscore.DEClash>
0.0284

> <Gold.Chemscore.DEInternal>
1.0684

> <Gold.Chemscore.Rot>
1.8539

> <Gold.Chemscore.Internal.Correction>
   9.000000E+99

> <Gold.Chemscore.Hbonds>
donor molecule, donor type, donor heavy atom, donor atom, acceptor molecule, acceptor atom, score
      P1  H  6896  6909       L1    21  0.98
      P1  H 10752 10764       L1    12  0.99

> <Gold.Chemscore.Hbond.Weighted>
-6.5649

> <Gold.Chemscore.Metal.Weighted>
-0.0000

> <Gold.Chemscore.Lipo.Weighted>
-8.2903

> <Gold.Chemscore.Internal_Hbond.Weighted>
0.0000

> <Gold.Chemscore.DEClash.Weighted>
0.0284

> <Gold.Chemscore.DEInternal.Weighted>
1.0684

> <Gold.Chemscore.Rot.Weighted>
4.7460

> <Gold.Chemscore.Internal.Correction.Weighted>
   9.000000E+99

> <Gold.Protein.RotatedTorsions>
[ 6907 6896 6895 6894 ] final  -12.00 input  -60.11 | X-H torsion
[ 7974 7965 7964 7962 ] final   52.73 input  175.53 | X-H torsion
[ 8008 7997 7996 7995 ] final  144.14 input   59.86 | X-H torsion
[ 10167 10162 10161 10158 ] final  -31.09 input  -65.29 | X-H torsion
[ 10718 10713 10712 10709 ] final  105.47 input   66.30 | X-H torsion
[ 10763 10752 10751 10750 ] final  -53.14 input  -60.55 | X-H torsion
[ 11005 11000 10999 10996 ] final  -28.69 input  -57.11 | X-H torsion

> <Gold.Protein.ActiveResidues>
 VAL166  LYS551  ARG553  GLY616  TRP617  ASP618  TYR619  PRO620  LYS621  CYS622 
 ASP623  PHE694  ASN695  SER759  ASP760  ASP761  ALA762  ILE779  LEU786  VAL792 
 PHE793  MET794  SER795  GLU796  ALA797  LYS798  CYS799  TRP800  GLU811  SER814 

> <Gold.Protein.RotatedAtoms>
  151.3774  135.0933  159.9484 H   0  0  0  0  0  0  0  0  0  0  0  0  # atno 6907 bound_to 6896
  152.5118  133.9106  159.7496 H   0  0  0  0  0  0  0  0  0  0  0  0  # atno 6908 bound_to 6896
  150.9532  133.6471  159.2797 H   0  0  0  0  0  0  0  0  0  0  0  0  # atno 6909 bound_to 6896
  145.9783  139.4217  143.0147 H   0  0  0  0  0  0  0  0  0  0  0  0  # atno 7974 bound_to 7965
  156.2915  140.2244  156.5004 H   0  0  0  0  0  0  0  0  0  0  0  0  # atno 8008 bound_to 7997
  154.7694  140.0467  157.1060 H   0  0  0  0  0  0  0  0  0  0  0  0  # atno 8009 bound_to 7997
  154.9892  140.3088  155.4916 H   0  0  0  0  0  0  0  0  0  0  0  0  # atno 8010 bound_to 7997
  140.7241  143.3798  151.1622 H   0  0  0  0  0  0  0  0  0  0  0  0  # atno 10167 bound_to 10162
  157.6704  131.0828  150.5862 H   0  0  0  0  0  0  0  0  0  0  0  0  # atno 10718 bound_to 10713
  154.1540  135.6485  153.4970 H   0  0  0  0  0  0  0  0  0  0  0  0  # atno 10763 bound_to 10752
  153.0129  135.5345  154.6779 H   0  0  0  0  0  0  0  0  0  0  0  0  # atno 10764 bound_to 10752
  154.6074  135.2950  155.0441 H   0  0  0  0  0  0  0  0  0  0  0  0  # atno 10765 bound_to 10752
  140.9230  133.7386  156.0829 H   0  0  0  0  0  0  0  0  0  0  0  0  # atno 11005 bound_to 11000
  145.7806  140.9858  143.1101 LP  0  0  0  0  0  0  0  0  0  0  0  0  # atno 17320 bound_to 7965
  144.6854  139.9560  143.7479 LP  0  0  0  0  0  0  0  0  0  0  0  0  # atno 17321 bound_to 7965
  139.7384  143.8962  152.3042 LP  0  0  0  0  0  0  0  0  0  0  0  0  # atno 17342 bound_to 10162
  139.8775  144.7035  150.8916 LP  0  0  0  0  0  0  0  0  0  0  0  0  # atno 17343 bound_to 10162
  156.6163  130.4393  149.5839 LP  0  0  0  0  0  0  0  0  0  0  0  0  # atno 17370 bound_to 10713
  156.2391  130.6840  151.1538 LP  0  0  0  0  0  0  0  0  0  0  0  0  # atno 17371 bound_to 10713
  140.7962  134.3561  157.5451 LP  0  0  0  0  0  0  0  0  0  0  0  0  # atno 17394 bound_to 11000
  139.8779  134.9170  156.3169 LP  0  0  0  0  0  0  0  0  0  0  0  0  # atno 17395 bound_to 11000

$$$$
