AV-unprocessed.smi:2147|AV-procd|sdf|8742|dock10
  -GOLD-   2272011513D 1   1.00000     0.00000
 Structure written by MMmdl.
 41 43  0  0  0  0  0  0  0  0  1 V2000
  142.8779  146.1009  154.8298 C   0  0  0  0  0  0  0  0  0  0  0  0
  143.9395  145.5872  153.8586 C   0  0  0  0  0  0  0  0  0  0  0  0
  144.1197  146.1956  152.8042 O   0  0  0  0  0  0  0  0  0  0  0  0
  144.7036  144.3670  154.2451 C   0  0  0  0  0  0  0  0  0  0  0  0
  145.6648  143.7848  153.3867 C   0  0  0  0  0  0  0  0  0  0  0  0
  146.3716  142.6332  153.7834 C   0  0  0  0  0  0  0  0  0  0  0  0
  146.1392  142.0365  155.0382 C   0  0  0  0  0  0  0  0  0  0  0  0
  146.8777  140.9141  155.3460 O   0  0  0  0  0  0  0  0  0  0  0  0
  148.1509  140.7586  154.7326 C   0  0  0  0  0  0  0  0  0  0  0  0
  149.2272  141.3621  155.6466 C   0  0  2  0  0  0  0  0  0  0  0  0
  149.6517  142.5870  155.0822 O   0  0  0  0  0  0  0  0  0  0  0  0
  150.4355  140.4230  155.8309 C   0  0  0  0  0  0  0  0  0  0  0  0
  151.0582  140.5649  157.1352 N   0  0  0  0  0  0  0  0  0  0  0  0
  151.3199  139.5824  158.0186 C   0  0  0  0  0  0  0  0  0  0  0  0
  151.9019  139.9305  159.1626 N   0  0  0  0  0  0  0  0  0  0  0  0
  152.0357  141.2992  159.0030 C   0  0  0  0  0  0  0  0  0  0  0  0
  152.5841  142.2743  159.8666 C   0  0  0  0  0  0  0  0  0  0  0  0
  152.6116  143.6321  159.4851 C   0  0  0  0  0  0  0  0  0  0  0  0
  152.0909  144.0354  158.2384 C   0  0  0  0  0  0  0  0  0  0  0  0
  151.5394  143.0822  157.3610 C   0  0  0  0  0  0  0  0  0  0  0  0
  151.5161  141.7282  157.7443 C   0  0  0  0  0  0  0  0  0  0  0  0
  145.1745  142.6169  155.8976 C   0  0  0  0  0  0  0  0  0  0  0  0
  144.4673  143.7690  155.5032 C   0  0  0  0  0  0  0  0  0  0  0  0
  142.1091  145.3451  154.9912 H   0  0  0  0  0  0  0  0  0  0  0  0
  142.3977  146.9953  154.4318 H   0  0  0  0  0  0  0  0  0  0  0  0
  143.3281  146.3553  155.7894 H   0  0  0  0  0  0  0  0  0  0  0  0
  145.8790  144.2057  152.4158 H   0  0  0  0  0  0  0  0  0  0  0  0
  147.1029  142.2029  153.1151 H   0  0  0  0  0  0  0  0  0  0  0  0
  148.3668  139.7046  154.5494 H   0  0  0  0  0  0  0  0  0  0  0  0
  148.1529  141.2769  153.7718 H   0  0  0  0  0  0  0  0  0  0  0  0
  148.7852  141.5843  156.6187 H   0  0  0  0  0  0  0  0  0  0  0  0
  149.2131  143.2925  155.5333 H   0  0  0  0  0  0  0  0  0  0  0  0
  150.1267  139.3835  155.7139 H   0  0  0  0  0  0  0  0  0  0  0  0
  151.1872  140.6106  155.0631 H   0  0  0  0  0  0  0  0  0  0  0  0
  151.0681  138.5527  157.8096 H   0  0  0  0  0  0  0  0  0  0  0  0
  152.9849  141.9772  160.8245 H   0  0  0  0  0  0  0  0  0  0  0  0
  153.0341  144.3682  160.1532 H   0  0  0  0  0  0  0  0  0  0  0  0
  152.1149  145.0778  157.9558 H   0  0  0  0  0  0  0  0  0  0  0  0
  151.1378  143.3878  156.4061 H   0  0  0  0  0  0  0  0  0  0  0  0
  144.9563  142.1976  156.8680 H   0  0  0  0  0  0  0  0  0  0  0  0
  143.7394  144.1883  156.1829 H   0  0  0  0  0  0  0  0  0  0  0  0
  1  2  1  0  0  0  0
  1 24  1  0  0  0  0
  1 25  1  0  0  0  0
  1 26  1  0  0  0  0
  2  3  2  0  0  0  0
  2  4  1  0  0  0  0
  4 23  1  0  0  0  0
  4  5  2  0  0  0  0
  5  6  1  0  0  0  0
  5 27  1  0  0  0  0
  6  7  2  0  0  0  0
  6 28  1  0  0  0  0
  7  8  1  0  0  0  0
  7 22  1  0  0  0  0
  8  9  1  0  0  0  0
  9 10  1  0  0  0  0
  9 29  1  0  0  0  0
  9 30  1  0  0  0  0
 10 11  1  0  0  0  0
 10 12  1  0  0  0  0
 10 31  1  0  0  0  0
 11 32  1  0  0  0  0
 12 13  1  0  0  0  0
 12 33  1  0  0  0  0
 12 34  1  0  0  0  0
 13 21  1  0  0  0  0
 13 14  1  0  0  0  0
 14 15  2  0  0  0  0
 14 35  1  0  0  0  0
 15 16  1  0  0  0  0
 16 21  2  0  0  0  0
 16 17  1  0  0  0  0
 17 18  2  0  0  0  0
 17 36  1  0  0  0  0
 18 19  1  0  0  0  0
 18 37  1  0  0  0  0
 19 20  2  0  0  0  0
 19 38  1  0  0  0  0
 20 21  1  0  0  0  0
 20 39  1  0  0  0  0
 22 23  2  0  0  0  0
 22 40  1  0  0  0  0
 23 41  1  0  0  0  0
M  END
> <s_m_source_file>
AV-unprocessed.smi

> <i_m_source_file_index>
2147

> <i_lp_mmshare_version>
43012

> <i_f3d_flags>
0

> <s_epik_input>
W0NIM11DKD1PKWMxW2NIXVtjSF1jKFtjSF1bY0hdMSlPW0NIMl1bQ0BIXShbT0hdKVtDSDJdbihbY0hdbjIpYyhjMjMpW2NIXVtjSF1bY0hdW2NIXTM=

> <s_epik_cmdline>
J2VwaWtfcHl0aG9uJywgJy1waCcsICc3LjAnLCAnLXRuJywgJzgnLCAnLW1hJywgJzIwMCcsICctbWV0YWxfYmluZGluZycsICctaW1hZScsICc8aW5maWxlLm1hZT4nLCAnLW9tYWUnLCAnPG91dGZpbGUubWFlPic=

> <r_lp_tautomer_probability>
0.99995

> <r_epik_Ionization_Penalty>
0.0583018

> <r_epik_Ionization_Penalty_Charging>
0

> <r_epik_Ionization_Penalty_Neutral>
0.0583018

> <r_epik_State_Penalty>
0.0504087

> <r_epik_Charging_Adjusted_Penalty>
0.0504087

> <i_epik_Tot_Q>
0

> <i_epik_Tot_abs_Q>
0

> <r_epik_Metal_State_Penalty>
5.26129e-05

> <b_epik_Metal_Only>
0

> <s_lp_Force_Field>
OPLS_2005

> <r_lp_Energy>
19.9149

> <b_lp_Chiralities_Consistent>
1

> <s_lp_Variant>
AV-unprocessed.smi:2147-1

> <Gold.Version>
5.8.1

> <Gold.Id.Protein>
6NUR|6NUR_protein|mol2

> <Gold.PLP.Fitness>
49.9116

> <Gold.PLP.PLP>
-50.7608

> <Gold.PLP.part.hbond>
-3.0416

> <Gold.PLP.part.metal>
0.0000

> <Gold.PLP.part.buried>
-7.6947

> <Gold.PLP.part.nonpolar>
-40.7013

> <Gold.PLP.part.repulsive>
0.1911

> <Gold.PLP.ligand.clash>
0.0000

> <Gold.PLP.ligand.torsion>
1.6861

> <Gold.PLP.Chemscore.Hbond>
0.8247

> <Gold.PLP.Chemscore.CHOScore>
0.0000

> <Gold.PLP.Chemscore.Metal>
0.0000

> <Gold.Chemscore.Hbonds>
donor molecule, donor type, donor heavy atom, donor atom, acceptor molecule, acceptor atom, score
      L1  H    11    32       P1  8028  0.84

> <Gold.PLP.Chemscore.Internal.Correction>
0.0489

> <Gold.Rescore>
     Score         DG    S(hbond)    S(metal)    S(lipo)     H(rot)  DE(clash)    DE(int)     intcor
     12.43     -15.96       0.96        0.00     114.74       2.40       1.73       1.80       ----

> <Gold.Chemscore.Fitness>
12.4267

> <Gold.Chemscore.DG>
-15.9606

> <Gold.Chemscore.ZeroCoef>
-5.4800

> <Gold.Chemscore.Hbond>
0.9586

> <Gold.Chemscore.Metal>
0.0000

> <Gold.Chemscore.Lipo>
114.7352

> <Gold.Chemscore.Internal_Hbond>
0.0000

> <Gold.Chemscore.DEClash>
1.7322

> <Gold.Chemscore.DEInternal>
1.8017

> <Gold.Chemscore.Rot>
2.4005

> <Gold.Chemscore.Internal.Correction>
   9.000000E+99

> <Gold.Chemscore.Hbonds>
donor molecule, donor type, donor heavy atom, donor atom, acceptor molecule, acceptor atom, score
      L1  H    11    32       P1  8028  0.78

> <Gold.Chemscore.Hbond.Weighted>
-3.2018

> <Gold.Chemscore.Metal.Weighted>
-0.0000

> <Gold.Chemscore.Lipo.Weighted>
-13.4240

> <Gold.Chemscore.Internal_Hbond.Weighted>
0.0000

> <Gold.Chemscore.DEClash.Weighted>
1.7322

> <Gold.Chemscore.DEInternal.Weighted>
1.8017

> <Gold.Chemscore.Rot.Weighted>
6.1453

> <Gold.Chemscore.Internal.Correction.Weighted>
   9.000000E+99

> <Gold.Protein.RotatedTorsions>
[ 6907 6896 6895 6894 ] final  -34.99 input  -60.11 | X-H torsion
[ 7974 7965 7964 7962 ] final -107.69 input  175.53 | X-H torsion
[ 8008 7997 7996 7995 ] final  -92.63 input   59.86 | X-H torsion
[ 10167 10162 10161 10158 ] final -131.80 input  -65.29 | X-H torsion
[ 10718 10713 10712 10709 ] final   48.66 input   66.30 | X-H torsion
[ 10763 10752 10751 10750 ] final   40.28 input  -60.55 | X-H torsion
[ 11005 11000 10999 10996 ] final  -87.12 input  -57.11 | X-H torsion

> <Gold.Protein.ActiveResidues>
 VAL166  LYS551  ARG553  GLY616  TRP617  ASP618  TYR619  PRO620  LYS621  CYS622 
 ASP623  PHE694  ASN695  SER759  ASP760  ASP761  ALA762  ILE779  LEU786  VAL792 
 PHE793  MET794  SER795  GLU796  ALA797  LYS798  CYS799  TRP800  GLU811  SER814 

> <Gold.Protein.RotatedAtoms>
  151.0455  134.9637  159.8184 H   0  0  0  0  0  0  0  0  0  0  0  0  # atno 6907 bound_to 6896
  152.5372  134.2603  159.8943 H   0  0  0  0  0  0  0  0  0  0  0  0  # atno 6908 bound_to 6896
  151.2617  133.4256  159.2650 H   0  0  0  0  0  0  0  0  0  0  0  0  # atno 6909 bound_to 6896
  145.2022  140.9061  143.3363 H   0  0  0  0  0  0  0  0  0  0  0  0  # atno 7974 bound_to 7965
  154.7255  140.0507  157.0679 H   0  0  0  0  0  0  0  0  0  0  0  0  # atno 8008 bound_to 7997
  155.0370  140.3164  155.4719 H   0  0  0  0  0  0  0  0  0  0  0  0  # atno 8009 bound_to 7997
  156.2828  140.2139  156.5493 H   0  0  0  0  0  0  0  0  0  0  0  0  # atno 8010 bound_to 7997
  139.9152  143.6447  152.2566 H   0  0  0  0  0  0  0  0  0  0  0  0  # atno 10167 bound_to 10162
  157.4709  130.8254  149.7986 H   0  0  0  0  0  0  0  0  0  0  0  0  # atno 10718 bound_to 10713
  152.9941  135.6196  154.2600 H   0  0  0  0  0  0  0  0  0  0  0  0  # atno 10763 bound_to 10752
  154.2336  135.2791  155.2882 H   0  0  0  0  0  0  0  0  0  0  0  0  # atno 10764 bound_to 10752
  154.5428  135.5756  153.6912 H   0  0  0  0  0  0  0  0  0  0  0  0  # atno 10765 bound_to 10752
  141.1621  133.7493  156.9261 H   0  0  0  0  0  0  0  0  0  0  0  0  # atno 11005 bound_to 11000
  144.9937  139.3665  143.6202 LP  0  0  0  0  0  0  0  0  0  0  0  0  # atno 17320 bound_to 7965
  146.3415  139.9130  142.8777 LP  0  0  0  0  0  0  0  0  0  0  0  0  # atno 17321 bound_to 7965
  139.6908  144.7647  151.1441 LP  0  0  0  0  0  0  0  0  0  0  0  0  # atno 17342 bound_to 10162
  140.7676  143.5591  150.9119 LP  0  0  0  0  0  0  0  0  0  0  0  0  # atno 17343 bound_to 10162
  156.0073  130.3849  150.2387 LP  0  0  0  0  0  0  0  0  0  0  0  0  # atno 17370 bound_to 10713
  157.0569  131.0079  151.3235 LP  0  0  0  0  0  0  0  0  0  0  0  0  # atno 17371 bound_to 10713
  140.1418  134.9288  157.2477 LP  0  0  0  0  0  0  0  0  0  0  0  0  # atno 17394 bound_to 11000
  140.2827  134.3331  155.7338 LP  0  0  0  0  0  0  0  0  0  0  0  0  # atno 17395 bound_to 11000

$$$$
