AV-unprocessed.smi:1464|AV-procd|sdf|5938|dock3
  -GOLD-   22720 6 23D 1   1.00000     0.00000
 Structure written by MMmdl.
 40 41  0  0  0  0  0  0  0  0  2 V2000
  147.0703  140.4612  153.2128 C   0  0  0  0  0  0  0  0  0  0  0  0
  147.9056  141.2787  154.2196 C   0  0  1  0  0  0  0  0  0  0  0  0
  147.0591  142.3690  154.9068 C   0  0  0  0  0  0  0  0  0  0  0  0
  146.0730  141.7788  155.9264 C   0  0  0  0  0  0  0  0  0  0  0  0
  146.8043  140.9298  156.9751 C   0  0  0  0  0  0  0  0  0  0  0  0
  147.6679  139.8262  156.3290 C   0  0  2  0  0  0  0  0  0  0  0  0
  148.4113  139.1224  157.3720 N   0  0  0  0  0  0  0  0  0  0  0  0
  148.1915  137.8623  157.7773 C   0  0  0  0  0  0  0  0  0  0  0  0
  147.3133  137.1440  157.2970 O   0  0  0  0  0  0  0  0  0  0  0  0
  149.1143  137.3619  158.9002 C   0  0  0  0  0  0  0  0  0  0  0  0
  148.4453  136.5359  159.9163 N   0  0  0  0  0  0  0  0  0  0  0  0
  147.9637  137.2948  161.0678 N   0  5  0  0  0  0  0  0  0  0  0  0
  147.3268  136.6392  162.0740 C   0  0  0  0  0  0  0  0  0  0  0  0
  146.9026  137.2087  163.0769 O   0  0  0  0  0  0  0  0  0  0  0  0
  147.1421  135.2032  161.9457 C   0  0  0  0  0  0  0  0  0  0  0  0
  147.5816  134.5310  160.8636 C   0  0  0  0  0  0  0  0  0  0  0  0
  148.2673  135.1928  159.7604 C   0  0  0  0  0  0  0  0  0  0  0  0
  148.6577  134.5871  158.7620 O   0  0  0  0  0  0  0  0  0  0  0  0
  148.6446  140.4187  155.2798 C   0  0  1  0  0  0  0  0  0  0  0  0
  149.5545  139.3519  154.6385 C   0  0  0  0  0  0  0  0  0  0  0  0
  146.3108  139.8537  153.7039 H   0  0  0  0  0  0  0  0  0  0  0  0
  147.6965  139.7925  152.6226 H   0  0  0  0  0  0  0  0  0  0  0  0
  146.5592  141.1187  152.5091 H   0  0  0  0  0  0  0  0  0  0  0  0
  148.6666  141.7956  153.6336 H   0  0  0  0  0  0  0  0  0  0  0  0
  147.7222  143.0681  155.4183 H   0  0  0  0  0  0  0  0  0  0  0  0
  146.5202  142.9563  154.1625 H   0  0  0  0  0  0  0  0  0  0  0  0
  145.5266  142.5829  156.4200 H   0  0  0  0  0  0  0  0  0  0  0  0
  145.3250  141.1713  155.4167 H   0  0  0  0  0  0  0  0  0  0  0  0
  147.4353  141.5804  157.5826 H   0  0  0  0  0  0  0  0  0  0  0  0
  146.0765  140.4865  157.6560 H   0  0  0  0  0  0  0  0  0  0  0  0
  147.0107  139.1170  155.8230 H   0  0  0  0  0  0  0  0  0  0  0  0
  149.1560  139.6347  157.8216 H   0  0  0  0  0  0  0  0  0  0  0  0
  149.9344  136.8043  158.4438 H   0  0  0  0  0  0  0  0  0  0  0  0
  149.5813  138.2247  159.3783 H   0  0  0  0  0  0  0  0  0  0  0  0
  146.6396  134.6641  162.7351 H   0  0  0  0  0  0  0  0  0  0  0  0
  147.4220  133.4645  160.8104 H   0  0  0  0  0  0  0  0  0  0  0  0
  149.3090  141.0999  155.8145 H   0  0  0  0  0  0  0  0  0  0  0  0
  148.9732  138.5493  154.1840 H   0  0  0  0  0  0  0  0  0  0  0  0
  150.2172  138.8962  155.3744 H   0  0  0  0  0  0  0  0  0  0  0  0
  150.1862  139.7885  153.8647 H   0  0  0  0  0  0  0  0  0  0  0  0
  1  2  1  0  0  0  0
  1 21  1  0  0  0  0
  1 22  1  0  0  0  0
  1 23  1  0  0  0  0
  2 19  1  0  0  0  0
  2  3  1  0  0  0  0
  2 24  1  0  0  0  0
  3  4  1  0  0  0  0
  3 25  1  0  0  0  0
  3 26  1  0  0  0  0
  4  5  1  0  0  0  0
  4 27  1  0  0  0  0
  4 28  1  0  0  0  0
  5  6  1  0  0  0  0
  5 29  1  0  0  0  0
  5 30  1  0  0  0  0
  6  7  1  0  0  0  0
  6 19  1  0  0  0  0
  6 31  1  0  0  0  0
  7  8  1  0  0  0  0
  7 32  1  0  0  0  0
  8  9  2  0  0  0  0
  8 10  1  0  0  0  0
 10 33  1  0  0  0  0
 10 34  1  0  0  0  0
 10 11  1  0  0  0  0
 11 12  1  0  0  0  0
 11 17  1  0  0  0  0
 12 13  1  0  0  0  0
 13 14  2  0  0  0  0
 13 15  1  0  0  0  0
 15 35  1  0  0  0  0
 15 16  2  0  0  0  0
 16 36  1  0  0  0  0
 16 17  1  0  0  0  0
 17 18  2  0  0  0  0
 19 20  1  0  0  0  0
 19 37  1  0  0  0  0
 20 38  1  0  0  0  0
 20 39  1  0  0  0  0
 20 40  1  0  0  0  0
M  CHG  1  12  -1
M  END
> <s_m_source_file>
AV-unprocessed.smi

> <i_m_source_file_index>
1464

> <i_lp_mmshare_version>
43012

> <i_f3d_flags>
0

> <s_epik_input>
W0NIM11bQ0BASF0xW0NIMl1bQ0gyXVtDSDJdW0NASF0oW0NASF0xW0NIM10pW05IXUMoPU8pW0NIMl1uMltuSF1jKD1PKVtjSF1bY0hdYzI9Tw==

> <s_epik_cmdline>
J2VwaWtfcHl0aG9uJywgJy1waCcsICc3LjAnLCAnLXRuJywgJzgnLCAnLW1hJywgJzIwMCcsICctbWV0YWxfYmluZGluZycsICctaW1hZScsICc8aW5maWxlLm1hZT4nLCAnLW9tYWUnLCAnPG91dGZpbGUubWFlPic=

> <r_lp_tautomer_probability>
1

> <r_epik_Ionization_Penalty>
0.101366

> <r_epik_Ionization_Penalty_Charging>
0.101366

> <r_epik_Ionization_Penalty_Neutral>
1.90469e-08

> <r_epik_State_Penalty>
0.035861

> <r_epik_Charging_Adjusted_Penalty>
0.137227

> <i_epik_Tot_Q>
-1

> <i_epik_Tot_abs_Q>
1

> <r_epik_Metal_State_Penalty>
0.035861

> <b_epik_Metal_Only>
0

> <s_lp_Force_Field>
OPLS_2005

> <r_lp_Energy>
30.3142

> <b_lp_Chiralities_Consistent>
1

> <s_lp_Variant>
AV-unprocessed.smi:1464-4

> <Gold.Version>
5.8.1

> <Gold.Id.Protein>
6NUR|6NUR_protein|mol2

> <Gold.PLP.Fitness>
39.6390

> <Gold.PLP.PLP>
-27.7084

> <Gold.PLP.part.hbond>
-3.0000

> <Gold.PLP.part.metal>
0.0000

> <Gold.PLP.part.buried>
-2.3065

> <Gold.PLP.part.nonpolar>
-23.0934

> <Gold.PLP.part.repulsive>
0.0726

> <Gold.PLP.ligand.clash>
0.0000

> <Gold.PLP.ligand.torsion>
0.7217

> <Gold.PLP.Chemscore.Hbond>
4.4560

> <Gold.PLP.Chemscore.CHOScore>
0.0000

> <Gold.PLP.Chemscore.Metal>
0.0000

> <Gold.Chemscore.Hbonds>
donor molecule, donor type, donor heavy atom, donor atom, acceptor molecule, acceptor atom, score
      P1  H  6896  6909       L1    18  0.67
      P1  H  6931  6943       L1    12  1.82
      P1  H  6934  6947       L1    12  1.44

> <Gold.PLP.Chemscore.Internal.Correction>
0.0061

> <Gold.Rescore>
     Score         DG    S(hbond)    S(metal)    S(lipo)     H(rot)  DE(clash)    DE(int)     intcor
     12.28     -13.67       1.87        0.00      52.64       1.64       0.71       0.68       ----

> <Gold.Chemscore.Fitness>
12.2818

> <Gold.Chemscore.DG>
-13.6745

> <Gold.Chemscore.ZeroCoef>
-5.4800

> <Gold.Chemscore.Hbond>
1.8693

> <Gold.Chemscore.Metal>
0.0000

> <Gold.Chemscore.Lipo>
52.6418

> <Gold.Chemscore.Internal_Hbond>
0.0000

> <Gold.Chemscore.DEClash>
0.7088

> <Gold.Chemscore.DEInternal>
0.6839

> <Gold.Chemscore.Rot>
1.6438

> <Gold.Chemscore.Internal.Correction>
   9.000000E+99

> <Gold.Chemscore.Hbonds>
donor molecule, donor type, donor heavy atom, donor atom, acceptor molecule, acceptor atom, score
      P1  H  6896  6909       L1    18  0.19
      P1  H  6931  6943       L1    12  0.30
      P1  H  6934  6947       L1    12  0.47

> <Gold.Chemscore.Hbond.Weighted>
-6.2434

> <Gold.Chemscore.Metal.Weighted>
-0.0000

> <Gold.Chemscore.Lipo.Weighted>
-6.1591

> <Gold.Chemscore.Internal_Hbond.Weighted>
0.0000

> <Gold.Chemscore.DEClash.Weighted>
0.7088

> <Gold.Chemscore.DEInternal.Weighted>
0.6839

> <Gold.Chemscore.Rot.Weighted>
4.2080

> <Gold.Chemscore.Internal.Correction.Weighted>
   9.000000E+99

> <Gold.Protein.RotatedTorsions>
[ 6907 6896 6895 6894 ] final   15.21 input  -60.11 | X-H torsion
[ 7974 7965 7964 7962 ] final  -63.26 input  175.53 | X-H torsion
[ 8008 7997 7996 7995 ] final -115.68 input   59.86 | X-H torsion
[ 10167 10162 10161 10158 ] final  178.47 input  -65.29 | X-H torsion
[ 10718 10713 10712 10709 ] final  -10.42 input   66.30 | X-H torsion
[ 10763 10752 10751 10750 ] final  155.52 input  -60.55 | X-H torsion
[ 11005 11000 10999 10996 ] final -177.69 input  -57.11 | X-H torsion

> <Gold.Protein.ActiveResidues>
 VAL166  LYS551  ARG553  GLY616  TRP617  ASP618  TYR619  PRO620  LYS621  CYS622 
 ASP623  PHE694  ASN695  SER759  ASP760  ASP761  ALA762  ILE779  LEU786  VAL792 
 PHE793  MET794  SER795  GLU796  ALA797  LYS798  CYS799  TRP800  GLU811  SER814 

> <Gold.Protein.RotatedAtoms>
  151.8145  135.0670  160.0416 H   0  0  0  0  0  0  0  0  0  0  0  0  # atno 6907 bound_to 6896
  152.2996  133.5637  159.5618 H   0  0  0  0  0  0  0  0  0  0  0  0  # atno 6908 bound_to 6896
  150.7267  134.0227  159.3749 H   0  0  0  0  0  0  0  0  0  0  0  0  # atno 6909 bound_to 6896
  145.7812  140.8761  143.0329 H   0  0  0  0  0  0  0  0  0  0  0  0  # atno 7974 bound_to 7965
  155.0558  140.0393  157.2559 H   0  0  0  0  0  0  0  0  0  0  0  0  # atno 8008 bound_to 7997
  154.7100  140.2691  155.6614 H   0  0  0  0  0  0  0  0  0  0  0  0  # atno 8009 bound_to 7997
  156.2786  140.2723  156.1738 H   0  0  0  0  0  0  0  0  0  0  0  0  # atno 8010 bound_to 7997
  139.5295  144.2676  152.0655 H   0  0  0  0  0  0  0  0  0  0  0  0  # atno 10167 bound_to 10162
  156.6738  130.5017  149.5992 H   0  0  0  0  0  0  0  0  0  0  0  0  # atno 10718 bound_to 10713
  154.1697  135.2805  155.3084 H   0  0  0  0  0  0  0  0  0  0  0  0  # atno 10763 bound_to 10752
  154.6084  135.5507  153.7451 H   0  0  0  0  0  0  0  0  0  0  0  0  # atno 10764 bound_to 10752
  153.0168  135.6409  154.1838 H   0  0  0  0  0  0  0  0  0  0  0  0  # atno 10765 bound_to 10752
  140.4381  134.6456  157.4744 H   0  0  0  0  0  0  0  0  0  0  0  0  # atno 11005 bound_to 11000
  144.6796  139.9991  143.7484 LP  0  0  0  0  0  0  0  0  0  0  0  0  # atno 17320 bound_to 7965
  146.0072  139.3139  143.0892 LP  0  0  0  0  0  0  0  0  0  0  0  0  # atno 17321 bound_to 7965
  140.2137  144.4537  150.6374 LP  0  0  0  0  0  0  0  0  0  0  0  0  # atno 17342 bound_to 10162
  140.6464  143.2214  151.6177 LP  0  0  0  0  0  0  0  0  0  0  0  0  # atno 17343 bound_to 10162
  156.1918  130.6565  151.1070 LP  0  0  0  0  0  0  0  0  0  0  0  0  # atno 17370 bound_to 10713
  157.7068  131.0753  150.6640 LP  0  0  0  0  0  0  0  0  0  0  0  0  # atno 17371 bound_to 10713
  140.0088  134.6722  155.9413 LP  0  0  0  0  0  0  0  0  0  0  0  0  # atno 17394 bound_to 11000
  141.1717  133.6538  156.4676 LP  0  0  0  0  0  0  0  0  0  0  0  0  # atno 17395 bound_to 11000

$$$$
