AV-unprocessed.smi:384|AV-procd|sdf|2469|dock1
  -GOLD-   2262022413D 1   1.00000     0.00000
 Structure written by MMmdl.
 33 34  0  0  0  0  0  0  0  0  3 V2000
  153.0478  143.4845  163.4008 C   0  0  0  0  0  0  0  0  0  0  0  0
  153.1939  143.3474  161.8819 C   0  0  1  0  0  0  0  0  0  0  0  0
  153.0993  141.8807  161.4213 C   0  0  0  0  0  0  0  0  0  0  0  0
  153.1466  141.8095  159.9672 N   0  0  0  0  0  0  0  0  0  0  0  0
  153.1642  140.4950  159.4841 C   0  0  0  0  0  0  0  0  0  0  0  0
  152.2882  140.0214  158.4804 C   0  0  0  0  0  0  0  0  0  0  0  0
  152.3807  138.6788  158.0596 C   0  0  0  0  0  0  0  0  0  0  0  0
  153.3457  137.8265  158.6451 C   0  0  0  0  0  0  0  0  0  0  0  0
  153.4696  136.3915  158.2183 C   0  0  0  0  0  0  0  0  0  0  0  0
  153.0975  136.0736  157.0671 O   0  0  0  0  0  0  0  0  0  0  0  0
  153.9403  135.5618  159.0276 O   0  5  0  0  0  0  0  0  0  0  0  0
  154.1926  138.3588  159.6438 C   0  0  0  0  0  0  0  0  0  0  0  0
  154.0721  139.6511  160.0199 N   0  3  0  0  0  0  0  0  0  0  0  0
  152.1293  142.6386  159.3350 C   0  0  0  0  0  0  0  0  0  0  0  0
  152.2448  144.0899  159.8368 C   0  0  1  0  0  0  0  0  0  0  0  0
  151.1339  144.9834  159.2753 C   0  0  0  0  0  0  0  0  0  0  0  0
  152.1515  144.0957  161.2597 O   0  0  0  0  0  0  0  0  0  0  0  0
  153.8313  142.9340  163.9220 H   0  0  0  0  0  0  0  0  0  0  0  0
  152.0854  143.1016  163.7419 H   0  0  0  0  0  0  0  0  0  0  0  0
  153.1174  144.5291  163.7057 H   0  0  0  0  0  0  0  0  0  0  0  0
  154.1583  143.7651  161.5869 H   0  0  0  0  0  0  0  0  0  0  0  0
  153.9208  141.3007  161.8436 H   0  0  0  0  0  0  0  0  0  0  0  0
  152.1704  141.4363  161.7822 H   0  0  0  0  0  0  0  0  0  0  0  0
  151.5517  140.6736  158.0347 H   0  0  0  0  0  0  0  0  0  0  0  0
  151.7118  138.3149  157.2930 H   0  0  0  0  0  0  0  0  0  0  0  0
  154.9607  137.7950  160.1534 H   0  0  0  0  0  0  0  0  0  0  0  0
  152.2509  142.6048  158.2514 H   0  0  0  0  0  0  0  0  0  0  0  0
  151.1378  142.2443  159.5618 H   0  0  0  0  0  0  0  0  0  0  0  0
  153.2089  144.5074  159.5404 H   0  0  0  0  0  0  0  0  0  0  0  0
  151.1708  145.0177  158.1861 H   0  0  0  0  0  0  0  0  0  0  0  0
  151.2332  146.0050  159.6427 H   0  0  0  0  0  0  0  0  0  0  0  0
  150.1482  144.6191  159.5660 H   0  0  0  0  0  0  0  0  0  0  0  0
  154.6983  140.0043  160.7434 H   0  0  0  0  0  0  0  0  0  0  0  0
  1  2  1  0  0  0  0
  1 18  1  0  0  0  0
  1 19  1  0  0  0  0
  1 20  1  0  0  0  0
  2 17  1  0  0  0  0
  2  3  1  0  0  0  0
  2 21  1  0  0  0  0
  3  4  1  0  0  0  0
  3 22  1  0  0  0  0
  3 23  1  0  0  0  0
  4  5  1  0  0  0  0
  4 14  1  0  0  0  0
  5 13  1  0  0  0  0
  5  6  2  0  0  0  0
  6  7  1  0  0  0  0
  6 24  1  0  0  0  0
  7  8  2  0  0  0  0
  7 25  1  0  0  0  0
  8  9  1  0  0  0  0
  8 12  1  0  0  0  0
  9 10  2  0  0  0  0
  9 11  1  0  0  0  0
 12 13  2  0  0  0  0
 12 26  1  0  0  0  0
 13 33  1  0  0  0  0
 14 15  1  0  0  0  0
 14 27  1  0  0  0  0
 14 28  1  0  0  0  0
 15 16  1  0  0  0  0
 15 17  1  0  0  0  0
 15 29  1  0  0  0  0
 16 30  1  0  0  0  0
 16 31  1  0  0  0  0
 16 32  1  0  0  0  0
M  CHG  1  11  -1
M  CHG  1  13   1
M  END
> <s_m_source_file>
AV-unprocessed.smi

> <i_m_source_file_index>
384

> <i_lp_mmshare_version>
43012

> <i_f3d_flags>
0

> <s_epik_input>
W0NIM11bQ0BASF0xW0NIMl1OKFtDSDJdW0NASF0oTzEpW0NIM10pYzJbY0hdW2NIXWMoW2NIXW4yKUMoPU8pW09IXQ==

> <s_epik_cmdline>
J2VwaWtfcHl0aG9uJywgJy1waCcsICc3LjAnLCAnLXRuJywgJzgnLCAnLW1hJywgJzIwMCcsICctbWV0YWxfYmluZGluZycsICctaW1hZScsICc8aW5maWxlLm1hZT4nLCAnLW9tYWUnLCAnPG91dGZpbGUubWFlPic=

> <r_epik_Ionization_Penalty>
2.35185

> <r_epik_Ionization_Penalty_Charging>
2.35185

> <r_epik_Ionization_Penalty_Neutral>
3.18713e-12

> <r_epik_State_Penalty>
2.50619

> <r_epik_Charging_Adjusted_Penalty>
4.85804

> <i_epik_Tot_Q>
0

> <i_epik_Tot_abs_Q>
2

> <r_epik_Metal_State_Penalty>
6.59026

> <b_epik_Metal_Only>
0

> <s_lp_Force_Field>
OPLS_2005

> <r_lp_Energy>
16.4977

> <b_lp_Chiralities_Consistent>
1

> <s_lp_Variant>
AV-unprocessed.smi:384-5

> <Gold.Version>
5.8.1

> <Gold.Id.Protein>
6NUR|6NUR_protein|mol2

> <Gold.PLP.Fitness>
41.2556

> <Gold.PLP.PLP>
-29.9088

> <Gold.PLP.part.hbond>
-2.0000

> <Gold.PLP.part.metal>
0.0000

> <Gold.PLP.part.buried>
-5.1144

> <Gold.PLP.part.nonpolar>
-22.8553

> <Gold.PLP.part.repulsive>
0.2026

> <Gold.PLP.ligand.clash>
0.0000

> <Gold.PLP.ligand.torsion>
0.3712

> <Gold.PLP.Chemscore.Hbond>
4.0000

> <Gold.PLP.Chemscore.CHOScore>
0.0000

> <Gold.PLP.Chemscore.Metal>
0.0000

> <Gold.Chemscore.Hbonds>
donor molecule, donor type, donor heavy atom, donor atom, acceptor molecule, acceptor atom, score
      P1  H  6896  6909       L1    11  1.98
      P1  H 10752 10764       L1    10  2.00

> <Gold.PLP.Chemscore.Internal.Correction>
0.0891

> <Gold.Rescore>
     Score         DG    S(hbond)    S(metal)    S(lipo)     H(rot)  DE(clash)    DE(int)     intcor
     18.69     -19.68       1.91        0.00      88.66       1.00       0.43       0.56       ----

> <Gold.Chemscore.Fitness>
18.6936

> <Gold.Chemscore.DG>
-19.6807

> <Gold.Chemscore.ZeroCoef>
-5.4800

> <Gold.Chemscore.Hbond>
1.9125

> <Gold.Chemscore.Metal>
0.0000

> <Gold.Chemscore.Lipo>
88.6577

> <Gold.Chemscore.Internal_Hbond>
0.0000

> <Gold.Chemscore.DEClash>
0.4308

> <Gold.Chemscore.DEInternal>
0.5563

> <Gold.Chemscore.Rot>
1.0000

> <Gold.Chemscore.Internal.Correction>
   9.000000E+99

> <Gold.Chemscore.Hbonds>
donor molecule, donor type, donor heavy atom, donor atom, acceptor molecule, acceptor atom, score
      P1  H  6896  6909       L1    11  0.76
      P1  H 10752 10764       L1    10  0.99

> <Gold.Chemscore.Hbond.Weighted>
-6.3877

> <Gold.Chemscore.Metal.Weighted>
-0.0000

> <Gold.Chemscore.Lipo.Weighted>
-10.3730

> <Gold.Chemscore.Internal_Hbond.Weighted>
0.0000

> <Gold.Chemscore.DEClash.Weighted>
0.4308

> <Gold.Chemscore.DEInternal.Weighted>
0.5563

> <Gold.Chemscore.Rot.Weighted>
2.5600

> <Gold.Chemscore.Internal.Correction.Weighted>
   9.000000E+99

> <Gold.Protein.RotatedTorsions>
[ 6907 6896 6895 6894 ] final -172.09 input  -60.11 | X-H torsion
[ 7974 7965 7964 7962 ] final -137.00 input  175.53 | X-H torsion
[ 8008 7997 7996 7995 ] final  -97.29 input   59.86 | X-H torsion
[ 10167 10162 10161 10158 ] final    6.54 input  -65.29 | X-H torsion
[ 10718 10713 10712 10709 ] final  102.22 input   66.30 | X-H torsion
[ 10763 10752 10751 10750 ] final   11.35 input  -60.55 | X-H torsion
[ 11005 11000 10999 10996 ] final -115.20 input  -57.11 | X-H torsion

> <Gold.Protein.ActiveResidues>
 VAL166  LYS551  ARG553  GLY616  TRP617  ASP618  TYR619  PRO620  LYS621  CYS622 
 ASP623  PHE694  ASN695  SER759  ASP760  ASP761  ALA762  ILE779  LEU786  VAL792 
 PHE793  MET794  SER795  GLU796  ALA797  LYS798  CYS799  TRP800  GLU811  SER814 

> <Gold.Protein.RotatedAtoms>
  151.5343  133.3443  159.2923 H   0  0  0  0  0  0  0  0  0  0  0  0  # atno 6907 bound_to 6896
  150.8574  134.7919  159.7067 H   0  0  0  0  0  0  0  0  0  0  0  0  # atno 6908 bound_to 6896
  152.4604  134.5206  159.9833 H   0  0  0  0  0  0  0  0  0  0  0  0  # atno 6909 bound_to 6896
  144.8879  140.6601  143.5164 H   0  0  0  0  0  0  0  0  0  0  0  0  # atno 7974 bound_to 7965
  154.7858  140.0464  157.1162 H   0  0  0  0  0  0  0  0  0  0  0  0  # atno 8008 bound_to 7997
  154.9650  140.3082  155.4994 H   0  0  0  0  0  0  0  0  0  0  0  0  # atno 8009 bound_to 7997
  156.2943  140.2263  156.4738 H   0  0  0  0  0  0  0  0  0  0  0  0  # atno 8010 bound_to 7997
  140.6422  143.7747  150.7445 H   0  0  0  0  0  0  0  0  0  0  0  0  # atno 10167 bound_to 10162
  157.6808  131.0747  150.5371 H   0  0  0  0  0  0  0  0  0  0  0  0  # atno 10718 bound_to 10713
  153.1936  135.6846  153.8321 H   0  0  0  0  0  0  0  0  0  0  0  0  # atno 10763 bound_to 10752
  153.7612  135.3209  155.3338 H   0  0  0  0  0  0  0  0  0  0  0  0  # atno 10764 bound_to 10752
  154.8131  135.4704  154.0669 H   0  0  0  0  0  0  0  0  0  0  0  0  # atno 10765 bound_to 10752
  141.0503  133.9698  157.2848 H   0  0  0  0  0  0  0  0  0  0  0  0  # atno 11005 bound_to 11000
  145.3836  139.1631  143.4267 LP  0  0  0  0  0  0  0  0  0  0  0  0  # atno 17320 bound_to 7965
  146.3036  140.3918  142.8695 LP  0  0  0  0  0  0  0  0  0  0  0  0  # atno 17321 bound_to 7965
  140.1381  143.4466  152.2211 LP  0  0  0  0  0  0  0  0  0  0  0  0  # atno 17342 bound_to 10162
  139.5631  144.7418  151.4098 LP  0  0  0  0  0  0  0  0  0  0  0  0  # atno 17343 bound_to 10162
  156.5679  130.4272  149.6033 LP  0  0  0  0  0  0  0  0  0  0  0  0  # atno 17370 bound_to 10713
  156.2766  130.7047  151.1859 LP  0  0  0  0  0  0  0  0  0  0  0  0  # atno 17371 bound_to 10713
  139.9345  135.0197  156.8510 LP  0  0  0  0  0  0  0  0  0  0  0  0  # atno 17394 bound_to 11000
  140.6068  134.0120  155.7560 LP  0  0  0  0  0  0  0  0  0  0  0  0  # atno 17395 bound_to 11000

$$$$
