AV-unprocessed.smi:2107|AV-procd|sdf|8602|dock7
  -GOLD-   2272011343D 1   1.00000     0.00000
 Structure written by MMmdl.
 45 46  0  0  0  0  0  0  0  0  2 V2000
  153.3057  140.7094  160.2135 C   0  0  0  0  0  0  0  0  0  0  0  0
  153.3718  142.1489  159.6826 C   0  0  0  0  0  0  0  0  0  0  0  0
  152.2117  142.9614  160.1000 N   0  0  0  0  0  0  0  0  0  0  0  0
  152.2431  143.5385  161.4597 C   0  0  0  0  0  0  0  0  0  0  0  0
  153.0539  142.6930  162.4532 C   0  0  0  0  0  0  0  0  0  0  0  0
  150.9750  143.4145  158.9516 S   0  0  0  0  0  0  0  0  0  0  0  0
  149.7288  143.4809  159.7305 O   0  0  0  0  0  0  0  0  0  0  0  0
  151.4383  144.6563  158.3074 O   0  0  0  0  0  0  0  0  0  0  0  0
  151.0201  142.0895  158.0036 N   0  5  0  0  0  0  0  0  0  0  0  0
  150.9649  142.1744  156.5510 C   0  0  0  0  0  0  0  0  0  0  0  0
  151.0434  140.7847  155.9040 C   0  0  0  0  0  0  0  0  0  0  0  0
  152.1760  139.9838  156.1916 C   0  0  0  0  0  0  0  0  0  0  0  0
  152.2905  138.7035  155.6215 C   0  0  0  0  0  0  0  0  0  0  0  0
  151.2637  138.2600  154.7736 C   0  0  0  0  0  0  0  0  0  0  0  0
  150.1774  139.0015  154.4825 N   0  0  0  0  0  0  0  0  0  0  0  0
  150.0528  140.2411  155.0227 C   0  0  0  0  0  0  0  0  0  0  0  0
  148.8809  140.9395  154.6576 N   0  0  0  0  0  0  0  0  0  0  0  0
  148.0527  140.2368  153.6836 C   0  0  0  0  0  0  0  0  0  0  0  0
  146.8536  141.1091  153.2724 C   0  0  0  0  0  0  0  0  0  0  0  0
  146.1252  141.5022  154.4318 O   0  0  0  0  0  0  0  0  0  0  0  0
  146.9243  142.2677  155.3292 C   0  0  0  0  0  0  0  0  0  0  0  0
  148.1200  141.4241  155.8029 C   0  0  0  0  0  0  0  0  0  0  0  0
  154.1290  140.1156  159.8172 H   0  0  0  0  0  0  0  0  0  0  0  0
  152.3766  140.2176  159.9303 H   0  0  0  0  0  0  0  0  0  0  0  0
  153.3796  140.6816  161.3006 H   0  0  0  0  0  0  0  0  0  0  0  0
  154.2842  142.6282  160.0377 H   0  0  0  0  0  0  0  0  0  0  0  0
  153.4442  142.1427  158.5947 H   0  0  0  0  0  0  0  0  0  0  0  0
  152.6608  144.5441  161.4210 H   0  0  0  0  0  0  0  0  0  0  0  0
  151.2194  143.6477  161.8180 H   0  0  0  0  0  0  0  0  0  0  0  0
  153.1252  143.1977  163.4165 H   0  0  0  0  0  0  0  0  0  0  0  0
  154.0676  142.5274  162.0946 H   0  0  0  0  0  0  0  0  0  0  0  0
  152.5972  141.7196  162.6297 H   0  0  0  0  0  0  0  0  0  0  0  0
  150.0424  142.6460  156.2109 H   0  0  0  0  0  0  0  0  0  0  0  0
  151.7640  142.7957  156.1473 H   0  0  0  0  0  0  0  0  0  0  0  0
  152.9671  140.3303  156.8435 H   0  0  0  0  0  0  0  0  0  0  0  0
  153.1467  138.0794  155.8294 H   0  0  0  0  0  0  0  0  0  0  0  0
  151.3145  137.2831  154.3164 H   0  0  0  0  0  0  0  0  0  0  0  0
  148.6518  139.9852  152.8076 H   0  0  0  0  0  0  0  0  0  0  0  0
  147.6920  139.2997  154.1092 H   0  0  0  0  0  0  0  0  0  0  0  0
  147.1782  141.9911  152.7205 H   0  0  0  0  0  0  0  0  0  0  0  0
  146.1932  140.5487  152.6111 H   0  0  0  0  0  0  0  0  0  0  0  0
  147.2604  143.1851  154.8444 H   0  0  0  0  0  0  0  0  0  0  0  0
  146.3143  142.5651  156.1819 H   0  0  0  0  0  0  0  0  0  0  0  0
  147.7634  140.5796  156.3941 H   0  0  0  0  0  0  0  0  0  0  0  0
  148.7668  142.0205  156.4473 H   0  0  0  0  0  0  0  0  0  0  0  0
  1  2  1  0  0  0  0
  1 23  1  0  0  0  0
  1 24  1  0  0  0  0
  1 25  1  0  0  0  0
  2  3  1  0  0  0  0
  2 26  1  0  0  0  0
  2 27  1  0  0  0  0
  3  4  1  0  0  0  0
  3  6  1  0  0  0  0
  4  5  1  0  0  0  0
  4 28  1  0  0  0  0
  4 29  1  0  0  0  0
  5 30  1  0  0  0  0
  5 31  1  0  0  0  0
  5 32  1  0  0  0  0
  6  7  2  0  0  0  0
  6  8  2  0  0  0  0
  6  9  1  0  0  0  0
  9 10  1  0  0  0  0
 10 11  1  0  0  0  0
 10 33  1  0  0  0  0
 10 34  1  0  0  0  0
 11 16  1  0  0  0  0
 11 12  2  0  0  0  0
 12 13  1  0  0  0  0
 12 35  1  0  0  0  0
 13 14  2  0  0  0  0
 13 36  1  0  0  0  0
 14 15  1  0  0  0  0
 14 37  1  0  0  0  0
 15 16  2  0  0  0  0
 16 17  1  0  0  0  0
 17 22  1  0  0  0  0
 17 18  1  0  0  0  0
 18 19  1  0  0  0  0
 18 38  1  0  0  0  0
 18 39  1  0  0  0  0
 19 20  1  0  0  0  0
 19 40  1  0  0  0  0
 19 41  1  0  0  0  0
 20 21  1  0  0  0  0
 21 22  1  0  0  0  0
 21 42  1  0  0  0  0
 21 43  1  0  0  0  0
 22 44  1  0  0  0  0
 22 45  1  0  0  0  0
M  CHG  1   9  -1
M  END
> <s_m_source_file>
AV-unprocessed.smi

> <i_m_source_file_index>
2107

> <i_lp_mmshare_version>
43012

> <i_f3d_flags>
0

> <s_epik_input>
W0NIM11bQ0gyXU4oW0NIMl1bQ0gzXSlTKD1PKSg9TylbTkhdW0NIMl1jMVtjSF1bY0hdW2NIXW5jMU4yW0NIMl1bQ0gyXU9bQ0gyXVtDSDJdMg==

> <s_epik_cmdline>
J2VwaWtfcHl0aG9uJywgJy1waCcsICc3LjAnLCAnLXRuJywgJzgnLCAnLW1hJywgJzIwMCcsICctbWV0YWxfYmluZGluZycsICctaW1hZScsICc8aW5maWxlLm1hZT4nLCAnLW9tYWUnLCAnPG91dGZpbGUubWFlPic=

> <r_lp_tautomer_probability>
1

> <r_epik_Ionization_Penalty>
2.49252

> <r_epik_Ionization_Penalty_Charging>
2.41478

> <r_epik_Ionization_Penalty_Neutral>
0.0777344

> <r_epik_State_Penalty>
2.68884

> <r_epik_Charging_Adjusted_Penalty>
5.10362

> <i_epik_Tot_Q>
-1

> <i_epik_Tot_abs_Q>
1

> <r_epik_Metal_State_Penalty>
0.584574

> <b_epik_Metal_Only>
0

> <s_lp_Force_Field>
OPLS_2005

> <r_lp_Energy>
22.2252

> <b_lp_Chiralities_Consistent>
1

> <s_lp_Variant>
AV-unprocessed.smi:2107-3

> <Gold.Version>
5.8.1

> <Gold.Id.Protein>
6NUR|6NUR_protein|mol2

> <Gold.PLP.Fitness>
44.6067

> <Gold.PLP.PLP>
-45.8244

> <Gold.PLP.part.hbond>
-1.0000

> <Gold.PLP.part.metal>
0.0000

> <Gold.PLP.part.buried>
-3.4915

> <Gold.PLP.part.nonpolar>
-40.9063

> <Gold.PLP.part.repulsive>
0.7348

> <Gold.PLP.ligand.clash>
0.0000

> <Gold.PLP.ligand.torsion>
2.3522

> <Gold.PLP.Chemscore.Hbond>
0.0281

> <Gold.PLP.Chemscore.CHOScore>
0.0000

> <Gold.PLP.Chemscore.Metal>
0.0000

> <Gold.Chemscore.Hbonds>
donor molecule, donor type, donor heavy atom, donor atom, acceptor molecule, acceptor atom, score
      P1  H  6933  6944       L1     7  0.04

> <Gold.PLP.Chemscore.Internal.Correction>
3.4024

> <Gold.Rescore>
     Score         DG    S(hbond)    S(metal)    S(lipo)     H(rot)  DE(clash)    DE(int)     intcor
      9.99     -13.62       0.00        0.00     105.87       1.66       0.29       3.34       ----

> <Gold.Chemscore.Fitness>
9.9912

> <Gold.Chemscore.DG>
-13.6173

> <Gold.Chemscore.ZeroCoef>
-5.4800

> <Gold.Chemscore.Hbond>
0.0032

> <Gold.Chemscore.Metal>
0.0000

> <Gold.Chemscore.Lipo>
105.8715

> <Gold.Chemscore.Internal_Hbond>
0.0000

> <Gold.Chemscore.DEClash>
0.2894

> <Gold.Chemscore.DEInternal>
3.3367

> <Gold.Chemscore.Rot>
1.6642

> <Gold.Chemscore.Internal.Correction>
   9.000000E+99

> <Gold.Chemscore.Hbonds>
donor molecule, donor type, donor heavy atom, donor atom, acceptor molecule, acceptor atom, score
      P1  H  6933  6944       L1     7  0.04

> <Gold.Chemscore.Hbond.Weighted>
-0.0107

> <Gold.Chemscore.Metal.Weighted>
-0.0000

> <Gold.Chemscore.Lipo.Weighted>
-12.3870

> <Gold.Chemscore.Internal_Hbond.Weighted>
0.0000

> <Gold.Chemscore.DEClash.Weighted>
0.2894

> <Gold.Chemscore.DEInternal.Weighted>
3.3367

> <Gold.Chemscore.Rot.Weighted>
4.2604

> <Gold.Chemscore.Internal.Correction.Weighted>
   9.000000E+99

> <Gold.Protein.RotatedTorsions>
[ 6907 6896 6895 6894 ] final -171.38 input  -60.11 | X-H torsion
[ 7974 7965 7964 7962 ] final  -97.70 input  175.53 | X-H torsion
[ 8008 7997 7996 7995 ] final   90.66 input   59.86 | X-H torsion
[ 10167 10162 10161 10158 ] final   26.66 input  -65.29 | X-H torsion
[ 10718 10713 10712 10709 ] final  -29.63 input   66.30 | X-H torsion
[ 10763 10752 10751 10750 ] final  -80.28 input  -60.55 | X-H torsion
[ 11005 11000 10999 10996 ] final  -12.62 input  -57.11 | X-H torsion

> <Gold.Protein.ActiveResidues>
 VAL166  LYS551  ARG553  GLY616  TRP617  ASP618  TYR619  PRO620  LYS621  CYS622 
 ASP623  PHE694  ASN695  SER759  ASP760  ASP761  ALA762  ILE779  LEU786  VAL792 
 PHE793  MET794  SER795  GLU796  ALA797  LYS798  CYS799  TRP800  GLU811  SER814 

> <Gold.Protein.RotatedAtoms>
  151.5230  133.3463  159.2904 H   0  0  0  0  0  0  0  0  0  0  0  0  # atno 6907 bound_to 6896
  150.8641  134.8002  159.7116 H   0  0  0  0  0  0  0  0  0  0  0  0  # atno 6908 bound_to 6896
  152.4651  134.5103  159.9803 H   0  0  0  0  0  0  0  0  0  0  0  0  # atno 6909 bound_to 6896
  145.3303  140.9440  143.2666 H   0  0  0  0  0  0  0  0  0  0  0  0  # atno 7974 bound_to 7965
  156.0146  140.3347  155.6975 H   0  0  0  0  0  0  0  0  0  0  0  0  # atno 8008 bound_to 7997
  155.6109  140.0665  157.2724 H   0  0  0  0  0  0  0  0  0  0  0  0  # atno 8009 bound_to 7997
  154.4293  140.1793  156.1259 H   0  0  0  0  0  0  0  0  0  0  0  0  # atno 8010 bound_to 7997
  140.5004  144.0324  150.6330 H   0  0  0  0  0  0  0  0  0  0  0  0  # atno 10167 bound_to 10162
  156.4101  130.4406  149.7259 H   0  0  0  0  0  0  0  0  0  0  0  0  # atno 10718 bound_to 10713
  154.5492  135.5666  153.6907 H   0  0  0  0  0  0  0  0  0  0  0  0  # atno 10763 bound_to 10752
  152.9985  135.6247  154.2396 H   0  0  0  0  0  0  0  0  0  0  0  0  # atno 10764 bound_to 10752
  154.2331  135.2865  155.2862 H   0  0  0  0  0  0  0  0  0  0  0  0  # atno 10765 bound_to 10752
  140.7676  133.8464  155.9179 H   0  0  0  0  0  0  0  0  0  0  0  0  # atno 11005 bound_to 11000
  144.8870  139.4826  143.6696 LP  0  0  0  0  0  0  0  0  0  0  0  0  # atno 17320 bound_to 7965
  146.3048  139.7544  142.9064 LP  0  0  0  0  0  0  0  0  0  0  0  0  # atno 17321 bound_to 7965
  140.3619  143.2903  152.0375 LP  0  0  0  0  0  0  0  0  0  0  0  0  # atno 17342 bound_to 10162
  139.4871  144.6297  151.7095 LP  0  0  0  0  0  0  0  0  0  0  0  0  # atno 17343 bound_to 10162
  156.4241  130.7783  151.2801 LP  0  0  0  0  0  0  0  0  0  0  0  0  # atno 17370 bound_to 10713
  157.7507  131.0174  150.3583 LP  0  0  0  0  0  0  0  0  0  0  0  0  # atno 17371 bound_to 10713
  140.9604  134.1663  157.4658 LP  0  0  0  0  0  0  0  0  0  0  0  0  # atno 17394 bound_to 11000
  139.8760  134.9942  156.5684 LP  0  0  0  0  0  0  0  0  0  0  0  0  # atno 17395 bound_to 11000

$$$$
