AV-unprocessed.smi:2763|AV-procd|sdf|10638|dock6
  -GOLD-   2272015 83D 1   1.00000     0.00000
 Structure written by MMmdl.
 37 38  0  0  0  0  0  0  0  0  1 V2000
  143.5927  135.8735  152.8845 O   0  0  0  0  0  0  0  0  0  0  0  0
  143.6553  137.0945  152.7361 C   0  0  0  0  0  0  0  0  0  0  0  0
  144.7514  137.7307  152.2984 N   0  0  0  0  0  0  0  0  0  0  0  0
  146.0072  137.0843  151.9364 C   0  0  0  0  0  0  0  0  0  0  0  0
  145.8223  136.1099  150.7607 C   0  0  0  0  0  0  0  0  0  0  0  0
  145.5160  134.6755  151.2197 C   0  0  2  0  0  0  0  0  0  0  0  0
  146.8003  133.8482  151.4237 C   0  0  0  0  0  0  0  0  0  0  0  0
  146.4560  132.4044  151.8073 C   0  0  0  0  0  0  0  0  0  0  0  0
  145.4853  131.8141  150.7790 C   0  0  0  0  0  0  0  0  0  0  0  0
  144.2718  132.7398  150.5992 C   0  0  0  0  0  0  0  0  0  0  0  0
  144.7083  134.0437  150.2276 O   0  0  0  0  0  0  0  0  0  0  0  0
  142.6588  137.9617  152.9878 N   0  0  0  0  0  0  0  0  0  0  0  0
  141.3409  137.6807  153.4363 C   0  0  0  0  0  0  0  0  0  0  0  0
  140.3628  138.6226  153.0435 C   0  0  0  0  0  0  0  0  0  0  0  0
  139.0228  138.4344  153.4341 C   0  0  0  0  0  0  0  0  0  0  0  0
  138.6967  137.3065  154.2078 C   0  0  0  0  0  0  0  0  0  0  0  0
  137.4220  137.0830  154.6062 F   0  0  0  0  0  0  0  0  0  0  0  0
  139.7291  136.4163  154.5566 C   0  0  0  0  0  0  0  0  0  0  0  0
  141.0140  136.5958  154.1830 N   0  0  0  0  0  0  0  0  0  0  0  0
  144.7158  138.7354  152.2076 H   0  0  0  0  0  0  0  0  0  0  0  0
  146.7625  137.8349  151.6973 H   0  0  0  0  0  0  0  0  0  0  0  0
  146.3711  136.5482  152.8131 H   0  0  0  0  0  0  0  0  0  0  0  0
  145.0229  136.4645  150.1085 H   0  0  0  0  0  0  0  0  0  0  0  0
  146.7304  136.1024  150.1563 H   0  0  0  0  0  0  0  0  0  0  0  0
  144.9620  134.7193  152.1594 H   0  0  0  0  0  0  0  0  0  0  0  0
  147.3905  133.8509  150.5062 H   0  0  0  0  0  0  0  0  0  0  0  0
  147.4227  134.2990  152.1971 H   0  0  0  0  0  0  0  0  0  0  0  0
  147.3613  131.8000  151.8693 H   0  0  0  0  0  0  0  0  0  0  0  0
  145.9982  132.3871  152.7972 H   0  0  0  0  0  0  0  0  0  0  0  0
  145.9943  131.6919  149.8221 H   0  0  0  0  0  0  0  0  0  0  0  0
  145.1608  130.8210  151.0910 H   0  0  0  0  0  0  0  0  0  0  0  0
  143.6164  132.3521  149.8190 H   0  0  0  0  0  0  0  0  0  0  0  0
  143.6801  132.7902  151.5146 H   0  0  0  0  0  0  0  0  0  0  0  0
  142.8646  138.9373  152.8317 H   0  0  0  0  0  0  0  0  0  0  0  0
  140.6323  139.4831  152.4483 H   0  0  0  0  0  0  0  0  0  0  0  0
  138.2605  139.1426  153.1445 H   0  0  0  0  0  0  0  0  0  0  0  0
  139.5200  135.5381  155.1495 H   0  0  0  0  0  0  0  0  0  0  0  0
  1  2  2  0  0  0  0
  2  3  1  0  0  0  0
  2 12  1  0  0  0  0
  3  4  1  0  0  0  0
  3 20  1  0  0  0  0
  4  5  1  0  0  0  0
  4 21  1  0  0  0  0
  4 22  1  0  0  0  0
  5  6  1  0  0  0  0
  5 23  1  0  0  0  0
  5 24  1  0  0  0  0
  6 11  1  0  0  0  0
  6  7  1  0  0  0  0
  6 25  1  0  0  0  0
  7  8  1  0  0  0  0
  7 26  1  0  0  0  0
  7 27  1  0  0  0  0
  8  9  1  0  0  0  0
  8 28  1  0  0  0  0
  8 29  1  0  0  0  0
  9 10  1  0  0  0  0
  9 30  1  0  0  0  0
  9 31  1  0  0  0  0
 10 11  1  0  0  0  0
 10 32  1  0  0  0  0
 10 33  1  0  0  0  0
 12 13  1  0  0  0  0
 12 34  1  0  0  0  0
 13 19  1  0  0  0  0
 13 14  2  0  0  0  0
 14 15  1  0  0  0  0
 14 35  1  0  0  0  0
 15 16  2  0  0  0  0
 15 36  1  0  0  0  0
 16 17  1  0  0  0  0
 16 18  1  0  0  0  0
 18 19  2  0  0  0  0
 18 37  1  0  0  0  0
M  END
> <s_m_source_file>
AV-unprocessed.smi

> <i_m_source_file_index>
2763

> <i_lp_mmshare_version>
43012

> <i_f3d_flags>
0

> <s_epik_input>
bjFbY0hdYyhGKVtjSF1bY0hdYzFbTkhdQyg9TylbTkhdW0NIMl1bQ0gyXVtDQEBIXTJbQ0gyXVtDSDJdW0NIMl1bQ0gyXU8y

> <s_epik_cmdline>
J2VwaWtfcHl0aG9uJywgJy1waCcsICc3LjAnLCAnLXRuJywgJzgnLCAnLW1hJywgJzIwMCcsICctbWV0YWxfYmluZGluZycsICctaW1hZScsICc8aW5maWxlLm1hZT4nLCAnLW9tYWUnLCAnPG91dGZpbGUubWFlPic=

> <r_lp_tautomer_probability>
1

> <r_epik_Ionization_Penalty>
3.67849e-05

> <r_epik_Ionization_Penalty_Charging>
0

> <r_epik_Ionization_Penalty_Neutral>
3.67849e-05

> <r_epik_State_Penalty>
-0

> <r_epik_Charging_Adjusted_Penalty>
0

> <i_epik_Tot_Q>
0

> <i_epik_Tot_abs_Q>
0

> <r_epik_Metal_State_Penalty>
-0

> <b_epik_Metal_Only>
0

> <s_lp_Force_Field>
OPLS_2005

> <r_lp_Energy>
12.1233

> <b_lp_Chiralities_Consistent>
1

> <s_lp_Variant>
AV-unprocessed.smi:2763-1

> <Gold.Version>
5.8.1

> <Gold.Id.Protein>
6NUR|6NUR_protein|mol2

> <Gold.PLP.Fitness>
46.6461

> <Gold.PLP.PLP>
-39.1577

> <Gold.PLP.part.hbond>
-3.0000

> <Gold.PLP.part.metal>
0.0000

> <Gold.PLP.part.buried>
-3.9843

> <Gold.PLP.part.nonpolar>
-33.6069

> <Gold.PLP.part.repulsive>
0.4519

> <Gold.PLP.ligand.clash>
0.0000

> <Gold.PLP.ligand.torsion>
0.7415

> <Gold.PLP.Chemscore.Hbond>
2.0000

> <Gold.PLP.Chemscore.CHOScore>
0.9885

> <Gold.PLP.Chemscore.Metal>
0.0000

> <Gold.Chemscore.Hbonds>
donor molecule, donor type, donor heavy atom, donor atom, acceptor molecule, acceptor atom, score
      L1  H     3    20       P1 10175  0.96
      L1  H    12    34       P1 10175  1.00
      L1  C    18    37       P1 11000  1.00

> <Gold.PLP.Chemscore.Internal.Correction>
0.0059

> <Gold.Rescore>
     Score         DG    S(hbond)    S(metal)    S(lipo)     H(rot)  DE(clash)    DE(int)     intcor
     14.57     -17.04       1.97        0.00      76.17       1.54       0.57       1.90       ----

> <Gold.Chemscore.Fitness>
14.5743

> <Gold.Chemscore.DG>
-17.0433

> <Gold.Chemscore.ZeroCoef>
-5.4800

> <Gold.Chemscore.Hbond>
1.9728

> <Gold.Chemscore.Metal>
0.0000

> <Gold.Chemscore.Lipo>
76.1744

> <Gold.Chemscore.Internal_Hbond>
0.0000

> <Gold.Chemscore.DEClash>
0.5734

> <Gold.Chemscore.DEInternal>
1.8957

> <Gold.Chemscore.Rot>
1.5384

> <Gold.Chemscore.Internal.Correction>
   9.000000E+99

> <Gold.Chemscore.Hbonds>
donor molecule, donor type, donor heavy atom, donor atom, acceptor molecule, acceptor atom, score
      L1  H     3    20       P1 10175  0.87
      L1  H    12    34       P1 10175  1.00

> <Gold.Chemscore.Hbond.Weighted>
-6.5892

> <Gold.Chemscore.Metal.Weighted>
-0.0000

> <Gold.Chemscore.Lipo.Weighted>
-8.9124

> <Gold.Chemscore.Internal_Hbond.Weighted>
0.0000

> <Gold.Chemscore.DEClash.Weighted>
0.5734

> <Gold.Chemscore.DEInternal.Weighted>
1.8957

> <Gold.Chemscore.Rot.Weighted>
3.9382

> <Gold.Chemscore.Internal.Correction.Weighted>
   9.000000E+99

> <Gold.Protein.RotatedTorsions>
[ 6907 6896 6895 6894 ] final  -54.90 input  -60.11 | X-H torsion
[ 7974 7965 7964 7962 ] final    3.27 input  175.53 | X-H torsion
[ 8008 7997 7996 7995 ] final  -77.82 input   59.86 | X-H torsion
[ 10167 10162 10161 10158 ] final  151.65 input  -65.29 | X-H torsion
[ 10718 10713 10712 10709 ] final   17.68 input   66.30 | X-H torsion
[ 10763 10752 10751 10750 ] final  133.79 input  -60.55 | X-H torsion
[ 11005 11000 10999 10996 ] final  -99.83 input  -57.11 | X-H torsion

> <Gold.Protein.ActiveResidues>
 VAL166  LYS551  ARG553  GLY616  TRP617  ASP618  TYR619  PRO620  LYS621  CYS622 
 ASP623  PHE694  ASN695  SER759  ASP760  ASP761  ALA762  ILE779  LEU786  VAL792 
 PHE793  MET794  SER795  GLU796  ALA797  LYS798  CYS799  TRP800  GLU811  SER814 

> <Gold.Protein.RotatedAtoms>
  150.8298  134.7546  159.6843 H   0  0  0  0  0  0  0  0  0  0  0  0  # atno 6907 bound_to 6896
  152.4404  134.5599  159.9901 H   0  0  0  0  0  0  0  0  0  0  0  0  # atno 6908 bound_to 6896
  151.5762  133.3346  159.3035 H   0  0  0  0  0  0  0  0  0  0  0  0  # atno 6909 bound_to 6896
  146.2445  140.0711  142.8362 H   0  0  0  0  0  0  0  0  0  0  0  0  # atno 7974 bound_to 7965
  154.5631  140.0704  156.8850 H   0  0  0  0  0  0  0  0  0  0  0  0  # atno 8008 bound_to 7997
  155.2773  140.3369  155.4242 H   0  0  0  0  0  0  0  0  0  0  0  0  # atno 8009 bound_to 7997
  156.2059  140.1740  156.7787 H   0  0  0  0  0  0  0  0  0  0  0  0  # atno 8010 bound_to 7997
  139.4839  144.5423  151.7543 H   0  0  0  0  0  0  0  0  0  0  0  0  # atno 10167 bound_to 10162
  157.0856  130.6406  149.5836 H   0  0  0  0  0  0  0  0  0  0  0  0  # atno 10718 bound_to 10713
  153.8129  135.3126  155.3402 H   0  0  0  0  0  0  0  0  0  0  0  0  # atno 10763 bound_to 10752
  154.8044  135.4707  154.0358 H   0  0  0  0  0  0  0  0  0  0  0  0  # atno 10764 bound_to 10752
  153.1742  135.6883  153.8654 H   0  0  0  0  0  0  0  0  0  0  0  0  # atno 10765 bound_to 10752
  141.1294  133.8352  157.1024 H   0  0  0  0  0  0  0  0  0  0  0  0  # atno 11005 bound_to 11000
  145.0815  140.9224  143.4822 LP  0  0  0  0  0  0  0  0  0  0  0  0  # atno 17320 bound_to 7965
  145.0865  139.2921  143.5757 LP  0  0  0  0  0  0  0  0  0  0  0  0  # atno 17321 bound_to 7965
  140.4965  144.1233  150.5961 LP  0  0  0  0  0  0  0  0  0  0  0  0  # atno 17342 bound_to 10162
  140.4112  143.2656  151.9831 LP  0  0  0  0  0  0  0  0  0  0  0  0  # atno 17343 bound_to 10162
  155.9912  130.4965  150.7288 LP  0  0  0  0  0  0  0  0  0  0  0  0  # atno 17370 bound_to 10713
  157.4764  131.0898  151.0585 LP  0  0  0  0  0  0  0  0  0  0  0  0  # atno 17371 bound_to 10713
  140.0325  134.9894  157.0808 LP  0  0  0  0  0  0  0  0  0  0  0  0  # atno 17394 bound_to 11000
  140.4262  134.1829  155.7166 LP  0  0  0  0  0  0  0  0  0  0  0  0  # atno 17395 bound_to 11000

$$$$
