AV-unprocessed.smi:391|AV-procd|sdf|2479|dock1
  -GOLD-   2262022423D 1   1.00000     0.00000
 Structure written by MMmdl.
 36 37  0  0  0  0  0  0  0  0  1 V2000
  147.6797  136.5004  162.9033 C   0  0  0  0  0  0  0  0  0  0  0  0
  147.2359  135.4315  161.8960 C   0  0  0  0  0  0  0  0  0  0  0  0
  147.2931  134.0210  162.5038 C   0  0  0  0  0  0  0  0  0  0  0  0
  148.0772  135.5082  160.7054 N   0  0  0  0  0  0  0  0  0  0  0  0
  148.1712  136.5648  159.8838 C   0  0  0  0  0  0  0  0  0  0  0  0
  147.5500  137.6142  160.0588 O   0  0  0  0  0  0  0  0  0  0  0  0
  149.1200  136.3961  158.6874 C   0  0  0  0  0  0  0  0  0  0  0  0
  149.8270  137.6405  158.3129 N   0  0  0  0  0  0  0  0  0  0  0  0
  151.1858  137.7962  158.6885 C   0  0  0  0  0  0  0  0  0  0  0  0
  151.7820  136.9084  159.3004 O   0  0  0  0  0  0  0  0  0  0  0  0
  151.8000  139.0679  158.3134 C   0  0  0  0  0  0  0  0  0  0  0  0
  153.1571  139.2738  158.6977 C   0  0  0  0  0  0  0  0  0  0  0  0
  154.2649  139.4454  158.9858 N   0  0  0  0  0  0  0  0  0  0  0  0
  151.1033  140.0035  157.6361 C   0  0  0  0  0  0  0  0  0  0  0  0
  149.7943  139.8173  157.2489 N   0  0  0  0  0  0  0  0  0  0  0  0
  149.0265  140.8843  156.6717 C   0  0  0  0  0  0  0  0  0  0  0  0
  148.2476  140.6637  155.3894 C   0  0  0  0  0  0  0  0  0  0  0  0
  149.4980  141.5087  155.3769 C   0  0  0  0  0  0  0  0  0  0  0  0
  149.1030  138.6451  157.6257 C   0  0  0  0  0  0  0  0  0  0  0  0
  147.9035  138.5019  157.3749 O   0  0  0  0  0  0  0  0  0  0  0  0
  147.0495  136.4859  163.7928 H   0  0  0  0  0  0  0  0  0  0  0  0
  147.6138  137.4990  162.4700 H   0  0  0  0  0  0  0  0  0  0  0  0
  148.7102  136.3425  163.2236 H   0  0  0  0  0  0  0  0  0  0  0  0
  146.2033  135.6481  161.6162 H   0  0  0  0  0  0  0  0  0  0  0  0
  146.6639  133.9515  163.3915 H   0  0  0  0  0  0  0  0  0  0  0  0
  148.3098  133.7556  162.7958 H   0  0  0  0  0  0  0  0  0  0  0  0
  146.9433  133.2693  161.7956 H   0  0  0  0  0  0  0  0  0  0  0  0
  148.6270  134.6903  160.4852 H   0  0  0  0  0  0  0  0  0  0  0  0
  149.8206  135.5928  158.9204 H   0  0  0  0  0  0  0  0  0  0  0  0
  148.5524  136.0128  157.8374 H   0  0  0  0  0  0  0  0  0  0  0  0
  151.5891  140.9345  157.3811 H   0  0  0  0  0  0  0  0  0  0  0  0
  148.5732  141.5675  157.3877 H   0  0  0  0  0  0  0  0  0  0  0  0
  148.3042  139.6870  154.9124 H   0  0  0  0  0  0  0  0  0  0  0  0
  147.2924  141.1749  155.2906 H   0  0  0  0  0  0  0  0  0  0  0  0
  149.3770  142.5843  155.2665 H   0  0  0  0  0  0  0  0  0  0  0  0
  150.3779  141.0872  154.8942 H   0  0  0  0  0  0  0  0  0  0  0  0
  1  2  1  0  0  0  0
  1 21  1  0  0  0  0
  1 22  1  0  0  0  0
  1 23  1  0  0  0  0
  2  3  1  0  0  0  0
  2  4  1  0  0  0  0
  2 24  1  0  0  0  0
  3 25  1  0  0  0  0
  3 26  1  0  0  0  0
  3 27  1  0  0  0  0
  4  5  1  0  0  0  0
  4 28  1  0  0  0  0
  5  6  2  0  0  0  0
  5  7  1  0  0  0  0
  7  8  1  0  0  0  0
  7 29  1  0  0  0  0
  7 30  1  0  0  0  0
  8 19  1  0  0  0  0
  8  9  1  0  0  0  0
  9 10  2  0  0  0  0
  9 11  1  0  0  0  0
 11 12  1  0  0  0  0
 11 14  2  0  0  0  0
 12 13  3  0  0  0  0
 14 15  1  0  0  0  0
 14 31  1  0  0  0  0
 15 16  1  0  0  0  0
 15 19  1  0  0  0  0
 16 18  1  0  0  0  0
 16 17  1  0  0  0  0
 16 32  1  0  0  0  0
 17 18  1  0  0  0  0
 17 33  1  0  0  0  0
 17 34  1  0  0  0  0
 18 35  1  0  0  0  0
 18 36  1  0  0  0  0
 19 20  2  0  0  0  0
M  END
> <s_m_source_file>
AV-unprocessed.smi

> <i_m_source_file_index>
391

> <i_lp_mmshare_version>
43012

> <i_f3d_flags>
0

> <s_epik_input>
W0NIM11bQ0hdKFtDSDNdKVtOSF1DKD1PKVtDSDJdbjFjKD1PKWMoQyNOKVtjSF1uKGMxPU8pW0NIXTJbQ0gyXVtDSDJdMg==

> <s_epik_cmdline>
J2VwaWtfcHl0aG9uJywgJy1waCcsICc3LjAnLCAnLXRuJywgJzgnLCAnLW1hJywgJzIwMCcsICctbWV0YWxfYmluZGluZycsICctaW1hZScsICc8aW5maWxlLm1hZT4nLCAnLW9tYWUnLCAnPG91dGZpbGUubWFlPic=

> <r_lp_tautomer_probability>
1

> <r_epik_Ionization_Penalty>
2.07526e-08

> <r_epik_Ionization_Penalty_Charging>
8.22213e-11

> <r_epik_Ionization_Penalty_Neutral>
2.06703e-08

> <r_epik_State_Penalty>
-0

> <r_epik_Charging_Adjusted_Penalty>
8.22213e-11

> <i_epik_Tot_Q>
0

> <i_epik_Tot_abs_Q>
0

> <r_epik_Metal_State_Penalty>
-0

> <b_epik_Metal_Only>
0

> <s_lp_Force_Field>
OPLS_2005

> <r_lp_Energy>
27.641

> <b_lp_Chiralities_Consistent>
1

> <s_lp_Variant>
AV-unprocessed.smi:391-1

> <Gold.Version>
5.8.1

> <Gold.Id.Protein>
6NUR|6NUR_protein|mol2

> <Gold.PLP.Fitness>
39.5542

> <Gold.PLP.PLP>
-32.1731

> <Gold.PLP.part.hbond>
-3.7833

> <Gold.PLP.part.metal>
0.0000

> <Gold.PLP.part.buried>
-4.6137

> <Gold.PLP.part.nonpolar>
-24.6567

> <Gold.PLP.part.repulsive>
0.1360

> <Gold.PLP.ligand.clash>
0.0000

> <Gold.PLP.ligand.torsion>
0.6789

> <Gold.PLP.Chemscore.Hbond>
2.8365

> <Gold.PLP.Chemscore.CHOScore>
0.0000

> <Gold.PLP.Chemscore.Metal>
0.0000

> <Gold.Chemscore.Hbonds>
donor molecule, donor type, donor heavy atom, donor atom, acceptor molecule, acceptor atom, score
      P1  H  6896  6909       L1    10  1.00
      P1  H  6934  6947       L1     6  0.83
      P1  H  7997  8010       L1    13  1.00

> <Gold.PLP.Chemscore.Internal.Correction>
0.2293

> <Gold.Rescore>
     Score         DG    S(hbond)    S(metal)    S(lipo)     H(rot)  DE(clash)    DE(int)     intcor
     14.39     -16.47       2.67        0.00      57.44       1.82       0.06       2.02       ----

> <Gold.Chemscore.Fitness>
14.3921

> <Gold.Chemscore.DG>
-16.4664

> <Gold.Chemscore.ZeroCoef>
-5.4800

> <Gold.Chemscore.Hbond>
2.6748

> <Gold.Chemscore.Metal>
0.0000

> <Gold.Chemscore.Lipo>
57.4397

> <Gold.Chemscore.Internal_Hbond>
0.0000

> <Gold.Chemscore.DEClash>
0.0570

> <Gold.Chemscore.DEInternal>
2.0173

> <Gold.Chemscore.Rot>
1.8234

> <Gold.Chemscore.Internal.Correction>
   9.000000E+99

> <Gold.Chemscore.Hbonds>
donor molecule, donor type, donor heavy atom, donor atom, acceptor molecule, acceptor atom, score
      P1  H  6896  6909       L1    10  0.98
      P1  H  6934  6947       L1     6  0.83
      P1  H  7997  8010       L1    13  0.58

> <Gold.Chemscore.Hbond.Weighted>
-8.9339

> <Gold.Chemscore.Metal.Weighted>
-0.0000

> <Gold.Chemscore.Lipo.Weighted>
-6.7204

> <Gold.Chemscore.Internal_Hbond.Weighted>
0.0000

> <Gold.Chemscore.DEClash.Weighted>
0.0570

> <Gold.Chemscore.DEInternal.Weighted>
2.0173

> <Gold.Chemscore.Rot.Weighted>
4.6680

> <Gold.Chemscore.Internal.Correction.Weighted>
   9.000000E+99

> <Gold.Protein.RotatedTorsions>
[ 6907 6896 6895 6894 ] final  114.43 input  -60.11 | X-H torsion
[ 7974 7965 7964 7962 ] final -162.68 input  175.53 | X-H torsion
[ 8008 7997 7996 7995 ] final   -6.78 input   59.86 | X-H torsion
[ 10167 10162 10161 10158 ] final  150.86 input  -65.29 | X-H torsion
[ 10718 10713 10712 10709 ] final  114.91 input   66.30 | X-H torsion
[ 10763 10752 10751 10750 ] final   94.44 input  -60.55 | X-H torsion
[ 11005 11000 10999 10996 ] final -173.32 input  -57.11 | X-H torsion

> <Gold.Protein.ActiveResidues>
 VAL166  LYS551  ARG553  GLY616  TRP617  ASP618  TYR619  PRO620  LYS621  CYS622 
 ASP623  PHE694  ASN695  SER759  ASP760  ASP761  ALA762  ILE779  LEU786  VAL792 
 PHE793  MET794  SER795  GLU796  ALA797  LYS798  CYS799  TRP800  GLU811  SER814 

> <Gold.Protein.RotatedAtoms>
  152.4803  133.8237  159.7066 H   0  0  0  0  0  0  0  0  0  0  0  0  # atno 6907 bound_to 6896
  150.8847  133.7314  159.2928 H   0  0  0  0  0  0  0  0  0  0  0  0  # atno 6908 bound_to 6896
  151.4806  135.1055  159.9829 H   0  0  0  0  0  0  0  0  0  0  0  0  # atno 6909 bound_to 6896
  144.7350  140.3218  143.6169 H   0  0  0  0  0  0  0  0  0  0  0  0  # atno 7974 bound_to 7965
  154.5904  140.2424  155.7929 H   0  0  0  0  0  0  0  0  0  0  0  0  # atno 8008 bound_to 7997
  156.2243  140.2987  155.9982 H   0  0  0  0  0  0  0  0  0  0  0  0  # atno 8009 bound_to 7997
  155.2384  140.0406  157.2962 H   0  0  0  0  0  0  0  0  0  0  0  0  # atno 8010 bound_to 7997
  139.4846  144.5488  151.7438 H   0  0  0  0  0  0  0  0  0  0  0  0  # atno 10167 bound_to 10162
  157.6253  131.1005  150.7254 H   0  0  0  0  0  0  0  0  0  0  0  0  # atno 10718 bound_to 10713
  153.2417  135.4289  155.0705 H   0  0  0  0  0  0  0  0  0  0  0  0  # atno 10763 bound_to 10752
  154.8343  135.3404  154.6639 H   0  0  0  0  0  0  0  0  0  0  0  0  # atno 10764 bound_to 10752
  153.7063  135.7025  153.5106 H   0  0  0  0  0  0  0  0  0  0  0  0  # atno 10765 bound_to 10752
  140.4871  134.6020  157.4941 H   0  0  0  0  0  0  0  0  0  0  0  0  # atno 11005 bound_to 11000
  145.7561  139.1809  143.2294 LP  0  0  0  0  0  0  0  0  0  0  0  0  # atno 17320 bound_to 7965
  146.1023  140.7529  142.9543 LP  0  0  0  0  0  0  0  0  0  0  0  0  # atno 17321 bound_to 7965
  140.5038  144.1128  150.5977 LP  0  0  0  0  0  0  0  0  0  0  0  0  # atno 17342 bound_to 10162
  140.4031  143.2694  151.9924 LP  0  0  0  0  0  0  0  0  0  0  0  0  # atno 17343 bound_to 10162
  156.7604  130.4797  149.5438 LP  0  0  0  0  0  0  0  0  0  0  0  0  # atno 17370 bound_to 10713
  156.1422  130.6252  151.0482 LP  0  0  0  0  0  0  0  0  0  0  0  0  # atno 17371 bound_to 10713
  139.9791  134.7166  155.9892 LP  0  0  0  0  0  0  0  0  0  0  0  0  # atno 17394 bound_to 11000
  141.1503  133.6549  156.3991 LP  0  0  0  0  0  0  0  0  0  0  0  0  # atno 17395 bound_to 11000

$$$$
