AV-unprocessed.smi:1302|AV-procd|sdf|5425|dock1
  -GOLD-   22720 4583D 1   1.00000     0.00000
 Structure written by MMmdl.
 43 44  0  0  0  0  0  0  0  0  1 V2000
  152.7177  144.9546  157.9603 C   0  0  0  0  0  0  0  0  0  0  0  0
  151.8389  144.3604  159.0723 C   0  0  0  0  0  0  0  0  0  0  0  0
  151.8151  145.2581  160.3163 C   0  0  0  0  0  0  0  0  0  0  0  0
  152.3161  143.0311  159.4415 N   0  0  0  0  0  0  0  0  0  0  0  0
  152.0474  141.8941  158.7779 C   0  0  0  0  0  0  0  0  0  0  0  0
  151.3303  141.8413  157.7783 O   0  0  0  0  0  0  0  0  0  0  0  0
  152.6316  140.6445  159.3704 C   0  0  0  0  0  0  0  0  0  0  0  0
  152.0225  139.3915  159.1513 C   0  0  0  0  0  0  0  0  0  0  0  0
  152.6105  138.2365  159.7016 C   0  0  0  0  0  0  0  0  0  0  0  0
  153.8016  138.3592  160.4554 C   0  0  0  0  0  0  0  0  0  0  0  0
  154.4065  137.2147  161.0190 N   0  0  0  0  0  0  0  0  0  0  0  0
  154.6961  136.1289  160.0862 C   0  0  0  0  0  0  0  0  0  0  0  0
  155.6261  135.0902  160.7414 C   0  0  2  0  0  0  0  0  0  0  0  0
  155.8530  133.8724  159.8395 C   0  0  0  0  0  0  0  0  0  0  0  0
  155.0428  134.6400  161.9609 O   0  0  0  0  0  0  0  0  0  0  0  0
  154.8706  135.6942  162.9037 C   0  0  2  0  0  0  0  0  0  0  0  0
  154.3312  135.0925  164.2054 C   0  0  0  0  0  0  0  0  0  0  0  0
  153.9148  136.7470  162.3133 C   0  0  0  0  0  0  0  0  0  0  0  0
  154.3959  139.5623  160.6492 N   0  0  0  0  0  0  0  0  0  0  0  0
  153.8284  140.6668  160.1205 C   0  0  0  0  0  0  0  0  0  0  0  0
  152.3645  145.9444  157.6706 H   0  0  0  0  0  0  0  0  0  0  0  0
  152.7046  144.3282  157.0679 H   0  0  0  0  0  0  0  0  0  0  0  0
  153.7548  145.0529  158.2834 H   0  0  0  0  0  0  0  0  0  0  0  0
  150.8155  144.2825  158.7011 H   0  0  0  0  0  0  0  0  0  0  0  0
  151.4352  146.2513  160.0749 H   0  0  0  0  0  0  0  0  0  0  0  0
  152.8126  145.3779  160.7405 H   0  0  0  0  0  0  0  0  0  0  0  0
  151.1711  144.8394  161.0906 H   0  0  0  0  0  0  0  0  0  0  0  0
  152.8954  142.9709  160.2664 H   0  0  0  0  0  0  0  0  0  0  0  0
  151.1153  139.3079  158.5702 H   0  0  0  0  0  0  0  0  0  0  0  0
  152.1518  137.2749  159.5262 H   0  0  0  0  0  0  0  0  0  0  0  0
  153.7554  135.6601  159.7942 H   0  0  0  0  0  0  0  0  0  0  0  0
  155.1625  136.4966  159.1732 H   0  0  0  0  0  0  0  0  0  0  0  0
  156.5938  135.5477  160.9555 H   0  0  0  0  0  0  0  0  0  0  0  0
  156.3135  134.1637  158.8952 H   0  0  0  0  0  0  0  0  0  0  0  0
  154.9129  133.3687  159.6127 H   0  0  0  0  0  0  0  0  0  0  0  0
  156.5110  133.1485  160.3209 H   0  0  0  0  0  0  0  0  0  0  0  0
  155.8395  136.1524  163.1099 H   0  0  0  0  0  0  0  0  0  0  0  0
  154.1896  135.8622  164.9645 H   0  0  0  0  0  0  0  0  0  0  0  0
  155.0228  134.3520  164.6079 H   0  0  0  0  0  0  0  0  0  0  0  0
  153.3719  134.5997  164.0445 H   0  0  0  0  0  0  0  0  0  0  0  0
  153.8271  137.5845  163.0067 H   0  0  0  0  0  0  0  0  0  0  0  0
  152.9182  136.3218  162.1859 H   0  0  0  0  0  0  0  0  0  0  0  0
  154.3563  141.5915  160.3034 H   0  0  0  0  0  0  0  0  0  0  0  0
  1  2  1  0  0  0  0
  1 21  1  0  0  0  0
  1 22  1  0  0  0  0
  1 23  1  0  0  0  0
  2  3  1  0  0  0  0
  2  4  1  0  0  0  0
  2 24  1  0  0  0  0
  3 25  1  0  0  0  0
  3 26  1  0  0  0  0
  3 27  1  0  0  0  0
  4  5  1  0  0  0  0
  4 28  1  0  0  0  0
  5  6  2  0  0  0  0
  5  7  1  0  0  0  0
  7 20  1  0  0  0  0
  7  8  2  0  0  0  0
  8  9  1  0  0  0  0
  8 29  1  0  0  0  0
  9 10  2  0  0  0  0
  9 30  1  0  0  0  0
 10 11  1  0  0  0  0
 10 19  1  0  0  0  0
 11 18  1  0  0  0  0
 11 12  1  0  0  0  0
 12 13  1  0  0  0  0
 12 31  1  0  0  0  0
 12 32  1  0  0  0  0
 13 14  1  0  0  0  0
 13 15  1  0  0  0  0
 13 33  1  0  0  0  0
 14 34  1  0  0  0  0
 14 35  1  0  0  0  0
 14 36  1  0  0  0  0
 15 16  1  0  0  0  0
 16 17  1  0  0  0  0
 16 18  1  0  0  0  0
 16 37  1  0  0  0  0
 17 38  1  0  0  0  0
 17 39  1  0  0  0  0
 17 40  1  0  0  0  0
 18 41  1  0  0  0  0
 18 42  1  0  0  0  0
 19 20  2  0  0  0  0
 20 43  1  0  0  0  0
M  END
> <s_m_source_file>
AV-unprocessed.smi

> <i_m_source_file_index>
1302

> <i_lp_mmshare_version>
43012

> <i_f3d_flags>
0

> <s_epik_input>
W0NIM11bQ0hdKFtDSDNdKVtOSF1DKD1PKWMxW2NIXVtjSF1jKG5bY0hdMSlOMltDSDJdW0NAQEhdKFtDSDNdKU9bQ0BASF0oW0NIM10pW0NIMl0y

> <s_epik_cmdline>
J2VwaWtfcHl0aG9uJywgJy1waCcsICc3LjAnLCAnLXRuJywgJzgnLCAnLW1hJywgJzIwMCcsICctbWV0YWxfYmluZGluZycsICctaW1hZScsICc8aW5maWxlLm1hZT4nLCAnLW9tYWUnLCAnPG91dGZpbGUubWFlPic=

> <r_lp_tautomer_probability>
1

> <r_epik_Ionization_Penalty>
2.23089e-05

> <r_epik_Ionization_Penalty_Charging>
0

> <r_epik_Ionization_Penalty_Neutral>
2.23089e-05

> <r_epik_State_Penalty>
-0

> <r_epik_Charging_Adjusted_Penalty>
0

> <i_epik_Tot_Q>
0

> <i_epik_Tot_abs_Q>
0

> <r_epik_Metal_State_Penalty>
-0

> <b_epik_Metal_Only>
0

> <s_lp_Force_Field>
OPLS_2005

> <r_lp_Energy>
16.9164

> <b_lp_Chiralities_Consistent>
1

> <s_lp_Variant>
AV-unprocessed.smi:1302-1

> <Gold.Version>
5.8.1

> <Gold.Id.Protein>
6NUR|6NUR_protein|mol2

> <Gold.PLP.Fitness>
34.6812

> <Gold.PLP.PLP>
-36.3111

> <Gold.PLP.part.hbond>
0.0000

> <Gold.PLP.part.metal>
0.0000

> <Gold.PLP.part.buried>
-6.4239

> <Gold.PLP.part.nonpolar>
-29.6628

> <Gold.PLP.part.repulsive>
0.0770

> <Gold.PLP.ligand.clash>
0.0000

> <Gold.PLP.ligand.torsion>
0.9890

> <Gold.PLP.Chemscore.Hbond>
0.0000

> <Gold.PLP.Chemscore.CHOScore>
0.0000

> <Gold.PLP.Chemscore.Metal>
0.0000

> <Gold.PLP.Chemscore.Internal.Correction>
0.3480

> <Gold.Rescore>
     Score         DG    S(hbond)    S(metal)    S(lipo)     H(rot)  DE(clash)    DE(int)     intcor
     13.92     -14.85       0.00        0.00     105.26       1.15       0.08       0.86       ----

> <Gold.Chemscore.Fitness>
13.9159

> <Gold.Chemscore.DG>
-14.8493

> <Gold.Chemscore.ZeroCoef>
-5.4800

> <Gold.Chemscore.Hbond>
0.0000

> <Gold.Chemscore.Metal>
0.0000

> <Gold.Chemscore.Lipo>
105.2602

> <Gold.Chemscore.Internal_Hbond>
0.0000

> <Gold.Chemscore.DEClash>
0.0755

> <Gold.Chemscore.DEInternal>
0.8579

> <Gold.Chemscore.Rot>
1.1508

> <Gold.Chemscore.Internal.Correction>
   9.000000E+99

> <Gold.Chemscore.Hbond.Weighted>
-0.0000

> <Gold.Chemscore.Metal.Weighted>
-0.0000

> <Gold.Chemscore.Lipo.Weighted>
-12.3154

> <Gold.Chemscore.Internal_Hbond.Weighted>
0.0000

> <Gold.Chemscore.DEClash.Weighted>
0.0755

> <Gold.Chemscore.DEInternal.Weighted>
0.8579

> <Gold.Chemscore.Rot.Weighted>
2.9461

> <Gold.Chemscore.Internal.Correction.Weighted>
   9.000000E+99

> <Gold.Protein.RotatedTorsions>
[ 6907 6896 6895 6894 ] final -130.31 input  -60.11 | X-H torsion
[ 7974 7965 7964 7962 ] final   41.64 input  175.53 | X-H torsion
[ 8008 7997 7996 7995 ] final  -15.59 input   59.86 | X-H torsion
[ 10167 10162 10161 10158 ] final  -60.16 input  -65.29 | X-H torsion
[ 10718 10713 10712 10709 ] final  166.84 input   66.30 | X-H torsion
[ 10763 10752 10751 10750 ] final  -81.12 input  -60.55 | X-H torsion
[ 11005 11000 10999 10996 ] final   -0.27 input  -57.11 | X-H torsion

> <Gold.Protein.ActiveResidues>
 VAL166  LYS551  ARG553  GLY616  TRP617  ASP618  TYR619  PRO620  LYS621  CYS622 
 ASP623  PHE694  ASN695  SER759  ASP760  ASP761  ALA762  ILE779  LEU786  VAL792 
 PHE793  MET794  SER795  GLU796  ALA797  LYS798  CYS799  TRP800  GLU811  SER814 

> <Gold.Protein.RotatedAtoms>
  150.9383  133.6686  159.2795 H   0  0  0  0  0  0  0  0  0  0  0  0  # atno 6907 bound_to 6896
  151.4084  135.0980  159.9587 H   0  0  0  0  0  0  0  0  0  0  0  0  # atno 6908 bound_to 6896
  152.5058  133.8861  159.7425 H   0  0  0  0  0  0  0  0  0  0  0  0  # atno 6909 bound_to 6896
  146.0807  139.5392  142.9539 H   0  0  0  0  0  0  0  0  0  0  0  0  # atno 7974 bound_to 7965
  154.5119  140.2192  155.9140 H   0  0  0  0  0  0  0  0  0  0  0  0  # atno 8008 bound_to 7997
  156.1562  140.3151  155.8696 H   0  0  0  0  0  0  0  0  0  0  0  0  # atno 8009 bound_to 7997
  155.3842  140.0474  157.3033 H   0  0  0  0  0  0  0  0  0  0  0  0  # atno 8010 bound_to 7997
  140.6089  143.2381  151.5756 H   0  0  0  0  0  0  0  0  0  0  0  0  # atno 10167 bound_to 10162
  157.0601  131.0337  151.2650 H   0  0  0  0  0  0  0  0  0  0  0  0  # atno 10718 bound_to 10713
  154.5597  135.5637  153.6996 H   0  0  0  0  0  0  0  0  0  0  0  0  # atno 10763 bound_to 10752
  153.0014  135.6271  154.2262 H   0  0  0  0  0  0  0  0  0  0  0  0  # atno 10764 bound_to 10752
  154.2199  135.2870  155.2908 H   0  0  0  0  0  0  0  0  0  0  0  0  # atno 10765 bound_to 10752
  140.6344  133.9546  155.8292 H   0  0  0  0  0  0  0  0  0  0  0  0  # atno 11005 bound_to 11000
  145.6224  141.0320  143.1908 LP  0  0  0  0  0  0  0  0  0  0  0  0  # atno 17320 bound_to 7965
  144.7291  139.7781  143.7354 LP  0  0  0  0  0  0  0  0  0  0  0  0  # atno 17321 bound_to 7965
  139.5346  144.2818  152.1223 LP  0  0  0  0  0  0  0  0  0  0  0  0  # atno 17342 bound_to 10162
  140.2013  144.4655  150.6430 LP  0  0  0  0  0  0  0  0  0  0  0  0  # atno 17343 bound_to 10162
  157.4961  130.7851  149.7557 LP  0  0  0  0  0  0  0  0  0  0  0  0  # atno 17370 bound_to 10713
  155.9981  130.3896  150.2715 LP  0  0  0  0  0  0  0  0  0  0  0  0  # atno 17371 bound_to 10713
  141.0652  134.0287  157.3604 LP  0  0  0  0  0  0  0  0  0  0  0  0  # atno 17394 bound_to 11000
  139.9104  135.0189  156.7665 LP  0  0  0  0  0  0  0  0  0  0  0  0  # atno 17395 bound_to 11000

$$$$
