AV-unprocessed.smi:2713|AV-procd|sdf|10478|dock1
  -GOLD-   2272014523D 1   1.00000     0.00000
 Structure written by MMmdl.
 53 54  0  0  0  0  0  0  0  0  2 V2000
  145.8461  131.2950  152.1491 C   0  0  0  0  0  0  0  0  0  0  0  0
  145.4214  132.6516  151.5446 C   0  0  0  0  0  0  0  0  0  0  0  0
  146.0605  132.7353  150.1419 C   0  0  0  0  0  0  0  0  0  0  0  0
  143.8913  132.6765  151.3591 C   0  0  0  0  0  0  0  0  0  0  0  0
  145.9705  133.8604  152.3733 C   0  0  0  0  0  0  0  0  0  0  0  0
  145.3939  135.3071  152.2210 C   0  0  0  0  0  0  0  0  0  0  0  0
  145.2457  135.7285  150.7472 C   0  0  0  0  0  0  0  0  0  0  0  0
  143.9751  135.3246  152.8332 C   0  0  0  0  0  0  0  0  0  0  0  0
  146.2384  136.3316  152.8950 N   0  3  0  0  0  0  0  0  0  0  0  0
  145.7096  137.7102  153.0171 C   0  0  0  0  0  0  0  0  0  0  0  0
  146.6115  138.5393  153.9075 C   0  0  0  0  0  0  0  0  0  0  0  0
  147.8997  138.9380  153.4980 C   0  0  0  0  0  0  0  0  0  0  0  0
  148.7009  139.6720  154.2980 N   0  0  0  0  0  0  0  0  0  0  0  0
  148.2354  140.0189  155.5065 C   0  0  0  0  0  0  0  0  0  0  0  0
  149.0734  140.7789  156.3325 N   0  0  0  0  0  0  0  0  0  0  0  0
  148.7482  141.0360  157.7378 C   0  0  0  0  0  0  0  0  0  0  0  0
  149.3062  142.3959  158.1902 C   0  0  0  0  0  0  0  0  0  0  0  0
  150.7042  142.4517  157.9366 O   0  0  0  0  0  0  0  0  0  0  0  0
  150.9874  142.3308  156.5483 C   0  0  0  0  0  0  0  0  0  0  0  0
  150.4955  140.9675  156.0335 C   0  0  0  0  0  0  0  0  0  0  0  0
  147.0260  139.6903  155.9821 N   0  0  0  0  0  0  0  0  0  0  0  0
  146.2127  138.9584  155.1925 C   0  0  0  0  0  0  0  0  0  0  0  0
  145.6118  130.4744  151.4698 H   0  0  0  0  0  0  0  0  0  0  0  0
  145.3400  131.0667  153.0834 H   0  0  0  0  0  0  0  0  0  0  0  0
  146.9196  131.2589  152.3369 H   0  0  0  0  0  0  0  0  0  0  0  0
  147.1496  132.7121  150.1986 H   0  0  0  0  0  0  0  0  0  0  0  0
  145.7794  133.6545  149.6263 H   0  0  0  0  0  0  0  0  0  0  0  0
  145.7506  131.9037  149.5074 H   0  0  0  0  0  0  0  0  0  0  0  0
  143.5635  131.8701  150.7019 H   0  0  0  0  0  0  0  0  0  0  0  0
  143.5586  133.6112  150.9085 H   0  0  0  0  0  0  0  0  0  0  0  0
  143.3612  132.5456  152.3016 H   0  0  0  0  0  0  0  0  0  0  0  0
  145.8838  133.5837  153.4252 H   0  0  0  0  0  0  0  0  0  0  0  0
  147.0478  133.9181  152.2194 H   0  0  0  0  0  0  0  0  0  0  0  0
  144.7306  134.9663  150.1616 H   0  0  0  0  0  0  0  0  0  0  0  0
  146.2093  135.9263  150.2803 H   0  0  0  0  0  0  0  0  0  0  0  0
  144.6690  136.6501  150.6576 H   0  0  0  0  0  0  0  0  0  0  0  0
  143.2915  134.6968  152.2601 H   0  0  0  0  0  0  0  0  0  0  0  0
  143.5555  136.3315  152.8470 H   0  0  0  0  0  0  0  0  0  0  0  0
  143.9620  134.9469  153.8558 H   0  0  0  0  0  0  0  0  0  0  0  0
  146.4382  135.9952  153.8263 H   0  0  0  0  0  0  0  0  0  0  0  0
  145.6476  138.1925  152.0420 H   0  0  0  0  0  0  0  0  0  0  0  0
  144.7074  137.7082  153.4438 H   0  0  0  0  0  0  0  0  0  0  0  0
  148.2919  138.6640  152.5298 H   0  0  0  0  0  0  0  0  0  0  0  0
  147.6742  141.0304  157.9214 H   0  0  0  0  0  0  0  0  0  0  0  0
  149.1754  140.2368  158.3444 H   0  0  0  0  0  0  0  0  0  0  0  0
  148.7982  143.2149  157.6785 H   0  0  0  0  0  0  0  0  0  0  0  0
  149.1344  142.5340  159.2578 H   0  0  0  0  0  0  0  0  0  0  0  0
  150.5187  143.1477  155.9970 H   0  0  0  0  0  0  0  0  0  0  0  0
  152.0631  142.4222  156.3973 H   0  0  0  0  0  0  0  0  0  0  0  0
  151.0618  140.1628  156.5035 H   0  0  0  0  0  0  0  0  0  0  0  0
  150.6988  140.9153  154.9640 H   0  0  0  0  0  0  0  0  0  0  0  0
  145.2429  138.7022  155.5927 H   0  0  0  0  0  0  0  0  0  0  0  0
  147.1109  136.3840  152.3888 H   0  0  0  0  0  0  0  0  0  0  0  0
  1  2  1  0  0  0  0
  1 23  1  0  0  0  0
  1 24  1  0  0  0  0
  1 25  1  0  0  0  0
  2  3  1  0  0  0  0
  2  4  1  0  0  0  0
  2  5  1  0  0  0  0
  3 26  1  0  0  0  0
  3 27  1  0  0  0  0
  3 28  1  0  0  0  0
  4 29  1  0  0  0  0
  4 30  1  0  0  0  0
  4 31  1  0  0  0  0
  5  6  1  0  0  0  0
  5 32  1  0  0  0  0
  5 33  1  0  0  0  0
  6  7  1  0  0  0  0
  6  8  1  0  0  0  0
  6  9  1  0  0  0  0
  7 34  1  0  0  0  0
  7 35  1  0  0  0  0
  7 36  1  0  0  0  0
  8 37  1  0  0  0  0
  8 38  1  0  0  0  0
  8 39  1  0  0  0  0
  9 10  1  0  0  0  0
  9 40  1  0  0  0  0
  9 53  1  0  0  0  0
 10 11  1  0  0  0  0
 10 41  1  0  0  0  0
 10 42  1  0  0  0  0
 11 22  1  0  0  0  0
 11 12  2  0  0  0  0
 12 13  1  0  0  0  0
 12 43  1  0  0  0  0
 13 14  2  0  0  0  0
 14 15  1  0  0  0  0
 14 21  1  0  0  0  0
 15 20  1  0  0  0  0
 15 16  1  0  0  0  0
 16 17  1  0  0  0  0
 16 44  1  0  0  0  0
 16 45  1  0  0  0  0
 17 18  1  0  0  0  0
 17 46  1  0  0  0  0
 17 47  1  0  0  0  0
 18 19  1  0  0  0  0
 19 20  1  0  0  0  0
 19 48  1  0  0  0  0
 19 49  1  0  0  0  0
 20 50  1  0  0  0  0
 20 51  1  0  0  0  0
 21 22  2  0  0  0  0
 22 52  1  0  0  0  0
M  CHG  1   9   1
M  END
> <s_m_source_file>
AV-unprocessed.smi

> <i_m_source_file_index>
2713

> <i_lp_mmshare_version>
43012

> <i_f3d_flags>
0

> <s_epik_input>
W0NIM11DKFtDSDNdKShbQ0gzXSlbQ0gyXUMoW0NIM10pKFtDSDNdKVtOSF1bQ0gyXWMxW2NIXW5jKG5bY0hdMSlOMltDSDJdW0NIMl1PW0NIMl1bQ0gyXTI=

> <s_epik_cmdline>
J2VwaWtfcHl0aG9uJywgJy1waCcsICc3LjAnLCAnLXRuJywgJzgnLCAnLW1hJywgJzIwMCcsICctbWV0YWxfYmluZGluZycsICctaW1hZScsICc8aW5maWxlLm1hZT4nLCAnLW9tYWUnLCAnPG91dGZpbGUubWFlPic=

> <r_lp_tautomer_probability>
1

> <r_epik_Ionization_Penalty>
0.036663

> <r_epik_Ionization_Penalty_Charging>
0.0366608

> <r_epik_Ionization_Penalty_Neutral>
2.19352e-06

> <r_epik_State_Penalty>
0.0306388

> <r_epik_Charging_Adjusted_Penalty>
0.0672996

> <i_epik_Tot_Q>
1

> <i_epik_Tot_abs_Q>
1

> <r_epik_Metal_State_Penalty>
0.0306391

> <b_epik_Metal_Only>
0

> <s_lp_Force_Field>
OPLS_2005

> <r_lp_Energy>
26.4039

> <b_lp_Chiralities_Consistent>
1

> <s_lp_Variant>
AV-unprocessed.smi:2713-1

> <Gold.Version>
5.8.1

> <Gold.Id.Protein>
6NUR|6NUR_protein|mol2

> <Gold.PLP.Fitness>
41.5830

> <Gold.PLP.PLP>
-30.9352

> <Gold.PLP.part.hbond>
-1.0000

> <Gold.PLP.part.metal>
0.0000

> <Gold.PLP.part.buried>
-5.1983

> <Gold.PLP.part.nonpolar>
-25.3322

> <Gold.PLP.part.repulsive>
0.2373

> <Gold.PLP.ligand.clash>
0.0000

> <Gold.PLP.ligand.torsion>
0.5915

> <Gold.PLP.Chemscore.Hbond>
2.0000

> <Gold.PLP.Chemscore.CHOScore>
1.8282

> <Gold.PLP.Chemscore.Metal>
0.0000

> <Gold.Chemscore.Hbonds>
donor molecule, donor type, donor heavy atom, donor atom, acceptor molecule, acceptor atom, score
      L1  H     9    53       P1  7948  2.00
      L1  C    12    43       P1  7948  0.80
      L1  C    12    43       P1  7957  0.93

> <Gold.PLP.Chemscore.Internal.Correction>
0.3462

> <Gold.Rescore>
     Score         DG    S(hbond)    S(metal)    S(lipo)     H(rot)  DE(clash)    DE(int)     intcor
     13.86     -15.30       1.00        0.00      88.96       1.53       0.76       0.69       ----

> <Gold.Chemscore.Fitness>
13.8564

> <Gold.Chemscore.DG>
-15.2987

> <Gold.Chemscore.ZeroCoef>
-5.4800

> <Gold.Chemscore.Hbond>
0.9986

> <Gold.Chemscore.Metal>
0.0000

> <Gold.Chemscore.Lipo>
88.9628

> <Gold.Chemscore.Internal_Hbond>
0.0000

> <Gold.Chemscore.DEClash>
0.7570

> <Gold.Chemscore.DEInternal>
0.6853

> <Gold.Chemscore.Rot>
1.5332

> <Gold.Chemscore.Internal.Correction>
   9.000000E+99

> <Gold.Chemscore.Hbonds>
donor molecule, donor type, donor heavy atom, donor atom, acceptor molecule, acceptor atom, score
      L1  H     9    53       P1  7948  1.00

> <Gold.Chemscore.Hbond.Weighted>
-3.3352

> <Gold.Chemscore.Metal.Weighted>
-0.0000

> <Gold.Chemscore.Lipo.Weighted>
-10.4086

> <Gold.Chemscore.Internal_Hbond.Weighted>
0.0000

> <Gold.Chemscore.DEClash.Weighted>
0.7570

> <Gold.Chemscore.DEInternal.Weighted>
0.6853

> <Gold.Chemscore.Rot.Weighted>
3.9251

> <Gold.Chemscore.Internal.Correction.Weighted>
   9.000000E+99

> <Gold.Protein.RotatedTorsions>
[ 6907 6896 6895 6894 ] final  -82.51 input  -60.11 | X-H torsion
[ 7974 7965 7964 7962 ] final  178.24 input  175.53 | X-H torsion
[ 8008 7997 7996 7995 ] final   62.41 input   59.86 | X-H torsion
[ 10167 10162 10161 10158 ] final -111.20 input  -65.29 | X-H torsion
[ 10718 10713 10712 10709 ] final   25.11 input   66.30 | X-H torsion
[ 10763 10752 10751 10750 ] final   47.04 input  -60.55 | X-H torsion
[ 11005 11000 10999 10996 ] final    5.82 input  -57.11 | X-H torsion

> <Gold.Protein.ActiveResidues>
 VAL166  LYS551  ARG553  GLY616  TRP617  ASP618  TYR619  PRO620  LYS621  CYS622 
 ASP623  PHE694  ASN695  SER759  ASP760  ASP761  ALA762  ILE779  LEU786  VAL792 
 PHE793  MET794  SER795  GLU796  ALA797  LYS798  CYS799  TRP800  GLU811  SER814 

> <Gold.Protein.RotatedAtoms>
  150.6896  134.3654  159.4968 H   0  0  0  0  0  0  0  0  0  0  0  0  # atno 6907 bound_to 6896
  152.1477  134.9010  160.0559 H   0  0  0  0  0  0  0  0  0  0  0  0  # atno 6908 bound_to 6896
  152.0120  133.3830  159.4260 H   0  0  0  0  0  0  0  0  0  0  0  0  # atno 6909 bound_to 6896
  144.7158  140.0368  143.6438 H   0  0  0  0  0  0  0  0  0  0  0  0  # atno 7974 bound_to 7965
  155.6139  140.3495  155.4631 H   0  0  0  0  0  0  0  0  0  0  0  0  # atno 8008 bound_to 7997
  156.0132  140.1238  157.0457 H   0  0  0  0  0  0  0  0  0  0  0  0  # atno 8009 bound_to 7997
  154.4288  140.1077  156.5845 H   0  0  0  0  0  0  0  0  0  0  0  0  # atno 8010 bound_to 7997
  140.1361  143.4319  152.1594 H   0  0  0  0  0  0  0  0  0  0  0  0  # atno 10167 bound_to 10162
  157.1889  130.6837  149.6142 H   0  0  0  0  0  0  0  0  0  0  0  0  # atno 10718 bound_to 10713
  152.9804  135.5989  154.3698 H   0  0  0  0  0  0  0  0  0  0  0  0  # atno 10763 bound_to 10752
  154.3372  135.2768  155.2443 H   0  0  0  0  0  0  0  0  0  0  0  0  # atno 10764 bound_to 10752
  154.4541  135.5982  153.6266 H   0  0  0  0  0  0  0  0  0  0  0  0  # atno 10765 bound_to 10752
  140.5664  134.0143  155.7991 H   0  0  0  0  0  0  0  0  0  0  0  0  # atno 11005 bound_to 11000
  146.0057  139.3127  143.0901 LP  0  0  0  0  0  0  0  0  0  0  0  0  # atno 17320 bound_to 7965
  145.8741  140.9402  143.0635 LP  0  0  0  0  0  0  0  0  0  0  0  0  # atno 17321 bound_to 7965
  139.5495  144.7326  151.4479 LP  0  0  0  0  0  0  0  0  0  0  0  0  # atno 17342 bound_to 10162
  140.6788  143.8129  150.7094 LP  0  0  0  0  0  0  0  0  0  0  0  0  # atno 17343 bound_to 10162
  155.9714  130.4621  150.6134 LP  0  0  0  0  0  0  0  0  0  0  0  0  # atno 17370 bound_to 10713
  157.3879  131.0791  151.1419 LP  0  0  0  0  0  0  0  0  0  0  0  0  # atno 17371 bound_to 10713
  141.1083  133.9658  157.2957 LP  0  0  0  0  0  0  0  0  0  0  0  0  # atno 17394 bound_to 11000
  139.9383  135.0194  156.8626 LP  0  0  0  0  0  0  0  0  0  0  0  0  # atno 17395 bound_to 11000

$$$$
