AV-unprocessed.smi:2184|AV-procd|sdf|8871|dock4
  -GOLD-   2272012 73D 1   1.00000     0.00000
 Structure written by MMmdl.
 47 48  0  0  0  0  0  0  0  0  1 V2000
  148.7630  133.0215  154.8062 C   0  0  0  0  0  0  0  0  0  0  0  0
  149.3813  134.6982  155.1168 S   0  0  0  0  0  0  0  0  0  0  0  0
  147.8451  135.5589  155.5693 C   0  0  2  0  0  0  0  0  0  0  0  0
  146.6778  135.0511  154.7084 C   0  0  0  0  0  0  0  0  0  0  0  0
  147.9897  137.0827  155.4681 C   0  0  0  0  0  0  0  0  0  0  0  0
  147.8470  137.7919  156.4646 O   0  0  0  0  0  0  0  0  0  0  0  0
  148.2647  137.5752  154.2517 N   0  0  0  0  0  0  0  0  0  0  0  0
  148.4292  138.9916  153.9492 C   0  0  0  0  0  0  0  0  0  0  0  0
  149.3127  139.7405  154.9365 C   0  0  0  0  0  0  0  0  0  0  0  0
  150.6087  139.3020  155.2851 C   0  0  0  0  0  0  0  0  0  0  0  0
  151.3572  140.0501  156.2132 C   0  0  0  0  0  0  0  0  0  0  0  0
  150.7919  141.2189  156.7749 C   0  0  0  0  0  0  0  0  0  0  0  0
  151.5282  141.9820  157.7054 N   0  0  0  0  0  0  0  0  0  0  0  0
  152.1504  141.2889  158.8296 C   0  0  0  0  0  0  0  0  0  0  0  0
  153.1865  142.2007  159.5104 C   0  0  2  0  0  0  0  0  0  0  0  0
  153.7704  141.5592  160.7734 C   0  0  0  0  0  0  0  0  0  0  0  0
  152.5679  143.4316  159.8843 O   0  0  0  0  0  0  0  0  0  0  0  0
  151.9678  144.1531  158.8058 C   0  0  1  0  0  0  0  0  0  0  0  0
  153.0165  144.7725  157.8647 C   0  0  0  0  0  0  0  0  0  0  0  0
  150.9400  143.2656  158.0768 C   0  0  0  0  0  0  0  0  0  0  0  0
  149.5424  141.6305  156.4484 N   0  0  0  0  0  0  0  0  0  0  0  0
  148.8298  140.9103  155.5568 C   0  0  0  0  0  0  0  0  0  0  0  0
  149.5748  132.3840  154.4562 H   0  0  0  0  0  0  0  0  0  0  0  0
  147.9833  133.0361  154.0446 H   0  0  0  0  0  0  0  0  0  0  0  0
  148.3542  132.5840  155.7169 H   0  0  0  0  0  0  0  0  0  0  0  0
  147.6235  135.2988  156.6057 H   0  0  0  0  0  0  0  0  0  0  0  0
  145.7479  135.5652  154.9554 H   0  0  0  0  0  0  0  0  0  0  0  0
  146.5134  133.9852  154.8683 H   0  0  0  0  0  0  0  0  0  0  0  0
  146.8687  135.1978  153.6445 H   0  0  0  0  0  0  0  0  0  0  0  0
  148.3597  136.9269  153.4839 H   0  0  0  0  0  0  0  0  0  0  0  0
  148.8550  139.0901  152.9495 H   0  0  0  0  0  0  0  0  0  0  0  0
  147.4514  139.4754  153.9302 H   0  0  0  0  0  0  0  0  0  0  0  0
  151.0340  138.4049  154.8601 H   0  0  0  0  0  0  0  0  0  0  0  0
  152.3438  139.7135  156.4946 H   0  0  0  0  0  0  0  0  0  0  0  0
  151.3778  140.9959  159.5419 H   0  0  0  0  0  0  0  0  0  0  0  0
  152.6416  140.3774  158.4867 H   0  0  0  0  0  0  0  0  0  0  0  0
  154.0086  142.3966  158.8218 H   0  0  0  0  0  0  0  0  0  0  0  0
  154.2623  140.6140  160.5421 H   0  0  0  0  0  0  0  0  0  0  0  0
  152.9925  141.3603  161.5111 H   0  0  0  0  0  0  0  0  0  0  0  0
  154.5095  142.2131  161.2363 H   0  0  0  0  0  0  0  0  0  0  0  0
  151.4253  144.9822  159.2608 H   0  0  0  0  0  0  0  0  0  0  0  0
  152.5398  145.4260  157.1337 H   0  0  0  0  0  0  0  0  0  0  0  0
  153.5708  144.0173  157.3079 H   0  0  0  0  0  0  0  0  0  0  0  0
  153.7348  145.3723  158.4239 H   0  0  0  0  0  0  0  0  0  0  0  0
  150.5449  143.8009  157.2143 H   0  0  0  0  0  0  0  0  0  0  0  0
  150.0931  143.0715  158.7365 H   0  0  0  0  0  0  0  0  0  0  0  0
  147.8407  141.2815  155.3319 H   0  0  0  0  0  0  0  0  0  0  0  0
  1  2  1  0  0  0  0
  1 23  1  0  0  0  0
  1 24  1  0  0  0  0
  1 25  1  0  0  0  0
  2  3  1  0  0  0  0
  3  4  1  0  0  0  0
  3  5  1  0  0  0  0
  3 26  1  0  0  0  0
  4 27  1  0  0  0  0
  4 28  1  0  0  0  0
  4 29  1  0  0  0  0
  5  6  2  0  0  0  0
  5  7  1  0  0  0  0
  7  8  1  0  0  0  0
  7 30  1  0  0  0  0
  8  9  1  0  0  0  0
  8 31  1  0  0  0  0
  8 32  1  0  0  0  0
  9 22  1  0  0  0  0
  9 10  2  0  0  0  0
 10 11  1  0  0  0  0
 10 33  1  0  0  0  0
 11 12  2  0  0  0  0
 11 34  1  0  0  0  0
 12 13  1  0  0  0  0
 12 21  1  0  0  0  0
 13 20  1  0  0  0  0
 13 14  1  0  0  0  0
 14 15  1  0  0  0  0
 14 35  1  0  0  0  0
 14 36  1  0  0  0  0
 15 16  1  0  0  0  0
 15 17  1  0  0  0  0
 15 37  1  0  0  0  0
 16 38  1  0  0  0  0
 16 39  1  0  0  0  0
 16 40  1  0  0  0  0
 17 18  1  0  0  0  0
 18 19  1  0  0  0  0
 18 20  1  0  0  0  0
 18 41  1  0  0  0  0
 19 42  1  0  0  0  0
 19 43  1  0  0  0  0
 19 44  1  0  0  0  0
 20 45  1  0  0  0  0
 20 46  1  0  0  0  0
 21 22  2  0  0  0  0
 22 47  1  0  0  0  0
M  END
> <s_m_source_file>
AV-unprocessed.smi

> <i_m_source_file_index>
2184

> <i_lp_mmshare_version>
43012

> <i_f3d_flags>
0

> <s_epik_input>
W0NIM11TW0NASF0oW0NIM10pQyg9TylbTkhdW0NIMl1jMVtjSF1bY0hdYyhuW2NIXTEpTjJbQ0gyXVtDQEBIXShbQ0gzXSlPW0NAQEhdKFtDSDNdKVtDSDJdMg==

> <s_epik_cmdline>
J2VwaWtfcHl0aG9uJywgJy1waCcsICc3LjAnLCAnLXRuJywgJzgnLCAnLW1hJywgJzIwMCcsICctbWV0YWxfYmluZGluZycsICctaW1hZScsICc8aW5maWxlLm1hZT4nLCAnLW9tYWUnLCAnPG91dGZpbGUubWFlPic=

> <r_lp_tautomer_probability>
1

> <r_epik_Ionization_Penalty>
0.00551702

> <r_epik_Ionization_Penalty_Charging>
0

> <r_epik_Ionization_Penalty_Neutral>
0.00551702

> <r_epik_State_Penalty>
0.00403758

> <r_epik_Charging_Adjusted_Penalty>
0.00403758

> <i_epik_Tot_Q>
0

> <i_epik_Tot_abs_Q>
0

> <r_epik_Metal_State_Penalty>
-0

> <b_epik_Metal_Only>
0

> <s_lp_Force_Field>
OPLS_2005

> <r_lp_Energy>
19.5459

> <b_lp_Chiralities_Consistent>
1

> <s_lp_Variant>
AV-unprocessed.smi:2184-3

> <Gold.Version>
5.8.1

> <Gold.Id.Protein>
6NUR|6NUR_protein|mol2

> <Gold.PLP.Fitness>
43.6371

> <Gold.PLP.PLP>
-41.2499

> <Gold.PLP.part.hbond>
-1.0000

> <Gold.PLP.part.metal>
0.0000

> <Gold.PLP.part.buried>
-3.6635

> <Gold.PLP.part.nonpolar>
-36.1152

> <Gold.PLP.part.repulsive>
0.1590

> <Gold.PLP.ligand.clash>
0.0000

> <Gold.PLP.ligand.torsion>
0.4990

> <Gold.PLP.Chemscore.Hbond>
1.0000

> <Gold.PLP.Chemscore.CHOScore>
0.0000

> <Gold.PLP.Chemscore.Metal>
0.0000

> <Gold.Chemscore.Hbonds>
donor molecule, donor type, donor heavy atom, donor atom, acceptor molecule, acceptor atom, score
      L1  H     7    30       P1  7948  1.00

> <Gold.PLP.Chemscore.Internal.Correction>
0.3852

> <Gold.Rescore>
     Score         DG    S(hbond)    S(metal)    S(lipo)     H(rot)  DE(clash)    DE(int)     intcor
     15.51     -17.55       1.00        0.00     109.63       1.59       0.06       1.98       ----

> <Gold.Chemscore.Fitness>
15.5148

> <Gold.Chemscore.DG>
-17.5538

> <Gold.Chemscore.ZeroCoef>
-5.4800

> <Gold.Chemscore.Hbond>
0.9970

> <Gold.Chemscore.Metal>
0.0000

> <Gold.Chemscore.Lipo>
109.6261

> <Gold.Chemscore.Internal_Hbond>
0.0000

> <Gold.Chemscore.DEClash>
0.0614

> <Gold.Chemscore.DEInternal>
1.9775

> <Gold.Chemscore.Rot>
1.5947

> <Gold.Chemscore.Internal.Correction>
   9.000000E+99

> <Gold.Chemscore.Hbonds>
donor molecule, donor type, donor heavy atom, donor atom, acceptor molecule, acceptor atom, score
      L1  H     7    30       P1  7948  0.99

> <Gold.Chemscore.Hbond.Weighted>
-3.3299

> <Gold.Chemscore.Metal.Weighted>
-0.0000

> <Gold.Chemscore.Lipo.Weighted>
-12.8263

> <Gold.Chemscore.Internal_Hbond.Weighted>
0.0000

> <Gold.Chemscore.DEClash.Weighted>
0.0614

> <Gold.Chemscore.DEInternal.Weighted>
1.9775

> <Gold.Chemscore.Rot.Weighted>
4.0824

> <Gold.Chemscore.Internal.Correction.Weighted>
   9.000000E+99

> <Gold.Protein.RotatedTorsions>
[ 6907 6896 6895 6894 ] final  -68.11 input  -60.11 | X-H torsion
[ 7974 7965 7964 7962 ] final   43.18 input  175.53 | X-H torsion
[ 8008 7997 7996 7995 ] final  -83.84 input   59.86 | X-H torsion
[ 10167 10162 10161 10158 ] final -178.71 input  -65.29 | X-H torsion
[ 10718 10713 10712 10709 ] final  -54.89 input   66.30 | X-H torsion
[ 10763 10752 10751 10750 ] final  -43.05 input  -60.55 | X-H torsion
[ 11005 11000 10999 10996 ] final  125.39 input  -57.11 | X-H torsion

> <Gold.Protein.ActiveResidues>
 VAL166  LYS551  ARG553  GLY616  TRP617  ASP618  TYR619  PRO620  LYS621  CYS622 
 ASP623  PHE694  ASN695  SER759  ASP760  ASP761  ALA762  ILE779  LEU786  VAL792 
 PHE793  MET794  SER795  GLU796  ALA797  LYS798  CYS799  TRP800  GLU811  SER814 

> <Gold.Protein.RotatedAtoms>
  150.7373  134.5786  159.5926 H   0  0  0  0  0  0  0  0  0  0  0  0  # atno 6907 bound_to 6896
  152.3206  134.7382  160.0324 H   0  0  0  0  0  0  0  0  0  0  0  0  # atno 6908 bound_to 6896
  151.7900  133.3322  159.3533 H   0  0  0  0  0  0  0  0  0  0  0  0  # atno 6909 bound_to 6896
  146.0677  139.5215  142.9618 H   0  0  0  0  0  0  0  0  0  0  0  0  # atno 7974 bound_to 7965
  154.6234  140.0613  156.9643 H   0  0  0  0  0  0  0  0  0  0  0  0  # atno 8008 bound_to 7997
  155.1781  140.3297  155.4362 H   0  0  0  0  0  0  0  0  0  0  0  0  # atno 8009 bound_to 7997
  156.2444  140.1902  156.6879 H   0  0  0  0  0  0  0  0  0  0  0  0  # atno 8010 bound_to 7997
  139.5419  144.2338  152.0913 H   0  0  0  0  0  0  0  0  0  0  0  0  # atno 10167 bound_to 10162
  156.1413  130.4154  150.0098 H   0  0  0  0  0  0  0  0  0  0  0  0  # atno 10718 bound_to 10713
  153.9891  135.6707  153.4753 H   0  0  0  0  0  0  0  0  0  0  0  0  # atno 10763 bound_to 10752
  153.0713  135.4972  154.8307 H   0  0  0  0  0  0  0  0  0  0  0  0  # atno 10764 bound_to 10752
  154.7120  135.3099  154.9145 H   0  0  0  0  0  0  0  0  0  0  0  0  # atno 10765 bound_to 10752
  139.9404  134.9636  156.8551 H   0  0  0  0  0  0  0  0  0  0  0  0  # atno 11005 bound_to 11000
  145.6447  141.0276  143.1792 LP  0  0  0  0  0  0  0  0  0  0  0  0  # atno 17320 bound_to 7965
  144.7212  139.8023  143.7381 LP  0  0  0  0  0  0  0  0  0  0  0  0  # atno 17321 bound_to 7965
  140.1818  144.4836  150.6524 LP  0  0  0  0  0  0  0  0  0  0  0  0  # atno 17342 bound_to 10162
  140.6653  143.2266  151.5758 LP  0  0  0  0  0  0  0  0  0  0  0  0  # atno 17343 bound_to 10162
  156.7982  130.9281  151.3646 LP  0  0  0  0  0  0  0  0  0  0  0  0  # atno 17370 bound_to 10713
  157.6578  130.8940  149.9766 LP  0  0  0  0  0  0  0  0  0  0  0  0  # atno 17371 bound_to 10713
  140.5966  134.0211  155.7520 LP  0  0  0  0  0  0  0  0  0  0  0  0  # atno 17394 bound_to 11000
  141.1036  133.9729  157.3036 LP  0  0  0  0  0  0  0  0  0  0  0  0  # atno 17395 bound_to 11000

$$$$
