AV-unprocessed.smi:193|AV-procd|sdf|1505|dock4
  -GOLD-   2262019333D 1   1.00000     0.00000
 Structure written by MMmdl.
 62 66  0  0  0  0  0  0  0  0  2 V2000
  146.5008  139.9464  157.6095 C   0  0  0  0  0  0  0  0  0  0  0  0
  147.8256  140.4044  156.9800 C   0  0  1  0  0  0  0  0  0  0  0  0
  147.8548  139.9726  155.4957 C   0  0  0  0  0  0  0  0  0  0  0  0
  149.1642  140.1170  154.8606 N   0  0  0  0  0  0  0  0  0  0  0  0
  150.0033  139.0461  154.8482 C   0  0  0  0  0  0  0  0  0  0  0  0
  151.2869  139.2065  154.4287 N   0  0  0  0  0  0  0  0  0  0  0  0
  152.1209  138.1640  154.3834 C   0  0  0  0  0  0  0  0  0  0  0  0
  151.8827  136.8922  154.7055 N   0  0  0  0  0  0  0  0  0  0  0  0
  150.6000  136.7226  155.1351 C   0  0  0  0  0  0  0  0  0  0  0  0
  149.6053  137.7360  155.2420 C   0  0  0  0  0  0  0  0  0  0  0  0
  148.4284  137.1879  155.7395 N   0  0  0  0  0  0  0  0  0  0  0  0
  148.7070  135.9241  155.9043 C   0  0  0  0  0  0  0  0  0  0  0  0
  149.9853  135.5551  155.5525 N   0  0  0  0  0  0  0  0  0  0  0  0
  150.5577  134.2195  155.6253 C   0  0  0  0  0  0  0  0  0  0  0  0
  149.6785  133.1207  154.9770 C   0  0  0  0  0  0  0  0  0  0  0  0
  150.4002  131.9020  155.0249 O   0  0  0  0  0  0  0  0  0  0  0  0
  148.3698  132.9441  155.7734 C   0  0  0  0  0  0  0  0  0  0  0  0
  147.3878  131.9880  155.0735 C   0  0  0  0  0  0  0  0  0  0  0  0
  147.1295  132.4405  153.7499 O   0  0  0  0  0  0  0  0  0  0  0  0
  148.2945  132.4450  152.9340 C   0  0  0  0  0  0  0  0  0  0  0  0
  149.3367  133.4248  153.5019 C   0  0  0  0  0  0  0  0  0  0  0  0
  149.7918  141.4367  154.8802 C   0  0  0  0  0  0  0  0  0  0  0  0
  150.3588  141.7742  156.2715 C   0  0  0  0  0  0  0  0  0  0  0  0
  149.3892  142.4294  157.1890 N   0  3  2  0  0  0  0  0  0  0  0  0
  149.9072  142.4743  158.5782 C   0  0  2  0  0  0  0  0  0  0  0  0
  149.7085  143.8065  159.2670 C   0  0  0  0  0  0  0  0  0  0  0  0
  151.0908  143.3992  158.8083 C   0  0  2  0  0  0  0  0  0  0  0  0
  151.7834  144.1822  157.7078 C   0  0  0  0  0  0  0  0  0  0  0  0
  147.9832  141.9371  157.1260 C   0  0  0  0  0  0  0  0  0  0  0  0
  145.6455  140.4143  157.1206 H   0  0  0  0  0  0  0  0  0  0  0  0
  146.4583  140.1980  158.6696 H   0  0  0  0  0  0  0  0  0  0  0  0
  146.3798  138.8656  157.5283 H   0  0  0  0  0  0  0  0  0  0  0  0
  148.6202  139.9001  157.5313 H   0  0  0  0  0  0  0  0  0  0  0  0
  147.5198  138.9386  155.3997 H   0  0  0  0  0  0  0  0  0  0  0  0
  147.1332  140.5586  154.9255 H   0  0  0  0  0  0  0  0  0  0  0  0
  153.1213  138.3788  154.0373 H   0  0  0  0  0  0  0  0  0  0  0  0
  147.9803  135.2193  156.2821 H   0  0  0  0  0  0  0  0  0  0  0  0
  151.5427  134.2426  155.1572 H   0  0  0  0  0  0  0  0  0  0  0  0
  150.7287  133.9869  156.6772 H   0  0  0  0  0  0  0  0  0  0  0  0
  150.8849  131.8073  154.2194 H   0  0  0  0  0  0  0  0  0  0  0  0
  148.5804  132.5912  156.7839 H   0  0  0  0  0  0  0  0  0  0  0  0
  147.8827  133.9137  155.8854 H   0  0  0  0  0  0  0  0  0  0  0  0
  147.7760  130.9686  155.0532 H   0  0  0  0  0  0  0  0  0  0  0  0
  146.4464  131.9553  155.6223 H   0  0  0  0  0  0  0  0  0  0  0  0
  148.7032  131.4363  152.8583 H   0  0  0  0  0  0  0  0  0  0  0  0
  148.0133  132.7461  151.9249 H   0  0  0  0  0  0  0  0  0  0  0  0
  148.9374  134.4371  153.4276 H   0  0  0  0  0  0  0  0  0  0  0  0
  150.2331  133.4018  152.8810 H   0  0  0  0  0  0  0  0  0  0  0  0
  150.6020  141.4729  154.1546 H   0  0  0  0  0  0  0  0  0  0  0  0
  149.0807  142.1953  154.5521 H   0  0  0  0  0  0  0  0  0  0  0  0
  150.7827  140.8842  156.7395 H   0  0  0  0  0  0  0  0  0  0  0  0
  151.1946  142.4609  156.1427 H   0  0  0  0  0  0  0  0  0  0  0  0
  149.8057  141.5533  159.1499 H   0  0  0  0  0  0  0  0  0  0  0  0
  149.2086  144.6021  158.7174 H   0  0  0  0  0  0  0  0  0  0  0  0
  149.5188  143.7954  160.3384 H   0  0  0  0  0  0  0  0  0  0  0  0
  151.7733  143.0842  159.5954 H   0  0  0  0  0  0  0  0  0  0  0  0
  151.0727  144.5348  156.9602 H   0  0  0  0  0  0  0  0  0  0  0  0
  152.5312  143.5595  157.2171 H   0  0  0  0  0  0  0  0  0  0  0  0
  152.2873  145.0504  158.1332 H   0  0  0  0  0  0  0  0  0  0  0  0
  147.4790  142.4383  156.2991 H   0  0  0  0  0  0  0  0  0  0  0  0
  147.4570  142.2827  158.0166 H   0  0  0  0  0  0  0  0  0  0  0  0
  149.3380  143.3932  156.8918 H   0  0  0  0  0  0  0  0  0  0  0  0
  1  2  1  0  0  0  0
  1 30  1  0  0  0  0
  1 31  1  0  0  0  0
  1 32  1  0  0  0  0
  2 29  1  0  0  0  0
  2  3  1  0  0  0  0
  2 33  1  0  0  0  0
  3  4  1  0  0  0  0
  3 34  1  0  0  0  0
  3 35  1  0  0  0  0
  4  5  1  0  0  0  0
  4 22  1  0  0  0  0
  5 10  1  0  0  0  0
  5  6  2  0  0  0  0
  6  7  1  0  0  0  0
  7  8  2  0  0  0  0
  7 36  1  0  0  0  0
  8  9  1  0  0  0  0
  9 13  1  0  0  0  0
  9 10  2  0  0  0  0
 10 11  1  0  0  0  0
 11 12  2  0  0  0  0
 12 13  1  0  0  0  0
 12 37  1  0  0  0  0
 13 14  1  0  0  0  0
 14 15  1  0  0  0  0
 14 38  1  0  0  0  0
 14 39  1  0  0  0  0
 15 21  1  0  0  0  0
 15 16  1  0  0  0  0
 15 17  1  0  0  0  0
 16 40  1  0  0  0  0
 17 18  1  0  0  0  0
 17 41  1  0  0  0  0
 17 42  1  0  0  0  0
 18 19  1  0  0  0  0
 18 43  1  0  0  0  0
 18 44  1  0  0  0  0
 19 20  1  0  0  0  0
 20 21  1  0  0  0  0
 20 45  1  0  0  0  0
 20 46  1  0  0  0  0
 21 47  1  0  0  0  0
 21 48  1  0  0  0  0
 22 23  1  0  0  0  0
 22 49  1  0  0  0  0
 22 50  1  0  0  0  0
 23 24  1  0  0  0  0
 23 51  1  0  0  0  0
 23 52  1  0  0  0  0
 24 25  1  0  0  0  0
 24 29  1  0  0  0  0
 24 62  1  0  0  0  0
 25 27  1  0  0  0  0
 25 26  1  0  0  0  0
 25 53  1  0  0  0  0
 26 27  1  0  0  0  0
 26 54  1  0  0  0  0
 26 55  1  0  0  0  0
 27 28  1  0  0  0  0
 27 56  1  0  0  0  0
 28 57  1  0  0  0  0
 28 58  1  0  0  0  0
 28 59  1  0  0  0  0
 29 60  1  0  0  0  0
 29 61  1  0  0  0  0
M  CHG  1  24   1
M  END
> <s_m_source_file>
AV-unprocessed.smi

> <i_m_source_file_index>
193

> <i_lp_mmshare_version>
43012

> <i_f3d_flags>
0

> <s_epik_input>
W0NIM11bQ0BASF0xW0NIMl1bQ0BIXTFOKFtDSDJdMilbQ0gyXVtDSDJdTihbQ0gyXVtDQEhdMltDSDNdKWMobltjSF1uMyljKGMzNCluW2NIXW40W0NIMl1DNShbT0hdKVtDSDJdW0NIMl1PW0NIMl1bQ0gyXTU=

> <s_epik_cmdline>
J2VwaWtfcHl0aG9uJywgJy1waCcsICc3LjAnLCAnLXRuJywgJzgnLCAnLW1hJywgJzIwMCcsICctbWV0YWxfYmluZGluZycsICctaW1hZScsICc8aW5maWxlLm1hZT4nLCAnLW9tYWUnLCAnPG91dGZpbGUubWFlPic=

> <r_lp_tautomer_probability>
1

> <r_epik_Ionization_Penalty>
0.0540825

> <r_epik_Ionization_Penalty_Charging>
0.0538476

> <r_epik_Ionization_Penalty_Neutral>
0.000234891

> <r_epik_State_Penalty>
0.0200719

> <r_epik_Charging_Adjusted_Penalty>
0.0739194

> <i_epik_Tot_Q>
1

> <i_epik_Tot_abs_Q>
1

> <r_epik_Metal_State_Penalty>
0.0199414

> <b_epik_Metal_Only>
0

> <s_lp_Force_Field>
OPLS_2005

> <r_lp_Energy>
56.796

> <b_lp_Chiralities_Consistent>
1

> <s_lp_Variant>
AV-unprocessed.smi:193-10

> <Gold.Version>
5.8.1

> <Gold.Id.Protein>
6NUR|6NUR_protein|mol2

> <Gold.PLP.Fitness>
53.4431

> <Gold.PLP.PLP>
-41.7353

> <Gold.PLP.part.hbond>
-3.0000

> <Gold.PLP.part.metal>
0.0000

> <Gold.PLP.part.buried>
-5.1987

> <Gold.PLP.part.nonpolar>
-34.1894

> <Gold.PLP.part.repulsive>
0.3812

> <Gold.PLP.ligand.clash>
0.0000

> <Gold.PLP.ligand.torsion>
0.8896

> <Gold.PLP.Chemscore.Hbond>
4.0000

> <Gold.PLP.Chemscore.CHOScore>
0.0000

> <Gold.PLP.Chemscore.Metal>
0.0000

> <Gold.Chemscore.Hbonds>
donor molecule, donor type, donor heavy atom, donor atom, acceptor molecule, acceptor atom, score
      L1  H    24    62       P1  8028  2.00
      P1  H  7989  7998       L1     6  1.00
      P1  H 10752 10764       L1     8  1.00

> <Gold.PLP.Chemscore.Internal.Correction>
1.4869

> <Gold.Rescore>
     Score         DG    S(hbond)    S(metal)    S(lipo)     H(rot)  DE(clash)    DE(int)     intcor
     17.49     -20.10       2.73        0.00      89.10       1.93       0.47       2.14       ----

> <Gold.Chemscore.Fitness>
17.4908

> <Gold.Chemscore.DG>
-20.0980

> <Gold.Chemscore.ZeroCoef>
-5.4800

> <Gold.Chemscore.Hbond>
2.7340

> <Gold.Chemscore.Metal>
0.0000

> <Gold.Chemscore.Lipo>
89.1006

> <Gold.Chemscore.Internal_Hbond>
0.0000

> <Gold.Chemscore.DEClash>
0.4665

> <Gold.Chemscore.DEInternal>
2.1406

> <Gold.Chemscore.Rot>
1.9290

> <Gold.Chemscore.Internal.Correction>
   9.000000E+99

> <Gold.Chemscore.Hbonds>
donor molecule, donor type, donor heavy atom, donor atom, acceptor molecule, acceptor atom, score
      L1  H    24    62       P1  8028  0.93
      P1  H  7989  7998       L1     6  0.89
      P1  H 10752 10764       L1     8  0.94

> <Gold.Chemscore.Hbond.Weighted>
-9.1315

> <Gold.Chemscore.Metal.Weighted>
-0.0000

> <Gold.Chemscore.Lipo.Weighted>
-10.4248

> <Gold.Chemscore.Internal_Hbond.Weighted>
0.0000

> <Gold.Chemscore.DEClash.Weighted>
0.4665

> <Gold.Chemscore.DEInternal.Weighted>
2.1406

> <Gold.Chemscore.Rot.Weighted>
4.9383

> <Gold.Chemscore.Internal.Correction.Weighted>
   9.000000E+99

> <Gold.Protein.RotatedTorsions>
[ 6907 6896 6895 6894 ] final  113.22 input  -60.11 | X-H torsion
[ 7974 7965 7964 7962 ] final  172.72 input  175.53 | X-H torsion
[ 8008 7997 7996 7995 ] final  -96.16 input   59.86 | X-H torsion
[ 10167 10162 10161 10158 ] final   64.12 input  -65.29 | X-H torsion
[ 10718 10713 10712 10709 ] final   16.36 input   66.30 | X-H torsion
[ 10763 10752 10751 10750 ] final  -78.48 input  -60.55 | X-H torsion
[ 11005 11000 10999 10996 ] final -132.66 input  -57.11 | X-H torsion

> <Gold.Protein.ActiveResidues>
 VAL166  LYS551  ARG553  GLY616  TRP617  ASP618  TYR619  PRO620  LYS621  CYS622 
 ASP623  PHE694  ASN695  SER759  ASP760  ASP761  ALA762  ILE779  LEU786  VAL792 
 PHE793  MET794  SER795  GLU796  ALA797  LYS798  CYS799  TRP800  GLU811  SER814 

> <Gold.Protein.RotatedAtoms>
  152.4873  133.8405  159.7149 H   0  0  0  0  0  0  0  0  0  0  0  0  # atno 6907 bound_to 6896
  150.8970  133.7159  159.2896 H   0  0  0  0  0  0  0  0  0  0  0  0  # atno 6908 bound_to 6896
  151.4613  135.1042  159.9778 H   0  0  0  0  0  0  0  0  0  0  0  0  # atno 6909 bound_to 6896
  144.7261  139.9541  143.6433 H   0  0  0  0  0  0  0  0  0  0  0  0  # atno 7974 bound_to 7965
  154.7708  140.0474  157.1049 H   0  0  0  0  0  0  0  0  0  0  0  0  # atno 8008 bound_to 7997
  154.9823  140.3103  155.4922 H   0  0  0  0  0  0  0  0  0  0  0  0  # atno 8009 bound_to 7997
  156.2921  140.2234  156.4923 H   0  0  0  0  0  0  0  0  0  0  0  0  # atno 8010 bound_to 7997
  140.1256  144.4691  150.6895 H   0  0  0  0  0  0  0  0  0  0  0  0  # atno 10167 bound_to 10162
  157.0667  130.6331  149.5797 H   0  0  0  0  0  0  0  0  0  0  0  0  # atno 10718 bound_to 10713
  154.5264  135.5728  153.6722 H   0  0  0  0  0  0  0  0  0  0  0  0  # atno 10763 bound_to 10752
  152.9929  135.6194  154.2687 H   0  0  0  0  0  0  0  0  0  0  0  0  # atno 10764 bound_to 10752
  154.2611  135.2856  155.2757 H   0  0  0  0  0  0  0  0  0  0  0  0  # atno 10765 bound_to 10752
  140.9150  134.1519  157.4359 H   0  0  0  0  0  0  0  0  0  0  0  0  # atno 11005 bound_to 11000
  146.0688  139.3678  143.0536 LP  0  0  0  0  0  0  0  0  0  0  0  0  # atno 17320 bound_to 7965
  145.7995  140.9777  143.1006 LP  0  0  0  0  0  0  0  0  0  0  0  0  # atno 17321 bound_to 7965
  140.6847  143.2344  151.5292 LP  0  0  0  0  0  0  0  0  0  0  0  0  # atno 17342 bound_to 10162
  139.5546  144.2308  152.1590 LP  0  0  0  0  0  0  0  0  0  0  0  0  # atno 17343 bound_to 10162
  155.9962  130.5031  150.7488 LP  0  0  0  0  0  0  0  0  0  0  0  0  # atno 17370 bound_to 10713
  157.4911  131.0911  151.0426 LP  0  0  0  0  0  0  0  0  0  0  0  0  # atno 17371 bound_to 10713
  139.8764  134.9950  156.5722 LP  0  0  0  0  0  0  0  0  0  0  0  0  # atno 17394 bound_to 11000
  140.8061  133.8466  155.8769 LP  0  0  0  0  0  0  0  0  0  0  0  0  # atno 17395 bound_to 11000

$$$$
