AV-unprocessed.smi:1123|AV-procd|sdf|4831|dock8
  -GOLD-   22720 3393D 1   1.00000     0.00000
 Structure written by MMmdl.
 38 39  0  0  0  0  0  0  0  0  2 V2000
  147.1733  133.3333  151.9670 C   0  0  0  0  0  0  0  0  0  0  0  0
  146.1195  134.1070  151.1487 C   0  0  2  0  0  0  0  0  0  0  0  0
  145.4790  135.2667  151.9326 C   0  0  0  0  0  0  0  0  0  0  0  0
  144.2622  135.3073  152.1195 O   0  0  0  0  0  0  0  0  0  0  0  0
  146.3171  136.2035  152.4057 N   0  0  0  0  0  0  0  0  0  0  0  0
  145.9141  137.3713  153.1802 C   0  0  0  0  0  0  0  0  0  0  0  0
  146.5471  138.6591  152.6196 C   0  0  0  0  0  0  0  0  0  0  0  0
  146.2378  139.8564  153.4409 N   0  3  0  0  0  0  0  0  0  0  0  0
  146.1997  139.5455  154.8903 C   0  0  0  0  0  0  0  0  0  0  0  0
  145.8274  140.7966  155.7034 C   0  0  0  0  0  0  0  0  0  0  0  0
  146.7588  141.8350  155.4283 O   0  0  0  0  0  0  0  0  0  0  0  0
  146.7443  142.2103  154.0570 C   0  0  0  0  0  0  0  0  0  0  0  0
  147.1397  141.0070  153.1832 C   0  0  0  0  0  0  0  0  0  0  0  0
  145.0986  133.2163  150.6092 N   0  0  0  0  0  0  0  0  0  0  0  0
  144.8289  132.8852  149.3447 C   0  0  0  0  0  0  0  0  0  0  0  0
  143.7993  132.0611  149.2117 N   0  0  0  0  0  0  0  0  0  0  0  0
  143.4514  131.9167  150.5248 C   0  0  0  0  0  0  0  0  0  0  0  0
  144.1915  132.5934  151.4026 N   0  0  0  0  0  0  0  0  0  0  0  0
  147.9720  133.9933  152.3069 H   0  0  0  0  0  0  0  0  0  0  0  0
  147.6339  132.5500  151.3643 H   0  0  0  0  0  0  0  0  0  0  0  0
  146.7385  132.8586  152.8475 H   0  0  0  0  0  0  0  0  0  0  0  0
  146.6359  134.5538  150.2976 H   0  0  0  0  0  0  0  0  0  0  0  0
  147.3025  136.1022  152.2091 H   0  0  0  0  0  0  0  0  0  0  0  0
  144.8268  137.4228  153.1406 H   0  0  0  0  0  0  0  0  0  0  0  0
  146.1815  137.2366  154.2299 H   0  0  0  0  0  0  0  0  0  0  0  0
  147.6299  138.5275  152.5926 H   0  0  0  0  0  0  0  0  0  0  0  0
  146.2311  138.8262  151.5886 H   0  0  0  0  0  0  0  0  0  0  0  0
  145.4723  138.7560  155.0824 H   0  0  0  0  0  0  0  0  0  0  0  0
  147.1732  139.1695  155.2096 H   0  0  0  0  0  0  0  0  0  0  0  0
  144.8139  141.1273  155.4707 H   0  0  0  0  0  0  0  0  0  0  0  0
  145.8524  140.5728  156.7700 H   0  0  0  0  0  0  0  0  0  0  0  0
  145.7574  142.5848  153.7803 H   0  0  0  0  0  0  0  0  0  0  0  0
  147.4486  143.0290  153.9084 H   0  0  0  0  0  0  0  0  0  0  0  0
  148.1711  140.7187  153.3927 H   0  0  0  0  0  0  0  0  0  0  0  0
  147.0958  141.3005  152.1353 H   0  0  0  0  0  0  0  0  0  0  0  0
  145.3963  133.2559  148.5036 H   0  0  0  0  0  0  0  0  0  0  0  0
  142.6250  131.2980  150.8427 H   0  0  0  0  0  0  0  0  0  0  0  0
  145.3039  140.1478  153.1894 H   0  0  0  0  0  0  0  0  0  0  0  0
  1  2  1  0  0  0  0
  1 19  1  0  0  0  0
  1 20  1  0  0  0  0
  1 21  1  0  0  0  0
  2  3  1  0  0  0  0
  2 14  1  0  0  0  0
  2 22  1  0  0  0  0
  3  4  2  0  0  0  0
  3  5  1  0  0  0  0
  5  6  1  0  0  0  0
  5 23  1  0  0  0  0
  6  7  1  0  0  0  0
  6 24  1  0  0  0  0
  6 25  1  0  0  0  0
  7  8  1  0  0  0  0
  7 26  1  0  0  0  0
  7 27  1  0  0  0  0
  8 13  1  0  0  0  0
  8  9  1  0  0  0  0
  8 38  1  0  0  0  0
  9 10  1  0  0  0  0
  9 28  1  0  0  0  0
  9 29  1  0  0  0  0
 10 11  1  0  0  0  0
 10 30  1  0  0  0  0
 10 31  1  0  0  0  0
 11 12  1  0  0  0  0
 12 13  1  0  0  0  0
 12 32  1  0  0  0  0
 12 33  1  0  0  0  0
 13 34  1  0  0  0  0
 13 35  1  0  0  0  0
 14 18  1  0  0  0  0
 14 15  1  0  0  0  0
 15 16  2  0  0  0  0
 15 36  1  0  0  0  0
 16 17  1  0  0  0  0
 17 18  2  0  0  0  0
 17 37  1  0  0  0  0
M  CHG  1   8   1
M  END
> <s_m_source_file>
AV-unprocessed.smi

> <i_m_source_file_index>
1123

> <i_lp_mmshare_version>
43012

> <i_f3d_flags>
0

> <s_epik_input>
bjFbY0hdbltjSF1uMVtDQEhdKFtDSDNdKUMoPU8pW05IXVtDSDJdW0NIMl1OMltDSDJdW0NIMl1PW0NIMl1bQ0gyXTI=

> <s_epik_cmdline>
J2VwaWtfcHl0aG9uJywgJy1waCcsICc3LjAnLCAnLXRuJywgJzgnLCAnLW1hJywgJzIwMCcsICctbWV0YWxfYmluZGluZycsICctaW1hZScsICc8aW5maWxlLm1hZT4nLCAnLW9tYWUnLCAnPG91dGZpbGUubWFlPic=

> <r_lp_tautomer_probability>
1

> <r_epik_Ionization_Penalty>
0.71326

> <r_epik_Ionization_Penalty_Charging>
0.713252

> <r_epik_Ionization_Penalty_Neutral>
7.98515e-06

> <r_epik_State_Penalty>
0.737017

> <r_epik_Charging_Adjusted_Penalty>
1.45027

> <i_epik_Tot_Q>
1

> <i_epik_Tot_abs_Q>
1

> <r_epik_Metal_State_Penalty>
0.73702

> <b_epik_Metal_Only>
0

> <s_lp_Force_Field>
OPLS_2005

> <r_lp_Energy>
21.5068

> <b_lp_Chiralities_Consistent>
1

> <s_lp_Variant>
AV-unprocessed.smi:1123-3

> <Gold.Version>
5.8.1

> <Gold.Id.Protein>
6NUR|6NUR_protein|mol2

> <Gold.PLP.Fitness>
43.0908

> <Gold.PLP.PLP>
-27.8358

> <Gold.PLP.part.hbond>
-3.0000

> <Gold.PLP.part.metal>
0.0000

> <Gold.PLP.part.buried>
-5.5231

> <Gold.PLP.part.nonpolar>
-21.4194

> <Gold.PLP.part.repulsive>
0.6472

> <Gold.PLP.ligand.clash>
0.0000

> <Gold.PLP.ligand.torsion>
0.3512

> <Gold.PLP.Chemscore.Hbond>
3.8056

> <Gold.PLP.Chemscore.CHOScore>
1.4696

> <Gold.PLP.Chemscore.Metal>
0.0000

> <Gold.Chemscore.Hbonds>
donor molecule, donor type, donor heavy atom, donor atom, acceptor molecule, acceptor atom, score
      L1  H     5    23       P1  7948  1.00
      L1  H     8    38       P1 10175  2.00
      P1  H 10785 10796       L1    16  0.49
      L1  C    15    36       P1  7921  0.61
      L1  C    17    37       P1 10952  0.83

> <Gold.PLP.Chemscore.Internal.Correction>
0.1317

> <Gold.Rescore>
     Score         DG    S(hbond)    S(metal)    S(lipo)     H(rot)  DE(clash)    DE(int)     intcor
     10.89     -12.77       2.79        0.00      41.71       2.69       0.04       1.84       ----

> <Gold.Chemscore.Fitness>
10.8935

> <Gold.Chemscore.DG>
-12.7748

> <Gold.Chemscore.ZeroCoef>
-5.4800

> <Gold.Chemscore.Hbond>
2.7861

> <Gold.Chemscore.Metal>
0.0000

> <Gold.Chemscore.Lipo>
41.7094

> <Gold.Chemscore.Internal_Hbond>
0.0000

> <Gold.Chemscore.DEClash>
0.0375

> <Gold.Chemscore.DEInternal>
1.8439

> <Gold.Chemscore.Rot>
2.6916

> <Gold.Chemscore.Internal.Correction>
   9.000000E+99

> <Gold.Chemscore.Hbonds>
donor molecule, donor type, donor heavy atom, donor atom, acceptor molecule, acceptor atom, score
      L1  H     5    23       P1  7948  1.00
      L1  H     8    38       P1 10175  1.00
      P1  H 10785 10796       L1    16  0.04

> <Gold.Chemscore.Hbond.Weighted>
-9.3054

> <Gold.Chemscore.Metal.Weighted>
-0.0000

> <Gold.Chemscore.Lipo.Weighted>
-4.8800

> <Gold.Chemscore.Internal_Hbond.Weighted>
0.0000

> <Gold.Chemscore.DEClash.Weighted>
0.0375

> <Gold.Chemscore.DEInternal.Weighted>
1.8439

> <Gold.Chemscore.Rot.Weighted>
6.8906

> <Gold.Chemscore.Internal.Correction.Weighted>
   9.000000E+99

> <Gold.Protein.RotatedTorsions>
[ 6907 6896 6895 6894 ] final  132.47 input  -60.11 | X-H torsion
[ 7974 7965 7964 7962 ] final  -64.33 input  175.53 | X-H torsion
[ 8008 7997 7996 7995 ] final   62.22 input   59.86 | X-H torsion
[ 10167 10162 10161 10158 ] final -121.89 input  -65.29 | X-H torsion
[ 10718 10713 10712 10709 ] final   97.01 input   66.30 | X-H torsion
[ 10763 10752 10751 10750 ] final -171.31 input  -60.55 | X-H torsion
[ 11005 11000 10999 10996 ] final  176.49 input  -57.11 | X-H torsion

> <Gold.Protein.ActiveResidues>
 VAL166  LYS551  ARG553  GLY616  TRP617  ASP618  TYR619  PRO620  LYS621  CYS622 
 ASP623  PHE694  ASN695  SER759  ASP760  ASP761  ALA762  ILE779  LEU786  VAL792 
 PHE793  MET794  SER795  GLU796  ALA797  LYS798  CYS799  TRP800  GLU811  SER814 

> <Gold.Protein.RotatedAtoms>
  152.3320  133.5969  159.5816 H   0  0  0  0  0  0  0  0  0  0  0  0  # atno 6907 bound_to 6896
  150.7429  133.9852  159.3598 H   0  0  0  0  0  0  0  0  0  0  0  0  # atno 6908 bound_to 6896
  151.7726  135.0783  160.0413 H   0  0  0  0  0  0  0  0  0  0  0  0  # atno 6909 bound_to 6896
  145.7681  140.8827  143.0394 H   0  0  0  0  0  0  0  0  0  0  0  0  # atno 7974 bound_to 7965
  155.6109  140.3495  155.4622 H   0  0  0  0  0  0  0  0  0  0  0  0  # atno 8008 bound_to 7997
  156.0155  140.1242  157.0435 H   0  0  0  0  0  0  0  0  0  0  0  0  # atno 8009 bound_to 7997
  154.4296  140.1073  156.5876 H   0  0  0  0  0  0  0  0  0  0  0  0  # atno 8010 bound_to 7997
  140.0202  143.5352  152.2224 H   0  0  0  0  0  0  0  0  0  0  0  0  # atno 10167 bound_to 10162
  157.6919  131.0596  150.4578 H   0  0  0  0  0  0  0  0  0  0  0  0  # atno 10718 bound_to 10713
  154.6319  135.2887  155.0206 H   0  0  0  0  0  0  0  0  0  0  0  0  # atno 10763 bound_to 10752
  154.1363  135.6525  153.4936 H   0  0  0  0  0  0  0  0  0  0  0  0  # atno 10764 bound_to 10752
  153.0284  135.5322  154.7151 H   0  0  0  0  0  0  0  0  0  0  0  0  # atno 10765 bound_to 10752
  140.3737  134.7007  157.4408 H   0  0  0  0  0  0  0  0  0  0  0  0  # atno 11005 bound_to 11000
  144.6818  139.9817  143.7483 LP  0  0  0  0  0  0  0  0  0  0  0  0  # atno 17320 bound_to 7965
  146.0197  139.3240  143.0820 LP  0  0  0  0  0  0  0  0  0  0  0  0  # atno 17321 bound_to 7965
  139.6145  144.7616  151.2877 LP  0  0  0  0  0  0  0  0  0  0  0  0  # atno 17342 bound_to 10162
  140.7345  143.6762  150.8039 LP  0  0  0  0  0  0  0  0  0  0  0  0  # atno 17343 bound_to 10162
  156.4925  130.4098  149.6398 LP  0  0  0  0  0  0  0  0  0  0  0  0  # atno 17370 bound_to 10713
  156.3404  130.7379  151.2323 LP  0  0  0  0  0  0  0  0  0  0  0  0  # atno 17371 bound_to 10713
  140.0532  134.6101  155.8837 LP  0  0  0  0  0  0  0  0  0  0  0  0  # atno 17394 bound_to 11000
  141.1946  133.6583  156.5604 LP  0  0  0  0  0  0  0  0  0  0  0  0  # atno 17395 bound_to 11000

$$$$
