AV-unprocessed.smi:1954|AV-procd|sdf|7897|dock3
  -GOLD-   2272010 53D 1   1.00000     0.00000
 Structure written by MMmdl.
 45 47  0  0  0  0  0  0  0  0  2 V2000
  150.0575  141.6784  155.6167 O   0  0  0  0  0  0  0  0  0  0  0  0
  150.7002  140.7399  156.0870 C   0  0  0  0  0  0  0  0  0  0  0  0
  150.7027  139.5091  155.5554 N   0  0  0  0  0  0  0  0  0  0  0  0
  149.9616  139.0847  154.3675 C   0  0  0  0  0  0  0  0  0  0  0  0
  148.5594  138.4803  154.6954 C   0  0  2  0  0  0  0  0  0  0  0  0
  148.6956  136.9788  154.7701 N   0  3  0  0  0  0  0  0  0  0  0  0
  149.8403  136.4970  155.5933 C   0  0  0  0  0  0  0  0  0  0  0  0
  150.0357  134.9835  155.4185 C   0  0  0  0  0  0  0  0  0  0  0  0
  148.8421  134.3148  155.7995 O   0  0  0  0  0  0  0  0  0  0  0  0
  147.7496  134.6833  154.9700 C   0  0  0  0  0  0  0  0  0  0  0  0
  147.4730  136.1929  155.0898 C   0  0  0  0  0  0  0  0  0  0  0  0
  147.5208  138.9663  153.6445 C   0  0  0  0  0  0  0  0  0  0  0  0
  147.2582  140.4569  153.8765 C   0  0  0  0  0  0  0  0  0  0  0  0
  147.3466  140.7357  155.6612 S   0  0  0  0  0  0  0  0  0  0  0  0
  148.0184  139.0868  156.0119 C   0  0  0  0  0  0  0  0  0  0  0  0
  151.4813  140.7993  157.1794 N   0  0  0  0  0  0  0  0  0  0  0  0
  151.7335  141.9079  158.0314 C   0  0  0  0  0  0  0  0  0  0  0  0
  152.5018  141.7574  159.2153 C   0  0  0  0  0  0  0  0  0  0  0  0
  152.7561  142.8846  160.0206 C   0  0  0  0  0  0  0  0  0  0  0  0
  152.2507  144.1338  159.6205 C   0  0  0  0  0  0  0  0  0  0  0  0
  151.5146  144.1977  158.4239 C   0  0  0  0  0  0  0  0  0  0  0  0
  151.2689  143.1196  157.6492 N   0  0  0  0  0  0  0  0  0  0  0  0
  151.2701  138.8050  156.0050 H   0  0  0  0  0  0  0  0  0  0  0  0
  149.8800  139.9155  153.6664 H   0  0  0  0  0  0  0  0  0  0  0  0
  150.5881  138.3590  153.8502 H   0  0  0  0  0  0  0  0  0  0  0  0
  150.7615  137.0066  155.3149 H   0  0  0  0  0  0  0  0  0  0  0  0
  149.6642  136.7092  156.6484 H   0  0  0  0  0  0  0  0  0  0  0  0
  150.3013  134.7347  154.3898 H   0  0  0  0  0  0  0  0  0  0  0  0
  150.8520  134.6353  156.0517 H   0  0  0  0  0  0  0  0  0  0  0  0
  147.9601  134.4110  153.9341 H   0  0  0  0  0  0  0  0  0  0  0  0
  146.8695  134.1162  155.2733 H   0  0  0  0  0  0  0  0  0  0  0  0
  147.1258  136.4382  156.0944 H   0  0  0  0  0  0  0  0  0  0  0  0
  146.6682  136.4216  154.3922 H   0  0  0  0  0  0  0  0  0  0  0  0
  147.8225  138.7637  152.6166 H   0  0  0  0  0  0  0  0  0  0  0  0
  146.5587  138.4768  153.7936 H   0  0  0  0  0  0  0  0  0  0  0  0
  148.0176  141.0659  153.3861 H   0  0  0  0  0  0  0  0  0  0  0  0
  146.2888  140.7651  153.4841 H   0  0  0  0  0  0  0  0  0  0  0  0
  147.1927  138.4865  156.3958 H   0  0  0  0  0  0  0  0  0  0  0  0
  148.7746  139.1446  156.7954 H   0  0  0  0  0  0  0  0  0  0  0  0
  152.0278  139.9745  157.3793 H   0  0  0  0  0  0  0  0  0  0  0  0
  152.9113  140.8046  159.5135 H   0  0  0  0  0  0  0  0  0  0  0  0
  153.3356  142.7921  160.9271 H   0  0  0  0  0  0  0  0  0  0  0  0
  152.4273  145.0202  160.2118 H   0  0  0  0  0  0  0  0  0  0  0  0
  151.1151  145.1392  158.0768 H   0  0  0  0  0  0  0  0  0  0  0  0
  148.9207  136.7073  153.8233 H   0  0  0  0  0  0  0  0  0  0  0  0
  1  2  2  0  0  0  0
  2  3  1  0  0  0  0
  2 16  1  0  0  0  0
  3  4  1  0  0  0  0
  3 23  1  0  0  0  0
  4  5  1  0  0  0  0
  4 24  1  0  0  0  0
  4 25  1  0  0  0  0
  5 15  1  0  0  0  0
  5  6  1  0  0  0  0
  5 12  1  0  0  0  0
  6 11  1  0  0  0  0
  6  7  1  0  0  0  0
  6 45  1  0  0  0  0
  7  8  1  0  0  0  0
  7 26  1  0  0  0  0
  7 27  1  0  0  0  0
  8  9  1  0  0  0  0
  8 28  1  0  0  0  0
  8 29  1  0  0  0  0
  9 10  1  0  0  0  0
 10 11  1  0  0  0  0
 10 30  1  0  0  0  0
 10 31  1  0  0  0  0
 11 32  1  0  0  0  0
 11 33  1  0  0  0  0
 12 13  1  0  0  0  0
 12 34  1  0  0  0  0
 12 35  1  0  0  0  0
 13 14  1  0  0  0  0
 13 36  1  0  0  0  0
 13 37  1  0  0  0  0
 14 15  1  0  0  0  0
 15 38  1  0  0  0  0
 15 39  1  0  0  0  0
 16 17  1  0  0  0  0
 16 40  1  0  0  0  0
 17 22  1  0  0  0  0
 17 18  2  0  0  0  0
 18 19  1  0  0  0  0
 18 41  1  0  0  0  0
 19 20  2  0  0  0  0
 19 42  1  0  0  0  0
 20 21  1  0  0  0  0
 20 43  1  0  0  0  0
 21 22  2  0  0  0  0
 21 44  1  0  0  0  0
M  CHG  1   6   1
M  END
> <s_m_source_file>
AV-unprocessed.smi

> <i_m_source_file_index>
1954

> <i_lp_mmshare_version>
43012

> <i_f3d_flags>
0

> <s_epik_input>
bjFbY0hdW2NIXVtjSF1bY0hdYzFbTkhdQyg9TylbTkhdW0NIMl1bQ0BdMihbQ0gyXVtDSDJdU1tDSDJdMilOM1tDSDJdW0NIMl1PW0NIMl1bQ0gyXTM=

> <s_epik_cmdline>
J2VwaWtfcHl0aG9uJywgJy1waCcsICc3LjAnLCAnLXRuJywgJzgnLCAnLW1hJywgJzIwMCcsICctbWV0YWxfYmluZGluZycsICctaW1hZScsICc8aW5maWxlLm1hZT4nLCAnLW9tYWUnLCAnPG91dGZpbGUubWFlPic=

> <r_epik_Ionization_Penalty>
2.03222

> <r_epik_Ionization_Penalty_Charging>
2.03219

> <r_epik_Ionization_Penalty_Neutral>
3.25833e-05

> <r_epik_State_Penalty>
2.16328

> <r_epik_Charging_Adjusted_Penalty>
4.19546

> <i_epik_Tot_Q>
1

> <i_epik_Tot_abs_Q>
1

> <r_epik_Metal_State_Penalty>
2.16328

> <b_epik_Metal_Only>
0

> <s_lp_Force_Field>
OPLS_2005

> <r_lp_Energy>
46.5202

> <b_lp_Chiralities_Consistent>
1

> <s_lp_Variant>
AV-unprocessed.smi:1954-4

> <Gold.Version>
5.8.1

> <Gold.Id.Protein>
6NUR|6NUR_protein|mol2

> <Gold.PLP.Fitness>
38.2614

> <Gold.PLP.PLP>
-34.1947

> <Gold.PLP.part.hbond>
-1.5758

> <Gold.PLP.part.metal>
0.0000

> <Gold.PLP.part.buried>
-3.9691

> <Gold.PLP.part.nonpolar>
-29.6917

> <Gold.PLP.part.repulsive>
0.4830

> <Gold.PLP.ligand.clash>
0.0000

> <Gold.PLP.ligand.torsion>
1.0331

> <Gold.PLP.Chemscore.Hbond>
2.0000

> <Gold.PLP.Chemscore.CHOScore>
0.0000

> <Gold.PLP.Chemscore.Metal>
0.0000

> <Gold.Chemscore.Hbonds>
donor molecule, donor type, donor heavy atom, donor atom, acceptor molecule, acceptor atom, score
      L1  H     6    45       P1  7948  2.00

> <Gold.PLP.Chemscore.Internal.Correction>
0.1328

> <Gold.Rescore>
     Score         DG    S(hbond)    S(metal)    S(lipo)     H(rot)  DE(clash)    DE(int)     intcor
     11.77     -15.49       1.00        0.00      90.71       1.54       0.15       3.58       ----

> <Gold.Chemscore.Fitness>
11.7668

> <Gold.Chemscore.DG>
-15.4877

> <Gold.Chemscore.ZeroCoef>
-5.4800

> <Gold.Chemscore.Hbond>
0.9956

> <Gold.Chemscore.Metal>
0.0000

> <Gold.Chemscore.Lipo>
90.7126

> <Gold.Chemscore.Internal_Hbond>
0.0000

> <Gold.Chemscore.DEClash>
0.1452

> <Gold.Chemscore.DEInternal>
3.5757

> <Gold.Chemscore.Rot>
1.5355

> <Gold.Chemscore.Internal.Correction>
   9.000000E+99

> <Gold.Chemscore.Hbonds>
donor molecule, donor type, donor heavy atom, donor atom, acceptor molecule, acceptor atom, score
      L1  H     6    45       P1  7948  0.96

> <Gold.Chemscore.Hbond.Weighted>
-3.3252

> <Gold.Chemscore.Metal.Weighted>
-0.0000

> <Gold.Chemscore.Lipo.Weighted>
-10.6134

> <Gold.Chemscore.Internal_Hbond.Weighted>
0.0000

> <Gold.Chemscore.DEClash.Weighted>
0.1452

> <Gold.Chemscore.DEInternal.Weighted>
3.5757

> <Gold.Chemscore.Rot.Weighted>
3.9309

> <Gold.Chemscore.Internal.Correction.Weighted>
   9.000000E+99

> <Gold.Protein.RotatedTorsions>
[ 6907 6896 6895 6894 ] final   28.45 input  -60.11 | X-H torsion
[ 7974 7965 7964 7962 ] final  -36.25 input  175.53 | X-H torsion
[ 8008 7997 7996 7995 ] final   -8.02 input   59.86 | X-H torsion
[ 10167 10162 10161 10158 ] final   32.05 input  -65.29 | X-H torsion
[ 10718 10713 10712 10709 ] final  169.38 input   66.30 | X-H torsion
[ 10763 10752 10751 10750 ] final    6.44 input  -60.55 | X-H torsion
[ 11005 11000 10999 10996 ] final  -95.05 input  -57.11 | X-H torsion

> <Gold.Protein.ActiveResidues>
 VAL166  LYS551  ARG553  GLY616  TRP617  ASP618  TYR619  PRO620  LYS621  CYS622 
 ASP623  PHE694  ASN695  SER759  ASP760  ASP761  ALA762  ILE779  LEU786  VAL792 
 PHE793  MET794  SER795  GLU796  ALA797  LYS798  CYS799  TRP800  GLU811  SER814 

> <Gold.Protein.RotatedAtoms>
  152.0171  134.9843  160.0569 H   0  0  0  0  0  0  0  0  0  0  0  0  # atno 6907 bound_to 6896
  152.1373  133.4438  159.4758 H   0  0  0  0  0  0  0  0  0  0  0  0  # atno 6908 bound_to 6896
  150.6861  134.2267  159.4461 H   0  0  0  0  0  0  0  0  0  0  0  0  # atno 6909 bound_to 6896
  146.0678  140.6256  142.8967 H   0  0  0  0  0  0  0  0  0  0  0  0  # atno 7974 bound_to 7965
  154.5781  140.2392  155.8093 H   0  0  0  0  0  0  0  0  0  0  0  0  # atno 8008 bound_to 7997
  156.2158  140.3012  155.9794 H   0  0  0  0  0  0  0  0  0  0  0  0  # atno 8009 bound_to 7997
  155.2590  140.0413  157.2986 H   0  0  0  0  0  0  0  0  0  0  0  0  # atno 8010 bound_to 7997
  140.4533  144.1015  150.6196 H   0  0  0  0  0  0  0  0  0  0  0  0  # atno 10167 bound_to 10162
  157.0235  131.0239  151.2767 H   0  0  0  0  0  0  0  0  0  0  0  0  # atno 10718 bound_to 10713
  153.2477  135.6910  153.7713 H   0  0  0  0  0  0  0  0  0  0  0  0  # atno 10763 bound_to 10752
  153.6819  135.3327  155.3181 H   0  0  0  0  0  0  0  0  0  0  0  0  # atno 10764 bound_to 10752
  154.8381  135.4524  154.1423 H   0  0  0  0  0  0  0  0  0  0  0  0  # atno 10765 bound_to 10752
  141.1453  133.7999  157.0382 H   0  0  0  0  0  0  0  0  0  0  0  0  # atno 11005 bound_to 11000
  144.7213  140.4381  143.7006 LP  0  0  0  0  0  0  0  0  0  0  0  0  # atno 17320 bound_to 7965
  145.6446  139.1555  143.2896 LP  0  0  0  0  0  0  0  0  0  0  0  0  # atno 17321 bound_to 7965
  140.4181  143.2625  151.9750 LP  0  0  0  0  0  0  0  0  0  0  0  0  # atno 17342 bound_to 10162
  139.4799  144.5856  151.7859 LP  0  0  0  0  0  0  0  0  0  0  0  0  # atno 17343 bound_to 10162
  157.5232  130.8011  149.7832 LP  0  0  0  0  0  0  0  0  0  0  0  0  # atno 17370 bound_to 10713
  156.0094  130.3840  150.2317 LP  0  0  0  0  0  0  0  0  0  0  0  0  # atno 17371 bound_to 10713
  140.0710  134.9702  157.1467 LP  0  0  0  0  0  0  0  0  0  0  0  0  # atno 17394 bound_to 11000
  140.3711  134.2389  155.7178 LP  0  0  0  0  0  0  0  0  0  0  0  0  # atno 17395 bound_to 11000

$$$$
