AV-unprocessed.smi:1410|AV-procd|sdf|5733|dock1
  -GOLD-   22720 5363D 1   1.00000     0.00000
 Structure written by MMmdl.
 41 42  0  0  0  0  0  0  0  0  3 V2000
  142.1435  132.3904  147.8103 N   0  0  0  0  0  0  0  0  0  0  0  0
  143.3075  132.9682  148.1152 C   0  0  0  0  0  0  0  0  0  0  0  0
  143.7841  133.8782  147.4394 O   0  0  0  0  0  0  0  0  0  0  0  0
  144.0258  132.4575  149.3688 C   0  0  0  0  0  0  0  0  0  0  0  0
  144.8743  133.4914  150.0157 N   0  3  2  0  0  0  0  0  0  0  0  0
  145.6429  132.9716  151.1787 C   0  0  0  0  0  0  0  0  0  0  0  0
  146.6085  134.0362  151.7243 C   0  0  0  0  0  0  0  0  0  0  0  0
  145.8556  135.3185  152.1122 C   0  0  1  0  0  0  0  0  0  0  0  0
  146.8037  136.3387  152.5511 N   0  0  0  0  0  0  0  0  0  0  0  0
  146.4734  137.5692  152.9698 C   0  0  0  0  0  0  0  0  0  0  0  0
  145.3146  137.9809  153.0136 O   0  0  0  0  0  0  0  0  0  0  0  0
  147.5645  138.2797  153.3054 N   0  0  0  0  0  0  0  0  0  0  0  0
  147.6384  139.5985  153.8323 C   0  0  0  0  0  0  0  0  0  0  0  0
  148.9213  140.1130  154.1244 C   0  0  0  0  0  0  0  0  0  0  0  0
  149.0450  141.4080  154.6679 C   0  0  0  0  0  0  0  0  0  0  0  0
  147.9391  142.1425  154.9131 N   0  3  0  0  0  0  0  0  0  0  0  0
  146.6918  141.6896  154.6632 C   0  0  0  0  0  0  0  0  0  0  0  0
  146.5053  140.4022  154.1195 C   0  0  0  0  0  0  0  0  0  0  0  0
  145.0332  135.8166  150.9098 C   0  0  0  0  0  0  0  0  0  0  0  0
  144.1070  134.7126  150.3714 C   0  0  0  0  0  0  0  0  0  0  0  0
  141.6318  132.6956  146.9944 H   0  0  0  0  0  0  0  0  0  0  0  0
  141.7732  131.6535  148.3930 H   0  0  0  0  0  0  0  0  0  0  0  0
  143.2483  132.1356  150.0627 H   0  0  0  0  0  0  0  0  0  0  0  0
  144.6239  131.5747  149.1359 H   0  0  0  0  0  0  0  0  0  0  0  0
  144.9515  132.6563  151.9621 H   0  0  0  0  0  0  0  0  0  0  0  0
  146.2130  132.0882  150.8901 H   0  0  0  0  0  0  0  0  0  0  0  0
  147.1426  133.6392  152.5885 H   0  0  0  0  0  0  0  0  0  0  0  0
  147.3638  134.2599  150.9690 H   0  0  0  0  0  0  0  0  0  0  0  0
  145.1770  135.0794  152.9338 H   0  0  0  0  0  0  0  0  0  0  0  0
  147.7813  136.0858  152.5404 H   0  0  0  0  0  0  0  0  0  0  0  0
  148.4535  137.8359  153.1269 H   0  0  0  0  0  0  0  0  0  0  0  0
  149.8072  139.5252  153.9310 H   0  0  0  0  0  0  0  0  0  0  0  0
  149.9884  141.8732  154.9142 H   0  0  0  0  0  0  0  0  0  0  0  0
  145.8847  142.3636  154.9107 H   0  0  0  0  0  0  0  0  0  0  0  0
  145.4982  140.0552  153.9473 H   0  0  0  0  0  0  0  0  0  0  0  0
  144.4382  136.6858  151.1933 H   0  0  0  0  0  0  0  0  0  0  0  0
  145.7025  136.1470  150.1138 H   0  0  0  0  0  0  0  0  0  0  0  0
  143.5816  135.0871  149.4921 H   0  0  0  0  0  0  0  0  0  0  0  0
  143.3467  134.4632  151.1135 H   0  0  0  0  0  0  0  0  0  0  0  0
  145.5493  133.7730  149.3187 H   0  0  0  0  0  0  0  0  0  0  0  0
  148.0498  143.0769  155.3084 H   0  0  0  0  0  0  0  0  0  0  0  0
  1  2  1  0  0  0  0
  1 21  1  0  0  0  0
  1 22  1  0  0  0  0
  2  3  2  0  0  0  0
  2  4  1  0  0  0  0
  4  5  1  0  0  0  0
  4 23  1  0  0  0  0
  4 24  1  0  0  0  0
  5 20  1  0  0  0  0
  5  6  1  0  0  0  0
  5 40  1  0  0  0  0
  6  7  1  0  0  0  0
  6 25  1  0  0  0  0
  6 26  1  0  0  0  0
  7  8  1  0  0  0  0
  7 27  1  0  0  0  0
  7 28  1  0  0  0  0
  8  9  1  0  0  0  0
  8 19  1  0  0  0  0
  8 29  1  0  0  0  0
  9 10  1  0  0  0  0
  9 30  1  0  0  0  0
 10 11  2  0  0  0  0
 10 12  1  0  0  0  0
 12 13  1  0  0  0  0
 12 31  1  0  0  0  0
 13 18  1  0  0  0  0
 13 14  2  0  0  0  0
 14 15  1  0  0  0  0
 14 32  1  0  0  0  0
 15 16  2  0  0  0  0
 15 33  1  0  0  0  0
 16 17  1  0  0  0  0
 16 41  1  0  0  0  0
 17 18  2  0  0  0  0
 17 34  1  0  0  0  0
 18 35  1  0  0  0  0
 19 20  1  0  0  0  0
 19 36  1  0  0  0  0
 19 37  1  0  0  0  0
 20 38  1  0  0  0  0
 20 39  1  0  0  0  0
M  CHG  1   5   1
M  CHG  1  16   1
M  END
> <s_m_source_file>
AV-unprocessed.smi

> <i_m_source_file_index>
1410

> <i_lp_mmshare_version>
43012

> <i_f3d_flags>
0

> <s_epik_input>
W05IMl1DKD1PKVtDSDJdTjFbQ0gyXVtDSDJdW0NIXShbQ0gyXVtDSDJdMSlbTkhdQyg9TylbTkhdYzJbY0hdW2NIXW5bY0hdW2NIXTI=

> <s_epik_cmdline>
J2VwaWtfcHl0aG9uJywgJy1waCcsICc3LjAnLCAnLXRuJywgJzgnLCAnLW1hJywgJzIwMCcsICctbWV0YWxfYmluZGluZycsICctaW1hZScsICc8aW5maWxlLm1hZT4nLCAnLW9tYWUnLCAnPG91dGZpbGUubWFlPic=

> <r_epik_Ionization_Penalty>
1.97414

> <r_epik_Ionization_Penalty_Charging>
1.97408

> <r_epik_Ionization_Penalty_Neutral>
5.94508e-05

> <r_epik_State_Penalty>
2.00676

> <r_epik_Charging_Adjusted_Penalty>
3.98084

> <i_epik_Tot_Q>
2

> <i_epik_Tot_abs_Q>
2

> <r_epik_Metal_State_Penalty>
2.12108

> <b_epik_Metal_Only>
0

> <s_lp_Force_Field>
OPLS_2005

> <r_lp_Energy>
24.418

> <b_lp_Chiralities_Consistent>
1

> <s_lp_Variant>
AV-unprocessed.smi:1410-5

> <Gold.Version>
5.8.1

> <Gold.Id.Protein>
6NUR|6NUR_protein|mol2

> <Gold.PLP.Fitness>
51.9562

> <Gold.PLP.PLP>
-30.2523

> <Gold.PLP.part.hbond>
-7.2210

> <Gold.PLP.part.metal>
0.0000

> <Gold.PLP.part.buried>
-0.1445

> <Gold.PLP.part.nonpolar>
-30.3460

> <Gold.PLP.part.repulsive>
7.4345

> <Gold.PLP.ligand.clash>
0.0000

> <Gold.PLP.ligand.torsion>
0.3788

> <Gold.PLP.Chemscore.Hbond>
7.4736

> <Gold.PLP.Chemscore.CHOScore>
0.0000

> <Gold.PLP.Chemscore.Metal>
0.0000

> <Gold.Chemscore.Hbonds>
donor molecule, donor type, donor heavy atom, donor atom, acceptor molecule, acceptor atom, score
      L1  H     1    21       P1 10195  0.90
      L1  H     1    22       P1 10952  1.00
      L1  H     5    40       P1  7921  0.93
      L1  H     9    30       P1  7948  0.49
      L1  H    12    31       P1  7948  0.54
      L1  H    16    41       P1  8028  2.00
      P1  H  7918  7932       L1     3  0.99
      P1  H 10192 10197       L1     3  0.59

> <Gold.PLP.Chemscore.Internal.Correction>
0.0408

> <Gold.Rescore>
     Score         DG    S(hbond)    S(metal)    S(lipo)     H(rot)  DE(clash)    DE(int)     intcor
     20.23     -25.23       5.02        0.00      68.94       1.99       3.35       1.64       ----

> <Gold.Chemscore.Fitness>
20.2315

> <Gold.Chemscore.DG>
-25.2280

> <Gold.Chemscore.ZeroCoef>
-5.4800

> <Gold.Chemscore.Hbond>
5.0223

> <Gold.Chemscore.Metal>
0.0000

> <Gold.Chemscore.Lipo>
68.9422

> <Gold.Chemscore.Internal_Hbond>
0.0000

> <Gold.Chemscore.DEClash>
3.3545

> <Gold.Chemscore.DEInternal>
1.6420

> <Gold.Chemscore.Rot>
1.9894

> <Gold.Chemscore.Internal.Correction>
   9.000000E+99

> <Gold.Chemscore.Hbonds>
donor molecule, donor type, donor heavy atom, donor atom, acceptor molecule, acceptor atom, score
      L1  H     1    21       P1 10195  0.69
      L1  H     1    22       P1 10952  0.98
      L1  H     5    40       P1  7921  0.43
      L1  H     9    30       P1  7948  0.49
      L1  H    12    31       P1  7948  0.52
      L1  H    16    41       P1  8028  0.87
      P1  H  7918  7932       L1     3  0.77
      P1  H 10192 10197       L1     3  0.17

> <Gold.Chemscore.Hbond.Weighted>
-16.7745

> <Gold.Chemscore.Metal.Weighted>
-0.0000

> <Gold.Chemscore.Lipo.Weighted>
-8.0662

> <Gold.Chemscore.Internal_Hbond.Weighted>
0.0000

> <Gold.Chemscore.DEClash.Weighted>
3.3545

> <Gold.Chemscore.DEInternal.Weighted>
1.6420

> <Gold.Chemscore.Rot.Weighted>
5.0927

> <Gold.Chemscore.Internal.Correction.Weighted>
   9.000000E+99

> <Gold.Protein.RotatedTorsions>
[ 6907 6896 6895 6894 ] final  162.41 input  -60.11 | X-H torsion
[ 7974 7965 7964 7962 ] final  -95.16 input  175.53 | X-H torsion
[ 8008 7997 7996 7995 ] final  106.18 input   59.86 | X-H torsion
[ 10167 10162 10161 10158 ] final  109.50 input  -65.29 | X-H torsion
[ 10718 10713 10712 10709 ] final  161.95 input   66.30 | X-H torsion
[ 10763 10752 10751 10750 ] final -102.95 input  -60.55 | X-H torsion
[ 11005 11000 10999 10996 ] final   50.71 input  -57.11 | X-H torsion

> <Gold.Protein.ActiveResidues>
 VAL166  LYS551  ARG553  GLY616  TRP617  ASP618  TYR619  PRO620  LYS621  CYS622 
 ASP623  PHE694  ASN695  SER759  ASP760  ASP761  ALA762  ILE779  LEU786  VAL792 
 PHE793  MET794  SER795  GLU796  ALA797  LYS798  CYS799  TRP800  GLU811  SER814 

> <Gold.Protein.RotatedAtoms>
  151.9408  133.3637  159.3964 H   0  0  0  0  0  0  0  0  0  0  0  0  # atno 6907 bound_to 6896
  150.6999  134.4441  159.5315 H   0  0  0  0  0  0  0  0  0  0  0  0  # atno 6908 bound_to 6896
  152.2098  134.8512  160.0549 H   0  0  0  0  0  0  0  0  0  0  0  0  # atno 6909 bound_to 6896
  145.3637  140.9495  143.2486 H   0  0  0  0  0  0  0  0  0  0  0  0  # atno 7974 bound_to 7965
  156.1721  140.3117  155.8993 H   0  0  0  0  0  0  0  0  0  0  0  0  # atno 8008 bound_to 7997
  155.3564  140.0474  157.3063 H   0  0  0  0  0  0  0  0  0  0  0  0  # atno 8009 bound_to 7997
  154.5252  140.2212  155.8913 H   0  0  0  0  0  0  0  0  0  0  0  0  # atno 8010 bound_to 7997
  139.6761  144.7122  151.1599 H   0  0  0  0  0  0  0  0  0  0  0  0  # atno 10167 bound_to 10162
  157.1293  131.0512  151.2379 H   0  0  0  0  0  0  0  0  0  0  0  0  # atno 10718 bound_to 10713
  154.7771  135.4841  153.9768 H   0  0  0  0  0  0  0  0  0  0  0  0  # atno 10763 bound_to 10752
  153.1444  135.6779  153.8985 H   0  0  0  0  0  0  0  0  0  0  0  0  # atno 10764 bound_to 10752
  153.8649  135.3151  155.3418 H   0  0  0  0  0  0  0  0  0  0  0  0  # atno 10765 bound_to 10752
  140.0994  134.5102  155.8777 H   0  0  0  0  0  0  0  0  0  0  0  0  # atno 11005 bound_to 11000
  144.8627  139.5153  143.6804 LP  0  0  0  0  0  0  0  0  0  0  0  0  # atno 17320 bound_to 7965
  146.2916  139.7156  142.9157 LP  0  0  0  0  0  0  0  0  0  0  0  0  # atno 17321 bound_to 7965
  140.7636  143.5769  150.8936 LP  0  0  0  0  0  0  0  0  0  0  0  0  # atno 17342 bound_to 10162
  139.9438  143.6351  152.3047 LP  0  0  0  0  0  0  0  0  0  0  0  0  # atno 17343 bound_to 10162
  157.4407  130.7542  149.7066 LP  0  0  0  0  0  0  0  0  0  0  0  0  # atno 17370 bound_to 10713
  155.9811  130.4022  150.3489 LP  0  0  0  0  0  0  0  0  0  0  0  0  # atno 17371 bound_to 10713
  141.2101  133.6691  156.6488 LP  0  0  0  0  0  0  0  0  0  0  0  0  # atno 17394 bound_to 11000
  140.3241  134.7983  157.4275 LP  0  0  0  0  0  0  0  0  0  0  0  0  # atno 17395 bound_to 11000

$$$$
