AV-unprocessed.smi:316|AV-procd|sdf|2325|dock10
  -GOLD-   2262022223D 1   1.00000     0.00000
 Structure written by MMmdl.
 43 44  0  0  0  0  0  0  0  0  2 V2000
  154.0549  136.1580  163.6858 C   0  0  0  0  0  0  0  0  0  0  0  0
  154.3872  137.5705  163.5798 N   0  0  0  0  0  0  0  0  0  0  0  0
  154.4605  138.2432  162.4226 C   0  0  0  0  0  0  0  0  0  0  0  0
  154.2500  137.7213  161.3272 O   0  0  0  0  0  0  0  0  0  0  0  0
  154.8217  139.7284  162.5297 C   0  0  0  0  0  0  0  0  0  0  0  0
  155.1718  140.3712  161.1726 C   0  0  0  0  0  0  0  0  0  0  0  0
  154.0020  140.9751  160.5444 N   0  0  0  0  0  0  0  0  0  0  0  0
  153.5266  140.6484  159.3346 C   0  0  0  0  0  0  0  0  0  0  0  0
  154.0272  139.7837  158.6157 O   0  0  0  0  0  0  0  0  0  0  0  0
  152.4338  141.3674  159.0281 N   0  0  0  0  0  0  0  0  0  0  0  0
  151.6211  141.2600  157.8645 C   0  0  0  0  0  0  0  0  0  0  0  0
  151.4819  140.0238  157.1825 C   0  0  0  0  0  0  0  0  0  0  0  0
  150.7293  139.9568  155.9952 C   0  0  0  0  0  0  0  0  0  0  0  0
  150.1404  141.1310  155.4965 C   0  0  0  0  0  0  0  0  0  0  0  0
  150.3020  142.2939  156.1606 N   0  3  0  0  0  0  0  0  0  0  0  0
  151.0013  142.4204  157.3163 C   0  0  0  0  0  0  0  0  0  0  0  0
  151.0737  143.7032  157.9062 N   0  0  0  0  0  0  0  0  0  0  0  0
  150.4456  143.9587  159.1972 C   0  0  0  0  0  0  0  0  0  0  0  0
  151.0238  145.2925  159.6617 C   0  0  0  0  0  0  0  0  0  0  0  0
  152.4527  145.2337  159.1297 C   0  0  0  0  0  0  0  0  0  0  0  0
  152.3197  144.4582  157.8148 C   0  0  0  0  0  0  0  0  0  0  0  0
  154.0862  135.8462  164.7298 H   0  0  0  0  0  0  0  0  0  0  0  0
  154.7650  135.5476  163.1262 H   0  0  0  0  0  0  0  0  0  0  0  0
  153.0519  135.9663  163.3023 H   0  0  0  0  0  0  0  0  0  0  0  0
  154.5690  138.0682  164.4395 H   0  0  0  0  0  0  0  0  0  0  0  0
  153.9804  140.2499  162.9880 H   0  0  0  0  0  0  0  0  0  0  0  0
  155.6664  139.8351  163.2122 H   0  0  0  0  0  0  0  0  0  0  0  0
  155.9168  141.1559  161.3103 H   0  0  0  0  0  0  0  0  0  0  0  0
  155.6146  139.6368  160.4970 H   0  0  0  0  0  0  0  0  0  0  0  0
  153.5270  141.6957  161.0681 H   0  0  0  0  0  0  0  0  0  0  0  0
  152.0821  141.9758  159.7530 H   0  0  0  0  0  0  0  0  0  0  0  0
  151.9617  139.1256  157.5416 H   0  0  0  0  0  0  0  0  0  0  0  0
  150.6171  139.0201  155.4689 H   0  0  0  0  0  0  0  0  0  0  0  0
  149.5528  141.1771  154.5911 H   0  0  0  0  0  0  0  0  0  0  0  0
  149.3591  143.9957  159.1130 H   0  0  0  0  0  0  0  0  0  0  0  0
  150.7096  143.1774  159.9113 H   0  0  0  0  0  0  0  0  0  0  0  0
  150.4857  146.1177  159.1932 H   0  0  0  0  0  0  0  0  0  0  0  0
  150.9743  145.4243  160.7428 H   0  0  0  0  0  0  0  0  0  0  0  0
  152.8998  146.2195  158.9973 H   0  0  0  0  0  0  0  0  0  0  0  0
  153.0784  144.6726  159.8250 H   0  0  0  0  0  0  0  0  0  0  0  0
  153.1823  143.8119  157.6466 H   0  0  0  0  0  0  0  0  0  0  0  0
  152.2476  145.1541  156.9786 H   0  0  0  0  0  0  0  0  0  0  0  0
  149.8634  143.1291  155.7724 H   0  0  0  0  0  0  0  0  0  0  0  0
  1  2  1  0  0  0  0
  1 22  1  0  0  0  0
  1 23  1  0  0  0  0
  1 24  1  0  0  0  0
  2  3  1  0  0  0  0
  2 25  1  0  0  0  0
  3  4  2  0  0  0  0
  3  5  1  0  0  0  0
  5  6  1  0  0  0  0
  5 26  1  0  0  0  0
  5 27  1  0  0  0  0
  6  7  1  0  0  0  0
  6 28  1  0  0  0  0
  6 29  1  0  0  0  0
  7  8  1  0  0  0  0
  7 30  1  0  0  0  0
  8  9  2  0  0  0  0
  8 10  1  0  0  0  0
 10 11  1  0  0  0  0
 10 31  1  0  0  0  0
 11 16  1  0  0  0  0
 11 12  2  0  0  0  0
 12 13  1  0  0  0  0
 12 32  1  0  0  0  0
 13 14  2  0  0  0  0
 13 33  1  0  0  0  0
 14 15  1  0  0  0  0
 14 34  1  0  0  0  0
 15 16  2  0  0  0  0
 15 43  1  0  0  0  0
 16 17  1  0  0  0  0
 17 21  1  0  0  0  0
 17 18  1  0  0  0  0
 18 19  1  0  0  0  0
 18 35  1  0  0  0  0
 18 36  1  0  0  0  0
 19 20  1  0  0  0  0
 19 37  1  0  0  0  0
 19 38  1  0  0  0  0
 20 21  1  0  0  0  0
 20 39  1  0  0  0  0
 20 40  1  0  0  0  0
 21 41  1  0  0  0  0
 21 42  1  0  0  0  0
M  CHG  1  15   1
M  END
> <s_m_source_file>
AV-unprocessed.smi

> <i_m_source_file_index>
316

> <i_lp_mmshare_version>
43012

> <i_f3d_flags>
0

> <s_epik_input>
W0NIM11bTkhdQyg9TylbQ0gyXVtDSDJdW05IXUMoPU8pW05IXWMxW2NIXVtjSF1bY0hdbmMxTjJbQ0gyXVtDSDJdW0NIMl1bQ0gyXTI=

> <s_epik_cmdline>
J2VwaWtfcHl0aG9uJywgJy1waCcsICc3LjAnLCAnLXRuJywgJzgnLCAnLW1hJywgJzIwMCcsICctbWV0YWxfYmluZGluZycsICctaW1hZScsICc8aW5maWxlLm1hZT4nLCAnLW9tYWUnLCAnPG91dGZpbGUubWFlPic=

> <r_lp_tautomer_probability>
0.999994

> <r_epik_Ionization_Penalty>
1.15434

> <r_epik_Ionization_Penalty_Charging>
1.15432

> <r_epik_Ionization_Penalty_Neutral>
1.92607e-05

> <r_epik_State_Penalty>
1.21599

> <r_epik_Charging_Adjusted_Penalty>
2.37031

> <i_epik_Tot_Q>
1

> <i_epik_Tot_abs_Q>
1

> <r_epik_Metal_State_Penalty>
1.29606

> <b_epik_Metal_Only>
0

> <s_lp_Force_Field>
OPLS_2005

> <r_lp_Energy>
36.337

> <b_lp_Chiralities_Consistent>
1

> <s_lp_Variant>
AV-unprocessed.smi:316-2

> <Gold.Version>
5.8.1

> <Gold.Id.Protein>
6NUR|6NUR_protein|mol2

> <Gold.PLP.Fitness>
47.8165

> <Gold.PLP.PLP>
-39.9234

> <Gold.PLP.part.hbond>
-1.9730

> <Gold.PLP.part.metal>
0.0000

> <Gold.PLP.part.buried>
-5.1512

> <Gold.PLP.part.nonpolar>
-33.0407

> <Gold.PLP.part.repulsive>
0.4262

> <Gold.PLP.ligand.clash>
0.0000

> <Gold.PLP.ligand.torsion>
0.7532

> <Gold.PLP.Chemscore.Hbond>
3.0000

> <Gold.PLP.Chemscore.CHOScore>
0.0000

> <Gold.PLP.Chemscore.Metal>
0.0000

> <Gold.Chemscore.Hbonds>
donor molecule, donor type, donor heavy atom, donor atom, acceptor molecule, acceptor atom, score
      L1  H    15    43       P1  8028  2.00
      P1  H  7997  8010       L1     9  1.00

> <Gold.PLP.Chemscore.Internal.Correction>
0.3996

> <Gold.Rescore>
     Score         DG    S(hbond)    S(metal)    S(lipo)     H(rot)  DE(clash)    DE(int)     intcor
     15.87     -17.81       1.99        0.00      91.68       1.98       0.14       1.79       ----

> <Gold.Chemscore.Fitness>
15.8729

> <Gold.Chemscore.DG>
-17.8088

> <Gold.Chemscore.ZeroCoef>
-5.4800

> <Gold.Chemscore.Hbond>
1.9944

> <Gold.Chemscore.Metal>
0.0000

> <Gold.Chemscore.Lipo>
91.6768

> <Gold.Chemscore.Internal_Hbond>
0.0000

> <Gold.Chemscore.DEClash>
0.1448

> <Gold.Chemscore.DEInternal>
1.7911

> <Gold.Chemscore.Rot>
1.9760

> <Gold.Chemscore.Internal.Correction>
   9.000000E+99

> <Gold.Chemscore.Hbonds>
donor molecule, donor type, donor heavy atom, donor atom, acceptor molecule, acceptor atom, score
      L1  H    15    43       P1  8028  1.00
      P1  H  7997  8010       L1     9  0.98

> <Gold.Chemscore.Hbond.Weighted>
-6.6612

> <Gold.Chemscore.Metal.Weighted>
-0.0000

> <Gold.Chemscore.Lipo.Weighted>
-10.7262

> <Gold.Chemscore.Internal_Hbond.Weighted>
0.0000

> <Gold.Chemscore.DEClash.Weighted>
0.1448

> <Gold.Chemscore.DEInternal.Weighted>
1.7911

> <Gold.Chemscore.Rot.Weighted>
5.0585

> <Gold.Chemscore.Internal.Correction.Weighted>
   9.000000E+99

> <Gold.Protein.RotatedTorsions>
[ 6907 6896 6895 6894 ] final   19.83 input  -60.11 | X-H torsion
[ 7974 7965 7964 7962 ] final  -57.55 input  175.53 | X-H torsion
[ 8008 7997 7996 7995 ] final   24.01 input   59.86 | X-H torsion
[ 10167 10162 10161 10158 ] final  -40.12 input  -65.29 | X-H torsion
[ 10718 10713 10712 10709 ] final  140.33 input   66.30 | X-H torsion
[ 10763 10752 10751 10750 ] final  -13.19 input  -60.55 | X-H torsion
[ 11005 11000 10999 10996 ] final  144.82 input  -57.11 | X-H torsion

> <Gold.Protein.ActiveResidues>
 VAL166  LYS551  ARG553  GLY616  TRP617  ASP618  TYR619  PRO620  LYS621  CYS622 
 ASP623  PHE694  ASN695  SER759  ASP760  ASP761  ALA762  ILE779  LEU786  VAL792 
 PHE793  MET794  SER795  GLU796  ALA797  LYS798  CYS799  TRP800  GLU811  SER814 

> <Gold.Protein.RotatedAtoms>
  151.8869  135.0432  160.0493 H   0  0  0  0  0  0  0  0  0  0  0  0  # atno 6907 bound_to 6896
  152.2467  133.5176  159.5310 H   0  0  0  0  0  0  0  0  0  0  0  0  # atno 6908 bound_to 6896
  150.7070  134.0931  159.3981 H   0  0  0  0  0  0  0  0  0  0  0  0  # atno 6909 bound_to 6896
  145.8497  140.8361  142.9992 H   0  0  0  0  0  0  0  0  0  0  0  0  # atno 7974 bound_to 7965
  154.9897  140.3112  155.4911 H   0  0  0  0  0  0  0  0  0  0  0  0  # atno 8008 bound_to 7997
  156.2941  140.2251  156.4941 H   0  0  0  0  0  0  0  0  0  0  0  0  # atno 8009 bound_to 7997
  154.7714  140.0452  157.1043 H   0  0  0  0  0  0  0  0  0  0  0  0  # atno 8010 bound_to 7997
  140.7044  143.3173  151.2879 H   0  0  0  0  0  0  0  0  0  0  0  0  # atno 10167 bound_to 10162
  157.4045  131.1020  151.0518 H   0  0  0  0  0  0  0  0  0  0  0  0  # atno 10718 bound_to 10713
  153.5096  135.7016  153.5788 H   0  0  0  0  0  0  0  0  0  0  0  0  # atno 10763 bound_to 10752
  153.3884  135.3902  155.1906 H   0  0  0  0  0  0  0  0  0  0  0  0  # atno 10764 bound_to 10752
  154.8704  135.3852  154.4574 H   0  0  0  0  0  0  0  0  0  0  0  0  # atno 10765 bound_to 10752
  140.0663  134.9177  157.1269 H   0  0  0  0  0  0  0  0  0  0  0  0  # atno 11005 bound_to 11000
  144.6729  140.0935  143.7464 LP  0  0  0  0  0  0  0  0  0  0  0  0  # atno 17320 bound_to 7965
  145.9371  139.2644  143.1290 LP  0  0  0  0  0  0  0  0  0  0  0  0  # atno 17321 bound_to 7965
  139.6615  144.0180  152.2695 LP  0  0  0  0  0  0  0  0  0  0  0  0  # atno 17342 bound_to 10162
  139.9749  144.6468  150.7954 LP  0  0  0  0  0  0  0  0  0  0  0  0  # atno 17343 bound_to 10162
  157.1505  130.6182  149.5581 LP  0  0  0  0  0  0  0  0  0  0  0  0  # atno 17370 bound_to 10713
  155.9832  130.4851  150.6923 LP  0  0  0  0  0  0  0  0  0  0  0  0  # atno 17371 bound_to 10713
  140.3694  134.2406  155.7179 LP  0  0  0  0  0  0  0  0  0  0  0  0  # atno 17394 bound_to 11000
  141.1994  133.8013  157.0539 LP  0  0  0  0  0  0  0  0  0  0  0  0  # atno 17395 bound_to 11000

$$$$
