AV-unprocessed.smi:1672|AV-procd|sdf|6701|dock4
  -GOLD-   22720 7433D 1   1.00000     0.00000
 Structure written by MMmdl.
 48 50  0  0  0  0  0  0  0  0  2 V2000
  143.5735  144.4565  155.8711 C   0  0  0  0  0  0  0  0  0  0  0  0
  144.7911  143.5858  155.5308 C   0  0  2  0  0  0  0  0  0  0  0  0
  145.1567  143.6775  154.0399 C   0  0  0  0  0  0  0  0  0  0  0  0
  146.3597  142.7809  153.7054 C   0  0  0  0  0  0  0  0  0  0  0  0
  146.0971  141.3670  154.0849 N   0  3  1  0  0  0  0  0  0  0  0  0
  147.1784  140.4408  153.6626 C   0  0  0  0  0  0  0  0  0  0  0  0
  148.5261  140.7709  154.3421 C   0  0  2  0  0  0  0  0  0  0  0  0
  149.5196  140.8953  153.3451 O   0  0  0  0  0  0  0  0  0  0  0  0
  149.0011  139.7035  155.3492 C   0  0  0  0  0  0  0  0  0  0  0  0
  150.2484  140.0552  156.0162 N   0  0  0  0  0  0  0  0  0  0  0  0
  151.4852  139.5248  155.8312 C   0  0  0  0  0  0  0  0  0  0  0  0
  151.7636  138.4367  154.8393 C   0  0  0  0  0  0  0  0  0  0  0  0
  152.1470  137.2267  155.4568 O   0  0  0  0  0  0  0  0  0  0  0  0
  152.4561  140.0439  156.5829 N   0  0  0  0  0  0  0  0  0  0  0  0
  151.7905  140.9954  157.3291 C   0  0  0  0  0  0  0  0  0  0  0  0
  152.2689  141.8885  158.3140 C   0  0  0  0  0  0  0  0  0  0  0  0
  151.3887  142.7883  158.9495 C   0  0  0  0  0  0  0  0  0  0  0  0
  150.0208  142.8087  158.6092 C   0  0  0  0  0  0  0  0  0  0  0  0
  149.5235  141.9272  157.6300 C   0  0  0  0  0  0  0  0  0  0  0  0
  150.4060  141.0288  156.9997 C   0  0  0  0  0  0  0  0  0  0  0  0
  145.7751  141.2430  155.5294 C   0  0  0  0  0  0  0  0  0  0  0  0
  144.5622  142.1116  155.9053 C   0  0  0  0  0  0  0  0  0  0  0  0
  142.6866  144.1297  155.3273 H   0  0  0  0  0  0  0  0  0  0  0  0
  143.7542  145.5013  155.6160 H   0  0  0  0  0  0  0  0  0  0  0  0
  143.3456  144.4130  156.9365 H   0  0  0  0  0  0  0  0  0  0  0  0
  145.6370  143.9572  156.1115 H   0  0  0  0  0  0  0  0  0  0  0  0
  144.3019  143.3839  153.4284 H   0  0  0  0  0  0  0  0  0  0  0  0
  145.3854  144.7102  153.7743 H   0  0  0  0  0  0  0  0  0  0  0  0
  146.5709  142.8572  152.6395 H   0  0  0  0  0  0  0  0  0  0  0  0
  147.2487  143.1398  154.2267 H   0  0  0  0  0  0  0  0  0  0  0  0
  146.8603  139.4208  153.8811 H   0  0  0  0  0  0  0  0  0  0  0  0
  147.3161  140.4864  152.5811 H   0  0  0  0  0  0  0  0  0  0  0  0
  148.4632  141.7272  154.8567 H   0  0  0  0  0  0  0  0  0  0  0  0
  149.3433  140.2668  152.6612 H   0  0  0  0  0  0  0  0  0  0  0  0
  148.2374  139.5509  156.1125 H   0  0  0  0  0  0  0  0  0  0  0  0
  149.1232  138.7376  154.8583 H   0  0  0  0  0  0  0  0  0  0  0  0
  150.8627  138.2547  154.2524 H   0  0  0  0  0  0  0  0  0  0  0  0
  152.5344  138.7445  154.1341 H   0  0  0  0  0  0  0  0  0  0  0  0
  151.7353  137.1818  156.3064 H   0  0  0  0  0  0  0  0  0  0  0  0
  153.3153  141.8811  158.5816 H   0  0  0  0  0  0  0  0  0  0  0  0
  151.7653  143.4658  159.7020 H   0  0  0  0  0  0  0  0  0  0  0  0
  149.3535  143.5011  159.1015 H   0  0  0  0  0  0  0  0  0  0  0  0
  148.4755  141.9440  157.3706 H   0  0  0  0  0  0  0  0  0  0  0  0
  145.5549  140.2019  155.7691 H   0  0  0  0  0  0  0  0  0  0  0  0
  146.6442  141.5294  156.1235 H   0  0  0  0  0  0  0  0  0  0  0  0
  144.3657  142.0238  156.9746 H   0  0  0  0  0  0  0  0  0  0  0  0
  143.6734  141.7347  155.3970 H   0  0  0  0  0  0  0  0  0  0  0  0
  145.2680  141.0754  153.5866 H   0  0  0  0  0  0  0  0  0  0  0  0
  1  2  1  0  0  0  0
  1 23  1  0  0  0  0
  1 24  1  0  0  0  0
  1 25  1  0  0  0  0
  2 22  1  0  0  0  0
  2  3  1  0  0  0  0
  2 26  1  0  0  0  0
  3  4  1  0  0  0  0
  3 27  1  0  0  0  0
  3 28  1  0  0  0  0
  4  5  1  0  0  0  0
  4 29  1  0  0  0  0
  4 30  1  0  0  0  0
  5  6  1  0  0  0  0
  5 21  1  0  0  0  0
  5 48  1  0  0  0  0
  6  7  1  0  0  0  0
  6 31  1  0  0  0  0
  6 32  1  0  0  0  0
  7  8  1  0  0  0  0
  7  9  1  0  0  0  0
  7 33  1  0  0  0  0
  8 34  1  0  0  0  0
  9 10  1  0  0  0  0
  9 35  1  0  0  0  0
  9 36  1  0  0  0  0
 10 20  1  0  0  0  0
 10 11  1  0  0  0  0
 11 12  1  0  0  0  0
 11 14  2  0  0  0  0
 12 13  1  0  0  0  0
 12 37  1  0  0  0  0
 12 38  1  0  0  0  0
 13 39  1  0  0  0  0
 14 15  1  0  0  0  0
 15 20  2  0  0  0  0
 15 16  1  0  0  0  0
 16 17  2  0  0  0  0
 16 40  1  0  0  0  0
 17 18  1  0  0  0  0
 17 41  1  0  0  0  0
 18 19  2  0  0  0  0
 18 42  1  0  0  0  0
 19 20  1  0  0  0  0
 19 43  1  0  0  0  0
 21 22  1  0  0  0  0
 21 44  1  0  0  0  0
 21 45  1  0  0  0  0
 22 46  1  0  0  0  0
 22 47  1  0  0  0  0
M  CHG  1   5   1
M  END
> <s_m_source_file>
AV-unprocessed.smi

> <i_m_source_file_index>
1672

> <i_lp_mmshare_version>
43012

> <i_f3d_flags>
0

> <s_epik_input>
W0NIM11bQ0hdMVtDSDJdW0NIMl1OKFtDSDJdW0NIMl0xKVtDSDJdW0NASF0oW09IXSlbQ0gyXW4oYyhuMilbQ0gyXVtPSF0pYyhjMjMpW2NIXVtjSF1bY0hdW2NIXTM=

> <s_epik_cmdline>
J2VwaWtfcHl0aG9uJywgJy1waCcsICc3LjAnLCAnLXRuJywgJzgnLCAnLW1hJywgJzIwMCcsICctbWV0YWxfYmluZGluZycsICctaW1hZScsICc8aW5maWxlLm1hZT4nLCAnLW9tYWUnLCAnPG91dGZpbGUubWFlPic=

> <r_epik_Ionization_Penalty>
0.0498263

> <r_epik_Ionization_Penalty_Charging>
0.00181365

> <r_epik_Ionization_Penalty_Neutral>
0.0480127

> <r_epik_State_Penalty>
0.0408546

> <r_epik_Charging_Adjusted_Penalty>
0.0426682

> <i_epik_Tot_Q>
1

> <i_epik_Tot_abs_Q>
1

> <r_epik_Metal_State_Penalty>
4.22946e-05

> <b_epik_Metal_Only>
0

> <s_lp_Force_Field>
OPLS_2005

> <r_lp_Energy>
22.4872

> <b_lp_Chiralities_Consistent>
1

> <s_lp_Variant>
AV-unprocessed.smi:1672-1

> <Gold.Version>
5.8.1

> <Gold.Id.Protein>
6NUR|6NUR_protein|mol2

> <Gold.PLP.Fitness>
55.3513

> <Gold.PLP.PLP>
-39.1594

> <Gold.PLP.part.hbond>
-5.2472

> <Gold.PLP.part.metal>
0.0000

> <Gold.PLP.part.buried>
-8.2322

> <Gold.PLP.part.nonpolar>
-27.1652

> <Gold.PLP.part.repulsive>
0.0217

> <Gold.PLP.ligand.clash>
0.0000

> <Gold.PLP.ligand.torsion>
0.9087

> <Gold.PLP.Chemscore.Hbond>
5.9763

> <Gold.PLP.Chemscore.CHOScore>
0.0000

> <Gold.PLP.Chemscore.Metal>
0.0000

> <Gold.Chemscore.Hbonds>
donor molecule, donor type, donor heavy atom, donor atom, acceptor molecule, acceptor atom, score
      L1  H     5    48       P1 10175  2.00
      L1  H     8    34       P1  7957  0.80
      P1  H  7989  7998       L1     8  0.21
      P1  H  7997  8010       L1    14  1.00
      P1  H  8011  8017       L1     8  1.00
      P1  H 10752 10765       L1    13  0.86

> <Gold.PLP.Chemscore.Internal.Correction>
0.0804

> <Gold.Rescore>
     Score         DG    S(hbond)    S(metal)    S(lipo)     H(rot)  DE(clash)    DE(int)     intcor
     21.01     -21.86       4.01        0.00      88.38       2.88       0.05       0.80       ----

> <Gold.Chemscore.Fitness>
21.0072

> <Gold.Chemscore.DG>
-21.8635

> <Gold.Chemscore.ZeroCoef>
-5.4800

> <Gold.Chemscore.Hbond>
4.0148

> <Gold.Chemscore.Metal>
0.0000

> <Gold.Chemscore.Lipo>
88.3841

> <Gold.Chemscore.Internal_Hbond>
0.0000

> <Gold.Chemscore.DEClash>
0.0528

> <Gold.Chemscore.DEInternal>
0.8035

> <Gold.Chemscore.Rot>
2.8778

> <Gold.Chemscore.Internal.Correction>
   9.000000E+99

> <Gold.Chemscore.Hbonds>
donor molecule, donor type, donor heavy atom, donor atom, acceptor molecule, acceptor atom, score
      L1  H     5    48       P1 10175  0.58
      L1  H     8    34       P1  7957  0.75
      P1  H  7989  7998       L1     8  0.08
      P1  H  7997  8010       L1    14  0.95
      P1  H  8011  8017       L1     8  0.25
      P1  H 10752 10765       L1    13  0.80

> <Gold.Chemscore.Hbond.Weighted>
-13.4096

> <Gold.Chemscore.Metal.Weighted>
-0.0000

> <Gold.Chemscore.Lipo.Weighted>
-10.3409

> <Gold.Chemscore.Internal_Hbond.Weighted>
0.0000

> <Gold.Chemscore.DEClash.Weighted>
0.0528

> <Gold.Chemscore.DEInternal.Weighted>
0.8035

> <Gold.Chemscore.Rot.Weighted>
7.3671

> <Gold.Chemscore.Internal.Correction.Weighted>
   9.000000E+99

> <Gold.Protein.RotatedTorsions>
[ 6907 6896 6895 6894 ] final  -48.16 input  -60.11 | X-H torsion
[ 7974 7965 7964 7962 ] final   67.82 input  175.53 | X-H torsion
[ 8008 7997 7996 7995 ] final   67.35 input   59.86 | X-H torsion
[ 10167 10162 10161 10158 ] final   -2.10 input  -65.29 | X-H torsion
[ 10718 10713 10712 10709 ] final -135.14 input   66.30 | X-H torsion
[ 10763 10752 10751 10750 ] final -169.40 input  -60.55 | X-H torsion
[ 11005 11000 10999 10996 ] final  -22.90 input  -57.11 | X-H torsion

> <Gold.Protein.ActiveResidues>
 VAL166  LYS551  ARG553  GLY616  TRP617  ASP618  TYR619  PRO620  LYS621  CYS622 
 ASP623  PHE694  ASN695  SER759  ASP760  ASP761  ALA762  ILE779  LEU786  VAL792 
 PHE793  MET794  SER795  GLU796  ALA797  LYS798  CYS799  TRP800  GLU811  SER814 

> <Gold.Protein.RotatedAtoms>
  150.8934  134.8340  159.7309 H   0  0  0  0  0  0  0  0  0  0  0  0  # atno 6907 bound_to 6896
  152.4850  134.4613  159.9616 H   0  0  0  0  0  0  0  0  0  0  0  0  # atno 6908 bound_to 6896
  151.4673  133.3539  159.2853 H   0  0  0  0  0  0  0  0  0  0  0  0  # atno 6909 bound_to 6896
  145.8100  139.3027  143.1104 H   0  0  0  0  0  0  0  0  0  0  0  0  # atno 7974 bound_to 7965
  155.6915  140.3496  155.4895 H   0  0  0  0  0  0  0  0  0  0  0  0  # atno 8008 bound_to 7997
  155.9520  140.1121  157.0991 H   0  0  0  0  0  0  0  0  0  0  0  0  # atno 8009 bound_to 7997
  154.4124  140.1192  156.5051 H   0  0  0  0  0  0  0  0  0  0  0  0  # atno 8010 bound_to 7997
  140.6837  143.6697  150.8196 H   0  0  0  0  0  0  0  0  0  0  0  0  # atno 10167 bound_to 10162
  156.2629  130.7220  151.1161 H   0  0  0  0  0  0  0  0  0  0  0  0  # atno 10718 bound_to 10713
  154.6526  135.2913  154.9967 H   0  0  0  0  0  0  0  0  0  0  0  0  # atno 10763 bound_to 10752
  154.1055  135.6570  153.4879 H   0  0  0  0  0  0  0  0  0  0  0  0  # atno 10764 bound_to 10752
  153.0385  135.5252  154.7441 H   0  0  0  0  0  0  0  0  0  0  0  0  # atno 10765 bound_to 10752
  140.8701  133.7727  156.0176 H   0  0  0  0  0  0  0  0  0  0  0  0  # atno 11005 bound_to 11000
  145.9787  140.8700  143.0125 LP  0  0  0  0  0  0  0  0  0  0  0  0  # atno 17320 bound_to 7965
  144.6758  140.2049  143.7383 LP  0  0  0  0  0  0  0  0  0  0  0  0  # atno 17321 bound_to 7965
  140.0401  143.5355  152.2722 LP  0  0  0  0  0  0  0  0  0  0  0  0  # atno 17342 bound_to 10162
  139.6179  144.7623  151.2805 LP  0  0  0  0  0  0  0  0  0  0  0  0  # atno 17343 bound_to 10162
  157.7257  131.0651  150.5941 LP  0  0  0  0  0  0  0  0  0  0  0  0  # atno 17370 bound_to 10713
  156.6031  130.4360  149.5889 LP  0  0  0  0  0  0  0  0  0  0  0  0  # atno 17371 bound_to 10713
  140.8583  134.2871  157.5245 LP  0  0  0  0  0  0  0  0  0  0  0  0  # atno 17394 bound_to 11000
  139.8711  134.9505  156.4056 LP  0  0  0  0  0  0  0  0  0  0  0  0  # atno 17395 bound_to 11000

$$$$
