AV-unprocessed.smi:694|AV-procd|sdf|3377|dock2
  -GOLD-   22720 0353D 1   1.00000     0.00000
 Structure written by MMmdl.
 43 44  0  0  0  0  0  0  0  0  2 V2000
  151.1791  144.0868  157.3039 C   0  0  0  0  0  0  0  0  0  0  0  0
  151.2148  142.6401  157.4866 N   0  0  0  0  0  0  0  0  0  0  0  0
  151.8840  142.0617  158.6447 C   0  0  0  0  0  0  0  0  0  0  0  0
  150.6582  141.7947  156.5024 C   0  0  0  0  0  0  0  0  0  0  0  0
  151.0590  140.4489  156.3185 C   0  0  0  0  0  0  0  0  0  0  0  0
  150.4539  139.6681  155.3124 C   0  0  0  0  0  0  0  0  0  0  0  0
  149.4546  140.2292  154.4901 C   0  0  0  0  0  0  0  0  0  0  0  0
  148.8718  139.3910  153.4995 N   0  0  0  0  0  0  0  0  0  0  0  0
  147.6341  139.4309  152.9754 C   0  0  0  0  0  0  0  0  0  0  0  0
  146.7694  140.2620  153.2498 O   0  0  0  0  0  0  0  0  0  0  0  0
  147.4519  138.4386  152.0922 N   0  0  0  0  0  0  0  0  0  0  0  0
  146.2222  138.1819  151.3483 C   0  0  0  0  0  0  0  0  0  0  0  0
  145.5539  136.8600  151.7832 C   0  0  1  0  0  0  0  0  0  0  0  0
  144.0979  136.9744  152.2562 C   0  0  0  0  0  0  0  0  0  0  0  0
  143.4990  135.5682  152.1036 C   0  0  0  0  0  0  0  0  0  0  0  0
  144.4991  134.7547  151.2662 C   0  0  0  0  0  0  0  0  0  0  0  0
  145.5044  135.7667  150.7057 C   0  0  1  0  0  0  0  0  0  0  0  0
  145.0124  136.2717  149.4780 O   0  0  0  0  0  0  0  0  0  0  0  0
  149.0840  141.5764  154.7178 C   0  0  0  0  0  0  0  0  0  0  0  0
  149.6899  142.2880  155.6924 N   0  3  0  0  0  0  0  0  0  0  0  0
  150.1500  144.4383  157.2249 H   0  0  0  0  0  0  0  0  0  0  0  0
  151.7147  144.3717  156.3977 H   0  0  0  0  0  0  0  0  0  0  0  0
  151.6440  144.6044  158.1434 H   0  0  0  0  0  0  0  0  0  0  0  0
  152.7252  141.4425  158.3320 H   0  0  0  0  0  0  0  0  0  0  0  0
  151.1915  141.4461  159.2195 H   0  0  0  0  0  0  0  0  0  0  0  0
  152.2692  142.8360  159.3082 H   0  0  0  0  0  0  0  0  0  0  0  0
  151.8226  139.9985  156.9348 H   0  0  0  0  0  0  0  0  0  0  0  0
  150.7609  138.6415  155.1758 H   0  0  0  0  0  0  0  0  0  0  0  0
  149.4795  138.6737  153.1319 H   0  0  0  0  0  0  0  0  0  0  0  0
  148.2197  137.8051  151.9246 H   0  0  0  0  0  0  0  0  0  0  0  0
  145.5318  139.0213  151.4461 H   0  0  0  0  0  0  0  0  0  0  0  0
  146.4826  138.1251  150.2912 H   0  0  0  0  0  0  0  0  0  0  0  0
  146.1319  136.4546  152.6158 H   0  0  0  0  0  0  0  0  0  0  0  0
  144.0233  137.3450  153.2787 H   0  0  0  0  0  0  0  0  0  0  0  0
  143.5527  137.6697  151.6161 H   0  0  0  0  0  0  0  0  0  0  0  0
  143.3449  135.0981  153.0755 H   0  0  0  0  0  0  0  0  0  0  0  0
  142.5276  135.6217  151.6104 H   0  0  0  0  0  0  0  0  0  0  0  0
  145.0232  134.0571  151.9205 H   0  0  0  0  0  0  0  0  0  0  0  0
  144.0137  134.1612  150.4901 H   0  0  0  0  0  0  0  0  0  0  0  0
  146.4826  135.3162  150.5345 H   0  0  0  0  0  0  0  0  0  0  0  0
  145.4965  135.8715  148.7721 H   0  0  0  0  0  0  0  0  0  0  0  0
  148.3263  142.1197  154.1747 H   0  0  0  0  0  0  0  0  0  0  0  0
  149.3979  143.2560  155.8276 H   0  0  0  0  0  0  0  0  0  0  0  0
  1  2  1  0  0  0  0
  1 21  1  0  0  0  0
  1 22  1  0  0  0  0
  1 23  1  0  0  0  0
  2  3  1  0  0  0  0
  2  4  1  0  0  0  0
  3 24  1  0  0  0  0
  3 25  1  0  0  0  0
  3 26  1  0  0  0  0
  4 20  1  0  0  0  0
  4  5  2  0  0  0  0
  5  6  1  0  0  0  0
  5 27  1  0  0  0  0
  6  7  2  0  0  0  0
  6 28  1  0  0  0  0
  7  8  1  0  0  0  0
  7 19  1  0  0  0  0
  8  9  1  0  0  0  0
  8 29  1  0  0  0  0
  9 10  2  0  0  0  0
  9 11  1  0  0  0  0
 11 12  1  0  0  0  0
 11 30  1  0  0  0  0
 12 13  1  0  0  0  0
 12 31  1  0  0  0  0
 12 32  1  0  0  0  0
 13 17  1  0  0  0  0
 13 14  1  0  0  0  0
 13 33  1  0  0  0  0
 14 15  1  0  0  0  0
 14 34  1  0  0  0  0
 14 35  1  0  0  0  0
 15 16  1  0  0  0  0
 15 36  1  0  0  0  0
 15 37  1  0  0  0  0
 16 17  1  0  0  0  0
 16 38  1  0  0  0  0
 16 39  1  0  0  0  0
 17 18  1  0  0  0  0
 17 40  1  0  0  0  0
 18 41  1  0  0  0  0
 19 20  2  0  0  0  0
 19 42  1  0  0  0  0
 20 43  1  0  0  0  0
M  CHG  1  20   1
M  END
> <s_m_source_file>
AV-unprocessed.smi

> <i_m_source_file_index>
694

> <i_lp_mmshare_version>
43012

> <i_f3d_flags>
0

> <s_epik_input>
W0NIM11OKFtDSDNdKWMxW2NIXVtjSF1jKFtjSF1uMSlbTkhdQyg9TylbTkhdW0NIMl1bQ0BASF0yW0NIMl1bQ0gyXVtDSDJdW0NASF0yW09IXQ==

> <s_epik_cmdline>
J2VwaWtfcHl0aG9uJywgJy1waCcsICc3LjAnLCAnLXRuJywgJzgnLCAnLW1hJywgJzIwMCcsICctbWV0YWxfYmluZGluZycsICctaW1hZScsICc8aW5maWxlLm1hZT4nLCAnLW9tYWUnLCAnPG91dGZpbGUubWFlPic=

> <r_lp_tautomer_probability>
0.999994

> <r_epik_Ionization_Penalty>
0.266135

> <r_epik_Ionization_Penalty_Charging>
0.266113

> <r_epik_Ionization_Penalty_Neutral>
2.14137e-05

> <r_epik_State_Penalty>
0.258052

> <r_epik_Charging_Adjusted_Penalty>
0.524165

> <i_epik_Tot_Q>
1

> <i_epik_Tot_abs_Q>
1

> <r_epik_Metal_State_Penalty>
0.544313

> <b_epik_Metal_Only>
0

> <s_lp_Force_Field>
OPLS_2005

> <r_lp_Energy>
32.9128

> <b_lp_Chiralities_Consistent>
1

> <s_lp_Variant>
AV-unprocessed.smi:694-2

> <Gold.Version>
5.8.1

> <Gold.Id.Protein>
6NUR|6NUR_protein|mol2

> <Gold.PLP.Fitness>
52.1004

> <Gold.PLP.PLP>
-42.4120

> <Gold.PLP.part.hbond>
-5.9857

> <Gold.PLP.part.metal>
0.0000

> <Gold.PLP.part.buried>
0.9977

> <Gold.PLP.part.nonpolar>
-38.6314

> <Gold.PLP.part.repulsive>
0.5527

> <Gold.PLP.ligand.clash>
0.0000

> <Gold.PLP.ligand.torsion>
1.1673

> <Gold.PLP.Chemscore.Hbond>
4.0000

> <Gold.PLP.Chemscore.CHOScore>
0.0000

> <Gold.PLP.Chemscore.Metal>
0.0000

> <Gold.Chemscore.Hbonds>
donor molecule, donor type, donor heavy atom, donor atom, acceptor molecule, acceptor atom, score
      L1  H    11    30       P1  7948  1.00
      L1  H    18    41       P1  7921  1.00
      L1  H    20    43       P1  8028  2.00

> <Gold.PLP.Chemscore.Internal.Correction>
0.0230

> <Gold.Rescore>
     Score         DG    S(hbond)    S(metal)    S(lipo)     H(rot)  DE(clash)    DE(int)     intcor
     17.65     -19.82       2.92        0.00      77.49       1.75       0.36       1.80       ----

> <Gold.Chemscore.Fitness>
17.6534

> <Gold.Chemscore.DG>
-19.8164

> <Gold.Chemscore.ZeroCoef>
-5.4800

> <Gold.Chemscore.Hbond>
2.9179

> <Gold.Chemscore.Metal>
0.0000

> <Gold.Chemscore.Lipo>
77.4931

> <Gold.Chemscore.Internal_Hbond>
0.0000

> <Gold.Chemscore.DEClash>
0.3606

> <Gold.Chemscore.DEInternal>
1.8023

> <Gold.Chemscore.Rot>
1.7485

> <Gold.Chemscore.Internal.Correction>
   9.000000E+99

> <Gold.Chemscore.Hbonds>
donor molecule, donor type, donor heavy atom, donor atom, acceptor molecule, acceptor atom, score
      L1  H    11    30       P1  7948  0.98
      L1  H    18    41       P1  7921  1.00
      L1  H    20    43       P1  8028  0.96

> <Gold.Chemscore.Hbond.Weighted>
-9.7458

> <Gold.Chemscore.Metal.Weighted>
-0.0000

> <Gold.Chemscore.Lipo.Weighted>
-9.0667

> <Gold.Chemscore.Internal_Hbond.Weighted>
0.0000

> <Gold.Chemscore.DEClash.Weighted>
0.3606

> <Gold.Chemscore.DEInternal.Weighted>
1.8023

> <Gold.Chemscore.Rot.Weighted>
4.4762

> <Gold.Chemscore.Internal.Correction.Weighted>
   9.000000E+99

> <Gold.Protein.RotatedTorsions>
[ 6907 6896 6895 6894 ] final -172.92 input  -60.11 | X-H torsion
[ 7974 7965 7964 7962 ] final  154.97 input  175.53 | X-H torsion
[ 8008 7997 7996 7995 ] final  -51.49 input   59.86 | X-H torsion
[ 10167 10162 10161 10158 ] final -132.44 input  -65.29 | X-H torsion
[ 10718 10713 10712 10709 ] final   95.06 input   66.30 | X-H torsion
[ 10763 10752 10751 10750 ] final  -79.88 input  -60.55 | X-H torsion
[ 11005 11000 10999 10996 ] final   83.71 input  -57.11 | X-H torsion

> <Gold.Protein.ActiveResidues>
 VAL166  LYS551  ARG553  GLY616  TRP617  ASP618  TYR619  PRO620  LYS621  CYS622 
 ASP623  PHE694  ASN695  SER759  ASP760  ASP761  ALA762  ILE779  LEU786  VAL792 
 PHE793  MET794  SER795  GLU796  ALA797  LYS798  CYS799  TRP800  GLU811  SER814 

> <Gold.Protein.RotatedAtoms>
  151.5477  133.3422  159.2946 H   0  0  0  0  0  0  0  0  0  0  0  0  # atno 6907 bound_to 6896
  150.8497  134.7820  159.7010 H   0  0  0  0  0  0  0  0  0  0  0  0  # atno 6908 bound_to 6896
  152.4546  134.5327  159.9867 H   0  0  0  0  0  0  0  0  0  0  0  0  # atno 6909 bound_to 6896
  144.8054  139.7005  143.6164 H   0  0  0  0  0  0  0  0  0  0  0  0  # atno 7974 bound_to 7965
  154.4084  140.1247  156.4837 H   0  0  0  0  0  0  0  0  0  0  0  0  # atno 8008 bound_to 7997
  155.7060  140.3494  155.4933 H   0  0  0  0  0  0  0  0  0  0  0  0  # atno 8009 bound_to 7997
  155.9343  140.1075  157.1097 H   0  0  0  0  0  0  0  0  0  0  0  0  # atno 8010 bound_to 7997
  139.9085  143.6522  152.2580 H   0  0  0  0  0  0  0  0  0  0  0  0  # atno 10167 bound_to 10162
  157.6942  131.0533  150.4281 H   0  0  0  0  0  0  0  0  0  0  0  0  # atno 10718 bound_to 10713
  154.5442  135.5680  153.6865 H   0  0  0  0  0  0  0  0  0  0  0  0  # atno 10763 bound_to 10752
  152.9971  135.6235  154.2461 H   0  0  0  0  0  0  0  0  0  0  0  0  # atno 10764 bound_to 10752
  154.2393  135.2863  155.2839 H   0  0  0  0  0  0  0  0  0  0  0  0  # atno 10765 bound_to 10752
  139.9023  134.8164  156.2345 H   0  0  0  0  0  0  0  0  0  0  0  0  # atno 11005 bound_to 11000
  146.2344  139.5877  142.9533 LP  0  0  0  0  0  0  0  0  0  0  0  0  # atno 17320 bound_to 7965
  145.5450  141.0418  143.2309 LP  0  0  0  0  0  0  0  0  0  0  0  0  # atno 17321 bound_to 7965
  139.6963  144.7641  151.1351 LP  0  0  0  0  0  0  0  0  0  0  0  0  # atno 17342 bound_to 10162
  140.7691  143.5519  150.9194 LP  0  0  0  0  0  0  0  0  0  0  0  0  # atno 17343 bound_to 10162
  156.4650  130.4040  149.6553 LP  0  0  0  0  0  0  0  0  0  0  0  0  # atno 17370 bound_to 10713
  156.3654  130.7503  151.2480 LP  0  0  0  0  0  0  0  0  0  0  0  0  # atno 17371 bound_to 10713
  141.0324  133.6981  156.1453 LP  0  0  0  0  0  0  0  0  0  0  0  0  # atno 17394 bound_to 11000
  140.7077  134.4495  157.5583 LP  0  0  0  0  0  0  0  0  0  0  0  0  # atno 17395 bound_to 11000

$$$$
