AV-unprocessed.smi:1595|AV-procd|sdf|6415|dock5
  -GOLD-   22720 7 53D 1   1.00000     0.00000
 Structure written by MMmdl.
 29 30  0  0  0  0  0  0  0  0  1 V2000
  153.0100  139.5462  156.3340 O   0  0  0  0  0  0  0  0  0  0  0  0
  151.9194  139.5143  156.9062 C   0  0  0  0  0  0  0  0  0  0  0  0
  151.8344  139.3501  158.4307 C   0  0  0  0  0  0  0  0  0  0  0  0
  152.3594  140.5078  159.1745 N   0  0  0  0  0  0  0  0  0  0  0  0
  151.8280  141.7722  158.8524 C   0  0  0  0  0  0  0  0  0  0  0  0
  152.2307  142.9103  159.4498 C   0  0  0  0  0  0  0  0  0  0  0  0
  151.6062  144.2574  159.1208 C   0  0  0  0  0  0  0  0  0  0  0  0
  151.9855  144.6752  157.9130 F   0  0  0  0  0  0  0  0  0  0  0  0
  150.2780  144.1537  159.1243 F   0  0  0  0  0  0  0  0  0  0  0  0
  151.9537  145.1857  160.0131 F   0  0  0  0  0  0  0  0  0  0  0  0
  153.2340  142.7741  160.4871 C   0  0  0  0  0  0  0  0  0  0  0  0
  153.7503  141.5722  160.8097 C   0  0  0  0  0  0  0  0  0  0  0  0
  153.3209  140.3465  160.1325 C   0  0  0  0  0  0  0  0  0  0  0  0
  153.7937  139.2440  160.4105 O   0  0  0  0  0  0  0  0  0  0  0  0
  150.7473  139.6365  156.2665 N   0  0  0  0  0  0  0  0  0  0  0  0
  150.5836  139.8070  154.8591 C   0  0  0  0  0  0  0  0  0  0  0  0
  149.1742  139.9629  154.3297 C   0  0  0  0  0  0  0  0  0  0  0  0
  149.9259  138.6832  154.0875 C   0  0  0  0  0  0  0  0  0  0  0  0
  150.7916  139.1680  158.6942 H   0  0  0  0  0  0  0  0  0  0  0  0
  152.3641  138.4424  158.7260 H   0  0  0  0  0  0  0  0  0  0  0  0
  151.0717  141.7572  158.0809 H   0  0  0  0  0  0  0  0  0  0  0  0
  153.5817  143.6526  161.0104 H   0  0  0  0  0  0  0  0  0  0  0  0
  154.4994  141.5089  161.5855 H   0  0  0  0  0  0  0  0  0  0  0  0
  149.9031  139.6030  156.8195 H   0  0  0  0  0  0  0  0  0  0  0  0
  151.3571  140.3604  154.3283 H   0  0  0  0  0  0  0  0  0  0  0  0
  148.3545  139.9358  155.0451 H   0  0  0  0  0  0  0  0  0  0  0  0
  149.0286  140.6284  153.4811 H   0  0  0  0  0  0  0  0  0  0  0  0
  150.2822  138.4934  153.0772 H   0  0  0  0  0  0  0  0  0  0  0  0
  149.6094  137.8019  154.6422 H   0  0  0  0  0  0  0  0  0  0  0  0
  1  2  2  0  0  0  0
  2  3  1  0  0  0  0
  2 15  1  0  0  0  0
  3  4  1  0  0  0  0
  3 19  1  0  0  0  0
  3 20  1  0  0  0  0
  4 13  1  0  0  0  0
  4  5  1  0  0  0  0
  5  6  2  0  0  0  0
  5 21  1  0  0  0  0
  6  7  1  0  0  0  0
  6 11  1  0  0  0  0
  7  8  1  0  0  0  0
  7  9  1  0  0  0  0
  7 10  1  0  0  0  0
 11 12  2  0  0  0  0
 11 22  1  0  0  0  0
 12 13  1  0  0  0  0
 12 23  1  0  0  0  0
 13 14  2  0  0  0  0
 15 16  1  0  0  0  0
 15 24  1  0  0  0  0
 16 18  1  0  0  0  0
 16 17  1  0  0  0  0
 16 25  1  0  0  0  0
 17 18  1  0  0  0  0
 17 26  1  0  0  0  0
 17 27  1  0  0  0  0
 18 28  1  0  0  0  0
 18 29  1  0  0  0  0
M  END
> <s_m_source_file>
AV-unprocessed.smi

> <i_m_source_file_index>
1595

> <i_lp_mmshare_version>
43012

> <i_f3d_flags>
0

> <s_epik_input>
W0NIMl0xW0NIMl1bQ0hdMVtOSF1DKD1PKVtDSDJdbjJbY0hdYyhDKEYpKEYpRilbY0hdW2NIXWMyPU8=

> <s_epik_cmdline>
J2VwaWtfcHl0aG9uJywgJy1waCcsICc3LjAnLCAnLXRuJywgJzgnLCAnLW1hJywgJzIwMCcsICctbWV0YWxfYmluZGluZycsICctaW1hZScsICc8aW5maWxlLm1hZT4nLCAnLW9tYWUnLCAnPG91dGZpbGUubWFlPic=

> <r_lp_tautomer_probability>
1

> <r_epik_Ionization_Penalty>
3.87815e-08

> <r_epik_Ionization_Penalty_Charging>
1.81112e-08

> <r_epik_Ionization_Penalty_Neutral>
2.06703e-08

> <r_epik_State_Penalty>
-0

> <r_epik_Charging_Adjusted_Penalty>
1.81112e-08

> <i_epik_Tot_Q>
0

> <i_epik_Tot_abs_Q>
0

> <r_epik_Metal_State_Penalty>
-0

> <b_epik_Metal_Only>
0

> <s_lp_Force_Field>
OPLS_2005

> <r_lp_Energy>
27.3116

> <b_lp_Chiralities_Consistent>
1

> <s_lp_Variant>
AV-unprocessed.smi:1595-1

> <Gold.Version>
5.8.1

> <Gold.Id.Protein>
6NUR|6NUR_protein|mol2

> <Gold.PLP.Fitness>
46.6846

> <Gold.PLP.PLP>
-44.5112

> <Gold.PLP.part.hbond>
-0.8579

> <Gold.PLP.part.metal>
0.0000

> <Gold.PLP.part.buried>
-3.6616

> <Gold.PLP.part.nonpolar>
-39.0147

> <Gold.PLP.part.repulsive>
0.0586

> <Gold.PLP.ligand.clash>
0.0000

> <Gold.PLP.ligand.torsion>
0.4488

> <Gold.PLP.Chemscore.Hbond>
1.0000

> <Gold.PLP.Chemscore.CHOScore>
0.0000

> <Gold.PLP.Chemscore.Metal>
0.0000

> <Gold.Chemscore.Hbonds>
donor molecule, donor type, donor heavy atom, donor atom, acceptor molecule, acceptor atom, score
      P1  H  7997  8008       L1     1  0.91

> <Gold.PLP.Chemscore.Internal.Correction>
0.0710

> <Gold.Rescore>
     Score         DG    S(hbond)    S(metal)    S(lipo)     H(rot)  DE(clash)    DE(int)     intcor
     13.63     -13.73       1.00        0.00      77.51       1.62       0.04       0.05       ----

> <Gold.Chemscore.Fitness>
13.6339

> <Gold.Chemscore.DG>
-13.7283

> <Gold.Chemscore.ZeroCoef>
-5.4800

> <Gold.Chemscore.Hbond>
0.9954

> <Gold.Chemscore.Metal>
0.0000

> <Gold.Chemscore.Lipo>
77.5111

> <Gold.Chemscore.Internal_Hbond>
0.0000

> <Gold.Chemscore.DEClash>
0.0399

> <Gold.Chemscore.DEInternal>
0.0545

> <Gold.Chemscore.Rot>
1.6192

> <Gold.Chemscore.Internal.Correction>
   9.000000E+99

> <Gold.Chemscore.Hbonds>
donor molecule, donor type, donor heavy atom, donor atom, acceptor molecule, acceptor atom, score
      P1  H  7997  8008       L1     1  0.87

> <Gold.Chemscore.Hbond.Weighted>
-3.3247

> <Gold.Chemscore.Metal.Weighted>
-0.0000

> <Gold.Chemscore.Lipo.Weighted>
-9.0688

> <Gold.Chemscore.Internal_Hbond.Weighted>
0.0000

> <Gold.Chemscore.DEClash.Weighted>
0.0399

> <Gold.Chemscore.DEInternal.Weighted>
0.0545

> <Gold.Chemscore.Rot.Weighted>
4.1452

> <Gold.Chemscore.Internal.Correction.Weighted>
   9.000000E+99

> <Gold.Protein.RotatedTorsions>
[ 6907 6896 6895 6894 ] final   89.49 input  -60.11 | X-H torsion
[ 7974 7965 7964 7962 ] final   11.14 input  175.53 | X-H torsion
[ 8008 7997 7996 7995 ] final  -60.88 input   59.86 | X-H torsion
[ 10167 10162 10161 10158 ] final  -51.62 input  -65.29 | X-H torsion
[ 10718 10713 10712 10709 ] final -119.94 input   66.30 | X-H torsion
[ 10763 10752 10751 10750 ] final   16.86 input  -60.55 | X-H torsion
[ 11005 11000 10999 10996 ] final  -36.19 input  -57.11 | X-H torsion

> <Gold.Protein.ActiveResidues>
 VAL166  LYS551  ARG553  GLY616  TRP617  ASP618  TYR619  PRO620  LYS621  CYS622 
 ASP623  PHE694  ASN695  SER759  ASP760  ASP761  ALA762  ILE779  LEU786  VAL792 
 PHE793  MET794  SER795  GLU796  ALA797  LYS798  CYS799  TRP800  GLU811  SER814 

> <Gold.Protein.RotatedAtoms>
  152.5436  134.1957  159.8691 H   0  0  0  0  0  0  0  0  0  0  0  0  # atno 6907 bound_to 6896
  151.1950  133.4638  159.2603 H   0  0  0  0  0  0  0  0  0  0  0  0  # atno 6908 bound_to 6896
  151.1046  135.0004  159.8520 H   0  0  0  0  0  0  0  0  0  0  0  0  # atno 6909 bound_to 6896
  146.2376  139.9530  142.8468 H   0  0  0  0  0  0  0  0  0  0  0  0  # atno 7974 bound_to 7965
  154.4420  140.1030  156.6344 H   0  0  0  0  0  0  0  0  0  0  0  0  # atno 8008 bound_to 7997
  155.5570  140.3487  155.4463 H   0  0  0  0  0  0  0  0  0  0  0  0  # atno 8009 bound_to 7997
  156.0487  140.1299  157.0063 H   0  0  0  0  0  0  0  0  0  0  0  0  # atno 8010 bound_to 7997
  140.6579  143.2613  151.4530 H   0  0  0  0  0  0  0  0  0  0  0  0  # atno 10167 bound_to 10162
  156.1219  130.6330  150.9478 H   0  0  0  0  0  0  0  0  0  0  0  0  # atno 10718 bound_to 10713
  153.1392  135.6756  153.9054 H   0  0  0  0  0  0  0  0  0  0  0  0  # atno 10763 bound_to 10752
  153.8517  135.3092  155.3434 H   0  0  0  0  0  0  0  0  0  0  0  0  # atno 10764 bound_to 10752
  154.7773  135.4907  153.9854 H   0  0  0  0  0  0  0  0  0  0  0  0  # atno 10765 bound_to 10752
  140.9855  133.7033  156.1758 H   0  0  0  0  0  0  0  0  0  0  0  0  # atno 11005 bound_to 11000
  145.1843  140.9782  143.4248 LP  0  0  0  0  0  0  0  0  0  0  0  0  # atno 17320 bound_to 7965
  144.9914  139.3686  143.6213 LP  0  0  0  0  0  0  0  0  0  0  0  0  # atno 17321 bound_to 7965
  139.5805  144.1719  152.1962 LP  0  0  0  0  0  0  0  0  0  0  0  0  # atno 17342 bound_to 10162
  140.1043  144.5512  150.6967 LP  0  0  0  0  0  0  0  0  0  0  0  0  # atno 17343 bound_to 10162
  157.6402  131.0911  150.8266 LP  0  0  0  0  0  0  0  0  0  0  0  0  # atno 17370 bound_to 10713
  156.8361  130.5032  149.5326 LP  0  0  0  0  0  0  0  0  0  0  0  0  # atno 17371 bound_to 10713
  140.7120  134.4451  157.5581 LP  0  0  0  0  0  0  0  0  0  0  0  0  # atno 17394 bound_to 11000
  139.8969  134.8649  156.2068 LP  0  0  0  0  0  0  0  0  0  0  0  0  # atno 17395 bound_to 11000

$$$$
