AV-unprocessed.smi:1430|AV-procd|sdf|5823|dock1
  -GOLD-   22720 5483D 1   1.00000     0.00000
 Structure written by MMmdl.
 46 47  0  0  0  0  0  0  0  0  1 V2000
  144.5278  131.9128  150.6282 C   0  0  0  0  0  0  0  0  0  0  0  0
  143.5716  132.6939  151.3364 O   0  0  0  0  0  0  0  0  0  0  0  0
  143.8905  134.0009  151.6426 C   0  0  0  0  0  0  0  0  0  0  0  0
  142.9122  134.8073  152.2572 C   0  0  0  0  0  0  0  0  0  0  0  0
  143.2296  136.1419  152.5750 C   0  0  0  0  0  0  0  0  0  0  0  0
  144.5242  136.6278  152.2727 C   0  0  0  0  0  0  0  0  0  0  0  0
  144.9642  137.9556  152.5253 N   0  0  0  0  0  0  0  0  0  0  0  0
  146.1609  138.3744  152.9718 C   0  0  0  0  0  0  0  0  0  0  0  0
  147.1226  137.6489  153.2245 O   0  0  0  0  0  0  0  0  0  0  0  0
  146.1913  139.7091  153.0931 N   0  0  0  0  0  0  0  0  0  0  0  0
  147.3466  140.4823  153.5325 C   0  0  0  0  0  0  0  0  0  0  0  0
  147.5887  140.3126  155.0439 C   0  0  0  0  0  0  0  0  0  0  0  0
  148.8233  139.6144  155.3964 N   0  0  0  0  0  0  0  0  0  0  0  0
  149.2913  140.0219  156.7152 C   0  0  0  0  0  0  0  0  0  0  0  0
  150.5712  139.2748  157.1307 C   0  0  2  0  0  0  0  0  0  0  0  0
  151.1112  139.7640  158.4786 C   0  0  0  0  0  0  0  0  0  0  0  0
  151.5820  139.4845  156.1466 O   0  0  0  0  0  0  0  0  0  0  0  0
  151.2103  139.1427  154.8103 C   0  0  1  0  0  0  0  0  0  0  0  0
  151.1771  137.6193  154.6006 C   0  0  0  0  0  0  0  0  0  0  0  0
  149.8909  139.8417  154.4242 C   0  0  0  0  0  0  0  0  0  0  0  0
  145.4256  135.7436  151.6447 C   0  0  0  0  0  0  0  0  0  0  0  0
  145.1283  134.4633  151.3382 N   0  0  0  0  0  0  0  0  0  0  0  0
  144.1266  130.9126  150.4649 H   0  0  0  0  0  0  0  0  0  0  0  0
  145.4552  131.8090  151.1932 H   0  0  0  0  0  0  0  0  0  0  0  0
  144.7502  132.3433  149.6508 H   0  0  0  0  0  0  0  0  0  0  0  0
  141.9327  134.4098  152.4783 H   0  0  0  0  0  0  0  0  0  0  0  0
  142.4726  136.7623  153.0282 H   0  0  0  0  0  0  0  0  0  0  0  0
  144.3023  138.6804  152.2892 H   0  0  0  0  0  0  0  0  0  0  0  0
  145.3580  140.2289  152.8594 H   0  0  0  0  0  0  0  0  0  0  0  0
  148.2176  140.1347  152.9765 H   0  0  0  0  0  0  0  0  0  0  0  0
  147.2021  141.5294  153.2642 H   0  0  0  0  0  0  0  0  0  0  0  0
  147.5679  141.2877  155.5332 H   0  0  0  0  0  0  0  0  0  0  0  0
  146.7433  139.7559  155.4513 H   0  0  0  0  0  0  0  0  0  0  0  0
  149.4774  141.0975  156.7244 H   0  0  0  0  0  0  0  0  0  0  0  0
  148.5128  139.8350  157.4559 H   0  0  0  0  0  0  0  0  0  0  0  0
  150.3604  138.2082  157.2127 H   0  0  0  0  0  0  0  0  0  0  0  0
  150.3781  139.6174  159.2722 H   0  0  0  0  0  0  0  0  0  0  0  0
  151.3589  140.8253  158.4423 H   0  0  0  0  0  0  0  0  0  0  0  0
  152.0149  139.2207  158.7558 H   0  0  0  0  0  0  0  0  0  0  0  0
  151.9971  139.5339  154.1648 H   0  0  0  0  0  0  0  0  0  0  0  0
  151.0015  137.3762  153.5524 H   0  0  0  0  0  0  0  0  0  0  0  0
  150.3876  137.1428  155.1812 H   0  0  0  0  0  0  0  0  0  0  0  0
  152.1256  137.1667  154.8904 H   0  0  0  0  0  0  0  0  0  0  0  0
  149.5890  139.4994  153.4348 H   0  0  0  0  0  0  0  0  0  0  0  0
  150.0751  140.9136  154.3351 H   0  0  0  0  0  0  0  0  0  0  0  0
  146.4212  136.0713  151.3826 H   0  0  0  0  0  0  0  0  0  0  0  0
  1  2  1  0  0  0  0
  1 23  1  0  0  0  0
  1 24  1  0  0  0  0
  1 25  1  0  0  0  0
  2  3  1  0  0  0  0
  3 22  1  0  0  0  0
  3  4  2  0  0  0  0
  4  5  1  0  0  0  0
  4 26  1  0  0  0  0
  5  6  2  0  0  0  0
  5 27  1  0  0  0  0
  6  7  1  0  0  0  0
  6 21  1  0  0  0  0
  7  8  1  0  0  0  0
  7 28  1  0  0  0  0
  8  9  2  0  0  0  0
  8 10  1  0  0  0  0
 10 11  1  0  0  0  0
 10 29  1  0  0  0  0
 11 12  1  0  0  0  0
 11 30  1  0  0  0  0
 11 31  1  0  0  0  0
 12 13  1  0  0  0  0
 12 32  1  0  0  0  0
 12 33  1  0  0  0  0
 13 20  1  0  0  0  0
 13 14  1  0  0  0  0
 14 15  1  0  0  0  0
 14 34  1  0  0  0  0
 14 35  1  0  0  0  0
 15 16  1  0  0  0  0
 15 17  1  0  0  0  0
 15 36  1  0  0  0  0
 16 37  1  0  0  0  0
 16 38  1  0  0  0  0
 16 39  1  0  0  0  0
 17 18  1  0  0  0  0
 18 19  1  0  0  0  0
 18 20  1  0  0  0  0
 18 40  1  0  0  0  0
 19 41  1  0  0  0  0
 19 42  1  0  0  0  0
 19 43  1  0  0  0  0
 20 44  1  0  0  0  0
 20 45  1  0  0  0  0
 21 22  2  0  0  0  0
 21 46  1  0  0  0  0
M  END
> <s_m_source_file>
AV-unprocessed.smi

> <i_m_source_file_index>
1430

> <i_lp_mmshare_version>
43012

> <i_f3d_flags>
0

> <s_epik_input>
W0NIM11PYzFbY0hdW2NIXWMoW2NIXW4xKVtOSF1DKD1PKVtOSF1bQ0gyXVtDSDJdTjJbQ0gyXVtDQEBIXShbQ0gzXSlPW0NAQEhdKFtDSDNdKVtDSDJdMg==

> <s_epik_cmdline>
J2VwaWtfcHl0aG9uJywgJy1waCcsICc3LjAnLCAnLXRuJywgJzgnLCAnLW1hJywgJzIwMCcsICctbWV0YWxfYmluZGluZycsICctaW1hZScsICc8aW5maWxlLm1hZT4nLCAnLW9tYWUnLCAnPG91dGZpbGUubWFlPic=

> <r_lp_tautomer_probability>
1

> <r_epik_Ionization_Penalty>
0.266083

> <r_epik_Ionization_Penalty_Charging>
0

> <r_epik_Ionization_Penalty_Neutral>
0.266083

> <r_epik_State_Penalty>
0.257924

> <r_epik_Charging_Adjusted_Penalty>
0.257924

> <i_epik_Tot_Q>
0

> <i_epik_Tot_abs_Q>
0

> <r_epik_Metal_State_Penalty>
0.257922

> <b_epik_Metal_Only>
0

> <s_lp_Force_Field>
OPLS_2005

> <r_lp_Energy>
25.3264

> <b_lp_Chiralities_Consistent>
1

> <s_lp_Variant>
AV-unprocessed.smi:1430-2

> <Gold.Version>
5.8.1

> <Gold.Id.Protein>
6NUR|6NUR_protein|mol2

> <Gold.PLP.Fitness>
38.2208

> <Gold.PLP.PLP>
-31.3319

> <Gold.PLP.part.hbond>
-3.0000

> <Gold.PLP.part.metal>
0.0000

> <Gold.PLP.part.buried>
-4.8286

> <Gold.PLP.part.nonpolar>
-26.3767

> <Gold.PLP.part.repulsive>
3.3478

> <Gold.PLP.ligand.clash>
0.0000

> <Gold.PLP.ligand.torsion>
1.1010

> <Gold.PLP.Chemscore.Hbond>
2.0000

> <Gold.PLP.Chemscore.CHOScore>
1.0000

> <Gold.PLP.Chemscore.Metal>
0.0000

> <Gold.Chemscore.Hbonds>
donor molecule, donor type, donor heavy atom, donor atom, acceptor molecule, acceptor atom, score
      L1  H     7    28       P1 10175  1.00
      L1  H    10    29       P1 10175  1.00
      L1  C    21    46       P1  7948  0.97

> <Gold.PLP.Chemscore.Internal.Correction>
0.0908

> <Gold.Rescore>
     Score         DG    S(hbond)    S(metal)    S(lipo)     H(rot)  DE(clash)    DE(int)     intcor
     12.82     -16.18       1.94        0.00      73.37       1.71       1.27       2.10       ----

> <Gold.Chemscore.Fitness>
12.8183

> <Gold.Chemscore.DG>
-16.1808

> <Gold.Chemscore.ZeroCoef>
-5.4800

> <Gold.Chemscore.Hbond>
1.9447

> <Gold.Chemscore.Metal>
0.0000

> <Gold.Chemscore.Lipo>
73.3748

> <Gold.Chemscore.Internal_Hbond>
0.0000

> <Gold.Chemscore.DEClash>
1.2667

> <Gold.Chemscore.DEInternal>
2.0958

> <Gold.Chemscore.Rot>
1.7107

> <Gold.Chemscore.Internal.Correction>
   9.000000E+99

> <Gold.Chemscore.Hbonds>
donor molecule, donor type, donor heavy atom, donor atom, acceptor molecule, acceptor atom, score
      L1  H     7    28       P1 10175  0.96
      L1  H    10    29       P1 10175  0.96

> <Gold.Chemscore.Hbond.Weighted>
-6.4954

> <Gold.Chemscore.Metal.Weighted>
-0.0000

> <Gold.Chemscore.Lipo.Weighted>
-8.5849

> <Gold.Chemscore.Internal_Hbond.Weighted>
0.0000

> <Gold.Chemscore.DEClash.Weighted>
1.2667

> <Gold.Chemscore.DEInternal.Weighted>
2.0958

> <Gold.Chemscore.Rot.Weighted>
4.3794

> <Gold.Chemscore.Internal.Correction.Weighted>
   9.000000E+99

> <Gold.Protein.RotatedTorsions>
[ 6907 6896 6895 6894 ] final   90.89 input  -60.11 | X-H torsion
[ 7974 7965 7964 7962 ] final  -29.94 input  175.53 | X-H torsion
[ 8008 7997 7996 7995 ] final    6.94 input   59.86 | X-H torsion
[ 10167 10162 10161 10158 ] final -115.81 input  -65.29 | X-H torsion
[ 10718 10713 10712 10709 ] final   61.71 input   66.30 | X-H torsion
[ 10763 10752 10751 10750 ] final   82.67 input  -60.55 | X-H torsion
[ 11005 11000 10999 10996 ] final  -62.48 input  -57.11 | X-H torsion

> <Gold.Protein.ActiveResidues>
 VAL166  LYS551  ARG553  GLY616  TRP617  ASP618  TYR619  PRO620  LYS621  CYS622 
 ASP623  PHE694  ASN695  SER759  ASP760  ASP761  ALA762  ILE779  LEU786  VAL792 
 PHE793  MET794  SER795  GLU796  ALA797  LYS798  CYS799  TRP800  GLU811  SER814 

> <Gold.Protein.RotatedAtoms>
  152.5447  134.1741  159.8608 H   0  0  0  0  0  0  0  0  0  0  0  0  # atno 6907 bound_to 6896
  151.1749  133.4754  159.2601 H   0  0  0  0  0  0  0  0  0  0  0  0  # atno 6908 bound_to 6896
  151.1237  135.0105  159.8606 H   0  0  0  0  0  0  0  0  0  0  0  0  # atno 6909 bound_to 6896
  146.1179  140.5477  142.8748 H   0  0  0  0  0  0  0  0  0  0  0  0  # atno 7974 bound_to 7965
  154.7474  140.2760  155.6321 H   0  0  0  0  0  0  0  0  0  0  0  0  # atno 8008 bound_to 7997
  156.2888  140.2685  156.2145 H   0  0  0  0  0  0  0  0  0  0  0  0  # atno 8009 bound_to 7997
  155.0180  140.0371  157.2416 H   0  0  0  0  0  0  0  0  0  0  0  0  # atno 8010 bound_to 7997
  140.0861  143.4743  152.1898 H   0  0  0  0  0  0  0  0  0  0  0  0  # atno 10167 bound_to 10162
  157.5848  130.9009  149.9495 H   0  0  0  0  0  0  0  0  0  0  0  0  # atno 10718 bound_to 10713
  153.1223  135.4719  154.9216 H   0  0  0  0  0  0  0  0  0  0  0  0  # atno 10763 bound_to 10752
  154.7587  135.3125  154.8422 H   0  0  0  0  0  0  0  0  0  0  0  0  # atno 10764 bound_to 10752
  153.8983  135.6877  153.4810 H   0  0  0  0  0  0  0  0  0  0  0  0  # atno 10765 bound_to 10752
  141.1361  133.6640  156.5533 H   0  0  0  0  0  0  0  0  0  0  0  0  # atno 11005 bound_to 11000
  144.7570  140.5331  143.6762 LP  0  0  0  0  0  0  0  0  0  0  0  0  # atno 17320 bound_to 7965
  145.5527  139.1477  143.3385 LP  0  0  0  0  0  0  0  0  0  0  0  0  # atno 17321 bound_to 7965
  139.5752  144.7483  151.3785 LP  0  0  0  0  0  0  0  0  0  0  0  0  # atno 17342 bound_to 10162
  140.7053  143.7530  150.7471 LP  0  0  0  0  0  0  0  0  0  0  0  0  # atno 17343 bound_to 10162
  156.0896  130.3664  150.0421 LP  0  0  0  0  0  0  0  0  0  0  0  0  # atno 17370 bound_to 10713
  156.8554  130.9473  151.3622 LP  0  0  0  0  0  0  0  0  0  0  0  0  # atno 17371 bound_to 10713
  140.4046  134.7326  157.4800 LP  0  0  0  0  0  0  0  0  0  0  0  0  # atno 17394 bound_to 11000
  140.0471  134.6184  155.8907 LP  0  0  0  0  0  0  0  0  0  0  0  0  # atno 17395 bound_to 11000

$$$$
