AV-unprocessed.smi:500|AV-procd|sdf|2736|dock9
  -GOLD-   2262023193D 1   1.00000     0.00000
 Structure written by MMmdl.
 46 48  0  0  0  0  0  0  0  0  2 V2000
  153.2403  135.1478  163.5091 C   0  0  0  0  0  0  0  0  0  0  0  0
  153.3732  136.3539  162.5768 C   0  0  0  0  0  0  0  0  0  0  0  0
  152.9724  135.9668  161.2743 O   0  0  0  0  0  0  0  0  0  0  0  0
  153.0940  137.0128  160.3245 C   0  0  0  0  0  0  0  0  0  0  0  0
  152.4128  138.2787  160.8623 C   0  0  0  0  0  0  0  0  0  0  0  0
  151.8290  139.0965  159.7878 N   0  0  0  0  0  0  0  0  0  0  0  0
  150.9793  138.7492  158.7770 C   0  0  0  0  0  0  0  0  0  0  0  0
  150.3901  137.3937  158.5219 C   0  0  2  0  0  0  0  0  0  0  0  0
  150.1516  137.1507  157.0236 C   0  0  0  0  0  0  0  0  0  0  0  0
  149.1353  137.2288  159.2498 N   0  0  0  0  0  0  0  0  0  0  0  0
  148.3734  136.1233  159.2672 C   0  0  0  0  0  0  0  0  0  0  0  0
  148.6402  135.1004  158.6373 O   0  0  0  0  0  0  0  0  0  0  0  0
  147.1550  136.1988  160.0953 C   0  0  0  0  0  0  0  0  0  0  0  0
  146.2894  135.2278  160.5269 C   0  0  0  0  0  0  0  0  0  0  0  0
  145.2857  135.8869  161.2896 C   0  0  0  0  0  0  0  0  0  0  0  0
  145.6072  137.2134  161.2664 C   0  0  0  0  0  0  0  0  0  0  0  0
  146.7403  137.4199  160.5419 O   0  0  0  0  0  0  0  0  0  0  0  0
  150.7271  139.8830  158.0607 N   0  3  0  0  0  0  0  0  0  0  0  0
  151.4439  140.9532  158.5955 C   0  0  0  0  0  0  0  0  0  0  0  0
  151.5209  142.2853  158.2006 C   0  0  0  0  0  0  0  0  0  0  0  0
  152.3573  143.1245  158.9656 C   0  0  0  0  0  0  0  0  0  0  0  0
  153.0751  142.6313  160.0744 C   0  0  0  0  0  0  0  0  0  0  0  0
  152.9856  141.2795  160.4665 C   0  0  0  0  0  0  0  0  0  0  0  0
  152.1565  140.4555  159.7048 C   0  0  0  0  0  0  0  0  0  0  0  0
  153.5346  135.4073  164.5263 H   0  0  0  0  0  0  0  0  0  0  0  0
  153.8737  134.3249  163.1770 H   0  0  0  0  0  0  0  0  0  0  0  0
  152.2115  134.7881  163.5392 H   0  0  0  0  0  0  0  0  0  0  0  0
  152.7474  137.1726  162.9353 H   0  0  0  0  0  0  0  0  0  0  0  0
  154.4060  136.7052  162.5655 H   0  0  0  0  0  0  0  0  0  0  0  0
  154.1474  137.2146  160.1238 H   0  0  0  0  0  0  0  0  0  0  0  0
  152.6329  136.7172  159.3812 H   0  0  0  0  0  0  0  0  0  0  0  0
  151.6127  138.0090  161.5499 H   0  0  0  0  0  0  0  0  0  0  0  0
  153.1120  138.8847  161.4384 H   0  0  0  0  0  0  0  0  0  0  0  0
  151.1151  136.6477  158.8503 H   0  0  0  0  0  0  0  0  0  0  0  0
  151.0791  137.2510  156.4589 H   0  0  0  0  0  0  0  0  0  0  0  0
  149.4290  137.8543  156.6085 H   0  0  0  0  0  0  0  0  0  0  0  0
  149.7692  136.1445  156.8485 H   0  0  0  0  0  0  0  0  0  0  0  0
  148.8221  138.0182  159.7957 H   0  0  0  0  0  0  0  0  0  0  0  0
  146.3660  134.1704  160.3207 H   0  0  0  0  0  0  0  0  0  0  0  0
  144.4360  135.4471  161.7906 H   0  0  0  0  0  0  0  0  0  0  0  0
  145.1616  138.1017  161.6896 H   0  0  0  0  0  0  0  0  0  0  0  0
  150.9735  142.6647  157.3504 H   0  0  0  0  0  0  0  0  0  0  0  0
  152.4519  144.1664  158.6959 H   0  0  0  0  0  0  0  0  0  0  0  0
  153.7086  143.3029  160.6356 H   0  0  0  0  0  0  0  0  0  0  0  0
  153.5453  140.9122  161.3138 H   0  0  0  0  0  0  0  0  0  0  0  0
  150.1151  139.9155  157.2556 H   0  0  0  0  0  0  0  0  0  0  0  0
  1  2  1  0  0  0  0
  1 25  1  0  0  0  0
  1 26  1  0  0  0  0
  1 27  1  0  0  0  0
  2  3  1  0  0  0  0
  2 28  1  0  0  0  0
  2 29  1  0  0  0  0
  3  4  1  0  0  0  0
  4  5  1  0  0  0  0
  4 30  1  0  0  0  0
  4 31  1  0  0  0  0
  5  6  1  0  0  0  0
  5 32  1  0  0  0  0
  5 33  1  0  0  0  0
  6 24  1  0  0  0  0
  6  7  1  0  0  0  0
  7  8  1  0  0  0  0
  7 18  2  0  0  0  0
  8  9  1  0  0  0  0
  8 10  1  0  0  0  0
  8 34  1  0  0  0  0
  9 35  1  0  0  0  0
  9 36  1  0  0  0  0
  9 37  1  0  0  0  0
 10 11  1  0  0  0  0
 10 38  1  0  0  0  0
 11 12  2  0  0  0  0
 11 13  1  0  0  0  0
 13 17  1  0  0  0  0
 13 14  2  0  0  0  0
 14 15  1  0  0  0  0
 14 39  1  0  0  0  0
 15 16  2  0  0  0  0
 15 40  1  0  0  0  0
 16 17  1  0  0  0  0
 16 41  1  0  0  0  0
 18 19  1  0  0  0  0
 18 46  1  0  0  0  0
 19 24  2  0  0  0  0
 19 20  1  0  0  0  0
 20 21  2  0  0  0  0
 20 42  1  0  0  0  0
 21 22  1  0  0  0  0
 21 43  1  0  0  0  0
 22 23  2  0  0  0  0
 22 44  1  0  0  0  0
 23 24  1  0  0  0  0
 23 45  1  0  0  0  0
M  CHG  1  18   1
M  END
> <s_m_source_file>
AV-unprocessed.smi

> <i_m_source_file_index>
500

> <i_lp_mmshare_version>
43012

> <i_f3d_flags>
0

> <s_epik_input>
W0NIM11bQ0gyXU9bQ0gyXVtDSDJdbihjKGMxMilbY0hdW2NIXVtjSF1bY0hdMiljKG4xKVtDQEhdKFtDSDNdKVtOSF1DKD1PKWMzW2NIXVtjSF1bY0hdbzM=

> <s_epik_cmdline>
J2VwaWtfcHl0aG9uJywgJy1waCcsICc3LjAnLCAnLXRuJywgJzgnLCAnLW1hJywgJzIwMCcsICctbWV0YWxfYmluZGluZycsICctaW1hZScsICc8aW5maWxlLm1hZT4nLCAnLW9tYWUnLCAnPG91dGZpbGUubWFlPic=

> <r_epik_Ionization_Penalty>
1.05286

> <r_epik_Ionization_Penalty_Charging>
1.05283

> <r_epik_Ionization_Penalty_Neutral>
2.09263e-05

> <r_epik_State_Penalty>
1.10586

> <r_epik_Charging_Adjusted_Penalty>
2.15869

> <i_epik_Tot_Q>
1

> <i_epik_Tot_abs_Q>
1

> <r_epik_Metal_State_Penalty>
1.22833

> <b_epik_Metal_Only>
0

> <s_lp_Force_Field>
OPLS_2005

> <r_lp_Energy>
11.0053

> <b_lp_Chiralities_Consistent>
1

> <s_lp_Variant>
AV-unprocessed.smi:500-3

> <Gold.Version>
5.8.1

> <Gold.Id.Protein>
6NUR|6NUR_protein|mol2

> <Gold.PLP.Fitness>
53.5314

> <Gold.PLP.PLP>
-44.3186

> <Gold.PLP.part.hbond>
-4.0000

> <Gold.PLP.part.metal>
0.0000

> <Gold.PLP.part.buried>
-5.7875

> <Gold.PLP.part.nonpolar>
-35.9128

> <Gold.PLP.part.repulsive>
0.5117

> <Gold.PLP.ligand.clash>
0.0000

> <Gold.PLP.ligand.torsion>
1.1187

> <Gold.PLP.Chemscore.Hbond>
3.7920

> <Gold.PLP.Chemscore.CHOScore>
0.0000

> <Gold.PLP.Chemscore.Metal>
0.0000

> <Gold.Chemscore.Hbonds>
donor molecule, donor type, donor heavy atom, donor atom, acceptor molecule, acceptor atom, score
      P1  H  6896  6907       L1     3  0.50
      P1  H  6896  6909       L1    12  0.41
      P1  H  6934  6947       L1    17  1.00

> <Gold.PLP.Chemscore.Internal.Correction>
0.0742

> <Gold.Rescore>
     Score         DG    S(hbond)    S(metal)    S(lipo)     H(rot)  DE(clash)    DE(int)     intcor
     22.39     -23.28       3.05        0.00     108.31       1.97       0.15       0.73       ----

> <Gold.Chemscore.Fitness>
22.3867

> <Gold.Chemscore.DG>
-23.2760

> <Gold.Chemscore.ZeroCoef>
-5.4800

> <Gold.Chemscore.Hbond>
3.0476

> <Gold.Chemscore.Metal>
0.0000

> <Gold.Chemscore.Lipo>
108.3071

> <Gold.Chemscore.Internal_Hbond>
0.0000

> <Gold.Chemscore.DEClash>
0.1550

> <Gold.Chemscore.DEInternal>
0.7344

> <Gold.Chemscore.Rot>
1.9746

> <Gold.Chemscore.Internal.Correction>
   9.000000E+99

> <Gold.Chemscore.Hbonds>
donor molecule, donor type, donor heavy atom, donor atom, acceptor molecule, acceptor atom, score
      P1  H  6896  6907       L1     3  0.04
      P1  H  6896  6909       L1    12  0.16
      P1  H  6934  6947       L1    17  0.40

> <Gold.Chemscore.Hbond.Weighted>
-10.1791

> <Gold.Chemscore.Metal.Weighted>
-0.0000

> <Gold.Chemscore.Lipo.Weighted>
-12.6719

> <Gold.Chemscore.Internal_Hbond.Weighted>
0.0000

> <Gold.Chemscore.DEClash.Weighted>
0.1550

> <Gold.Chemscore.DEInternal.Weighted>
0.7344

> <Gold.Chemscore.Rot.Weighted>
5.0550

> <Gold.Chemscore.Internal.Correction.Weighted>
   9.000000E+99

> <Gold.Protein.RotatedTorsions>
[ 6907 6896 6895 6894 ] final   43.58 input  -60.11 | X-H torsion
[ 7974 7965 7964 7962 ] final -165.11 input  175.53 | X-H torsion
[ 8008 7997 7996 7995 ] final    4.21 input   59.86 | X-H torsion
[ 10167 10162 10161 10158 ] final  120.38 input  -65.29 | X-H torsion
[ 10718 10713 10712 10709 ] final   49.88 input   66.30 | X-H torsion
[ 10763 10752 10751 10750 ] final   14.39 input  -60.55 | X-H torsion
[ 11005 11000 10999 10996 ] final  -62.36 input  -57.11 | X-H torsion

> <Gold.Protein.ActiveResidues>
 VAL166  LYS551  ARG553  GLY616  TRP617  ASP618  TYR619  PRO620  LYS621  CYS622 
 ASP623  PHE694  ASN695  SER759  ASP760  ASP761  ALA762  ILE779  LEU786  VAL792 
 PHE793  MET794  SER795  GLU796  ALA797  LYS798  CYS799  TRP800  GLU811  SER814 

> <Gold.Protein.RotatedAtoms>
  152.2220  134.8404  160.0484 H   0  0  0  0  0  0  0  0  0  0  0  0  # atno 6907 bound_to 6896
  151.9184  133.3574  159.3896 H   0  0  0  0  0  0  0  0  0  0  0  0  # atno 6908 bound_to 6896
  150.7002  134.4585  159.5414 H   0  0  0  0  0  0  0  0  0  0  0  0  # atno 6909 bound_to 6896
  144.7278  140.2862  143.6228 H   0  0  0  0  0  0  0  0  0  0  0  0  # atno 7974 bound_to 7965
  154.7131  140.2696  155.6611 H   0  0  0  0  0  0  0  0  0  0  0  0  # atno 8008 bound_to 7997
  156.2801  140.2749  156.1703 H   0  0  0  0  0  0  0  0  0  0  0  0  # atno 8009 bound_to 7997
  155.0608  140.0371  157.2566 H   0  0  0  0  0  0  0  0  0  0  0  0  # atno 8010 bound_to 7997
  139.5985  144.7049  151.3118 H   0  0  0  0  0  0  0  0  0  0  0  0  # atno 10167 bound_to 10162
  157.4830  130.8327  149.8114 H   0  0  0  0  0  0  0  0  0  0  0  0  # atno 10718 bound_to 10713
  153.1627  135.6798  153.8719 H   0  0  0  0  0  0  0  0  0  0  0  0  # atno 10763 bound_to 10752
  153.8109  135.3143  155.3402 H   0  0  0  0  0  0  0  0  0  0  0  0  # atno 10764 bound_to 10752
  154.7944  135.4816  154.0215 H   0  0  0  0  0  0  0  0  0  0  0  0  # atno 10765 bound_to 10752
  141.1357  133.6639  156.5515 H   0  0  0  0  0  0  0  0  0  0  0  0  # atno 11005 bound_to 11000
  145.7900  139.1923  143.2108 LP  0  0  0  0  0  0  0  0  0  0  0  0  # atno 17320 bound_to 7965
  146.0763  140.7813  142.9663 LP  0  0  0  0  0  0  0  0  0  0  0  0  # atno 17321 bound_to 7965
  140.7231  143.7079  150.7793 LP  0  0  0  0  0  0  0  0  0  0  0  0  # atno 17342 bound_to 10162
  140.0651  143.5117  152.2608 LP  0  0  0  0  0  0  0  0  0  0  0  0  # atno 17343 bound_to 10162
  156.0131  130.3824  150.2197 LP  0  0  0  0  0  0  0  0  0  0  0  0  # atno 17370 bound_to 10713
  157.0384  131.0028  151.3291 LP  0  0  0  0  0  0  0  0  0  0  0  0  # atno 17371 bound_to 10713
  140.4060  134.7314  157.4808 LP  0  0  0  0  0  0  0  0  0  0  0  0  # atno 17394 bound_to 11000
  140.0461  134.6197  155.8919 LP  0  0  0  0  0  0  0  0  0  0  0  0  # atno 17395 bound_to 11000

$$$$
