AV-unprocessed.smi:273|AV-procd|sdf|2055|dock5
  -GOLD-   2262021293D 1   1.00000     0.00000
 Structure written by MMmdl.
 59 62  0  0  0  0  0  0  0  0  1 V2000
  152.3233  144.1772  158.6870 C   0  0  0  0  0  0  0  0  0  0  0  0
  152.0605  144.3611  157.1865 C   0  0  0  0  0  0  0  0  0  0  0  0
  150.9795  143.4987  156.7250 N   0  0  0  0  0  0  0  0  0  0  0  0
  150.9438  142.1641  156.8611 C   0  0  0  0  0  0  0  0  0  0  0  0
  151.8466  141.5153  157.3905 O   0  0  0  0  0  0  0  0  0  0  0  0
  149.6939  141.4566  156.3221 C   0  0  0  0  0  0  0  0  0  0  0  0
  148.9443  140.7137  157.4480 C   0  0  0  0  0  0  0  0  0  0  0  0
  147.7147  139.9742  156.8961 C   0  0  0  0  0  0  0  0  0  0  0  0
  148.0931  139.0891  155.7990 N   0  0  0  0  0  0  0  0  0  0  0  0
  147.1023  138.2424  155.4467 C   0  0  0  0  0  0  0  0  0  0  0  0
  146.5119  137.5383  156.4434 N   0  0  0  0  0  0  0  0  0  0  0  0
  145.5146  136.6932  156.1653 C   0  0  0  0  0  0  0  0  0  0  0  0
  144.9601  136.4153  154.9832 N   0  0  0  0  0  0  0  0  0  0  0  0
  145.5441  137.1329  153.9808 C   0  0  0  0  0  0  0  0  0  0  0  0
  146.6140  138.0615  154.1212 C   0  0  0  0  0  0  0  0  0  0  0  0
  146.9344  138.6036  152.8819 N   0  0  0  0  0  0  0  0  0  0  0  0
  146.1098  138.0210  152.0552 C   0  0  0  0  0  0  0  0  0  0  0  0
  145.2416  137.1212  152.6303 N   0  0  0  0  0  0  0  0  0  0  0  0
  144.2201  136.3469  151.9457 C   0  0  0  0  0  0  0  0  0  0  0  0
  144.1109  134.8877  152.4553 C   0  0  1  0  0  0  0  0  0  0  0  0
  142.6296  134.4832  152.6677 C   0  0  0  0  0  0  0  0  0  0  0  0
  142.2693  134.5030  154.0327 O   0  0  0  0  0  0  0  0  0  0  0  0
  144.8534  133.9231  151.4893 C   0  0  2  0  0  0  0  0  0  0  0  0
  144.2254  133.7493  150.1165 C   0  0  0  0  0  0  0  0  0  0  0  0
  144.8699  132.4601  149.6217 C   0  0  0  0  0  0  0  0  0  0  0  0
  145.0764  131.6672  150.7838 O   0  0  0  0  0  0  0  0  0  0  0  0
  144.8951  132.4609  151.9519 C   0  0  0  0  0  0  0  0  0  0  0  0
  148.7964  139.7346  154.6930 C   0  0  0  0  0  0  0  0  0  0  0  0
  150.0539  140.4586  155.2014 C   0  0  0  0  0  0  0  0  0  0  0  0
  153.1063  144.8544  159.0283 H   0  0  0  0  0  0  0  0  0  0  0  0
  152.6446  143.1597  158.9125 H   0  0  0  0  0  0  0  0  0  0  0  0
  151.4270  144.3835  159.2727 H   0  0  0  0  0  0  0  0  0  0  0  0
  151.7792  145.3952  156.9864 H   0  0  0  0  0  0  0  0  0  0  0  0
  152.9697  144.1703  156.6141 H   0  0  0  0  0  0  0  0  0  0  0  0
  150.1949  143.9507  156.2782 H   0  0  0  0  0  0  0  0  0  0  0  0
  149.0224  142.2095  155.9047 H   0  0  0  0  0  0  0  0  0  0  0  0
  149.6064  139.9932  157.9312 H   0  0  0  0  0  0  0  0  0  0  0  0
  148.6317  141.4148  158.2230 H   0  0  0  0  0  0  0  0  0  0  0  0
  147.2421  139.3999  157.6943 H   0  0  0  0  0  0  0  0  0  0  0  0
  146.9757  140.6932  156.5390 H   0  0  0  0  0  0  0  0  0  0  0  0
  145.1007  136.1657  157.0120 H   0  0  0  0  0  0  0  0  0  0  0  0
  146.1111  138.2329  150.9957 H   0  0  0  0  0  0  0  0  0  0  0  0
  143.2612  136.8557  152.0515 H   0  0  0  0  0  0  0  0  0  0  0  0
  144.4640  136.3711  150.8839 H   0  0  0  0  0  0  0  0  0  0  0  0
  144.6110  134.8488  153.4245 H   0  0  0  0  0  0  0  0  0  0  0  0
  141.9498  135.1718  152.1682 H   0  0  0  0  0  0  0  0  0  0  0  0
  142.4340  133.4948  152.2507 H   0  0  0  0  0  0  0  0  0  0  0  0
  142.5279  133.6820  154.4231 H   0  0  0  0  0  0  0  0  0  0  0  0
  145.8792  134.2700  151.3534 H   0  0  0  0  0  0  0  0  0  0  0  0
  143.1459  133.6179  150.2044 H   0  0  0  0  0  0  0  0  0  0  0  0
  144.4165  134.5863  149.4447 H   0  0  0  0  0  0  0  0  0  0  0  0
  144.2549  131.9406  148.8869 H   0  0  0  0  0  0  0  0  0  0  0  0
  145.8392  132.6696  149.1674 H   0  0  0  0  0  0  0  0  0  0  0  0
  145.6925  132.2732  152.6714 H   0  0  0  0  0  0  0  0  0  0  0  0
  143.9497  132.1742  152.4145 H   0  0  0  0  0  0  0  0  0  0  0  0
  149.0713  138.9904  153.9444 H   0  0  0  0  0  0  0  0  0  0  0  0
  148.1410  140.4562  154.2052 H   0  0  0  0  0  0  0  0  0  0  0  0
  150.5368  140.9776  154.3726 H   0  0  0  0  0  0  0  0  0  0  0  0
  150.7708  139.7210  155.5659 H   0  0  0  0  0  0  0  0  0  0  0  0
  1  2  1  0  0  0  0
  1 30  1  0  0  0  0
  1 31  1  0  0  0  0
  1 32  1  0  0  0  0
  2  3  1  0  0  0  0
  2 33  1  0  0  0  0
  2 34  1  0  0  0  0
  3  4  1  0  0  0  0
  3 35  1  0  0  0  0
  4  5  2  0  0  0  0
  4  6  1  0  0  0  0
  6 29  1  0  0  0  0
  6  7  1  0  0  0  0
  6 36  1  0  0  0  0
  7  8  1  0  0  0  0
  7 37  1  0  0  0  0
  7 38  1  0  0  0  0
  8  9  1  0  0  0  0
  8 39  1  0  0  0  0
  8 40  1  0  0  0  0
  9 10  1  0  0  0  0
  9 28  1  0  0  0  0
 10 15  1  0  0  0  0
 10 11  2  0  0  0  0
 11 12  1  0  0  0  0
 12 13  2  0  0  0  0
 12 41  1  0  0  0  0
 13 14  1  0  0  0  0
 14 18  1  0  0  0  0
 14 15  2  0  0  0  0
 15 16  1  0  0  0  0
 16 17  2  0  0  0  0
 17 18  1  0  0  0  0
 17 42  1  0  0  0  0
 18 19  1  0  0  0  0
 19 20  1  0  0  0  0
 19 43  1  0  0  0  0
 19 44  1  0  0  0  0
 20 21  1  0  0  0  0
 20 23  1  0  0  0  0
 20 45  1  0  0  0  0
 21 22  1  0  0  0  0
 21 46  1  0  0  0  0
 21 47  1  0  0  0  0
 22 48  1  0  0  0  0
 23 27  1  0  0  0  0
 23 24  1  0  0  0  0
 23 49  1  0  0  0  0
 24 25  1  0  0  0  0
 24 50  1  0  0  0  0
 24 51  1  0  0  0  0
 25 26  1  0  0  0  0
 25 52  1  0  0  0  0
 25 53  1  0  0  0  0
 26 27  1  0  0  0  0
 27 54  1  0  0  0  0
 27 55  1  0  0  0  0
 28 29  1  0  0  0  0
 28 56  1  0  0  0  0
 28 57  1  0  0  0  0
 29 58  1  0  0  0  0
 29 59  1  0  0  0  0
M  END
> <s_m_source_file>
AV-unprocessed.smi

> <i_m_source_file_index>
273

> <i_lp_mmshare_version>
43012

> <i_f3d_flags>
0

> <s_epik_input>
W0NIM11bQ0gyXVtOSF1DKD1PKVtDSF0xW0NIMl1bQ0gyXU4oW0NIMl1bQ0gyXTEpYyhuW2NIXW4yKWMoYzIzKW5bY0hdbjNbQ0gyXVtDQEhdKFtDSDJdW09IXSlbQ0BASF00W0NIMl1bQ0gyXU9bQ0gyXTQ=

> <s_epik_cmdline>
J2VwaWtfcHl0aG9uJywgJy1waCcsICc3LjAnLCAnLXRuJywgJzgnLCAnLW1hJywgJzIwMCcsICctbWV0YWxfYmluZGluZycsICctaW1hZScsICc8aW5maWxlLm1hZT4nLCAnLW9tYWUnLCAnPG91dGZpbGUubWFlPic=

> <r_lp_tautomer_probability>
1

> <r_epik_Ionization_Penalty>
0.00226556

> <r_epik_Ionization_Penalty_Charging>
0

> <r_epik_Ionization_Penalty_Neutral>
0.00226556

> <r_epik_State_Penalty>
0.00139883

> <r_epik_Charging_Adjusted_Penalty>
0.00139883

> <i_epik_Tot_Q>
0

> <i_epik_Tot_abs_Q>
0

> <r_epik_Metal_State_Penalty>
-0

> <b_epik_Metal_Only>
0

> <s_lp_Force_Field>
OPLS_2005

> <r_lp_Energy>
43.4567

> <b_lp_Chiralities_Consistent>
1

> <s_lp_Variant>
AV-unprocessed.smi:273-2

> <Gold.Version>
5.8.1

> <Gold.Id.Protein>
6NUR|6NUR_protein|mol2

> <Gold.PLP.Fitness>
46.2241

> <Gold.PLP.PLP>
-41.2366

> <Gold.PLP.part.hbond>
-2.0959

> <Gold.PLP.part.metal>
0.0000

> <Gold.PLP.part.buried>
-7.0276

> <Gold.PLP.part.nonpolar>
-32.5859

> <Gold.PLP.part.repulsive>
0.4101

> <Gold.PLP.ligand.clash>
0.0000

> <Gold.PLP.ligand.torsion>
1.6593

> <Gold.PLP.Chemscore.Hbond>
2.0000

> <Gold.PLP.Chemscore.CHOScore>
0.6075

> <Gold.PLP.Chemscore.Metal>
0.0000

> <Gold.Chemscore.Hbonds>
donor molecule, donor type, donor heavy atom, donor atom, acceptor molecule, acceptor atom, score
      L1  H     3    35       P1  8028  1.00
      L1  H    22    48       P1 10957  1.00
      L1  C    17    42       P1 10171  0.76

> <Gold.PLP.Chemscore.Internal.Correction>
0.4836

> <Gold.Rescore>
     Score         DG    S(hbond)    S(metal)    S(lipo)     H(rot)  DE(clash)    DE(int)     intcor
     10.47     -14.76       1.99        0.00      93.07       3.22       0.28       4.00       ----

> <Gold.Chemscore.Fitness>
10.4695

> <Gold.Chemscore.DG>
-14.7562

> <Gold.Chemscore.ZeroCoef>
-5.4800

> <Gold.Chemscore.Hbond>
1.9884

> <Gold.Chemscore.Metal>
0.0000

> <Gold.Chemscore.Lipo>
93.0715

> <Gold.Chemscore.Internal_Hbond>
0.0000

> <Gold.Chemscore.DEClash>
0.2832

> <Gold.Chemscore.DEInternal>
4.0035

> <Gold.Chemscore.Rot>
3.2244

> <Gold.Chemscore.Internal.Correction>
   9.000000E+99

> <Gold.Chemscore.Hbonds>
donor molecule, donor type, donor heavy atom, donor atom, acceptor molecule, acceptor atom, score
      L1  H     3    35       P1  8028  0.99
      L1  H    22    48       P1 10957  0.99

> <Gold.Chemscore.Hbond.Weighted>
-6.6414

> <Gold.Chemscore.Metal.Weighted>
-0.0000

> <Gold.Chemscore.Lipo.Weighted>
-10.8894

> <Gold.Chemscore.Internal_Hbond.Weighted>
0.0000

> <Gold.Chemscore.DEClash.Weighted>
0.2832

> <Gold.Chemscore.DEInternal.Weighted>
4.0035

> <Gold.Chemscore.Rot.Weighted>
8.2545

> <Gold.Chemscore.Internal.Correction.Weighted>
   9.000000E+99

> <Gold.Protein.RotatedTorsions>
[ 6907 6896 6895 6894 ] final -113.90 input  -60.11 | X-H torsion
[ 7974 7965 7964 7962 ] final  -17.21 input  175.53 | X-H torsion
[ 8008 7997 7996 7995 ] final  171.39 input   59.86 | X-H torsion
[ 10167 10162 10161 10158 ] final -164.75 input  -65.29 | X-H torsion
[ 10718 10713 10712 10709 ] final  -19.39 input   66.30 | X-H torsion
[ 10763 10752 10751 10750 ] final  -71.61 input  -60.55 | X-H torsion
[ 11005 11000 10999 10996 ] final   60.27 input  -57.11 | X-H torsion

> <Gold.Protein.ActiveResidues>
 VAL166  LYS551  ARG553  GLY616  TRP617  ASP618  TYR619  PRO620  LYS621  CYS622 
 ASP623  PHE694  ASN695  SER759  ASP760  ASP761  ALA762  ILE779  LEU786  VAL792 
 PHE793  MET794  SER795  GLU796  ALA797  LYS798  CYS799  TRP800  GLU811  SER814 

> <Gold.Protein.RotatedAtoms>
  150.7863  133.8878  159.3304 H   0  0  0  0  0  0  0  0  0  0  0  0  # atno 6907 bound_to 6896
  151.6728  135.0972  160.0210 H   0  0  0  0  0  0  0  0  0  0  0  0  # atno 6908 bound_to 6896
  152.3927  133.6663  159.6286 H   0  0  0  0  0  0  0  0  0  0  0  0  # atno 6909 bound_to 6896
  146.1952  140.3746  142.8443 H   0  0  0  0  0  0  0  0  0  0  0  0  # atno 7974 bound_to 7965
  156.1276  140.1513  156.9113 H   0  0  0  0  0  0  0  0  0  0  0  0  # atno 8008 bound_to 7997
  154.4883  140.0858  156.7578 H   0  0  0  0  0  0  0  0  0  0  0  0  # atno 8009 bound_to 7997
  155.4315  140.3427  155.4283 H   0  0  0  0  0  0  0  0  0  0  0  0  # atno 8010 bound_to 7997
  139.6229  144.0589  152.1949 H   0  0  0  0  0  0  0  0  0  0  0  0  # atno 10167 bound_to 10162
  156.5463  130.4690  149.6474 H   0  0  0  0  0  0  0  0  0  0  0  0  # atno 10718 bound_to 10713
  154.4341  135.5957  153.6087 H   0  0  0  0  0  0  0  0  0  0  0  0  # atno 10763 bound_to 10752
  152.9801  135.5982  154.3803 H   0  0  0  0  0  0  0  0  0  0  0  0  # atno 10764 bound_to 10752
  154.3645  135.2841  155.2280 H   0  0  0  0  0  0  0  0  0  0  0  0  # atno 10765 bound_to 10752
  140.0243  134.6106  155.9595 H   0  0  0  0  0  0  0  0  0  0  0  0  # atno 11005 bound_to 11000
  144.8565  140.7078  143.6134 LP  0  0  0  0  0  0  0  0  0  0  0  0  # atno 17320 bound_to 7965
  145.3667  139.1668  143.4354 LP  0  0  0  0  0  0  0  0  0  0  0  0  # atno 17321 bound_to 7965
  140.0235  144.6135  150.7546 LP  0  0  0  0  0  0  0  0  0  0  0  0  # atno 17342 bound_to 10162
  140.7393  143.2789  151.3657 LP  0  0  0  0  0  0  0  0  0  0  0  0  # atno 17343 bound_to 10162
  156.2925  130.7132  151.1984 LP  0  0  0  0  0  0  0  0  0  0  0  0  # atno 17370 bound_to 10713
  157.7396  131.0527  150.5222 LP  0  0  0  0  0  0  0  0  0  0  0  0  # atno 17371 bound_to 10713
  141.1793  133.6544  156.4955 LP  0  0  0  0  0  0  0  0  0  0  0  0  # atno 17394 bound_to 11000
  140.4333  134.7082  157.4953 LP  0  0  0  0  0  0  0  0  0  0  0  0  # atno 17395 bound_to 11000

$$$$
