AV-unprocessed.smi:3314|AV-procd|sdf|12736|dock8
  -GOLD-   2272019 83D 1   1.00000     0.00000
 Structure written by MMmdl.
 37 38  0  0  0  0  0  0  0  0  1 V2000
  152.1036  145.6547  159.5142 C   0  0  0  0  0  0  0  0  0  0  0  0
  151.9976  144.2229  159.0325 C   0  0  0  0  0  0  0  0  0  0  0  0
  152.7688  143.2019  159.6202 C   0  0  0  0  0  0  0  0  0  0  0  0
  152.6258  141.8913  159.1235 C   0  0  0  0  0  0  0  0  0  0  0  0
  153.4210  140.7437  159.7096 C   0  0  0  0  0  0  0  0  0  0  0  0
  151.7877  141.5735  158.1137 N   0  0  0  0  0  0  0  0  0  0  0  0
  151.0404  142.5489  157.5402 C   0  0  0  0  0  0  0  0  0  0  0  0
  150.1326  142.3211  156.4727 N   0  0  0  0  0  0  0  0  0  0  0  0
  150.1627  141.3484  155.5424 C   0  0  0  0  0  0  0  0  0  0  0  0
  151.0227  140.4685  155.4801 O   0  0  0  0  0  0  0  0  0  0  0  0
  149.0278  141.4003  154.5125 C   0  0  1  0  0  0  0  0  0  0  0  0
  148.3662  140.0272  154.2569 C   0  0  0  0  0  0  0  0  0  0  0  0
  147.2562  140.1337  153.3190 N   0  0  0  0  0  0  0  0  0  0  0  0
  146.6374  138.8406  153.0705 C   0  0  0  0  0  0  0  0  0  0  0  0
  146.2915  141.1065  153.8150 C   0  0  0  0  0  0  0  0  0  0  0  0
  146.9475  142.4725  154.0812 C   0  0  0  0  0  0  0  0  0  0  0  0
  148.0397  142.3156  154.9828 O   0  0  0  0  0  0  0  0  0  0  0  0
  151.1216  143.8891  157.9802 C   0  0  0  0  0  0  0  0  0  0  0  0
  152.8043  145.7438  160.3450 H   0  0  0  0  0  0  0  0  0  0  0  0
  151.1301  146.0139  159.8490 H   0  0  0  0  0  0  0  0  0  0  0  0
  152.4488  146.2997  158.7059 H   0  0  0  0  0  0  0  0  0  0  0  0
  153.4510  143.4168  160.4299 H   0  0  0  0  0  0  0  0  0  0  0  0
  154.1139  141.0929  160.4757 H   0  0  0  0  0  0  0  0  0  0  0  0
  153.9987  140.2445  158.9311 H   0  0  0  0  0  0  0  0  0  0  0  0
  152.7512  140.0126  160.1631 H   0  0  0  0  0  0  0  0  0  0  0  0
  149.3709  142.9797  156.4014 H   0  0  0  0  0  0  0  0  0  0  0  0
  149.4426  141.7781  153.5758 H   0  0  0  0  0  0  0  0  0  0  0  0
  149.1092  139.3303  153.8667 H   0  0  0  0  0  0  0  0  0  0  0  0
  148.0086  139.6078  155.1993 H   0  0  0  0  0  0  0  0  0  0  0  0
  145.8310  138.9323  152.3423 H   0  0  0  0  0  0  0  0  0  0  0  0
  146.2224  138.4187  153.9869 H   0  0  0  0  0  0  0  0  0  0  0  0
  147.3660  138.1345  152.6710 H   0  0  0  0  0  0  0  0  0  0  0  0
  145.4818  141.2262  153.0942 H   0  0  0  0  0  0  0  0  0  0  0  0
  145.8372  140.7401  154.7368 H   0  0  0  0  0  0  0  0  0  0  0  0
  147.2991  142.9195  153.1502 H   0  0  0  0  0  0  0  0  0  0  0  0
  146.2239  143.1627  154.5152 H   0  0  0  0  0  0  0  0  0  0  0  0
  150.5207  144.6570  157.5148 H   0  0  0  0  0  0  0  0  0  0  0  0
  1  2  1  0  0  0  0
  1 19  1  0  0  0  0
  1 20  1  0  0  0  0
  1 21  1  0  0  0  0
  2 18  1  0  0  0  0
  2  3  2  0  0  0  0
  3  4  1  0  0  0  0
  3 22  1  0  0  0  0
  4  5  1  0  0  0  0
  4  6  2  0  0  0  0
  5 23  1  0  0  0  0
  5 24  1  0  0  0  0
  5 25  1  0  0  0  0
  6  7  1  0  0  0  0
  7  8  1  0  0  0  0
  7 18  2  0  0  0  0
  8  9  1  0  0  0  0
  8 26  1  0  0  0  0
  9 10  2  0  0  0  0
  9 11  1  0  0  0  0
 11 17  1  0  0  0  0
 11 12  1  0  0  0  0
 11 27  1  0  0  0  0
 12 13  1  0  0  0  0
 12 28  1  0  0  0  0
 12 29  1  0  0  0  0
 13 14  1  0  0  0  0
 13 15  1  0  0  0  0
 14 30  1  0  0  0  0
 14 31  1  0  0  0  0
 14 32  1  0  0  0  0
 15 16  1  0  0  0  0
 15 33  1  0  0  0  0
 15 34  1  0  0  0  0
 16 17  1  0  0  0  0
 16 35  1  0  0  0  0
 16 36  1  0  0  0  0
 18 37  1  0  0  0  0
M  END
> <s_m_source_file>
AV-unprocessed.smi

> <i_m_source_file_index>
3314

> <i_lp_mmshare_version>
43012

> <i_f3d_flags>
0

> <s_epik_input>
W0NIM11jMVtjSF1jKFtDSDNdKW5jKFtjSF0xKVtOSF1DKD1PKVtDQEBIXTJbQ0gyXU4oW0NIM10pW0NIMl1bQ0gyXU8y

> <s_epik_cmdline>
J2VwaWtfcHl0aG9uJywgJy1waCcsICc3LjAnLCAnLXRuJywgJzgnLCAnLW1hJywgJzIwMCcsICctbWV0YWxfYmluZGluZycsICctaW1hZScsICc8aW5maWxlLm1hZT4nLCAnLW9tYWUnLCAnPG91dGZpbGUubWFlPic=

> <r_epik_Ionization_Penalty>
0.55509

> <r_epik_Ionization_Penalty_Charging>
0

> <r_epik_Ionization_Penalty_Neutral>
0.55509

> <r_epik_State_Penalty>
0.632277

> <r_epik_Charging_Adjusted_Penalty>
0.632277

> <i_epik_Tot_Q>
0

> <i_epik_Tot_abs_Q>
0

> <r_epik_Metal_State_Penalty>
0.606221

> <b_epik_Metal_Only>
0

> <s_lp_Force_Field>
OPLS_2005

> <r_lp_Energy>
21.1919

> <b_lp_Chiralities_Consistent>
1

> <s_lp_Variant>
AV-unprocessed.smi:3314-6

> <Gold.Version>
5.8.1

> <Gold.Id.Protein>
6NUR|6NUR_protein|mol2

> <Gold.PLP.Fitness>
42.6831

> <Gold.PLP.PLP>
-38.6928

> <Gold.PLP.part.hbond>
-2.0000

> <Gold.PLP.part.metal>
0.0000

> <Gold.PLP.part.buried>
-2.2945

> <Gold.PLP.part.nonpolar>
-36.6378

> <Gold.PLP.part.repulsive>
3.9445

> <Gold.PLP.ligand.clash>
0.0000

> <Gold.PLP.ligand.torsion>
0.4538

> <Gold.PLP.Chemscore.Hbond>
1.6320

> <Gold.PLP.Chemscore.CHOScore>
0.0000

> <Gold.PLP.Chemscore.Metal>
0.0000

> <Gold.Chemscore.Hbonds>
donor molecule, donor type, donor heavy atom, donor atom, acceptor molecule, acceptor atom, score
      L1  H     8    26       P1  8028  0.86
      P1  H  7989  7998       L1    10  0.61

> <Gold.PLP.Chemscore.Internal.Correction>
0.0020

> <Gold.Rescore>
     Score         DG    S(hbond)    S(metal)    S(lipo)     H(rot)  DE(clash)    DE(int)     intcor
     14.45     -17.75       0.80        0.00     103.88       1.00       1.99       1.31       ----

> <Gold.Chemscore.Fitness>
14.4484

> <Gold.Chemscore.DG>
-17.7494

> <Gold.Chemscore.ZeroCoef>
-5.4800

> <Gold.Chemscore.Hbond>
0.8010

> <Gold.Chemscore.Metal>
0.0000

> <Gold.Chemscore.Lipo>
103.8802

> <Gold.Chemscore.Internal_Hbond>
0.0000

> <Gold.Chemscore.DEClash>
1.9931

> <Gold.Chemscore.DEInternal>
1.3080

> <Gold.Chemscore.Rot>
1.0000

> <Gold.Chemscore.Internal.Correction>
   9.000000E+99

> <Gold.Chemscore.Hbonds>
donor molecule, donor type, donor heavy atom, donor atom, acceptor molecule, acceptor atom, score
      L1  H     8    26       P1  8028  0.84
      P1  H  7989  7998       L1    10  0.09

> <Gold.Chemscore.Hbond.Weighted>
-2.6755

> <Gold.Chemscore.Metal.Weighted>
-0.0000

> <Gold.Chemscore.Lipo.Weighted>
-12.1540

> <Gold.Chemscore.Internal_Hbond.Weighted>
0.0000

> <Gold.Chemscore.DEClash.Weighted>
1.9931

> <Gold.Chemscore.DEInternal.Weighted>
1.3080

> <Gold.Chemscore.Rot.Weighted>
2.5600

> <Gold.Chemscore.Internal.Correction.Weighted>
   9.000000E+99

> <Gold.Protein.RotatedTorsions>
[ 6907 6896 6895 6894 ] final   73.57 input  -60.11 | X-H torsion
[ 7974 7965 7964 7962 ] final  -10.86 input  175.53 | X-H torsion
[ 8008 7997 7996 7995 ] final  -45.05 input   59.86 | X-H torsion
[ 10167 10162 10161 10158 ] final -176.88 input  -65.29 | X-H torsion
[ 10718 10713 10712 10709 ] final -112.68 input   66.30 | X-H torsion
[ 10763 10752 10751 10750 ] final  119.01 input  -60.55 | X-H torsion
[ 11005 11000 10999 10996 ] final -176.43 input  -57.11 | X-H torsion

> <Gold.Protein.ActiveResidues>
 VAL166  LYS551  ARG553  GLY616  TRP617  ASP618  TYR619  PRO620  LYS621  CYS622 
 ASP623  PHE694  ASN695  SER759  ASP760  ASP761  ALA762  ILE779  LEU786  VAL792 
 PHE793  MET794  SER795  GLU796  ALA797  LYS798  CYS799  TRP800  GLU811  SER814 

> <Gold.Protein.RotatedAtoms>
  152.4930  134.4402  159.9540 H   0  0  0  0  0  0  0  0  0  0  0  0  # atno 6907 bound_to 6896
  151.4386  133.3643  159.2786 H   0  0  0  0  0  0  0  0  0  0  0  0  # atno 6908 bound_to 6896
  150.9103  134.8543  159.7481 H   0  0  0  0  0  0  0  0  0  0  0  0  # atno 6909 bound_to 6896
  146.2207  140.2826  142.8363 H   0  0  0  0  0  0  0  0  0  0  0  0  # atno 7974 bound_to 7965
  154.3999  140.1406  156.3783 H   0  0  0  0  0  0  0  0  0  0  0  0  # atno 8008 bound_to 7997
  155.8028  140.3475  155.5392 H   0  0  0  0  0  0  0  0  0  0  0  0  # atno 8009 bound_to 7997
  155.8466  140.0935  157.1691 H   0  0  0  0  0  0  0  0  0  0  0  0  # atno 8010 bound_to 7997
  139.5508  144.2115  152.1073 H   0  0  0  0  0  0  0  0  0  0  0  0  # atno 10167 bound_to 10162
  156.0720  130.5933  150.8541 H   0  0  0  0  0  0  0  0  0  0  0  0  # atno 10718 bound_to 10713
  153.5764  135.3492  155.2858 H   0  0  0  0  0  0  0  0  0  0  0  0  # atno 10763 bound_to 10752
  154.8674  135.4171  154.2669 H   0  0  0  0  0  0  0  0  0  0  0  0  # atno 10764 bound_to 10752
  153.3445  135.7052  153.6909 H   0  0  0  0  0  0  0  0  0  0  0  0  # atno 10765 bound_to 10752
  140.4522  134.6333  157.4806 H   0  0  0  0  0  0  0  0  0  0  0  0  # atno 11005 bound_to 11000
  144.9185  140.7841  143.5763 LP  0  0  0  0  0  0  0  0  0  0  0  0  # atno 17320 bound_to 7965
  145.2761  139.1936  143.4815 LP  0  0  0  0  0  0  0  0  0  0  0  0  # atno 17321 bound_to 7965
  140.1610  144.5026  150.6632 LP  0  0  0  0  0  0  0  0  0  0  0  0  # atno 17342 bound_to 10162
  140.6769  143.2309  151.5483 LP  0  0  0  0  0  0  0  0  0  0  0  0  # atno 17343 bound_to 10162
  157.5796  131.0946  150.9292 LP  0  0  0  0  0  0  0  0  0  0  0  0  # atno 17370 bound_to 10713
  156.9490  130.5413  149.5282 LP  0  0  0  0  0  0  0  0  0  0  0  0  # atno 17371 bound_to 10713
  139.9999  134.6852  155.9547 LP  0  0  0  0  0  0  0  0  0  0  0  0  # atno 17394 bound_to 11000
  141.1659  133.6537  156.4478 LP  0  0  0  0  0  0  0  0  0  0  0  0  # atno 17395 bound_to 11000

$$$$
