AV-unprocessed.smi:2188|AV-procd|sdf|8883|dock10
  -GOLD-   2272012 83D 1   1.00000     0.00000
 Structure written by MMmdl.
 39 41  0  0  0  0  0  0  0  0  3 V2000
  155.2511  139.1725  158.4367 O   0  0  0  0  0  0  0  0  0  0  0  0
  154.7336  139.5001  159.5129 C   0  0  0  0  0  0  0  0  0  0  0  0
  154.9824  138.8972  160.7170 N   0  5  0  0  0  0  0  0  0  0  0  0
  154.5123  137.5726  161.1197 C   0  0  0  0  0  0  0  0  0  0  0  0
  154.1324  137.5937  162.6134 C   0  0  0  0  0  0  0  0  0  0  0  0
  154.2923  136.2459  163.3031 C   0  0  0  0  0  0  0  0  0  0  0  0
  154.6960  135.1041  162.5720 C   0  0  0  0  0  0  0  0  0  0  0  0
  154.8281  133.8665  163.2351 C   0  0  0  0  0  0  0  0  0  0  0  0
  154.5488  133.7942  164.6149 C   0  0  0  0  0  0  0  0  0  0  0  0
  154.1591  134.9030  165.2812 N   0  3  0  0  0  0  0  0  0  0  0  0
  154.0210  136.1066  164.6833 C   0  0  0  0  0  0  0  0  0  0  0  0
  153.7492  140.6019  159.5285 C   0  0  0  0  0  0  0  0  0  0  0  0
  153.8398  141.5404  160.5084 C   0  0  0  0  0  0  0  0  0  0  0  0
  152.9288  142.6549  160.5847 C   0  0  0  0  0  0  0  0  0  0  0  0
  151.9530  142.7313  159.6742 C   0  0  0  0  0  0  0  0  0  0  0  0
  151.7779  141.7896  158.6619 N   0  0  0  0  0  0  0  0  0  0  0  0
  150.6077  141.9514  157.8060 C   0  0  0  0  0  0  0  0  0  0  0  0
  150.9650  141.6591  156.3604 C   0  0  0  0  0  0  0  0  0  0  0  0
  151.4520  139.8975  156.3158 S   0  0  0  0  0  0  0  0  0  0  0  0
  150.3063  139.0962  156.7742 O   0  0  0  0  0  0  0  0  0  0  0  0
  152.0442  139.6210  154.9983 O   0  0  0  0  0  0  0  0  0  0  0  0
  152.6435  139.8825  157.4927 N   0  0  0  0  0  0  0  0  0  0  0  0
  152.6928  140.7107  158.4981 C   0  0  0  0  0  0  0  0  0  0  0  0
  153.6421  137.2482  160.5473 H   0  0  0  0  0  0  0  0  0  0  0  0
  155.2767  136.8122  160.9573 H   0  0  0  0  0  0  0  0  0  0  0  0
  154.7415  138.3298  163.1405 H   0  0  0  0  0  0  0  0  0  0  0  0
  153.0973  137.9193  162.7284 H   0  0  0  0  0  0  0  0  0  0  0  0
  154.9071  135.1779  161.5150 H   0  0  0  0  0  0  0  0  0  0  0  0
  155.1400  132.9865  162.6918 H   0  0  0  0  0  0  0  0  0  0  0  0
  154.6242  132.8900  165.2009 H   0  0  0  0  0  0  0  0  0  0  0  0
  153.7038  136.9184  165.3219 H   0  0  0  0  0  0  0  0  0  0  0  0
  154.5989  141.4749  161.2749 H   0  0  0  0  0  0  0  0  0  0  0  0
  153.0324  143.4051  161.3544 H   0  0  0  0  0  0  0  0  0  0  0  0
  151.2389  143.5419  159.6802 H   0  0  0  0  0  0  0  0  0  0  0  0
  149.8133  141.2900  158.1532 H   0  0  0  0  0  0  0  0  0  0  0  0
  150.2182  142.9677  157.8723 H   0  0  0  0  0  0  0  0  0  0  0  0
  150.1152  141.8050  155.6942 H   0  0  0  0  0  0  0  0  0  0  0  0
  151.7942  142.2740  156.0088 H   0  0  0  0  0  0  0  0  0  0  0  0
  153.9610  134.8289  166.2793 H   0  0  0  0  0  0  0  0  0  0  0  0
  1  2  2  0  0  0  0
  2  3  1  0  0  0  0
  2 12  1  0  0  0  0
  3  4  1  0  0  0  0
  4  5  1  0  0  0  0
  4 24  1  0  0  0  0
  4 25  1  0  0  0  0
  5  6  1  0  0  0  0
  5 26  1  0  0  0  0
  5 27  1  0  0  0  0
  6 11  1  0  0  0  0
  6  7  2  0  0  0  0
  7  8  1  0  0  0  0
  7 28  1  0  0  0  0
  8  9  2  0  0  0  0
  8 29  1  0  0  0  0
  9 10  1  0  0  0  0
  9 30  1  0  0  0  0
 10 11  2  0  0  0  0
 10 39  1  0  0  0  0
 11 31  1  0  0  0  0
 12 23  1  0  0  0  0
 12 13  2  0  0  0  0
 13 14  1  0  0  0  0
 13 32  1  0  0  0  0
 14 15  2  0  0  0  0
 14 33  1  0  0  0  0
 15 16  1  0  0  0  0
 15 34  1  0  0  0  0
 16 23  1  0  0  0  0
 16 17  1  0  0  0  0
 17 18  1  0  0  0  0
 17 35  1  0  0  0  0
 17 36  1  0  0  0  0
 18 19  1  0  0  0  0
 18 37  1  0  0  0  0
 18 38  1  0  0  0  0
 19 20  2  0  0  0  0
 19 21  2  0  0  0  0
 19 22  1  0  0  0  0
 22 23  2  0  0  0  0
M  CHG  1   3  -1
M  CHG  1  10   1
M  END
> <s_m_source_file>
AV-unprocessed.smi

> <i_m_source_file_index>
2188

> <i_lp_mmshare_version>
43012

> <i_f3d_flags>
0

> <s_epik_input>
W0NIMl0xW0NIMl1TKD1PKSg9TylOPUMoTjEyKUMoPVtDSF1bQ0hdPVtDSF0yKUMoPU8pW05IXVtDSDJdW0NIMl1jM1tjSF1bY0hdW2NIXW5bY0hdMw==

> <s_epik_cmdline>
J2VwaWtfcHl0aG9uJywgJy1waCcsICc3LjAnLCAnLXRuJywgJzgnLCAnLW1hJywgJzIwMCcsICctbWV0YWxfYmluZGluZycsICctaW1hZScsICc8aW5maWxlLm1hZT4nLCAnLW9tYWUnLCAnPG91dGZpbGUubWFlPic=

> <r_epik_Ionization_Penalty>
7.27179

> <r_epik_Ionization_Penalty_Charging>
7.27179

> <r_epik_Ionization_Penalty_Neutral>
0

> <r_epik_State_Penalty>
7.89047

> <r_epik_Charging_Adjusted_Penalty>
15.1623

> <i_epik_Tot_Q>
0

> <i_epik_Tot_abs_Q>
2

> <r_epik_Metal_State_Penalty>
3.9241

> <b_epik_Metal_Only>
1

> <s_lp_Force_Field>
OPLS_2005

> <r_lp_Energy>
37.465

> <b_lp_Chiralities_Consistent>
1

> <s_lp_Variant>
AV-unprocessed.smi:2188-4

> <Gold.Version>
5.8.1

> <Gold.Id.Protein>
6NUR|6NUR_protein|mol2

> <Gold.PLP.Fitness>
49.8326

> <Gold.PLP.PLP>
-46.0934

> <Gold.PLP.part.hbond>
-3.4377

> <Gold.PLP.part.metal>
0.0000

> <Gold.PLP.part.buried>
-3.6884

> <Gold.PLP.part.nonpolar>
-38.4952

> <Gold.PLP.part.repulsive>
0.1245

> <Gold.PLP.ligand.clash>
0.0000

> <Gold.PLP.ligand.torsion>
1.7596

> <Gold.PLP.Chemscore.Hbond>
2.3200

> <Gold.PLP.Chemscore.CHOScore>
0.0000

> <Gold.PLP.Chemscore.Metal>
0.0000

> <Gold.Chemscore.Hbonds>
donor molecule, donor type, donor heavy atom, donor atom, acceptor molecule, acceptor atom, score
      P1  H  7989  7998       L1    21  0.90
      P1  H  7997  8008       L1    22  0.73
      P1  H  7997  8010       L1     1  0.66

> <Gold.PLP.Chemscore.Internal.Correction>
0.2984

> <Gold.Rescore>
     Score         DG    S(hbond)    S(metal)    S(lipo)     H(rot)  DE(clash)    DE(int)     intcor
     15.94     -18.93       1.63        0.00     101.40       1.51       0.01       2.99       ----

> <Gold.Chemscore.Fitness>
15.9393

> <Gold.Chemscore.DG>
-18.9347

> <Gold.Chemscore.ZeroCoef>
-5.4800

> <Gold.Chemscore.Hbond>
1.6345

> <Gold.Chemscore.Metal>
0.0000

> <Gold.Chemscore.Lipo>
101.3975

> <Gold.Chemscore.Internal_Hbond>
0.0000

> <Gold.Chemscore.DEClash>
0.0067

> <Gold.Chemscore.DEInternal>
2.9888

> <Gold.Chemscore.Rot>
1.5109

> <Gold.Chemscore.Internal.Correction>
   9.000000E+99

> <Gold.Chemscore.Hbonds>
donor molecule, donor type, donor heavy atom, donor atom, acceptor molecule, acceptor atom, score
      P1  H  7989  7998       L1    21  0.83
      P1  H  7997  8008       L1    22  0.13
      P1  H  7997  8010       L1     1  0.63

> <Gold.Chemscore.Hbond.Weighted>
-5.4593

> <Gold.Chemscore.Metal.Weighted>
-0.0000

> <Gold.Chemscore.Lipo.Weighted>
-11.8635

> <Gold.Chemscore.Internal_Hbond.Weighted>
0.0000

> <Gold.Chemscore.DEClash.Weighted>
0.0067

> <Gold.Chemscore.DEInternal.Weighted>
2.9888

> <Gold.Chemscore.Rot.Weighted>
3.8680

> <Gold.Chemscore.Internal.Correction.Weighted>
   9.000000E+99

> <Gold.Protein.RotatedTorsions>
[ 6907 6896 6895 6894 ] final  -15.20 input  -60.11 | X-H torsion
[ 7974 7965 7964 7962 ] final  -73.41 input  175.53 | X-H torsion
[ 8008 7997 7996 7995 ] final  -41.34 input   59.86 | X-H torsion
[ 10167 10162 10161 10158 ] final  -54.78 input  -65.29 | X-H torsion
[ 10718 10713 10712 10709 ] final  129.93 input   66.30 | X-H torsion
[ 10763 10752 10751 10750 ] final  -86.61 input  -60.55 | X-H torsion
[ 11005 11000 10999 10996 ] final  -51.06 input  -57.11 | X-H torsion

> <Gold.Protein.ActiveResidues>
 VAL166  LYS551  ARG553  GLY616  TRP617  ASP618  TYR619  PRO620  LYS621  CYS622 
 ASP623  PHE694  ASN695  SER759  ASP760  ASP761  ALA762  ILE779  LEU786  VAL792 
 PHE793  MET794  SER795  GLU796  ALA797  LYS798  CYS799  TRP800  GLU811  SER814 

> <Gold.Protein.RotatedAtoms>
  151.3276  135.0834  159.9327 H   0  0  0  0  0  0  0  0  0  0  0  0  # atno 6907 bound_to 6896
  152.5242  133.9575  159.7712 H   0  0  0  0  0  0  0  0  0  0  0  0  # atno 6908 bound_to 6896
  150.9908  133.6099  159.2738 H   0  0  0  0  0  0  0  0  0  0  0  0  # atno 6909 bound_to 6896
  145.6525  140.9278  143.0977 H   0  0  0  0  0  0  0  0  0  0  0  0  # atno 7974 bound_to 7965
  154.4005  140.1502  156.3175 H   0  0  0  0  0  0  0  0  0  0  0  0  # atno 8008 bound_to 7997
  155.8560  140.3455  155.5703 H   0  0  0  0  0  0  0  0  0  0  0  0  # atno 8009 bound_to 7997
  155.7933  140.0860  157.1988 H   0  0  0  0  0  0  0  0  0  0  0  0  # atno 8010 bound_to 7997
  140.6411  143.2508  151.4986 H   0  0  0  0  0  0  0  0  0  0  0  0  # atno 10167 bound_to 10162
  157.5109  131.1096  150.9294 H   0  0  0  0  0  0  0  0  0  0  0  0  # atno 10718 bound_to 10713
  154.6243  135.5443  153.7610 H   0  0  0  0  0  0  0  0  0  0  0  0  # atno 10763 bound_to 10752
  153.0253  135.6420  154.1394 H   0  0  0  0  0  0  0  0  0  0  0  0  # atno 10764 bound_to 10752
  154.1327  135.2913  155.3161 H   0  0  0  0  0  0  0  0  0  0  0  0  # atno 10765 bound_to 10752
  141.0850  133.6644  156.3822 H   0  0  0  0  0  0  0  0  0  0  0  0  # atno 11005 bound_to 11000
  144.7117  139.8345  143.7412 LP  0  0  0  0  0  0  0  0  0  0  0  0  # atno 17320 bound_to 7965
  146.1192  139.4207  143.0239 LP  0  0  0  0  0  0  0  0  0  0  0  0  # atno 17321 bound_to 7965
  139.5621  144.2132  152.1707 LP  0  0  0  0  0  0  0  0  0  0  0  0  # atno 17342 bound_to 10162
  140.1403  144.5208  150.6748 LP  0  0  0  0  0  0  0  0  0  0  0  0  # atno 17343 bound_to 10162
  156.9935  130.5572  149.5305 LP  0  0  0  0  0  0  0  0  0  0  0  0  # atno 17370 bound_to 10713
  156.0288  130.5381  150.8480 LP  0  0  0  0  0  0  0  0  0  0  0  0  # atno 17371 bound_to 10713
  140.5383  134.6146  157.5372 LP  0  0  0  0  0  0  0  0  0  0  0  0  # atno 17394 bound_to 11000
  139.9668  134.7360  156.0123 LP  0  0  0  0  0  0  0  0  0  0  0  0  # atno 17395 bound_to 11000

$$$$
