AV-unprocessed.smi:48|AV-procd|sdf|453|dock7
  -GOLD-   2262016323D 1   1.00000     0.00000
 Structure written by MMmdl.
 30 32  0  0  0  0  0  0  0  0  1 V2000
  152.1311  137.4868  154.6426 O   0  0  0  0  0  0  0  0  0  0  0  0
  150.9402  138.1192  154.2246 C   0  0  0  0  0  0  0  0  0  0  0  0
  150.4997  139.1531  155.2715 C   0  0  1  0  0  0  0  0  0  0  0  0
  151.2923  140.3277  155.1567 O   0  0  0  0  0  0  0  0  0  0  0  0
  150.6316  141.3896  155.7719 C   0  0  2  0  0  0  0  0  0  0  0  0
  151.0581  141.4596  157.2078 N   0  0  0  0  0  0  0  0  0  0  0  0
  151.1514  140.4732  158.1264 C   0  0  0  0  0  0  0  0  0  0  0  0
  151.5875  140.8052  159.3415 N   0  0  0  0  0  0  0  0  0  0  0  0
  151.8238  142.1612  159.1899 C   0  0  0  0  0  0  0  0  0  0  0  0
  152.3058  143.1591  160.0717 C   0  0  0  0  0  0  0  0  0  0  0  0
  152.7236  142.7788  161.7022 Cl  0  0  0  0  0  0  0  0  0  0  0  0
  152.4349  144.4241  159.6045 N   0  0  0  0  0  0  0  0  0  0  0  0
  152.1078  144.6914  158.3338 C   0  0  0  0  0  0  0  0  0  0  0  0
  151.6433  143.8613  157.3924 N   0  0  0  0  0  0  0  0  0  0  0  0
  151.5106  142.5880  157.8688 C   0  0  0  0  0  0  0  0  0  0  0  0
  149.1242  141.0881  155.6743 C   0  0  1  0  0  0  0  0  0  0  0  0
  148.4615  142.0251  154.8510 O   0  0  0  0  0  0  0  0  0  0  0  0
  149.0864  139.6970  155.0414 C   0  0  2  0  0  0  0  0  0  0  0  0
  148.1359  138.8796  155.6940 O   0  0  0  0  0  0  0  0  0  0  0  0
  150.5813  138.7471  156.2819 H   0  0  0  0  0  0  0  0  0  0  0  0
  150.9367  142.3502  155.3544 H   0  0  0  0  0  0  0  0  0  0  0  0
  148.6732  141.0939  156.6683 H   0  0  0  0  0  0  0  0  0  0  0  0
  148.8724  139.7559  153.9726 H   0  0  0  0  0  0  0  0  0  0  0  0
  152.3126  137.7468  155.5328 H   0  0  0  0  0  0  0  0  0  0  0  0
  151.0756  138.5776  153.2445 H   0  0  0  0  0  0  0  0  0  0  0  0
  150.1788  137.3458  154.1187 H   0  0  0  0  0  0  0  0  0  0  0  0
  150.8862  139.4517  157.8962 H   0  0  0  0  0  0  0  0  0  0  0  0
  152.2367  145.7185  158.0259 H   0  0  0  0  0  0  0  0  0  0  0  0
  148.4667  142.8631  155.2881 H   0  0  0  0  0  0  0  0  0  0  0  0
  148.2700  137.9864  155.4156 H   0  0  0  0  0  0  0  0  0  0  0  0
  1  2  1  0  0  0  0
  1 24  1  0  0  0  0
  2  3  1  0  0  0  0
  2 25  1  0  0  0  0
  2 26  1  0  0  0  0
  3 20  1  0  0  0  0
  3 18  1  0  0  0  0
  3  4  1  0  0  0  0
  4  5  1  0  0  0  0
  5 21  1  0  0  0  0
  5  6  1  0  0  0  0
  5 16  1  0  0  0  0
  6 15  1  0  0  0  0
  6  7  1  0  0  0  0
  7  8  2  0  0  0  0
  7 27  1  0  0  0  0
  8  9  1  0  0  0  0
  9 15  2  0  0  0  0
  9 10  1  0  0  0  0
 10 11  1  0  0  0  0
 10 12  2  0  0  0  0
 12 13  1  0  0  0  0
 13 14  2  0  0  0  0
 13 28  1  0  0  0  0
 14 15  1  0  0  0  0
 16 22  1  0  0  0  0
 16 17  1  0  0  0  0
 16 18  1  0  0  0  0
 17 29  1  0  0  0  0
 18 23  1  0  0  0  0
 18 19  1  0  0  0  0
 19 30  1  0  0  0  0
M  END
> <s_m_source_file>
AV-unprocessed.smi

> <i_m_source_file_index>
48

> <i_lp_mmshare_version>
43012

> <i_f3d_flags>
0

> <s_epik_input>
W09IXVtDSDJdW0NASF0xT1tDQEhdKFtDQEhdKFtPSF0pW0NAQEhdMVtPSF0pbihbY0hdbjIpYyhjMjMpbltjSF1uYzNDbA==

> <s_epik_cmdline>
J2VwaWtfcHl0aG9uJywgJy1waCcsICc3LjAnLCAnLXRuJywgJzgnLCAnLW1hJywgJzIwMCcsICctbWV0YWxfYmluZGluZycsICctaW1hZScsICc8aW5maWxlLm1hZT4nLCAnLW9tYWUnLCAnPG91dGZpbGUubWFlPic=

> <r_lp_tautomer_probability>
1

> <r_epik_Ionization_Penalty>
3.45505e-06

> <r_epik_Ionization_Penalty_Charging>
0

> <r_epik_Ionization_Penalty_Neutral>
3.45505e-06

> <r_epik_State_Penalty>
-0

> <r_epik_Charging_Adjusted_Penalty>
0

> <i_epik_Tot_Q>
0

> <i_epik_Tot_abs_Q>
0

> <r_epik_Metal_State_Penalty>
-0

> <b_epik_Metal_Only>
0

> <s_epik_Chemistry_Notes>
This compound contains an acetal/aminal-like group ( X-CH(R)-Y where X, Y are N, S, or O) that may be acid/base labile, releasing an aldehyde.

> <s_lp_Force_Field>
OPLS_2005

> <r_lp_Energy>
31.0033

> <b_lp_Chiralities_Consistent>
1

> <s_lp_Variant>
AV-unprocessed.smi:48-7

> <Gold.Version>
5.8.1

> <Gold.Id.Protein>
6NUR|6NUR_protein|mol2

> <Gold.PLP.Fitness>
45.9387

> <Gold.PLP.PLP>
-38.1568

> <Gold.PLP.part.hbond>
-3.0000

> <Gold.PLP.part.metal>
0.0000

> <Gold.PLP.part.buried>
-7.6710

> <Gold.PLP.part.nonpolar>
-28.2045

> <Gold.PLP.part.repulsive>
0.1833

> <Gold.PLP.ligand.clash>
0.0000

> <Gold.PLP.ligand.torsion>
0.2767

> <Gold.PLP.Chemscore.Hbond>
2.7680

> <Gold.PLP.Chemscore.CHOScore>
0.0000

> <Gold.PLP.Chemscore.Metal>
0.0000

> <Gold.Chemscore.Hbonds>
donor molecule, donor type, donor heavy atom, donor atom, acceptor molecule, acceptor atom, score
      L1  H    17    29       P1  8028  1.00
      P1  H  7989  7998       L1     4  1.00
      P1  H 10752 10763       L1     1  0.78

> <Gold.PLP.Chemscore.Internal.Correction>
0.0313

> <Gold.Rescore>
     Score         DG    S(hbond)    S(metal)    S(lipo)     H(rot)  DE(clash)    DE(int)     intcor
      8.79      -9.04       2.04        0.00      55.42       3.80       0.00       0.25       ----

> <Gold.Chemscore.Fitness>
8.7899

> <Gold.Chemscore.DG>
-9.0390

> <Gold.Chemscore.ZeroCoef>
-5.4800

> <Gold.Chemscore.Hbond>
2.0382

> <Gold.Chemscore.Metal>
0.0000

> <Gold.Chemscore.Lipo>
55.4172

> <Gold.Chemscore.Internal_Hbond>
0.0000

> <Gold.Chemscore.DEClash>
0.0038

> <Gold.Chemscore.DEInternal>
0.2453

> <Gold.Chemscore.Rot>
3.8017

> <Gold.Chemscore.Internal.Correction>
   9.000000E+99

> <Gold.Chemscore.Hbonds>
donor molecule, donor type, donor heavy atom, donor atom, acceptor molecule, acceptor atom, score
      L1  H    17    29       P1  8028  0.99
      P1  H  7989  7998       L1     4  0.44
      P1  H 10752 10763       L1     1  0.36

> <Gold.Chemscore.Hbond.Weighted>
-6.8076

> <Gold.Chemscore.Metal.Weighted>
-0.0000

> <Gold.Chemscore.Lipo.Weighted>
-6.4838

> <Gold.Chemscore.Internal_Hbond.Weighted>
0.0000

> <Gold.Chemscore.DEClash.Weighted>
0.0038

> <Gold.Chemscore.DEInternal.Weighted>
0.2453

> <Gold.Chemscore.Rot.Weighted>
9.7324

> <Gold.Chemscore.Internal.Correction.Weighted>
   9.000000E+99

> <Gold.Protein.RotatedTorsions>
[ 6907 6896 6895 6894 ] final  -58.45 input  -60.11 | X-H torsion
[ 7974 7965 7964 7962 ] final  110.00 input  175.53 | X-H torsion
[ 8008 7997 7996 7995 ] final   47.12 input   59.86 | X-H torsion
[ 10167 10162 10161 10158 ] final   57.13 input  -65.29 | X-H torsion
[ 10718 10713 10712 10709 ] final   -9.63 input   66.30 | X-H torsion
[ 10763 10752 10751 10750 ] final   51.59 input  -60.55 | X-H torsion
[ 11005 11000 10999 10996 ] final   54.09 input  -57.11 | X-H torsion

> <Gold.Protein.ActiveResidues>
 VAL166  LYS551  ARG553  GLY616  TRP617  ASP618  TYR619  PRO620  LYS621  CYS622 
 ASP623  PHE694  ASN695  SER759  ASP760  ASP761  ALA762  ILE779  LEU786  VAL792 
 PHE793  MET794  SER795  GLU796  ALA797  LYS798  CYS799  TRP800  GLU811  SER814 

> <Gold.Protein.RotatedAtoms>
  150.8006  134.7097  159.6596 H   0  0  0  0  0  0  0  0  0  0  0  0  # atno 6907 bound_to 6896
  152.4122  134.6101  160.0033 H   0  0  0  0  0  0  0  0  0  0  0  0  # atno 6908 bound_to 6896
  151.6340  133.3293  159.3151 H   0  0  0  0  0  0  0  0  0  0  0  0  # atno 6909 bound_to 6896
  145.2605  139.2704  143.4019 H   0  0  0  0  0  0  0  0  0  0  0  0  # atno 7974 bound_to 7965
  155.3639  140.3420  155.4241 H   0  0  0  0  0  0  0  0  0  0  0  0  # atno 8008 bound_to 7997
  156.1699  140.1628  156.8500 H   0  0  0  0  0  0  0  0  0  0  0  0  # atno 8009 bound_to 7997
  154.5222  140.0764  156.8176 H   0  0  0  0  0  0  0  0  0  0  0  0  # atno 8010 bound_to 7997
  140.2013  144.3985  150.6528 H   0  0  0  0  0  0  0  0  0  0  0  0  # atno 10167 bound_to 10162
  156.6852  130.5049  149.5959 H   0  0  0  0  0  0  0  0  0  0  0  0  # atno 10718 bound_to 10713
  152.9786  135.5840  154.4441 H   0  0  0  0  0  0  0  0  0  0  0  0  # atno 10763 bound_to 10752
  154.4038  135.2769  155.2082 H   0  0  0  0  0  0  0  0  0  0  0  0  # atno 10764 bound_to 10752
  154.3901  135.6127  153.5892 H   0  0  0  0  0  0  0  0  0  0  0  0  # atno 10765 bound_to 10752
  140.0715  134.5464  155.9042 H   0  0  0  0  0  0  0  0  0  0  0  0  # atno 11005 bound_to 11000
  146.3276  140.3021  142.8621 LP  0  0  0  0  0  0  0  0  0  0  0  0  # atno 17320 bound_to 7965
  144.9422  140.8090  143.5623 LP  0  0  0  0  0  0  0  0  0  0  0  0  # atno 17321 bound_to 7965
  140.6388  143.2200  151.6335 LP  0  0  0  0  0  0  0  0  0  0  0  0  # atno 17342 bound_to 10162
  139.5216  144.3188  152.0929 LP  0  0  0  0  0  0  0  0  0  0  0  0  # atno 17343 bound_to 10162
  156.1838  130.6516  151.0982 LP  0  0  0  0  0  0  0  0  0  0  0  0  # atno 17370 bound_to 10713
  157.7029  131.0768  150.6762 LP  0  0  0  0  0  0  0  0  0  0  0  0  # atno 17371 bound_to 10713
  141.2013  133.6618  156.5945 LP  0  0  0  0  0  0  0  0  0  0  0  0  # atno 17394 bound_to 11000
  140.3621  134.7679  157.4541 LP  0  0  0  0  0  0  0  0  0  0  0  0  # atno 17395 bound_to 11000

$$$$
