AV-unprocessed.smi:21|AV-procd|sdf|168|dock9
  -GOLD-   2262015413D 1   1.00000     0.00000
 Structure written by MMmdl.
 61 64  0  0  0  0  0  0  0  0  1 V2000
  152.7083  142.7238  159.4841 C   0  0  0  0  0  0  0  0  0  0  0  0
  151.4499  142.6506  158.8318 O   0  0  0  0  0  0  0  0  0  0  0  0
  151.4127  141.6759  157.7988 C   0  0  2  0  0  0  0  0  0  0  0  0
  150.1228  141.7613  156.9701 C   0  0  0  0  0  0  0  0  0  0  0  0
  149.6720  140.3010  156.8345 C   0  0  2  0  0  0  0  0  0  0  0  0
  148.1722  140.1322  156.4926 C   0  0  0  0  0  0  0  0  0  0  0  0
  147.9098  139.9235  155.0668 N   0  0  0  0  0  0  0  0  0  0  0  0
  147.7272  141.1085  154.2339 C   0  0  0  0  0  0  0  0  0  0  0  0
  147.2617  138.7825  154.7081 C   0  0  0  0  0  0  0  0  0  0  0  0
  147.0371  137.8241  155.6474 N   0  0  0  0  0  0  0  0  0  0  0  0
  146.4763  136.6603  155.3089 C   0  0  0  0  0  0  0  0  0  0  0  0
  146.0742  136.2478  154.1066 N   0  0  0  0  0  0  0  0  0  0  0  0
  146.2686  137.2120  153.1628 C   0  0  0  0  0  0  0  0  0  0  0  0
  146.8291  138.5034  153.3786 C   0  0  0  0  0  0  0  0  0  0  0  0
  146.8217  139.2204  152.1873 N   0  0  0  0  0  0  0  0  0  0  0  0
  146.3133  138.3943  151.3159 C   0  0  0  0  0  0  0  0  0  0  0  0
  145.9972  137.1481  151.8068 N   0  0  0  0  0  0  0  0  0  0  0  0
  145.4533  136.0307  151.0542 C   0  0  0  0  0  0  0  0  0  0  0  0
  145.3423  134.7068  151.8626 C   0  0  1  0  0  0  0  0  0  0  0  0
  143.9825  134.6685  152.5995 C   0  0  0  0  0  0  0  0  0  0  0  0
  144.0997  134.0433  153.8611 O   0  0  0  0  0  0  0  0  0  0  0  0
  145.5287  133.4241  150.9992 C   0  0  1  0  0  0  0  0  0  0  0  0
  145.4841  132.0913  151.7309 C   0  0  0  0  0  0  0  0  0  0  0  0
  145.1979  131.1128  150.6023 C   0  0  0  0  0  0  0  0  0  0  0  0
  144.2824  131.7983  149.7638 O   0  0  0  0  0  0  0  0  0  0  0  0
  144.4198  133.2034  149.9556 C   0  0  0  0  0  0  0  0  0  0  0  0
  150.0622  139.7067  158.1035 N   0  0  0  0  0  0  0  0  0  0  0  0
  150.0643  138.2497  158.1024 C   0  0  0  0  0  0  0  0  0  0  0  0
  151.3776  140.2580  158.3848 C   0  0  0  0  0  0  0  0  0  0  0  0
  152.2930  141.7660  157.1598 H   0  0  0  0  0  0  0  0  0  0  0  0
  150.2658  139.8418  156.0422 H   0  0  0  0  0  0  0  0  0  0  0  0
  152.6686  143.4700  160.2771 H   0  0  0  0  0  0  0  0  0  0  0  0
  153.5027  143.0117  158.7949 H   0  0  0  0  0  0  0  0  0  0  0  0
  152.9716  141.7685  159.9395 H   0  0  0  0  0  0  0  0  0  0  0  0
  149.3667  142.3342  157.5099 H   0  0  0  0  0  0  0  0  0  0  0  0
  150.2897  142.2451  156.0078 H   0  0  0  0  0  0  0  0  0  0  0  0
  147.7761  139.2619  157.0152 H   0  0  0  0  0  0  0  0  0  0  0  0
  147.6121  140.9768  156.8866 H   0  0  0  0  0  0  0  0  0  0  0  0
  147.8878  140.8718  153.1815 H   0  0  0  0  0  0  0  0  0  0  0  0
  148.4402  141.8847  154.5123 H   0  0  0  0  0  0  0  0  0  0  0  0
  146.7218  141.5148  154.3496 H   0  0  0  0  0  0  0  0  0  0  0  0
  146.3441  135.9531  156.1141 H   0  0  0  0  0  0  0  0  0  0  0  0
  146.1847  138.6631  150.2776 H   0  0  0  0  0  0  0  0  0  0  0  0
  144.4730  136.3476  150.6981 H   0  0  0  0  0  0  0  0  0  0  0  0
  146.0631  135.8744  150.1636 H   0  0  0  0  0  0  0  0  0  0  0  0
  146.1190  134.6996  152.6278 H   0  0  0  0  0  0  0  0  0  0  0  0
  143.5845  135.6752  152.7304 H   0  0  0  0  0  0  0  0  0  0  0  0
  143.2394  134.1037  152.0381 H   0  0  0  0  0  0  0  0  0  0  0  0
  143.5943  133.2447  153.8497 H   0  0  0  0  0  0  0  0  0  0  0  0
  146.4841  133.4850  150.4752 H   0  0  0  0  0  0  0  0  0  0  0  0
  146.4156  131.8415  152.2347 H   0  0  0  0  0  0  0  0  0  0  0  0
  144.6743  132.0755  152.4616 H   0  0  0  0  0  0  0  0  0  0  0  0
  146.1078  130.9066  150.0373 H   0  0  0  0  0  0  0  0  0  0  0  0
  144.7953  130.1640  150.9561 H   0  0  0  0  0  0  0  0  0  0  0  0
  143.4624  133.5857  150.3116 H   0  0  0  0  0  0  0  0  0  0  0  0
  144.6468  133.6973  149.0106 H   0  0  0  0  0  0  0  0  0  0  0  0
  150.4162  137.8670  159.0609 H   0  0  0  0  0  0  0  0  0  0  0  0
  150.7148  137.8553  157.3206 H   0  0  0  0  0  0  0  0  0  0  0  0
  149.0610  137.8559  157.9419 H   0  0  0  0  0  0  0  0  0  0  0  0
  152.1462  139.6591  157.8933 H   0  0  0  0  0  0  0  0  0  0  0  0
  151.5896  140.2428  159.4544 H   0  0  0  0  0  0  0  0  0  0  0  0
  1  2  1  0  0  0  0
  1 32  1  0  0  0  0
  1 33  1  0  0  0  0
  1 34  1  0  0  0  0
  2  3  1  0  0  0  0
  3 30  1  0  0  0  0
  3 29  1  0  0  0  0
  3  4  1  0  0  0  0
  4  5  1  0  0  0  0
  4 35  1  0  0  0  0
  4 36  1  0  0  0  0
  5 31  1  0  0  0  0
  5  6  1  0  0  0  0
  5 27  1  0  0  0  0
  6  7  1  0  0  0  0
  6 37  1  0  0  0  0
  6 38  1  0  0  0  0
  7  8  1  0  0  0  0
  7  9  1  0  0  0  0
  8 39  1  0  0  0  0
  8 40  1  0  0  0  0
  8 41  1  0  0  0  0
  9 14  1  0  0  0  0
  9 10  2  0  0  0  0
 10 11  1  0  0  0  0
 11 12  2  0  0  0  0
 11 42  1  0  0  0  0
 12 13  1  0  0  0  0
 13 17  1  0  0  0  0
 13 14  2  0  0  0  0
 14 15  1  0  0  0  0
 15 16  2  0  0  0  0
 16 17  1  0  0  0  0
 16 43  1  0  0  0  0
 17 18  1  0  0  0  0
 18 19  1  0  0  0  0
 18 44  1  0  0  0  0
 18 45  1  0  0  0  0
 19 20  1  0  0  0  0
 19 22  1  0  0  0  0
 19 46  1  0  0  0  0
 20 21  1  0  0  0  0
 20 47  1  0  0  0  0
 20 48  1  0  0  0  0
 21 49  1  0  0  0  0
 22 26  1  0  0  0  0
 22 23  1  0  0  0  0
 22 50  1  0  0  0  0
 23 24  1  0  0  0  0
 23 51  1  0  0  0  0
 23 52  1  0  0  0  0
 24 25  1  0  0  0  0
 24 53  1  0  0  0  0
 24 54  1  0  0  0  0
 25 26  1  0  0  0  0
 26 55  1  0  0  0  0
 26 56  1  0  0  0  0
 27 28  1  0  0  0  0
 27 29  1  0  0  0  0
 28 57  1  0  0  0  0
 28 58  1  0  0  0  0
 28 59  1  0  0  0  0
 29 60  1  0  0  0  0
 29 61  1  0  0  0  0
M  END
> <s_m_source_file>
AV-unprocessed.smi

> <i_m_source_file_index>
21

> <i_lp_mmshare_version>
43012

> <i_f3d_flags>
0

> <s_epik_input>
W0NIM11PW0NASF0xW0NIMl1bQ0BIXShOKFtDSDNdKVtDSDJdMSlbQ0gyXU4oW0NIM10pYyhuW2NIXW4yKWMoYzIzKW5bY0hdbjNbQ0gyXVtDQEhdKFtDSDJdW09IXSlbQ0BASF00W0NIMl1bQ0gyXU9bQ0gyXTQ=

> <s_epik_cmdline>
J2VwaWtfcHl0aG9uJywgJy1waCcsICc3LjAnLCAnLXRuJywgJzgnLCAnLW1hJywgJzIwMCcsICctbWV0YWxfYmluZGluZycsICctaW1hZScsICc8aW5maWxlLm1hZT4nLCAnLW9tYWUnLCAnPG91dGZpbGUubWFlPic=

> <r_lp_tautomer_probability>
1

> <r_epik_Ionization_Penalty>
2.17574

> <r_epik_Ionization_Penalty_Charging>
0

> <r_epik_Ionization_Penalty_Neutral>
2.17574

> <r_epik_State_Penalty>
2.31336

> <r_epik_Charging_Adjusted_Penalty>
2.31336

> <i_epik_Tot_Q>
0

> <i_epik_Tot_abs_Q>
0

> <r_epik_Metal_State_Penalty>
2.31025

> <b_epik_Metal_Only>
0

> <s_lp_Force_Field>
OPLS_2005

> <r_lp_Energy>
69.8341

> <b_lp_Chiralities_Consistent>
1

> <s_lp_Variant>
AV-unprocessed.smi:21-48

> <Gold.Version>
5.8.1

> <Gold.Id.Protein>
6NUR|6NUR_protein|mol2

> <Gold.PLP.Fitness>
43.4141

> <Gold.PLP.PLP>
-40.0656

> <Gold.PLP.part.hbond>
-1.9859

> <Gold.PLP.part.metal>
0.0000

> <Gold.PLP.part.buried>
-4.9322

> <Gold.PLP.part.nonpolar>
-35.4061

> <Gold.PLP.part.repulsive>
1.4036

> <Gold.PLP.ligand.clash>
0.0000

> <Gold.PLP.ligand.torsion>
1.7368

> <Gold.PLP.Chemscore.Hbond>
1.5273

> <Gold.PLP.Chemscore.CHOScore>
0.5131

> <Gold.PLP.Chemscore.Metal>
0.0000

> <Gold.Chemscore.Hbonds>
donor molecule, donor type, donor heavy atom, donor atom, acceptor molecule, acceptor atom, score
      L1  H    21    49       P1 10957  1.00
      P1  H 10785 10796       L1    25  0.33
      L1  C    16    43       P1 10171  0.57

> <Gold.PLP.Chemscore.Internal.Correction>
0.7010

> <Gold.Rescore>
     Score         DG    S(hbond)    S(metal)    S(lipo)     H(rot)  DE(clash)    DE(int)     intcor
      6.35     -12.39       1.17        0.00      91.28       3.00       0.13       5.91       ----

> <Gold.Chemscore.Fitness>
6.3479

> <Gold.Chemscore.DG>
-12.3878

> <Gold.Chemscore.ZeroCoef>
-5.4800

> <Gold.Chemscore.Hbond>
1.1724

> <Gold.Chemscore.Metal>
0.0000

> <Gold.Chemscore.Lipo>
91.2816

> <Gold.Chemscore.Internal_Hbond>
0.0000

> <Gold.Chemscore.DEClash>
0.1285

> <Gold.Chemscore.DEInternal>
5.9114

> <Gold.Chemscore.Rot>
3.0031

> <Gold.Chemscore.Internal.Correction>
   9.000000E+99

> <Gold.Chemscore.Hbonds>
donor molecule, donor type, donor heavy atom, donor atom, acceptor molecule, acceptor atom, score
      L1  H    21    49       P1 10957  0.94
      P1  H 10785 10796       L1    25  0.11

> <Gold.Chemscore.Hbond.Weighted>
-3.9159

> <Gold.Chemscore.Metal.Weighted>
-0.0000

> <Gold.Chemscore.Lipo.Weighted>
-10.6800

> <Gold.Chemscore.Internal_Hbond.Weighted>
0.0000

> <Gold.Chemscore.DEClash.Weighted>
0.1285

> <Gold.Chemscore.DEInternal.Weighted>
5.9114

> <Gold.Chemscore.Rot.Weighted>
7.6880

> <Gold.Chemscore.Internal.Correction.Weighted>
   9.000000E+99

> <Gold.Protein.RotatedTorsions>
[ 6907 6896 6895 6894 ] final  -40.76 input  -60.11 | X-H torsion
[ 7974 7965 7964 7962 ] final  -85.19 input  175.53 | X-H torsion
[ 8008 7997 7996 7995 ] final  176.69 input   59.86 | X-H torsion
[ 10167 10162 10161 10158 ] final  -64.35 input  -65.29 | X-H torsion
[ 10718 10713 10712 10709 ] final   -4.88 input   66.30 | X-H torsion
[ 10763 10752 10751 10750 ] final  169.43 input  -60.55 | X-H torsion
[ 11005 11000 10999 10996 ] final -170.94 input  -57.11 | X-H torsion

> <Gold.Protein.ActiveResidues>
 VAL166  LYS551  ARG553  GLY616  TRP617  ASP618  TYR619  PRO620  LYS621  CYS622 
 ASP623  PHE694  ASN695  SER759  ASP760  ASP761  ALA762  ILE779  LEU786  VAL792 
 PHE793  MET794  SER795  GLU796  ALA797  LYS798  CYS799  TRP800  GLU811  SER814 

> <Gold.Protein.RotatedAtoms>
  150.9746  134.9113  159.7808 H   0  0  0  0  0  0  0  0  0  0  0  0  # atno 6907 bound_to 6896
  152.5202  134.3493  159.9255 H   0  0  0  0  0  0  0  0  0  0  0  0  # atno 6908 bound_to 6896
  151.3502  133.3887  159.2714 H   0  0  0  0  0  0  0  0  0  0  0  0  # atno 6909 bound_to 6896
  145.4965  140.9550  143.1783 H   0  0  0  0  0  0  0  0  0  0  0  0  # atno 7974 bound_to 7965
  156.0738  140.1377  156.9797 H   0  0  0  0  0  0  0  0  0  0  0  0  # atno 8008 bound_to 7997
  154.4546  140.0966  156.6770 H   0  0  0  0  0  0  0  0  0  0  0  0  # atno 8009 bound_to 7997
  155.5186  140.3455  155.4404 H   0  0  0  0  0  0  0  0  0  0  0  0  # atno 8010 bound_to 7997
  140.5807  143.2327  151.6349 H   0  0  0  0  0  0  0  0  0  0  0  0  # atno 10167 bound_to 10162
  156.7547  130.5250  149.5797 H   0  0  0  0  0  0  0  0  0  0  0  0  # atno 10718 bound_to 10713
  154.3830  135.2753  155.2200 H   0  0  0  0  0  0  0  0  0  0  0  0  # atno 10763 bound_to 10752
  154.4298  135.5980  153.6065 H   0  0  0  0  0  0  0  0  0  0  0  0  # atno 10764 bound_to 10752
  152.9834  135.5993  154.4075 H   0  0  0  0  0  0  0  0  0  0  0  0  # atno 10765 bound_to 10752
  140.5138  134.5776  157.5027 H   0  0  0  0  0  0  0  0  0  0  0  0  # atno 11005 bound_to 11000
  144.7804  139.6539  143.7157 LP  0  0  0  0  0  0  0  0  0  0  0  0  # atno 17320 bound_to 7965
  146.2252  139.5709  142.9592 LP  0  0  0  0  0  0  0  0  0  0  0  0  # atno 17321 bound_to 7965
  139.5168  144.3335  152.0804 LP  0  0  0  0  0  0  0  0  0  0  0  0  # atno 17342 bound_to 10162
  140.2485  144.4194  150.6231 LP  0  0  0  0  0  0  0  0  0  0  0  0  # atno 17343 bound_to 10162
  156.1378  130.6223  151.0424 LP  0  0  0  0  0  0  0  0  0  0  0  0  # atno 17370 bound_to 10713
  157.6761  131.0850  150.7490 LP  0  0  0  0  0  0  0  0  0  0  0  0  # atno 17371 bound_to 10713
  139.9644  134.7398  156.0169 LP  0  0  0  0  0  0  0  0  0  0  0  0  # atno 17394 bound_to 11000
  141.1371  133.6572  156.3625 LP  0  0  0  0  0  0  0  0  0  0  0  0  # atno 17395 bound_to 11000

$$$$
