AV-unprocessed.smi:3018|AV-procd|sdf|11484|dock1
  -GOLD-   2272016423D 1   1.00000     0.00000
 Structure written by MMmdl.
 44 45  0  0  0  0  0  0  0  0  2 V2000
  152.1611  139.2092  154.9733 C   0  0  0  0  0  0  0  0  0  0  0  0
  151.6266  140.4706  155.6628 C   0  0  0  0  0  0  0  0  0  0  0  0
  150.9063  140.1635  156.9888 C   0  0  1  0  0  0  0  0  0  0  0  0
  150.5027  141.4034  157.5677 O   0  0  0  0  0  0  0  0  0  0  0  0
  151.4417  142.0334  158.4352 C   0  0  0  0  0  0  0  0  0  0  0  0
  151.5160  141.1948  159.7228 C   0  0  0  0  0  0  0  0  0  0  0  0
  152.4386  141.8471  160.7654 C   0  0  0  0  0  0  0  0  0  0  0  0
  151.9955  143.2855  161.0768 C   0  0  0  0  0  0  0  0  0  0  0  0
  151.9118  144.1302  159.7955 C   0  0  0  0  0  0  0  0  0  0  0  0
  150.9915  143.4740  158.7532 C   0  0  0  0  0  0  0  0  0  0  0  0
  149.6742  139.2760  156.7569 C   0  0  0  0  0  0  0  0  0  0  0  0
  148.8273  139.5989  155.9240 O   0  0  0  0  0  0  0  0  0  0  0  0
  149.5936  138.1641  157.5047 N   0  0  0  0  0  0  0  0  0  0  0  0
  148.5509  137.1454  157.4058 C   0  0  0  0  0  0  0  0  0  0  0  0
  148.6961  136.0633  158.4949 C   0  0  0  0  0  0  0  0  0  0  0  0
  147.4077  135.8032  159.2324 C   0  0  0  0  0  0  0  0  0  0  0  0
  146.8063  134.6761  159.3283 N   0  0  0  0  0  0  0  0  0  0  0  0
  145.7189  134.9757  160.0570 N   0  0  0  0  0  0  0  0  0  0  0  0
  145.6848  136.2681  160.3894 C   0  0  0  0  0  0  0  0  0  0  0  0
  144.7851  136.7745  161.0565 O   0  0  0  0  0  0  0  0  0  0  0  0
  146.7853  136.8342  159.8630 N   0  5  0  0  0  0  0  0  0  0  0  0
  145.0475  134.2584  160.2883 H   0  0  0  0  0  0  0  0  0  0  0  0
  152.6519  139.4599  154.0327 H   0  0  0  0  0  0  0  0  0  0  0  0
  151.3544  138.5101  154.7514 H   0  0  0  0  0  0  0  0  0  0  0  0
  152.8888  138.6939  155.6010 H   0  0  0  0  0  0  0  0  0  0  0  0
  152.4512  141.1637  155.8361 H   0  0  0  0  0  0  0  0  0  0  0  0
  150.9407  140.9758  154.9806 H   0  0  0  0  0  0  0  0  0  0  0  0
  151.6061  139.6454  157.6462 H   0  0  0  0  0  0  0  0  0  0  0  0
  152.4363  142.0531  157.9882 H   0  0  0  0  0  0  0  0  0  0  0  0
  150.5165  141.0779  160.1439 H   0  0  0  0  0  0  0  0  0  0  0  0
  151.8724  140.1907  159.4901 H   0  0  0  0  0  0  0  0  0  0  0  0
  152.4443  141.2539  161.6801 H   0  0  0  0  0  0  0  0  0  0  0  0
  153.4641  141.8526  160.3930 H   0  0  0  0  0  0  0  0  0  0  0  0
  151.0214  143.2691  161.5672 H   0  0  0  0  0  0  0  0  0  0  0  0
  152.6891  143.7451  161.7815 H   0  0  0  0  0  0  0  0  0  0  0  0
  151.5500  145.1307  160.0336 H   0  0  0  0  0  0  0  0  0  0  0  0
  152.9101  144.2540  159.3739 H   0  0  0  0  0  0  0  0  0  0  0  0
  150.9813  144.0825  157.8494 H   0  0  0  0  0  0  0  0  0  0  0  0
  149.9672  143.4621  159.1281 H   0  0  0  0  0  0  0  0  0  0  0  0
  150.3358  137.9884  158.1658 H   0  0  0  0  0  0  0  0  0  0  0  0
  147.5943  137.6519  157.5338 H   0  0  0  0  0  0  0  0  0  0  0  0
  148.5183  136.6916  156.4134 H   0  0  0  0  0  0  0  0  0  0  0  0
  149.0608  135.1367  158.0500 H   0  0  0  0  0  0  0  0  0  0  0  0
  149.4639  136.3732  159.2050 H   0  0  0  0  0  0  0  0  0  0  0  0
  1  2  1  0  0  0  0
  1 23  1  0  0  0  0
  1 24  1  0  0  0  0
  1 25  1  0  0  0  0
  2  3  1  0  0  0  0
  2 26  1  0  0  0  0
  2 27  1  0  0  0  0
  3  4  1  0  0  0  0
  3 11  1  0  0  0  0
  3 28  1  0  0  0  0
  4  5  1  0  0  0  0
  5 10  1  0  0  0  0
  5  6  1  0  0  0  0
  5 29  1  0  0  0  0
  6  7  1  0  0  0  0
  6 30  1  0  0  0  0
  6 31  1  0  0  0  0
  7  8  1  0  0  0  0
  7 32  1  0  0  0  0
  7 33  1  0  0  0  0
  8  9  1  0  0  0  0
  8 34  1  0  0  0  0
  8 35  1  0  0  0  0
  9 10  1  0  0  0  0
  9 36  1  0  0  0  0
  9 37  1  0  0  0  0
 10 38  1  0  0  0  0
 10 39  1  0  0  0  0
 11 12  2  0  0  0  0
 11 13  1  0  0  0  0
 13 14  1  0  0  0  0
 13 40  1  0  0  0  0
 14 15  1  0  0  0  0
 14 41  1  0  0  0  0
 14 42  1  0  0  0  0
 15 16  1  0  0  0  0
 15 43  1  0  0  0  0
 15 44  1  0  0  0  0
 16 21  1  0  0  0  0
 16 17  2  0  0  0  0
 17 18  1  0  0  0  0
 18 22  1  0  0  0  0
 18 19  1  0  0  0  0
 19 20  2  0  0  0  0
 19 21  1  0  0  0  0
M  CHG  1  21  -1
M  END
> <s_m_source_file>
AV-unprocessed.smi

> <i_m_source_file_index>
3018

> <i_lp_mmshare_version>
43012

> <i_f3d_flags>
0

> <s_epik_input>
W0NIMl0xW0NIMl1bQ0gyXVtDSDJdW0NIMl1bQ0hdMU9bQ0BASF0oW0NIMl1bQ0gzXSlDKD1PKVtOSF1bQ0gyXVtDSDJdYzJuW25IXWMoPU8pW25IXTI=

> <s_epik_cmdline>
J2VwaWtfcHl0aG9uJywgJy1waCcsICc3LjAnLCAnLXRuJywgJzgnLCAnLW1hJywgJzIwMCcsICctbWV0YWxfYmluZGluZycsICctaW1hZScsICc8aW5maWxlLm1hZT4nLCAnLW9tYWUnLCAnPG91dGZpbGUubWFlPic=

> <r_lp_tautomer_probability>
1

> <r_epik_Ionization_Penalty>
13.7173

> <r_epik_Ionization_Penalty_Charging>
13.7173

> <r_epik_Ionization_Penalty_Neutral>
5.37575e-06

> <r_epik_State_Penalty>
4.05785

> <r_epik_Charging_Adjusted_Penalty>
17.7751

> <i_epik_Tot_Q>
-1

> <i_epik_Tot_abs_Q>
1

> <r_epik_Metal_State_Penalty>
0.460256

> <b_epik_Metal_Only>
1

> <s_lp_Force_Field>
OPLS_2005

> <r_lp_Energy>
25.1559

> <b_lp_Chiralities_Consistent>
1

> <s_lp_Variant>
AV-unprocessed.smi:3018-6

> <Gold.Version>
5.8.1

> <Gold.Id.Protein>
6NUR|6NUR_protein|mol2

> <Gold.PLP.Fitness>
46.3428

> <Gold.PLP.PLP>
-36.8345

> <Gold.PLP.part.hbond>
-2.0000

> <Gold.PLP.part.metal>
0.0000

> <Gold.PLP.part.buried>
-4.1132

> <Gold.PLP.part.nonpolar>
-31.1451

> <Gold.PLP.part.repulsive>
0.1910

> <Gold.PLP.ligand.clash>
0.0000

> <Gold.PLP.ligand.torsion>
0.9160

> <Gold.PLP.Chemscore.Hbond>
3.7120

> <Gold.PLP.Chemscore.CHOScore>
0.0000

> <Gold.PLP.Chemscore.Metal>
0.0000

> <Gold.PLP.Chemscore.Internal.Correction>
0.2043

> <Gold.Rescore>
     Score         DG    S(hbond)    S(metal)    S(lipo)     H(rot)  DE(clash)    DE(int)     intcor
     11.74     -13.12       1.43        0.00      89.52       2.98       0.38       1.00       ----

> <Gold.Chemscore.Fitness>
11.7409

> <Gold.Chemscore.DG>
-13.1212

> <Gold.Chemscore.ZeroCoef>
-5.4800

> <Gold.Chemscore.Hbond>
1.4339

> <Gold.Chemscore.Metal>
0.0000

> <Gold.Chemscore.Lipo>
89.5182

> <Gold.Chemscore.Internal_Hbond>
0.0000

> <Gold.Chemscore.DEClash>
0.3823

> <Gold.Chemscore.DEInternal>
0.9981

> <Gold.Chemscore.Rot>
2.9772

> <Gold.Chemscore.Internal.Correction>
   9.000000E+99

> <Gold.Chemscore.Hbonds>
donor molecule, donor type, donor heavy atom, donor atom, acceptor molecule, acceptor atom, score
      P1  H  6934  6947       L1    21  0.03

> <Gold.Chemscore.Hbond.Weighted>
-4.7892

> <Gold.Chemscore.Metal.Weighted>
-0.0000

> <Gold.Chemscore.Lipo.Weighted>
-10.4736

> <Gold.Chemscore.Internal_Hbond.Weighted>
0.0000

> <Gold.Chemscore.DEClash.Weighted>
0.3823

> <Gold.Chemscore.DEInternal.Weighted>
0.9981

> <Gold.Chemscore.Rot.Weighted>
7.6216

> <Gold.Chemscore.Internal.Correction.Weighted>
   9.000000E+99

> <Gold.Protein.RotatedTorsions>
[ 6907 6896 6895 6894 ] final   47.86 input  -60.11 | X-H torsion
[ 7974 7965 7964 7962 ] final   27.22 input  175.53 | X-H torsion
[ 8008 7997 7996 7995 ] final  130.02 input   59.86 | X-H torsion
[ 10167 10162 10161 10158 ] final -149.07 input  -65.29 | X-H torsion
[ 10718 10713 10712 10709 ] final  -28.41 input   66.30 | X-H torsion
[ 10763 10752 10751 10750 ] final  -60.10 input  -60.55 | X-H torsion
[ 11005 11000 10999 10996 ] final  100.38 input  -57.11 | X-H torsion

> <Gold.Protein.ActiveResidues>
 VAL166  LYS551  ARG553  GLY616  TRP617  ASP618  TYR619  PRO620  LYS621  CYS622 
 ASP623  PHE694  ASN695  SER759  ASP760  ASP761  ALA762  ILE779  LEU786  VAL792 
 PHE793  MET794  SER795  GLU796  ALA797  LYS798  CYS799  TRP800  GLU811  SER814 

> <Gold.Protein.RotatedAtoms>
  152.2729  134.7913  160.0410 H   0  0  0  0  0  0  0  0  0  0  0  0  # atno 6907 bound_to 6896
  151.8519  133.3436  159.3684 H   0  0  0  0  0  0  0  0  0  0  0  0  # atno 6908 bound_to 6896
  150.7159  134.5218  159.5702 H   0  0  0  0  0  0  0  0  0  0  0  0  # atno 6909 bound_to 6896
  146.1796  139.7221  142.8910 H   0  0  0  0  0  0  0  0  0  0  0  0  # atno 7974 bound_to 7965
  156.2947  140.2606  156.2693 H   0  0  0  0  0  0  0  0  0  0  0  0  # atno 8008 bound_to 7997
  154.9711  140.0391  157.2253 H   0  0  0  0  0  0  0  0  0  0  0  0  # atno 8009 bound_to 7997
  154.7858  140.2803  155.6033 H   0  0  0  0  0  0  0  0  0  0  0  0  # atno 8010 bound_to 7997
  139.7475  143.8569  152.2578 H   0  0  0  0  0  0  0  0  0  0  0  0  # atno 10167 bound_to 10162
  156.4256  130.4435  149.7153 H   0  0  0  0  0  0  0  0  0  0  0  0  # atno 10718 bound_to 10713
  154.2640  135.6303  153.5285 H   0  0  0  0  0  0  0  0  0  0  0  0  # atno 10763 bound_to 10752
  152.9891  135.5594  154.5672 H   0  0  0  0  0  0  0  0  0  0  0  0  # atno 10764 bound_to 10752
  154.5228  135.2883  155.1223 H   0  0  0  0  0  0  0  0  0  0  0  0  # atno 10765 bound_to 10752
  139.8771  134.9138  156.4748 H   0  0  0  0  0  0  0  0  0  0  0  0  # atno 11005 bound_to 11000
  145.4115  141.0397  143.3014 LP  0  0  0  0  0  0  0  0  0  0  0  0  # atno 17320 bound_to 7965
  144.8292  139.5657  143.6951 LP  0  0  0  0  0  0  0  0  0  0  0  0  # atno 17321 bound_to 7965
  139.8537  144.7152  150.9183 LP  0  0  0  0  0  0  0  0  0  0  0  0  # atno 17342 bound_to 10162
  140.7794  143.3877  151.1365 LP  0  0  0  0  0  0  0  0  0  0  0  0  # atno 17343 bound_to 10162
  156.4076  130.7706  151.2717 LP  0  0  0  0  0  0  0  0  0  0  0  0  # atno 17370 bound_to 10713
  157.7508  131.0221  150.3778 LP  0  0  0  0  0  0  0  0  0  0  0  0  # atno 17371 bound_to 10713
  140.8770  133.7946  155.9425 LP  0  0  0  0  0  0  0  0  0  0  0  0  # atno 17394 bound_to 11000
  140.8894  134.2514  157.5102 LP  0  0  0  0  0  0  0  0  0  0  0  0  # atno 17395 bound_to 11000

$$$$
