AV-unprocessed.smi:3163|AV-procd|sdf|12077|dock4
  -GOLD-   2272017503D 1   1.00000     0.00000
 Structure written by MMmdl.
 37 38  0  0  0  0  0  0  0  0  3 V2000
  143.8438  132.7248  148.7595 C   0  0  0  0  0  0  0  0  0  0  0  0
  144.4691  132.7838  150.0974 N   0  3  1  0  0  0  0  0  0  0  0  0
  145.9441  132.6790  150.0818 C   0  0  0  0  0  0  0  0  0  0  0  0
  146.4232  133.5121  151.2680 C   0  0  0  0  0  0  0  0  0  0  0  0
  145.4234  134.6654  151.2910 C   0  0  2  0  0  0  0  0  0  0  0  0
  145.3879  135.4320  152.6272 C   0  0  0  0  0  0  0  0  0  0  0  0
  146.5054  136.3627  152.7589 N   0  0  0  0  0  0  0  0  0  0  0  0
  146.4492  137.5739  153.3318 C   0  0  0  0  0  0  0  0  0  0  0  0
  145.4167  138.0576  153.7945 O   0  0  0  0  0  0  0  0  0  0  0  0
  147.6490  138.1802  153.3081 N   0  0  0  0  0  0  0  0  0  0  0  0
  148.0073  139.4599  153.8145 C   0  0  0  0  0  0  0  0  0  0  0  0
  147.0709  140.5069  153.6637 C   0  0  0  0  0  0  0  0  0  0  0  0
  147.3860  141.7969  154.1374 C   0  0  0  0  0  0  0  0  0  0  0  0
  148.5816  142.0250  154.7214 N   0  3  0  0  0  0  0  0  0  0  0  0
  149.5147  141.0610  154.8749 C   0  0  0  0  0  0  0  0  0  0  0  0
  149.2561  139.7513  154.4214 C   0  0  0  0  0  0  0  0  0  0  0  0
  144.1062  133.9813  150.8910 C   0  0  0  0  0  0  0  0  0  0  0  0
  144.1498  133.5724  148.1450 H   0  0  0  0  0  0  0  0  0  0  0  0
  142.7570  132.7387  148.8460 H   0  0  0  0  0  0  0  0  0  0  0  0
  144.1288  131.8060  148.2461 H   0  0  0  0  0  0  0  0  0  0  0  0
  146.2725  131.6408  150.1378 H   0  0  0  0  0  0  0  0  0  0  0  0
  146.3388  133.1060  149.1579 H   0  0  0  0  0  0  0  0  0  0  0  0
  146.3525  132.9284  152.1873 H   0  0  0  0  0  0  0  0  0  0  0  0
  147.4552  133.8470  151.1587 H   0  0  0  0  0  0  0  0  0  0  0  0
  145.7026  135.3580  150.4948 H   0  0  0  0  0  0  0  0  0  0  0  0
  144.4346  135.9486  152.7521 H   0  0  0  0  0  0  0  0  0  0  0  0
  145.4574  134.7227  153.4524 H   0  0  0  0  0  0  0  0  0  0  0  0
  147.3961  136.0483  152.4018 H   0  0  0  0  0  0  0  0  0  0  0  0
  148.3841  137.6865  152.8230 H   0  0  0  0  0  0  0  0  0  0  0  0
  146.1146  140.3267  153.1937 H   0  0  0  0  0  0  0  0  0  0  0  0
  146.7230  142.6468  154.0650 H   0  0  0  0  0  0  0  0  0  0  0  0
  150.4373  141.3650  155.3475 H   0  0  0  0  0  0  0  0  0  0  0  0
  150.0252  139.0032  154.5368 H   0  0  0  0  0  0  0  0  0  0  0  0
  143.4480  134.6640  150.3516 H   0  0  0  0  0  0  0  0  0  0  0  0
  143.5669  133.6348  151.7731 H   0  0  0  0  0  0  0  0  0  0  0  0
  144.1285  131.9891  150.6197 H   0  0  0  0  0  0  0  0  0  0  0  0
  148.7914  142.9661  155.0558 H   0  0  0  0  0  0  0  0  0  0  0  0
  1  2  1  0  0  0  0
  1 18  1  0  0  0  0
  1 19  1  0  0  0  0
  1 20  1  0  0  0  0
  2 17  1  0  0  0  0
  2  3  1  0  0  0  0
  2 36  1  0  0  0  0
  3  4  1  0  0  0  0
  3 21  1  0  0  0  0
  3 22  1  0  0  0  0
  4  5  1  0  0  0  0
  4 23  1  0  0  0  0
  4 24  1  0  0  0  0
  5  6  1  0  0  0  0
  5 17  1  0  0  0  0
  5 25  1  0  0  0  0
  6  7  1  0  0  0  0
  6 26  1  0  0  0  0
  6 27  1  0  0  0  0
  7  8  1  0  0  0  0
  7 28  1  0  0  0  0
  8  9  2  0  0  0  0
  8 10  1  0  0  0  0
 10 11  1  0  0  0  0
 10 29  1  0  0  0  0
 11 16  1  0  0  0  0
 11 12  2  0  0  0  0
 12 13  1  0  0  0  0
 12 30  1  0  0  0  0
 13 14  2  0  0  0  0
 13 31  1  0  0  0  0
 14 15  1  0  0  0  0
 14 37  1  0  0  0  0
 15 16  2  0  0  0  0
 15 32  1  0  0  0  0
 16 33  1  0  0  0  0
 17 34  1  0  0  0  0
 17 35  1  0  0  0  0
M  CHG  1   2   1
M  CHG  1  14   1
M  END
> <s_m_source_file>
AV-unprocessed.smi

> <i_m_source_file_index>
3163

> <i_lp_mmshare_version>
43012

> <i_f3d_flags>
0

> <s_epik_input>
W0NIM11OMVtDSDJdW0NIMl1bQ0BIXShbQ0gyXTEpW0NIMl1bTkhdQyg9TylbTkhdYzJbY0hdW2NIXW5bY0hdW2NIXTI=

> <s_epik_cmdline>
J2VwaWtfcHl0aG9uJywgJy1waCcsICc3LjAnLCAnLXRuJywgJzgnLCAnLW1hJywgJzIwMCcsICctbWV0YWxfYmluZGluZycsICctaW1hZScsICc8aW5maWxlLm1hZT4nLCAnLW9tYWUnLCAnPG91dGZpbGUubWFlPic=

> <r_epik_Ionization_Penalty>
1.09034

> <r_epik_Ionization_Penalty_Charging>
1.09032

> <r_epik_Ionization_Penalty_Neutral>
1.86664e-05

> <r_epik_State_Penalty>
1.14521

> <r_epik_Charging_Adjusted_Penalty>
2.23553

> <i_epik_Tot_Q>
2

> <i_epik_Tot_abs_Q>
2

> <r_epik_Metal_State_Penalty>
1.23399

> <b_epik_Metal_Only>
0

> <s_lp_Force_Field>
OPLS_2005

> <r_lp_Energy>
39.8127

> <b_lp_Chiralities_Consistent>
1

> <s_lp_Variant>
AV-unprocessed.smi:3163-7

> <Gold.Version>
5.8.1

> <Gold.Id.Protein>
6NUR|6NUR_protein|mol2

> <Gold.PLP.Fitness>
43.4199

> <Gold.PLP.PLP>
-32.5906

> <Gold.PLP.part.hbond>
-3.0000

> <Gold.PLP.part.metal>
0.0000

> <Gold.PLP.part.buried>
-3.9865

> <Gold.PLP.part.nonpolar>
-26.1219

> <Gold.PLP.part.repulsive>
0.5131

> <Gold.PLP.ligand.clash>
0.0000

> <Gold.PLP.ligand.torsion>
0.5872

> <Gold.PLP.Chemscore.Hbond>
4.0000

> <Gold.PLP.Chemscore.CHOScore>
0.0000

> <Gold.PLP.Chemscore.Metal>
0.0000

> <Gold.Chemscore.Hbonds>
donor molecule, donor type, donor heavy atom, donor atom, acceptor molecule, acceptor atom, score
      L1  H     7    28       P1  7948  1.00
      L1  H    10    29       P1  7948  1.00
      L1  H    14    37       P1  8028  2.00

> <Gold.PLP.Chemscore.Internal.Correction>
0.0037

> <Gold.Rescore>
     Score         DG    S(hbond)    S(metal)    S(lipo)     H(rot)  DE(clash)    DE(int)     intcor
     19.54     -21.35       2.95        0.00      79.18       1.27       0.05       1.75       ----

> <Gold.Chemscore.Fitness>
19.5445

> <Gold.Chemscore.DG>
-21.3504

> <Gold.Chemscore.ZeroCoef>
-5.4800

> <Gold.Chemscore.Hbond>
2.9531

> <Gold.Chemscore.Metal>
0.0000

> <Gold.Chemscore.Lipo>
79.1761

> <Gold.Chemscore.Internal_Hbond>
0.0000

> <Gold.Chemscore.DEClash>
0.0542

> <Gold.Chemscore.DEInternal>
1.7517

> <Gold.Chemscore.Rot>
1.2721

> <Gold.Chemscore.Internal.Correction>
   9.000000E+99

> <Gold.Chemscore.Hbonds>
donor molecule, donor type, donor heavy atom, donor atom, acceptor molecule, acceptor atom, score
      L1  H     7    28       P1  7948  0.98
      L1  H    10    29       P1  7948  0.95
      L1  H    14    37       P1  8028  1.00

> <Gold.Chemscore.Hbond.Weighted>
-9.8633

> <Gold.Chemscore.Metal.Weighted>
-0.0000

> <Gold.Chemscore.Lipo.Weighted>
-9.2636

> <Gold.Chemscore.Internal_Hbond.Weighted>
0.0000

> <Gold.Chemscore.DEClash.Weighted>
0.0542

> <Gold.Chemscore.DEInternal.Weighted>
1.7517

> <Gold.Chemscore.Rot.Weighted>
3.2565

> <Gold.Chemscore.Internal.Correction.Weighted>
   9.000000E+99

> <Gold.Protein.RotatedTorsions>
[ 6907 6896 6895 6894 ] final  152.41 input  -60.11 | X-H torsion
[ 7974 7965 7964 7962 ] final  108.69 input  175.53 | X-H torsion
[ 8008 7997 7996 7995 ] final -149.93 input   59.86 | X-H torsion
[ 10167 10162 10161 10158 ] final -123.90 input  -65.29 | X-H torsion
[ 10718 10713 10712 10709 ] final  -49.02 input   66.30 | X-H torsion
[ 10763 10752 10751 10750 ] final  133.36 input  -60.55 | X-H torsion
[ 11005 11000 10999 10996 ] final  -31.28 input  -57.11 | X-H torsion

> <Gold.Protein.ActiveResidues>
 VAL166  LYS551  ARG553  GLY616  TRP617  ASP618  TYR619  PRO620  LYS621  CYS622 
 ASP623  PHE694  ASN695  SER759  ASP760  ASP761  ALA762  ILE779  LEU786  VAL792 
 PHE793  MET794  SER795  GLU796  ALA797  LYS798  CYS799  TRP800  GLU811  SER814 

> <Gold.Protein.RotatedAtoms>
  152.0871  133.4181  159.4526 H   0  0  0  0  0  0  0  0  0  0  0  0  # atno 6907 bound_to 6896
  150.6862  134.2915  159.4678 H   0  0  0  0  0  0  0  0  0  0  0  0  # atno 6908 bound_to 6896
  152.0763  134.9500  160.0624 H   0  0  0  0  0  0  0  0  0  0  0  0  # atno 6909 bound_to 6896
  145.2774  139.2645  143.3934 H   0  0  0  0  0  0  0  0  0  0  0  0  # atno 7974 bound_to 7965
  155.6154  140.0676  157.2694 H   0  0  0  0  0  0  0  0  0  0  0  0  # atno 8008 bound_to 7997
  154.4242  140.1794  156.1364 H   0  0  0  0  0  0  0  0  0  0  0  0  # atno 8009 bound_to 7997
  156.0051  140.3332  155.6888 H   0  0  0  0  0  0  0  0  0  0  0  0  # atno 8010 bound_to 7997
  139.9985  143.5565  152.2313 H   0  0  0  0  0  0  0  0  0  0  0  0  # atno 10167 bound_to 10162
  156.1932  130.4153  149.9342 H   0  0  0  0  0  0  0  0  0  0  0  0  # atno 10718 bound_to 10713
  153.8058  135.3135  155.3395 H   0  0  0  0  0  0  0  0  0  0  0  0  # atno 10763 bound_to 10752
  154.8071  135.4691  154.0423 H   0  0  0  0  0  0  0  0  0  0  0  0  # atno 10764 bound_to 10752
  153.1785  135.6890  153.8598 H   0  0  0  0  0  0  0  0  0  0  0  0  # atno 10765 bound_to 10752
  140.9454  133.7253  156.1139 H   0  0  0  0  0  0  0  0  0  0  0  0  # atno 11005 bound_to 11000
  146.3227  140.3233  142.8635 LP  0  0  0  0  0  0  0  0  0  0  0  0  # atno 17320 bound_to 7965
  144.9282  140.7945  143.5705 LP  0  0  0  0  0  0  0  0  0  0  0  0  # atno 17321 bound_to 7965
  139.6289  144.7641  151.2579 LP  0  0  0  0  0  0  0  0  0  0  0  0  # atno 17342 bound_to 10162
  140.7428  143.6515  150.8244 LP  0  0  0  0  0  0  0  0  0  0  0  0  # atno 17343 bound_to 10162
  156.7076  130.8957  151.3606 LP  0  0  0  0  0  0  0  0  0  0  0  0  # atno 17370 bound_to 10713
  157.6942  130.9264  150.0597 LP  0  0  0  0  0  0  0  0  0  0  0  0  # atno 17371 bound_to 10713
  140.7676  134.3869  157.5514 LP  0  0  0  0  0  0  0  0  0  0  0  0  # atno 17394 bound_to 11000
  139.8832  134.9001  156.2782 LP  0  0  0  0  0  0  0  0  0  0  0  0  # atno 17395 bound_to 11000

$$$$
