AV-unprocessed.smi:157|AV-procd|sdf|1291|dock5
  -GOLD-   2262018573D 1   1.00000     0.00000
 Structure written by MMmdl.
 35 37  0  0  0  0  0  0  0  0  1 V2000
  148.8680  141.3734  153.6130 O   0  0  0  0  0  0  0  0  0  0  0  0
  148.5249  140.0985  154.1123 C   0  0  0  0  0  0  0  0  0  0  0  0
  149.7899  139.3192  154.5064 C   0  0  1  0  0  0  0  0  0  0  0  0
  150.9368  140.1739  154.4724 O   0  0  0  0  0  0  0  0  0  0  0  0
  151.7388  139.9745  155.6019 C   0  0  1  0  0  0  0  0  0  0  0  0
  151.5487  141.1347  156.5404 N   0  0  0  0  0  0  0  0  0  0  0  0
  150.7578  142.2028  156.3620 C   0  0  0  0  0  0  0  0  0  0  0  0
  150.7782  143.0772  157.3531 N   0  0  0  0  0  0  0  0  0  0  0  0
  151.6868  142.5359  158.2593 C   0  0  0  0  0  0  0  0  0  0  0  0
  152.1897  141.3403  157.7668 C   0  0  0  0  0  0  0  0  0  0  0  0
  153.0953  140.3894  158.1979 N   0  0  0  0  0  0  0  0  0  0  0  0
  153.9248  140.7177  159.1376 C   0  0  0  0  0  0  0  0  0  0  0  0
  154.0146  141.8814  159.8877 N   0  0  0  0  0  0  0  0  0  0  0  0
  152.8724  142.5081  160.5305 C   0  0  0  0  0  0  0  0  0  0  0  0
  151.9524  143.2498  159.5534 C   0  0  1  0  0  0  0  0  0  0  0  0
  152.5280  144.4983  159.2271 O   0  0  0  0  0  0  0  0  0  0  0  0
  151.2419  138.6844  156.2548 C   0  0  0  0  0  0  0  0  0  0  0  0
  149.7659  138.7256  155.9200 C   0  0  2  0  0  0  0  0  0  0  0  0
  149.2097  137.4278  155.9525 O   0  0  0  0  0  0  0  0  0  0  0  0
  149.9828  138.5305  153.7767 H   0  0  0  0  0  0  0  0  0  0  0  0
  152.8018  139.9825  155.3585 H   0  0  0  0  0  0  0  0  0  0  0  0
  151.0096  143.4595  160.0594 H   0  0  0  0  0  0  0  0  0  0  0  0
  149.2376  139.3806  156.6144 H   0  0  0  0  0  0  0  0  0  0  0  0
  148.9902  141.3074  152.6783 H   0  0  0  0  0  0  0  0  0  0  0  0
  147.8847  140.2357  154.9841 H   0  0  0  0  0  0  0  0  0  0  0  0
  147.9428  139.5616  153.3639 H   0  0  0  0  0  0  0  0  0  0  0  0
  150.1462  142.3507  155.4857 H   0  0  0  0  0  0  0  0  0  0  0  0
  154.6900  139.9962  159.4276 H   0  0  0  0  0  0  0  0  0  0  0  0
  154.8658  142.0587  160.4012 H   0  0  0  0  0  0  0  0  0  0  0  0
  152.3018  141.7175  161.0202 H   0  0  0  0  0  0  0  0  0  0  0  0
  153.2121  143.1742  161.3242 H   0  0  0  0  0  0  0  0  0  0  0  0
  151.8290  145.1224  159.1042 H   0  0  0  0  0  0  0  0  0  0  0  0
  151.7338  137.8422  155.7652 H   0  0  0  0  0  0  0  0  0  0  0  0
  151.4535  138.6444  157.3236 H   0  0  0  0  0  0  0  0  0  0  0  0
  149.2797  137.0529  155.0876 H   0  0  0  0  0  0  0  0  0  0  0  0
  1  2  1  0  0  0  0
  1 24  1  0  0  0  0
  2  3  1  0  0  0  0
  2 25  1  0  0  0  0
  2 26  1  0  0  0  0
  3 20  1  0  0  0  0
  3 18  1  0  0  0  0
  3  4  1  0  0  0  0
  4  5  1  0  0  0  0
  5 21  1  0  0  0  0
  5  6  1  0  0  0  0
  5 17  1  0  0  0  0
  6 10  1  0  0  0  0
  6  7  1  0  0  0  0
  7  8  2  0  0  0  0
  7 27  1  0  0  0  0
  8  9  1  0  0  0  0
  9 15  1  0  0  0  0
  9 10  2  0  0  0  0
 10 11  1  0  0  0  0
 11 12  2  0  0  0  0
 12 13  1  0  0  0  0
 12 28  1  0  0  0  0
 13 14  1  0  0  0  0
 13 29  1  0  0  0  0
 14 15  1  0  0  0  0
 14 30  1  0  0  0  0
 14 31  1  0  0  0  0
 15 22  1  0  0  0  0
 15 16  1  0  0  0  0
 16 32  1  0  0  0  0
 17 18  1  0  0  0  0
 17 33  1  0  0  0  0
 17 34  1  0  0  0  0
 18 23  1  0  0  0  0
 18 19  1  0  0  0  0
 19 35  1  0  0  0  0
M  END
> <s_m_source_file>
AV-unprocessed.smi

> <i_m_source_file_index>
157

> <i_lp_mmshare_version>
43012

> <i_f3d_flags>
0

> <s_epik_input>
W09IXVtDSDJdW0NASF0xT1tDQEhdKFtDSDJdW0NAQEhdMVtPSF0pbihbY0hdbjIpYyhjMjMpTj1bQ0hdW05IXVtDSDJdW0NASF0zW09IXQ==

> <s_epik_cmdline>
J2VwaWtfcHl0aG9uJywgJy1waCcsICc3LjAnLCAnLXRuJywgJzgnLCAnLW1hJywgJzIwMCcsICctbWV0YWxfYmluZGluZycsICctaW1hZScsICc8aW5maWxlLm1hZT4nLCAnLW9tYWUnLCAnPG91dGZpbGUubWFlPic=

> <r_lp_tautomer_probability>
1

> <r_epik_Ionization_Penalty>
0.0357149

> <r_epik_Ionization_Penalty_Charging>
0.0355056

> <r_epik_Ionization_Penalty_Neutral>
0.000209255

> <r_epik_State_Penalty>
0.0296046

> <r_epik_Charging_Adjusted_Penalty>
0.0651102

> <i_epik_Tot_Q>
0

> <i_epik_Tot_abs_Q>
0

> <r_epik_Metal_State_Penalty>
3.03559e-05

> <b_epik_Metal_Only>
0

> <s_epik_Chemistry_Notes>
This compound has an imine and may undergo hydrolysis. This compound contains an acetal/aminal-like group ( X-CH(R)-Y where X, Y are N, S, or O) that may be acid/base labile, releasing an aldehyde.

> <s_lp_Force_Field>
OPLS_2005

> <r_lp_Energy>
41.3094

> <b_lp_Chiralities_Consistent>
1

> <s_lp_Variant>
AV-unprocessed.smi:157-1

> <Gold.Version>
5.8.1

> <Gold.Id.Protein>
6NUR|6NUR_protein|mol2

> <Gold.PLP.Fitness>
39.3918

> <Gold.PLP.PLP>
-32.9499

> <Gold.PLP.part.hbond>
-4.9652

> <Gold.PLP.part.metal>
0.0000

> <Gold.PLP.part.buried>
-6.1773

> <Gold.PLP.part.nonpolar>
-22.2346

> <Gold.PLP.part.repulsive>
0.2527

> <Gold.PLP.ligand.clash>
0.0000

> <Gold.PLP.ligand.torsion>
0.7312

> <Gold.PLP.Chemscore.Hbond>
2.5341

> <Gold.PLP.Chemscore.CHOScore>
0.0937

> <Gold.PLP.Chemscore.Metal>
0.0000

> <Gold.Chemscore.Hbonds>
donor molecule, donor type, donor heavy atom, donor atom, acceptor molecule, acceptor atom, score
      L1  H     1    24       P1  7957  0.84
      P1  H  7989  7998       L1     4  0.63
      P1  H  7997  8010       L1    11  0.24
      L1  C     7    27       P1  8028  0.36

> <Gold.PLP.Chemscore.Internal.Correction>
0.0209

> <Gold.Rescore>
     Score         DG    S(hbond)    S(metal)    S(lipo)     H(rot)  DE(clash)    DE(int)     intcor
      8.00      -9.02       1.97        0.00      53.50       3.64       0.11       0.91       ----

> <Gold.Chemscore.Fitness>
7.9992

> <Gold.Chemscore.DG>
-9.0190

> <Gold.Chemscore.ZeroCoef>
-5.4800

> <Gold.Chemscore.Hbond>
1.9725

> <Gold.Chemscore.Metal>
0.0000

> <Gold.Chemscore.Lipo>
53.5008

> <Gold.Chemscore.Internal_Hbond>
0.0000

> <Gold.Chemscore.DEClash>
0.1126

> <Gold.Chemscore.DEInternal>
0.9073

> <Gold.Chemscore.Rot>
3.6362

> <Gold.Chemscore.Internal.Correction>
   9.000000E+99

> <Gold.Chemscore.Hbonds>
donor molecule, donor type, donor heavy atom, donor atom, acceptor molecule, acceptor atom, score
      L1  H     1    24       P1  7957  0.79
      P1  H  7989  7998       L1     4  0.49

> <Gold.Chemscore.Hbond.Weighted>
-6.5881

> <Gold.Chemscore.Metal.Weighted>
-0.0000

> <Gold.Chemscore.Lipo.Weighted>
-6.2596

> <Gold.Chemscore.Internal_Hbond.Weighted>
0.0000

> <Gold.Chemscore.DEClash.Weighted>
0.1126

> <Gold.Chemscore.DEInternal.Weighted>
0.9073

> <Gold.Chemscore.Rot.Weighted>
9.3087

> <Gold.Chemscore.Internal.Correction.Weighted>
   9.000000E+99

> <Gold.Protein.RotatedTorsions>
[ 6907 6896 6895 6894 ] final   55.55 input  -60.11 | X-H torsion
[ 7974 7965 7964 7962 ] final   63.07 input  175.53 | X-H torsion
[ 8008 7997 7996 7995 ] final   28.27 input   59.86 | X-H torsion
[ 10167 10162 10161 10158 ] final  -45.71 input  -65.29 | X-H torsion
[ 10718 10713 10712 10709 ] final   81.14 input   66.30 | X-H torsion
[ 10763 10752 10751 10750 ] final  -84.25 input  -60.55 | X-H torsion
[ 11005 11000 10999 10996 ] final   53.21 input  -57.11 | X-H torsion

> <Gold.Protein.ActiveResidues>
 VAL166  LYS551  ARG553  GLY616  TRP617  ASP618  TYR619  PRO620  LYS621  CYS622 
 ASP623  PHE694  ASN695  SER759  ASP760  ASP761  ALA762  ILE779  LEU786  VAL792 
 PHE793  MET794  SER795  GLU796  ALA797  LYS798  CYS799  TRP800  GLU811  SER814 

> <Gold.Protein.RotatedAtoms>
  152.3550  134.6953  160.0224 H   0  0  0  0  0  0  0  0  0  0  0  0  # atno 6907 bound_to 6896
  151.7295  133.3312  159.3344 H   0  0  0  0  0  0  0  0  0  0  0  0  # atno 6908 bound_to 6896
  150.7565  134.6310  159.6231 H   0  0  0  0  0  0  0  0  0  0  0  0  # atno 6909 bound_to 6896
  145.8661  139.3346  143.0790 H   0  0  0  0  0  0  0  0  0  0  0  0  # atno 7974 bound_to 7965
  155.0560  140.3185  155.4676 H   0  0  0  0  0  0  0  0  0  0  0  0  # atno 8008 bound_to 7997
  156.2824  140.2137  156.5631 H   0  0  0  0  0  0  0  0  0  0  0  0  # atno 8009 bound_to 7997
  154.7171  140.0493  157.0592 H   0  0  0  0  0  0  0  0  0  0  0  0  # atno 8010 bound_to 7997
  140.6847  143.2866  151.3678 H   0  0  0  0  0  0  0  0  0  0  0  0  # atno 10167 bound_to 10162
  157.6825  130.9991  150.2183 H   0  0  0  0  0  0  0  0  0  0  0  0  # atno 10718 bound_to 10713
  154.5973  135.5527  153.7339 H   0  0  0  0  0  0  0  0  0  0  0  0  # atno 10763 bound_to 10752
  153.0140  135.6358  154.1764 H   0  0  0  0  0  0  0  0  0  0  0  0  # atno 10764 bound_to 10752
  154.1704  135.2892  155.3062 H   0  0  0  0  0  0  0  0  0  0  0  0  # atno 10765 bound_to 10752
  140.0786  134.5370  155.8971 H   0  0  0  0  0  0  0  0  0  0  0  0  # atno 11005 bound_to 11000
  145.9192  140.9127  143.0414 LP  0  0  0  0  0  0  0  0  0  0  0  0  # atno 17320 bound_to 7965
  144.6726  140.1265  143.7446 LP  0  0  0  0  0  0  0  0  0  0  0  0  # atno 17321 bound_to 7965
  139.6196  144.0934  152.2378 LP  0  0  0  0  0  0  0  0  0  0  0  0  # atno 17342 bound_to 10162
  140.0374  144.6034  150.7438 LP  0  0  0  0  0  0  0  0  0  0  0  0  # atno 17343 bound_to 10162
  156.2839  130.3737  149.7907 LP  0  0  0  0  0  0  0  0  0  0  0  0  # atno 17370 bound_to 10713
  156.5587  130.8374  151.3322 LP  0  0  0  0  0  0  0  0  0  0  0  0  # atno 17371 bound_to 10713
  141.2038  133.6635  156.6086 LP  0  0  0  0  0  0  0  0  0  0  0  0  # atno 17394 bound_to 11000
  140.3521  134.7759  157.4474 LP  0  0  0  0  0  0  0  0  0  0  0  0  # atno 17395 bound_to 11000

$$$$
