AV-unprocessed.smi:2695|AV-procd|sdf|10409|dock5
  -GOLD-   2272014443D 1   1.00000     0.00000
 Structure written by MMmdl.
 42 43  0  0  0  0  0  0  0  0  1 V2000
  144.8814  128.6540  158.5042 C   0  0  0  0  0  0  0  0  0  0  0  0
  143.4312  129.0891  158.6795 C   0  0  0  0  0  0  0  0  0  0  0  0
  142.4517  128.5627  157.9219 C   0  0  0  0  0  0  0  0  0  0  0  0
  141.0943  129.0220  158.0844 C   0  0  0  0  0  0  0  0  0  0  0  0
  140.1149  128.4946  157.3395 O   0  0  0  0  0  0  0  0  0  0  0  0
  140.8215  129.9889  158.9798 C   0  0  0  0  0  0  0  0  0  0  0  0
  141.8660  130.5896  159.8129 C   0  0  0  0  0  0  0  0  0  0  0  0
  141.6062  131.4855  160.6175 O   0  0  0  0  0  0  0  0  0  0  0  0
  143.1349  130.0942  159.6468 N   0  0  0  0  0  0  0  0  0  0  0  0
  144.2163  130.6319  160.5048 C   0  0  0  0  0  0  0  0  0  0  0  0
  144.3479  132.1612  160.4434 C   0  0  0  0  0  0  0  0  0  0  0  0
  144.8478  132.7160  159.4638 O   0  0  0  0  0  0  0  0  0  0  0  0
  143.9055  132.8259  161.5218 N   0  0  0  0  0  0  0  0  0  0  0  0
  143.9294  134.2782  161.7092 C   0  0  2  0  0  0  0  0  0  0  0  0
  145.2922  134.7020  162.3178 C   0  0  0  0  0  0  0  0  0  0  0  0
  145.6356  136.1902  162.1685 C   0  0  0  0  0  0  0  0  0  0  0  0
  147.1617  136.2893  162.2955 C   0  0  0  0  0  0  0  0  0  0  0  0
  147.7066  134.8673  162.1088 C   0  0  0  0  0  0  0  0  0  0  0  0
  146.5100  134.0128  161.6879 C   0  0  0  0  0  0  0  0  0  0  0  0
  142.7074  134.6867  162.5632 C   0  0  0  0  0  0  0  0  0  0  0  0
  141.5851  134.2773  161.9704 F   0  0  0  0  0  0  0  0  0  0  0  0
  142.7753  134.1348  163.7754 F   0  0  0  0  0  0  0  0  0  0  0  0
  142.6360  136.0107  162.6945 F   0  0  0  0  0  0  0  0  0  0  0  0
  145.0028  128.0885  157.5800 H   0  0  0  0  0  0  0  0  0  0  0  0
  145.1911  128.0098  159.3273 H   0  0  0  0  0  0  0  0  0  0  0  0
  145.5598  129.5048  158.4427 H   0  0  0  0  0  0  0  0  0  0  0  0
  142.6784  127.8088  157.1818 H   0  0  0  0  0  0  0  0  0  0  0  0
  139.4844  129.1782  157.1722 H   0  0  0  0  0  0  0  0  0  0  0  0
  139.8044  130.3350  159.0959 H   0  0  0  0  0  0  0  0  0  0  0  0
  144.0581  130.3461  161.5466 H   0  0  0  0  0  0  0  0  0  0  0  0
  145.1804  130.1834  160.2690 H   0  0  0  0  0  0  0  0  0  0  0  0
  143.5108  132.2841  162.2770 H   0  0  0  0  0  0  0  0  0  0  0  0
  143.8237  134.7705  160.7408 H   0  0  0  0  0  0  0  0  0  0  0  0
  145.2927  134.4628  163.3824 H   0  0  0  0  0  0  0  0  0  0  0  0
  145.3338  136.5436  161.1815 H   0  0  0  0  0  0  0  0  0  0  0  0
  145.1288  136.8095  162.9091 H   0  0  0  0  0  0  0  0  0  0  0  0
  147.5668  136.9733  161.5493 H   0  0  0  0  0  0  0  0  0  0  0  0
  147.4446  136.6736  163.2762 H   0  0  0  0  0  0  0  0  0  0  0  0
  148.5145  134.8253  161.3776 H   0  0  0  0  0  0  0  0  0  0  0  0
  148.1036  134.5019  163.0568 H   0  0  0  0  0  0  0  0  0  0  0  0
  146.6180  132.9740  162.0021 H   0  0  0  0  0  0  0  0  0  0  0  0
  146.4204  134.0215  160.6004 H   0  0  0  0  0  0  0  0  0  0  0  0
  1  2  1  0  0  0  0
  1 24  1  0  0  0  0
  1 25  1  0  0  0  0
  1 26  1  0  0  0  0
  2  9  1  0  0  0  0
  2  3  2  0  0  0  0
  3  4  1  0  0  0  0
  3 27  1  0  0  0  0
  4  5  1  0  0  0  0
  4  6  2  0  0  0  0
  5 28  1  0  0  0  0
  6  7  1  0  0  0  0
  6 29  1  0  0  0  0
  7  8  2  0  0  0  0
  7  9  1  0  0  0  0
  9 10  1  0  0  0  0
 10 11  1  0  0  0  0
 10 30  1  0  0  0  0
 10 31  1  0  0  0  0
 11 12  2  0  0  0  0
 11 13  1  0  0  0  0
 13 14  1  0  0  0  0
 13 32  1  0  0  0  0
 14 15  1  0  0  0  0
 14 20  1  0  0  0  0
 14 33  1  0  0  0  0
 15 19  1  0  0  0  0
 15 16  1  0  0  0  0
 15 34  1  0  0  0  0
 16 17  1  0  0  0  0
 16 35  1  0  0  0  0
 16 36  1  0  0  0  0
 17 18  1  0  0  0  0
 17 37  1  0  0  0  0
 17 38  1  0  0  0  0
 18 19  1  0  0  0  0
 18 39  1  0  0  0  0
 18 40  1  0  0  0  0
 19 41  1  0  0  0  0
 19 42  1  0  0  0  0
 20 21  1  0  0  0  0
 20 22  1  0  0  0  0
 20 23  1  0  0  0  0
M  END
> <s_m_source_file>
AV-unprocessed.smi

> <i_m_source_file_index>
2695

> <i_lp_mmshare_version>
43012

> <i_f3d_flags>
0

> <s_epik_input>
W0NIM11jMVtjSF1jKFtPSF0pW2NIXWMoPU8pbjFbQ0gyXUMoPU8pW05IXVtDQEBIXShDKEYpKEYpRilbQ0hdMltDSDJdW0NIMl1bQ0gyXVtDSDJdMg==

> <s_epik_cmdline>
J2VwaWtfcHl0aG9uJywgJy1waCcsICc3LjAnLCAnLXRuJywgJzgnLCAnLW1hJywgJzIwMCcsICctbWV0YWxfYmluZGluZycsICctaW1hZScsICc8aW5maWxlLm1hZT4nLCAnLW9tYWUnLCAnPG91dGZpbGUubWFlPic=

> <r_lp_tautomer_probability>
0.999984

> <r_epik_Ionization_Penalty>
0.843628

> <r_epik_Ionization_Penalty_Charging>
1.18449e-07

> <r_epik_Ionization_Penalty_Neutral>
0.843628

> <r_epik_State_Penalty>
0.886913

> <r_epik_Charging_Adjusted_Penalty>
0.886913

> <i_epik_Tot_Q>
0

> <i_epik_Tot_abs_Q>
0

> <r_epik_Metal_State_Penalty>
0.886913

> <b_epik_Metal_Only>
0

> <s_lp_Force_Field>
OPLS_2005

> <r_lp_Energy>
35.2102

> <b_lp_Chiralities_Consistent>
1

> <s_lp_Variant>
AV-unprocessed.smi:2695-3

> <Gold.Version>
5.8.1

> <Gold.Id.Protein>
6NUR|6NUR_protein|mol2

> <Gold.PLP.Fitness>
43.4755

> <Gold.PLP.PLP>
-41.7830

> <Gold.PLP.part.hbond>
-2.0876

> <Gold.PLP.part.metal>
0.0000

> <Gold.PLP.part.buried>
-4.6868

> <Gold.PLP.part.nonpolar>
-34.3756

> <Gold.PLP.part.repulsive>
0.0809

> <Gold.PLP.ligand.clash>
0.0000

> <Gold.PLP.ligand.torsion>
0.8377

> <Gold.PLP.Chemscore.Hbond>
1.0000

> <Gold.PLP.Chemscore.CHOScore>
0.0000

> <Gold.PLP.Chemscore.Metal>
0.0000

> <Gold.Chemscore.Hbonds>
donor molecule, donor type, donor heavy atom, donor atom, acceptor molecule, acceptor atom, score
      L1  H     5    28       P1 10998  0.70

> <Gold.PLP.Chemscore.Internal.Correction>
0.3678

> <Gold.Rescore>
     Score         DG    S(hbond)    S(metal)    S(lipo)     H(rot)  DE(clash)    DE(int)     intcor
      5.81     -11.92       0.98        0.00      78.58       2.36       1.73       4.37       ----

> <Gold.Chemscore.Fitness>
5.8104

> <Gold.Chemscore.DG>
-11.9170

> <Gold.Chemscore.ZeroCoef>
-5.4800

> <Gold.Chemscore.Hbond>
0.9832

> <Gold.Chemscore.Metal>
0.0000

> <Gold.Chemscore.Lipo>
78.5844

> <Gold.Chemscore.Internal_Hbond>
0.0000

> <Gold.Chemscore.DEClash>
1.7334

> <Gold.Chemscore.DEInternal>
4.3732

> <Gold.Chemscore.Rot>
2.3599

> <Gold.Chemscore.Internal.Correction>
   9.000000E+99

> <Gold.Chemscore.Hbonds>
donor molecule, donor type, donor heavy atom, donor atom, acceptor molecule, acceptor atom, score
      L1  H     5    28       P1 10998  0.43

> <Gold.Chemscore.Hbond.Weighted>
-3.2839

> <Gold.Chemscore.Metal.Weighted>
-0.0000

> <Gold.Chemscore.Lipo.Weighted>
-9.1944

> <Gold.Chemscore.Internal_Hbond.Weighted>
0.0000

> <Gold.Chemscore.DEClash.Weighted>
1.7334

> <Gold.Chemscore.DEInternal.Weighted>
4.3732

> <Gold.Chemscore.Rot.Weighted>
6.0413

> <Gold.Chemscore.Internal.Correction.Weighted>
   9.000000E+99

> <Gold.Protein.RotatedTorsions>
[ 6907 6896 6895 6894 ] final  104.28 input  -60.11 | X-H torsion
[ 7974 7965 7964 7962 ] final   75.92 input  175.53 | X-H torsion
[ 8008 7997 7996 7995 ] final  141.09 input   59.86 | X-H torsion
[ 10167 10162 10161 10158 ] final  150.74 input  -65.29 | X-H torsion
[ 10718 10713 10712 10709 ] final  126.88 input   66.30 | X-H torsion
[ 10763 10752 10751 10750 ] final   26.50 input  -60.55 | X-H torsion
[ 11005 11000 10999 10996 ] final -119.92 input  -57.11 | X-H torsion

> <Gold.Protein.ActiveResidues>
 VAL166  LYS551  ARG553  GLY616  TRP617  ASP618  TYR619  PRO620  LYS621  CYS622 
 ASP623  PHE694  ASN695  SER759  ASP760  ASP761  ALA762  ILE779  LEU786  VAL792 
 PHE793  MET794  SER795  GLU796  ALA797  LYS798  CYS799  TRP800  GLU811  SER814 

> <Gold.Protein.RotatedAtoms>
  152.5269  133.9700  159.7757 H   0  0  0  0  0  0  0  0  0  0  0  0  # atno 6907 bound_to 6896
  150.9974  133.6081  159.2707 H   0  0  0  0  0  0  0  0  0  0  0  0  # atno 6908 bound_to 6896
  151.3203  135.0823  159.9356 H   0  0  0  0  0  0  0  0  0  0  0  0  # atno 6909 bound_to 6896
  145.7095  139.2610  143.1659 H   0  0  0  0  0  0  0  0  0  0  0  0  # atno 7974 bound_to 7965
  156.2970  140.2324  156.4508 H   0  0  0  0  0  0  0  0  0  0  0  0  # atno 8008 bound_to 7997
  154.8103  140.0443  157.1358 H   0  0  0  0  0  0  0  0  0  0  0  0  # atno 8009 bound_to 7997
  154.9431  140.3032  155.5115 H   0  0  0  0  0  0  0  0  0  0  0  0  # atno 8010 bound_to 7997
  139.4847  144.5498  151.7421 H   0  0  0  0  0  0  0  0  0  0  0  0  # atno 10167 bound_to 10162
  157.5381  131.1097  150.8903 H   0  0  0  0  0  0  0  0  0  0  0  0  # atno 10718 bound_to 10713
  153.0618  135.6559  154.0445 H   0  0  0  0  0  0  0  0  0  0  0  0  # atno 10763 bound_to 10752
  154.0111  135.2928  155.3393 H   0  0  0  0  0  0  0  0  0  0  0  0  # atno 10764 bound_to 10752
  154.6959  135.5264  153.8526 H   0  0  0  0  0  0  0  0  0  0  0  0  # atno 10765 bound_to 10752
  141.0181  134.0165  157.3321 H   0  0  0  0  0  0  0  0  0  0  0  0  # atno 11005 bound_to 11000
  146.0726  140.7853  142.9681 LP  0  0  0  0  0  0  0  0  0  0  0  0  # atno 17320 bound_to 7965
  144.6946  140.3365  143.7207 LP  0  0  0  0  0  0  0  0  0  0  0  0  # atno 17321 bound_to 7965
  140.5050  144.1112  150.5980 LP  0  0  0  0  0  0  0  0  0  0  0  0  # atno 17342 bound_to 10162
  140.4018  143.2700  151.9938 LP  0  0  0  0  0  0  0  0  0  0  0  0  # atno 17343 bound_to 10162
  156.9464  130.5404  149.5281 LP  0  0  0  0  0  0  0  0  0  0  0  0  # atno 17370 bound_to 10713
  156.0474  130.5549  150.8913 LP  0  0  0  0  0  0  0  0  0  0  0  0  # atno 17371 bound_to 10713
  139.9129  135.0193  156.7765 LP  0  0  0  0  0  0  0  0  0  0  0  0  # atno 17394 bound_to 11000
  140.6620  133.9636  155.7810 LP  0  0  0  0  0  0  0  0  0  0  0  0  # atno 17395 bound_to 11000

$$$$
