AV-unprocessed.smi:1168|AV-procd|sdf|4939|dock5
  -GOLD-   22720 3523D 1   1.00000     0.00000
 Structure written by MMmdl.
 32 33  0  0  0  0  0  0  0  0  1 V2000
  152.9688  139.8591  156.1522 O   0  0  0  0  0  0  0  0  0  0  0  0
  151.9703  139.6493  156.8409 C   0  0  0  0  0  0  0  0  0  0  0  0
  152.1114  139.4173  158.3466 C   0  0  0  0  0  0  0  0  0  0  0  0
  152.2372  140.6748  159.0626 N   0  0  0  0  0  0  0  0  0  0  0  0
  153.1359  141.0138  160.0519 C   0  0  0  0  0  0  0  0  0  0  0  0
  152.8707  142.3020  160.4175 C   0  0  0  0  0  0  0  0  0  0  0  0
  151.7787  142.6813  159.5837 C   0  0  0  0  0  0  0  0  0  0  0  0
  151.0546  144.0008  159.5344 C   0  0  0  0  0  0  0  0  0  0  0  0
  151.2595  144.6829  160.6612 F   0  0  0  0  0  0  0  0  0  0  0  0
  151.5002  144.7251  158.5078 F   0  0  0  0  0  0  0  0  0  0  0  0
  149.7453  143.7980  159.3881 F   0  0  0  0  0  0  0  0  0  0  0  0
  151.4085  141.7002  158.7716 N   0  0  0  0  0  0  0  0  0  0  0  0
  150.7241  139.6124  156.3439 N   0  0  0  0  0  0  0  0  0  0  0  0
  150.3707  139.8239  154.9427 C   0  0  0  0  0  0  0  0  0  0  0  0
  149.2667  140.8916  154.8131 C   0  0  0  0  0  0  0  0  0  0  0  0
  148.1934  140.2874  153.9052 C   0  0  0  0  0  0  0  0  0  0  0  0
  148.3032  138.7839  154.1369 C   0  0  0  0  0  0  0  0  0  0  0  0
  149.8033  138.5418  154.3011 C   0  0  0  0  0  0  0  0  0  0  0  0
  151.2475  138.8790  158.7392 H   0  0  0  0  0  0  0  0  0  0  0  0
  152.9888  138.7968  158.5361 H   0  0  0  0  0  0  0  0  0  0  0  0
  153.8785  140.3167  160.4109 H   0  0  0  0  0  0  0  0  0  0  0  0
  153.3806  142.8874  161.1681 H   0  0  0  0  0  0  0  0  0  0  0  0
  149.9635  139.4301  156.9825 H   0  0  0  0  0  0  0  0  0  0  0  0
  151.2552  140.1471  154.3903 H   0  0  0  0  0  0  0  0  0  0  0  0
  148.8254  141.1109  155.7869 H   0  0  0  0  0  0  0  0  0  0  0  0
  149.6498  141.8322  154.4164 H   0  0  0  0  0  0  0  0  0  0  0  0
  147.1965  140.6740  154.1186 H   0  0  0  0  0  0  0  0  0  0  0  0
  148.4230  140.5142  152.8633 H   0  0  0  0  0  0  0  0  0  0  0  0
  147.7843  138.5152  155.0579 H   0  0  0  0  0  0  0  0  0  0  0  0
  147.8692  138.1993  153.3253 H   0  0  0  0  0  0  0  0  0  0  0  0
  150.2539  138.4058  153.3170 H   0  0  0  0  0  0  0  0  0  0  0  0
  150.0111  137.6367  154.8734 H   0  0  0  0  0  0  0  0  0  0  0  0
  1  2  2  0  0  0  0
  2  3  1  0  0  0  0
  2 13  1  0  0  0  0
  3  4  1  0  0  0  0
  3 19  1  0  0  0  0
  3 20  1  0  0  0  0
  4 12  1  0  0  0  0
  4  5  1  0  0  0  0
  5  6  2  0  0  0  0
  5 21  1  0  0  0  0
  6  7  1  0  0  0  0
  6 22  1  0  0  0  0
  7  8  1  0  0  0  0
  7 12  2  0  0  0  0
  8  9  1  0  0  0  0
  8 10  1  0  0  0  0
  8 11  1  0  0  0  0
 13 14  1  0  0  0  0
 13 23  1  0  0  0  0
 14 18  1  0  0  0  0
 14 15  1  0  0  0  0
 14 24  1  0  0  0  0
 15 16  1  0  0  0  0
 15 25  1  0  0  0  0
 15 26  1  0  0  0  0
 16 17  1  0  0  0  0
 16 27  1  0  0  0  0
 16 28  1  0  0  0  0
 17 18  1  0  0  0  0
 17 29  1  0  0  0  0
 17 30  1  0  0  0  0
 18 31  1  0  0  0  0
 18 32  1  0  0  0  0
M  END
> <s_m_source_file>
AV-unprocessed.smi

> <i_m_source_file_index>
1168

> <i_lp_mmshare_version>
43012

> <i_f3d_flags>
0

> <s_epik_input>
W0NIMl0xW0NIMl1bQ0gyXVtDSDJdW0NIXTFbTkhdQyg9TylbQ0gyXW4yW2NIXVtjSF1jKG4yKUMoRikoRilG

> <s_epik_cmdline>
J2VwaWtfcHl0aG9uJywgJy1waCcsICc3LjAnLCAnLXRuJywgJzgnLCAnLW1hJywgJzIwMCcsICctbWV0YWxfYmluZGluZycsICctaW1hZScsICc8aW5maWxlLm1hZT4nLCAnLW9tYWUnLCAnPG91dGZpbGUubWFlPic=

> <r_lp_tautomer_probability>
1

> <r_epik_Ionization_Penalty>
8.05939e-08

> <r_epik_Ionization_Penalty_Charging>
0

> <r_epik_Ionization_Penalty_Neutral>
8.05939e-08

> <r_epik_State_Penalty>
-0

> <r_epik_Charging_Adjusted_Penalty>
0

> <i_epik_Tot_Q>
0

> <i_epik_Tot_abs_Q>
0

> <r_epik_Metal_State_Penalty>
-0

> <b_epik_Metal_Only>
0

> <s_lp_Force_Field>
OPLS_2005

> <r_lp_Energy>
20.3297

> <b_lp_Chiralities_Consistent>
1

> <s_lp_Variant>
AV-unprocessed.smi:1168-1

> <Gold.Version>
5.8.1

> <Gold.Id.Protein>
6NUR|6NUR_protein|mol2

> <Gold.PLP.Fitness>
44.9171

> <Gold.PLP.PLP>
-44.6261

> <Gold.PLP.part.hbond>
-1.0000

> <Gold.PLP.part.metal>
0.0000

> <Gold.PLP.part.buried>
-3.1755

> <Gold.PLP.part.nonpolar>
-39.6779

> <Gold.PLP.part.repulsive>
0.0517

> <Gold.PLP.ligand.clash>
0.0000

> <Gold.PLP.ligand.torsion>
1.3607

> <Gold.PLP.Chemscore.Hbond>
1.0000

> <Gold.PLP.Chemscore.CHOScore>
0.0000

> <Gold.PLP.Chemscore.Metal>
0.0000

> <Gold.Chemscore.Hbonds>
donor molecule, donor type, donor heavy atom, donor atom, acceptor molecule, acceptor atom, score
      P1  H  7997  8010       L1     1  0.68

> <Gold.PLP.Chemscore.Internal.Correction>
0.0125

> <Gold.Rescore>
     Score         DG    S(hbond)    S(metal)    S(lipo)     H(rot)  DE(clash)    DE(int)     intcor
     12.78     -14.02       1.00        0.00      78.87       1.57       0.00       1.24       ----

> <Gold.Chemscore.Fitness>
12.7773

> <Gold.Chemscore.DG>
-14.0162

> <Gold.Chemscore.ZeroCoef>
-5.4800

> <Gold.Chemscore.Hbond>
1.0000

> <Gold.Chemscore.Metal>
0.0000

> <Gold.Chemscore.Lipo>
78.8692

> <Gold.Chemscore.Internal_Hbond>
0.0000

> <Gold.Chemscore.DEClash>
0.0024

> <Gold.Chemscore.DEInternal>
1.2365

> <Gold.Chemscore.Rot>
1.5748

> <Gold.Chemscore.Internal.Correction>
   9.000000E+99

> <Gold.Chemscore.Hbonds>
donor molecule, donor type, donor heavy atom, donor atom, acceptor molecule, acceptor atom, score
      P1  H  7997  8010       L1     1  0.67

> <Gold.Chemscore.Hbond.Weighted>
-3.3400

> <Gold.Chemscore.Metal.Weighted>
-0.0000

> <Gold.Chemscore.Lipo.Weighted>
-9.2277

> <Gold.Chemscore.Internal_Hbond.Weighted>
0.0000

> <Gold.Chemscore.DEClash.Weighted>
0.0024

> <Gold.Chemscore.DEInternal.Weighted>
1.2365

> <Gold.Chemscore.Rot.Weighted>
4.0315

> <Gold.Chemscore.Internal.Correction.Weighted>
   9.000000E+99

> <Gold.Protein.RotatedTorsions>
[ 6907 6896 6895 6894 ] final    4.44 input  -60.11 | X-H torsion
[ 7974 7965 7964 7962 ] final -103.53 input  175.53 | X-H torsion
[ 8008 7997 7996 7995 ] final   80.95 input   59.86 | X-H torsion
[ 10167 10162 10161 10158 ] final   14.66 input  -65.29 | X-H torsion
[ 10718 10713 10712 10709 ] final  -93.50 input   66.30 | X-H torsion
[ 10763 10752 10751 10750 ] final   35.92 input  -60.55 | X-H torsion
[ 11005 11000 10999 10996 ] final    3.27 input  -57.11 | X-H torsion

> <Gold.Protein.ActiveResidues>
 VAL166  LYS551  ARG553  GLY616  TRP617  ASP618  TYR619  PRO620  LYS621  CYS622 
 ASP623  PHE694  ASN695  SER759  ASP760  ASP761  ALA762  ILE779  LEU786  VAL792 
 PHE793  MET794  SER795  GLU796  ALA797  LYS798  CYS799  TRP800  GLU811  SER814 

> <Gold.Protein.RotatedAtoms>
  151.6414  135.1012  160.0141 H   0  0  0  0  0  0  0  0  0  0  0  0  # atno 6907 bound_to 6896
  152.4052  133.6874  159.6358 H   0  0  0  0  0  0  0  0  0  0  0  0  # atno 6908 bound_to 6896
  150.7947  133.8639  159.3280 H   0  0  0  0  0  0  0  0  0  0  0  0  # atno 6909 bound_to 6896
  145.2547  140.9249  143.3075 H   0  0  0  0  0  0  0  0  0  0  0  0  # atno 7974 bound_to 7965
  155.8905  140.3439  155.5953 H   0  0  0  0  0  0  0  0  0  0  0  0  # atno 8008 bound_to 7997
  155.7616  140.0833  157.2171 H   0  0  0  0  0  0  0  0  0  0  0  0  # atno 8009 bound_to 7997
  154.4033  140.1535  156.2827 H   0  0  0  0  0  0  0  0  0  0  0  0  # atno 8010 bound_to 7997
  140.5921  143.8775  150.6883 H   0  0  0  0  0  0  0  0  0  0  0  0  # atno 10167 bound_to 10162
  156.0014  130.5029  150.5786 H   0  0  0  0  0  0  0  0  0  0  0  0  # atno 10718 bound_to 10713
  153.0099  135.6320  154.1903 H   0  0  0  0  0  0  0  0  0  0  0  0  # atno 10763 bound_to 10752
  154.1645  135.2821  155.3101 H   0  0  0  0  0  0  0  0  0  0  0  0  # atno 10764 bound_to 10752
  154.5956  135.5604  153.7382 H   0  0  0  0  0  0  0  0  0  0  0  0  # atno 10765 bound_to 10752
  140.5950  133.9889  155.8106 H   0  0  0  0  0  0  0  0  0  0  0  0  # atno 11005 bound_to 11000
  144.9472  139.4123  143.6420 LP  0  0  0  0  0  0  0  0  0  0  0  0  # atno 17320 bound_to 7965
  146.3292  139.8461  142.8881 LP  0  0  0  0  0  0  0  0  0  0  0  0  # atno 17321 bound_to 7965
  140.2301  143.3742  152.1573 LP  0  0  0  0  0  0  0  0  0  0  0  0  # atno 17342 bound_to 10162
  139.5234  144.7071  151.5321 LP  0  0  0  0  0  0  0  0  0  0  0  0  # atno 17343 bound_to 10162
  157.3669  131.0759  151.1590 LP  0  0  0  0  0  0  0  0  0  0  0  0  # atno 17370 bound_to 10713
  157.2356  130.6545  149.5868 LP  0  0  0  0  0  0  0  0  0  0  0  0  # atno 17371 bound_to 10713
  141.0910  133.9916  157.3237 LP  0  0  0  0  0  0  0  0  0  0  0  0  # atno 17394 bound_to 11000
  139.9257  135.0201  156.8227 LP  0  0  0  0  0  0  0  0  0  0  0  0  # atno 17395 bound_to 11000

$$$$
