AV-unprocessed.smi:273|AV-procd|sdf|2057|dock2
  -GOLD-   2262021303D 1   1.00000     0.00000
 Structure written by MMmdl.
 59 62  0  0  0  0  0  0  0  0  1 V2000
  151.0378  142.3107  157.4634 C   0  0  0  0  0  0  0  0  0  0  0  0
  150.5665  140.9458  157.9820 C   0  0  0  0  0  0  0  0  0  0  0  0
  151.1686  139.8524  157.2283 N   0  0  0  0  0  0  0  0  0  0  0  0
  151.1765  139.7473  155.8902 C   0  0  0  0  0  0  0  0  0  0  0  0
  150.6471  140.5789  155.1531 O   0  0  0  0  0  0  0  0  0  0  0  0
  151.8979  138.5170  155.3084 C   0  0  0  0  0  0  0  0  0  0  0  0
  151.0755  137.8119  154.2062 C   0  0  0  0  0  0  0  0  0  0  0  0
  149.9173  136.9638  154.7642 C   0  0  0  0  0  0  0  0  0  0  0  0
  150.3944  136.0317  155.7850 N   0  0  0  0  0  0  0  0  0  0  0  0
  149.5322  135.0240  156.0772 C   0  0  0  0  0  0  0  0  0  0  0  0
  149.1124  134.8400  157.3582 N   0  0  0  0  0  0  0  0  0  0  0  0
  148.2580  133.8570  157.6562 C   0  0  0  0  0  0  0  0  0  0  0  0
  147.7075  132.9549  156.8421 N   0  0  0  0  0  0  0  0  0  0  0  0
  148.1269  133.1298  155.5567 C   0  0  0  0  0  0  0  0  0  0  0  0
  149.0306  134.1270  155.0914 C   0  0  0  0  0  0  0  0  0  0  0  0
  149.2325  133.9777  153.7237 N   0  0  0  0  0  0  0  0  0  0  0  0
  148.4835  132.9597  153.3982 C   0  0  0  0  0  0  0  0  0  0  0  0
  147.7775  132.3963  154.4368 N   0  0  0  0  0  0  0  0  0  0  0  0
  146.8780  131.2571  154.3634 C   0  0  0  0  0  0  0  0  0  0  0  0
  146.3481  130.9722  152.9339 C   0  0  1  0  0  0  0  0  0  0  0  0
  145.8853  129.4992  152.7902 C   0  0  0  0  0  0  0  0  0  0  0  0
  145.3241  129.0041  153.9876 O   0  0  0  0  0  0  0  0  0  0  0  0
  145.2255  131.9808  152.5631 C   0  0  1  0  0  0  0  0  0  0  0  0
  145.7128  133.3661  152.1705 C   0  0  0  0  0  0  0  0  0  0  0  0
  144.5003  133.9522  151.4560 C   0  0  0  0  0  0  0  0  0  0  0  0
  143.8476  132.8489  150.8400 O   0  0  0  0  0  0  0  0  0  0  0  0
  144.4019  131.6278  151.3187 C   0  0  0  0  0  0  0  0  0  0  0  0
  151.1186  136.6470  156.8987 C   0  0  0  0  0  0  0  0  0  0  0  0
  152.3025  137.4916  156.3912 C   0  0  0  0  0  0  0  0  0  0  0  0
  150.6058  143.1195  158.0530 H   0  0  0  0  0  0  0  0  0  0  0  0
  150.7430  142.4650  156.4251 H   0  0  0  0  0  0  0  0  0  0  0  0
  152.1228  142.4005  157.5212 H   0  0  0  0  0  0  0  0  0  0  0  0
  150.8485  140.8335  159.0290 H   0  0  0  0  0  0  0  0  0  0  0  0
  149.4779  140.8800  157.9453 H   0  0  0  0  0  0  0  0  0  0  0  0
  151.6241  139.1267  157.7626 H   0  0  0  0  0  0  0  0  0  0  0  0
  152.8176  138.8790  154.8457 H   0  0  0  0  0  0  0  0  0  0  0  0
  150.6860  138.5426  153.4960 H   0  0  0  0  0  0  0  0  0  0  0  0
  151.7395  137.1640  153.6328 H   0  0  0  0  0  0  0  0  0  0  0  0
  149.1511  137.6034  155.2025 H   0  0  0  0  0  0  0  0  0  0  0  0
  149.4370  136.4385  153.9396 H   0  0  0  0  0  0  0  0  0  0  0  0
  147.9738  133.7842  158.6956 H   0  0  0  0  0  0  0  0  0  0  0  0
  148.4225  132.5930  152.3839 H   0  0  0  0  0  0  0  0  0  0  0  0
  147.3969  130.3795  154.7511 H   0  0  0  0  0  0  0  0  0  0  0  0
  146.0554  131.4589  155.0491 H   0  0  0  0  0  0  0  0  0  0  0  0
  147.1814  131.1274  152.2468 H   0  0  0  0  0  0  0  0  0  0  0  0
  145.1112  129.3935  152.0315 H   0  0  0  0  0  0  0  0  0  0  0  0
  146.7143  128.8609  152.4832 H   0  0  0  0  0  0  0  0  0  0  0  0
  144.5477  129.5050  154.1863 H   0  0  0  0  0  0  0  0  0  0  0  0
  144.5440  132.0866  153.4090 H   0  0  0  0  0  0  0  0  0  0  0  0
  146.0204  133.9750  153.0207 H   0  0  0  0  0  0  0  0  0  0  0  0
  146.5545  133.2919  151.4801 H   0  0  0  0  0  0  0  0  0  0  0  0
  143.8152  134.4018  152.1757 H   0  0  0  0  0  0  0  0  0  0  0  0
  144.7740  134.7143  150.7258 H   0  0  0  0  0  0  0  0  0  0  0  0
  145.0404  131.2160  150.5360 H   0  0  0  0  0  0  0  0  0  0  0  0
  143.6144  130.9042  151.5294 H   0  0  0  0  0  0  0  0  0  0  0  0
  150.4331  137.2612  157.4828 H   0  0  0  0  0  0  0  0  0  0  0  0
  151.4964  135.8723  157.5675 H   0  0  0  0  0  0  0  0  0  0  0  0
  153.0567  136.8226  155.9752 H   0  0  0  0  0  0  0  0  0  0  0  0
  152.7823  137.9940  157.2320 H   0  0  0  0  0  0  0  0  0  0  0  0
  1  2  1  0  0  0  0
  1 30  1  0  0  0  0
  1 31  1  0  0  0  0
  1 32  1  0  0  0  0
  2  3  1  0  0  0  0
  2 33  1  0  0  0  0
  2 34  1  0  0  0  0
  3  4  1  0  0  0  0
  3 35  1  0  0  0  0
  4  5  2  0  0  0  0
  4  6  1  0  0  0  0
  6 29  1  0  0  0  0
  6  7  1  0  0  0  0
  6 36  1  0  0  0  0
  7  8  1  0  0  0  0
  7 37  1  0  0  0  0
  7 38  1  0  0  0  0
  8  9  1  0  0  0  0
  8 39  1  0  0  0  0
  8 40  1  0  0  0  0
  9 10  1  0  0  0  0
  9 28  1  0  0  0  0
 10 15  1  0  0  0  0
 10 11  2  0  0  0  0
 11 12  1  0  0  0  0
 12 13  2  0  0  0  0
 12 41  1  0  0  0  0
 13 14  1  0  0  0  0
 14 18  1  0  0  0  0
 14 15  2  0  0  0  0
 15 16  1  0  0  0  0
 16 17  2  0  0  0  0
 17 18  1  0  0  0  0
 17 42  1  0  0  0  0
 18 19  1  0  0  0  0
 19 20  1  0  0  0  0
 19 43  1  0  0  0  0
 19 44  1  0  0  0  0
 20 21  1  0  0  0  0
 20 23  1  0  0  0  0
 20 45  1  0  0  0  0
 21 22  1  0  0  0  0
 21 46  1  0  0  0  0
 21 47  1  0  0  0  0
 22 48  1  0  0  0  0
 23 27  1  0  0  0  0
 23 24  1  0  0  0  0
 23 49  1  0  0  0  0
 24 25  1  0  0  0  0
 24 50  1  0  0  0  0
 24 51  1  0  0  0  0
 25 26  1  0  0  0  0
 25 52  1  0  0  0  0
 25 53  1  0  0  0  0
 26 27  1  0  0  0  0
 27 54  1  0  0  0  0
 27 55  1  0  0  0  0
 28 29  1  0  0  0  0
 28 56  1  0  0  0  0
 28 57  1  0  0  0  0
 29 58  1  0  0  0  0
 29 59  1  0  0  0  0
M  END
> <s_m_source_file>
AV-unprocessed.smi

> <i_m_source_file_index>
273

> <i_lp_mmshare_version>
43012

> <i_f3d_flags>
0

> <s_epik_input>
W0NIM11bQ0gyXVtOSF1DKD1PKVtDSF0xW0NIMl1bQ0gyXU4oW0NIMl1bQ0gyXTEpYyhuW2NIXW4yKWMoYzIzKW5bY0hdbjNbQ0gyXVtDQEhdKFtDSDJdW09IXSlbQ0BASF00W0NIMl1bQ0gyXU9bQ0gyXTQ=

> <s_epik_cmdline>
J2VwaWtfcHl0aG9uJywgJy1waCcsICc3LjAnLCAnLXRuJywgJzgnLCAnLW1hJywgJzIwMCcsICctbWV0YWxfYmluZGluZycsICctaW1hZScsICc8aW5maWxlLm1hZT4nLCAnLW9tYWUnLCAnPG91dGZpbGUubWFlPic=

> <r_lp_tautomer_probability>
1

> <r_epik_Ionization_Penalty>
0.00226556

> <r_epik_Ionization_Penalty_Charging>
0

> <r_epik_Ionization_Penalty_Neutral>
0.00226556

> <r_epik_State_Penalty>
0.00139883

> <r_epik_Charging_Adjusted_Penalty>
0.00139883

> <i_epik_Tot_Q>
0

> <i_epik_Tot_abs_Q>
0

> <r_epik_Metal_State_Penalty>
-0

> <b_epik_Metal_Only>
0

> <s_lp_Force_Field>
OPLS_2005

> <r_lp_Energy>
41.2023

> <b_lp_Chiralities_Consistent>
1

> <s_lp_Variant>
AV-unprocessed.smi:273-4

> <Gold.Version>
5.8.1

> <Gold.Id.Protein>
6NUR|6NUR_protein|mol2

> <Gold.PLP.Fitness>
45.5826

> <Gold.PLP.PLP>
-39.1557

> <Gold.PLP.part.hbond>
-2.0000

> <Gold.PLP.part.metal>
0.0000

> <Gold.PLP.part.buried>
-3.6246

> <Gold.PLP.part.nonpolar>
-34.4956

> <Gold.PLP.part.repulsive>
0.9495

> <Gold.PLP.ligand.clash>
0.0181

> <Gold.PLP.ligand.torsion>
1.6154

> <Gold.PLP.Chemscore.Hbond>
2.0000

> <Gold.PLP.Chemscore.CHOScore>
0.9999

> <Gold.PLP.Chemscore.Metal>
0.0000

> <Gold.Chemscore.Hbonds>
donor molecule, donor type, donor heavy atom, donor atom, acceptor molecule, acceptor atom, score
      L1  H    22    48       P1 10956  0.65
      P1  H  7989  7998       L1     5  0.96
      L1  C    17    42       P1 10747  0.40

> <Gold.PLP.Chemscore.Internal.Correction>
0.6761

> <Gold.Rescore>
     Score         DG    S(hbond)    S(metal)    S(lipo)     H(rot)  DE(clash)    DE(int)     intcor
     11.47     -14.32       1.98        0.00      89.57       3.22       0.01       2.84       ----

> <Gold.Chemscore.Fitness>
11.4663

> <Gold.Chemscore.DG>
-14.3207

> <Gold.Chemscore.ZeroCoef>
-5.4800

> <Gold.Chemscore.Hbond>
1.9806

> <Gold.Chemscore.Metal>
0.0000

> <Gold.Chemscore.Lipo>
89.5724

> <Gold.Chemscore.Internal_Hbond>
0.0000

> <Gold.Chemscore.DEClash>
0.0149

> <Gold.Chemscore.DEInternal>
2.8395

> <Gold.Chemscore.Rot>
3.2244

> <Gold.Chemscore.Internal.Correction>
   9.000000E+99

> <Gold.Chemscore.Hbonds>
donor molecule, donor type, donor heavy atom, donor atom, acceptor molecule, acceptor atom, score
      L1  H    22    48       P1 10956  0.51
      P1  H  7989  7998       L1     5  0.81

> <Gold.Chemscore.Hbond.Weighted>
-6.6152

> <Gold.Chemscore.Metal.Weighted>
-0.0000

> <Gold.Chemscore.Lipo.Weighted>
-10.4800

> <Gold.Chemscore.Internal_Hbond.Weighted>
0.0000

> <Gold.Chemscore.DEClash.Weighted>
0.0149

> <Gold.Chemscore.DEInternal.Weighted>
2.8395

> <Gold.Chemscore.Rot.Weighted>
8.2545

> <Gold.Chemscore.Internal.Correction.Weighted>
   9.000000E+99

> <Gold.Protein.RotatedTorsions>
[ 6907 6896 6895 6894 ] final  152.19 input  -60.11 | X-H torsion
[ 7974 7965 7964 7962 ] final  -32.86 input  175.53 | X-H torsion
[ 8008 7997 7996 7995 ] final   39.12 input   59.86 | X-H torsion
[ 10167 10162 10161 10158 ] final   26.54 input  -65.29 | X-H torsion
[ 10718 10713 10712 10709 ] final  107.84 input   66.30 | X-H torsion
[ 10763 10752 10751 10750 ] final  148.34 input  -60.55 | X-H torsion
[ 11005 11000 10999 10996 ] final -136.20 input  -57.11 | X-H torsion

> <Gold.Protein.ActiveResidues>
 VAL166  LYS551  ARG553  GLY616  TRP617  ASP618  TYR619  PRO620  LYS621  CYS622 
 ASP623  PHE694  ASN695  SER759  ASP760  ASP761  ALA762  ILE779  LEU786  VAL792 
 PHE793  MET794  SER795  GLU796  ALA797  LYS798  CYS799  TRP800  GLU811  SER814 

> <Gold.Protein.RotatedAtoms>
  152.0902  133.4196  159.4539 H   0  0  0  0  0  0  0  0  0  0  0  0  # atno 6907 bound_to 6896
  150.6862  134.2881  159.4664 H   0  0  0  0  0  0  0  0  0  0  0  0  # atno 6908 bound_to 6896
  152.0731  134.9520  160.0625 H   0  0  0  0  0  0  0  0  0  0  0  0  # atno 6909 bound_to 6896
  146.0957  140.5844  142.8844 H   0  0  0  0  0  0  0  0  0  0  0  0  # atno 7974 bound_to 7965
  155.2314  140.3338  155.4303 H   0  0  0  0  0  0  0  0  0  0  0  0  # atno 8008 bound_to 7997
  156.2293  140.1843  156.7328 H   0  0  0  0  0  0  0  0  0  0  0  0  # atno 8009 bound_to 7997
  154.5951  140.0632  156.9278 H   0  0  0  0  0  0  0  0  0  0  0  0  # atno 8010 bound_to 7997
  140.5014  144.0308  150.6334 H   0  0  0  0  0  0  0  0  0  0  0  0  # atno 10167 bound_to 10162
  157.6611  131.0881  150.6216 H   0  0  0  0  0  0  0  0  0  0  0  0  # atno 10718 bound_to 10713
  154.0532  135.2880  155.3337 H   0  0  0  0  0  0  0  0  0  0  0  0  # atno 10763 bound_to 10752
  154.6856  135.5246  153.8325 H   0  0  0  0  0  0  0  0  0  0  0  0  # atno 10764 bound_to 10752
  153.0552  135.6592  154.0727 H   0  0  0  0  0  0  0  0  0  0  0  0  # atno 10765 bound_to 10752
  140.8827  134.1911  157.4580 H   0  0  0  0  0  0  0  0  0  0  0  0  # atno 11005 bound_to 11000
  144.7393  140.4898  143.6881 LP  0  0  0  0  0  0  0  0  0  0  0  0  # atno 17320 bound_to 7965
  145.5953  139.1499  143.3159 LP  0  0  0  0  0  0  0  0  0  0  0  0  # atno 17321 bound_to 7965
  140.3606  143.2910  152.0388 LP  0  0  0  0  0  0  0  0  0  0  0  0  # atno 17342 bound_to 10162
  139.4873  144.6306  151.7077 LP  0  0  0  0  0  0  0  0  0  0  0  0  # atno 17343 bound_to 10162
  156.6519  130.4487  149.5716 LP  0  0  0  0  0  0  0  0  0  0  0  0  # atno 17370 bound_to 10713
  156.2131  130.6691  151.1290 LP  0  0  0  0  0  0  0  0  0  0  0  0  # atno 17371 bound_to 10713
  139.8721  134.9824  156.5156 LP  0  0  0  0  0  0  0  0  0  0  0  0  # atno 17394 bound_to 11000
  140.8441  133.8182  155.9104 LP  0  0  0  0  0  0  0  0  0  0  0  0  # atno 17395 bound_to 11000

$$$$
