AV-unprocessed.smi:2902|AV-procd|sdf|11153|dock1
  -GOLD-   2272016 33D 1   1.00000     0.00000
 Structure written by MMmdl.
 47 48  0  0  0  0  0  0  0  0  1 V2000
  151.5012  137.1175  155.9821 C   0  0  0  0  0  0  0  0  0  0  0  0
  152.3541  138.3435  156.3309 C   0  0  0  0  0  0  0  0  0  0  0  0
  151.9258  139.0101  157.6515 C   0  0  2  0  0  0  0  0  0  0  0  0
  152.7231  140.1806  157.8331 O   0  0  0  0  0  0  0  0  0  0  0  0
  152.4285  140.9909  158.9690 C   0  0  0  0  0  0  0  0  0  0  0  0
  152.2988  142.4811  158.6386 C   0  0  0  0  0  0  0  0  0  0  0  0
  152.6469  143.2143  159.9402 C   0  0  0  0  0  0  0  0  0  0  0  0
  153.4141  142.2087  160.8128 C   0  0  0  0  0  0  0  0  0  0  0  0
  153.5942  140.9533  159.9550 C   0  0  0  0  0  0  0  0  0  0  0  0
  152.1071  138.0512  158.8379 C   0  0  0  0  0  0  0  0  0  0  0  0
  151.1370  137.7131  159.5163 O   0  0  0  0  0  0  0  0  0  0  0  0
  153.3601  137.6279  159.0700 N   0  0  0  0  0  0  0  0  0  0  0  0
  153.7847  136.7452  160.1571 C   0  0  1  0  0  0  0  0  0  0  0  0
  155.2927  136.4931  159.9935 C   0  0  0  0  0  0  0  0  0  0  0  0
  153.4136  137.3646  161.5332 C   0  0  2  0  0  0  0  0  0  0  0  0
  154.1927  138.6566  161.8477 C   0  0  0  0  0  0  0  0  0  0  0  0
  153.5866  136.4001  162.6145 N   0  0  0  0  0  0  0  0  0  0  0  0
  153.2392  136.4771  163.9009 C   0  0  0  0  0  0  0  0  0  0  0  0
  153.5054  135.3807  164.5966 N   0  0  0  0  0  0  0  0  0  0  0  0
  154.0512  134.6111  163.6087 C   0  0  0  0  0  0  0  0  0  0  0  0
  154.1211  135.1725  162.4020 N   0  0  0  0  0  0  0  0  0  0  0  0
  151.8362  136.6652  155.0485 H   0  0  0  0  0  0  0  0  0  0  0  0
  150.4516  137.3871  155.8624 H   0  0  0  0  0  0  0  0  0  0  0  0
  151.5658  136.3581  156.7614 H   0  0  0  0  0  0  0  0  0  0  0  0
  153.3984  138.0330  156.3959 H   0  0  0  0  0  0  0  0  0  0  0  0
  152.2997  139.0641  155.5136 H   0  0  0  0  0  0  0  0  0  0  0  0
  150.8729  139.2842  157.5686 H   0  0  0  0  0  0  0  0  0  0  0  0
  151.5321  140.6472  159.4871 H   0  0  0  0  0  0  0  0  0  0  0  0
  153.0229  142.7493  157.8679 H   0  0  0  0  0  0  0  0  0  0  0  0
  151.3079  142.7435  158.2670 H   0  0  0  0  0  0  0  0  0  0  0  0
  153.2390  144.1076  159.7386 H   0  0  0  0  0  0  0  0  0  0  0  0
  151.7389  143.5340  160.4533 H   0  0  0  0  0  0  0  0  0  0  0  0
  154.3714  142.6047  161.1531 H   0  0  0  0  0  0  0  0  0  0  0  0
  152.8256  141.9698  161.6995 H   0  0  0  0  0  0  0  0  0  0  0  0
  153.6151  140.0378  160.5467 H   0  0  0  0  0  0  0  0  0  0  0  0
  154.5383  141.0180  159.4116 H   0  0  0  0  0  0  0  0  0  0  0  0
  154.0849  137.9574  158.4492 H   0  0  0  0  0  0  0  0  0  0  0  0
  153.2853  135.7792  160.0634 H   0  0  0  0  0  0  0  0  0  0  0  0
  155.6550  135.7442  160.6973 H   0  0  0  0  0  0  0  0  0  0  0  0
  155.8685  137.4062  160.1483 H   0  0  0  0  0  0  0  0  0  0  0  0
  155.5196  136.1236  158.9927 H   0  0  0  0  0  0  0  0  0  0  0  0
  152.3539  137.6243  161.5122 H   0  0  0  0  0  0  0  0  0  0  0  0
  153.9372  139.4588  161.1559 H   0  0  0  0  0  0  0  0  0  0  0  0
  155.2703  138.4989  161.7920 H   0  0  0  0  0  0  0  0  0  0  0  0
  153.9616  139.0170  162.8506 H   0  0  0  0  0  0  0  0  0  0  0  0
  152.7703  137.3479  164.3347 H   0  0  0  0  0  0  0  0  0  0  0  0
  154.4056  133.6058  163.7835 H   0  0  0  0  0  0  0  0  0  0  0  0
  1  2  1  0  0  0  0
  1 22  1  0  0  0  0
  1 23  1  0  0  0  0
  1 24  1  0  0  0  0
  2  3  1  0  0  0  0
  2 25  1  0  0  0  0
  2 26  1  0  0  0  0
  3  4  1  0  0  0  0
  3 10  1  0  0  0  0
  3 27  1  0  0  0  0
  4  5  1  0  0  0  0
  5  9  1  0  0  0  0
  5  6  1  0  0  0  0
  5 28  1  0  0  0  0
  6  7  1  0  0  0  0
  6 29  1  0  0  0  0
  6 30  1  0  0  0  0
  7  8  1  0  0  0  0
  7 31  1  0  0  0  0
  7 32  1  0  0  0  0
  8  9  1  0  0  0  0
  8 33  1  0  0  0  0
  8 34  1  0  0  0  0
  9 35  1  0  0  0  0
  9 36  1  0  0  0  0
 10 11  2  0  0  0  0
 10 12  1  0  0  0  0
 12 13  1  0  0  0  0
 12 37  1  0  0  0  0
 13 14  1  0  0  0  0
 13 15  1  0  0  0  0
 13 38  1  0  0  0  0
 14 39  1  0  0  0  0
 14 40  1  0  0  0  0
 14 41  1  0  0  0  0
 15 16  1  0  0  0  0
 15 17  1  0  0  0  0
 15 42  1  0  0  0  0
 16 43  1  0  0  0  0
 16 44  1  0  0  0  0
 16 45  1  0  0  0  0
 17 21  1  0  0  0  0
 17 18  1  0  0  0  0
 18 19  2  0  0  0  0
 18 46  1  0  0  0  0
 19 20  1  0  0  0  0
 20 21  2  0  0  0  0
 20 47  1  0  0  0  0
M  END
> <s_m_source_file>
AV-unprocessed.smi

> <i_m_source_file_index>
2902

> <i_lp_mmshare_version>
43012

> <i_f3d_flags>
0

> <s_epik_input>
W0NIMl0xW0NIMl1bQ0gyXVtDSDJdW0NIXTFPW0NAQEhdKFtDSDJdW0NIM10pQyg9TylbTkhdW0NASF0oW0NIM10pW0NASF0oW0NIM10pbjJbY0hdbltjSF1uMg==

> <s_epik_cmdline>
J2VwaWtfcHl0aG9uJywgJy1waCcsICc3LjAnLCAnLXRuJywgJzgnLCAnLW1hJywgJzIwMCcsICctbWV0YWxfYmluZGluZycsICctaW1hZScsICc8aW5maWxlLm1hZT4nLCAnLW9tYWUnLCAnPG91dGZpbGUubWFlPic=

> <r_lp_tautomer_probability>
1

> <r_epik_Ionization_Penalty>
6.95617e-05

> <r_epik_Ionization_Penalty_Charging>
0

> <r_epik_Ionization_Penalty_Neutral>
6.95617e-05

> <r_epik_State_Penalty>
-0

> <r_epik_Charging_Adjusted_Penalty>
0

> <i_epik_Tot_Q>
0

> <i_epik_Tot_abs_Q>
0

> <r_epik_Metal_State_Penalty>
-0

> <b_epik_Metal_Only>
0

> <s_lp_Force_Field>
OPLS_2005

> <r_lp_Energy>
29.2018

> <b_lp_Chiralities_Consistent>
1

> <s_lp_Variant>
AV-unprocessed.smi:2902-3

> <Gold.Version>
5.8.1

> <Gold.Id.Protein>
6NUR|6NUR_protein|mol2

> <Gold.PLP.Fitness>
38.0290

> <Gold.PLP.PLP>
-36.5561

> <Gold.PLP.part.hbond>
-1.0000

> <Gold.PLP.part.metal>
0.0000

> <Gold.PLP.part.buried>
-5.1433

> <Gold.PLP.part.nonpolar>
-31.1930

> <Gold.PLP.part.repulsive>
0.2567

> <Gold.PLP.ligand.clash>
0.0000

> <Gold.PLP.ligand.torsion>
0.8502

> <Gold.PLP.Chemscore.Hbond>
0.9920

> <Gold.PLP.Chemscore.CHOScore>
0.0000

> <Gold.PLP.Chemscore.Metal>
0.0000

> <Gold.Chemscore.Hbonds>
donor molecule, donor type, donor heavy atom, donor atom, acceptor molecule, acceptor atom, score
      P1  H  7997  8009       L1     4  1.00

> <Gold.PLP.Chemscore.Internal.Correction>
0.1973

> <Gold.Rescore>
     Score         DG    S(hbond)    S(metal)    S(lipo)     H(rot)  DE(clash)    DE(int)     intcor
     10.56     -13.49       1.72        0.00      78.42       2.69       0.17       2.77       ----

> <Gold.Chemscore.Fitness>
10.5578

> <Gold.Chemscore.DG>
-13.4917

> <Gold.Chemscore.ZeroCoef>
-5.4800

> <Gold.Chemscore.Hbond>
1.7161

> <Gold.Chemscore.Metal>
0.0000

> <Gold.Chemscore.Lipo>
78.4198

> <Gold.Chemscore.Internal_Hbond>
0.0000

> <Gold.Chemscore.DEClash>
0.1682

> <Gold.Chemscore.DEInternal>
2.7656

> <Gold.Chemscore.Rot>
2.6935

> <Gold.Chemscore.Internal.Correction>
   9.000000E+99

> <Gold.Chemscore.Hbonds>
donor molecule, donor type, donor heavy atom, donor atom, acceptor molecule, acceptor atom, score
      P1  H  7997  8009       L1     4  0.74

> <Gold.Chemscore.Hbond.Weighted>
-5.7319

> <Gold.Chemscore.Metal.Weighted>
-0.0000

> <Gold.Chemscore.Lipo.Weighted>
-9.1751

> <Gold.Chemscore.Internal_Hbond.Weighted>
0.0000

> <Gold.Chemscore.DEClash.Weighted>
0.1682

> <Gold.Chemscore.DEInternal.Weighted>
2.7656

> <Gold.Chemscore.Rot.Weighted>
6.8954

> <Gold.Chemscore.Internal.Correction.Weighted>
   9.000000E+99

> <Gold.Protein.RotatedTorsions>
[ 6907 6896 6895 6894 ] final  -24.34 input  -60.11 | X-H torsion
[ 7974 7965 7964 7962 ] final    3.58 input  175.53 | X-H torsion
[ 8008 7997 7996 7995 ] final  170.29 input   59.86 | X-H torsion
[ 10167 10162 10161 10158 ] final   28.34 input  -65.29 | X-H torsion
[ 10718 10713 10712 10709 ] final  -84.42 input   66.30 | X-H torsion
[ 10763 10752 10751 10750 ] final -115.68 input  -60.55 | X-H torsion
[ 11005 11000 10999 10996 ] final -173.79 input  -57.11 | X-H torsion

> <Gold.Protein.ActiveResidues>
 VAL166  LYS551  ARG553  GLY616  TRP617  ASP618  TYR619  PRO620  LYS621  CYS622 
 ASP623  PHE694  ASN695  SER759  ASP760  ASP761  ALA762  ILE779  LEU786  VAL792 
 PHE793  MET794  SER795  GLU796  ALA797  LYS798  CYS799  TRP800  GLU811  SER814 

> <Gold.Protein.RotatedAtoms>
  151.1909  135.0402  159.8831 H   0  0  0  0  0  0  0  0  0  0  0  0  # atno 6907 bound_to 6896
  152.5439  134.0957  159.8306 H   0  0  0  0  0  0  0  0  0  0  0  0  # atno 6908 bound_to 6896
  151.1085  133.5143  159.2639 H   0  0  0  0  0  0  0  0  0  0  0  0  # atno 6909 bound_to 6896
  146.2445  140.0664  142.8365 H   0  0  0  0  0  0  0  0  0  0  0  0  # atno 7974 bound_to 7965
  156.1379  140.1542  156.8966 H   0  0  0  0  0  0  0  0  0  0  0  0  # atno 8008 bound_to 7997
  154.4962  140.0837  156.7741 H   0  0  0  0  0  0  0  0  0  0  0  0  # atno 8009 bound_to 7997
  155.4134  140.3420  155.4267 H   0  0  0  0  0  0  0  0  0  0  0  0  # atno 8010 bound_to 7997
  140.4861  144.0540  150.6281 H   0  0  0  0  0  0  0  0  0  0  0  0  # atno 10167 bound_to 10162
  156.0006  130.4697  150.4407 H   0  0  0  0  0  0  0  0  0  0  0  0  # atno 10718 bound_to 10713
  154.8490  135.4373  154.1702 H   0  0  0  0  0  0  0  0  0  0  0  0  # atno 10763 bound_to 10752
  153.2817  135.6954  153.7385 H   0  0  0  0  0  0  0  0  0  0  0  0  # atno 10764 bound_to 10752
  153.6586  135.3439  155.3095 H   0  0  0  0  0  0  0  0  0  0  0  0  # atno 10765 bound_to 10752
  140.4818  134.6068  157.4922 H   0  0  0  0  0  0  0  0  0  0  0  0  # atno 11005 bound_to 11000
  145.0855  140.9249  143.4800 LP  0  0  0  0  0  0  0  0  0  0  0  0  # atno 17320 bound_to 7965
  145.0826  139.2949  143.5776 LP  0  0  0  0  0  0  0  0  0  0  0  0  # atno 17321 bound_to 7965
  140.3796  143.2810  152.0185 LP  0  0  0  0  0  0  0  0  0  0  0  0  # atno 17342 bound_to 10162
  139.4842  144.6165  151.7336 LP  0  0  0  0  0  0  0  0  0  0  0  0  # atno 17343 bound_to 10162
  157.2449  131.0533  151.2414 LP  0  0  0  0  0  0  0  0  0  0  0  0  # atno 17370 bound_to 10713
  157.3585  130.7119  149.6486 LP  0  0  0  0  0  0  0  0  0  0  0  0  # atno 17371 bound_to 10713
  139.9822  134.7119  155.9839 LP  0  0  0  0  0  0  0  0  0  0  0  0  # atno 17394 bound_to 11000
  141.1527  133.6546  156.4064 LP  0  0  0  0  0  0  0  0  0  0  0  0  # atno 17395 bound_to 11000

$$$$
