AV-unprocessed.smi:534|AV-procd|sdf|2857|dock5
  -GOLD-   2262023343D 1   1.00000     0.00000
 Structure written by MMmdl.
 39 40  0  0  0  0  0  0  0  0  2 V2000
  147.4944  136.3696  162.7466 C   0  0  0  0  0  0  0  0  0  0  0  0
  147.7504  137.1899  161.6207 O   0  0  0  0  0  0  0  0  0  0  0  0
  147.7758  136.4552  160.4076 C   0  0  0  0  0  0  0  0  0  0  0  0
  146.8164  137.1102  159.4068 C   0  0  0  0  0  0  0  0  0  0  0  0
  147.5314  137.6645  158.2736 N   0  0  0  0  0  0  0  0  0  0  0  0
  148.8798  137.9279  158.0666 C   0  0  0  0  0  0  0  0  0  0  0  0
  149.8382  137.7181  158.9703 N   0  0  0  0  0  0  0  0  0  0  0  0
  150.9772  138.1615  158.3116 C   0  0  0  0  0  0  0  0  0  0  0  0
  150.6800  138.6196  157.0652 C   0  0  0  0  0  0  0  0  0  0  0  0
  151.6795  139.1824  156.1322 C   0  0  0  0  0  0  0  0  0  0  0  0
  151.3483  139.5982  155.0235 O   0  0  0  0  0  0  0  0  0  0  0  0
  152.9429  139.1746  156.6639 N   0  5  0  0  0  0  0  0  0  0  0  0
  153.2915  138.7179  157.9173 C   0  0  0  0  0  0  0  0  0  0  0  0
  154.4549  138.7522  158.3211 O   0  0  0  0  0  0  0  0  0  0  0  0
  152.3286  138.2099  158.7502 N   0  0  0  0  0  0  0  0  0  0  0  0
  152.6695  137.7208  160.0892 C   0  0  0  0  0  0  0  0  0  0  0  0
  149.3031  138.4595  156.8936 N   0  0  0  0  0  0  0  0  0  0  0  0
  148.4897  138.8088  155.7323 C   0  0  0  0  0  0  0  0  0  0  0  0
  148.5780  140.3058  155.4019 C   0  0  0  0  0  0  0  0  0  0  0  0
  147.6934  140.6112  154.3351 O   0  0  0  0  0  0  0  0  0  0  0  0
  147.5738  142.0032  154.1063 C   0  0  0  0  0  0  0  0  0  0  0  0
  147.4661  136.9830  163.6470 H   0  0  0  0  0  0  0  0  0  0  0  0
  148.2785  135.6221  162.8738 H   0  0  0  0  0  0  0  0  0  0  0  0
  146.5348  135.8597  162.6548 H   0  0  0  0  0  0  0  0  0  0  0  0
  148.7866  136.4118  159.9976 H   0  0  0  0  0  0  0  0  0  0  0  0
  147.4590  135.4295  160.6014 H   0  0  0  0  0  0  0  0  0  0  0  0
  146.1067  136.3703  159.0356 H   0  0  0  0  0  0  0  0  0  0  0  0
  146.2354  137.8960  159.8896 H   0  0  0  0  0  0  0  0  0  0  0  0
  146.9227  138.0398  157.5606 H   0  0  0  0  0  0  0  0  0  0  0  0
  153.4382  136.9490  160.0329 H   0  0  0  0  0  0  0  0  0  0  0  0
  151.8151  137.2864  160.6077 H   0  0  0  0  0  0  0  0  0  0  0  0
  153.0483  138.5363  160.7063 H   0  0  0  0  0  0  0  0  0  0  0  0
  148.8020  138.2071  154.8799 H   0  0  0  0  0  0  0  0  0  0  0  0
  147.4528  138.5285  155.9188 H   0  0  0  0  0  0  0  0  0  0  0  0
  148.3216  140.8978  156.2820 H   0  0  0  0  0  0  0  0  0  0  0  0
  149.6002  140.5637  155.1220 H   0  0  0  0  0  0  0  0  0  0  0  0
  146.8902  142.1796  153.2759 H   0  0  0  0  0  0  0  0  0  0  0  0
  148.5373  142.4453  153.8503 H   0  0  0  0  0  0  0  0  0  0  0  0
  147.1751  142.5136  154.9840 H   0  0  0  0  0  0  0  0  0  0  0  0
  1  2  1  0  0  0  0
  1 22  1  0  0  0  0
  1 23  1  0  0  0  0
  1 24  1  0  0  0  0
  2  3  1  0  0  0  0
  3  4  1  0  0  0  0
  3 25  1  0  0  0  0
  3 26  1  0  0  0  0
  4  5  1  0  0  0  0
  4 27  1  0  0  0  0
  4 28  1  0  0  0  0
  5  6  1  0  0  0  0
  5 29  1  0  0  0  0
  6 17  1  0  0  0  0
  6  7  2  0  0  0  0
  7  8  1  0  0  0  0
  8 15  1  0  0  0  0
  8  9  2  0  0  0  0
  9 10  1  0  0  0  0
  9 17  1  0  0  0  0
 10 11  2  0  0  0  0
 10 12  1  0  0  0  0
 12 13  1  0  0  0  0
 13 14  2  0  0  0  0
 13 15  1  0  0  0  0
 15 16  1  0  0  0  0
 16 30  1  0  0  0  0
 16 31  1  0  0  0  0
 16 32  1  0  0  0  0
 17 18  1  0  0  0  0
 18 19  1  0  0  0  0
 18 33  1  0  0  0  0
 18 34  1  0  0  0  0
 19 20  1  0  0  0  0
 19 35  1  0  0  0  0
 19 36  1  0  0  0  0
 20 21  1  0  0  0  0
 21 37  1  0  0  0  0
 21 38  1  0  0  0  0
 21 39  1  0  0  0  0
M  CHG  1  12  -1
M  END
> <s_m_source_file>
AV-unprocessed.smi

> <i_m_source_file_index>
534

> <i_lp_mmshare_version>
43012

> <i_f3d_flags>
0

> <s_epik_input>
W0NIM11PW0NIMl1bQ0gyXVtOSF1jKG4xKW4oW0NIMl1bQ0gyXU9bQ0gzXSljKGMxMiljKD1PKVtuSF1jKD1PKW4yW0NIM10=

> <s_epik_cmdline>
J2VwaWtfcHl0aG9uJywgJy1waCcsICc3LjAnLCAnLXRuJywgJzgnLCAnLW1hJywgJzIwMCcsICctbWV0YWxfYmluZGluZycsICctaW1hZScsICc8aW5maWxlLm1hZT4nLCAnLW9tYWUnLCAnPG91dGZpbGUubWFlPic=

> <r_lp_tautomer_probability>
1

> <r_epik_Ionization_Penalty>
5.88862

> <r_epik_Ionization_Penalty_Charging>
1.42184e-08

> <r_epik_Ionization_Penalty_Neutral>
5.88862

> <r_epik_State_Penalty>
5.88846

> <r_epik_Charging_Adjusted_Penalty>
5.88846

> <i_epik_Tot_Q>
-1

> <i_epik_Tot_abs_Q>
1

> <r_epik_Metal_State_Penalty>
1.85033

> <b_epik_Metal_Only>
1

> <s_lp_Force_Field>
OPLS_2005

> <r_lp_Energy>
24.5539

> <b_lp_Chiralities_Consistent>
1

> <s_lp_Variant>
AV-unprocessed.smi:534-2

> <Gold.Version>
5.8.1

> <Gold.Id.Protein>
6NUR|6NUR_protein|mol2

> <Gold.PLP.Fitness>
39.7881

> <Gold.PLP.PLP>
-26.1074

> <Gold.PLP.part.hbond>
-5.0000

> <Gold.PLP.part.metal>
0.0000

> <Gold.PLP.part.buried>
-3.6648

> <Gold.PLP.part.nonpolar>
-16.7696

> <Gold.PLP.part.repulsive>
0.2608

> <Gold.PLP.ligand.clash>
0.0000

> <Gold.PLP.ligand.torsion>
0.8374

> <Gold.PLP.Chemscore.Hbond>
5.1040

> <Gold.PLP.Chemscore.CHOScore>
0.0000

> <Gold.PLP.Chemscore.Metal>
0.0000

> <Gold.Chemscore.Hbonds>
donor molecule, donor type, donor heavy atom, donor atom, acceptor molecule, acceptor atom, score
      P1  H  6931  6943       L1     2  1.00
      P1  H  6934  6947       L1     2  0.71
      P1  H  7989  7998       L1    11  1.00
      P1  H  7997  8008       L1    12  1.92
      P1  H  7997  8010       L1    14  0.43

> <Gold.PLP.Chemscore.Internal.Correction>
0.0434

> <Gold.Rescore>
     Score         DG    S(hbond)    S(metal)    S(lipo)     H(rot)  DE(clash)    DE(int)     intcor
     11.41     -15.13       3.35        0.00      39.53       2.40       0.26       3.47       ----

> <Gold.Chemscore.Fitness>
11.4062

> <Gold.Chemscore.DG>
-15.1328

> <Gold.Chemscore.ZeroCoef>
-5.4800

> <Gold.Chemscore.Hbond>
3.3462

> <Gold.Chemscore.Metal>
0.0000

> <Gold.Chemscore.Lipo>
39.5266

> <Gold.Chemscore.Internal_Hbond>
0.0000

> <Gold.Chemscore.DEClash>
0.2585

> <Gold.Chemscore.DEInternal>
3.4682

> <Gold.Chemscore.Rot>
2.4016

> <Gold.Chemscore.Internal.Correction>
   9.000000E+99

> <Gold.Chemscore.Hbonds>
donor molecule, donor type, donor heavy atom, donor atom, acceptor molecule, acceptor atom, score
      P1  H  6931  6943       L1     2  0.72
      P1  H  6934  6947       L1     2  0.20
      P1  H  7989  7998       L1    11  0.96
      P1  H  7997  8008       L1    12  0.32
      P1  H  7997  8010       L1    14  0.34

> <Gold.Chemscore.Hbond.Weighted>
-11.1762

> <Gold.Chemscore.Metal.Weighted>
-0.0000

> <Gold.Chemscore.Lipo.Weighted>
-4.6246

> <Gold.Chemscore.Internal_Hbond.Weighted>
0.0000

> <Gold.Chemscore.DEClash.Weighted>
0.2585

> <Gold.Chemscore.DEInternal.Weighted>
3.4682

> <Gold.Chemscore.Rot.Weighted>
6.1481

> <Gold.Chemscore.Internal.Correction.Weighted>
   9.000000E+99

> <Gold.Protein.RotatedTorsions>
[ 6907 6896 6895 6894 ] final  -81.71 input  -60.11 | X-H torsion
[ 7974 7965 7964 7962 ] final   32.23 input  175.53 | X-H torsion
[ 8008 7997 7996 7995 ] final  -32.80 input   59.86 | X-H torsion
[ 10167 10162 10161 10158 ] final   37.52 input  -65.29 | X-H torsion
[ 10718 10713 10712 10709 ] final   -2.15 input   66.30 | X-H torsion
[ 10763 10752 10751 10750 ] final  -94.28 input  -60.55 | X-H torsion
[ 11005 11000 10999 10996 ] final -155.83 input  -57.11 | X-H torsion

> <Gold.Protein.ActiveResidues>
 VAL166  LYS551  ARG553  GLY616  TRP617  ASP618  TYR619  PRO620  LYS621  CYS622 
 ASP623  PHE694  ASN695  SER759  ASP760  ASP761  ALA762  ILE779  LEU786  VAL792 
 PHE793  MET794  SER795  GLU796  ALA797  LYS798  CYS799  TRP800  GLU811  SER814 

> <Gold.Protein.RotatedAtoms>
  150.6908  134.3776  159.5019 H   0  0  0  0  0  0  0  0  0  0  0  0  # atno 6907 bound_to 6896
  152.1583  134.8930  160.0552 H   0  0  0  0  0  0  0  0  0  0  0  0  # atno 6908 bound_to 6896
  152.0002  133.3788  159.4215 H   0  0  0  0  0  0  0  0  0  0  0  0  # atno 6909 bound_to 6896
  146.1499  139.6553  142.9105 H   0  0  0  0  0  0  0  0  0  0  0  0  # atno 7974 bound_to 7965
  154.4168  140.1728  156.1785 H   0  0  0  0  0  0  0  0  0  0  0  0  # atno 8008 bound_to 7997
  155.9702  140.3386  155.6545 H   0  0  0  0  0  0  0  0  0  0  0  0  # atno 8009 bound_to 7997
  155.6635  140.0703  157.2536 H   0  0  0  0  0  0  0  0  0  0  0  0  # atno 8010 bound_to 7997
  140.4025  144.1704  150.6134 H   0  0  0  0  0  0  0  0  0  0  0  0  # atno 10167 bound_to 10162
  156.7951  130.5374  149.5730 H   0  0  0  0  0  0  0  0  0  0  0  0  # atno 10718 bound_to 10713
  154.7040  135.5163  153.8568 H   0  0  0  0  0  0  0  0  0  0  0  0  # atno 10763 bound_to 10752
  153.0727  135.6606  154.0222 H   0  0  0  0  0  0  0  0  0  0  0  0  # atno 10764 bound_to 10752
  154.0076  135.3005  155.3375 H   0  0  0  0  0  0  0  0  0  0  0  0  # atno 10765 bound_to 10752
  140.6822  134.4132  157.5226 H   0  0  0  0  0  0  0  0  0  0  0  0  # atno 11005 bound_to 11000
  145.4847  141.0438  143.2626 LP  0  0  0  0  0  0  0  0  0  0  0  0  # atno 17320 bound_to 7965
  144.7892  139.6364  143.7121 LP  0  0  0  0  0  0  0  0  0  0  0  0  # atno 17321 bound_to 7965
  140.4725  143.2408  151.9069 LP  0  0  0  0  0  0  0  0  0  0  0  0  # atno 17342 bound_to 10162
  139.4784  144.5355  151.8605 LP  0  0  0  0  0  0  0  0  0  0  0  0  # atno 17343 bound_to 10162
  156.1135  130.6058  151.0084 LP  0  0  0  0  0  0  0  0  0  0  0  0  # atno 17370 bound_to 10713
  157.6581  131.0886  150.7901 LP  0  0  0  0  0  0  0  0  0  0  0  0  # atno 17371 bound_to 10713
  139.8948  134.8697  156.2160 LP  0  0  0  0  0  0  0  0  0  0  0  0  # atno 17394 bound_to 11000
  141.0308  133.6990  156.1427 LP  0  0  0  0  0  0  0  0  0  0  0  0  # atno 17395 bound_to 11000

$$$$
