AV-unprocessed.smi:1802|AV-procd|sdf|7277|dock1
  -GOLD-   22720 8533D 1   1.00000     0.00000
 Structure written by MMmdl.
 40 41  0  0  0  0  0  0  0  0  3 V2000
  147.4263  133.0262  152.3209 C   0  0  0  0  0  0  0  0  0  0  0  0
  145.9791  133.3972  152.6899 C   0  0  2  0  0  0  0  0  0  0  0  0
  145.0389  133.4251  151.4704 C   0  0  0  0  0  0  0  0  0  0  0  0
  145.2855  134.6682  150.6040 C   0  0  0  0  0  0  0  0  0  0  0  0
  145.2151  135.9522  151.4459 C   0  0  0  0  0  0  0  0  0  0  0  0
  146.1661  135.8985  152.5859 N   0  3  1  0  0  0  0  0  0  0  0  0
  146.2287  137.1830  153.3272 C   0  0  0  0  0  0  0  0  0  0  0  0
  146.4732  138.3829  152.3972 C   0  0  0  0  0  0  0  0  0  0  0  0
  146.9209  139.6307  153.1683 C   0  0  0  0  0  0  0  0  0  0  0  0
  148.3678  139.6375  153.3327 N   0  0  0  0  0  0  0  0  0  0  0  0
  149.0097  139.7006  154.5065 C   0  0  0  0  0  0  0  0  0  0  0  0
  148.3653  139.7660  155.5558 O   0  0  0  0  0  0  0  0  0  0  0  0
  150.3567  139.6842  154.3905 N   0  5  0  0  0  0  0  0  0  0  0  0
  151.0839  138.8269  155.1257 C   0  0  0  0  0  0  0  0  0  0  0  0
  151.1101  137.5086  154.8723 N   0  0  0  0  0  0  0  0  0  0  0  0
  151.9258  136.8010  155.7447 N   0  0  0  0  0  0  0  0  0  0  0  0
  152.5036  137.6093  156.6330 C   0  0  0  0  0  0  0  0  0  0  0  0
  152.1073  139.3080  156.4822 S   0  0  0  0  0  0  0  0  0  0  0  0
  145.8987  134.7282  153.4659 C   0  0  0  0  0  0  0  0  0  0  0  0
  147.8850  133.7693  151.6686 H   0  0  0  0  0  0  0  0  0  0  0  0
  147.4657  132.0651  151.8079 H   0  0  0  0  0  0  0  0  0  0  0  0
  148.0474  132.9450  153.2132 H   0  0  0  0  0  0  0  0  0  0  0  0
  145.6220  132.6098  153.3552 H   0  0  0  0  0  0  0  0  0  0  0  0
  145.1547  132.5186  150.8752 H   0  0  0  0  0  0  0  0  0  0  0  0
  144.0043  133.4326  151.8157 H   0  0  0  0  0  0  0  0  0  0  0  0
  146.2597  134.5981  150.1192 H   0  0  0  0  0  0  0  0  0  0  0  0
  144.5483  134.7113  149.8016 H   0  0  0  0  0  0  0  0  0  0  0  0
  145.4481  136.8063  150.8089 H   0  0  0  0  0  0  0  0  0  0  0  0
  144.2022  136.1038  151.8223 H   0  0  0  0  0  0  0  0  0  0  0  0
  145.2807  137.3487  153.8411 H   0  0  0  0  0  0  0  0  0  0  0  0
  146.9933  137.1286  154.1037 H   0  0  0  0  0  0  0  0  0  0  0  0
  147.2315  138.1408  151.6526 H   0  0  0  0  0  0  0  0  0  0  0  0
  145.5587  138.6064  151.8459 H   0  0  0  0  0  0  0  0  0  0  0  0
  146.6177  140.5344  152.6376 H   0  0  0  0  0  0  0  0  0  0  0  0
  146.4419  139.6536  154.1486 H   0  0  0  0  0  0  0  0  0  0  0  0
  148.9300  139.5865  152.4959 H   0  0  0  0  0  0  0  0  0  0  0  0
  153.1701  137.2031  157.3791 H   0  0  0  0  0  0  0  0  0  0  0  0
  144.9067  134.8368  153.9077 H   0  0  0  0  0  0  0  0  0  0  0  0
  146.6027  134.7019  154.2969 H   0  0  0  0  0  0  0  0  0  0  0  0
  147.0807  135.7599  152.1806 H   0  0  0  0  0  0  0  0  0  0  0  0
  1  2  1  0  0  0  0
  1 20  1  0  0  0  0
  1 21  1  0  0  0  0
  1 22  1  0  0  0  0
  2 19  1  0  0  0  0
  2  3  1  0  0  0  0
  2 23  1  0  0  0  0
  3  4  1  0  0  0  0
  3 24  1  0  0  0  0
  3 25  1  0  0  0  0
  4  5  1  0  0  0  0
  4 26  1  0  0  0  0
  4 27  1  0  0  0  0
  5  6  1  0  0  0  0
  5 28  1  0  0  0  0
  5 29  1  0  0  0  0
  6  7  1  0  0  0  0
  6 19  1  0  0  0  0
  6 40  1  0  0  0  0
  7  8  1  0  0  0  0
  7 30  1  0  0  0  0
  7 31  1  0  0  0  0
  8  9  1  0  0  0  0
  8 32  1  0  0  0  0
  8 33  1  0  0  0  0
  9 10  1  0  0  0  0
  9 34  1  0  0  0  0
  9 35  1  0  0  0  0
 10 11  1  0  0  0  0
 10 36  1  0  0  0  0
 11 12  2  0  0  0  0
 11 13  1  0  0  0  0
 13 14  1  0  0  0  0
 14 18  1  0  0  0  0
 14 15  2  0  0  0  0
 15 16  1  0  0  0  0
 16 17  2  0  0  0  0
 17 18  1  0  0  0  0
 17 37  1  0  0  0  0
 19 38  1  0  0  0  0
 19 39  1  0  0  0  0
M  CHG  1   6   1
M  CHG  1  13  -1
M  END
> <s_m_source_file>
AV-unprocessed.smi

> <i_m_source_file_index>
1802

> <i_lp_mmshare_version>
43012

> <i_f3d_flags>
0

> <s_epik_input>
W0NIM11bQ0BASF0xW0NIMl1bQ0gyXVtDSDJdTihbQ0gyXTEpW0NIMl1bQ0gyXVtDSDJdW05IXUMoPU8pW05IXWMybm5bY0hdczI=

> <s_epik_cmdline>
J2VwaWtfcHl0aG9uJywgJy1waCcsICc3LjAnLCAnLXRuJywgJzgnLCAnLW1hJywgJzIwMCcsICctbWV0YWxfYmluZGluZycsICctaW1hZScsICc8aW5maWxlLm1hZT4nLCAnLW9tYWUnLCAnPG91dGZpbGUubWFlPic=

> <r_lp_tautomer_probability>
1

> <r_epik_Ionization_Penalty>
3.29702

> <r_epik_Ionization_Penalty_Charging>
3.26059

> <r_epik_Ionization_Penalty_Neutral>
0.0364294

> <r_epik_State_Penalty>
3.25788

> <r_epik_Charging_Adjusted_Penalty>
6.51847

> <i_epik_Tot_Q>
0

> <i_epik_Tot_abs_Q>
2

> <r_epik_Metal_State_Penalty>
0.477639

> <b_epik_Metal_Only>
1

> <s_lp_Force_Field>
OPLS_2005

> <r_lp_Energy>
14.2366

> <b_lp_Chiralities_Consistent>
1

> <s_lp_Variant>
AV-unprocessed.smi:1802-7

> <Gold.Version>
5.8.1

> <Gold.Id.Protein>
6NUR|6NUR_protein|mol2

> <Gold.PLP.Fitness>
42.8334

> <Gold.PLP.PLP>
-30.7211

> <Gold.PLP.part.hbond>
-3.8294

> <Gold.PLP.part.metal>
0.0000

> <Gold.PLP.part.buried>
-4.9454

> <Gold.PLP.part.nonpolar>
-24.4830

> <Gold.PLP.part.repulsive>
0.4945

> <Gold.PLP.ligand.clash>
0.0000

> <Gold.PLP.ligand.torsion>
1.3661

> <Gold.PLP.Chemscore.Hbond>
4.8860

> <Gold.PLP.Chemscore.CHOScore>
0.0000

> <Gold.PLP.Chemscore.Metal>
0.0000

> <Gold.Chemscore.Hbonds>
donor molecule, donor type, donor heavy atom, donor atom, acceptor molecule, acceptor atom, score
      L1  H     6    40       P1  7948  2.00
      L1  H    10    36       P1  7957  1.00
      P1  H  7989  7998       L1    13  1.00
      P1  H 10752 10764       L1    16  1.00

> <Gold.PLP.Chemscore.Internal.Correction>
0.1865

> <Gold.Rescore>
     Score         DG    S(hbond)    S(metal)    S(lipo)     H(rot)  DE(clash)    DE(int)     intcor
     17.74     -19.29       3.59        0.00      58.12       1.94       0.13       1.42       ----

> <Gold.Chemscore.Fitness>
17.7361

> <Gold.Chemscore.DG>
-19.2929

> <Gold.Chemscore.ZeroCoef>
-5.4800

> <Gold.Chemscore.Hbond>
3.5852

> <Gold.Chemscore.Metal>
0.0000

> <Gold.Chemscore.Lipo>
58.1223

> <Gold.Chemscore.Internal_Hbond>
0.0000

> <Gold.Chemscore.DEClash>
0.1334

> <Gold.Chemscore.DEInternal>
1.4234

> <Gold.Chemscore.Rot>
1.9383

> <Gold.Chemscore.Internal.Correction>
   9.000000E+99

> <Gold.Chemscore.Hbonds>
donor molecule, donor type, donor heavy atom, donor atom, acceptor molecule, acceptor atom, score
      L1  H     6    40       P1  7948  0.97
      L1  H    10    36       P1  7957  0.95
      P1  H  7989  7998       L1    13  0.60
      P1  H 10752 10764       L1    16  0.67

> <Gold.Chemscore.Hbond.Weighted>
-11.9747

> <Gold.Chemscore.Metal.Weighted>
-0.0000

> <Gold.Chemscore.Lipo.Weighted>
-6.8003

> <Gold.Chemscore.Internal_Hbond.Weighted>
0.0000

> <Gold.Chemscore.DEClash.Weighted>
0.1334

> <Gold.Chemscore.DEInternal.Weighted>
1.4234

> <Gold.Chemscore.Rot.Weighted>
4.9620

> <Gold.Chemscore.Internal.Correction.Weighted>
   9.000000E+99

> <Gold.Protein.RotatedTorsions>
[ 6907 6896 6895 6894 ] final    5.48 input  -60.11 | X-H torsion
[ 7974 7965 7964 7962 ] final   67.74 input  175.53 | X-H torsion
[ 8008 7997 7996 7995 ] final  152.11 input   59.86 | X-H torsion
[ 10167 10162 10161 10158 ] final   67.93 input  -65.29 | X-H torsion
[ 10718 10713 10712 10709 ] final  -62.77 input   66.30 | X-H torsion
[ 10763 10752 10751 10750 ] final  -50.75 input  -60.55 | X-H torsion
[ 11005 11000 10999 10996 ] final   80.23 input  -57.11 | X-H torsion

> <Gold.Protein.ActiveResidues>
 VAL166  LYS551  ARG553  GLY616  TRP617  ASP618  TYR619  PRO620  LYS621  CYS622 
 ASP623  PHE694  ASN695  SER759  ASP760  ASP761  ALA762  ILE779  LEU786  VAL792 
 PHE793  MET794  SER795  GLU796  ALA797  LYS798  CYS799  TRP800  GLU811  SER814 

> <Gold.Protein.RotatedAtoms>
  151.6581  135.0993  160.0173 H   0  0  0  0  0  0  0  0  0  0  0  0  # atno 6907 bound_to 6896
  152.3962  133.6746  159.6287 H   0  0  0  0  0  0  0  0  0  0  0  0  # atno 6908 bound_to 6896
  150.7869  133.8786  159.3320 H   0  0  0  0  0  0  0  0  0  0  0  0  # atno 6909 bound_to 6896
  145.8109  139.3032  143.1099 H   0  0  0  0  0  0  0  0  0  0  0  0  # atno 7974 bound_to 7965
  156.2644  140.2030  156.6281 H   0  0  0  0  0  0  0  0  0  0  0  0  # atno 8008 bound_to 7997
  154.6704  140.0551  157.0184 H   0  0  0  0  0  0  0  0  0  0  0  0  # atno 8009 bound_to 7997
  155.1145  140.3218  155.4516 H   0  0  0  0  0  0  0  0  0  0  0  0  # atno 8010 bound_to 7997
  140.0842  144.5044  150.7142 H   0  0  0  0  0  0  0  0  0  0  0  0  # atno 10167 bound_to 10162
  156.0833  130.4213  150.1183 H   0  0  0  0  0  0  0  0  0  0  0  0  # atno 10718 bound_to 10713
  154.1154  135.6543  153.4893 H   0  0  0  0  0  0  0  0  0  0  0  0  # atno 10763 bound_to 10752
  153.0243  135.5257  154.7150 H   0  0  0  0  0  0  0  0  0  0  0  0  # atno 10764 bound_to 10752
  154.6342  135.2980  155.0150 H   0  0  0  0  0  0  0  0  0  0  0  0  # atno 10765 bound_to 10752
  139.9142  134.7904  156.1883 H   0  0  0  0  0  0  0  0  0  0  0  0  # atno 11005 bound_to 11000
  145.9778  140.8708  143.0130 LP  0  0  0  0  0  0  0  0  0  0  0  0  # atno 17320 bound_to 7965
  144.6757  140.2036  143.7384 LP  0  0  0  0  0  0  0  0  0  0  0  0  # atno 17321 bound_to 7965
  140.7062  143.2470  151.4719 LP  0  0  0  0  0  0  0  0  0  0  0  0  # atno 17342 bound_to 10162
  139.5762  144.1814  152.1906 LP  0  0  0  0  0  0  0  0  0  0  0  0  # atno 17343 bound_to 10162
  156.9209  130.9682  151.3548 LP  0  0  0  0  0  0  0  0  0  0  0  0  # atno 17370 bound_to 10713
  157.5959  130.8477  149.8728 LP  0  0  0  0  0  0  0  0  0  0  0  0  # atno 17371 bound_to 10713
  141.0600  133.6846  156.1934 LP  0  0  0  0  0  0  0  0  0  0  0  0  # atno 17394 bound_to 11000
  140.6676  134.4901  157.5586 LP  0  0  0  0  0  0  0  0  0  0  0  0  # atno 17395 bound_to 11000

$$$$
