AV-unprocessed.smi:1007|AV-procd|sdf|4405|dock7
  -GOLD-   22720 2343D 1   1.00000     0.00000
 Structure written by MMmdl.
 57 59  0  0  0  0  0  0  0  0  3 V2000
  144.0105  133.7071  151.0461 C   0  0  0  0  0  0  0  0  0  0  0  0
  143.5358  134.9865  151.4274 O   0  0  0  0  0  0  0  0  0  0  0  0
  144.5656  135.8228  151.9284 C   0  0  0  0  0  0  0  0  0  0  0  0
  143.9576  137.1783  152.3188 C   0  0  0  0  0  0  0  0  0  0  0  0
  144.9353  138.0631  153.0010 N   0  3  0  0  0  0  0  0  0  0  0  0
  146.2488  138.0958  152.3110 C   0  0  0  0  0  0  0  0  0  0  0  0
  147.1859  139.1025  153.0058 C   0  0  0  0  0  0  0  0  0  0  0  0
  147.4156  138.7990  154.4188 N   0  0  0  0  0  0  0  0  0  0  0  0
  148.2572  137.6084  154.6126 C   0  0  0  0  0  0  0  0  0  0  0  0
  149.7418  137.8625  154.9555 C   0  0  1  0  0  0  0  0  0  0  0  0
  150.4736  136.6676  154.7681 O   0  0  0  0  0  0  0  0  0  0  0  0
  150.4274  139.0340  154.2254 C   0  0  0  0  0  0  0  0  0  0  0  0
  150.3036  140.2987  154.9616 N   0  0  0  0  0  0  0  0  0  0  0  0
  149.5691  141.4083  154.6764 C   0  0  0  0  0  0  0  0  0  0  0  0
  149.8031  142.3197  155.6609 N   0  3  0  0  0  0  0  0  0  0  0  0
  150.7005  141.7845  156.5876 C   0  0  0  0  0  0  0  0  0  0  0  0
  151.2415  142.3241  157.7485 C   0  0  0  0  0  0  0  0  0  0  0  0
  152.1418  141.5145  158.4773 C   0  0  0  0  0  0  0  0  0  0  0  0
  152.7557  142.0760  159.7486 C   0  0  0  0  0  0  0  0  0  0  0  0
  152.4703  140.2066  158.0348 C   0  0  0  0  0  0  0  0  0  0  0  0
  153.4399  139.3453  158.8262 C   0  0  0  0  0  0  0  0  0  0  0  0
  151.9076  139.6749  156.8523 C   0  0  0  0  0  0  0  0  0  0  0  0
  151.0245  140.4873  156.1454 C   0  0  0  0  0  0  0  0  0  0  0  0
  146.1100  138.7476  155.0888 C   0  0  0  0  0  0  0  0  0  0  0  0
  145.1150  137.7572  154.4450 C   0  0  0  0  0  0  0  0  0  0  0  0
  143.1823  133.1051  150.6724 H   0  0  0  0  0  0  0  0  0  0  0  0
  144.4524  133.1815  151.8937 H   0  0  0  0  0  0  0  0  0  0  0  0
  144.7561  133.7829  150.2535 H   0  0  0  0  0  0  0  0  0  0  0  0
  145.0702  135.3517  152.7722 H   0  0  0  0  0  0  0  0  0  0  0  0
  145.3178  135.9756  151.1529 H   0  0  0  0  0  0  0  0  0  0  0  0
  143.5555  137.6843  151.4397 H   0  0  0  0  0  0  0  0  0  0  0  0
  143.1099  136.9908  152.9795 H   0  0  0  0  0  0  0  0  0  0  0  0
  146.6893  137.0976  152.2975 H   0  0  0  0  0  0  0  0  0  0  0  0
  146.1087  138.3949  151.2715 H   0  0  0  0  0  0  0  0  0  0  0  0
  148.1382  139.1495  152.4761 H   0  0  0  0  0  0  0  0  0  0  0  0
  146.7552  140.1014  152.9219 H   0  0  0  0  0  0  0  0  0  0  0  0
  147.8198  136.9482  155.3604 H   0  0  0  0  0  0  0  0  0  0  0  0
  148.2564  137.0236  153.6914 H   0  0  0  0  0  0  0  0  0  0  0  0
  149.7788  138.0723  156.0250 H   0  0  0  0  0  0  0  0  0  0  0  0
  151.0065  136.7627  153.9932 H   0  0  0  0  0  0  0  0  0  0  0  0
  151.4944  138.8435  154.1113 H   0  0  0  0  0  0  0  0  0  0  0  0
  150.0157  139.1737  153.2252 H   0  0  0  0  0  0  0  0  0  0  0  0
  148.9234  141.5438  153.8207 H   0  0  0  0  0  0  0  0  0  0  0  0
  150.9874  143.3209  158.0785 H   0  0  0  0  0  0  0  0  0  0  0  0
  152.5051  141.4496  160.6049 H   0  0  0  0  0  0  0  0  0  0  0  0
  152.3938  143.0835  159.9556 H   0  0  0  0  0  0  0  0  0  0  0  0
  153.8414  142.1244  159.6598 H   0  0  0  0  0  0  0  0  0  0  0  0
  153.5978  138.3782  158.3477 H   0  0  0  0  0  0  0  0  0  0  0  0
  153.0565  139.1613  159.8301 H   0  0  0  0  0  0  0  0  0  0  0  0
  154.4093  139.8370  158.9097 H   0  0  0  0  0  0  0  0  0  0  0  0
  152.1590  138.6807  156.5140 H   0  0  0  0  0  0  0  0  0  0  0  0
  146.2198  138.5057  156.1421 H   0  0  0  0  0  0  0  0  0  0  0  0
  145.6676  139.7445  155.0670 H   0  0  0  0  0  0  0  0  0  0  0  0
  144.1609  137.8337  154.9646 H   0  0  0  0  0  0  0  0  0  0  0  0
  145.4522  136.7278  154.5689 H   0  0  0  0  0  0  0  0  0  0  0  0
  144.5642  139.0009  152.9404 H   0  0  0  0  0  0  0  0  0  0  0  0
  149.3833  143.2401  155.6926 H   0  0  0  0  0  0  0  0  0  0  0  0
  1  2  1  0  0  0  0
  1 26  1  0  0  0  0
  1 27  1  0  0  0  0
  1 28  1  0  0  0  0
  2  3  1  0  0  0  0
  3  4  1  0  0  0  0
  3 29  1  0  0  0  0
  3 30  1  0  0  0  0
  4  5  1  0  0  0  0
  4 31  1  0  0  0  0
  4 32  1  0  0  0  0
  5 25  1  0  0  0  0
  5  6  1  0  0  0  0
  5 56  1  0  0  0  0
  6  7  1  0  0  0  0
  6 33  1  0  0  0  0
  6 34  1  0  0  0  0
  7  8  1  0  0  0  0
  7 35  1  0  0  0  0
  7 36  1  0  0  0  0
  8  9  1  0  0  0  0
  8 24  1  0  0  0  0
  9 10  1  0  0  0  0
  9 37  1  0  0  0  0
  9 38  1  0  0  0  0
 10 11  1  0  0  0  0
 10 12  1  0  0  0  0
 10 39  1  0  0  0  0
 11 40  1  0  0  0  0
 12 13  1  0  0  0  0
 12 41  1  0  0  0  0
 12 42  1  0  0  0  0
 13 23  1  0  0  0  0
 13 14  1  0  0  0  0
 14 15  2  0  0  0  0
 14 43  1  0  0  0  0
 15 16  1  0  0  0  0
 15 57  1  0  0  0  0
 16 23  2  0  0  0  0
 16 17  1  0  0  0  0
 17 18  2  0  0  0  0
 17 44  1  0  0  0  0
 18 19  1  0  0  0  0
 18 20  1  0  0  0  0
 19 45  1  0  0  0  0
 19 46  1  0  0  0  0
 19 47  1  0  0  0  0
 20 21  1  0  0  0  0
 20 22  2  0  0  0  0
 21 48  1  0  0  0  0
 21 49  1  0  0  0  0
 21 50  1  0  0  0  0
 22 23  1  0  0  0  0
 22 51  1  0  0  0  0
 24 25  1  0  0  0  0
 24 52  1  0  0  0  0
 24 53  1  0  0  0  0
 25 54  1  0  0  0  0
 25 55  1  0  0  0  0
M  CHG  1   5   1
M  CHG  1  15   1
M  END
> <s_m_source_file>
AV-unprocessed.smi

> <i_m_source_file_index>
1007

> <i_lp_mmshare_version>
43012

> <i_f3d_flags>
0

> <s_epik_input>
W0NIM11PW0NIMl1bQ0gyXU4xW0NIMl1bQ0gyXU4oW0NIMl1bQ0gyXTEpW0NIMl1bQ0BIXShbT0hdKVtDSDJdbihbY0hdbjIpYyhjMjMpW2NIXWMoW0NIM10pYyhbY0hdMylbQ0gzXQ==

> <s_epik_cmdline>
J2VwaWtfcHl0aG9uJywgJy1waCcsICc3LjAnLCAnLXRuJywgJzgnLCAnLW1hJywgJzIwMCcsICctbWV0YWxfYmluZGluZycsICctaW1hZScsICc8aW5maWxlLm1hZT4nLCAnLW9tYWUnLCAnPG91dGZpbGUubWFlPic=

> <r_epik_Ionization_Penalty>
1.34507

> <r_epik_Ionization_Penalty_Charging>
1.29906

> <r_epik_Ionization_Penalty_Neutral>
0.0460038

> <r_epik_State_Penalty>
2.55679

> <r_epik_Charging_Adjusted_Penalty>
3.85586

> <i_epik_Tot_Q>
2

> <i_epik_Tot_abs_Q>
2

> <r_epik_Metal_State_Penalty>
6.56928

> <b_epik_Metal_Only>
0

> <s_lp_Force_Field>
OPLS_2005

> <r_lp_Energy>
47.3521

> <b_lp_Chiralities_Consistent>
1

> <s_lp_Variant>
AV-unprocessed.smi:1007-8

> <Gold.Version>
5.8.1

> <Gold.Id.Protein>
6NUR|6NUR_protein|mol2

> <Gold.PLP.Fitness>
50.4043

> <Gold.PLP.PLP>
-41.0898

> <Gold.PLP.part.hbond>
-2.0000

> <Gold.PLP.part.metal>
0.0000

> <Gold.PLP.part.buried>
-2.4094

> <Gold.PLP.part.nonpolar>
-36.6506

> <Gold.PLP.part.repulsive>
0.4767

> <Gold.PLP.ligand.clash>
0.0000

> <Gold.PLP.ligand.torsion>
1.4685

> <Gold.PLP.Chemscore.Hbond>
4.0000

> <Gold.PLP.Chemscore.CHOScore>
0.0000

> <Gold.PLP.Chemscore.Metal>
0.0000

> <Gold.Chemscore.Hbonds>
donor molecule, donor type, donor heavy atom, donor atom, acceptor molecule, acceptor atom, score
      L1  H     5    56       P1 10175  2.00
      L1  H    15    57       P1  8028  2.00

> <Gold.PLP.Chemscore.Internal.Correction>
0.2514

> <Gold.Rescore>
     Score         DG    S(hbond)    S(metal)    S(lipo)     H(rot)  DE(clash)    DE(int)     intcor
     15.36     -17.40       1.97        0.00     103.39       2.64       0.38       1.66       ----

> <Gold.Chemscore.Fitness>
15.3595

> <Gold.Chemscore.DG>
-17.3968

> <Gold.Chemscore.ZeroCoef>
-5.4800

> <Gold.Chemscore.Hbond>
1.9720

> <Gold.Chemscore.Metal>
0.0000

> <Gold.Chemscore.Lipo>
103.3922

> <Gold.Chemscore.Internal_Hbond>
0.0000

> <Gold.Chemscore.DEClash>
0.3809

> <Gold.Chemscore.DEInternal>
1.6564

> <Gold.Chemscore.Rot>
2.6432

> <Gold.Chemscore.Internal.Correction>
   9.000000E+99

> <Gold.Chemscore.Hbonds>
donor molecule, donor type, donor heavy atom, donor atom, acceptor molecule, acceptor atom, score
      L1  H     5    56       P1 10175  1.00
      L1  H    15    57       P1  8028  0.96

> <Gold.Chemscore.Hbond.Weighted>
-6.5864

> <Gold.Chemscore.Metal.Weighted>
-0.0000

> <Gold.Chemscore.Lipo.Weighted>
-12.0969

> <Gold.Chemscore.Internal_Hbond.Weighted>
0.0000

> <Gold.Chemscore.DEClash.Weighted>
0.3809

> <Gold.Chemscore.DEInternal.Weighted>
1.6564

> <Gold.Chemscore.Rot.Weighted>
6.7665

> <Gold.Chemscore.Internal.Correction.Weighted>
   9.000000E+99

> <Gold.Protein.RotatedTorsions>
[ 6907 6896 6895 6894 ] final  -16.66 input  -60.11 | X-H torsion
[ 7974 7965 7964 7962 ] final  -65.77 input  175.53 | X-H torsion
[ 8008 7997 7996 7995 ] final  160.09 input   59.86 | X-H torsion
[ 10167 10162 10161 10158 ] final  -40.74 input  -65.29 | X-H torsion
[ 10718 10713 10712 10709 ] final   51.75 input   66.30 | X-H torsion
[ 10763 10752 10751 10750 ] final   35.33 input  -60.55 | X-H torsion
[ 11005 11000 10999 10996 ] final   81.57 input  -57.11 | X-H torsion

> <Gold.Protein.ActiveResidues>
 VAL166  LYS551  ARG553  GLY616  TRP617  ASP618  TYR619  PRO620  LYS621  CYS622 
 ASP623  PHE694  ASN695  SER759  ASP760  ASP761  ALA762  ILE779  LEU786  VAL792 
 PHE793  MET794  SER795  GLU796  ALA797  LYS798  CYS799  TRP800  GLU811  SER814 

> <Gold.Protein.RotatedAtoms>
  151.3052  135.0779  159.9252 H   0  0  0  0  0  0  0  0  0  0  0  0  # atno 6907 bound_to 6896
  152.5289  133.9792  159.7809 H   0  0  0  0  0  0  0  0  0  0  0  0  # atno 6908 bound_to 6896
  151.0086  133.5935  159.2716 H   0  0  0  0  0  0  0  0  0  0  0  0  # atno 6909 bound_to 6896
  145.7501  140.8912  143.0484 H   0  0  0  0  0  0  0  0  0  0  0  0  # atno 7974 bound_to 7965
  156.2196  140.1813  156.7509 H   0  0  0  0  0  0  0  0  0  0  0  0  # atno 8008 bound_to 7997
  154.5844  140.0661  156.9179 H   0  0  0  0  0  0  0  0  0  0  0  0  # atno 8009 bound_to 7997
  155.2445  140.3324  155.4291 H   0  0  0  0  0  0  0  0  0  0  0  0  # atno 8010 bound_to 7997
  140.7025  143.3135  151.2967 H   0  0  0  0  0  0  0  0  0  0  0  0  # atno 10167 bound_to 10162
  157.5010  130.8438  149.8317 H   0  0  0  0  0  0  0  0  0  0  0  0  # atno 10718 bound_to 10713
  153.0124  135.6336  154.1809 H   0  0  0  0  0  0  0  0  0  0  0  0  # atno 10763 bound_to 10752
  154.1550  135.2827  155.3126 H   0  0  0  0  0  0  0  0  0  0  0  0  # atno 10764 bound_to 10752
  154.6024  135.5583  153.7449 H   0  0  0  0  0  0  0  0  0  0  0  0  # atno 10765 bound_to 10752
  139.9093  134.8007  156.2060 H   0  0  0  0  0  0  0  0  0  0  0  0  # atno 11005 bound_to 11000
  144.6851  139.9579  143.7479 LP  0  0  0  0  0  0  0  0  0  0  0  0  # atno 17320 bound_to 7965
  146.0365  139.3382  143.0723 LP  0  0  0  0  0  0  0  0  0  0  0  0  # atno 17321 bound_to 7965
  139.6566  144.0264  152.2664 LP  0  0  0  0  0  0  0  0  0  0  0  0  # atno 17342 bound_to 10162
  139.9818  144.6423  150.7894 LP  0  0  0  0  0  0  0  0  0  0  0  0  # atno 17343 bound_to 10162
  156.0229  130.3789  150.1908 LP  0  0  0  0  0  0  0  0  0  0  0  0  # atno 17370 bound_to 10713
  157.0097  130.9947  151.3369 LP  0  0  0  0  0  0  0  0  0  0  0  0  # atno 17371 bound_to 10713
  141.0495  133.6896  156.1746 LP  0  0  0  0  0  0  0  0  0  0  0  0  # atno 17394 bound_to 11000
  140.6832  134.4745  157.5589 LP  0  0  0  0  0  0  0  0  0  0  0  0  # atno 17395 bound_to 11000

$$$$
