AV-unprocessed.smi:3195|AV-procd|sdf|12217|dock1
  -GOLD-   2272018 53D 1   1.00000     0.00000
 Structure written by MMmdl.
 29 30  0  0  0  0  0  0  0  0  2 V2000
  149.4674  140.9034  154.8358 C   0  0  0  0  0  0  0  0  0  0  0  0
  150.6226  140.2677  155.6271 C   0  0  1  0  0  0  0  0  0  0  0  0
  151.1464  141.2547  156.7003 C   0  0  0  0  0  0  0  0  0  0  0  0
  150.6230  142.3693  156.7890 O   0  0  0  0  0  0  0  0  0  0  0  0
  152.2026  140.7229  157.4395 N   0  0  0  0  0  0  0  0  0  0  0  0
  152.6021  141.2066  158.5840 C   0  0  0  0  0  0  0  0  0  0  0  0
  152.0038  142.3169  159.2050 N   0  0  0  0  0  0  0  0  0  0  0  0
  152.4273  142.8206  160.4164 C   0  0  0  0  0  0  0  0  0  0  0  0
  153.4471  142.2746  161.0807 C   0  0  0  0  0  0  0  0  0  0  0  0
  154.1196  141.1261  160.5092 C   0  0  0  0  0  0  0  0  0  0  0  0
  153.7341  140.5715  159.2830 C   0  0  0  0  0  0  0  0  0  0  0  0
  154.3447  139.5770  158.8270 O   0  5  0  0  0  0  0  0  0  0  0  0
  150.2618  138.8832  156.1904 C   0  0  0  0  0  0  0  0  0  0  0  0
  151.6075  138.1915  156.3319 C   0  0  0  0  0  0  0  0  0  0  0  0
  152.4802  138.8853  155.2820 C   0  0  0  0  0  0  0  0  0  0  0  0
  151.6712  139.9196  154.7233 O   0  0  0  0  0  0  0  0  0  0  0  0
  148.6112  141.1064  155.4801 H   0  0  0  0  0  0  0  0  0  0  0  0
  149.1299  140.2451  154.0349 H   0  0  0  0  0  0  0  0  0  0  0  0
  149.7695  141.8449  154.3754 H   0  0  0  0  0  0  0  0  0  0  0  0
  151.8722  143.6762  160.7709 H   0  0  0  0  0  0  0  0  0  0  0  0
  153.7663  142.6815  162.0288 H   0  0  0  0  0  0  0  0  0  0  0  0
  154.9444  140.6920  161.0559 H   0  0  0  0  0  0  0  0  0  0  0  0
  151.2250  142.7910  158.7723 H   0  0  0  0  0  0  0  0  0  0  0  0
  149.7018  138.9117  157.1258 H   0  0  0  0  0  0  0  0  0  0  0  0
  149.6524  138.3369  155.4691 H   0  0  0  0  0  0  0  0  0  0  0  0
  152.0182  138.3572  157.3287 H   0  0  0  0  0  0  0  0  0  0  0  0
  151.5354  137.1154  156.1727 H   0  0  0  0  0  0  0  0  0  0  0  0
  153.3722  139.3152  155.7395 H   0  0  0  0  0  0  0  0  0  0  0  0
  152.7994  138.2001  154.4965 H   0  0  0  0  0  0  0  0  0  0  0  0
  1  2  1  0  0  0  0
  1 17  1  0  0  0  0
  1 18  1  0  0  0  0
  1 19  1  0  0  0  0
  2 16  1  0  0  0  0
  2  3  1  0  0  0  0
  2 13  1  0  0  0  0
  3  4  2  0  0  0  0
  3  5  1  0  0  0  0
  5  6  2  0  0  0  0
  6 11  1  0  0  0  0
  6  7  1  0  0  0  0
  7 23  1  0  0  0  0
  7  8  1  0  0  0  0
  8 20  1  0  0  0  0
  8  9  2  0  0  0  0
  9 21  1  0  0  0  0
  9 10  1  0  0  0  0
 10 11  2  0  0  0  0
 10 22  1  0  0  0  0
 11 12  1  0  0  0  0
 13 14  1  0  0  0  0
 13 24  1  0  0  0  0
 13 25  1  0  0  0  0
 14 15  1  0  0  0  0
 14 26  1  0  0  0  0
 14 27  1  0  0  0  0
 15 16  1  0  0  0  0
 15 28  1  0  0  0  0
 15 29  1  0  0  0  0
M  CHG  1  12  -1
M  END
> <s_m_source_file>
AV-unprocessed.smi

> <i_m_source_file_index>
3195

> <i_lp_mmshare_version>
43012

> <i_f3d_flags>
0

> <s_epik_input>
TzFbQ0gyXVtDSDJdW0NIMl1bQ0BAXTEoW0NIM10pQyg9TylbTkhdYzJuW2NIXVtjSF1bY0hdYzJbT0hd

> <s_epik_cmdline>
J2VwaWtfcHl0aG9uJywgJy1waCcsICc3LjAnLCAnLXRuJywgJzgnLCAnLW1hJywgJzIwMCcsICctbWV0YWxfYmluZGluZycsICctaW1hZScsICc8aW5maWxlLm1hZT4nLCAnLW9tYWUnLCAnPG91dGZpbGUubWFlPic=

> <r_epik_Ionization_Penalty>
0.780444

> <r_epik_Ionization_Penalty_Charging>
0.780444

> <r_epik_Ionization_Penalty_Neutral>
6.55423e-13

> <r_epik_State_Penalty>
1.40445

> <r_epik_Charging_Adjusted_Penalty>
2.18489

> <i_epik_Tot_Q>
-1

> <i_epik_Tot_abs_Q>
1

> <r_epik_Metal_State_Penalty>
1.36467

> <b_epik_Metal_Only>
0

> <s_lp_Force_Field>
OPLS_2005

> <r_lp_Energy>
50.4099

> <b_lp_Chiralities_Consistent>
1

> <s_lp_Variant>
AV-unprocessed.smi:3195-5

> <Gold.Version>
5.8.1

> <Gold.Id.Protein>
6NUR|6NUR_protein|mol2

> <Gold.PLP.Fitness>
38.9684

> <Gold.PLP.PLP>
-30.1360

> <Gold.PLP.part.hbond>
-1.9610

> <Gold.PLP.part.metal>
0.0000

> <Gold.PLP.part.buried>
-3.7219

> <Gold.PLP.part.nonpolar>
-24.5300

> <Gold.PLP.part.repulsive>
0.6780

> <Gold.PLP.ligand.clash>
0.0000

> <Gold.PLP.ligand.torsion>
0.1246

> <Gold.PLP.Chemscore.Hbond>
3.0000

> <Gold.PLP.Chemscore.CHOScore>
0.0000

> <Gold.PLP.Chemscore.Metal>
0.0000

> <Gold.Chemscore.Hbonds>
donor molecule, donor type, donor heavy atom, donor atom, acceptor molecule, acceptor atom, score
      P1  H  7989  7998       L1    16  1.00
      P1  H  7997  8008       L1    12  2.00

> <Gold.PLP.Chemscore.Internal.Correction>
0.0816

> <Gold.Rescore>
     Score         DG    S(hbond)    S(metal)    S(lipo)     H(rot)  DE(clash)    DE(int)     intcor
     14.70     -17.59       1.91        0.00      70.80       1.00       0.08       2.80       ----

> <Gold.Chemscore.Fitness>
14.7043

> <Gold.Chemscore.DG>
-17.5893

> <Gold.Chemscore.ZeroCoef>
-5.4800

> <Gold.Chemscore.Hbond>
1.9119

> <Gold.Chemscore.Metal>
0.0000

> <Gold.Chemscore.Lipo>
70.7988

> <Gold.Chemscore.Internal_Hbond>
0.0000

> <Gold.Chemscore.DEClash>
0.0819

> <Gold.Chemscore.DEInternal>
2.8031

> <Gold.Chemscore.Rot>
1.0000

> <Gold.Chemscore.Internal.Correction>
   9.000000E+99

> <Gold.Chemscore.Hbonds>
donor molecule, donor type, donor heavy atom, donor atom, acceptor molecule, acceptor atom, score
      P1  H  7989  7998       L1    16  0.69
      P1  H  7997  8008       L1    12  0.65

> <Gold.Chemscore.Hbond.Weighted>
-6.3859

> <Gold.Chemscore.Metal.Weighted>
-0.0000

> <Gold.Chemscore.Lipo.Weighted>
-8.2835

> <Gold.Chemscore.Internal_Hbond.Weighted>
0.0000

> <Gold.Chemscore.DEClash.Weighted>
0.0819

> <Gold.Chemscore.DEInternal.Weighted>
2.8031

> <Gold.Chemscore.Rot.Weighted>
2.5600

> <Gold.Chemscore.Internal.Correction.Weighted>
   9.000000E+99

> <Gold.Protein.RotatedTorsions>
[ 6907 6896 6895 6894 ] final  -49.29 input  -60.11 | X-H torsion
[ 7974 7965 7964 7962 ] final  -31.42 input  175.53 | X-H torsion
[ 8008 7997 7996 7995 ] final -113.12 input   59.86 | X-H torsion
[ 10167 10162 10161 10158 ] final   81.18 input  -65.29 | X-H torsion
[ 10718 10713 10712 10709 ] final -119.74 input   66.30 | X-H torsion
[ 10763 10752 10751 10750 ] final -142.42 input  -60.55 | X-H torsion
[ 11005 11000 10999 10996 ] final  -64.78 input  -57.11 | X-H torsion

> <Gold.Protein.ActiveResidues>
 VAL166  LYS551  ARG553  GLY616  TRP617  ASP618  TYR619  PRO620  LYS621  CYS622 
 ASP623  PHE694  ASN695  SER759  ASP760  ASP761  ALA762  ILE779  LEU786  VAL792 
 PHE793  MET794  SER795  GLU796  ALA797  LYS798  CYS799  TRP800  GLU811  SER814 

> <Gold.Protein.RotatedAtoms>
  150.8820  134.8212  159.7231 H   0  0  0  0  0  0  0  0  0  0  0  0  # atno 6907 bound_to 6896
  152.4784  134.4781  159.9667 H   0  0  0  0  0  0  0  0  0  0  0  0  # atno 6908 bound_to 6896
  151.4855  133.3498  159.2880 H   0  0  0  0  0  0  0  0  0  0  0  0  # atno 6909 bound_to 6896
  146.1069  140.5665  142.8796 H   0  0  0  0  0  0  0  0  0  0  0  0  # atno 7974 bound_to 7965
  155.0158  140.0393  157.2417 H   0  0  0  0  0  0  0  0  0  0  0  0  # atno 8008 bound_to 7997
  154.7421  140.2751  155.6341 H   0  0  0  0  0  0  0  0  0  0  0  0  # atno 8009 bound_to 7997
  156.2866  140.2663  156.2151 H   0  0  0  0  0  0  0  0  0  0  0  0  # atno 8010 bound_to 7997
  139.9419  144.6084  150.8243 H   0  0  0  0  0  0  0  0  0  0  0  0  # atno 10167 bound_to 10162
  156.1204  130.6318  150.9454 H   0  0  0  0  0  0  0  0  0  0  0  0  # atno 10718 bound_to 10713
  154.8509  135.3496  154.6026 H   0  0  0  0  0  0  0  0  0  0  0  0  # atno 10763 bound_to 10752
  153.6634  135.6988  153.5174 H   0  0  0  0  0  0  0  0  0  0  0  0  # atno 10764 bound_to 10752
  153.2799  135.4267  155.1026 H   0  0  0  0  0  0  0  0  0  0  0  0  # atno 10765 bound_to 10752
  141.1435  133.6671  156.5885 H   0  0  0  0  0  0  0  0  0  0  0  0  # atno 11005 bound_to 11000
  144.7478  140.5113  143.6823 LP  0  0  0  0  0  0  0  0  0  0  0  0  # atno 17320 bound_to 7965
  145.5743  139.1485  143.3271 LP  0  0  0  0  0  0  0  0  0  0  0  0  # atno 17321 bound_to 7965
  140.7608  143.3160  151.2732 LP  0  0  0  0  0  0  0  0  0  0  0  0  # atno 17342 bound_to 10162
  139.6697  144.0041  152.2745 LP  0  0  0  0  0  0  0  0  0  0  0  0  # atno 17343 bound_to 10162
  157.6387  131.0913  150.8295 LP  0  0  0  0  0  0  0  0  0  0  0  0  # atno 17370 bound_to 10713
  156.8392  130.5042  149.5323 LP  0  0  0  0  0  0  0  0  0  0  0  0  # atno 17371 bound_to 10713
  140.3781  134.7547  157.4643 LP  0  0  0  0  0  0  0  0  0  0  0  0  # atno 17394 bound_to 11000
  140.0658  134.5931  155.8696 LP  0  0  0  0  0  0  0  0  0  0  0  0  # atno 17395 bound_to 11000

$$$$
