AV-unprocessed.smi:514|AV-procd|sdf|2778|dock8
  -GOLD-   2262023253D 1   1.00000     0.00000
 Structure written by MMmdl.
 45 47  0  0  0  0  0  0  0  0  3 V2000
  152.0592  138.9495  154.7895 C   0  0  0  0  0  0  0  0  0  0  0  0
  150.8974  137.9649  154.6399 C   0  0  0  0  0  0  0  0  0  0  0  0
  151.3160  136.6882  155.0917 O   0  0  0  0  0  0  0  0  0  0  0  0
  151.0175  136.4677  156.4597 C   0  0  0  0  0  0  0  0  0  0  0  0
  149.4905  136.3999  156.6239 C   0  0  0  0  0  0  0  0  0  0  0  0
  149.0848  135.4846  157.6874 N   0  0  0  0  0  0  0  0  0  0  0  0
  149.0554  134.1195  157.6832 C   0  0  0  0  0  0  0  0  0  0  0  0
  149.4580  133.3330  156.5934 N   0  0  0  0  0  0  0  0  0  0  0  0
  149.3471  131.8733  156.5828 C   0  0  0  0  0  0  0  0  0  0  0  0
  148.6608  131.3633  155.3028 C   0  0  0  0  0  0  0  0  0  0  0  0
  149.3826  131.8324  154.1030 N   0  3  0  0  0  0  0  0  0  0  0  0
  149.5914  133.2939  154.1060 C   0  0  0  0  0  0  0  0  0  0  0  0
  150.2445  133.7417  155.4270 C   0  0  0  0  0  0  0  0  0  0  0  0
  148.5682  133.5815  158.8041 N   0  0  0  0  0  0  0  0  0  0  0  0
  148.2819  134.6828  159.5930 C   0  0  0  0  0  0  0  0  0  0  0  0
  148.5757  135.8391  158.9427 C   0  0  0  0  0  0  0  0  0  0  0  0
  148.3467  137.1841  159.5188 C   0  0  0  0  0  0  0  0  0  0  0  0
  148.6037  138.2018  158.8792 O   0  0  0  0  0  0  0  0  0  0  0  0
  147.8350  137.1237  160.7888 N   0  5  0  0  0  0  0  0  0  0  0  0
  147.5303  135.9743  161.4857 C   0  0  0  0  0  0  0  0  0  0  0  0
  147.0722  136.0087  162.6287 O   0  0  0  0  0  0  0  0  0  0  0  0
  147.7373  134.7512  160.9042 N   0  0  0  0  0  0  0  0  0  0  0  0
  147.4127  133.5121  161.6165 C   0  0  0  0  0  0  0  0  0  0  0  0
  151.7719  139.9446  154.4498 H   0  0  0  0  0  0  0  0  0  0  0  0
  152.9199  138.6306  154.2014 H   0  0  0  0  0  0  0  0  0  0  0  0
  152.3742  139.0282  155.8303 H   0  0  0  0  0  0  0  0  0  0  0  0
  150.0413  138.3090  155.2220 H   0  0  0  0  0  0  0  0  0  0  0  0
  150.5878  137.9116  153.5951 H   0  0  0  0  0  0  0  0  0  0  0  0
  151.4880  135.5437  156.7962 H   0  0  0  0  0  0  0  0  0  0  0  0
  151.4335  137.2713  157.0673 H   0  0  0  0  0  0  0  0  0  0  0  0
  149.0898  137.3905  156.8369 H   0  0  0  0  0  0  0  0  0  0  0  0
  149.0145  136.1076  155.6914 H   0  0  0  0  0  0  0  0  0  0  0  0
  150.3425  131.4380  156.6798 H   0  0  0  0  0  0  0  0  0  0  0  0
  148.7780  131.5340  157.4487 H   0  0  0  0  0  0  0  0  0  0  0  0
  148.6232  130.2739  155.2968 H   0  0  0  0  0  0  0  0  0  0  0  0
  147.6308  131.7202  155.2614 H   0  0  0  0  0  0  0  0  0  0  0  0
  150.2876  131.3847  154.0851 H   0  0  0  0  0  0  0  0  0  0  0  0
  150.2179  133.5690  153.2576 H   0  0  0  0  0  0  0  0  0  0  0  0
  148.6298  133.7888  153.9667 H   0  0  0  0  0  0  0  0  0  0  0  0
  150.4104  134.8142  155.4184 H   0  0  0  0  0  0  0  0  0  0  0  0
  151.2383  133.2990  155.5104 H   0  0  0  0  0  0  0  0  0  0  0  0
  148.0270  133.4159  162.5126 H   0  0  0  0  0  0  0  0  0  0  0  0
  147.5770  132.6224  161.0093 H   0  0  0  0  0  0  0  0  0  0  0  0
  146.3645  133.5068  161.9188 H   0  0  0  0  0  0  0  0  0  0  0  0
  148.8685  131.5667  153.2754 H   0  0  0  0  0  0  0  0  0  0  0  0
  1  2  1  0  0  0  0
  1 24  1  0  0  0  0
  1 25  1  0  0  0  0
  1 26  1  0  0  0  0
  2  3  1  0  0  0  0
  2 27  1  0  0  0  0
  2 28  1  0  0  0  0
  3  4  1  0  0  0  0
  4  5  1  0  0  0  0
  4 29  1  0  0  0  0
  4 30  1  0  0  0  0
  5  6  1  0  0  0  0
  5 31  1  0  0  0  0
  5 32  1  0  0  0  0
  6 16  1  0  0  0  0
  6  7  1  0  0  0  0
  7  8  1  0  0  0  0
  7 14  2  0  0  0  0
  8 13  1  0  0  0  0
  8  9  1  0  0  0  0
  9 10  1  0  0  0  0
  9 33  1  0  0  0  0
  9 34  1  0  0  0  0
 10 11  1  0  0  0  0
 10 35  1  0  0  0  0
 10 36  1  0  0  0  0
 11 12  1  0  0  0  0
 11 37  1  0  0  0  0
 11 45  1  0  0  0  0
 12 13  1  0  0  0  0
 12 38  1  0  0  0  0
 12 39  1  0  0  0  0
 13 40  1  0  0  0  0
 13 41  1  0  0  0  0
 14 15  1  0  0  0  0
 15 22  1  0  0  0  0
 15 16  2  0  0  0  0
 16 17  1  0  0  0  0
 17 18  2  0  0  0  0
 17 19  1  0  0  0  0
 19 20  1  0  0  0  0
 20 21  2  0  0  0  0
 20 22  1  0  0  0  0
 22 23  1  0  0  0  0
 23 42  1  0  0  0  0
 23 43  1  0  0  0  0
 23 44  1  0  0  0  0
M  CHG  1  11   1
M  CHG  1  19  -1
M  END
> <s_m_source_file>
AV-unprocessed.smi

> <i_m_source_file_index>
514

> <i_lp_mmshare_version>
43012

> <i_f3d_flags>
0

> <s_epik_input>
W0NIM11uMWMoPU8pW25IXWMoPU8pYyhjMTIpbihbQ0gyXVtDSDJdT1tDSDJdW0NIM10pYyhuMilOM1tDSDJdW0NIMl1bTkhdW0NIMl1bQ0gyXTM=

> <s_epik_cmdline>
J2VwaWtfcHl0aG9uJywgJy1waCcsICc3LjAnLCAnLXRuJywgJzgnLCAnLW1hJywgJzIwMCcsICctbWV0YWxfYmluZGluZycsICctaW1hZScsICc8aW5maWxlLm1hZT4nLCAnLW9tYWUnLCAnPG91dGZpbGUubWFlPic=

> <r_epik_Ionization_Penalty>
5.92505

> <r_epik_Ionization_Penalty_Charging>
0.0655308

> <r_epik_Ionization_Penalty_Neutral>
5.85952

> <r_epik_State_Penalty>
5.86593

> <r_epik_Charging_Adjusted_Penalty>
5.93146

> <i_epik_Tot_Q>
0

> <i_epik_Tot_abs_Q>
2

> <r_epik_Metal_State_Penalty>
1.83024

> <b_epik_Metal_Only>
1

> <s_lp_Force_Field>
OPLS_2005

> <r_lp_Energy>
48.6867

> <b_lp_Chiralities_Consistent>
1

> <s_lp_Variant>
AV-unprocessed.smi:514-3

> <Gold.Version>
5.8.1

> <Gold.Id.Protein>
6NUR|6NUR_protein|mol2

> <Gold.PLP.Fitness>
44.1028

> <Gold.PLP.PLP>
-31.9649

> <Gold.PLP.part.hbond>
-4.1514

> <Gold.PLP.part.metal>
0.0000

> <Gold.PLP.part.buried>
-6.1061

> <Gold.PLP.part.nonpolar>
-23.3833

> <Gold.PLP.part.repulsive>
0.1304

> <Gold.PLP.ligand.clash>
0.0000

> <Gold.PLP.ligand.torsion>
0.6621

> <Gold.PLP.Chemscore.Hbond>
4.4560

> <Gold.PLP.Chemscore.CHOScore>
0.0000

> <Gold.PLP.Chemscore.Metal>
0.0000

> <Gold.Chemscore.Hbonds>
donor molecule, donor type, donor heavy atom, donor atom, acceptor molecule, acceptor atom, score
      P1  H  6931  6943       L1    19  1.76
      P1  H  6934  6947       L1    19  1.53
      P1  H 10752 10764       L1     3  1.00

> <Gold.PLP.Chemscore.Internal.Correction>
0.0940

> <Gold.Rescore>
     Score         DG    S(hbond)    S(metal)    S(lipo)     H(rot)  DE(clash)    DE(int)     intcor
     12.06     -12.96       1.81        0.00      49.88       1.72       0.00       0.90       ----

> <Gold.Chemscore.Fitness>
12.0608

> <Gold.Chemscore.DG>
-12.9627

> <Gold.Chemscore.ZeroCoef>
-5.4800

> <Gold.Chemscore.Hbond>
1.8124

> <Gold.Chemscore.Metal>
0.0000

> <Gold.Chemscore.Lipo>
49.8816

> <Gold.Chemscore.Internal_Hbond>
0.0000

> <Gold.Chemscore.DEClash>
0.0000

> <Gold.Chemscore.DEInternal>
0.9018

> <Gold.Chemscore.Rot>
1.7214

> <Gold.Chemscore.Internal.Correction>
   9.000000E+99

> <Gold.Chemscore.Hbonds>
donor molecule, donor type, donor heavy atom, donor atom, acceptor molecule, acceptor atom, score
      P1  H  6931  6943       L1    19  0.29
      P1  H  6934  6947       L1    19  0.14
      P1  H 10752 10764       L1     3  0.62

> <Gold.Chemscore.Hbond.Weighted>
-6.0534

> <Gold.Chemscore.Metal.Weighted>
-0.0000

> <Gold.Chemscore.Lipo.Weighted>
-5.8361

> <Gold.Chemscore.Internal_Hbond.Weighted>
0.0000

> <Gold.Chemscore.DEClash.Weighted>
0.0000

> <Gold.Chemscore.DEInternal.Weighted>
0.9018

> <Gold.Chemscore.Rot.Weighted>
4.4069

> <Gold.Chemscore.Internal.Correction.Weighted>
   9.000000E+99

> <Gold.Protein.RotatedTorsions>
[ 6907 6896 6895 6894 ] final  174.59 input  -60.11 | X-H torsion
[ 7974 7965 7964 7962 ] final   89.47 input  175.53 | X-H torsion
[ 8008 7997 7996 7995 ] final   99.30 input   59.86 | X-H torsion
[ 10167 10162 10161 10158 ] final  -17.16 input  -65.29 | X-H torsion
[ 10718 10713 10712 10709 ] final  109.45 input   66.30 | X-H torsion
[ 10763 10752 10751 10750 ] final  -56.94 input  -60.55 | X-H torsion
[ 11005 11000 10999 10996 ] final   12.42 input  -57.11 | X-H torsion

> <Gold.Protein.ActiveResidues>
 VAL166  LYS551  ARG553  GLY616  TRP617  ASP618  TYR619  PRO620  LYS621  CYS622 
 ASP623  PHE694  ASN695  SER759  ASP760  ASP761  ALA762  ILE779  LEU786  VAL792 
 PHE793  MET794  SER795  GLU796  ALA797  LYS798  CYS799  TRP800  GLU811  SER814 

> <Gold.Protein.RotatedAtoms>
  151.7498  133.3326  159.3388 H   0  0  0  0  0  0  0  0  0  0  0  0  # atno 6907 bound_to 6896
  150.7540  134.6203  159.6142 H   0  0  0  0  0  0  0  0  0  0  0  0  # atno 6908 bound_to 6896
  152.3476  134.7052  160.0297 H   0  0  0  0  0  0  0  0  0  0  0  0  # atno 6909 bound_to 6896
  145.5319  139.2283  143.2614 H   0  0  0  0  0  0  0  0  0  0  0  0  # atno 7974 bound_to 7965
  156.1091  140.3231  155.8047 H   0  0  0  0  0  0  0  0  0  0  0  0  # atno 8008 bound_to 7997
  155.4704  140.0546  157.2997 H   0  0  0  0  0  0  0  0  0  0  0  0  # atno 8009 bound_to 7997
  154.4747  140.2027  155.9921 H   0  0  0  0  0  0  0  0  0  0  0  0  # atno 8010 bound_to 7997
  140.7243  143.5043  150.9829 H   0  0  0  0  0  0  0  0  0  0  0  0  # atno 10167 bound_to 10162
  157.6541  131.0914  150.6455 H   0  0  0  0  0  0  0  0  0  0  0  0  # atno 10718 bound_to 10713
  154.2146  135.6388  153.5126 H   0  0  0  0  0  0  0  0  0  0  0  0  # atno 10763 bound_to 10752
  152.9982  135.5482  154.6178 H   0  0  0  0  0  0  0  0  0  0  0  0  # atno 10764 bound_to 10752
  154.5624  135.2910  155.0880 H   0  0  0  0  0  0  0  0  0  0  0  0  # atno 10765 bound_to 10752
  140.4922  134.0829  155.7774 H   0  0  0  0  0  0  0  0  0  0  0  0  # atno 11005 bound_to 11000
  146.2039  140.6135  142.9090 LP  0  0  0  0  0  0  0  0  0  0  0  0  # atno 17320 bound_to 7965
  144.7622  140.5447  143.6728 LP  0  0  0  0  0  0  0  0  0  0  0  0  # atno 17321 bound_to 7965
  139.8754  143.7139  152.3162 LP  0  0  0  0  0  0  0  0  0  0  0  0  # atno 17342 bound_to 10162
  139.7403  144.7561  151.0663 LP  0  0  0  0  0  0  0  0  0  0  0  0  # atno 17343 bound_to 10162
  156.6763  130.4554  149.5641 LP  0  0  0  0  0  0  0  0  0  0  0  0  # atno 17370 bound_to 10713
  156.1961  130.6590  151.1116 LP  0  0  0  0  0  0  0  0  0  0  0  0  # atno 17371 bound_to 10713
  141.1478  133.9023  157.2172 LP  0  0  0  0  0  0  0  0  0  0  0  0  # atno 17394 bound_to 11000
  139.9762  135.0113  156.9638 LP  0  0  0  0  0  0  0  0  0  0  0  0  # atno 17395 bound_to 11000

$$$$
