AV-unprocessed.smi:114|AV-procd|sdf|1120|dock2
  -GOLD-   2262018243D 1   1.00000     0.00000
 Structure written by MMmdl.
 32 34  0  0  0  0  0  0  0  0  1 V2000
  153.9899  138.5549  160.7380 N   0  0  0  0  0  0  0  0  0  0  0  0
  153.4941  139.5568  159.9981 C   0  0  0  0  0  0  0  0  0  0  0  0
  153.6738  140.8274  160.4293 N   0  0  0  0  0  0  0  0  0  0  0  0
  153.1931  141.8571  159.7206 C   0  0  0  0  0  0  0  0  0  0  0  0
  153.4191  143.0922  160.2265 F   0  0  0  0  0  0  0  0  0  0  0  0
  152.5138  141.8034  158.5693 N   0  0  0  0  0  0  0  0  0  0  0  0
  152.3336  140.5234  158.1334 C   0  0  0  0  0  0  0  0  0  0  0  0
  152.7900  139.3489  158.7870 C   0  0  0  0  0  0  0  0  0  0  0  0
  152.4225  138.2281  158.0548 N   0  0  0  0  0  0  0  0  0  0  0  0
  151.7823  138.7195  157.0267 C   0  0  0  0  0  0  0  0  0  0  0  0
  151.6779  140.0954  157.0003 N   0  0  0  0  0  0  0  0  0  0  0  0
  151.0231  140.9853  155.9860 C   0  0  1  0  0  0  0  0  0  0  0  0
  150.5360  140.1889  154.9481 O   0  0  0  0  0  0  0  0  0  0  0  0
  149.1302  140.0205  155.0908 C   0  0  2  0  0  0  0  0  0  0  0  0
  148.4837  139.5737  153.7686 C   0  0  0  0  0  0  0  0  0  0  0  0
  149.0364  138.3426  153.3551 O   0  0  0  0  0  0  0  0  0  0  0  0
  148.6876  141.3910  155.6181 C   0  0  2  0  0  0  0  0  0  0  0  0
  148.5860  142.3346  154.5668 O   0  0  0  0  0  0  0  0  0  0  0  0
  149.8190  141.7681  156.5673 C   0  0  1  0  0  0  0  0  0  0  0  0
  149.4734  141.4000  157.8921 O   0  0  0  0  0  0  0  0  0  0  0  0
  151.8277  141.6251  155.6217 H   0  0  0  0  0  0  0  0  0  0  0  0
  148.9353  139.2805  155.8693 H   0  0  0  0  0  0  0  0  0  0  0  0
  147.7187  141.3403  156.1172 H   0  0  0  0  0  0  0  0  0  0  0  0
  150.0343  142.8374  156.5515 H   0  0  0  0  0  0  0  0  0  0  0  0
  153.8665  137.5991  160.4355 H   0  0  0  0  0  0  0  0  0  0  0  0
  154.4835  138.7565  161.5955 H   0  0  0  0  0  0  0  0  0  0  0  0
  151.3701  138.0824  156.2579 H   0  0  0  0  0  0  0  0  0  0  0  0
  147.4130  139.4205  153.9067 H   0  0  0  0  0  0  0  0  0  0  0  0
  148.6095  140.3251  152.9883 H   0  0  0  0  0  0  0  0  0  0  0  0
  149.4884  138.4755  152.5359 H   0  0  0  0  0  0  0  0  0  0  0  0
  148.6824  143.2017  154.9301 H   0  0  0  0  0  0  0  0  0  0  0  0
  149.5494  142.1650  158.4420 H   0  0  0  0  0  0  0  0  0  0  0  0
  1  2  1  0  0  0  0
  1 25  1  0  0  0  0
  1 26  1  0  0  0  0
  2  8  1  0  0  0  0
  2  3  2  0  0  0  0
  3  4  1  0  0  0  0
  4  5  1  0  0  0  0
  4  6  2  0  0  0  0
  6  7  1  0  0  0  0
  7 11  1  0  0  0  0
  7  8  2  0  0  0  0
  8  9  1  0  0  0  0
  9 10  2  0  0  0  0
 10 11  1  0  0  0  0
 10 27  1  0  0  0  0
 11 12  1  0  0  0  0
 12 21  1  0  0  0  0
 12 19  1  0  0  0  0
 12 13  1  0  0  0  0
 13 14  1  0  0  0  0
 14 22  1  0  0  0  0
 14 15  1  0  0  0  0
 14 17  1  0  0  0  0
 15 16  1  0  0  0  0
 15 28  1  0  0  0  0
 15 29  1  0  0  0  0
 16 30  1  0  0  0  0
 17 23  1  0  0  0  0
 17 18  1  0  0  0  0
 17 19  1  0  0  0  0
 18 31  1  0  0  0  0
 19 24  1  0  0  0  0
 19 20  1  0  0  0  0
 20 32  1  0  0  0  0
M  END
> <s_m_source_file>
AV-unprocessed.smi

> <i_m_source_file_index>
114

> <i_lp_mmshare_version>
43012

> <i_f3d_flags>
0

> <s_epik_input>
RmMobjEpbmMoW05IMl0pYyhjMTIpbltjSF1uMltDQEBIXTNPW0NASF0oW0NIMl1bT0hdKVtDQEBIXShbT0hdKVtDQEBIXTNbT0hd

> <s_epik_cmdline>
J2VwaWtfcHl0aG9uJywgJy1waCcsICc3LjAnLCAnLXRuJywgJzgnLCAnLW1hJywgJzIwMCcsICctbWV0YWxfYmluZGluZycsICctaW1hZScsICc8aW5maWxlLm1hZT4nLCAnLW9tYWUnLCAnPG91dGZpbGUubWFlPic=

> <r_lp_tautomer_probability>
1

> <r_epik_Ionization_Penalty>
1.13199e-05

> <r_epik_Ionization_Penalty_Charging>
0

> <r_epik_Ionization_Penalty_Neutral>
1.13199e-05

> <r_epik_State_Penalty>
-0

> <r_epik_Charging_Adjusted_Penalty>
0

> <i_epik_Tot_Q>
0

> <i_epik_Tot_abs_Q>
0

> <r_epik_Metal_State_Penalty>
-0

> <b_epik_Metal_Only>
0

> <s_epik_Chemistry_Notes>
This compound contains an acetal/aminal-like group ( X-CH(R)-Y where X, Y are N, S, or O) that may be acid/base labile, releasing an aldehyde.

> <s_lp_Force_Field>
OPLS_2005

> <r_lp_Energy>
38.7556

> <b_lp_Chiralities_Consistent>
1

> <s_lp_Variant>
AV-unprocessed.smi:114-14

> <Gold.Version>
5.8.1

> <Gold.Id.Protein>
6NUR|6NUR_protein|mol2

> <Gold.PLP.Fitness>
39.3842

> <Gold.PLP.PLP>
-31.0384

> <Gold.PLP.part.hbond>
-4.0000

> <Gold.PLP.part.metal>
0.0000

> <Gold.PLP.part.buried>
-3.6372

> <Gold.PLP.part.nonpolar>
-23.5870

> <Gold.PLP.part.repulsive>
0.0959

> <Gold.PLP.ligand.clash>
0.0000

> <Gold.PLP.ligand.torsion>
0.0338

> <Gold.PLP.Chemscore.Hbond>
2.7840

> <Gold.PLP.Chemscore.CHOScore>
0.0000

> <Gold.PLP.Chemscore.Metal>
0.0000

> <Gold.Chemscore.Hbonds>
donor molecule, donor type, donor heavy atom, donor atom, acceptor molecule, acceptor atom, score
      L1  H    16    30       P1  7957  0.66
      L1  H    18    31       P1  8028  1.00
      P1  H  7989  7998       L1    13  0.95

> <Gold.PLP.Chemscore.Internal.Correction>
0.0612

> <Gold.Rescore>
     Score         DG    S(hbond)    S(metal)    S(lipo)     H(rot)  DE(clash)    DE(int)     intcor
      3.59      -5.51       2.20        0.00      25.61       4.03       0.76       1.16       ----

> <Gold.Chemscore.Fitness>
3.5927

> <Gold.Chemscore.DG>
-5.5069

> <Gold.Chemscore.ZeroCoef>
-5.4800

> <Gold.Chemscore.Hbond>
2.1980

> <Gold.Chemscore.Metal>
0.0000

> <Gold.Chemscore.Lipo>
25.6101

> <Gold.Chemscore.Internal_Hbond>
0.0000

> <Gold.Chemscore.DEClash>
0.7578

> <Gold.Chemscore.DEInternal>
1.1564

> <Gold.Chemscore.Rot>
4.0277

> <Gold.Chemscore.Internal.Correction>
   9.000000E+99

> <Gold.Chemscore.Hbonds>
donor molecule, donor type, donor heavy atom, donor atom, acceptor molecule, acceptor atom, score
      L1  H    16    30       P1  7957  0.35
      L1  H    18    31       P1  8028  1.00
      P1  H  7989  7998       L1    13  0.21

> <Gold.Chemscore.Hbond.Weighted>
-7.3415

> <Gold.Chemscore.Metal.Weighted>
-0.0000

> <Gold.Chemscore.Lipo.Weighted>
-2.9964

> <Gold.Chemscore.Internal_Hbond.Weighted>
0.0000

> <Gold.Chemscore.DEClash.Weighted>
0.7578

> <Gold.Chemscore.DEInternal.Weighted>
1.1564

> <Gold.Chemscore.Rot.Weighted>
10.3110

> <Gold.Chemscore.Internal.Correction.Weighted>
   9.000000E+99

> <Gold.Protein.RotatedTorsions>
[ 6907 6896 6895 6894 ] final -168.33 input  -60.11 | X-H torsion
[ 7974 7965 7964 7962 ] final -173.02 input  175.53 | X-H torsion
[ 8008 7997 7996 7995 ] final  143.79 input   59.86 | X-H torsion
[ 10167 10162 10161 10158 ] final  100.62 input  -65.29 | X-H torsion
[ 10718 10713 10712 10709 ] final  -11.98 input   66.30 | X-H torsion
[ 10763 10752 10751 10750 ] final   97.08 input  -60.55 | X-H torsion
[ 11005 11000 10999 10996 ] final   55.56 input  -57.11 | X-H torsion

> <Gold.Protein.ActiveResidues>
 VAL166  LYS551  ARG553  GLY616  TRP617  ASP618  TYR619  PRO620  LYS621  CYS622 
 ASP623  PHE694  ASN695  SER759  ASP760  ASP761  ALA762  ILE779  LEU786  VAL792 
 PHE793  MET794  SER795  GLU796  ALA797  LYS798  CYS799  TRP800  GLU811  SER814 

> <Gold.Protein.RotatedAtoms>
  151.4738  133.3562  159.2827 H   0  0  0  0  0  0  0  0  0  0  0  0  # atno 6907 bound_to 6896
  150.8943  134.8351  159.7326 H   0  0  0  0  0  0  0  0  0  0  0  0  # atno 6908 bound_to 6896
  152.4842  134.4651  159.9669 H   0  0  0  0  0  0  0  0  0  0  0  0  # atno 6909 bound_to 6896
  144.7141  140.1685  143.6369 H   0  0  0  0  0  0  0  0  0  0  0  0  # atno 7974 bound_to 7965
  156.2922  140.2253  156.4948 H   0  0  0  0  0  0  0  0  0  0  0  0  # atno 8008 bound_to 7997
  154.7740  140.0464  157.1095 H   0  0  0  0  0  0  0  0  0  0  0  0  # atno 8009 bound_to 7997
  154.9840  140.3082  155.4938 H   0  0  0  0  0  0  0  0  0  0  0  0  # atno 8010 bound_to 7997
  139.7510  144.6984  151.0432 H   0  0  0  0  0  0  0  0  0  0  0  0  # atno 10167 bound_to 10162
  156.6512  130.4955  149.6061 H   0  0  0  0  0  0  0  0  0  0  0  0  # atno 10718 bound_to 10713
  153.2726  135.4196  155.1002 H   0  0  0  0  0  0  0  0  0  0  0  0  # atno 10763 bound_to 10752
  154.8461  135.3476  154.6223 H   0  0  0  0  0  0  0  0  0  0  0  0  # atno 10764 bound_to 10752
  153.6643  135.7047  153.5225 H   0  0  0  0  0  0  0  0  0  0  0  0  # atno 10765 bound_to 10752
  140.0597  134.5619  155.9166 H   0  0  0  0  0  0  0  0  0  0  0  0  # atno 11005 bound_to 11000
  145.8965  139.2406  143.1518 LP  0  0  0  0  0  0  0  0  0  0  0  0  # atno 17320 bound_to 7965
  145.9852  140.8649  143.0094 LP  0  0  0  0  0  0  0  0  0  0  0  0  # atno 17321 bound_to 7965
  140.7798  143.4809  151.0020 LP  0  0  0  0  0  0  0  0  0  0  0  0  # atno 17342 bound_to 10162
  139.8496  143.7456  152.3178 LP  0  0  0  0  0  0  0  0  0  0  0  0  # atno 17343 bound_to 10162
  156.2083  130.6663  151.1242 LP  0  0  0  0  0  0  0  0  0  0  0  0  # atno 17370 bound_to 10713
  157.7140  131.0719  150.6396 LP  0  0  0  0  0  0  0  0  0  0  0  0  # atno 17371 bound_to 10713
  141.1968  133.6593  156.5708 LP  0  0  0  0  0  0  0  0  0  0  0  0  # atno 17394 bound_to 11000
  140.3789  134.7541  157.4648 LP  0  0  0  0  0  0  0  0  0  0  0  0  # atno 17395 bound_to 11000

$$$$
