AV-unprocessed.smi:1435|AV-procd|sdf|5858|dock5
  -GOLD-   22720 5533D 1   1.00000     0.00000
 Structure written by MMmdl.
 44 45  0  0  0  0  0  0  0  0  2 V2000
  145.7163  133.8192  156.8991 O   0  0  0  0  0  0  0  0  0  0  0  0
  146.0597  134.9587  156.5840 C   0  0  0  0  0  0  0  0  0  0  0  0
  146.7242  135.8726  157.6149 C   0  0  0  0  0  0  0  0  0  0  0  0
  146.8887  135.1915  158.9850 C   0  0  0  0  0  0  0  0  0  0  0  0
  148.0228  136.1443  160.0919 S   0  0  0  0  0  0  0  0  0  0  0  0
  149.3662  136.1366  159.4930 O   0  0  0  0  0  0  0  0  0  0  0  0
  147.3846  137.4326  160.4042 O   0  0  0  0  0  0  0  0  0  0  0  0
  148.0486  135.0948  161.6211 C   0  0  0  0  0  0  0  0  0  0  0  0
  147.1514  133.8582  161.4801 C   0  0  0  0  0  0  0  0  0  0  0  0
  145.7532  134.2844  161.9530 C   0  0  0  0  0  0  0  0  0  0  0  0
  145.9274  135.6211  162.6888 C   0  0  0  0  0  0  0  0  0  0  0  0
  147.4373  135.8405  162.8102 C   0  0  0  0  0  0  0  0  0  0  0  0
  145.8652  135.4766  155.3620 N   0  0  0  0  0  0  0  0  0  0  0  0
  145.1743  134.8000  154.2719 C   0  0  0  0  0  0  0  0  0  0  0  0
  146.1034  134.5957  153.0635 C   0  0  0  0  0  0  0  0  0  0  0  0
  145.4473  133.7776  151.9691 C   0  0  0  0  0  0  0  0  0  0  0  0
  146.0511  132.5913  151.4971 C   0  0  0  0  0  0  0  0  0  0  0  0
  145.4148  131.8497  150.4799 C   0  0  0  0  0  0  0  0  0  0  0  0
  144.1891  132.3115  149.9578 C   0  0  0  0  0  0  0  0  0  0  0  0
  143.6414  133.4508  150.4349 N   0  3  0  0  0  0  0  0  0  0  0  0
  144.2192  134.1893  151.4081 C   0  0  0  0  0  0  0  0  0  0  0  0
  147.7065  136.1457  157.2286 H   0  0  0  0  0  0  0  0  0  0  0  0
  146.1669  136.8046  157.7201 H   0  0  0  0  0  0  0  0  0  0  0  0
  145.9281  135.0670  159.4849 H   0  0  0  0  0  0  0  0  0  0  0  0
  147.3144  134.1971  158.8534 H   0  0  0  0  0  0  0  0  0  0  0  0
  149.0867  134.8244  161.8155 H   0  0  0  0  0  0  0  0  0  0  0  0
  147.1380  133.4506  160.4697 H   0  0  0  0  0  0  0  0  0  0  0  0
  147.5251  133.0713  162.1364 H   0  0  0  0  0  0  0  0  0  0  0  0
  145.0774  134.4071  161.1058 H   0  0  0  0  0  0  0  0  0  0  0  0
  145.3204  133.5252  162.6054 H   0  0  0  0  0  0  0  0  0  0  0  0
  145.4836  136.4243  162.0995 H   0  0  0  0  0  0  0  0  0  0  0  0
  145.4365  135.6241  163.6625 H   0  0  0  0  0  0  0  0  0  0  0  0
  147.7925  135.3895  163.7377 H   0  0  0  0  0  0  0  0  0  0  0  0
  147.7067  136.8967  162.8388 H   0  0  0  0  0  0  0  0  0  0  0  0
  146.1793  136.4211  155.1906 H   0  0  0  0  0  0  0  0  0  0  0  0
  144.8218  133.8357  154.6392 H   0  0  0  0  0  0  0  0  0  0  0  0
  144.2875  135.3673  153.9838 H   0  0  0  0  0  0  0  0  0  0  0  0
  146.4023  135.5590  152.6474 H   0  0  0  0  0  0  0  0  0  0  0  0
  147.0235  134.1010  153.3775 H   0  0  0  0  0  0  0  0  0  0  0  0
  146.9903  132.2519  151.9097 H   0  0  0  0  0  0  0  0  0  0  0  0
  145.8609  130.9396  150.1059 H   0  0  0  0  0  0  0  0  0  0  0  0
  143.6342  131.8080  149.1797 H   0  0  0  0  0  0  0  0  0  0  0  0
  143.6849  135.0799  151.7066 H   0  0  0  0  0  0  0  0  0  0  0  0
  142.7537  133.7668  150.0436 H   0  0  0  0  0  0  0  0  0  0  0  0
  1  2  2  0  0  0  0
  2  3  1  0  0  0  0
  2 13  1  0  0  0  0
  3  4  1  0  0  0  0
  3 22  1  0  0  0  0
  3 23  1  0  0  0  0
  4  5  1  0  0  0  0
  4 24  1  0  0  0  0
  4 25  1  0  0  0  0
  5  6  2  0  0  0  0
  5  7  2  0  0  0  0
  5  8  1  0  0  0  0
  8 12  1  0  0  0  0
  8  9  1  0  0  0  0
  8 26  1  0  0  0  0
  9 10  1  0  0  0  0
  9 27  1  0  0  0  0
  9 28  1  0  0  0  0
 10 11  1  0  0  0  0
 10 29  1  0  0  0  0
 10 30  1  0  0  0  0
 11 12  1  0  0  0  0
 11 31  1  0  0  0  0
 11 32  1  0  0  0  0
 12 33  1  0  0  0  0
 12 34  1  0  0  0  0
 13 14  1  0  0  0  0
 13 35  1  0  0  0  0
 14 15  1  0  0  0  0
 14 36  1  0  0  0  0
 14 37  1  0  0  0  0
 15 16  1  0  0  0  0
 15 38  1  0  0  0  0
 15 39  1  0  0  0  0
 16 21  1  0  0  0  0
 16 17  2  0  0  0  0
 17 18  1  0  0  0  0
 17 40  1  0  0  0  0
 18 19  2  0  0  0  0
 18 41  1  0  0  0  0
 19 20  1  0  0  0  0
 19 42  1  0  0  0  0
 20 21  2  0  0  0  0
 20 44  1  0  0  0  0
 21 43  1  0  0  0  0
M  CHG  1  20   1
M  END
> <s_m_source_file>
AV-unprocessed.smi

> <i_m_source_file_index>
1435

> <i_lp_mmshare_version>
43012

> <i_f3d_flags>
0

> <s_epik_input>
W0NIMl0xW0NIMl1bQ0gyXVtDSDJdW0NIXTFTKD1PKSg9TylbQ0gyXVtDSDJdQyg9TylbTkhdW0NIMl1bQ0gyXWMyW2NIXVtjSF1bY0hdbltjSF0y

> <s_epik_cmdline>
J2VwaWtfcHl0aG9uJywgJy1waCcsICc3LjAnLCAnLXRuJywgJzgnLCAnLW1hJywgJzIwMCcsICctbWV0YWxfYmluZGluZycsICctaW1hZScsICc8aW5maWxlLm1hZT4nLCAnLW9tYWUnLCAnPG91dGZpbGUubWFlPic=

> <r_epik_Ionization_Penalty>
2.2792

> <r_epik_Ionization_Penalty_Charging>
2.2792

> <r_epik_Ionization_Penalty_Neutral>
6.52611e-08

> <r_epik_State_Penalty>
2.42836

> <r_epik_Charging_Adjusted_Penalty>
4.70756

> <i_epik_Tot_Q>
1

> <i_epik_Tot_abs_Q>
1

> <r_epik_Metal_State_Penalty>
2.44099

> <b_epik_Metal_Only>
0

> <s_lp_Force_Field>
OPLS_2005

> <r_lp_Energy>
17.5712

> <b_lp_Chiralities_Consistent>
1

> <s_lp_Variant>
AV-unprocessed.smi:1435-2

> <Gold.Version>
5.8.1

> <Gold.Id.Protein>
6NUR|6NUR_protein|mol2

> <Gold.PLP.Fitness>
45.4872

> <Gold.PLP.PLP>
-33.0710

> <Gold.PLP.part.hbond>
-3.8199

> <Gold.PLP.part.metal>
0.0000

> <Gold.PLP.part.buried>
-5.8712

> <Gold.PLP.part.nonpolar>
-23.5092

> <Gold.PLP.part.repulsive>
0.0545

> <Gold.PLP.ligand.clash>
0.0000

> <Gold.PLP.ligand.torsion>
0.1827

> <Gold.PLP.Chemscore.Hbond>
4.1622

> <Gold.PLP.Chemscore.CHOScore>
0.0000

> <Gold.PLP.Chemscore.Metal>
0.0000

> <Gold.Chemscore.Hbonds>
donor molecule, donor type, donor heavy atom, donor atom, acceptor molecule, acceptor atom, score
      L1  H    20    44       P1 10186  2.00
      P1  H  6896  6908       L1     6  0.99
      P1  H  6931  6943       L1     7  0.09
      P1  H  6934  6947       L1     7  1.00

> <Gold.PLP.Chemscore.Internal.Correction>
0.2948

> <Gold.Rescore>
     Score         DG    S(hbond)    S(metal)    S(lipo)     H(rot)  DE(clash)    DE(int)     intcor
     19.50     -19.76       2.97        0.00      84.13       2.14       0.00       0.26       ----

> <Gold.Chemscore.Fitness>
19.5012

> <Gold.Chemscore.DG>
-19.7581

> <Gold.Chemscore.ZeroCoef>
-5.4800

> <Gold.Chemscore.Hbond>
2.9688

> <Gold.Chemscore.Metal>
0.0000

> <Gold.Chemscore.Lipo>
84.1269

> <Gold.Chemscore.Internal_Hbond>
0.0000

> <Gold.Chemscore.DEClash>
0.0000

> <Gold.Chemscore.DEInternal>
0.2569

> <Gold.Chemscore.Rot>
2.1408

> <Gold.Chemscore.Internal.Correction>
   9.000000E+99

> <Gold.Chemscore.Hbonds>
donor molecule, donor type, donor heavy atom, donor atom, acceptor molecule, acceptor atom, score
      L1  H    20    44       P1 10186  1.00
      P1  H  6896  6908       L1     6  0.87
      P1  H  6931  6943       L1     7  0.02
      P1  H  6934  6947       L1     7  0.97

> <Gold.Chemscore.Hbond.Weighted>
-9.9157

> <Gold.Chemscore.Metal.Weighted>
-0.0000

> <Gold.Chemscore.Lipo.Weighted>
-9.8428

> <Gold.Chemscore.Internal_Hbond.Weighted>
0.0000

> <Gold.Chemscore.DEClash.Weighted>
0.0000

> <Gold.Chemscore.DEInternal.Weighted>
0.2569

> <Gold.Chemscore.Rot.Weighted>
5.4805

> <Gold.Chemscore.Internal.Correction.Weighted>
   9.000000E+99

> <Gold.Protein.RotatedTorsions>
[ 6907 6896 6895 6894 ] final  168.30 input  -60.11 | X-H torsion
[ 7974 7965 7964 7962 ] final -122.50 input  175.53 | X-H torsion
[ 8008 7997 7996 7995 ] final -150.54 input   59.86 | X-H torsion
[ 10167 10162 10161 10158 ] final -101.94 input  -65.29 | X-H torsion
[ 10718 10713 10712 10709 ] final   74.08 input   66.30 | X-H torsion
[ 10763 10752 10751 10750 ] final -100.19 input  -60.55 | X-H torsion
[ 11005 11000 10999 10996 ] final  108.46 input  -57.11 | X-H torsion

> <Gold.Protein.ActiveResidues>
 VAL166  LYS551  ARG553  GLY616  TRP617  ASP618  TYR619  PRO620  LYS621  CYS622 
 ASP623  PHE694  ASN695  SER759  ASP760  ASP761  ALA762  ILE779  LEU786  VAL792 
 PHE793  MET794  SER795  GLU796  ALA797  LYS798  CYS799  TRP800  GLU811  SER814 

> <Gold.Protein.RotatedAtoms>
  151.8497  133.3438  159.3669 H   0  0  0  0  0  0  0  0  0  0  0  0  # atno 6907 bound_to 6896
  150.7210  134.5311  159.5710 H   0  0  0  0  0  0  0  0  0  0  0  0  # atno 6908 bound_to 6896
  152.2802  134.7838  160.0449 H   0  0  0  0  0  0  0  0  0  0  0  0  # atno 6909 bound_to 6896
  145.0288  140.8050  143.4336 H   0  0  0  0  0  0  0  0  0  0  0  0  # atno 7974 bound_to 7965
  155.6252  140.0685  157.2666 H   0  0  0  0  0  0  0  0  0  0  0  0  # atno 8008 bound_to 7997
  154.4219  140.1777  156.1463 H   0  0  0  0  0  0  0  0  0  0  0  0  # atno 8009 bound_to 7997
  155.9977  140.3339  155.6818 H   0  0  0  0  0  0  0  0  0  0  0  0  # atno 8010 bound_to 7997
  140.2360  143.3573  152.0845 H   0  0  0  0  0  0  0  0  0  0  0  0  # atno 10167 bound_to 10162
  157.6576  130.9660  150.1160 H   0  0  0  0  0  0  0  0  0  0  0  0  # atno 10718 bound_to 10713
  154.7559  135.4944  153.9374 H   0  0  0  0  0  0  0  0  0  0  0  0  # atno 10763 bound_to 10752
  153.1196  135.6728  153.9367 H   0  0  0  0  0  0  0  0  0  0  0  0  # atno 10764 bound_to 10752
  153.9103  135.3100  155.3427 H   0  0  0  0  0  0  0  0  0  0  0  0  # atno 10765 bound_to 10752
  139.8844  134.9431  156.5977 H   0  0  0  0  0  0  0  0  0  0  0  0  # atno 11005 bound_to 11000
  145.1798  139.2358  143.5298 LP  0  0  0  0  0  0  0  0  0  0  0  0  # atno 17320 bound_to 7965
  146.3496  140.1569  142.8591 LP  0  0  0  0  0  0  0  0  0  0  0  0  # atno 17321 bound_to 7965
  139.5094  144.6866  151.5872 LP  0  0  0  0  0  0  0  0  0  0  0  0  # atno 17342 bound_to 10162
  140.6150  143.9366  150.6481 LP  0  0  0  0  0  0  0  0  0  0  0  0  # atno 17343 bound_to 10162
  156.2044  130.3662  149.8748 LP  0  0  0  0  0  0  0  0  0  0  0  0  # atno 17370 bound_to 10713
  156.6643  130.8795  151.3552 LP  0  0  0  0  0  0  0  0  0  0  0  0  # atno 17371 bound_to 10713
  140.7908  133.8584  155.8644 LP  0  0  0  0  0  0  0  0  0  0  0  0  # atno 17394 bound_to 11000
  140.9679  134.1570  157.4601 LP  0  0  0  0  0  0  0  0  0  0  0  0  # atno 17395 bound_to 11000

$$$$
