AV-unprocessed.smi:2110|AV-procd|sdf|8609|dock3
  -GOLD-   2272011353D 1   1.00000     0.00000
 Structure written by MMmdl.
 47 48  0  0  0  0  0  0  0  0  2 V2000
  148.2097  132.2362  161.5436 C   0  0  0  0  0  0  0  0  0  0  0  0
  147.4091  133.2342  160.6972 C   0  0  0  0  0  0  0  0  0  0  0  0
  147.7212  134.6188  161.0853 N   0  0  0  0  0  0  0  0  0  0  0  0
  147.3643  135.0198  162.4558 C   0  0  0  0  0  0  0  0  0  0  0  0
  145.8840  134.7447  162.7556 C   0  0  0  0  0  0  0  0  0  0  0  0
  147.9405  135.8309  159.8647 S   0  0  0  0  0  0  0  0  0  0  0  0
  148.0149  137.1524  160.5070 O   0  0  0  0  0  0  0  0  0  0  0  0
  148.9854  135.3708  158.9379 O   0  0  0  0  0  0  0  0  0  0  0  0
  146.4139  135.6989  159.0676 N   0  0  0  0  0  0  0  0  0  0  0  0
  145.9862  136.6719  158.0595 C   0  0  0  0  0  0  0  0  0  0  0  0
  146.6539  136.4871  156.7080 C   0  0  0  0  0  0  0  0  0  0  0  0
  148.0257  136.7736  156.5527 C   0  0  0  0  0  0  0  0  0  0  0  0
  148.6238  136.5888  155.2928 C   0  0  0  0  0  0  0  0  0  0  0  0
  147.8823  136.1447  154.2558 N   0  3  0  0  0  0  0  0  0  0  0  0
  146.5603  135.8558  154.3396 C   0  0  0  0  0  0  0  0  0  0  0  0
  145.9073  135.3845  153.1788 N   0  0  0  0  0  0  0  0  0  0  0  0
  145.6098  136.3751  152.1451 C   0  0  0  0  0  0  0  0  0  0  0  0
  145.2156  135.6831  150.8293 C   0  0  0  0  0  0  0  0  0  0  0  0
  144.1448  134.7764  151.0651 O   0  0  0  0  0  0  0  0  0  0  0  0
  144.5199  133.7442  151.9692 C   0  0  0  0  0  0  0  0  0  0  0  0
  144.8832  134.3548  153.3331 C   0  0  0  0  0  0  0  0  0  0  0  0
  145.9169  136.0324  155.5911 C   0  0  0  0  0  0  0  0  0  0  0  0
  147.9656  131.2114  161.2638 H   0  0  0  0  0  0  0  0  0  0  0  0
  147.9878  132.3520  162.6048 H   0  0  0  0  0  0  0  0  0  0  0  0
  149.2834  132.3653  161.4112 H   0  0  0  0  0  0  0  0  0  0  0  0
  147.6338  133.0996  159.6387 H   0  0  0  0  0  0  0  0  0  0  0  0
  146.3421  133.0398  160.8108 H   0  0  0  0  0  0  0  0  0  0  0  0
  147.9798  134.4691  163.1673 H   0  0  0  0  0  0  0  0  0  0  0  0
  147.5981  136.0756  162.5979 H   0  0  0  0  0  0  0  0  0  0  0  0
  145.6439  135.0156  163.7838 H   0  0  0  0  0  0  0  0  0  0  0  0
  145.6453  133.6887  162.6288 H   0  0  0  0  0  0  0  0  0  0  0  0
  145.2254  135.3186  162.1039 H   0  0  0  0  0  0  0  0  0  0  0  0
  145.6730  135.2592  159.6134 H   0  0  0  0  0  0  0  0  0  0  0  0
  144.9093  136.5751  157.9222 H   0  0  0  0  0  0  0  0  0  0  0  0
  146.1633  137.6802  158.4331 H   0  0  0  0  0  0  0  0  0  0  0  0
  148.6157  137.1240  157.3872 H   0  0  0  0  0  0  0  0  0  0  0  0
  149.6670  136.7774  155.0845 H   0  0  0  0  0  0  0  0  0  0  0  0
  144.7936  137.0098  152.4919 H   0  0  0  0  0  0  0  0  0  0  0  0
  146.4630  137.0258  151.9548 H   0  0  0  0  0  0  0  0  0  0  0  0
  144.8972  136.4248  150.0966 H   0  0  0  0  0  0  0  0  0  0  0  0
  146.0669  135.1549  150.3967 H   0  0  0  0  0  0  0  0  0  0  0  0
  143.6881  133.0484  152.0795 H   0  0  0  0  0  0  0  0  0  0  0  0
  145.3574  133.1753  151.5618 H   0  0  0  0  0  0  0  0  0  0  0  0
  145.2396  133.5583  153.9867 H   0  0  0  0  0  0  0  0  0  0  0  0
  143.9987  134.7933  153.7969 H   0  0  0  0  0  0  0  0  0  0  0  0
  144.8649  135.8251  155.7159 H   0  0  0  0  0  0  0  0  0  0  0  0
  148.3468  136.0132  153.3570 H   0  0  0  0  0  0  0  0  0  0  0  0
  1  2  1  0  0  0  0
  1 23  1  0  0  0  0
  1 24  1  0  0  0  0
  1 25  1  0  0  0  0
  2  3  1  0  0  0  0
  2 26  1  0  0  0  0
  2 27  1  0  0  0  0
  3  4  1  0  0  0  0
  3  6  1  0  0  0  0
  4  5  1  0  0  0  0
  4 28  1  0  0  0  0
  4 29  1  0  0  0  0
  5 30  1  0  0  0  0
  5 31  1  0  0  0  0
  5 32  1  0  0  0  0
  6  7  2  0  0  0  0
  6  8  2  0  0  0  0
  6  9  1  0  0  0  0
  9 10  1  0  0  0  0
  9 33  1  0  0  0  0
 10 11  1  0  0  0  0
 10 34  1  0  0  0  0
 10 35  1  0  0  0  0
 11 22  1  0  0  0  0
 11 12  2  0  0  0  0
 12 13  1  0  0  0  0
 12 36  1  0  0  0  0
 13 14  2  0  0  0  0
 13 37  1  0  0  0  0
 14 15  1  0  0  0  0
 14 47  1  0  0  0  0
 15 16  1  0  0  0  0
 15 22  2  0  0  0  0
 16 21  1  0  0  0  0
 16 17  1  0  0  0  0
 17 18  1  0  0  0  0
 17 38  1  0  0  0  0
 17 39  1  0  0  0  0
 18 19  1  0  0  0  0
 18 40  1  0  0  0  0
 18 41  1  0  0  0  0
 19 20  1  0  0  0  0
 20 21  1  0  0  0  0
 20 42  1  0  0  0  0
 20 43  1  0  0  0  0
 21 44  1  0  0  0  0
 21 45  1  0  0  0  0
 22 46  1  0  0  0  0
M  CHG  1  14   1
M  END
> <s_m_source_file>
AV-unprocessed.smi

> <i_m_source_file_index>
2110

> <i_lp_mmshare_version>
43012

> <i_f3d_flags>
0

> <s_epik_input>
W0NIM11bQ0gyXU4oW0NIMl1bQ0gzXSlTKD1PKSg9TylbTkhdW0NIMl1jMVtjSF1bY0hdbmMoW2NIXTEpTjJbQ0gyXVtDSDJdT1tDSDJdW0NIMl0y

> <s_epik_cmdline>
J2VwaWtfcHl0aG9uJywgJy1waCcsICc3LjAnLCAnLXRuJywgJzgnLCAnLW1hJywgJzIwMCcsICctbWV0YWxfYmluZGluZycsICctaW1hZScsICc8aW5maWxlLm1hZT4nLCAnLW9tYWUnLCAnPG91dGZpbGUubWFlPic=

> <r_lp_tautomer_probability>
0.999994

> <r_epik_Ionization_Penalty>
1.66934

> <r_epik_Ionization_Penalty_Charging>
1.61364

> <r_epik_Ionization_Penalty_Neutral>
0.0557011

> <r_epik_State_Penalty>
1.67389

> <r_epik_Charging_Adjusted_Penalty>
3.28753

> <i_epik_Tot_Q>
1

> <i_epik_Tot_abs_Q>
1

> <r_epik_Metal_State_Penalty>
4.64949

> <b_epik_Metal_Only>
0

> <s_lp_Force_Field>
OPLS_2005

> <r_lp_Energy>
18.4454

> <b_lp_Chiralities_Consistent>
1

> <s_lp_Variant>
AV-unprocessed.smi:2110-2

> <Gold.Version>
5.8.1

> <Gold.Id.Protein>
6NUR|6NUR_protein|mol2

> <Gold.PLP.Fitness>
40.8413

> <Gold.PLP.PLP>
-28.2939

> <Gold.PLP.part.hbond>
-4.0000

> <Gold.PLP.part.metal>
0.0000

> <Gold.PLP.part.buried>
-4.5720

> <Gold.PLP.part.nonpolar>
-20.2526

> <Gold.PLP.part.repulsive>
0.2747

> <Gold.PLP.ligand.clash>
0.0000

> <Gold.PLP.ligand.torsion>
2.6027

> <Gold.PLP.Chemscore.Hbond>
4.5840

> <Gold.PLP.Chemscore.CHOScore>
0.0000

> <Gold.PLP.Chemscore.Metal>
0.0000

> <Gold.Chemscore.Hbonds>
donor molecule, donor type, donor heavy atom, donor atom, acceptor molecule, acceptor atom, score
      L1  H    14    47       P1  7948  2.00
      P1  H  6896  6908       L1     8  1.00
      P1  H  6931  6943       L1     7  0.76
      P1  H  6934  6947       L1     7  0.66

> <Gold.PLP.Chemscore.Internal.Correction>
4.0008

> <Gold.Rescore>
     Score         DG    S(hbond)    S(metal)    S(lipo)     H(rot)  DE(clash)    DE(int)     intcor
     15.14     -18.63       3.47        0.00      52.01       1.77       0.00       3.49       ----

> <Gold.Chemscore.Fitness>
15.1354

> <Gold.Chemscore.DG>
-18.6251

> <Gold.Chemscore.ZeroCoef>
-5.4800

> <Gold.Chemscore.Hbond>
3.4688

> <Gold.Chemscore.Metal>
0.0000

> <Gold.Chemscore.Lipo>
52.0100

> <Gold.Chemscore.Internal_Hbond>
0.0000

> <Gold.Chemscore.DEClash>
0.0004

> <Gold.Chemscore.DEInternal>
3.4893

> <Gold.Chemscore.Rot>
1.7680

> <Gold.Chemscore.Internal.Correction>
   9.000000E+99

> <Gold.Chemscore.Hbonds>
donor molecule, donor type, donor heavy atom, donor atom, acceptor molecule, acceptor atom, score
      L1  H    14    47       P1  7948  0.99
      P1  H  6896  6908       L1     8  0.98
      P1  H  6931  6943       L1     7  0.71
      P1  H  6934  6947       L1     7  0.64

> <Gold.Chemscore.Hbond.Weighted>
-11.5859

> <Gold.Chemscore.Metal.Weighted>
-0.0000

> <Gold.Chemscore.Lipo.Weighted>
-6.0852

> <Gold.Chemscore.Internal_Hbond.Weighted>
0.0000

> <Gold.Chemscore.DEClash.Weighted>
0.0004

> <Gold.Chemscore.DEInternal.Weighted>
3.4893

> <Gold.Chemscore.Rot.Weighted>
4.5261

> <Gold.Chemscore.Internal.Correction.Weighted>
   9.000000E+99

> <Gold.Protein.RotatedTorsions>
[ 6907 6896 6895 6894 ] final  163.29 input  -60.11 | X-H torsion
[ 7974 7965 7964 7962 ] final -139.53 input  175.53 | X-H torsion
[ 8008 7997 7996 7995 ] final  170.24 input   59.86 | X-H torsion
[ 10167 10162 10161 10158 ] final  103.98 input  -65.29 | X-H torsion
[ 10718 10713 10712 10709 ] final    2.12 input   66.30 | X-H torsion
[ 10763 10752 10751 10750 ] final -139.80 input  -60.55 | X-H torsion
[ 11005 11000 10999 10996 ] final   53.67 input  -57.11 | X-H torsion

> <Gold.Protein.ActiveResidues>
 VAL166  LYS551  ARG553  GLY616  TRP617  ASP618  TYR619  PRO620  LYS621  CYS622 
 ASP623  PHE694  ASN695  SER759  ASP760  ASP761  ALA762  ILE779  LEU786  VAL792 
 PHE793  MET794  SER795  GLU796  ALA797  LYS798  CYS799  TRP800  GLU811  SER814 

> <Gold.Protein.RotatedAtoms>
  151.9274  133.3602  159.3918 H   0  0  0  0  0  0  0  0  0  0  0  0  # atno 6907 bound_to 6896
  150.7024  134.4573  159.5373 H   0  0  0  0  0  0  0  0  0  0  0  0  # atno 6908 bound_to 6896
  152.2207  134.8415  160.0537 H   0  0  0  0  0  0  0  0  0  0  0  0  # atno 6909 bound_to 6896
  144.8669  140.6307  143.5292 H   0  0  0  0  0  0  0  0  0  0  0  0  # atno 7974 bound_to 7965
  156.1383  140.1543  156.8960 H   0  0  0  0  0  0  0  0  0  0  0  0  # atno 8008 bound_to 7997
  154.4966  140.0836  156.7748 H   0  0  0  0  0  0  0  0  0  0  0  0  # atno 8009 bound_to 7997
  155.4126  140.3419  155.4267 H   0  0  0  0  0  0  0  0  0  0  0  0  # atno 8010 bound_to 7997
  139.7217  144.7057  151.0863 H   0  0  0  0  0  0  0  0  0  0  0  0  # atno 10167 bound_to 10162
  156.8583  130.5578  149.5664 H   0  0  0  0  0  0  0  0  0  0  0  0  # atno 10718 bound_to 10713
  154.8598  135.3572  154.5605 H   0  0  0  0  0  0  0  0  0  0  0  0  # atno 10763 bound_to 10752
  153.6220  135.7005  153.5311 H   0  0  0  0  0  0  0  0  0  0  0  0  # atno 10764 bound_to 10752
  153.3120  135.4176  155.1304 H   0  0  0  0  0  0  0  0  0  0  0  0  # atno 10765 bound_to 10752
  140.0748  134.5419  155.9008 H   0  0  0  0  0  0  0  0  0  0  0  0  # atno 11005 bound_to 11000
  145.4204  139.1565  143.4077 LP  0  0  0  0  0  0  0  0  0  0  0  0  # atno 17320 bound_to 7965
  146.2902  140.4314  142.8742 LP  0  0  0  0  0  0  0  0  0  0  0  0  # atno 17321 bound_to 7965
  140.7755  143.5158  150.9596 LP  0  0  0  0  0  0  0  0  0  0  0  0  # atno 17342 bound_to 10162
  139.8845  143.7030  152.3153 LP  0  0  0  0  0  0  0  0  0  0  0  0  # atno 17343 bound_to 10162
  156.0790  130.5805  150.9528 LP  0  0  0  0  0  0  0  0  0  0  0  0  # atno 17370 bound_to 10713
  157.6264  131.0925  150.8525 LP  0  0  0  0  0  0  0  0  0  0  0  0  # atno 17371 bound_to 10713
  141.2025  133.6626  156.6012 LP  0  0  0  0  0  0  0  0  0  0  0  0  # atno 17394 bound_to 11000
  140.3573  134.7717  157.4509 LP  0  0  0  0  0  0  0  0  0  0  0  0  # atno 17395 bound_to 11000

$$$$
