AV-unprocessed.smi:869|AV-procd|sdf|4005|dock7
  -GOLD-   22720 1493D 1   1.00000     0.00000
 Structure written by MMmdl.
 47 49  0  0  0  0  0  0  0  0  2 V2000
  143.3763  134.7389  157.6126 C   0  0  0  0  0  0  0  0  0  0  0  0
  142.8822  134.5576  156.2971 O   0  0  0  0  0  0  0  0  0  0  0  0
  143.2292  135.6286  155.4346 C   0  0  0  0  0  0  0  0  0  0  0  0
  143.4663  135.1635  154.0354 C   0  0  0  0  0  0  0  0  0  0  0  0
  143.2065  133.9177  153.5469 N   0  3  0  0  0  0  0  0  0  0  0  0
  143.5573  133.8557  152.1982 C   0  0  0  0  0  0  0  0  0  0  0  0
  143.4763  132.8102  151.2835 C   0  0  0  0  0  0  0  0  0  0  0  0
  143.9185  133.0813  149.9720 C   0  0  0  0  0  0  0  0  0  0  0  0
  144.4154  134.3508  149.6127 C   0  0  0  0  0  0  0  0  0  0  0  0
  144.4937  135.4026  150.5493 C   0  0  0  0  0  0  0  0  0  0  0  0
  144.0562  135.1264  151.8448 C   0  0  0  0  0  0  0  0  0  0  0  0
  143.9820  135.8997  153.0100 N   0  0  0  0  0  0  0  0  0  0  0  0
  144.4314  137.3010  152.9875 C   0  0  0  0  0  0  0  0  0  0  0  0
  145.9141  137.4489  152.5896 C   0  0  2  0  0  0  0  0  0  0  0  0
  146.6634  136.3574  153.0854 O   0  0  0  0  0  0  0  0  0  0  0  0
  146.5370  138.7463  153.1245 C   0  0  0  0  0  0  0  0  0  0  0  0
  147.8991  138.5050  153.4511 O   0  0  0  0  0  0  0  0  0  0  0  0
  148.5520  139.4229  154.2456 C   0  0  0  0  0  0  0  0  0  0  0  0
  149.8301  139.0636  154.7208 C   0  0  0  0  0  0  0  0  0  0  0  0
  150.5680  139.9389  155.5405 C   0  0  0  0  0  0  0  0  0  0  0  0
  150.0325  141.1915  155.8987 C   0  0  0  0  0  0  0  0  0  0  0  0
  150.8254  142.1350  156.7792 C   0  0  0  0  0  0  0  0  0  0  0  0
  148.7574  141.5624  155.4283 C   0  0  0  0  0  0  0  0  0  0  0  0
  148.0202  140.6863  154.6077 C   0  0  0  0  0  0  0  0  0  0  0  0
  143.0928  133.8873  158.2312 H   0  0  0  0  0  0  0  0  0  0  0  0
  142.9615  135.6389  158.0685 H   0  0  0  0  0  0  0  0  0  0  0  0
  144.4646  134.8122  157.6194 H   0  0  0  0  0  0  0  0  0  0  0  0
  142.4318  136.3732  155.4264 H   0  0  0  0  0  0  0  0  0  0  0  0
  144.1339  136.1191  155.7965 H   0  0  0  0  0  0  0  0  0  0  0  0
  143.0939  131.8377  151.5564 H   0  0  0  0  0  0  0  0  0  0  0  0
  143.8736  132.3008  149.2263 H   0  0  0  0  0  0  0  0  0  0  0  0
  144.7416  134.5229  148.5972 H   0  0  0  0  0  0  0  0  0  0  0  0
  144.8696  136.3727  150.2603 H   0  0  0  0  0  0  0  0  0  0  0  0
  143.8002  137.8289  152.2718 H   0  0  0  0  0  0  0  0  0  0  0  0
  144.2334  137.7595  153.9563 H   0  0  0  0  0  0  0  0  0  0  0  0
  146.0022  137.4354  151.5028 H   0  0  0  0  0  0  0  0  0  0  0  0
  147.5750  136.5036  152.8824 H   0  0  0  0  0  0  0  0  0  0  0  0
  146.4527  139.5380  152.3778 H   0  0  0  0  0  0  0  0  0  0  0  0
  146.0024  139.0670  154.0205 H   0  0  0  0  0  0  0  0  0  0  0  0
  150.2506  138.1053  154.4534 H   0  0  0  0  0  0  0  0  0  0  0  0
  151.5455  139.6447  155.8937 H   0  0  0  0  0  0  0  0  0  0  0  0
  150.1620  142.7858  157.3499 H   0  0  0  0  0  0  0  0  0  0  0  0
  151.4783  142.7590  156.1688 H   0  0  0  0  0  0  0  0  0  0  0  0
  151.4421  141.5791  157.4861 H   0  0  0  0  0  0  0  0  0  0  0  0
  148.3388  142.5217  155.6955 H   0  0  0  0  0  0  0  0  0  0  0  0
  147.0468  141.0083  154.2707 H   0  0  0  0  0  0  0  0  0  0  0  0
  142.8149  133.1679  154.1023 H   0  0  0  0  0  0  0  0  0  0  0  0
  1  2  1  0  0  0  0
  1 25  1  0  0  0  0
  1 26  1  0  0  0  0
  1 27  1  0  0  0  0
  2  3  1  0  0  0  0
  3  4  1  0  0  0  0
  3 28  1  0  0  0  0
  3 29  1  0  0  0  0
  4 12  1  0  0  0  0
  4  5  2  0  0  0  0
  5  6  1  0  0  0  0
  5 47  1  0  0  0  0
  6 11  2  0  0  0  0
  6  7  1  0  0  0  0
  7  8  2  0  0  0  0
  7 30  1  0  0  0  0
  8  9  1  0  0  0  0
  8 31  1  0  0  0  0
  9 10  2  0  0  0  0
  9 32  1  0  0  0  0
 10 11  1  0  0  0  0
 10 33  1  0  0  0  0
 11 12  1  0  0  0  0
 12 13  1  0  0  0  0
 13 14  1  0  0  0  0
 13 34  1  0  0  0  0
 13 35  1  0  0  0  0
 14 15  1  0  0  0  0
 14 16  1  0  0  0  0
 14 36  1  0  0  0  0
 15 37  1  0  0  0  0
 16 17  1  0  0  0  0
 16 38  1  0  0  0  0
 16 39  1  0  0  0  0
 17 18  1  0  0  0  0
 18 24  1  0  0  0  0
 18 19  2  0  0  0  0
 19 20  1  0  0  0  0
 19 40  1  0  0  0  0
 20 21  2  0  0  0  0
 20 41  1  0  0  0  0
 21 22  1  0  0  0  0
 21 23  1  0  0  0  0
 22 42  1  0  0  0  0
 22 43  1  0  0  0  0
 22 44  1  0  0  0  0
 23 24  2  0  0  0  0
 23 45  1  0  0  0  0
 24 46  1  0  0  0  0
M  CHG  1   5   1
M  END
> <s_m_source_file>
AV-unprocessed.smi

> <i_m_source_file_index>
869

> <i_lp_mmshare_version>
43012

> <i_f3d_flags>
0

> <s_epik_input>
W2NIXTFbY0hdW2NIXVtjSF1jKGMxMiluKGMobjIpW0NIMl1PW0NIM10pW0NIMl1bQ0BIXShbT0hdKVtDSDJdT2MzW2NIXVtjSF1jKFtDSDNdKVtjSF1bY0hdMw==

> <s_epik_cmdline>
J2VwaWtfcHl0aG9uJywgJy1waCcsICc3LjAnLCAnLXRuJywgJzgnLCAnLW1hJywgJzIwMCcsICctbWV0YWxfYmluZGluZycsICctaW1hZScsICc8aW5maWxlLm1hZT4nLCAnLW9tYWUnLCAnPG91dGZpbGUubWFlPic=

> <r_lp_tautomer_probability>
1

> <r_epik_Ionization_Penalty>
1.5538

> <r_epik_Ionization_Penalty_Charging>
1.5538

> <r_epik_Ionization_Penalty_Neutral>
2.3993e-06

> <r_epik_State_Penalty>
1.64824

> <r_epik_Charging_Adjusted_Penalty>
3.20204

> <i_epik_Tot_Q>
1

> <i_epik_Tot_abs_Q>
1

> <r_epik_Metal_State_Penalty>
5.70315

> <b_epik_Metal_Only>
0

> <s_lp_Force_Field>
OPLS_2005

> <r_lp_Energy>
18.5065

> <b_lp_Chiralities_Consistent>
1

> <s_lp_Variant>
AV-unprocessed.smi:869-3

> <Gold.Version>
5.8.1

> <Gold.Id.Protein>
6NUR|6NUR_protein|mol2

> <Gold.PLP.Fitness>
45.9814

> <Gold.PLP.PLP>
-38.0523

> <Gold.PLP.part.hbond>
-2.7952

> <Gold.PLP.part.metal>
0.0000

> <Gold.PLP.part.buried>
0.1560

> <Gold.PLP.part.nonpolar>
-38.4382

> <Gold.PLP.part.repulsive>
2.6305

> <Gold.PLP.ligand.clash>
0.0000

> <Gold.PLP.ligand.torsion>
1.2063

> <Gold.PLP.Chemscore.Hbond>
3.4290

> <Gold.PLP.Chemscore.CHOScore>
0.0000

> <Gold.PLP.Chemscore.Metal>
0.0000

> <Gold.Chemscore.Hbonds>
donor molecule, donor type, donor heavy atom, donor atom, acceptor molecule, acceptor atom, score
      L1  H     5    47       P1 10957  2.00
      L1  H    15    37       P1  7948  0.99
      P1  H 11000 11005       L1     2  0.51

> <Gold.PLP.Chemscore.Internal.Correction>
0.0546

> <Gold.Rescore>
     Score         DG    S(hbond)    S(metal)    S(lipo)     H(rot)  DE(clash)    DE(int)     intcor
     15.66     -18.32       2.24        0.00      99.37       2.45       1.55       1.11       ----

> <Gold.Chemscore.Fitness>
15.6554

> <Gold.Chemscore.DG>
-18.3220

> <Gold.Chemscore.ZeroCoef>
-5.4800

> <Gold.Chemscore.Hbond>
2.2415

> <Gold.Chemscore.Metal>
0.0000

> <Gold.Chemscore.Lipo>
99.3656

> <Gold.Chemscore.Internal_Hbond>
0.0000

> <Gold.Chemscore.DEClash>
1.5542

> <Gold.Chemscore.DEInternal>
1.1124

> <Gold.Chemscore.Rot>
2.4494

> <Gold.Chemscore.Internal.Correction>
   9.000000E+99

> <Gold.Chemscore.Hbonds>
donor molecule, donor type, donor heavy atom, donor atom, acceptor molecule, acceptor atom, score
      L1  H     5    47       P1 10957  0.96
      L1  H    15    37       P1  7948  0.94
      P1  H 11000 11005       L1     2  0.13

> <Gold.Chemscore.Hbond.Weighted>
-7.4867

> <Gold.Chemscore.Metal.Weighted>
-0.0000

> <Gold.Chemscore.Lipo.Weighted>
-11.6258

> <Gold.Chemscore.Internal_Hbond.Weighted>
0.0000

> <Gold.Chemscore.DEClash.Weighted>
1.5542

> <Gold.Chemscore.DEInternal.Weighted>
1.1124

> <Gold.Chemscore.Rot.Weighted>
6.2704

> <Gold.Chemscore.Internal.Correction.Weighted>
   9.000000E+99

> <Gold.Protein.RotatedTorsions>
[ 6907 6896 6895 6894 ] final   23.79 input  -60.11 | X-H torsion
[ 7974 7965 7964 7962 ] final  155.26 input  175.53 | X-H torsion
[ 8008 7997 7996 7995 ] final  162.00 input   59.86 | X-H torsion
[ 10167 10162 10161 10158 ] final   19.94 input  -65.29 | X-H torsion
[ 10718 10713 10712 10709 ] final  -82.08 input   66.30 | X-H torsion
[ 10763 10752 10751 10750 ] final   -7.19 input  -60.55 | X-H torsion
[ 11005 11000 10999 10996 ] final  -71.39 input  -57.11 | X-H torsion

> <Gold.Protein.ActiveResidues>
 VAL166  LYS551  ARG553  GLY616  TRP617  ASP618  TYR619  PRO620  LYS621  CYS622 
 ASP623  PHE694  ASN695  SER759  ASP760  ASP761  ALA762  ILE779  LEU786  VAL792 
 PHE793  MET794  SER795  GLU796  ALA797  LYS798  CYS799  TRP800  GLU811  SER814 

> <Gold.Protein.RotatedAtoms>
  151.9477  135.0184  160.0539 H   0  0  0  0  0  0  0  0  0  0  0  0  # atno 6907 bound_to 6896
  152.1981  133.4816  159.5052 H   0  0  0  0  0  0  0  0  0  0  0  0  # atno 6908 bound_to 6896
  150.6949  134.1543  159.4195 H   0  0  0  0  0  0  0  0  0  0  0  0  # atno 6909 bound_to 6896
  144.8036  139.7044  143.6171 H   0  0  0  0  0  0  0  0  0  0  0  0  # atno 7974 bound_to 7965
  156.2063  140.1762  156.7793 H   0  0  0  0  0  0  0  0  0  0  0  0  # atno 8008 bound_to 7997
  154.5659  140.0691  156.8921 H   0  0  0  0  0  0  0  0  0  0  0  0  # atno 8009 bound_to 7997
  155.2761  140.3346  155.4264 H   0  0  0  0  0  0  0  0  0  0  0  0  # atno 8010 bound_to 7997
  140.5541  143.9456  150.6597 H   0  0  0  0  0  0  0  0  0  0  0  0  # atno 10167 bound_to 10162
  156.0039  130.4623  150.4050 H   0  0  0  0  0  0  0  0  0  0  0  0  # atno 10718 bound_to 10713
  153.4229  135.7010  153.6282 H   0  0  0  0  0  0  0  0  0  0  0  0  # atno 10763 bound_to 10752
  153.4729  135.3711  155.2401 H   0  0  0  0  0  0  0  0  0  0  0  0  # atno 10764 bound_to 10752
  154.8723  135.4047  154.3601 H   0  0  0  0  0  0  0  0  0  0  0  0  # atno 10765 bound_to 10752
  141.1591  133.6816  156.6899 H   0  0  0  0  0  0  0  0  0  0  0  0  # atno 11005 bound_to 11000
  146.2323  139.5837  142.9547 LP  0  0  0  0  0  0  0  0  0  0  0  0  # atno 17320 bound_to 7965
  145.5492  141.0414  143.2288 LP  0  0  0  0  0  0  0  0  0  0  0  0  # atno 17321 bound_to 7965
  140.2890  143.3337  152.1080 LP  0  0  0  0  0  0  0  0  0  0  0  0  # atno 17342 bound_to 10162
  139.5040  144.6767  151.6111 LP  0  0  0  0  0  0  0  0  0  0  0  0  # atno 17343 bound_to 10162
  157.2116  131.0462  151.2596 LP  0  0  0  0  0  0  0  0  0  0  0  0  # atno 17370 bound_to 10713
  157.3883  130.7268  149.6679 LP  0  0  0  0  0  0  0  0  0  0  0  0  # atno 17371 bound_to 10713
  140.3038  134.8142  157.4120 LP  0  0  0  0  0  0  0  0  0  0  0  0  # atno 17394 bound_to 11000
  140.1238  134.5184  155.8161 LP  0  0  0  0  0  0  0  0  0  0  0  0  # atno 17395 bound_to 11000

$$$$
