AV-unprocessed.smi:54|AV-procd|sdf|543|dock1
  -GOLD-   2262016433D 1   1.00000     0.00000
 Structure written by MMmdl.
 44 46  0  0  0  0  0  0  0  0  1 V2000
  152.4959  144.5561  158.8931 C   0  0  0  0  0  0  0  0  0  0  0  0
  151.9474  143.5349  159.9025 C   0  0  0  0  0  0  0  0  0  0  0  0
  152.4826  143.8064  161.3179 C   0  0  0  0  0  0  0  0  0  0  0  0
  152.2851  142.1062  159.4611 C   0  0  0  0  0  0  0  0  0  0  0  0
  153.0459  141.3858  160.1086 O   0  0  0  0  0  0  0  0  0  0  0  0
  151.6416  141.6655  158.2358 N   0  0  0  0  0  0  0  0  0  0  0  0
  151.7585  140.4602  157.6315 C   0  0  0  0  0  0  0  0  0  0  0  0
  151.1661  140.1623  156.4840 N   0  0  0  0  0  0  0  0  0  0  0  0
  151.4132  138.8976  156.0262 C   0  0  0  0  0  0  0  0  0  0  0  0
  152.1874  137.9378  156.6428 C   0  0  0  0  0  0  0  0  0  0  0  0
  152.2001  136.7737  155.8844 N   0  0  0  0  0  0  0  0  0  0  0  0
  151.4531  137.0593  154.8543 C   0  0  0  0  0  0  0  0  0  0  0  0
  150.9455  138.3393  154.8551 N   0  0  0  0  0  0  0  0  0  0  0  0
  150.0485  139.0228  153.8614 C   0  0  2  0  0  0  0  0  0  0  0  0
  150.0471  140.3903  154.1323 O   0  0  0  0  0  0  0  0  0  0  0  0
  148.9357  140.7616  154.9583 C   0  0  1  0  0  0  0  0  0  0  0  0
  148.1995  141.9134  154.2532 C   0  0  0  0  0  0  0  0  0  0  0  0
  147.2594  142.4970  155.1297 O   0  0  0  0  0  0  0  0  0  0  0  0
  148.0619  139.4972  155.0940 C   0  0  2  0  0  0  0  0  0  0  0  0
  148.2270  138.9399  156.3861 O   0  0  0  0  0  0  0  0  0  0  0  0
  148.5863  138.5830  153.9938 C   0  0  2  0  0  0  0  0  0  0  0  0
  148.3777  137.2045  154.2456 O   0  0  0  0  0  0  0  0  0  0  0  0
  152.8258  138.2398  157.8913 C   0  0  0  0  0  0  0  0  0  0  0  0
  153.5420  137.5130  158.5766 O   0  0  0  0  0  0  0  0  0  0  0  0
  152.5550  139.5457  158.3207 N   0  0  0  0  0  0  0  0  0  0  0  0
  150.4966  138.8049  152.8912 H   0  0  0  0  0  0  0  0  0  0  0  0
  149.2843  141.0948  155.9372 H   0  0  0  0  0  0  0  0  0  0  0  0
  146.9993  139.7013  154.9585 H   0  0  0  0  0  0  0  0  0  0  0  0
  148.0930  138.8406  153.0557 H   0  0  0  0  0  0  0  0  0  0  0  0
  152.1169  144.3639  157.8884 H   0  0  0  0  0  0  0  0  0  0  0  0
  153.5857  144.5314  158.8486 H   0  0  0  0  0  0  0  0  0  0  0  0
  152.2001  145.5698  159.1647 H   0  0  0  0  0  0  0  0  0  0  0  0
  150.8613  143.6356  159.9285 H   0  0  0  0  0  0  0  0  0  0  0  0
  152.1062  143.0734  162.0323 H   0  0  0  0  0  0  0  0  0  0  0  0
  152.1741  144.7917  161.6683 H   0  0  0  0  0  0  0  0  0  0  0  0
  153.5727  143.7721  161.3490 H   0  0  0  0  0  0  0  0  0  0  0  0
  151.0259  142.3339  157.7964 H   0  0  0  0  0  0  0  0  0  0  0  0
  151.2601  136.3402  154.0728 H   0  0  0  0  0  0  0  0  0  0  0  0
  148.8967  142.6670  153.8856 H   0  0  0  0  0  0  0  0  0  0  0  0
  147.6451  141.5380  153.3927 H   0  0  0  0  0  0  0  0  0  0  0  0
  147.6375  143.2806  155.4984 H   0  0  0  0  0  0  0  0  0  0  0  0
  147.9771  139.5915  157.0238 H   0  0  0  0  0  0  0  0  0  0  0  0
  148.8190  136.7079  153.5730 H   0  0  0  0  0  0  0  0  0  0  0  0
  152.9771  139.8291  159.1928 H   0  0  0  0  0  0  0  0  0  0  0  0
  1  2  1  0  0  0  0
  1 30  1  0  0  0  0
  1 31  1  0  0  0  0
  1 32  1  0  0  0  0
  2  3  1  0  0  0  0
  2  4  1  0  0  0  0
  2 33  1  0  0  0  0
  3 34  1  0  0  0  0
  3 35  1  0  0  0  0
  3 36  1  0  0  0  0
  4  5  2  0  0  0  0
  4  6  1  0  0  0  0
  6 37  1  0  0  0  0
  6  7  1  0  0  0  0
  7 25  1  0  0  0  0
  7  8  2  0  0  0  0
  8  9  1  0  0  0  0
  9 13  1  0  0  0  0
  9 10  2  0  0  0  0
 10 11  1  0  0  0  0
 10 23  1  0  0  0  0
 11 12  2  0  0  0  0
 12 13  1  0  0  0  0
 12 38  1  0  0  0  0
 13 14  1  0  0  0  0
 14 26  1  0  0  0  0
 14 21  1  0  0  0  0
 14 15  1  0  0  0  0
 15 16  1  0  0  0  0
 16 27  1  0  0  0  0
 16 17  1  0  0  0  0
 16 19  1  0  0  0  0
 17 18  1  0  0  0  0
 17 39  1  0  0  0  0
 17 40  1  0  0  0  0
 18 41  1  0  0  0  0
 19 28  1  0  0  0  0
 19 20  1  0  0  0  0
 19 21  1  0  0  0  0
 20 42  1  0  0  0  0
 21 29  1  0  0  0  0
 21 22  1  0  0  0  0
 22 43  1  0  0  0  0
 23 24  2  0  0  0  0
 23 25  1  0  0  0  0
 25 44  1  0  0  0  0
M  END
> <s_m_source_file>
AV-unprocessed.smi

> <i_m_source_file_index>
54

> <i_lp_mmshare_version>
43012

> <i_f3d_flags>
0

> <s_epik_input>
W0NIM11bQ0hdKFtDSDNdKUMoPU8pW05IXWMobjEpW25IXWMoPU8pYyhjMTIpbltjSF1uMltDQEBIXTNPW0NASF0oW0NIMl1bT0hdKVtDQEBIXShbT0hdKVtDQEhdM1tPSF0=

> <s_epik_cmdline>
J2VwaWtfcHl0aG9uJywgJy1waCcsICc3LjAnLCAnLXRuJywgJzgnLCAnLW1hJywgJzIwMCcsICctbWV0YWxfYmluZGluZycsICctaW1hZScsICc8aW5maWxlLm1hZT4nLCAnLW9tYWUnLCAnPG91dGZpbGUubWFlPic=

> <r_lp_tautomer_probability>
0.85571

> <r_epik_Ionization_Penalty>
0.0316551

> <r_epik_Ionization_Penalty_Charging>
0.0316043

> <r_epik_Ionization_Penalty_Neutral>
5.07097e-05

> <r_epik_State_Penalty>
3.15494e-07

> <r_epik_Charging_Adjusted_Penalty>
0.0316047

> <i_epik_Tot_Q>
0

> <i_epik_Tot_abs_Q>
0

> <r_epik_Metal_State_Penalty>
0.421206

> <b_epik_Metal_Only>
0

> <s_epik_Chemistry_Notes>
This compound contains an acetal/aminal-like group ( X-CH(R)-Y where X, Y are N, S, or O) that may be acid/base labile, releasing an aldehyde.

> <s_lp_Force_Field>
OPLS_2005

> <r_lp_Energy>
46.2687

> <b_lp_Chiralities_Consistent>
1

> <s_lp_Variant>
AV-unprocessed.smi:54-15

> <Gold.Version>
5.8.1

> <Gold.Id.Protein>
6NUR|6NUR_protein|mol2

> <Gold.PLP.Fitness>
49.4315

> <Gold.PLP.PLP>
-36.2923

> <Gold.PLP.part.hbond>
-4.0000

> <Gold.PLP.part.metal>
0.0000

> <Gold.PLP.part.buried>
-1.8988

> <Gold.PLP.part.nonpolar>
-31.1376

> <Gold.PLP.part.repulsive>
1.1479

> <Gold.PLP.ligand.clash>
0.0000

> <Gold.PLP.ligand.torsion>
0.6176

> <Gold.PLP.Chemscore.Hbond>
3.7420

> <Gold.PLP.Chemscore.CHOScore>
0.9766

> <Gold.PLP.Chemscore.Metal>
0.0000

> <Gold.Chemscore.Hbonds>
donor molecule, donor type, donor heavy atom, donor atom, acceptor molecule, acceptor atom, score
      L1  H    18    41       P1  8028  0.95
      L1  H    22    43       P1  7948  1.00
      P1  H  7989  7998       L1    15  0.83
      P1  H 10752 10764       L1    11  0.84
      L1  C    12    38       P1  7949  0.82

> <Gold.PLP.Chemscore.Internal.Correction>
0.2185

> <Gold.Rescore>
     Score         DG    S(hbond)    S(metal)    S(lipo)     H(rot)  DE(clash)    DE(int)     intcor
      6.58     -11.04       2.55        0.00      63.22       4.05       0.50       3.96       ----

> <Gold.Chemscore.Fitness>
6.5819

> <Gold.Chemscore.DG>
-11.0379

> <Gold.Chemscore.ZeroCoef>
-5.4800

> <Gold.Chemscore.Hbond>
2.5532

> <Gold.Chemscore.Metal>
0.0000

> <Gold.Chemscore.Lipo>
63.2162

> <Gold.Chemscore.Internal_Hbond>
0.0000

> <Gold.Chemscore.DEClash>
0.5003

> <Gold.Chemscore.DEInternal>
3.9557

> <Gold.Chemscore.Rot>
4.0493

> <Gold.Chemscore.Internal.Correction>
   9.000000E+99

> <Gold.Chemscore.Hbonds>
donor molecule, donor type, donor heavy atom, donor atom, acceptor molecule, acceptor atom, score
      L1  H    18    41       P1  8028  0.21
      L1  H    22    43       P1  7948  0.94
      P1  H  7989  7998       L1    15  0.28
      P1  H 10752 10764       L1    11  0.14

> <Gold.Chemscore.Hbond.Weighted>
-8.5278

> <Gold.Chemscore.Metal.Weighted>
-0.0000

> <Gold.Chemscore.Lipo.Weighted>
-7.3963

> <Gold.Chemscore.Internal_Hbond.Weighted>
0.0000

> <Gold.Chemscore.DEClash.Weighted>
0.5003

> <Gold.Chemscore.DEInternal.Weighted>
3.9557

> <Gold.Chemscore.Rot.Weighted>
10.3662

> <Gold.Chemscore.Internal.Correction.Weighted>
   9.000000E+99

> <Gold.Protein.RotatedTorsions>
[ 6907 6896 6895 6894 ] final  -99.34 input  -60.11 | X-H torsion
[ 7974 7965 7964 7962 ] final  -36.20 input  175.53 | X-H torsion
[ 8008 7997 7996 7995 ] final  121.76 input   59.86 | X-H torsion
[ 10167 10162 10161 10158 ] final  -30.10 input  -65.29 | X-H torsion
[ 10718 10713 10712 10709 ] final  -86.08 input   66.30 | X-H torsion
[ 10763 10752 10751 10750 ] final  -25.91 input  -60.55 | X-H torsion
[ 11005 11000 10999 10996 ] final  -29.09 input  -57.11 | X-H torsion

> <Gold.Protein.ActiveResidues>
 VAL166  LYS551  ARG553  GLY616  TRP617  ASP618  TYR619  PRO620  LYS621  CYS622 
 ASP623  PHE694  ASN695  SER759  ASP760  ASP761  ALA762  ILE779  LEU786  VAL792 
 PHE793  MET794  SER795  GLU796  ALA797  LYS798  CYS799  TRP800  GLU811  SER814 

> <Gold.Protein.RotatedAtoms>
  150.7076  134.1056  159.3981 H   0  0  0  0  0  0  0  0  0  0  0  0  # atno 6907 bound_to 6896
  151.9042  135.0363  160.0518 H   0  0  0  0  0  0  0  0  0  0  0  0  # atno 6908 bound_to 6896
  152.2389  133.5083  159.5295 H   0  0  0  0  0  0  0  0  0  0  0  0  # atno 6909 bound_to 6896
  146.0681  140.6250  142.8965 H   0  0  0  0  0  0  0  0  0  0  0  0  # atno 7974 bound_to 7965
  156.2700  140.2801  156.1359 H   0  0  0  0  0  0  0  0  0  0  0  0  # atno 8008 bound_to 7997
  155.1005  140.0389  157.2713 H   0  0  0  0  0  0  0  0  0  0  0  0  # atno 8009 bound_to 7997
  154.6819  140.2610  155.6905 H   0  0  0  0  0  0  0  0  0  0  0  0  # atno 8010 bound_to 7997
  140.7253  143.3875  151.1488 H   0  0  0  0  0  0  0  0  0  0  0  0  # atno 10167 bound_to 10162
  155.9992  130.4753  150.4661 H   0  0  0  0  0  0  0  0  0  0  0  0  # atno 10718 bound_to 10713
  153.7074  135.6953  153.5046 H   0  0  0  0  0  0  0  0  0  0  0  0  # atno 10763 bound_to 10752
  153.2298  135.4341  155.0581 H   0  0  0  0  0  0  0  0  0  0  0  0  # atno 10764 bound_to 10752
  154.8325  135.3481  154.6611 H   0  0  0  0  0  0  0  0  0  0  0  0  # atno 10765 bound_to 10752
  140.9266  133.7365  156.0876 H   0  0  0  0  0  0  0  0  0  0  0  0  # atno 11005 bound_to 11000
  144.7215  140.4388  143.7005 LP  0  0  0  0  0  0  0  0  0  0  0  0  # atno 17320 bound_to 7965
  145.6440  139.1554  143.2899 LP  0  0  0  0  0  0  0  0  0  0  0  0  # atno 17321 bound_to 7965
  139.7475  143.8830  152.3067 LP  0  0  0  0  0  0  0  0  0  0  0  0  # atno 17342 bound_to 10162
  139.8672  144.7087  150.9030 LP  0  0  0  0  0  0  0  0  0  0  0  0  # atno 17343 bound_to 10162
  157.2680  131.0581  151.2278 LP  0  0  0  0  0  0  0  0  0  0  0  0  # atno 17370 bound_to 10713
  157.3368  130.7013  149.6357 LP  0  0  0  0  0  0  0  0  0  0  0  0  # atno 17371 bound_to 10713
  140.7918  134.3609  157.5462 LP  0  0  0  0  0  0  0  0  0  0  0  0  # atno 17394 bound_to 11000
  139.8787  134.9145  156.3108 LP  0  0  0  0  0  0  0  0  0  0  0  0  # atno 17395 bound_to 11000

$$$$
