AV-unprocessed.smi:3057|AV-procd|sdf|11665|dock5
  -GOLD-   2272017 73D 1   1.00000     0.00000
 Structure written by MMmdl.
 41 43  0  0  0  0  0  0  0  0  2 V2000
  149.7792  139.9623  157.0898 C   0  0  0  0  0  0  0  0  0  0  0  0
  150.3129  139.9890  155.6445 C   0  0  1  0  0  0  0  0  0  0  0  0
  151.8161  140.3189  155.6049 C   0  0  0  0  0  0  0  0  0  0  0  0
  152.5096  138.9495  155.5477 C   0  0  0  0  0  0  0  0  0  0  0  0
  151.4220  138.0564  154.9728 C   0  0  0  0  0  0  0  0  0  0  0  0
  151.6441  136.9534  154.4755 O   0  0  0  0  0  0  0  0  0  0  0  0
  150.2368  138.6768  155.0313 N   0  0  0  0  0  0  0  0  0  0  0  0
  149.0279  138.3362  154.2769 C   0  0  1  0  0  0  0  0  0  0  0  0
  148.2465  137.2153  154.9829 C   0  0  0  0  0  0  0  0  0  0  0  0
  147.8660  137.3451  156.1472 O   0  0  0  0  0  0  0  0  0  0  0  0
  148.0085  136.1156  154.2535 N   0  0  0  0  0  0  0  0  0  0  0  0
  147.3013  134.9362  154.7345 C   0  0  0  0  0  0  0  0  0  0  0  0
  147.8499  133.6694  154.0635 C   0  0  0  0  0  0  0  0  0  0  0  0
  147.0405  133.2657  152.8464 C   0  0  0  0  0  0  0  0  0  0  0  0
  146.3990  132.0114  152.7504 C   0  0  0  0  0  0  0  0  0  0  0  0
  145.6628  131.7017  151.5875 C   0  0  0  0  0  0  0  0  0  0  0  0
  145.5844  132.6503  150.5466 C   0  0  0  0  0  0  0  0  0  0  0  0
  146.2457  133.8865  150.6948 C   0  0  0  0  0  0  0  0  0  0  0  0
  146.9402  134.1464  151.8242 N   0  3  0  0  0  0  0  0  0  0  0  0
  148.1712  139.6255  154.2165 C   0  0  0  0  0  0  0  0  0  0  0  0
  149.2819  141.0134  154.5817 S   0  0  0  0  0  0  0  0  0  0  0  0
  150.3326  139.2539  157.7069 H   0  0  0  0  0  0  0  0  0  0  0  0
  148.7272  139.6800  157.1283 H   0  0  0  0  0  0  0  0  0  0  0  0
  149.8677  140.9444  157.5552 H   0  0  0  0  0  0  0  0  0  0  0  0
  152.0615  140.8871  154.7063 H   0  0  0  0  0  0  0  0  0  0  0  0
  152.1406  140.9110  156.4614 H   0  0  0  0  0  0  0  0  0  0  0  0
  153.4022  138.9619  154.9218 H   0  0  0  0  0  0  0  0  0  0  0  0
  152.7784  138.5952  156.5432 H   0  0  0  0  0  0  0  0  0  0  0  0
  149.3136  138.0335  153.2675 H   0  0  0  0  0  0  0  0  0  0  0  0
  148.3511  136.0917  153.3039 H   0  0  0  0  0  0  0  0  0  0  0  0
  147.4043  134.8507  155.8178 H   0  0  0  0  0  0  0  0  0  0  0  0
  146.2380  135.0496  154.5201 H   0  0  0  0  0  0  0  0  0  0  0  0
  148.8889  133.8220  153.7680 H   0  0  0  0  0  0  0  0  0  0  0  0
  147.8504  132.8409  154.7736 H   0  0  0  0  0  0  0  0  0  0  0  0
  146.4680  131.2943  153.5557 H   0  0  0  0  0  0  0  0  0  0  0  0
  145.1644  130.7479  151.4949 H   0  0  0  0  0  0  0  0  0  0  0  0
  145.0259  132.4325  149.6480 H   0  0  0  0  0  0  0  0  0  0  0  0
  146.2402  134.6694  149.9504 H   0  0  0  0  0  0  0  0  0  0  0  0
  147.6963  139.7576  153.2442 H   0  0  0  0  0  0  0  0  0  0  0  0
  147.3828  139.6307  154.9709 H   0  0  0  0  0  0  0  0  0  0  0  0
  147.4109  135.0476  151.9100 H   0  0  0  0  0  0  0  0  0  0  0  0
  1  2  1  0  0  0  0
  1 22  1  0  0  0  0
  1 23  1  0  0  0  0
  1 24  1  0  0  0  0
  2  7  1  0  0  0  0
  2 21  1  0  0  0  0
  2  3  1  0  0  0  0
  3  4  1  0  0  0  0
  3 25  1  0  0  0  0
  3 26  1  0  0  0  0
  4  5  1  0  0  0  0
  4 27  1  0  0  0  0
  4 28  1  0  0  0  0
  5  6  2  0  0  0  0
  5  7  1  0  0  0  0
  7  8  1  0  0  0  0
  8  9  1  0  0  0  0
  8 20  1  0  0  0  0
  8 29  1  0  0  0  0
  9 10  2  0  0  0  0
  9 11  1  0  0  0  0
 11 12  1  0  0  0  0
 11 30  1  0  0  0  0
 12 13  1  0  0  0  0
 12 31  1  0  0  0  0
 12 32  1  0  0  0  0
 13 14  1  0  0  0  0
 13 33  1  0  0  0  0
 13 34  1  0  0  0  0
 14 19  1  0  0  0  0
 14 15  2  0  0  0  0
 15 16  1  0  0  0  0
 15 35  1  0  0  0  0
 16 17  2  0  0  0  0
 16 36  1  0  0  0  0
 17 18  1  0  0  0  0
 17 37  1  0  0  0  0
 18 19  2  0  0  0  0
 18 38  1  0  0  0  0
 19 41  1  0  0  0  0
 20 21  1  0  0  0  0
 20 39  1  0  0  0  0
 20 40  1  0  0  0  0
M  CHG  1  19   1
M  END
> <s_m_source_file>
AV-unprocessed.smi

> <i_m_source_file_index>
3057

> <i_lp_mmshare_version>
43012

> <i_f3d_flags>
0

> <s_epik_input>
W0NIMl0xW0NIMl1DKD1PKU4oW0NAQF0xMltDSDNdKVtDQEhdKFtDSDJdUzIpQyg9TylbTkhdW0NIMl1bQ0gyXWMzW2NIXVtjSF1bY0hdW2NIXW4z

> <s_epik_cmdline>
J2VwaWtfcHl0aG9uJywgJy1waCcsICc3LjAnLCAnLXRuJywgJzgnLCAnLW1hJywgJzIwMCcsICctbWV0YWxfYmluZGluZycsICctaW1hZScsICc8aW5maWxlLm1hZT4nLCAnLW9tYWUnLCAnPG91dGZpbGUubWFlPic=

> <r_epik_Ionization_Penalty>
1.8888

> <r_epik_Ionization_Penalty_Charging>
1.8888

> <r_epik_Ionization_Penalty_Neutral>
1.66252e-07

> <r_epik_State_Penalty>
2.00916

> <r_epik_Charging_Adjusted_Penalty>
3.89796

> <i_epik_Tot_Q>
1

> <i_epik_Tot_abs_Q>
1

> <r_epik_Metal_State_Penalty>
2.03343

> <b_epik_Metal_Only>
0

> <s_lp_Force_Field>
OPLS_2005

> <r_lp_Energy>
32.3191

> <b_lp_Chiralities_Consistent>
1

> <s_lp_Variant>
AV-unprocessed.smi:3057-5

> <Gold.Version>
5.8.1

> <Gold.Id.Protein>
6NUR|6NUR_protein|mol2

> <Gold.PLP.Fitness>
44.1209

> <Gold.PLP.PLP>
-32.9563

> <Gold.PLP.part.hbond>
-3.0000

> <Gold.PLP.part.metal>
0.0000

> <Gold.PLP.part.buried>
-2.2932

> <Gold.PLP.part.nonpolar>
-28.6698

> <Gold.PLP.part.repulsive>
0.2310

> <Gold.PLP.ligand.clash>
0.0000

> <Gold.PLP.ligand.torsion>
0.4332

> <Gold.PLP.Chemscore.Hbond>
4.0000

> <Gold.PLP.Chemscore.CHOScore>
0.0000

> <Gold.PLP.Chemscore.Metal>
0.0000

> <Gold.Chemscore.Hbonds>
donor molecule, donor type, donor heavy atom, donor atom, acceptor molecule, acceptor atom, score
      L1  H    11    30       P1  7948  1.00
      L1  H    19    41       P1  7948  2.00
      P1  H 10752 10763       L1     6  1.00

> <Gold.PLP.Chemscore.Internal.Correction>
0.0311

> <Gold.Rescore>
     Score         DG    S(hbond)    S(metal)    S(lipo)     H(rot)  DE(clash)    DE(int)     intcor
     19.55     -20.10       2.89        0.00      78.06       1.62       0.08       0.47       ----

> <Gold.Chemscore.Fitness>
19.5548

> <Gold.Chemscore.DG>
-20.1005

> <Gold.Chemscore.ZeroCoef>
-5.4800

> <Gold.Chemscore.Hbond>
2.8873

> <Gold.Chemscore.Metal>
0.0000

> <Gold.Chemscore.Lipo>
78.0578

> <Gold.Chemscore.Internal_Hbond>
0.0000

> <Gold.Chemscore.DEClash>
0.0807

> <Gold.Chemscore.DEInternal>
0.4650

> <Gold.Chemscore.Rot>
1.6234

> <Gold.Chemscore.Internal.Correction>
   9.000000E+99

> <Gold.Chemscore.Hbonds>
donor molecule, donor type, donor heavy atom, donor atom, acceptor molecule, acceptor atom, score
      L1  H    11    30       P1  7948  0.96
      L1  H    19    41       P1  7948  0.90
      P1  H 10752 10763       L1     6  1.00

> <Gold.Chemscore.Hbond.Weighted>
-9.6436

> <Gold.Chemscore.Metal.Weighted>
-0.0000

> <Gold.Chemscore.Lipo.Weighted>
-9.1328

> <Gold.Chemscore.Internal_Hbond.Weighted>
0.0000

> <Gold.Chemscore.DEClash.Weighted>
0.0807

> <Gold.Chemscore.DEInternal.Weighted>
0.4650

> <Gold.Chemscore.Rot.Weighted>
4.1558

> <Gold.Chemscore.Internal.Correction.Weighted>
   9.000000E+99

> <Gold.Protein.RotatedTorsions>
[ 6907 6896 6895 6894 ] final  -14.99 input  -60.11 | X-H torsion
[ 7974 7965 7964 7962 ] final  109.50 input  175.53 | X-H torsion
[ 8008 7997 7996 7995 ] final -149.99 input   59.86 | X-H torsion
[ 10167 10162 10161 10158 ] final   68.34 input  -65.29 | X-H torsion
[ 10718 10713 10712 10709 ] final   36.45 input   66.30 | X-H torsion
[ 10763 10752 10751 10750 ] final   46.15 input  -60.55 | X-H torsion
[ 11005 11000 10999 10996 ] final  105.08 input  -57.11 | X-H torsion

> <Gold.Protein.ActiveResidues>
 VAL166  LYS551  ARG553  GLY616  TRP617  ASP618  TYR619  PRO620  LYS621  CYS622 
 ASP623  PHE694  ASN695  SER759  ASP760  ASP761  ALA762  ILE779  LEU786  VAL792 
 PHE793  MET794  SER795  GLU796  ALA797  LYS798  CYS799  TRP800  GLU811  SER814 

> <Gold.Protein.RotatedAtoms>
  151.3309  135.0841  159.9338 H   0  0  0  0  0  0  0  0  0  0  0  0  # atno 6907 bound_to 6896
  152.5235  133.9543  159.7697 H   0  0  0  0  0  0  0  0  0  0  0  0  # atno 6908 bound_to 6896
  150.9882  133.6123  159.2742 H   0  0  0  0  0  0  0  0  0  0  0  0  # atno 6909 bound_to 6896
  145.2670  139.2681  143.3986 H   0  0  0  0  0  0  0  0  0  0  0  0  # atno 7974 bound_to 7965
  155.6164  140.0677  157.2691 H   0  0  0  0  0  0  0  0  0  0  0  0  # atno 8008 bound_to 7997
  154.4240  140.1792  156.1374 H   0  0  0  0  0  0  0  0  0  0  0  0  # atno 8009 bound_to 7997
  156.0044  140.3333  155.6881 H   0  0  0  0  0  0  0  0  0  0  0  0  # atno 8010 bound_to 7997
  140.0798  144.5081  150.7170 H   0  0  0  0  0  0  0  0  0  0  0  0  # atno 10167 bound_to 10162
  157.3350  130.7518  149.6873 H   0  0  0  0  0  0  0  0  0  0  0  0  # atno 10718 bound_to 10713
  152.9814  135.6017  154.3553 H   0  0  0  0  0  0  0  0  0  0  0  0  # atno 10763 bound_to 10752
  154.3239  135.2769  155.2507 H   0  0  0  0  0  0  0  0  0  0  0  0  # atno 10764 bound_to 10752
  154.4662  135.5953  153.6345 H   0  0  0  0  0  0  0  0  0  0  0  0  # atno 10765 bound_to 10752
  139.8798  134.9323  156.5459 H   0  0  0  0  0  0  0  0  0  0  0  0  # atno 11005 bound_to 11000
  146.3258  140.3103  142.8626 LP  0  0  0  0  0  0  0  0  0  0  0  0  # atno 17320 bound_to 7965
  144.9368  140.8035  143.5655 LP  0  0  0  0  0  0  0  0  0  0  0  0  # atno 17321 bound_to 7965
  140.7084  143.2485  151.4657 LP  0  0  0  0  0  0  0  0  0  0  0  0  # atno 17342 bound_to 10162
  139.5786  144.1761  152.1938 LP  0  0  0  0  0  0  0  0  0  0  0  0  # atno 17343 bound_to 10162
  155.9700  130.4184  150.4326 LP  0  0  0  0  0  0  0  0  0  0  0  0  # atno 17370 bound_to 10713
  157.2364  131.0515  151.2462 LP  0  0  0  0  0  0  0  0  0  0  0  0  # atno 17371 bound_to 10713
  140.8276  133.8305  155.8953 LP  0  0  0  0  0  0  0  0  0  0  0  0  # atno 17394 bound_to 11000
  140.9360  134.1962  157.4831 LP  0  0  0  0  0  0  0  0  0  0  0  0  # atno 17395 bound_to 11000

$$$$
