AV-unprocessed.smi:2766|AV-procd|sdf|10646|dock2
  -GOLD-   2272015 93D 1   1.00000     0.00000
 Structure written by MMmdl.
 32 33  0  0  0  0  0  0  0  0  1 V2000
  149.3065  140.8163  154.7431 C   0  0  0  0  0  0  0  0  0  0  0  0
  150.3286  140.0326  154.1523 O   0  0  0  0  0  0  0  0  0  0  0  0
  150.8940  139.1025  155.0617 C   0  0  0  0  0  0  0  0  0  0  0  0
  151.7395  139.8557  156.1039 C   0  0  2  0  0  0  0  0  0  0  0  0
  153.0631  139.3554  156.0308 O   0  0  0  0  0  0  0  0  0  0  0  0
  151.1452  139.7430  157.5359 C   0  0  0  0  0  0  0  0  0  0  0  0
  151.8617  140.4924  158.5625 N   0  0  0  0  0  0  0  0  0  0  0  0
  152.7412  140.0312  159.4888 C   0  0  0  0  0  0  0  0  0  0  0  0
  153.1242  138.5804  159.5743 C   0  0  0  0  0  0  0  0  0  0  0  0
  153.7447  138.1848  158.4619 F   0  0  0  0  0  0  0  0  0  0  0  0
  153.9511  138.3663  160.5979 F   0  0  0  0  0  0  0  0  0  0  0  0
  152.0406  137.8204  159.7318 F   0  0  0  0  0  0  0  0  0  0  0  0
  153.2560  140.9565  160.3025 N   0  0  0  0  0  0  0  0  0  0  0  0
  152.6466  142.1187  159.8723 C   0  0  0  0  0  0  0  0  0  0  0  0
  152.7699  143.4479  160.3363 C   0  0  0  0  0  0  0  0  0  0  0  0
  152.0340  144.4870  159.7296 C   0  0  0  0  0  0  0  0  0  0  0  0
  151.1659  144.2125  158.6529 C   0  0  0  0  0  0  0  0  0  0  0  0
  151.0294  142.8951  158.1748 C   0  0  0  0  0  0  0  0  0  0  0  0
  151.7672  141.8624  158.7836 C   0  0  0  0  0  0  0  0  0  0  0  0
  151.7707  140.9125  155.8356 H   0  0  0  0  0  0  0  0  0  0  0  0
  148.9106  141.5167  154.0080 H   0  0  0  0  0  0  0  0  0  0  0  0
  149.6874  141.3931  155.5871 H   0  0  0  0  0  0  0  0  0  0  0  0
  148.4825  140.1915  155.0901 H   0  0  0  0  0  0  0  0  0  0  0  0
  150.0725  138.5811  155.5557 H   0  0  0  0  0  0  0  0  0  0  0  0
  151.4910  138.3489  154.5446 H   0  0  0  0  0  0  0  0  0  0  0  0
  153.0868  138.6607  155.3909 H   0  0  0  0  0  0  0  0  0  0  0  0
  150.1036  140.0628  157.5256 H   0  0  0  0  0  0  0  0  0  0  0  0
  151.1115  138.7017  157.8583 H   0  0  0  0  0  0  0  0  0  0  0  0
  153.4313  143.6686  161.1610 H   0  0  0  0  0  0  0  0  0  0  0  0
  152.1357  145.4994  160.0923 H   0  0  0  0  0  0  0  0  0  0  0  0
  150.6043  145.0134  158.1946 H   0  0  0  0  0  0  0  0  0  0  0  0
  150.3640  142.6800  157.3521 H   0  0  0  0  0  0  0  0  0  0  0  0
  1  2  1  0  0  0  0
  1 21  1  0  0  0  0
  1 22  1  0  0  0  0
  1 23  1  0  0  0  0
  2  3  1  0  0  0  0
  3  4  1  0  0  0  0
  3 24  1  0  0  0  0
  3 25  1  0  0  0  0
  4 20  1  0  0  0  0
  4  5  1  0  0  0  0
  4  6  1  0  0  0  0
  5 26  1  0  0  0  0
  6  7  1  0  0  0  0
  6 27  1  0  0  0  0
  6 28  1  0  0  0  0
  7 19  1  0  0  0  0
  7  8  1  0  0  0  0
  8  9  1  0  0  0  0
  8 13  2  0  0  0  0
  9 10  1  0  0  0  0
  9 11  1  0  0  0  0
  9 12  1  0  0  0  0
 13 14  1  0  0  0  0
 14 19  2  0  0  0  0
 14 15  1  0  0  0  0
 15 16  2  0  0  0  0
 15 29  1  0  0  0  0
 16 17  1  0  0  0  0
 16 30  1  0  0  0  0
 17 18  2  0  0  0  0
 17 31  1  0  0  0  0
 18 19  1  0  0  0  0
 18 32  1  0  0  0  0
M  END
> <s_m_source_file>
AV-unprocessed.smi

> <i_m_source_file_index>
2766

> <i_lp_mmshare_version>
43012

> <i_f3d_flags>
0

> <s_epik_input>
W0NIM11PW0NIMl1bQ0BASF0oW09IXSlbQ0gyXW4oYyhuMSlDKEYpKEYpRiljKGMxMilbY0hdW2NIXVtjSF1bY0hdMg==

> <s_epik_cmdline>
J2VwaWtfcHl0aG9uJywgJy1waCcsICc3LjAnLCAnLXRuJywgJzgnLCAnLW1hJywgJzIwMCcsICctbWV0YWxfYmluZGluZycsICctaW1hZScsICc8aW5maWxlLm1hZT4nLCAnLW9tYWUnLCAnPG91dGZpbGUubWFlPic=

> <r_epik_Ionization_Penalty>
0.00044827

> <r_epik_Ionization_Penalty_Charging>
0

> <r_epik_Ionization_Penalty_Neutral>
0.00044827

> <r_epik_State_Penalty>
0.000276591

> <r_epik_Charging_Adjusted_Penalty>
0.000276591

> <i_epik_Tot_Q>
0

> <i_epik_Tot_abs_Q>
0

> <r_epik_Metal_State_Penalty>
-0

> <b_epik_Metal_Only>
0

> <s_lp_Force_Field>
OPLS_2005

> <r_lp_Energy>
17.0941

> <b_lp_Chiralities_Consistent>
1

> <s_lp_Variant>
AV-unprocessed.smi:2766-2

> <Gold.Version>
5.8.1

> <Gold.Id.Protein>
6NUR|6NUR_protein|mol2

> <Gold.PLP.Fitness>
45.3129

> <Gold.PLP.PLP>
-41.5451

> <Gold.PLP.part.hbond>
-1.7918

> <Gold.PLP.part.metal>
0.0000

> <Gold.PLP.part.buried>
-6.6505

> <Gold.PLP.part.nonpolar>
-34.7417

> <Gold.PLP.part.repulsive>
0.7572

> <Gold.PLP.ligand.clash>
0.0000

> <Gold.PLP.ligand.torsion>
1.0699

> <Gold.PLP.Chemscore.Hbond>
1.9440

> <Gold.PLP.Chemscore.CHOScore>
0.0000

> <Gold.PLP.Chemscore.Metal>
0.0000

> <Gold.Chemscore.Hbonds>
donor molecule, donor type, donor heavy atom, donor atom, acceptor molecule, acceptor atom, score
      P1  H  7989  7998       L1     2  1.00
      P1  H  7997  8010       L1     5  1.00

> <Gold.PLP.Chemscore.Internal.Correction>
0.0756

> <Gold.Rescore>
     Score         DG    S(hbond)    S(metal)    S(lipo)     H(rot)  DE(clash)    DE(int)     intcor
     13.97     -17.19       1.83        0.00      98.59       2.32       0.73       2.49       ----

> <Gold.Chemscore.Fitness>
13.9727

> <Gold.Chemscore.DG>
-17.1909

> <Gold.Chemscore.ZeroCoef>
-5.4800

> <Gold.Chemscore.Hbond>
1.8282

> <Gold.Chemscore.Metal>
0.0000

> <Gold.Chemscore.Lipo>
98.5863

> <Gold.Chemscore.Internal_Hbond>
0.0000

> <Gold.Chemscore.DEClash>
0.7260

> <Gold.Chemscore.DEInternal>
2.4922

> <Gold.Chemscore.Rot>
2.3164

> <Gold.Chemscore.Internal.Correction>
   9.000000E+99

> <Gold.Chemscore.Hbonds>
donor molecule, donor type, donor heavy atom, donor atom, acceptor molecule, acceptor atom, score
      P1  H  7989  7998       L1     2  0.50
      P1  H  7997  8010       L1     5  0.92

> <Gold.Chemscore.Hbond.Weighted>
-6.1062

> <Gold.Chemscore.Metal.Weighted>
-0.0000

> <Gold.Chemscore.Lipo.Weighted>
-11.5346

> <Gold.Chemscore.Internal_Hbond.Weighted>
0.0000

> <Gold.Chemscore.DEClash.Weighted>
0.7260

> <Gold.Chemscore.DEInternal.Weighted>
2.4922

> <Gold.Chemscore.Rot.Weighted>
5.9299

> <Gold.Chemscore.Internal.Correction.Weighted>
   9.000000E+99

> <Gold.Protein.RotatedTorsions>
[ 6907 6896 6895 6894 ] final  -36.28 input  -60.11 | X-H torsion
[ 7974 7965 7964 7962 ] final  -62.74 input  175.53 | X-H torsion
[ 8008 7997 7996 7995 ] final   63.09 input   59.86 | X-H torsion
[ 10167 10162 10161 10158 ] final  -60.33 input  -65.29 | X-H torsion
[ 10718 10713 10712 10709 ] final -161.46 input   66.30 | X-H torsion
[ 10763 10752 10751 10750 ] final -167.52 input  -60.55 | X-H torsion
[ 11005 11000 10999 10996 ] final  139.54 input  -57.11 | X-H torsion

> <Gold.Protein.ActiveResidues>
 VAL166  LYS551  ARG553  GLY616  TRP617  ASP618  TYR619  PRO620  LYS621  CYS622 
 ASP623  PHE694  ASN695  SER759  ASP760  ASP761  ALA762  ILE779  LEU786  VAL792 
 PHE793  MET794  SER795  GLU796  ALA797  LYS798  CYS799  TRP800  GLU811  SER814 

> <Gold.Protein.RotatedAtoms>
  151.0292  134.9526  159.8101 H   0  0  0  0  0  0  0  0  0  0  0  0  # atno 6907 bound_to 6896
  152.5342  134.2803  159.9015 H   0  0  0  0  0  0  0  0  0  0  0  0  # atno 6908 bound_to 6896
  151.2812  133.4166  159.2661 H   0  0  0  0  0  0  0  0  0  0  0  0  # atno 6909 bound_to 6896
  145.7876  140.8728  143.0298 H   0  0  0  0  0  0  0  0  0  0  0  0  # atno 7974 bound_to 7965
  155.6247  140.3496  155.4663 H   0  0  0  0  0  0  0  0  0  0  0  0  # atno 8008 bound_to 7997
  156.0051  140.1221  157.0533 H   0  0  0  0  0  0  0  0  0  0  0  0  # atno 8009 bound_to 7997
  154.4262  140.1093  156.5737 H   0  0  0  0  0  0  0  0  0  0  0  0  # atno 8010 bound_to 7997
  140.6078  143.2378  151.5780 H   0  0  0  0  0  0  0  0  0  0  0  0  # atno 10167 bound_to 10162
  156.5966  130.8792  151.2903 H   0  0  0  0  0  0  0  0  0  0  0  0  # atno 10718 bound_to 10713
  154.6723  135.2941  154.9725 H   0  0  0  0  0  0  0  0  0  0  0  0  # atno 10763 bound_to 10752
  154.0747  135.6613  153.4833 H   0  0  0  0  0  0  0  0  0  0  0  0  # atno 10764 bound_to 10752
  153.0495  135.5183  154.7726 H   0  0  0  0  0  0  0  0  0  0  0  0  # atno 10765 bound_to 10752
  140.0262  134.9373  157.0573 H   0  0  0  0  0  0  0  0  0  0  0  0  # atno 11005 bound_to 11000
  144.6786  140.0077  143.7484 LP  0  0  0  0  0  0  0  0  0  0  0  0  # atno 17320 bound_to 7965
  146.0010  139.3091  143.0927 LP  0  0  0  0  0  0  0  0  0  0  0  0  # atno 17321 bound_to 7965
  139.5338  144.2839  152.1207 LP  0  0  0  0  0  0  0  0  0  0  0  0  # atno 17342 bound_to 10162
  140.2032  144.4637  150.6421 LP  0  0  0  0  0  0  0  0  0  0  0  0  # atno 17343 bound_to 10162
  157.7290  130.9665  150.1769 LP  0  0  0  0  0  0  0  0  0  0  0  0  # atno 17370 bound_to 10713
  156.2505  130.3700  149.8238 LP  0  0  0  0  0  0  0  0  0  0  0  0  # atno 17371 bound_to 10713
  140.4303  134.1788  155.7168 LP  0  0  0  0  0  0  0  0  0  0  0  0  # atno 17394 bound_to 11000
  141.1804  133.8426  157.1278 LP  0  0  0  0  0  0  0  0  0  0  0  0  # atno 17395 bound_to 11000

$$$$
