AV-unprocessed.smi:318|AV-procd|sdf|2330|dock1
  -GOLD-   2262022233D 1   1.00000     0.00000
 Structure written by MMmdl.
 38 39  0  0  0  0  0  0  0  0  1 V2000
  148.8444  140.2984  157.1306 O   0  0  0  0  0  0  0  0  0  0  0  0
  149.2052  141.3371  156.5750 C   0  0  0  0  0  0  0  0  0  0  0  0
  150.6901  141.6115  156.2941 C   0  0  0  0  0  0  0  0  0  0  0  0
  151.4304  142.1132  157.4650 N   0  0  0  0  0  0  0  0  0  0  0  0
  151.2779  143.4762  157.7763 C   0  0  0  0  0  0  0  0  0  0  0  0
  151.9051  144.0362  158.8193 C   0  0  0  0  0  0  0  0  0  0  0  0
  152.7547  143.2011  159.6327 C   0  0  0  0  0  0  0  0  0  0  0  0
  152.9257  141.8877  159.3551 C   0  0  0  0  0  0  0  0  0  0  0  0
  153.8195  140.9895  160.2074 C   0  0  0  0  0  0  0  0  0  0  0  0
  155.0918  141.0887  159.8195 F   0  0  0  0  0  0  0  0  0  0  0  0
  153.7470  141.3405  161.4919 F   0  0  0  0  0  0  0  0  0  0  0  0
  153.4651  139.7069  160.1145 F   0  0  0  0  0  0  0  0  0  0  0  0
  152.2318  141.2813  158.2004 C   0  0  0  0  0  0  0  0  0  0  0  0
  152.3597  140.0919  157.9046 O   0  0  0  0  0  0  0  0  0  0  0  0
  148.3502  142.2859  156.1645 N   0  0  0  0  0  0  0  0  0  0  0  0
  146.8991  142.2428  156.3197 C   0  0  0  0  0  0  0  0  0  0  0  0
  146.1997  142.8919  155.1064 C   0  0  0  0  0  0  0  0  0  0  0  0
  144.6740  142.9317  155.2903 C   0  0  0  0  0  0  0  0  0  0  0  0
  144.2875  143.6451  156.5950 C   0  0  0  0  0  0  0  0  0  0  0  0
  144.9751  142.9954  157.8058 C   0  0  0  0  0  0  0  0  0  0  0  0
  146.5012  142.9564  157.6258 C   0  0  0  0  0  0  0  0  0  0  0  0
  151.1414  140.6891  155.9255 H   0  0  0  0  0  0  0  0  0  0  0  0
  150.7724  142.3173  155.4655 H   0  0  0  0  0  0  0  0  0  0  0  0
  150.6303  144.0322  157.1139 H   0  0  0  0  0  0  0  0  0  0  0  0
  151.7810  145.0855  159.0432 H   0  0  0  0  0  0  0  0  0  0  0  0
  153.2576  143.6497  160.4761 H   0  0  0  0  0  0  0  0  0  0  0  0
  148.7335  143.1036  155.7129 H   0  0  0  0  0  0  0  0  0  0  0  0
  146.5828  141.2003  156.3937 H   0  0  0  0  0  0  0  0  0  0  0  0
  146.5723  143.9076  154.9650 H   0  0  0  0  0  0  0  0  0  0  0  0
  146.4406  142.3454  154.1938 H   0  0  0  0  0  0  0  0  0  0  0  0
  144.2102  143.4338  154.4408 H   0  0  0  0  0  0  0  0  0  0  0  0
  144.2812  141.9143  155.2995 H   0  0  0  0  0  0  0  0  0  0  0  0
  144.5699  144.6969  156.5344 H   0  0  0  0  0  0  0  0  0  0  0  0
  143.2052  143.6224  156.7252 H   0  0  0  0  0  0  0  0  0  0  0  0
  144.7224  143.5424  158.7145 H   0  0  0  0  0  0  0  0  0  0  0  0
  144.5972  141.9810  157.9399 H   0  0  0  0  0  0  0  0  0  0  0  0
  146.9579  142.4545  158.4798 H   0  0  0  0  0  0  0  0  0  0  0  0
  146.8887  143.9762  157.6228 H   0  0  0  0  0  0  0  0  0  0  0  0
  1  2  2  0  0  0  0
  2  3  1  0  0  0  0
  2 15  1  0  0  0  0
  3  4  1  0  0  0  0
  3 22  1  0  0  0  0
  3 23  1  0  0  0  0
  4 13  1  0  0  0  0
  4  5  1  0  0  0  0
  5  6  2  0  0  0  0
  5 24  1  0  0  0  0
  6  7  1  0  0  0  0
  6 25  1  0  0  0  0
  7  8  2  0  0  0  0
  7 26  1  0  0  0  0
  8  9  1  0  0  0  0
  8 13  1  0  0  0  0
  9 10  1  0  0  0  0
  9 11  1  0  0  0  0
  9 12  1  0  0  0  0
 13 14  2  0  0  0  0
 15 16  1  0  0  0  0
 15 27  1  0  0  0  0
 16 21  1  0  0  0  0
 16 17  1  0  0  0  0
 16 28  1  0  0  0  0
 17 18  1  0  0  0  0
 17 29  1  0  0  0  0
 17 30  1  0  0  0  0
 18 19  1  0  0  0  0
 18 31  1  0  0  0  0
 18 32  1  0  0  0  0
 19 20  1  0  0  0  0
 19 33  1  0  0  0  0
 19 34  1  0  0  0  0
 20 21  1  0  0  0  0
 20 35  1  0  0  0  0
 20 36  1  0  0  0  0
 21 37  1  0  0  0  0
 21 38  1  0  0  0  0
M  END
> <s_m_source_file>
AV-unprocessed.smi

> <i_m_source_file_index>
318

> <i_lp_mmshare_version>
43012

> <i_f3d_flags>
0

> <s_epik_input>
W0NIMl0xW0NIMl1bQ0gyXVtDSDJdW0NIMl1bQ0hdMVtOSF1DKD1PKVtDSDJdbjJbY0hdW2NIXVtjSF1jKEMoRikoRilGKWMyPU8=

> <s_epik_cmdline>
J2VwaWtfcHl0aG9uJywgJy1waCcsICc3LjAnLCAnLXRuJywgJzgnLCAnLW1hJywgJzIwMCcsICctbWV0YWxfYmluZGluZycsICctaW1hZScsICc8aW5maWxlLm1hZT4nLCAnLW9tYWUnLCAnPG91dGZpbGUubWFlPic=

> <r_lp_tautomer_probability>
1

> <r_epik_Ionization_Penalty>
2.11101e-08

> <r_epik_Ionization_Penalty_Charging>
2.0632e-09

> <r_epik_Ionization_Penalty_Neutral>
1.90469e-08

> <r_epik_State_Penalty>
-0

> <r_epik_Charging_Adjusted_Penalty>
2.0632e-09

> <i_epik_Tot_Q>
0

> <i_epik_Tot_abs_Q>
0

> <r_epik_Metal_State_Penalty>
-0

> <b_epik_Metal_Only>
0

> <s_lp_Force_Field>
OPLS_2005

> <r_lp_Energy>
18.6605

> <b_lp_Chiralities_Consistent>
1

> <s_lp_Variant>
AV-unprocessed.smi:318-1

> <Gold.Version>
5.8.1

> <Gold.Id.Protein>
6NUR|6NUR_protein|mol2

> <Gold.PLP.Fitness>
44.5828

> <Gold.PLP.PLP>
-41.5226

> <Gold.PLP.part.hbond>
-1.1673

> <Gold.PLP.part.metal>
0.0000

> <Gold.PLP.part.buried>
-4.2391

> <Gold.PLP.part.nonpolar>
-35.2192

> <Gold.PLP.part.repulsive>
0.0601

> <Gold.PLP.ligand.clash>
0.0000

> <Gold.PLP.ligand.torsion>
1.9303

> <Gold.PLP.Chemscore.Hbond>
1.1873

> <Gold.PLP.Chemscore.CHOScore>
1.0000

> <Gold.PLP.Chemscore.Metal>
0.0000

> <Gold.Chemscore.Hbonds>
donor molecule, donor type, donor heavy atom, donor atom, acceptor molecule, acceptor atom, score
      L1  H    15    27       P1  8028  0.98
      P1  H  7997  8008       L1    14  0.19
      L1  C     5    24       P1  8028  1.00

> <Gold.PLP.Chemscore.Internal.Correction>
0.3591

> <Gold.Rescore>
     Score         DG    S(hbond)    S(metal)    S(lipo)     H(rot)  DE(clash)    DE(int)     intcor
     13.23     -16.64       1.77        0.00      78.65       1.54       0.09       3.32       ----

> <Gold.Chemscore.Fitness>
13.2269

> <Gold.Chemscore.DG>
-16.6412

> <Gold.Chemscore.ZeroCoef>
-5.4800

> <Gold.Chemscore.Hbond>
1.7657

> <Gold.Chemscore.Metal>
0.0000

> <Gold.Chemscore.Lipo>
78.6471

> <Gold.Chemscore.Internal_Hbond>
0.0000

> <Gold.Chemscore.DEClash>
0.0936

> <Gold.Chemscore.DEInternal>
3.3208

> <Gold.Chemscore.Rot>
1.5383

> <Gold.Chemscore.Internal.Correction>
   9.000000E+99

> <Gold.Chemscore.Hbonds>
donor molecule, donor type, donor heavy atom, donor atom, acceptor molecule, acceptor atom, score
      L1  H    15    27       P1  8028  0.93
      P1  H  7997  8008       L1    14  0.07

> <Gold.Chemscore.Hbond.Weighted>
-5.8975

> <Gold.Chemscore.Metal.Weighted>
-0.0000

> <Gold.Chemscore.Lipo.Weighted>
-9.2017

> <Gold.Chemscore.Internal_Hbond.Weighted>
0.0000

> <Gold.Chemscore.DEClash.Weighted>
0.0936

> <Gold.Chemscore.DEInternal.Weighted>
3.3208

> <Gold.Chemscore.Rot.Weighted>
3.9380

> <Gold.Chemscore.Internal.Correction.Weighted>
   9.000000E+99

> <Gold.Protein.RotatedTorsions>
[ 6907 6896 6895 6894 ] final  160.92 input  -60.11 | X-H torsion
[ 7974 7965 7964 7962 ] final  -47.58 input  175.53 | X-H torsion
[ 8008 7997 7996 7995 ] final  -68.42 input   59.86 | X-H torsion
[ 10167 10162 10161 10158 ] final  101.43 input  -65.29 | X-H torsion
[ 10718 10713 10712 10709 ] final  145.85 input   66.30 | X-H torsion
[ 10763 10752 10751 10750 ] final  -11.92 input  -60.55 | X-H torsion
[ 11005 11000 10999 10996 ] final  -37.79 input  -57.11 | X-H torsion

> <Gold.Protein.ActiveResidues>
 VAL166  LYS551  ARG553  GLY616  TRP617  ASP618  TYR619  PRO620  LYS621  CYS622 
 ASP623  PHE694  ASN695  SER759  ASP760  ASP761  ALA762  ILE779  LEU786  VAL792 
 PHE793  MET794  SER795  GLU796  ALA797  LYS798  CYS799  TRP800  GLU811  SER814 

> <Gold.Protein.RotatedAtoms>
  151.9634  133.3702  159.4043 H   0  0  0  0  0  0  0  0  0  0  0  0  # atno 6907 bound_to 6896
  150.6960  134.4216  159.5217 H   0  0  0  0  0  0  0  0  0  0  0  0  # atno 6908 bound_to 6896
  152.1909  134.8673  160.0568 H   0  0  0  0  0  0  0  0  0  0  0  0  # atno 6909 bound_to 6896
  145.9601  140.7488  142.9462 H   0  0  0  0  0  0  0  0  0  0  0  0  # atno 7974 bound_to 7965
  154.4867  140.0873  156.7502 H   0  0  0  0  0  0  0  0  0  0  0  0  # atno 8008 bound_to 7997
  155.4333  140.3450  155.4264 H   0  0  0  0  0  0  0  0  0  0  0  0  # atno 8009 bound_to 7997
  156.1271  140.1490  156.9108 H   0  0  0  0  0  0  0  0  0  0  0  0  # atno 8010 bound_to 7997
  139.7439  144.7003  151.0533 H   0  0  0  0  0  0  0  0  0  0  0  0  # atno 10167 bound_to 10162
  157.3403  131.0934  151.1088 H   0  0  0  0  0  0  0  0  0  0  0  0  # atno 10718 bound_to 10713
  153.4908  135.7017  153.5885 H   0  0  0  0  0  0  0  0  0  0  0  0  # atno 10763 bound_to 10752
  153.4059  135.3860  155.2018 H   0  0  0  0  0  0  0  0  0  0  0  0  # atno 10764 bound_to 10752
  154.8717  135.3892  154.4368 H   0  0  0  0  0  0  0  0  0  0  0  0  # atno 10765 bound_to 10752
  140.9978  133.6971  156.1967 H   0  0  0  0  0  0  0  0  0  0  0  0  # atno 11005 bound_to 11000
  144.6813  140.2577  143.7323 LP  0  0  0  0  0  0  0  0  0  0  0  0  # atno 17320 bound_to 7965
  145.8052  139.1980  143.2025 LP  0  0  0  0  0  0  0  0  0  0  0  0  # atno 17321 bound_to 7965
  140.7789  143.4891  150.9917 LP  0  0  0  0  0  0  0  0  0  0  0  0  # atno 17342 bound_to 10162
  139.8579  143.7353  152.3175 LP  0  0  0  0  0  0  0  0  0  0  0  0  # atno 17343 bound_to 10162
  157.2302  130.6522  149.5847 LP  0  0  0  0  0  0  0  0  0  0  0  0  # atno 17370 bound_to 10713
  155.9707  130.4601  150.6060 LP  0  0  0  0  0  0  0  0  0  0  0  0  # atno 17371 bound_to 10713
  140.6937  134.4638  157.5588 LP  0  0  0  0  0  0  0  0  0  0  0  0  # atno 17394 bound_to 11000
  139.9023  134.8527  156.1843 LP  0  0  0  0  0  0  0  0  0  0  0  0  # atno 17395 bound_to 11000

$$$$
