AV-unprocessed.smi:1005|AV-procd|sdf|4362|dock10
  -GOLD-   22720 2263D 1   1.00000     0.00000
 Structure written by MMmdl.
 56 58  0  0  0  0  0  0  0  0  2 V2000
  151.3219  144.6884  158.3720 C   0  0  0  0  0  0  0  0  0  0  0  0
  152.0391  143.6194  159.1776 C   0  0  0  0  0  0  0  0  0  0  0  0
  152.4417  142.4276  158.5333 C   0  0  0  0  0  0  0  0  0  0  0  0
  153.1091  141.4082  159.2471 C   0  0  0  0  0  0  0  0  0  0  0  0
  153.5858  140.1787  158.8253 N   0  0  0  0  0  0  0  0  0  0  0  0
  154.1021  139.6910  159.9496 C   0  0  0  0  0  0  0  0  0  0  0  0
  154.0217  140.4633  161.0503 N   0  0  0  0  0  0  0  0  0  0  0  0
  154.5109  140.1502  162.3813 C   0  0  0  0  0  0  0  0  0  0  0  0
  155.0475  138.7093  162.4893 C   0  0  2  0  0  0  0  0  0  0  0  0
  153.9669  137.8141  162.3046 O   0  0  0  0  0  0  0  0  0  0  0  0
  155.6996  138.4423  163.8625 C   0  0  0  0  0  0  0  0  0  0  0  0
  156.3908  137.1583  163.9891 N   0  0  0  0  0  0  0  0  0  0  0  0
  157.4783  137.2460  164.9571 C   0  0  0  0  0  0  0  0  0  0  0  0
  158.2182  135.9072  165.1120 C   0  0  0  0  0  0  0  0  0  0  0  0
  157.2888  134.8933  165.4798 O   0  0  0  0  0  0  0  0  0  0  0  0
  156.2372  134.7305  164.5310 C   0  0  1  0  0  0  0  0  0  0  0  0
  155.3028  133.6167  165.0361 C   0  0  0  0  0  0  0  0  0  0  0  0
  154.0692  133.4890  164.2192 N   0  3  0  0  0  0  0  0  0  0  0  0
  153.1697  132.4038  164.6749 C   0  0  0  0  0  0  0  0  0  0  0  0
  154.3684  133.3746  162.7746 C   0  0  0  0  0  0  0  0  0  0  0  0
  155.4943  136.0733  164.3806 C   0  0  0  0  0  0  0  0  0  0  0  0
  153.3653  141.6160  160.6340 C   0  0  0  0  0  0  0  0  0  0  0  0
  152.9706  142.7974  161.2862 C   0  0  0  0  0  0  0  0  0  0  0  0
  152.3050  143.8057  160.5582 C   0  0  0  0  0  0  0  0  0  0  0  0
  151.8821  145.0777  161.2717 C   0  0  0  0  0  0  0  0  0  0  0  0
  151.1656  144.3720  157.3401 H   0  0  0  0  0  0  0  0  0  0  0  0
  151.9056  145.6094  158.3553 H   0  0  0  0  0  0  0  0  0  0  0  0
  150.3454  144.9044  158.8063 H   0  0  0  0  0  0  0  0  0  0  0  0
  152.2400  142.2854  157.4818 H   0  0  0  0  0  0  0  0  0  0  0  0
  154.5703  138.7177  159.9744 H   0  0  0  0  0  0  0  0  0  0  0  0
  155.2970  140.8654  162.6271 H   0  0  0  0  0  0  0  0  0  0  0  0
  153.7053  140.3133  163.0991 H   0  0  0  0  0  0  0  0  0  0  0  0
  155.7783  138.5461  161.6960 H   0  0  0  0  0  0  0  0  0  0  0  0
  154.1944  136.9861  162.6997 H   0  0  0  0  0  0  0  0  0  0  0  0
  156.4397  139.2268  164.0259 H   0  0  0  0  0  0  0  0  0  0  0  0
  154.9685  138.5658  164.6633 H   0  0  0  0  0  0  0  0  0  0  0  0
  158.1880  138.0150  164.6492 H   0  0  0  0  0  0  0  0  0  0  0  0
  157.0862  137.5545  165.9276 H   0  0  0  0  0  0  0  0  0  0  0  0
  158.7209  135.6324  164.1833 H   0  0  0  0  0  0  0  0  0  0  0  0
  158.9858  135.9848  165.8821 H   0  0  0  0  0  0  0  0  0  0  0  0
  156.6625  134.4583  163.5644 H   0  0  0  0  0  0  0  0  0  0  0  0
  155.8529  132.6745  165.0125 H   0  0  0  0  0  0  0  0  0  0  0  0
  155.0311  133.7869  166.0791 H   0  0  0  0  0  0  0  0  0  0  0  0
  153.6639  131.4333  164.6106 H   0  0  0  0  0  0  0  0  0  0  0  0
  152.2715  132.3671  164.0575 H   0  0  0  0  0  0  0  0  0  0  0  0
  152.8455  132.5553  165.7037 H   0  0  0  0  0  0  0  0  0  0  0  0
  154.9370  132.4678  162.5638 H   0  0  0  0  0  0  0  0  0  0  0  0
  154.9483  134.2313  162.4292 H   0  0  0  0  0  0  0  0  0  0  0  0
  153.4481  133.3451  162.1905 H   0  0  0  0  0  0  0  0  0  0  0  0
  154.9993  136.3255  165.3199 H   0  0  0  0  0  0  0  0  0  0  0  0
  154.7083  135.9513  163.6357 H   0  0  0  0  0  0  0  0  0  0  0  0
  153.1787  142.9251  162.3383 H   0  0  0  0  0  0  0  0  0  0  0  0
  152.2105  145.0786  162.3116 H   0  0  0  0  0  0  0  0  0  0  0  0
  150.7964  145.1758  161.2630 H   0  0  0  0  0  0  0  0  0  0  0  0
  152.3137  145.9524  160.7849 H   0  0  0  0  0  0  0  0  0  0  0  0
  153.5632  134.3566  164.3306 H   0  0  0  0  0  0  0  0  0  0  0  0
  1  2  1  0  0  0  0
  1 26  1  0  0  0  0
  1 27  1  0  0  0  0
  1 28  1  0  0  0  0
  2 24  1  0  0  0  0
  2  3  2  0  0  0  0
  3  4  1  0  0  0  0
  3 29  1  0  0  0  0
  4 22  2  0  0  0  0
  4  5  1  0  0  0  0
  5  6  2  0  0  0  0
  6  7  1  0  0  0  0
  6 30  1  0  0  0  0
  7  8  1  0  0  0  0
  7 22  1  0  0  0  0
  8  9  1  0  0  0  0
  8 31  1  0  0  0  0
  8 32  1  0  0  0  0
  9 10  1  0  0  0  0
  9 11  1  0  0  0  0
  9 33  1  0  0  0  0
 10 34  1  0  0  0  0
 11 12  1  0  0  0  0
 11 35  1  0  0  0  0
 11 36  1  0  0  0  0
 12 21  1  0  0  0  0
 12 13  1  0  0  0  0
 13 14  1  0  0  0  0
 13 37  1  0  0  0  0
 13 38  1  0  0  0  0
 14 15  1  0  0  0  0
 14 39  1  0  0  0  0
 14 40  1  0  0  0  0
 15 16  1  0  0  0  0
 16 17  1  0  0  0  0
 16 21  1  0  0  0  0
 16 41  1  0  0  0  0
 17 18  1  0  0  0  0
 17 42  1  0  0  0  0
 17 43  1  0  0  0  0
 18 19  1  0  0  0  0
 18 20  1  0  0  0  0
 18 56  1  0  0  0  0
 19 44  1  0  0  0  0
 19 45  1  0  0  0  0
 19 46  1  0  0  0  0
 20 47  1  0  0  0  0
 20 48  1  0  0  0  0
 20 49  1  0  0  0  0
 21 50  1  0  0  0  0
 21 51  1  0  0  0  0
 22 23  1  0  0  0  0
 23 24  2  0  0  0  0
 23 52  1  0  0  0  0
 24 25  1  0  0  0  0
 25 53  1  0  0  0  0
 25 54  1  0  0  0  0
 25 55  1  0  0  0  0
M  CHG  1  18   1
M  END
> <s_m_source_file>
AV-unprocessed.smi

> <i_m_source_file_index>
1005

> <i_lp_mmshare_version>
43012

> <i_f3d_flags>
0

> <s_epik_input>
W0NIM11jKFtjSF0xKWMoW0NIM10pW2NIXWMoYzEyKW4oW2NIXW4yKVtDSDJdW0NASF0oW09IXSlbQ0gyXU4zW0NIMl1bQ0gyXU9bQ0BIXShbQ0gyXTMpW0NIMl1OKFtDSDNdKVtDSDNd

> <s_epik_cmdline>
J2VwaWtfcHl0aG9uJywgJy1waCcsICc3LjAnLCAnLXRuJywgJzgnLCAnLW1hJywgJzIwMCcsICctbWV0YWxfYmluZGluZycsICctaW1hZScsICc8aW5maWxlLm1hZT4nLCAnLW9tYWUnLCAnPG91dGZpbGUubWFlPic=

> <r_epik_Ionization_Penalty>
0.226781

> <r_epik_Ionization_Penalty_Charging>
0.00915946

> <r_epik_Ionization_Penalty_Neutral>
0.217622

> <r_epik_State_Penalty>
0.173018

> <r_epik_Charging_Adjusted_Penalty>
0.182178

> <i_epik_Tot_Q>
1

> <i_epik_Tot_abs_Q>
1

> <r_epik_Metal_State_Penalty>
0.0905268

> <b_epik_Metal_Only>
0

> <s_lp_Force_Field>
OPLS_2005

> <r_lp_Energy>
36.5786

> <b_lp_Chiralities_Consistent>
1

> <s_lp_Variant>
AV-unprocessed.smi:1005-1

> <Gold.Version>
5.8.1

> <Gold.Id.Protein>
6NUR|6NUR_protein|mol2

> <Gold.PLP.Fitness>
44.2553

> <Gold.PLP.PLP>
-42.2643

> <Gold.PLP.part.hbond>
-1.0000

> <Gold.PLP.part.metal>
0.0000

> <Gold.PLP.part.buried>
-2.4995

> <Gold.PLP.part.nonpolar>
-38.5773

> <Gold.PLP.part.repulsive>
0.0929

> <Gold.PLP.ligand.clash>
0.0000

> <Gold.PLP.ligand.torsion>
0.4553

> <Gold.PLP.Chemscore.Hbond>
0.9440

> <Gold.PLP.Chemscore.CHOScore>
0.0000

> <Gold.PLP.Chemscore.Metal>
0.0000

> <Gold.Chemscore.Hbonds>
donor molecule, donor type, donor heavy atom, donor atom, acceptor molecule, acceptor atom, score
      P1  H  7997  8009       L1     5  0.93

> <Gold.PLP.Chemscore.Internal.Correction>
0.0695

> <Gold.Rescore>
     Score         DG    S(hbond)    S(metal)    S(lipo)     H(rot)  DE(clash)    DE(int)     intcor
     17.02     -18.98       0.89        0.00     142.81       2.41       1.43       0.52       ----

> <Gold.Chemscore.Fitness>
17.0238

> <Gold.Chemscore.DG>
-18.9766

> <Gold.Chemscore.ZeroCoef>
-5.4800

> <Gold.Chemscore.Hbond>
0.8882

> <Gold.Chemscore.Metal>
0.0000

> <Gold.Chemscore.Lipo>
142.8095

> <Gold.Chemscore.Internal_Hbond>
0.0000

> <Gold.Chemscore.DEClash>
1.4321

> <Gold.Chemscore.DEInternal>
0.5207

> <Gold.Chemscore.Rot>
2.4136

> <Gold.Chemscore.Internal.Correction>
   9.000000E+99

> <Gold.Chemscore.Hbonds>
donor molecule, donor type, donor heavy atom, donor atom, acceptor molecule, acceptor atom, score
      P1  H  7997  8009       L1     5  0.71

> <Gold.Chemscore.Hbond.Weighted>
-2.9666

> <Gold.Chemscore.Metal.Weighted>
-0.0000

> <Gold.Chemscore.Lipo.Weighted>
-16.7087

> <Gold.Chemscore.Internal_Hbond.Weighted>
0.0000

> <Gold.Chemscore.DEClash.Weighted>
1.4321

> <Gold.Chemscore.DEInternal.Weighted>
0.5207

> <Gold.Chemscore.Rot.Weighted>
6.1788

> <Gold.Chemscore.Internal.Correction.Weighted>
   9.000000E+99

> <Gold.Protein.RotatedTorsions>
[ 6907 6896 6895 6894 ] final   55.65 input  -60.11 | X-H torsion
[ 7974 7965 7964 7962 ] final   95.85 input  175.53 | X-H torsion
[ 8008 7997 7996 7995 ] final  135.84 input   59.86 | X-H torsion
[ 10167 10162 10161 10158 ] final -116.40 input  -65.29 | X-H torsion
[ 10718 10713 10712 10709 ] final  163.85 input   66.30 | X-H torsion
[ 10763 10752 10751 10750 ] final    0.29 input  -60.55 | X-H torsion
[ 11005 11000 10999 10996 ] final  107.49 input  -57.11 | X-H torsion

> <Gold.Protein.ActiveResidues>
 VAL166  LYS551  ARG553  GLY616  TRP617  ASP618  TYR619  PRO620  LYS621  CYS622 
 ASP623  PHE694  ASN695  SER759  ASP760  ASP761  ALA762  ILE779  LEU786  VAL792 
 PHE793  MET794  SER795  GLU796  ALA797  LYS798  CYS799  TRP800  GLU811  SER814 

> <Gold.Protein.RotatedAtoms>
  152.3559  134.6940  160.0221 H   0  0  0  0  0  0  0  0  0  0  0  0  # atno 6907 bound_to 6896
  151.7279  133.3311  159.3340 H   0  0  0  0  0  0  0  0  0  0  0  0  # atno 6908 bound_to 6896
  150.7571  134.6324  159.6238 H   0  0  0  0  0  0  0  0  0  0  0  0  # atno 6909 bound_to 6896
  145.4467  139.2296  143.3062 H   0  0  0  0  0  0  0  0  0  0  0  0  # atno 7974 bound_to 7965
  156.3003  140.2460  156.3647 H   0  0  0  0  0  0  0  0  0  0  0  0  # atno 8008 bound_to 7997
  154.8844  140.0411  157.1821 H   0  0  0  0  0  0  0  0  0  0  0  0  # atno 8009 bound_to 7997
  154.8662  140.2928  155.5513 H   0  0  0  0  0  0  0  0  0  0  0  0  # atno 8010 bound_to 7997
  140.0796  143.4800  152.1933 H   0  0  0  0  0  0  0  0  0  0  0  0  # atno 10167 bound_to 10162
  157.1027  131.0447  151.2491 H   0  0  0  0  0  0  0  0  0  0  0  0  # atno 10718 bound_to 10713
  153.3226  135.6970  153.7017 H   0  0  0  0  0  0  0  0  0  0  0  0  # atno 10763 bound_to 10752
  153.5851  135.3490  155.2890 H   0  0  0  0  0  0  0  0  0  0  0  0  # atno 10764 bound_to 10752
  154.8601  135.4304  154.2394 H   0  0  0  0  0  0  0  0  0  0  0  0  # atno 10765 bound_to 10752
  139.8829  134.9402  156.5827 H   0  0  0  0  0  0  0  0  0  0  0  0  # atno 11005 bound_to 11000
  146.2527  140.5221  142.8887 LP  0  0  0  0  0  0  0  0  0  0  0  0  # atno 17320 bound_to 7965
  144.8087  140.6347  143.6429 LP  0  0  0  0  0  0  0  0  0  0  0  0  # atno 17321 bound_to 7965
  139.5787  144.7500  151.3696 LP  0  0  0  0  0  0  0  0  0  0  0  0  # atno 17342 bound_to 10162
  140.7084  143.7453  150.7523 LP  0  0  0  0  0  0  0  0  0  0  0  0  # atno 17343 bound_to 10162
  157.4627  130.7663  149.7251 LP  0  0  0  0  0  0  0  0  0  0  0  0  # atno 17370 bound_to 10713
  155.9870  130.3970  150.3187 LP  0  0  0  0  0  0  0  0  0  0  0  0  # atno 17371 bound_to 10713
  140.8015  133.8501  155.8731 LP  0  0  0  0  0  0  0  0  0  0  0  0  # atno 17394 bound_to 11000
  140.9588  134.1682  157.4670 LP  0  0  0  0  0  0  0  0  0  0  0  0  # atno 17395 bound_to 11000

$$$$
