AV-unprocessed.smi:142|AV-procd|sdf|1190|dock2
  -GOLD-   2262018343D 1   1.00000     0.00000
 Structure written by MMmdl.
 52 55  0  0  0  0  0  0  0  0  1 V2000
  153.0788  138.3514  155.2671 C   0  0  0  0  0  0  0  0  0  0  0  0
  151.9172  138.7101  156.2036 C   0  0  1  0  0  0  0  0  0  0  0  0
  151.3263  137.4824  156.7316 N   0  0  0  0  0  0  0  0  0  0  0  0
  151.0239  136.3968  156.0036 C   0  0  0  0  0  0  0  0  0  0  0  0
  151.2727  136.2990  154.8013 O   0  0  0  0  0  0  0  0  0  0  0  0
  150.3335  135.2508  156.7562 C   0  0  0  0  0  0  0  0  0  0  0  0
  150.2133  134.0259  155.9364 N   0  0  0  0  0  0  0  0  0  0  0  0
  149.2516  133.9847  154.8964 C   0  0  0  0  0  0  0  0  0  0  0  0
  148.5233  134.9496  154.6594 O   0  0  0  0  0  0  0  0  0  0  0  0
  149.1894  132.7356  154.1458 C   0  0  0  0  0  0  0  0  0  0  0  0
  148.3205  132.6135  153.1280 F   0  0  0  0  0  0  0  0  0  0  0  0
  149.9944  131.6983  154.4545 C   0  0  0  0  0  0  0  0  0  0  0  0
  150.9146  131.7454  155.4860 N   0  0  0  0  0  0  0  0  0  0  0  0
  151.7997  130.5618  155.8103 C   0  0  2  0  0  0  0  0  0  0  0  0
  153.2760  130.9611  155.7091 C   0  0  0  0  0  0  0  0  0  0  0  0
  153.6013  130.5827  154.2805 C   0  0  0  0  0  0  0  0  0  0  0  0
  152.7502  129.3317  154.0933 C   0  0  0  0  0  0  0  0  0  0  0  0
  151.5753  129.5492  154.8714 O   0  0  0  0  0  0  0  0  0  0  0  0
  151.0479  132.9257  156.2488 C   0  0  0  0  0  0  0  0  0  0  0  0
  151.8723  132.9949  157.1636 O   0  0  0  0  0  0  0  0  0  0  0  0
  152.3740  139.6701  157.2986 C   0  0  0  0  0  0  0  0  0  0  0  0
  153.2496  139.2478  158.3254 C   0  0  0  0  0  0  0  0  0  0  0  0
  153.6585  140.1466  159.3287 C   0  0  0  0  0  0  0  0  0  0  0  0
  153.2006  141.4792  159.3134 C   0  0  0  0  0  0  0  0  0  0  0  0
  153.6059  142.3838  160.3164 C   0  0  0  0  0  0  0  0  0  0  0  0
  153.1452  143.7147  160.2940 C   0  0  0  0  0  0  0  0  0  0  0  0
  152.2791  144.1452  159.2702 C   0  0  0  0  0  0  0  0  0  0  0  0
  151.8710  143.2459  158.2658 C   0  0  0  0  0  0  0  0  0  0  0  0
  152.3291  141.9120  158.2832 C   0  0  0  0  0  0  0  0  0  0  0  0
  151.9229  141.0072  157.2811 C   0  0  0  0  0  0  0  0  0  0  0  0
  153.4991  139.2454  154.8057 H   0  0  0  0  0  0  0  0  0  0  0  0
  152.7484  137.6918  154.4639 H   0  0  0  0  0  0  0  0  0  0  0  0
  153.8818  137.8464  155.8052 H   0  0  0  0  0  0  0  0  0  0  0  0
  151.1556  139.2155  155.6063 H   0  0  0  0  0  0  0  0  0  0  0  0
  151.0934  137.4746  157.7140 H   0  0  0  0  0  0  0  0  0  0  0  0
  150.8841  135.0726  157.6808 H   0  0  0  0  0  0  0  0  0  0  0  0
  149.3470  135.5752  157.0930 H   0  0  0  0  0  0  0  0  0  0  0  0
  149.9071  130.8013  153.8599 H   0  0  0  0  0  0  0  0  0  0  0  0
  151.4974  130.2186  156.8011 H   0  0  0  0  0  0  0  0  0  0  0  0
  153.4416  132.0138  155.9411 H   0  0  0  0  0  0  0  0  0  0  0  0
  153.8503  130.3501  156.4066 H   0  0  0  0  0  0  0  0  0  0  0  0
  153.2762  131.3690  153.5978 H   0  0  0  0  0  0  0  0  0  0  0  0
  154.6640  130.4040  154.1150 H   0  0  0  0  0  0  0  0  0  0  0  0
  152.5080  129.1408  153.0477 H   0  0  0  0  0  0  0  0  0  0  0  0
  153.2712  128.4580  154.4866 H   0  0  0  0  0  0  0  0  0  0  0  0
  153.6136  138.2312  158.3518 H   0  0  0  0  0  0  0  0  0  0  0  0
  154.3246  139.8072  160.1085 H   0  0  0  0  0  0  0  0  0  0  0  0
  154.2700  142.0621  161.1055 H   0  0  0  0  0  0  0  0  0  0  0  0
  153.4565  144.4059  161.0633 H   0  0  0  0  0  0  0  0  0  0  0  0
  151.9268  145.1662  159.2550 H   0  0  0  0  0  0  0  0  0  0  0  0
  151.2056  143.5843  157.4848 H   0  0  0  0  0  0  0  0  0  0  0  0
  151.2580  141.3381  156.4960 H   0  0  0  0  0  0  0  0  0  0  0  0
  1  2  1  0  0  0  0
  1 31  1  0  0  0  0
  1 32  1  0  0  0  0
  1 33  1  0  0  0  0
  2  3  1  0  0  0  0
  2 21  1  0  0  0  0
  2 34  1  0  0  0  0
  3  4  1  0  0  0  0
  3 35  1  0  0  0  0
  4  5  2  0  0  0  0
  4  6  1  0  0  0  0
  6  7  1  0  0  0  0
  6 36  1  0  0  0  0
  6 37  1  0  0  0  0
  7 19  1  0  0  0  0
  7  8  1  0  0  0  0
  8  9  2  0  0  0  0
  8 10  1  0  0  0  0
 10 11  1  0  0  0  0
 10 12  2  0  0  0  0
 12 13  1  0  0  0  0
 12 38  1  0  0  0  0
 13 14  1  0  0  0  0
 13 19  1  0  0  0  0
 14 18  1  0  0  0  0
 14 15  1  0  0  0  0
 14 39  1  0  0  0  0
 15 16  1  0  0  0  0
 15 40  1  0  0  0  0
 15 41  1  0  0  0  0
 16 17  1  0  0  0  0
 16 42  1  0  0  0  0
 16 43  1  0  0  0  0
 17 18  1  0  0  0  0
 17 44  1  0  0  0  0
 17 45  1  0  0  0  0
 19 20  2  0  0  0  0
 21 30  1  0  0  0  0
 21 22  2  0  0  0  0
 22 23  1  0  0  0  0
 22 46  1  0  0  0  0
 23 24  2  0  0  0  0
 23 47  1  0  0  0  0
 24 29  1  0  0  0  0
 24 25  1  0  0  0  0
 25 26  2  0  0  0  0
 25 48  1  0  0  0  0
 26 27  1  0  0  0  0
 26 49  1  0  0  0  0
 27 28  2  0  0  0  0
 27 50  1  0  0  0  0
 28 29  1  0  0  0  0
 28 51  1  0  0  0  0
 29 30  2  0  0  0  0
 30 52  1  0  0  0  0
M  END
> <s_m_source_file>
AV-unprocessed.smi

> <i_m_source_file_index>
142

> <i_lp_mmshare_version>
43012

> <i_f3d_flags>
0

> <s_epik_input>
W2NIXTFbY0hdW2NIXVtjSF1jKGMxMilbY0hdYyhbY0hdW2NIXTIpW0NASF0oW0NIM10pW05IXUMoPU8pW0NIMl1uM2MoPU8pYyhGKVtjSF1uKGMzPU8pW0NAQEhdNFtDSDJdW0NIMl1bQ0gyXU80

> <s_epik_cmdline>
J2VwaWtfcHl0aG9uJywgJy1waCcsICc3LjAnLCAnLXRuJywgJzgnLCAnLW1hJywgJzIwMCcsICctbWV0YWxfYmluZGluZycsICctaW1hZScsICc8aW5maWxlLm1hZT4nLCAnLW9tYWUnLCAnPG91dGZpbGUubWFlPic=

> <r_lp_tautomer_probability>
1

> <r_epik_Ionization_Penalty>
3.35688e-08

> <r_epik_Ionization_Penalty_Charging>
3.59856e-09

> <r_epik_Ionization_Penalty_Neutral>
2.99702e-08

> <r_epik_State_Penalty>
-0

> <r_epik_Charging_Adjusted_Penalty>
3.59856e-09

> <i_epik_Tot_Q>
0

> <i_epik_Tot_abs_Q>
0

> <r_epik_Metal_State_Penalty>
-0

> <b_epik_Metal_Only>
0

> <s_epik_Chemistry_Notes>
This compound contains an acetal/aminal-like group ( X-CH(R)-Y where X, Y are N, S, or O) that may be acid/base labile, releasing an aldehyde.

> <s_lp_Force_Field>
OPLS_2005

> <r_lp_Energy>
30.4955

> <b_lp_Chiralities_Consistent>
1

> <s_lp_Variant>
AV-unprocessed.smi:142-2

> <Gold.Version>
5.8.1

> <Gold.Id.Protein>
6NUR|6NUR_protein|mol2

> <Gold.PLP.Fitness>
59.5863

> <Gold.PLP.PLP>
-55.2376

> <Gold.PLP.part.hbond>
-2.0000

> <Gold.PLP.part.metal>
0.0000

> <Gold.PLP.part.buried>
-6.5173

> <Gold.PLP.part.nonpolar>
-46.9122

> <Gold.PLP.part.repulsive>
1.5255

> <Gold.PLP.ligand.clash>
0.0000

> <Gold.PLP.ligand.torsion>
0.5168

> <Gold.PLP.Chemscore.Hbond>
1.7680

> <Gold.PLP.Chemscore.CHOScore>
0.0000

> <Gold.PLP.Chemscore.Metal>
0.0000

> <Gold.Chemscore.Hbonds>
donor molecule, donor type, donor heavy atom, donor atom, acceptor molecule, acceptor atom, score
      P1  H  6896  6908       L1    20  0.61
      P1  H 10752 10763       L1     5  1.00

> <Gold.PLP.Chemscore.Internal.Correction>
0.0783

> <Gold.Rescore>
     Score         DG    S(hbond)    S(metal)    S(lipo)     H(rot)  DE(clash)    DE(int)     intcor
     18.77     -22.08       1.90        0.00     131.69       2.02       0.14       3.17       ----

> <Gold.Chemscore.Fitness>
18.7651

> <Gold.Chemscore.DG>
-22.0847

> <Gold.Chemscore.ZeroCoef>
-5.4800

> <Gold.Chemscore.Hbond>
1.9046

> <Gold.Chemscore.Metal>
0.0000

> <Gold.Chemscore.Lipo>
131.6932

> <Gold.Chemscore.Internal_Hbond>
0.0000

> <Gold.Chemscore.DEClash>
0.1447

> <Gold.Chemscore.DEInternal>
3.1750

> <Gold.Chemscore.Rot>
2.0175

> <Gold.Chemscore.Internal.Correction>
   9.000000E+99

> <Gold.Chemscore.Hbonds>
donor molecule, donor type, donor heavy atom, donor atom, acceptor molecule, acceptor atom, score
      P1  H  6896  6908       L1    20  0.60
      P1  H 10752 10763       L1     5  0.74

> <Gold.Chemscore.Hbond.Weighted>
-6.3614

> <Gold.Chemscore.Metal.Weighted>
-0.0000

> <Gold.Chemscore.Lipo.Weighted>
-15.4081

> <Gold.Chemscore.Internal_Hbond.Weighted>
0.0000

> <Gold.Chemscore.DEClash.Weighted>
0.1447

> <Gold.Chemscore.DEInternal.Weighted>
3.1750

> <Gold.Chemscore.Rot.Weighted>
5.1648

> <Gold.Chemscore.Internal.Correction.Weighted>
   9.000000E+99

> <Gold.Protein.RotatedTorsions>
[ 6907 6896 6895 6894 ] final   73.56 input  -60.11 | X-H torsion
[ 7974 7965 7964 7962 ] final  -19.14 input  175.53 | X-H torsion
[ 8008 7997 7996 7995 ] final  -40.64 input   59.86 | X-H torsion
[ 10167 10162 10161 10158 ] final  133.77 input  -65.29 | X-H torsion
[ 10718 10713 10712 10709 ] final  105.23 input   66.30 | X-H torsion
[ 10763 10752 10751 10750 ] final   57.67 input  -60.55 | X-H torsion
[ 11005 11000 10999 10996 ] final -159.32 input  -57.11 | X-H torsion

> <Gold.Protein.ActiveResidues>
 VAL166  LYS551  ARG553  GLY616  TRP617  ASP618  TYR619  PRO620  LYS621  CYS622 
 ASP623  PHE694  ASN695  SER759  ASP760  ASP761  ALA762  ILE779  LEU786  VAL792 
 PHE793  MET794  SER795  GLU796  ALA797  LYS798  CYS799  TRP800  GLU811  SER814 

> <Gold.Protein.RotatedAtoms>
  152.4929  134.4404  159.9541 H   0  0  0  0  0  0  0  0  0  0  0  0  # atno 6907 bound_to 6896
  151.4388  133.3643  159.2786 H   0  0  0  0  0  0  0  0  0  0  0  0  # atno 6908 bound_to 6896
  150.9102  134.8542  159.7480 H   0  0  0  0  0  0  0  0  0  0  0  0  # atno 6909 bound_to 6896
  146.1856  140.4020  142.8477 H   0  0  0  0  0  0  0  0  0  0  0  0  # atno 7974 bound_to 7965
  154.4010  140.1520  156.3061 H   0  0  0  0  0  0  0  0  0  0  0  0  # atno 8008 bound_to 7997
  155.8657  140.3451  155.5765 H   0  0  0  0  0  0  0  0  0  0  0  0  # atno 8009 bound_to 7997
  155.7830  140.0846  157.2039 H   0  0  0  0  0  0  0  0  0  0  0  0  # atno 8010 bound_to 7997
  139.5283  144.6599  151.5044 H   0  0  0  0  0  0  0  0  0  0  0  0  # atno 10167 bound_to 10162
  157.6712  131.0823  150.5826 H   0  0  0  0  0  0  0  0  0  0  0  0  # atno 10718 bound_to 10713
  152.9854  135.5633  154.5428 H   0  0  0  0  0  0  0  0  0  0  0  0  # atno 10763 bound_to 10752
  154.4879  135.2791  155.1521 H   0  0  0  0  0  0  0  0  0  0  0  0  # atno 10764 bound_to 10752
  154.3003  135.6309  153.5475 H   0  0  0  0  0  0  0  0  0  0  0  0  # atno 10765 bound_to 10752
  140.6439  134.4522  157.5234 H   0  0  0  0  0  0  0  0  0  0  0  0  # atno 11005 bound_to 11000
  144.8392  140.6830  143.6240 LP  0  0  0  0  0  0  0  0  0  0  0  0  # atno 17320 bound_to 7965
  145.3947  139.1609  143.4210 LP  0  0  0  0  0  0  0  0  0  0  0  0  # atno 17321 bound_to 7965
  140.6443  143.8826  150.6722 LP  0  0  0  0  0  0  0  0  0  0  0  0  # atno 17342 bound_to 10162
  140.2171  143.3838  152.1672 LP  0  0  0  0  0  0  0  0  0  0  0  0  # atno 17343 bound_to 10162
  156.6127  130.4384  149.5853 LP  0  0  0  0  0  0  0  0  0  0  0  0  # atno 17370 bound_to 10713
  156.2418  130.6855  151.1563 LP  0  0  0  0  0  0  0  0  0  0  0  0  # atno 17371 bound_to 10713
  139.9070  134.8427  156.1668 LP  0  0  0  0  0  0  0  0  0  0  0  0  # atno 17394 bound_to 11000
  141.0587  133.6852  156.1910 LP  0  0  0  0  0  0  0  0  0  0  0  0  # atno 17395 bound_to 11000

$$$$
