AV-unprocessed.smi:3201|AV-procd|sdf|12238|dock2
  -GOLD-   2272018 73D 1   1.00000     0.00000
 Structure written by MMmdl.
 41 43  0  0  0  0  0  0  0  0  2 V2000
  149.8206  138.3672  154.3423 C   0  0  0  0  0  0  0  0  0  0  0  0
  148.9554  139.5817  154.2391 C   0  0  0  0  0  0  0  0  0  0  0  0
  149.1740  140.8727  154.6401 C   0  0  0  0  0  0  0  0  0  0  0  0
  150.3778  141.4636  155.3213 C   0  0  0  0  0  0  0  0  0  0  0  0
  150.0948  141.7657  156.7987 C   0  0  0  0  0  0  0  0  0  0  0  0
  150.3992  143.1745  157.1208 N   0  3  0  0  0  0  0  0  0  0  0  0
  150.6750  143.4314  158.5513 C   0  0  1  0  0  0  0  0  0  0  0  0
  151.6551  142.4017  159.1615 C   0  0  0  0  0  0  0  0  0  0  0  0
  152.7952  143.2867  159.6969 C   0  0  2  0  0  0  0  0  0  0  0  0
  152.2948  144.1023  160.9035 C   0  0  0  0  0  0  0  0  0  0  0  0
  151.3688  145.1444  160.2479 C   0  0  0  0  0  0  0  0  0  0  0  0
  151.4294  144.7633  158.7562 C   0  0  1  0  0  0  0  0  0  0  0  0
  152.8916  144.3509  158.6111 C   0  0  0  0  0  0  0  0  0  0  0  0
  147.9794  141.5491  154.2635 C   0  0  0  0  0  0  0  0  0  0  0  0
  147.0984  140.7522  153.6862 N   0  0  0  0  0  0  0  0  0  0  0  0
  147.6968  139.5435  153.6684 N   0  0  0  0  0  0  0  0  0  0  0  0
  146.9953  138.4118  153.0940 C   0  0  0  0  0  0  0  0  0  0  0  0
  150.7565  138.5895  154.8546 H   0  0  0  0  0  0  0  0  0  0  0  0
  150.0654  137.9816  153.3524 H   0  0  0  0  0  0  0  0  0  0  0  0
  149.3150  137.5770  154.8979 H   0  0  0  0  0  0  0  0  0  0  0  0
  151.2293  140.7863  155.2461 H   0  0  0  0  0  0  0  0  0  0  0  0
  150.6858  142.3815  154.8190 H   0  0  0  0  0  0  0  0  0  0  0  0
  149.0468  141.5653  157.0260 H   0  0  0  0  0  0  0  0  0  0  0  0
  150.6920  141.1092  157.4324 H   0  0  0  0  0  0  0  0  0  0  0  0
  151.1969  143.4740  156.5786 H   0  0  0  0  0  0  0  0  0  0  0  0
  149.7272  143.4480  159.0921 H   0  0  0  0  0  0  0  0  0  0  0  0
  151.1916  141.8045  159.9477 H   0  0  0  0  0  0  0  0  0  0  0  0
  152.0407  141.7132  158.4079 H   0  0  0  0  0  0  0  0  0  0  0  0
  153.7187  142.7402  159.8902 H   0  0  0  0  0  0  0  0  0  0  0  0
  151.7736  143.4817  161.6334 H   0  0  0  0  0  0  0  0  0  0  0  0
  153.1243  144.5942  161.4136 H   0  0  0  0  0  0  0  0  0  0  0  0
  150.3547  145.1122  160.6480 H   0  0  0  0  0  0  0  0  0  0  0  0
  151.7565  146.1519  160.4056 H   0  0  0  0  0  0  0  0  0  0  0  0
  151.1057  145.5668  158.0935 H   0  0  0  0  0  0  0  0  0  0  0  0
  153.5939  145.1512  158.8514 H   0  0  0  0  0  0  0  0  0  0  0  0
  153.1355  143.9458  157.6274 H   0  0  0  0  0  0  0  0  0  0  0  0
  147.7271  142.5910  154.3950 H   0  0  0  0  0  0  0  0  0  0  0  0
  147.6333  137.9152  152.3625 H   0  0  0  0  0  0  0  0  0  0  0  0
  146.0800  138.7375  152.5974 H   0  0  0  0  0  0  0  0  0  0  0  0
  146.7372  137.7033  153.8818 H   0  0  0  0  0  0  0  0  0  0  0  0
  149.6000  143.7307  156.8518 H   0  0  0  0  0  0  0  0  0  0  0  0
  1  2  1  0  0  0  0
  1 18  1  0  0  0  0
  1 19  1  0  0  0  0
  1 20  1  0  0  0  0
  2 16  1  0  0  0  0
  2  3  2  0  0  0  0
  3  4  1  0  0  0  0
  3 14  1  0  0  0  0
  4  5  1  0  0  0  0
  4 21  1  0  0  0  0
  4 22  1  0  0  0  0
  5  6  1  0  0  0  0
  5 23  1  0  0  0  0
  5 24  1  0  0  0  0
  6  7  1  0  0  0  0
  6 25  1  0  0  0  0
  6 41  1  0  0  0  0
  7 12  1  0  0  0  0
  7  8  1  0  0  0  0
  7 26  1  0  0  0  0
  8  9  1  0  0  0  0
  8 27  1  0  0  0  0
  8 28  1  0  0  0  0
  9 13  1  0  0  0  0
  9 10  1  0  0  0  0
  9 29  1  0  0  0  0
 10 11  1  0  0  0  0
 10 30  1  0  0  0  0
 10 31  1  0  0  0  0
 11 12  1  0  0  0  0
 11 32  1  0  0  0  0
 11 33  1  0  0  0  0
 12 13  1  0  0  0  0
 12 34  1  0  0  0  0
 13 35  1  0  0  0  0
 13 36  1  0  0  0  0
 14 15  2  0  0  0  0
 14 37  1  0  0  0  0
 15 16  1  0  0  0  0
 16 17  1  0  0  0  0
 17 38  1  0  0  0  0
 17 39  1  0  0  0  0
 17 40  1  0  0  0  0
M  CHG  1   6   1
M  END
> <s_m_source_file>
AV-unprocessed.smi

> <i_m_source_file_index>
3201

> <i_lp_mmshare_version>
43012

> <i_f3d_flags>
0

> <s_epik_input>
W0NIM11uMW5bY0hdYyhjMVtDSDNdKVtDSDJdW0NIMl1bTkhdW0NASF0oW0NIMl1bQ0BIXTIzKVtDQEhdKFtDSDJdMylbQ0gyXVtDSDJdMg==

> <s_epik_cmdline>
J2VwaWtfcHl0aG9uJywgJy1waCcsICc3LjAnLCAnLXRuJywgJzgnLCAnLW1hJywgJzIwMCcsICctbWV0YWxfYmluZGluZycsICctaW1hZScsICc8aW5maWxlLm1hZT4nLCAnLW9tYWUnLCAnPG91dGZpbGUubWFlPic=

> <r_lp_tautomer_probability>
1

> <r_epik_Ionization_Penalty>
0.000331174

> <r_epik_Ionization_Penalty_Charging>
0.000242709

> <r_epik_Ionization_Penalty_Neutral>
8.84659e-05

> <r_epik_State_Penalty>
-0

> <r_epik_Charging_Adjusted_Penalty>
0.000242709

> <i_epik_Tot_Q>
1

> <i_epik_Tot_abs_Q>
1

> <r_epik_Metal_State_Penalty>
-0

> <b_epik_Metal_Only>
0

> <s_lp_Force_Field>
OPLS_2005

> <r_lp_Energy>
49.6372

> <b_lp_Chiralities_Consistent>
1

> <s_lp_Variant>
AV-unprocessed.smi:3201-2

> <Gold.Version>
5.8.1

> <Gold.Id.Protein>
6NUR|6NUR_protein|mol2

> <Gold.PLP.Fitness>
49.8619

> <Gold.PLP.PLP>
-42.3736

> <Gold.PLP.part.hbond>
-1.0000

> <Gold.PLP.part.metal>
0.0000

> <Gold.PLP.part.buried>
-3.7665

> <Gold.PLP.part.nonpolar>
-38.0344

> <Gold.PLP.part.repulsive>
0.1827

> <Gold.PLP.ligand.clash>
0.0000

> <Gold.PLP.ligand.torsion>
0.7717

> <Gold.PLP.Chemscore.Hbond>
2.0000

> <Gold.PLP.Chemscore.CHOScore>
1.0000

> <Gold.PLP.Chemscore.Metal>
0.0000

> <Gold.Chemscore.Hbonds>
donor molecule, donor type, donor heavy atom, donor atom, acceptor molecule, acceptor atom, score
      L1  H     6    41       P1  8028  1.89
      L1  C    14    37       P1  8028  0.58

> <Gold.PLP.Chemscore.Internal.Correction>
0.0318

> <Gold.Rescore>
     Score         DG    S(hbond)    S(metal)    S(lipo)     H(rot)  DE(clash)    DE(int)     intcor
     19.09     -19.85       0.89        0.00     127.22       1.36       0.09       0.68       ----

> <Gold.Chemscore.Fitness>
19.0915

> <Gold.Chemscore.DG>
-19.8539

> <Gold.Chemscore.ZeroCoef>
-5.4800

> <Gold.Chemscore.Hbond>
0.8885

> <Gold.Chemscore.Metal>
0.0000

> <Gold.Chemscore.Lipo>
127.2215

> <Gold.Chemscore.Internal_Hbond>
0.0000

> <Gold.Chemscore.DEClash>
0.0861

> <Gold.Chemscore.DEInternal>
0.6763

> <Gold.Chemscore.Rot>
1.3588

> <Gold.Chemscore.Internal.Correction>
   9.000000E+99

> <Gold.Chemscore.Hbonds>
donor molecule, donor type, donor heavy atom, donor atom, acceptor molecule, acceptor atom, score
      L1  H     6    41       P1  8028  0.87

> <Gold.Chemscore.Hbond.Weighted>
-2.9676

> <Gold.Chemscore.Metal.Weighted>
-0.0000

> <Gold.Chemscore.Lipo.Weighted>
-14.8849

> <Gold.Chemscore.Internal_Hbond.Weighted>
0.0000

> <Gold.Chemscore.DEClash.Weighted>
0.0861

> <Gold.Chemscore.DEInternal.Weighted>
0.6763

> <Gold.Chemscore.Rot.Weighted>
3.4786

> <Gold.Chemscore.Internal.Correction.Weighted>
   9.000000E+99

> <Gold.Protein.RotatedTorsions>
[ 6907 6896 6895 6894 ] final   63.41 input  -60.11 | X-H torsion
[ 7974 7965 7964 7962 ] final  -70.44 input  175.53 | X-H torsion
[ 8008 7997 7996 7995 ] final   65.15 input   59.86 | X-H torsion
[ 10167 10162 10161 10158 ] final  146.23 input  -65.29 | X-H torsion
[ 10718 10713 10712 10709 ] final    1.19 input   66.30 | X-H torsion
[ 10763 10752 10751 10750 ] final  -79.67 input  -60.55 | X-H torsion
[ 11005 11000 10999 10996 ] final -102.31 input  -57.11 | X-H torsion

> <Gold.Protein.ActiveResidues>
 VAL166  LYS551  ARG553  GLY616  TRP617  ASP618  TYR619  PRO620  LYS621  CYS622 
 ASP623  PHE694  ASN695  SER759  ASP760  ASP761  ALA762  ILE779  LEU786  VAL792 
 PHE793  MET794  SER795  GLU796  ALA797  LYS798  CYS799  TRP800  GLU811  SER814 

> <Gold.Protein.RotatedAtoms>
  152.4251  134.5883  159.9966 H   0  0  0  0  0  0  0  0  0  0  0  0  # atno 6907 bound_to 6896
  151.6022  133.3349  159.3058 H   0  0  0  0  0  0  0  0  0  0  0  0  # atno 6908 bound_to 6896
  150.8140  134.7349  159.6779 H   0  0  0  0  0  0  0  0  0  0  0  0  # atno 6909 bound_to 6896
  145.6909  140.9153  143.0782 H   0  0  0  0  0  0  0  0  0  0  0  0  # atno 7974 bound_to 7965
  155.6572  140.3497  155.4769 H   0  0  0  0  0  0  0  0  0  0  0  0  # atno 8008 bound_to 7997
  155.9799  140.1172  157.0759 H   0  0  0  0  0  0  0  0  0  0  0  0  # atno 8009 bound_to 7997
  154.4189  140.1140  156.5407 H   0  0  0  0  0  0  0  0  0  0  0  0  # atno 8010 bound_to 7997
  139.4911  144.5844  151.6807 H   0  0  0  0  0  0  0  0  0  0  0  0  # atno 10167 bound_to 10162
  156.8445  130.5532  149.5675 H   0  0  0  0  0  0  0  0  0  0  0  0  # atno 10718 bound_to 10713
  154.5415  135.5687  153.6844 H   0  0  0  0  0  0  0  0  0  0  0  0  # atno 10763 bound_to 10752
  152.9965  135.6229  154.2495 H   0  0  0  0  0  0  0  0  0  0  0  0  # atno 10764 bound_to 10752
  154.2426  135.2862  155.2827 H   0  0  0  0  0  0  0  0  0  0  0  0  # atno 10765 bound_to 10752
  141.1194  133.8548  157.1343 H   0  0  0  0  0  0  0  0  0  0  0  0  # atno 11005 bound_to 11000
  144.6997  139.8820  143.7448 LP  0  0  0  0  0  0  0  0  0  0  0  0  # atno 17320 bound_to 7965
  146.0883  139.3871  143.0422 LP  0  0  0  0  0  0  0  0  0  0  0  0  # atno 17321 bound_to 7965
  140.5457  144.0507  150.6106 LP  0  0  0  0  0  0  0  0  0  0  0  0  # atno 17342 bound_to 10162
  140.3544  143.2944  152.0452 LP  0  0  0  0  0  0  0  0  0  0  0  0  # atno 17343 bound_to 10162
  156.0862  130.5860  150.9652 LP  0  0  0  0  0  0  0  0  0  0  0  0  # atno 17370 bound_to 10713
  157.6337  131.0918  150.8390 LP  0  0  0  0  0  0  0  0  0  0  0  0  # atno 17371 bound_to 10713
  140.0140  134.9975  157.0456 LP  0  0  0  0  0  0  0  0  0  0  0  0  # atno 17394 bound_to 11000
  140.4550  134.1543  155.7185 LP  0  0  0  0  0  0  0  0  0  0  0  0  # atno 17395 bound_to 11000

$$$$
