AV-unprocessed.smi:550|AV-procd|sdf|2894|dock8
  -GOLD-   2262023393D 1   1.00000     0.00000
 Structure written by MMmdl.
 45 47  0  0  0  0  0  0  0  0  1 V2000
  147.5556  140.7200  154.0731 O   0  0  0  0  0  0  0  0  0  0  0  0
  148.3155  139.7998  153.7722 C   0  0  0  0  0  0  0  0  0  0  0  0
  148.0155  138.8584  152.8660 N   0  0  0  0  0  0  0  0  0  0  0  0
  146.7646  138.7684  152.1185 C   0  0  0  0  0  0  0  0  0  0  0  0
  146.0428  137.4287  152.3610 C   0  0  2  0  0  0  0  0  0  0  0  0
  145.3835  136.8812  151.0799 C   0  0  0  0  0  0  0  0  0  0  0  0
  144.4836  135.7006  151.4579 C   0  0  0  0  0  0  0  0  0  0  0  0
  143.8028  136.1097  153.1074 S   0  0  0  0  0  0  0  0  0  0  0  0
  142.4433  136.6501  152.9565 O   0  0  0  0  0  0  0  0  0  0  0  0
  144.0774  134.9959  154.0278 O   0  0  0  0  0  0  0  0  0  0  0  0
  144.9581  137.4909  153.4513 C   0  0  0  0  0  0  0  0  0  0  0  0
  149.5445  139.6090  154.2813 N   0  0  0  0  0  0  0  0  0  0  0  0
  150.2086  140.3578  155.2900 C   0  0  0  0  0  0  0  0  0  0  0  0
  151.2067  139.7130  156.0456 C   0  0  0  0  0  0  0  0  0  0  0  0
  151.8668  140.4246  157.0651 C   0  0  0  0  0  0  0  0  0  0  0  0
  151.5050  141.7704  157.3086 C   0  0  0  0  0  0  0  0  0  0  0  0
  152.1363  142.5185  158.3221 N   0  0  0  0  0  0  0  0  0  0  0  0
  152.4058  141.9542  159.6357 C   0  0  0  0  0  0  0  0  0  0  0  0
  152.9513  143.1237  160.4534 C   0  0  0  0  0  0  0  0  0  0  0  0
  152.2115  144.3278  159.8706 C   0  0  0  0  0  0  0  0  0  0  0  0
  152.0155  143.9680  158.3931 C   0  0  0  0  0  0  0  0  0  0  0  0
  150.5310  142.3848  156.5962 N   0  0  0  0  0  0  0  0  0  0  0  0
  149.9019  141.6996  155.6182 C   0  0  0  0  0  0  0  0  0  0  0  0
  148.7054  138.1452  152.6797 H   0  0  0  0  0  0  0  0  0  0  0  0
  146.1068  139.6069  152.3541 H   0  0  0  0  0  0  0  0  0  0  0  0
  147.0076  138.8644  151.0600 H   0  0  0  0  0  0  0  0  0  0  0  0
  146.7831  136.6926  152.6781 H   0  0  0  0  0  0  0  0  0  0  0  0
  144.7689  137.6626  150.6306 H   0  0  0  0  0  0  0  0  0  0  0  0
  146.1254  136.5919  150.3349 H   0  0  0  0  0  0  0  0  0  0  0  0
  143.6760  135.5311  150.7457 H   0  0  0  0  0  0  0  0  0  0  0  0
  145.0664  134.7841  151.5514 H   0  0  0  0  0  0  0  0  0  0  0  0
  145.3607  137.4010  154.4605 H   0  0  0  0  0  0  0  0  0  0  0  0
  144.3905  138.4197  153.3875 H   0  0  0  0  0  0  0  0  0  0  0  0
  150.0855  138.8629  153.8697 H   0  0  0  0  0  0  0  0  0  0  0  0
  151.4684  138.6837  155.8484 H   0  0  0  0  0  0  0  0  0  0  0  0
  152.6297  139.9297  157.6471 H   0  0  0  0  0  0  0  0  0  0  0  0
  151.4769  141.5814  160.0696 H   0  0  0  0  0  0  0  0  0  0  0  0
  153.1191  141.1310  159.5832 H   0  0  0  0  0  0  0  0  0  0  0  0
  152.7936  143.0018  161.5251 H   0  0  0  0  0  0  0  0  0  0  0  0
  154.0228  143.2298  160.2782 H   0  0  0  0  0  0  0  0  0  0  0  0
  151.2386  144.4242  160.3544 H   0  0  0  0  0  0  0  0  0  0  0  0
  152.7490  145.2660  160.0099 H   0  0  0  0  0  0  0  0  0  0  0  0
  152.7967  144.4169  157.7791 H   0  0  0  0  0  0  0  0  0  0  0  0
  151.0486  144.3203  158.0317 H   0  0  0  0  0  0  0  0  0  0  0  0
  149.1231  142.2496  155.1137 H   0  0  0  0  0  0  0  0  0  0  0  0
  1  2  2  0  0  0  0
  2  3  1  0  0  0  0
  2 12  1  0  0  0  0
  3  4  1  0  0  0  0
  3 24  1  0  0  0  0
  4  5  1  0  0  0  0
  4 25  1  0  0  0  0
  4 26  1  0  0  0  0
  5 11  1  0  0  0  0
  5  6  1  0  0  0  0
  5 27  1  0  0  0  0
  6  7  1  0  0  0  0
  6 28  1  0  0  0  0
  6 29  1  0  0  0  0
  7  8  1  0  0  0  0
  7 30  1  0  0  0  0
  7 31  1  0  0  0  0
  8  9  2  0  0  0  0
  8 10  2  0  0  0  0
  8 11  1  0  0  0  0
 11 32  1  0  0  0  0
 11 33  1  0  0  0  0
 12 13  1  0  0  0  0
 12 34  1  0  0  0  0
 13 23  1  0  0  0  0
 13 14  2  0  0  0  0
 14 15  1  0  0  0  0
 14 35  1  0  0  0  0
 15 16  2  0  0  0  0
 15 36  1  0  0  0  0
 16 17  1  0  0  0  0
 16 22  1  0  0  0  0
 17 21  1  0  0  0  0
 17 18  1  0  0  0  0
 18 19  1  0  0  0  0
 18 37  1  0  0  0  0
 18 38  1  0  0  0  0
 19 20  1  0  0  0  0
 19 39  1  0  0  0  0
 19 40  1  0  0  0  0
 20 21  1  0  0  0  0
 20 41  1  0  0  0  0
 20 42  1  0  0  0  0
 21 43  1  0  0  0  0
 21 44  1  0  0  0  0
 22 23  2  0  0  0  0
 23 45  1  0  0  0  0
M  END
> <s_m_source_file>
AV-unprocessed.smi

> <i_m_source_file_index>
550

> <i_lp_mmshare_version>
43012

> <i_f3d_flags>
0

> <s_epik_input>
Tz1TMSg9TylbQ0gyXVtDSDJdW0NASF0oW0NIMl0xKVtDSDJdW05IXUMoPU8pW05IXWMyW2NIXVtjSF1jKG5bY0hdMilOM1tDSDJdW0NIMl1bQ0gyXVtDSDJdMw==

> <s_epik_cmdline>
J2VwaWtfcHl0aG9uJywgJy1waCcsICc3LjAnLCAnLXRuJywgJzgnLCAnLW1hJywgJzIwMCcsICctbWV0YWxfYmluZGluZycsICctaW1hZScsICc8aW5maWxlLm1hZT4nLCAnLW9tYWUnLCAnPG91dGZpbGUubWFlPic=

> <r_lp_tautomer_probability>
1

> <r_epik_Ionization_Penalty>
0.0965651

> <r_epik_Ionization_Penalty_Charging>
0

> <r_epik_Ionization_Penalty_Neutral>
0.0965651

> <r_epik_State_Penalty>
0.0861592

> <r_epik_Charging_Adjusted_Penalty>
0.0861592

> <i_epik_Tot_Q>
0

> <i_epik_Tot_abs_Q>
0

> <r_epik_Metal_State_Penalty>
0.0740405

> <b_epik_Metal_Only>
0

> <s_lp_Force_Field>
OPLS_2005

> <r_lp_Energy>
29.4066

> <b_lp_Chiralities_Consistent>
1

> <s_lp_Variant>
AV-unprocessed.smi:550-1

> <Gold.Version>
5.8.1

> <Gold.Id.Protein>
6NUR|6NUR_protein|mol2

> <Gold.PLP.Fitness>
44.2673

> <Gold.PLP.PLP>
-41.5326

> <Gold.PLP.part.hbond>
-2.7441

> <Gold.PLP.part.metal>
0.0000

> <Gold.PLP.part.buried>
2.0937

> <Gold.PLP.part.nonpolar>
-41.3718

> <Gold.PLP.part.repulsive>
1.3707

> <Gold.PLP.ligand.clash>
0.0000

> <Gold.PLP.ligand.torsion>
1.0473

> <Gold.PLP.Chemscore.Hbond>
0.8406

> <Gold.PLP.Chemscore.CHOScore>
0.7044

> <Gold.PLP.Chemscore.Metal>
0.0000

> <Gold.Chemscore.Hbonds>
donor molecule, donor type, donor heavy atom, donor atom, acceptor molecule, acceptor atom, score
      L1  H     3    24       P1  7948  0.80
      L1  C    23    45       P1  8028  0.76

> <Gold.PLP.Chemscore.Internal.Correction>
0.1942

> <Gold.Rescore>
     Score         DG    S(hbond)    S(metal)    S(lipo)     H(rot)  DE(clash)    DE(int)     intcor
     13.98     -16.48       0.81        0.00      98.17       1.25       0.37       2.14       ----

> <Gold.Chemscore.Fitness>
13.9757

> <Gold.Chemscore.DG>
-16.4812

> <Gold.Chemscore.ZeroCoef>
-5.4800

> <Gold.Chemscore.Hbond>
0.8135

> <Gold.Chemscore.Metal>
0.0000

> <Gold.Chemscore.Lipo>
98.1676

> <Gold.Chemscore.Internal_Hbond>
0.0000

> <Gold.Chemscore.DEClash>
0.3667

> <Gold.Chemscore.DEInternal>
2.1389

> <Gold.Chemscore.Rot>
1.2506

> <Gold.Chemscore.Internal.Correction>
   9.000000E+99

> <Gold.Chemscore.Hbonds>
donor molecule, donor type, donor heavy atom, donor atom, acceptor molecule, acceptor atom, score
      L1  H     3    24       P1  7948  0.75

> <Gold.Chemscore.Hbond.Weighted>
-2.7172

> <Gold.Chemscore.Metal.Weighted>
-0.0000

> <Gold.Chemscore.Lipo.Weighted>
-11.4856

> <Gold.Chemscore.Internal_Hbond.Weighted>
0.0000

> <Gold.Chemscore.DEClash.Weighted>
0.3667

> <Gold.Chemscore.DEInternal.Weighted>
2.1389

> <Gold.Chemscore.Rot.Weighted>
3.2016

> <Gold.Chemscore.Internal.Correction.Weighted>
   9.000000E+99

> <Gold.Protein.RotatedTorsions>
[ 6907 6896 6895 6894 ] final  122.94 input  -60.11 | X-H torsion
[ 7974 7965 7964 7962 ] final   -1.30 input  175.53 | X-H torsion
[ 8008 7997 7996 7995 ] final   10.49 input   59.86 | X-H torsion
[ 10167 10162 10161 10158 ] final  -19.69 input  -65.29 | X-H torsion
[ 10718 10713 10712 10709 ] final  135.46 input   66.30 | X-H torsion
[ 10763 10752 10751 10750 ] final  154.00 input  -60.55 | X-H torsion
[ 11005 11000 10999 10996 ] final  -44.64 input  -57.11 | X-H torsion

> <Gold.Protein.ActiveResidues>
 VAL166  LYS551  ARG553  GLY616  TRP617  ASP618  TYR619  PRO620  LYS621  CYS622 
 ASP623  PHE694  ASN695  SER759  ASP760  ASP761  ALA762  ILE779  LEU786  VAL792 
 PHE793  MET794  SER795  GLU796  ALA797  LYS798  CYS799  TRP800  GLU811  SER814 

> <Gold.Protein.RotatedAtoms>
  152.4202  133.7104  159.6475 H   0  0  0  0  0  0  0  0  0  0  0  0  # atno 6907 bound_to 6896
  150.8078  133.8466  159.3202 H   0  0  0  0  0  0  0  0  0  0  0  0  # atno 6908 bound_to 6896
  151.6185  135.1036  160.0148 H   0  0  0  0  0  0  0  0  0  0  0  0  # atno 6909 bound_to 6896
  146.2418  140.1399  142.8336 H   0  0  0  0  0  0  0  0  0  0  0  0  # atno 7974 bound_to 7965
  154.7940  140.2840  155.5970 H   0  0  0  0  0  0  0  0  0  0  0  0  # atno 8008 bound_to 7997
  156.2968  140.2599  156.2723 H   0  0  0  0  0  0  0  0  0  0  0  0  # atno 8009 bound_to 7997
  154.9636  140.0377  157.2191 H   0  0  0  0  0  0  0  0  0  0  0  0  # atno 8010 bound_to 7997
  140.7270  143.4794  151.0138 H   0  0  0  0  0  0  0  0  0  0  0  0  # atno 10167 bound_to 10162
  157.4568  131.1070  150.9968 H   0  0  0  0  0  0  0  0  0  0  0  0  # atno 10718 bound_to 10713
  154.1453  135.2818  155.3150 H   0  0  0  0  0  0  0  0  0  0  0  0  # atno 10763 bound_to 10752
  154.6257  135.5452  153.7628 H   0  0  0  0  0  0  0  0  0  0  0  0  # atno 10764 bound_to 10752
  153.0238  135.6450  154.1598 H   0  0  0  0  0  0  0  0  0  0  0  0  # atno 10765 bound_to 10752
  141.0464  133.6760  156.2901 H   0  0  0  0  0  0  0  0  0  0  0  0  # atno 11005 bound_to 11000
  145.0255  140.8828  143.5141 LP  0  0  0  0  0  0  0  0  0  0  0  0  # atno 17320 bound_to 7965
  145.1455  139.2546  143.5468 LP  0  0  0  0  0  0  0  0  0  0  0  0  # atno 17321 bound_to 7965
  139.8492  143.7461  152.3178 LP  0  0  0  0  0  0  0  0  0  0  0  0  # atno 17342 bound_to 10162
  139.7637  144.7498  151.0326 LP  0  0  0  0  0  0  0  0  0  0  0  0  # atno 17343 bound_to 10162
  157.0779  130.5891  149.5415 LP  0  0  0  0  0  0  0  0  0  0  0  0  # atno 17370 bound_to 10713
  156.0011  130.5090  150.7665 LP  0  0  0  0  0  0  0  0  0  0  0  0  # atno 17371 bound_to 10713
  140.6139  134.5430  157.5538 LP  0  0  0  0  0  0  0  0  0  0  0  0  # atno 17394 bound_to 11000
  139.9315  134.7955  156.0918 LP  0  0  0  0  0  0  0  0  0  0  0  0  # atno 17395 bound_to 11000

$$$$
