AV-unprocessed.smi:2626|AV-procd|sdf|10238|dock2
  -GOLD-   2272014243D 1   1.00000     0.00000
 Structure written by MMmdl.
 26 27  0  0  0  0  0  0  0  0  2 V2000
  152.3359  143.8827  160.0591 C   0  0  0  0  0  0  0  0  0  0  0  0
  152.6507  142.5118  159.4976 C   0  0  0  0  0  0  0  0  0  0  0  0
  153.5729  141.6932  160.0618 C   0  0  0  0  0  0  0  0  0  0  0  0
  153.8243  140.3809  159.4651 C   0  0  0  0  0  0  0  0  0  0  0  0
  154.6601  139.6368  159.9740 O   0  0  0  0  0  0  0  0  0  0  0  0
  153.1039  140.0473  158.3550 N   0  5  0  0  0  0  0  0  0  0  0  0
  152.1785  140.9395  157.8371 C   0  0  0  0  0  0  0  0  0  0  0  0
  151.5118  140.4838  156.7100 N   0  0  0  0  0  0  0  0  0  0  0  0
  150.5840  141.3905  156.0426 C   0  0  0  0  0  0  0  0  0  0  0  0
  149.6658  140.6238  155.0762 C   0  0  0  0  0  0  0  0  0  0  0  0
  150.4556  139.8950  154.1440 O   0  0  0  0  0  0  0  0  0  0  0  0
  151.2845  138.9405  154.7963 C   0  0  0  0  0  0  0  0  0  0  0  0
  152.2469  139.6621  155.7546 C   0  0  0  0  0  0  0  0  0  0  0  0
  151.9432  142.1092  158.3539 N   0  0  0  0  0  0  0  0  0  0  0  0
  152.9367  144.0979  160.9434 H   0  0  0  0  0  0  0  0  0  0  0  0
  151.2839  143.9433  160.3388 H   0  0  0  0  0  0  0  0  0  0  0  0
  152.5391  144.6518  159.3134 H   0  0  0  0  0  0  0  0  0  0  0  0
  154.1190  141.9997  160.9420 H   0  0  0  0  0  0  0  0  0  0  0  0
  149.9813  141.9175  156.7839 H   0  0  0  0  0  0  0  0  0  0  0  0
  151.1522  142.1454  155.4974 H   0  0  0  0  0  0  0  0  0  0  0  0
  149.0073  139.9459  155.6217 H   0  0  0  0  0  0  0  0  0  0  0  0
  149.0271  141.3204  154.5331 H   0  0  0  0  0  0  0  0  0  0  0  0
  150.6713  138.2159  155.3347 H   0  0  0  0  0  0  0  0  0  0  0  0
  151.8476  138.3863  154.0455 H   0  0  0  0  0  0  0  0  0  0  0  0
  152.9306  140.2965  155.1889 H   0  0  0  0  0  0  0  0  0  0  0  0
  152.8561  138.9296  156.2862 H   0  0  0  0  0  0  0  0  0  0  0  0
  1  2  1  0  0  0  0
  1 15  1  0  0  0  0
  1 16  1  0  0  0  0
  1 17  1  0  0  0  0
  2 14  1  0  0  0  0
  2  3  2  0  0  0  0
  3  4  1  0  0  0  0
  3 18  1  0  0  0  0
  4  5  2  0  0  0  0
  4  6  1  0  0  0  0
  6  7  1  0  0  0  0
  7  8  1  0  0  0  0
  7 14  2  0  0  0  0
  8 13  1  0  0  0  0
  8  9  1  0  0  0  0
  9 10  1  0  0  0  0
  9 19  1  0  0  0  0
  9 20  1  0  0  0  0
 10 11  1  0  0  0  0
 10 21  1  0  0  0  0
 10 22  1  0  0  0  0
 11 12  1  0  0  0  0
 12 13  1  0  0  0  0
 12 23  1  0  0  0  0
 12 24  1  0  0  0  0
 13 25  1  0  0  0  0
 13 26  1  0  0  0  0
M  CHG  1   6  -1
M  END
> <s_m_source_file>
AV-unprocessed.smi

> <i_m_source_file_index>
2626

> <i_lp_mmshare_version>
43012

> <i_f3d_flags>
0

> <s_epik_input>
W0NIM11jMVtjSF1jKD1PKVtuSF1jKG4xKU4yW0NIMl1bQ0gyXU9bQ0gyXVtDSDJdMg==

> <s_epik_cmdline>
J2VwaWtfcHl0aG9uJywgJy1waCcsICc3LjAnLCAnLXRuJywgJzgnLCAnLW1hJywgJzIwMCcsICctbWV0YWxfYmluZGluZycsICctaW1hZScsICc8aW5maWxlLm1hZT4nLCAnLW9tYWUnLCAnPG91dGZpbGUubWFlPic=

> <r_lp_tautomer_probability>
1

> <r_epik_Ionization_Penalty>
4.9386

> <r_epik_Ionization_Penalty_Charging>
6.70104e-08

> <r_epik_Ionization_Penalty_Neutral>
4.9386

> <r_epik_State_Penalty>
2.49781

> <r_epik_Charging_Adjusted_Penalty>
2.49781

> <i_epik_Tot_Q>
-1

> <i_epik_Tot_abs_Q>
1

> <r_epik_Metal_State_Penalty>
0.117146

> <b_epik_Metal_Only>
0

> <s_lp_Force_Field>
OPLS_2005

> <r_lp_Energy>
25.1924

> <b_lp_Chiralities_Consistent>
1

> <s_lp_Variant>
AV-unprocessed.smi:2626-3

> <Gold.Version>
5.8.1

> <Gold.Id.Protein>
6NUR|6NUR_protein|mol2

> <Gold.PLP.Fitness>
38.6055

> <Gold.PLP.PLP>
-29.9423

> <Gold.PLP.part.hbond>
-2.0000

> <Gold.PLP.part.metal>
0.0000

> <Gold.PLP.part.buried>
-3.7514

> <Gold.PLP.part.nonpolar>
-24.2852

> <Gold.PLP.part.repulsive>
0.6560

> <Gold.PLP.ligand.clash>
0.0000

> <Gold.PLP.ligand.torsion>
0.3601

> <Gold.PLP.Chemscore.Hbond>
3.0000

> <Gold.PLP.Chemscore.CHOScore>
0.0000

> <Gold.PLP.Chemscore.Metal>
0.0000

> <Gold.Chemscore.Hbonds>
donor molecule, donor type, donor heavy atom, donor atom, acceptor molecule, acceptor atom, score
      P1  H  7989  7998       L1    11  1.00
      P1  H  7997  8009       L1     6  1.98

> <Gold.PLP.Chemscore.Internal.Correction>
0.3834

> <Gold.Rescore>
     Score         DG    S(hbond)    S(metal)    S(lipo)     H(rot)  DE(clash)    DE(int)     intcor
     11.72     -12.13       0.55        0.00      62.98       1.00       0.01       0.40       ----

> <Gold.Chemscore.Fitness>
11.7205

> <Gold.Chemscore.DG>
-12.1296

> <Gold.Chemscore.ZeroCoef>
-5.4800

> <Gold.Chemscore.Hbond>
0.5511

> <Gold.Chemscore.Metal>
0.0000

> <Gold.Chemscore.Lipo>
62.9810

> <Gold.Chemscore.Internal_Hbond>
0.0000

> <Gold.Chemscore.DEClash>
0.0069

> <Gold.Chemscore.DEInternal>
0.4022

> <Gold.Chemscore.Rot>
1.0000

> <Gold.Chemscore.Internal.Correction>
   9.000000E+99

> <Gold.Chemscore.Hbonds>
donor molecule, donor type, donor heavy atom, donor atom, acceptor molecule, acceptor atom, score
      P1  H  7989  7998       L1    11  0.20
      P1  H  7997  8009       L1     6  0.09

> <Gold.Chemscore.Hbond.Weighted>
-1.8408

> <Gold.Chemscore.Metal.Weighted>
-0.0000

> <Gold.Chemscore.Lipo.Weighted>
-7.3688

> <Gold.Chemscore.Internal_Hbond.Weighted>
0.0000

> <Gold.Chemscore.DEClash.Weighted>
0.0069

> <Gold.Chemscore.DEInternal.Weighted>
0.4022

> <Gold.Chemscore.Rot.Weighted>
2.5600

> <Gold.Chemscore.Internal.Correction.Weighted>
   9.000000E+99

> <Gold.Protein.RotatedTorsions>
[ 6907 6896 6895 6894 ] final   86.58 input  -60.11 | X-H torsion
[ 7974 7965 7964 7962 ] final   58.58 input  175.53 | X-H torsion
[ 8008 7997 7996 7995 ] final  163.92 input   59.86 | X-H torsion
[ 10167 10162 10161 10158 ] final   87.65 input  -65.29 | X-H torsion
[ 10718 10713 10712 10709 ] final  137.13 input   66.30 | X-H torsion
[ 10763 10752 10751 10750 ] final   22.82 input  -60.55 | X-H torsion
[ 11005 11000 10999 10996 ] final -108.97 input  -57.11 | X-H torsion

> <Gold.Protein.ActiveResidues>
 VAL166  LYS551  ARG553  GLY616  TRP617  ASP618  TYR619  PRO620  LYS621  CYS622 
 ASP623  PHE694  ASN695  SER759  ASP760  ASP761  ALA762  ILE779  LEU786  VAL792 
 PHE793  MET794  SER795  GLU796  ALA797  LYS798  CYS799  TRP800  GLU811  SER814 

> <Gold.Protein.RotatedAtoms>
  152.5397  134.2408  159.8861 H   0  0  0  0  0  0  0  0  0  0  0  0  # atno 6907 bound_to 6896
  151.2376  133.4410  159.2613 H   0  0  0  0  0  0  0  0  0  0  0  0  # atno 6908 bound_to 6896
  151.0657  134.9779  159.8339 H   0  0  0  0  0  0  0  0  0  0  0  0  # atno 6909 bound_to 6896
  145.9166  139.3696  143.0503 H   0  0  0  0  0  0  0  0  0  0  0  0  # atno 7974 bound_to 7965
  156.1920  140.1710  156.8073 H   0  0  0  0  0  0  0  0  0  0  0  0  # atno 8008 bound_to 7997
  154.5483  140.0723  156.8657 H   0  0  0  0  0  0  0  0  0  0  0  0  # atno 8009 bound_to 7997
  155.3079  140.3365  155.4247 H   0  0  0  0  0  0  0  0  0  0  0  0  # atno 8010 bound_to 7997
  139.8752  144.6471  150.8904 H   0  0  0  0  0  0  0  0  0  0  0  0  # atno 10167 bound_to 10162
  157.4393  131.1056  151.0161 H   0  0  0  0  0  0  0  0  0  0  0  0  # atno 10718 bound_to 10713
  153.0886  135.6640  153.9899 H   0  0  0  0  0  0  0  0  0  0  0  0  # atno 10763 bound_to 10752
  153.9502  135.2984  155.3440 H   0  0  0  0  0  0  0  0  0  0  0  0  # atno 10764 bound_to 10752
  154.7297  135.5128  153.9017 H   0  0  0  0  0  0  0  0  0  0  0  0  # atno 10765 bound_to 10752
  141.0873  133.9116  157.2156 H   0  0  0  0  0  0  0  0  0  0  0  0  # atno 11005 bound_to 11000
  145.8603  140.9479  143.0703 LP  0  0  0  0  0  0  0  0  0  0  0  0  # atno 17320 bound_to 7965
  144.6748  140.0522  143.7478 LP  0  0  0  0  0  0  0  0  0  0  0  0  # atno 17321 bound_to 7965
  140.7754  143.3631  151.1791 LP  0  0  0  0  0  0  0  0  0  0  0  0  # atno 17342 bound_to 10162
  139.7247  143.9168  152.2998 LP  0  0  0  0  0  0  0  0  0  0  0  0  # atno 17343 bound_to 10162
  157.1030  130.5990  149.5464 LP  0  0  0  0  0  0  0  0  0  0  0  0  # atno 17370 bound_to 10713
  155.9942  130.5006  150.7412 LP  0  0  0  0  0  0  0  0  0  0  0  0  # atno 17371 bound_to 10713
  139.9693  135.0133  156.9470 LP  0  0  0  0  0  0  0  0  0  0  0  0  # atno 17394 bound_to 11000
  140.5333  134.0792  155.7321 LP  0  0  0  0  0  0  0  0  0  0  0  0  # atno 17395 bound_to 11000

$$$$
