AV-unprocessed.smi:2224|AV-procd|sdf|8997|dock10
  -GOLD-   2272012203D 1   1.00000     0.00000
 Structure written by MMmdl.
 44 46  0  0  0  0  0  0  0  0  1 V2000
  146.7085  130.6145  152.5709 C   0  0  0  0  0  0  0  0  0  0  0  0
  147.8500  131.2079  153.3695 C   0  0  0  0  0  0  0  0  0  0  0  0
  148.7556  130.3802  154.0602 C   0  0  0  0  0  0  0  0  0  0  0  0
  149.7963  130.9931  154.7851 C   0  0  0  0  0  0  0  0  0  0  0  0
  150.8072  130.1633  155.5484 C   0  0  0  0  0  0  0  0  0  0  0  0
  149.9633  132.3316  154.8448 N   0  0  0  0  0  0  0  0  0  0  0  0
  149.0970  133.1390  154.1839 C   0  0  0  0  0  0  0  0  0  0  0  0
  149.1864  134.5568  154.1818 N   0  0  0  0  0  0  0  0  0  0  0  0
  149.5398  135.3678  155.1946 C   0  0  0  0  0  0  0  0  0  0  0  0
  149.8354  135.0019  156.3325 O   0  0  0  0  0  0  0  0  0  0  0  0
  149.5399  136.6521  154.8116 N   0  0  0  0  0  0  0  0  0  0  0  0
  149.8896  137.7776  155.6852 C   0  0  2  0  0  0  0  0  0  0  0  0
  148.9630  138.9822  155.4980 C   0  0  2  0  0  0  0  0  0  0  0  0
  147.6207  139.2118  154.9032 C   0  0  0  0  0  0  0  0  0  0  0  0
  147.9520  140.5512  154.1901 C   0  0  0  0  0  0  0  0  0  0  0  0
  149.3920  140.7062  154.2781 O   0  0  0  0  0  0  0  0  0  0  0  0
  149.8725  139.3786  154.3538 C   0  0  1  0  0  0  0  0  0  0  0  0
  151.0299  138.7313  155.1466 C   0  0  0  0  0  0  0  0  0  0  0  0
  151.7554  139.6147  156.1777 C   0  0  0  0  0  0  0  0  0  0  0  0
  152.1332  138.0957  154.2932 C   0  0  0  0  0  0  0  0  0  0  0  0
  148.0245  132.6051  153.4344 C   0  0  0  0  0  0  0  0  0  0  0  0
  146.7592  129.5254  152.5561 H   0  0  0  0  0  0  0  0  0  0  0  0
  146.7421  130.9709  151.5412 H   0  0  0  0  0  0  0  0  0  0  0  0
  145.7523  130.9063  153.0057 H   0  0  0  0  0  0  0  0  0  0  0  0
  148.6557  129.3047  154.0350 H   0  0  0  0  0  0  0  0  0  0  0  0
  150.4965  129.1198  155.6087 H   0  0  0  0  0  0  0  0  0  0  0  0
  150.9235  130.5410  156.5647 H   0  0  0  0  0  0  0  0  0  0  0  0
  151.7779  130.2029  155.0536 H   0  0  0  0  0  0  0  0  0  0  0  0
  148.9664  135.0037  153.3043 H   0  0  0  0  0  0  0  0  0  0  0  0
  149.2848  136.8715  153.8600 H   0  0  0  0  0  0  0  0  0  0  0  0
  150.0155  137.5012  156.7334 H   0  0  0  0  0  0  0  0  0  0  0  0
  149.0710  139.6344  156.3681 H   0  0  0  0  0  0  0  0  0  0  0  0
  147.3412  138.4294  154.1965 H   0  0  0  0  0  0  0  0  0  0  0  0
  146.8358  139.3174  155.6524 H   0  0  0  0  0  0  0  0  0  0  0  0
  147.6348  140.5247  153.1469 H   0  0  0  0  0  0  0  0  0  0  0  0
  147.4645  141.4001  154.6701 H   0  0  0  0  0  0  0  0  0  0  0  0
  149.6701  138.8478  153.4178 H   0  0  0  0  0  0  0  0  0  0  0  0
  152.2589  140.4520  155.6938 H   0  0  0  0  0  0  0  0  0  0  0  0
  152.5141  139.0491  156.7193 H   0  0  0  0  0  0  0  0  0  0  0  0
  151.0933  140.0388  156.9308 H   0  0  0  0  0  0  0  0  0  0  0  0
  152.8102  138.8483  153.8879 H   0  0  0  0  0  0  0  0  0  0  0  0
  151.7284  137.5482  153.4419 H   0  0  0  0  0  0  0  0  0  0  0  0
  152.7311  137.3927  154.8743 H   0  0  0  0  0  0  0  0  0  0  0  0
  147.3406  133.2588  152.9120 H   0  0  0  0  0  0  0  0  0  0  0  0
  1  2  1  0  0  0  0
  1 22  1  0  0  0  0
  1 23  1  0  0  0  0
  1 24  1  0  0  0  0
  2 21  1  0  0  0  0
  2  3  2  0  0  0  0
  3  4  1  0  0  0  0
  3 25  1  0  0  0  0
  4  5  1  0  0  0  0
  4  6  2  0  0  0  0
  5 26  1  0  0  0  0
  5 27  1  0  0  0  0
  5 28  1  0  0  0  0
  6  7  1  0  0  0  0
  7  8  1  0  0  0  0
  7 21  2  0  0  0  0
  8  9  1  0  0  0  0
  8 29  1  0  0  0  0
  9 10  2  0  0  0  0
  9 11  1  0  0  0  0
 11 12  1  0  0  0  0
 11 30  1  0  0  0  0
 12 18  1  0  0  0  0
 12 13  1  0  0  0  0
 12 31  1  0  0  0  0
 13 17  1  0  0  0  0
 13 14  1  0  0  0  0
 13 32  1  0  0  0  0
 14 15  1  0  0  0  0
 14 33  1  0  0  0  0
 14 34  1  0  0  0  0
 15 16  1  0  0  0  0
 15 35  1  0  0  0  0
 15 36  1  0  0  0  0
 16 17  1  0  0  0  0
 17 18  1  0  0  0  0
 17 37  1  0  0  0  0
 18 19  1  0  0  0  0
 18 20  1  0  0  0  0
 19 38  1  0  0  0  0
 19 39  1  0  0  0  0
 19 40  1  0  0  0  0
 20 41  1  0  0  0  0
 20 42  1  0  0  0  0
 20 43  1  0  0  0  0
 21 44  1  0  0  0  0
M  END
> <s_m_source_file>
AV-unprocessed.smi

> <i_m_source_file_index>
2224

> <i_lp_mmshare_version>
43012

> <i_f3d_flags>
0

> <s_epik_input>
W0NIM11jMVtjSF1jKFtDSDNdKW5jKFtjSF0xKVtOSF1DKD1PKVtOSF1bQ0BIXTJDKFtDSDNdKShbQ0gzXSlbQ0BIXShbQ0BASF0yMylPW0NIMl1bQ0gyXTM=

> <s_epik_cmdline>
J2VwaWtfcHl0aG9uJywgJy1waCcsICc3LjAnLCAnLXRuJywgJzgnLCAnLW1hJywgJzIwMCcsICctbWV0YWxfYmluZGluZycsICctaW1hZScsICc8aW5maWxlLm1hZT4nLCAnLW9tYWUnLCAnPG91dGZpbGUubWFlPic=

> <r_lp_tautomer_probability>
1

> <r_epik_Ionization_Penalty>
0.000276544

> <r_epik_Ionization_Penalty_Charging>
0

> <r_epik_Ionization_Penalty_Neutral>
0.000276544

> <r_epik_State_Penalty>
-0

> <r_epik_Charging_Adjusted_Penalty>
0

> <i_epik_Tot_Q>
0

> <i_epik_Tot_abs_Q>
0

> <r_epik_Metal_State_Penalty>
-0

> <b_epik_Metal_Only>
0

> <s_lp_Force_Field>
OPLS_2005

> <r_lp_Energy>
64.3879

> <b_lp_Chiralities_Consistent>
1

> <s_lp_Variant>
AV-unprocessed.smi:2224-7

> <Gold.Version>
5.8.1

> <Gold.Id.Protein>
6NUR|6NUR_protein|mol2

> <Gold.PLP.Fitness>
39.5032

> <Gold.PLP.PLP>
-34.3096

> <Gold.PLP.part.hbond>
-3.0000

> <Gold.PLP.part.metal>
0.0000

> <Gold.PLP.part.buried>
-3.2110

> <Gold.PLP.part.nonpolar>
-28.1569

> <Gold.PLP.part.repulsive>
0.5661

> <Gold.PLP.ligand.clash>
0.0000

> <Gold.PLP.ligand.torsion>
0.4217

> <Gold.PLP.Chemscore.Hbond>
1.9260

> <Gold.PLP.Chemscore.CHOScore>
0.0000

> <Gold.PLP.Chemscore.Metal>
0.0000

> <Gold.Chemscore.Hbonds>
donor molecule, donor type, donor heavy atom, donor atom, acceptor molecule, acceptor atom, score
      L1  H     8    29       P1  7948  1.00
      L1  H    11    30       P1  7948  0.79

> <Gold.PLP.Chemscore.Internal.Correction>
0.2589

> <Gold.Rescore>
     Score         DG    S(hbond)    S(metal)    S(lipo)     H(rot)  DE(clash)    DE(int)     intcor
     13.93     -15.43       0.91        0.00      80.78       1.00       0.32       1.17       ----

> <Gold.Chemscore.Fitness>
13.9325

> <Gold.Chemscore.DG>
-15.4264

> <Gold.Chemscore.ZeroCoef>
-5.4800

> <Gold.Chemscore.Hbond>
0.9149

> <Gold.Chemscore.Metal>
0.0000

> <Gold.Chemscore.Lipo>
80.7756

> <Gold.Chemscore.Internal_Hbond>
0.0000

> <Gold.Chemscore.DEClash>
0.3225

> <Gold.Chemscore.DEInternal>
1.1713

> <Gold.Chemscore.Rot>
1.0000

> <Gold.Chemscore.Internal.Correction>
   9.000000E+99

> <Gold.Chemscore.Hbonds>
donor molecule, donor type, donor heavy atom, donor atom, acceptor molecule, acceptor atom, score
      L1  H     8    29       P1  7948  0.30
      L1  H    11    30       P1  7948  0.73

> <Gold.Chemscore.Hbond.Weighted>
-3.0557

> <Gold.Chemscore.Metal.Weighted>
-0.0000

> <Gold.Chemscore.Lipo.Weighted>
-9.4507

> <Gold.Chemscore.Internal_Hbond.Weighted>
0.0000

> <Gold.Chemscore.DEClash.Weighted>
0.3225

> <Gold.Chemscore.DEInternal.Weighted>
1.1713

> <Gold.Chemscore.Rot.Weighted>
2.5600

> <Gold.Chemscore.Internal.Correction.Weighted>
   9.000000E+99

> <Gold.Protein.RotatedTorsions>
[ 6907 6896 6895 6894 ] final  119.10 input  -60.11 | X-H torsion
[ 7974 7965 7964 7962 ] final  160.23 input  175.53 | X-H torsion
[ 8008 7997 7996 7995 ] final   16.68 input   59.86 | X-H torsion
[ 10167 10162 10161 10158 ] final -162.23 input  -65.29 | X-H torsion
[ 10718 10713 10712 10709 ] final -141.39 input   66.30 | X-H torsion
[ 10763 10752 10751 10750 ] final  104.73 input  -60.55 | X-H torsion
[ 11005 11000 10999 10996 ] final   79.87 input  -57.11 | X-H torsion

> <Gold.Protein.ActiveResidues>
 VAL166  LYS551  ARG553  GLY616  TRP617  ASP618  TYR619  PRO620  LYS621  CYS622 
 ASP623  PHE694  ASN695  SER759  ASP760  ASP761  ALA762  ILE779  LEU786  VAL792 
 PHE793  MET794  SER795  GLU796  ALA797  LYS798  CYS799  TRP800  GLU811  SER814 

> <Gold.Protein.RotatedAtoms>
  152.4496  133.7602  159.6742 H   0  0  0  0  0  0  0  0  0  0  0  0  # atno 6907 bound_to 6896
  150.8404  133.7935  159.3069 H   0  0  0  0  0  0  0  0  0  0  0  0  # atno 6908 bound_to 6896
  151.5562  135.1069  160.0013 H   0  0  0  0  0  0  0  0  0  0  0  0  # atno 6909 bound_to 6896
  144.7748  139.7728  143.6283 H   0  0  0  0  0  0  0  0  0  0  0  0  # atno 7974 bound_to 7965
  154.8805  140.2972  155.5428 H   0  0  0  0  0  0  0  0  0  0  0  0  # atno 8008 bound_to 7997
  156.3022  140.2443  156.3740 H   0  0  0  0  0  0  0  0  0  0  0  0  # atno 8009 bound_to 7997
  154.8722  140.0401  157.1721 H   0  0  0  0  0  0  0  0  0  0  0  0  # atno 8010 bound_to 7997
  139.6407  144.0265  152.2089 H   0  0  0  0  0  0  0  0  0  0  0  0  # atno 10167 bound_to 10162
  156.3334  130.7598  151.1721 H   0  0  0  0  0  0  0  0  0  0  0  0  # atno 10718 bound_to 10713
  153.3698  135.3933  155.1780 H   0  0  0  0  0  0  0  0  0  0  0  0  # atno 10763 bound_to 10752
  154.8692  135.3699  154.4992 H   0  0  0  0  0  0  0  0  0  0  0  0  # atno 10764 bound_to 10752
  153.5459  135.7083  153.5675 H   0  0  0  0  0  0  0  0  0  0  0  0  # atno 10765 bound_to 10752
  139.9156  134.7877  156.1836 H   0  0  0  0  0  0  0  0  0  0  0  0  # atno 11005 bound_to 11000
  146.1920  139.5165  142.9799 LP  0  0  0  0  0  0  0  0  0  0  0  0  # atno 17320 bound_to 7965
  145.6218  141.0321  143.1911 LP  0  0  0  0  0  0  0  0  0  0  0  0  # atno 17321 bound_to 7965
  139.9954  144.6332  150.7777 LP  0  0  0  0  0  0  0  0  0  0  0  0  # atno 17342 bound_to 10162
  140.7489  143.2930  151.3279 LP  0  0  0  0  0  0  0  0  0  0  0  0  # atno 17343 bound_to 10162
  157.7434  131.0475  150.4946 LP  0  0  0  0  0  0  0  0  0  0  0  0  # atno 17370 bound_to 10713
  156.5115  130.4140  149.6298 LP  0  0  0  0  0  0  0  0  0  0  0  0  # atno 17371 bound_to 10713
  141.0627  133.6834  156.1984 LP  0  0  0  0  0  0  0  0  0  0  0  0  # atno 17394 bound_to 11000
  140.6634  134.4943  157.5584 LP  0  0  0  0  0  0  0  0  0  0  0  0  # atno 17395 bound_to 11000

$$$$
