AV-unprocessed.smi:2565|AV-procd|sdf|10071|dock1
  -GOLD-   2272014103D 1   1.00000     0.00000
 Structure written by MMmdl.
 24 25  0  0  0  0  0  0  0  0  1 V2000
  150.3323  136.9852  155.0051 C   0  0  0  0  0  0  0  0  0  0  0  0
  151.2375  138.1152  154.9424 N   0  0  0  0  0  0  0  0  0  0  0  0
  152.5718  138.1120  154.8049 C   0  0  0  0  0  0  0  0  0  0  0  0
  153.1400  139.3167  154.7903 N   0  0  0  0  0  0  0  0  0  0  0  0
  152.0867  140.1985  154.9308 N   0  0  0  0  0  0  0  0  0  0  0  0
  150.9852  139.4389  155.0071 C   0  0  0  0  0  0  0  0  0  0  0  0
  149.5984  139.9844  155.1846 C   0  0  1  0  0  0  0  0  0  0  0  0
  149.5820  141.5233  155.2661 C   0  0  0  0  0  0  0  0  0  0  0  0
  148.2067  142.0111  155.3559 N   0  0  0  0  0  0  0  0  0  0  0  0
  147.3950  141.5117  154.2468 C   0  0  0  0  0  0  0  0  0  0  0  0
  147.4710  139.9759  154.1743 C   0  0  0  0  0  0  0  0  0  0  0  0
  148.8304  139.5689  154.0575 O   0  0  0  0  0  0  0  0  0  0  0  0
  150.8975  136.0533  155.0407 H   0  0  0  0  0  0  0  0  0  0  0  0
  149.6915  136.9776  154.1232 H   0  0  0  0  0  0  0  0  0  0  0  0
  149.7128  137.0567  155.8994 H   0  0  0  0  0  0  0  0  0  0  0  0
  153.1464  137.2016  154.7161 H   0  0  0  0  0  0  0  0  0  0  0  0
  149.1599  139.5537  156.0862 H   0  0  0  0  0  0  0  0  0  0  0  0
  150.1548  141.8601  156.1305 H   0  0  0  0  0  0  0  0  0  0  0  0
  150.0665  141.9448  154.3845 H   0  0  0  0  0  0  0  0  0  0  0  0
  148.2049  143.0260  155.3477 H   0  0  0  0  0  0  0  0  0  0  0  0
  146.3593  141.8300  154.3679 H   0  0  0  0  0  0  0  0  0  0  0  0
  147.7465  141.9401  153.3074 H   0  0  0  0  0  0  0  0  0  0  0  0
  147.0142  139.5201  155.0544 H   0  0  0  0  0  0  0  0  0  0  0  0
  146.9186  139.6143  153.3070 H   0  0  0  0  0  0  0  0  0  0  0  0
  1  2  1  0  0  0  0
  1 13  1  0  0  0  0
  1 14  1  0  0  0  0
  1 15  1  0  0  0  0
  2  6  1  0  0  0  0
  2  3  1  0  0  0  0
  3  4  2  0  0  0  0
  3 16  1  0  0  0  0
  4  5  1  0  0  0  0
  5  6  2  0  0  0  0
  6  7  1  0  0  0  0
  7 12  1  0  0  0  0
  7  8  1  0  0  0  0
  7 17  1  0  0  0  0
  8  9  1  0  0  0  0
  8 18  1  0  0  0  0
  8 19  1  0  0  0  0
  9 10  1  0  0  0  0
  9 20  1  0  0  0  0
 10 11  1  0  0  0  0
 10 21  1  0  0  0  0
 10 22  1  0  0  0  0
 11 12  1  0  0  0  0
 11 23  1  0  0  0  0
 11 24  1  0  0  0  0
M  END
> <s_m_source_file>
AV-unprocessed.smi

> <i_m_source_file_index>
2565

> <i_lp_mmshare_version>
43012

> <i_f3d_flags>
0

> <s_epik_input>
W0NIM11uMVtjSF1ubmMxW0NAQEhdMltDSDJdW05IXVtDSDJdW0NIMl1PMg==

> <s_epik_cmdline>
J2VwaWtfcHl0aG9uJywgJy1waCcsICc3LjAnLCAnLXRuJywgJzgnLCAnLW1hJywgJzIwMCcsICctbWV0YWxfYmluZGluZycsICctaW1hZScsICc8aW5maWxlLm1hZT4nLCAnLW9tYWUnLCAnPG91dGZpbGUubWFlPic=

> <r_lp_tautomer_probability>
1

> <r_epik_Ionization_Penalty>
0.980774

> <r_epik_Ionization_Penalty_Charging>
0

> <r_epik_Ionization_Penalty_Neutral>
0.980774

> <r_epik_State_Penalty>
1.0271

> <r_epik_Charging_Adjusted_Penalty>
1.0271

> <i_epik_Tot_Q>
0

> <i_epik_Tot_abs_Q>
0

> <r_epik_Metal_State_Penalty>
1.02688

> <b_epik_Metal_Only>
0

> <s_lp_Force_Field>
OPLS_2005

> <r_lp_Energy>
14.243

> <b_lp_Chiralities_Consistent>
1

> <s_lp_Variant>
AV-unprocessed.smi:2565-4

> <Gold.Version>
5.8.1

> <Gold.Id.Protein>
6NUR|6NUR_protein|mol2

> <Gold.PLP.Fitness>
29.6866

> <Gold.PLP.PLP>
-22.0325

> <Gold.PLP.part.hbond>
-3.4769

> <Gold.PLP.part.metal>
0.0000

> <Gold.PLP.part.buried>
-2.7377

> <Gold.PLP.part.nonpolar>
-17.4792

> <Gold.PLP.part.repulsive>
0.8095

> <Gold.PLP.ligand.clash>
0.0000

> <Gold.PLP.ligand.torsion>
0.0025

> <Gold.PLP.Chemscore.Hbond>
2.5520

> <Gold.PLP.Chemscore.CHOScore>
0.0000

> <Gold.PLP.Chemscore.Metal>
0.0000

> <Gold.Chemscore.Hbonds>
donor molecule, donor type, donor heavy atom, donor atom, acceptor molecule, acceptor atom, score
      L1  H     9    20       P1  8028  1.00
      P1  H  7989  7998       L1     5  0.55
      P1  H  7997  8008       L1     4  1.00

> <Gold.PLP.Chemscore.Internal.Correction>
0.0030

> <Gold.Rescore>
     Score         DG    S(hbond)    S(metal)    S(lipo)     H(rot)  DE(clash)    DE(int)     intcor
     12.71     -13.35       2.17        0.00      27.24       1.00       0.23       0.41       ----

> <Gold.Chemscore.Fitness>
12.7079

> <Gold.Chemscore.DG>
-13.3471

> <Gold.Chemscore.ZeroCoef>
-5.4800

> <Gold.Chemscore.Hbond>
2.1676

> <Gold.Chemscore.Metal>
0.0000

> <Gold.Chemscore.Lipo>
27.2422

> <Gold.Chemscore.Internal_Hbond>
0.0000

> <Gold.Chemscore.DEClash>
0.2331

> <Gold.Chemscore.DEInternal>
0.4061

> <Gold.Chemscore.Rot>
1.0000

> <Gold.Chemscore.Internal.Correction>
   9.000000E+99

> <Gold.Chemscore.Hbonds>
donor molecule, donor type, donor heavy atom, donor atom, acceptor molecule, acceptor atom, score
      L1  H     9    20       P1  8028  0.95
      P1  H  7989  7998       L1     5  0.06
      P1  H  7997  8008       L1     4  0.30

> <Gold.Chemscore.Hbond.Weighted>
-7.2397

> <Gold.Chemscore.Metal.Weighted>
-0.0000

> <Gold.Chemscore.Lipo.Weighted>
-3.1873

> <Gold.Chemscore.Internal_Hbond.Weighted>
0.0000

> <Gold.Chemscore.DEClash.Weighted>
0.2331

> <Gold.Chemscore.DEInternal.Weighted>
0.4061

> <Gold.Chemscore.Rot.Weighted>
2.5600

> <Gold.Chemscore.Internal.Correction.Weighted>
   9.000000E+99

> <Gold.Protein.RotatedTorsions>
[ 6907 6896 6895 6894 ] final  169.34 input  -60.11 | X-H torsion
[ 7974 7965 7964 7962 ] final  108.71 input  175.53 | X-H torsion
[ 8008 7997 7996 7995 ] final  -13.50 input   59.86 | X-H torsion
[ 10167 10162 10161 10158 ] final -132.40 input  -65.29 | X-H torsion
[ 10718 10713 10712 10709 ] final  -30.42 input   66.30 | X-H torsion
[ 10763 10752 10751 10750 ] final -177.73 input  -60.55 | X-H torsion
[ 11005 11000 10999 10996 ] final  -23.61 input  -57.11 | X-H torsion

> <Gold.Protein.ActiveResidues>
 VAL166  LYS551  ARG553  GLY616  TRP617  ASP618  TYR619  PRO620  LYS621  CYS622 
 ASP623  PHE694  ASN695  SER759  ASP760  ASP761  ALA762  ILE779  LEU786  VAL792 
 PHE793  MET794  SER795  GLU796  ALA797  LYS798  CYS799  TRP800  GLU811  SER814 

> <Gold.Protein.RotatedAtoms>
  151.8334  133.3412  159.3620 H   0  0  0  0  0  0  0  0  0  0  0  0  # atno 6907 bound_to 6896
  150.7257  134.5461  159.5780 H   0  0  0  0  0  0  0  0  0  0  0  0  # atno 6908 bound_to 6896
  152.2919  134.7713  160.0427 H   0  0  0  0  0  0  0  0  0  0  0  0  # atno 6909 bound_to 6896
  145.2772  139.2645  143.3935 H   0  0  0  0  0  0  0  0  0  0  0  0  # atno 7974 bound_to 7965
  154.5287  140.2248  155.8843 H   0  0  0  0  0  0  0  0  0  0  0  0  # atno 8008 bound_to 7997
  156.1741  140.3115  155.8990 H   0  0  0  0  0  0  0  0  0  0  0  0  # atno 8009 bound_to 7997
  155.3497  140.0455  157.3036 H   0  0  0  0  0  0  0  0  0  0  0  0  # atno 8010 bound_to 7997
  139.9089  143.6517  152.2579 H   0  0  0  0  0  0  0  0  0  0  0  0  # atno 10167 bound_to 10162
  156.4000  130.4388  149.7330 H   0  0  0  0  0  0  0  0  0  0  0  0  # atno 10718 bound_to 10713
  154.5565  135.2817  155.0959 H   0  0  0  0  0  0  0  0  0  0  0  0  # atno 10763 bound_to 10752
  154.2384  135.6361  153.5202 H   0  0  0  0  0  0  0  0  0  0  0  0  # atno 10764 bound_to 10752
  153.0017  135.5554  154.6147 H   0  0  0  0  0  0  0  0  0  0  0  0  # atno 10765 bound_to 10752
  140.8767  133.7682  156.0252 H   0  0  0  0  0  0  0  0  0  0  0  0  # atno 11005 bound_to 11000
  146.3228  140.3230  142.8634 LP  0  0  0  0  0  0  0  0  0  0  0  0  # atno 17320 bound_to 7965
  144.9284  140.7948  143.5704 LP  0  0  0  0  0  0  0  0  0  0  0  0  # atno 17321 bound_to 7965
  139.6959  144.7641  151.1356 LP  0  0  0  0  0  0  0  0  0  0  0  0  # atno 17342 bound_to 10162
  140.7690  143.5524  150.9190 LP  0  0  0  0  0  0  0  0  0  0  0  0  # atno 17343 bound_to 10162
  156.4349  130.7833  151.2854 LP  0  0  0  0  0  0  0  0  0  0  0  0  # atno 17370 bound_to 10713
  157.7503  131.0142  150.3456 LP  0  0  0  0  0  0  0  0  0  0  0  0  # atno 17371 bound_to 10713
  140.8509  134.2955  157.5275 LP  0  0  0  0  0  0  0  0  0  0  0  0  # atno 17394 bound_to 11000
  139.8716  134.9467  156.3946 LP  0  0  0  0  0  0  0  0  0  0  0  0  # atno 17395 bound_to 11000

$$$$
