AV-unprocessed.smi:633|AV-procd|sdf|3131|dock9
  -GOLD-   22720 0 53D 1   1.00000     0.00000
 Structure written by MMmdl.
 53 56  0  0  0  0  0  0  0  0  1 V2000
  151.6925  145.0697  158.7387 C   0  0  0  0  0  0  0  0  0  0  0  0
  152.1405  143.6810  158.2714 C   0  0  2  0  0  0  0  0  0  0  0  0
  151.0063  142.9123  157.5676 C   0  0  0  0  0  0  0  0  0  0  0  0
  151.4378  141.5557  157.2380 N   0  0  0  0  0  0  0  0  0  0  0  0
  150.6231  140.7927  156.3740 C   0  0  0  0  0  0  0  0  0  0  0  0
  149.2552  141.1170  156.2209 C   0  0  0  0  0  0  0  0  0  0  0  0
  148.4569  140.3517  155.3497 C   0  0  0  0  0  0  0  0  0  0  0  0
  149.0473  139.2772  154.6432 C   0  0  0  0  0  0  0  0  0  0  0  0
  148.3598  138.4218  153.7373 N   0  0  0  0  0  0  0  0  0  0  0  0
  147.0428  138.3337  153.4809 C   0  0  0  0  0  0  0  0  0  0  0  0
  146.1649  139.0185  154.0041 O   0  0  0  0  0  0  0  0  0  0  0  0
  146.7939  137.3923  152.5591 N   0  0  0  0  0  0  0  0  0  0  0  0
  145.4739  137.0203  152.0590 C   0  0  0  0  0  0  0  0  0  0  0  0
  144.5572  136.5249  153.1652 C   0  0  0  0  0  0  0  0  0  0  0  0
  143.0622  136.4338  152.9680 C   0  0  0  0  0  0  0  0  0  0  0  0
  143.6400  137.4687  153.9064 C   0  0  0  0  0  0  0  0  0  0  0  0
  145.5663  135.9920  150.9466 C   0  0  0  0  0  0  0  0  0  0  0  0
  144.3233  135.3689  150.3582 C   0  0  0  0  0  0  0  0  0  0  0  0
  145.2652  134.5328  151.1955 C   0  0  0  0  0  0  0  0  0  0  0  0
  150.4142  139.0226  154.8737 C   0  0  0  0  0  0  0  0  0  0  0  0
  151.1825  139.7519  155.7100 N   0  0  0  0  0  0  0  0  0  0  0  0
  151.9853  140.8314  158.3818 C   0  0  0  0  0  0  0  0  0  0  0  0
  153.0874  141.6606  159.0682 C   0  0  2  0  0  0  0  0  0  0  0  0
  153.5984  140.9908  160.3483 C   0  0  0  0  0  0  0  0  0  0  0  0
  152.5669  142.9417  159.4125 O   0  0  0  0  0  0  0  0  0  0  0  0
  151.3660  145.6805  157.8969 H   0  0  0  0  0  0  0  0  0  0  0  0
  152.5088  145.5959  159.2342 H   0  0  0  0  0  0  0  0  0  0  0  0
  150.8639  145.0002  159.4441 H   0  0  0  0  0  0  0  0  0  0  0  0
  152.9828  143.8012  157.5875 H   0  0  0  0  0  0  0  0  0  0  0  0
  150.1275  142.8637  158.2123 H   0  0  0  0  0  0  0  0  0  0  0  0
  150.7165  143.4439  156.6601 H   0  0  0  0  0  0  0  0  0  0  0  0
  148.8069  141.9309  156.7711 H   0  0  0  0  0  0  0  0  0  0  0  0
  147.4133  140.6050  155.2570 H   0  0  0  0  0  0  0  0  0  0  0  0
  148.9533  137.8142  153.1914 H   0  0  0  0  0  0  0  0  0  0  0  0
  147.5786  136.8827  152.1804 H   0  0  0  0  0  0  0  0  0  0  0  0
  145.0085  137.9073  151.6241 H   0  0  0  0  0  0  0  0  0  0  0  0
  144.9975  135.7303  153.7654 H   0  0  0  0  0  0  0  0  0  0  0  0
  142.6465  136.7920  152.0285 H   0  0  0  0  0  0  0  0  0  0  0  0
  142.5487  135.5831  153.4109 H   0  0  0  0  0  0  0  0  0  0  0  0
  143.5134  137.3084  154.9751 H   0  0  0  0  0  0  0  0  0  0  0  0
  143.6104  138.5077  153.5846 H   0  0  0  0  0  0  0  0  0  0  0  0
  146.3711  136.1897  150.2407 H   0  0  0  0  0  0  0  0  0  0  0  0
  143.3652  135.6392  150.7978 H   0  0  0  0  0  0  0  0  0  0  0  0
  144.3107  135.1922  149.2847 H   0  0  0  0  0  0  0  0  0  0  0  0
  145.8804  133.7984  150.6799 H   0  0  0  0  0  0  0  0  0  0  0  0
  144.9262  134.2424  152.1879 H   0  0  0  0  0  0  0  0  0  0  0  0
  150.9128  138.2078  154.3686 H   0  0  0  0  0  0  0  0  0  0  0  0
  151.1762  140.6267  159.0843 H   0  0  0  0  0  0  0  0  0  0  0  0
  152.3975  139.8677  158.0855 H   0  0  0  0  0  0  0  0  0  0  0  0
  153.9290  141.7884  158.3850 H   0  0  0  0  0  0  0  0  0  0  0  0
  154.0202  140.0081  160.1359 H   0  0  0  0  0  0  0  0  0  0  0  0
  152.7944  140.8611  161.0732 H   0  0  0  0  0  0  0  0  0  0  0  0
  154.3767  141.5924  160.8182 H   0  0  0  0  0  0  0  0  0  0  0  0
  1  2  1  0  0  0  0
  1 26  1  0  0  0  0
  1 27  1  0  0  0  0
  1 28  1  0  0  0  0
  2 25  1  0  0  0  0
  2  3  1  0  0  0  0
  2 29  1  0  0  0  0
  3  4  1  0  0  0  0
  3 30  1  0  0  0  0
  3 31  1  0  0  0  0
  4  5  1  0  0  0  0
  4 22  1  0  0  0  0
  5 21  1  0  0  0  0
  5  6  2  0  0  0  0
  6  7  1  0  0  0  0
  6 32  1  0  0  0  0
  7  8  2  0  0  0  0
  7 33  1  0  0  0  0
  8  9  1  0  0  0  0
  8 20  1  0  0  0  0
  9 10  1  0  0  0  0
  9 34  1  0  0  0  0
 10 11  2  0  0  0  0
 10 12  1  0  0  0  0
 12 13  1  0  0  0  0
 12 35  1  0  0  0  0
 13 14  1  0  0  0  0
 13 17  1  0  0  0  0
 13 36  1  0  0  0  0
 14 16  1  0  0  0  0
 14 15  1  0  0  0  0
 14 37  1  0  0  0  0
 15 16  1  0  0  0  0
 15 38  1  0  0  0  0
 15 39  1  0  0  0  0
 16 40  1  0  0  0  0
 16 41  1  0  0  0  0
 17 19  1  0  0  0  0
 17 18  1  0  0  0  0
 17 42  1  0  0  0  0
 18 19  1  0  0  0  0
 18 43  1  0  0  0  0
 18 44  1  0  0  0  0
 19 45  1  0  0  0  0
 19 46  1  0  0  0  0
 20 21  2  0  0  0  0
 20 47  1  0  0  0  0
 22 23  1  0  0  0  0
 22 48  1  0  0  0  0
 22 49  1  0  0  0  0
 23 24  1  0  0  0  0
 23 25  1  0  0  0  0
 23 50  1  0  0  0  0
 24 51  1  0  0  0  0
 24 52  1  0  0  0  0
 24 53  1  0  0  0  0
M  END
> <s_m_source_file>
AV-unprocessed.smi

> <i_m_source_file_index>
633

> <i_lp_mmshare_version>
43012

> <i_f3d_flags>
0

> <s_epik_input>
W0NIM11bQ0BASF0xW0NIMl1OKFtDSDJdW0NASF0oTzEpW0NIM10pYzJbY0hdW2NIXWMoW2NIXW4yKVtOSF1DKD1PKVtOSF1bQ0hdKFtDSF0zW0NIMl1bQ0gyXTMpW0NIXTRbQ0gyXVtDSDJdNA==

> <s_epik_cmdline>
J2VwaWtfcHl0aG9uJywgJy1waCcsICc3LjAnLCAnLXRuJywgJzgnLCAnLW1hJywgJzIwMCcsICctbWV0YWxfYmluZGluZycsICctaW1hZScsICc8aW5maWxlLm1hZT4nLCAnLW9tYWUnLCAnPG91dGZpbGUubWFlPic=

> <r_lp_tautomer_probability>
1

> <r_epik_Ionization_Penalty>
0.00291159

> <r_epik_Ionization_Penalty_Charging>
0

> <r_epik_Ionization_Penalty_Neutral>
0.00291159

> <r_epik_State_Penalty>
0.00200877

> <r_epik_Charging_Adjusted_Penalty>
0.00200877

> <i_epik_Tot_Q>
0

> <i_epik_Tot_abs_Q>
0

> <r_epik_Metal_State_Penalty>
-0

> <b_epik_Metal_Only>
0

> <s_lp_Force_Field>
OPLS_2005

> <r_lp_Energy>
40.0006

> <b_lp_Chiralities_Consistent>
1

> <s_lp_Variant>
AV-unprocessed.smi:633-2

> <Gold.Version>
5.8.1

> <Gold.Id.Protein>
6NUR|6NUR_protein|mol2

> <Gold.PLP.Fitness>
50.4044

> <Gold.PLP.PLP>
-45.3928

> <Gold.PLP.part.hbond>
-2.2191

> <Gold.PLP.part.metal>
0.0000

> <Gold.PLP.part.buried>
-6.2532

> <Gold.PLP.part.nonpolar>
-38.0910

> <Gold.PLP.part.repulsive>
0.2629

> <Gold.PLP.ligand.clash>
0.0000

> <Gold.PLP.ligand.torsion>
1.5074

> <Gold.PLP.Chemscore.Hbond>
1.8632

> <Gold.PLP.Chemscore.CHOScore>
0.0000

> <Gold.PLP.Chemscore.Metal>
0.0000

> <Gold.Chemscore.Hbonds>
donor molecule, donor type, donor heavy atom, donor atom, acceptor molecule, acceptor atom, score
      L1  H     9    34       P1  7948  0.86
      L1  H    12    35       P1  7948  1.00

> <Gold.PLP.Chemscore.Internal.Correction>
2.4369

> <Gold.Rescore>
     Score         DG    S(hbond)    S(metal)    S(lipo)     H(rot)  DE(clash)    DE(int)     intcor
     17.85     -21.83       1.88        0.00     116.74       1.40       0.18       3.81       ----

> <Gold.Chemscore.Fitness>
17.8485

> <Gold.Chemscore.DG>
-21.8309

> <Gold.Chemscore.ZeroCoef>
-5.4800

> <Gold.Chemscore.Hbond>
1.8809

> <Gold.Chemscore.Metal>
0.0000

> <Gold.Chemscore.Lipo>
116.7385

> <Gold.Chemscore.Internal_Hbond>
0.0000

> <Gold.Chemscore.DEClash>
0.1766

> <Gold.Chemscore.DEInternal>
3.8057

> <Gold.Chemscore.Rot>
1.4022

> <Gold.Chemscore.Internal.Correction>
   9.000000E+99

> <Gold.Chemscore.Hbonds>
donor molecule, donor type, donor heavy atom, donor atom, acceptor molecule, acceptor atom, score
      L1  H     9    34       P1  7948  0.80
      L1  H    12    35       P1  7948  0.94

> <Gold.Chemscore.Hbond.Weighted>
-6.2821

> <Gold.Chemscore.Metal.Weighted>
-0.0000

> <Gold.Chemscore.Lipo.Weighted>
-13.6584

> <Gold.Chemscore.Internal_Hbond.Weighted>
0.0000

> <Gold.Chemscore.DEClash.Weighted>
0.1766

> <Gold.Chemscore.DEInternal.Weighted>
3.8057

> <Gold.Chemscore.Rot.Weighted>
3.5897

> <Gold.Chemscore.Internal.Correction.Weighted>
   9.000000E+99

> <Gold.Protein.RotatedTorsions>
[ 6907 6896 6895 6894 ] final  -30.15 input  -60.11 | X-H torsion
[ 7974 7965 7964 7962 ] final -167.95 input  175.53 | X-H torsion
[ 8008 7997 7996 7995 ] final  114.82 input   59.86 | X-H torsion
[ 10167 10162 10161 10158 ] final  -26.80 input  -65.29 | X-H torsion
[ 10718 10713 10712 10709 ] final  120.01 input   66.30 | X-H torsion
[ 10763 10752 10751 10750 ] final   45.26 input  -60.55 | X-H torsion
[ 11005 11000 10999 10996 ] final   49.10 input  -57.11 | X-H torsion

> <Gold.Protein.ActiveResidues>
 VAL166  LYS551  ARG553  GLY616  TRP617  ASP618  TYR619  PRO620  LYS621  CYS622 
 ASP623  PHE694  ASN695  SER759  ASP760  ASP761  ALA762  ILE779  LEU786  VAL792 
 PHE793  MET794  SER795  GLU796  ALA797  LYS798  CYS799  TRP800  GLU811  SER814 

> <Gold.Protein.RotatedAtoms>
  151.1095  135.0018  159.8486 H   0  0  0  0  0  0  0  0  0  0  0  0  # atno 6907 bound_to 6896
  152.5442  134.1853  159.8662 H   0  0  0  0  0  0  0  0  0  0  0  0  # atno 6908 bound_to 6896
  151.1902  133.4627  159.2628 H   0  0  0  0  0  0  0  0  0  0  0  0  # atno 6909 bound_to 6896
  144.7213  140.2443  143.6287 H   0  0  0  0  0  0  0  0  0  0  0  0  # atno 7974 bound_to 7965
  156.2344  140.2951  156.0274 H   0  0  0  0  0  0  0  0  0  0  0  0  # atno 8008 bound_to 7997
  155.2133  140.0413  157.2954 H   0  0  0  0  0  0  0  0  0  0  0  0  # atno 8009 bound_to 7997
  154.6053  140.2437  155.7747 H   0  0  0  0  0  0  0  0  0  0  0  0  # atno 8010 bound_to 7997
  140.7281  143.4147  151.1048 H   0  0  0  0  0  0  0  0  0  0  0  0  # atno 10167 bound_to 10162
  157.5921  131.1063  150.7976 H   0  0  0  0  0  0  0  0  0  0  0  0  # atno 10718 bound_to 10713
  152.9827  135.6045  154.3408 H   0  0  0  0  0  0  0  0  0  0  0  0  # atno 10763 bound_to 10752
  154.3105  135.2771  155.2570 H   0  0  0  0  0  0  0  0  0  0  0  0  # atno 10764 bound_to 10752
  154.4781  135.5924  153.6426 H   0  0  0  0  0  0  0  0  0  0  0  0  # atno 10765 bound_to 10752
  140.1132  134.4927  155.8659 H   0  0  0  0  0  0  0  0  0  0  0  0  # atno 11005 bound_to 11000
  145.8289  139.2077  143.1894 LP  0  0  0  0  0  0  0  0  0  0  0  0  # atno 17320 bound_to 7965
  146.0448  140.8129  142.9811 LP  0  0  0  0  0  0  0  0  0  0  0  0  # atno 17321 bound_to 7965
  139.7785  143.8390  152.3133 LP  0  0  0  0  0  0  0  0  0  0  0  0  # atno 17342 bound_to 10162
  139.8333  144.7244  150.9423 LP  0  0  0  0  0  0  0  0  0  0  0  0  # atno 17343 bound_to 10162
  156.8396  130.5043  149.5322 LP  0  0  0  0  0  0  0  0  0  0  0  0  # atno 17370 bound_to 10713
  156.0977  130.5945  150.9842 LP  0  0  0  0  0  0  0  0  0  0  0  0  # atno 17371 bound_to 10713
  141.2135  133.6734  156.6746 LP  0  0  0  0  0  0  0  0  0  0  0  0  # atno 17394 bound_to 11000
  140.3063  134.8123  157.4139 LP  0  0  0  0  0  0  0  0  0  0  0  0  # atno 17395 bound_to 11000

$$$$
