AV-unprocessed.smi:2855|AV-procd|sdf|10983|dock5
  -GOLD-   2272015433D 1   1.00000     0.00000
 Structure written by MMmdl.
 47 48  0  0  0  0  0  0  0  0  1 V2000
  152.1844  144.2838  160.5316 C   0  0  0  0  0  0  0  0  0  0  0  0
  152.3079  143.4501  159.2483 C   0  0  2  0  0  0  0  0  0  0  0  0
  151.5620  144.1106  158.0699 C   0  0  0  0  0  0  0  0  0  0  0  0
  151.6053  143.2401  156.7983 C   0  0  0  0  0  0  0  0  0  0  0  0
  151.0298  141.8218  157.0419 C   0  0  2  0  0  0  0  0  0  0  0  0
  149.4782  141.8258  157.2823 C   0  0  0  0  0  0  0  0  0  0  0  0
  149.0327  142.5770  158.5520 C   0  0  0  0  0  0  0  0  0  0  0  0
  148.8940  140.3995  157.3399 C   0  0  0  0  0  0  0  0  0  0  0  0
  151.9138  141.1928  158.1601 C   0  0  2  0  0  0  0  0  0  0  0  0
  151.6637  139.7759  158.3998 N   0  0  0  0  0  0  0  0  0  0  0  0
  152.5109  138.7677  158.1297 C   0  0  0  0  0  0  0  0  0  0  0  0
  153.6265  138.9472  157.6427 O   0  0  0  0  0  0  0  0  0  0  0  0
  152.0508  137.3308  158.4320 C   0  0  0  0  0  0  0  0  0  0  0  0
  151.0516  136.7896  157.4949 N   0  0  0  0  0  0  0  0  0  0  0  0
  151.3122  136.7743  156.1320 C   0  0  0  0  0  0  0  0  0  0  0  0
  150.4390  136.3036  155.2104 C   0  0  0  0  0  0  0  0  0  0  0  0
  149.1439  135.7735  155.6233 C   0  0  0  0  0  0  0  0  0  0  0  0
  148.2862  135.3265  154.8653 O   0  0  0  0  0  0  0  0  0  0  0  0
  148.9193  135.8045  157.0022 N   0  0  0  0  0  0  0  0  0  0  0  0
  149.8145  136.2887  157.9571 C   0  0  0  0  0  0  0  0  0  0  0  0
  149.5121  136.2781  159.1495 O   0  0  0  0  0  0  0  0  0  0  0  0
  151.8300  141.9999  159.4683 C   0  0  0  0  0  0  0  0  0  0  0  0
  148.0349  135.4482  157.3348 H   0  0  0  0  0  0  0  0  0  0  0  0
  151.1453  144.3664  160.8520 H   0  0  0  0  0  0  0  0  0  0  0  0
  152.5685  145.2933  160.3823 H   0  0  0  0  0  0  0  0  0  0  0  0
  152.7499  143.8340  161.3481 H   0  0  0  0  0  0  0  0  0  0  0  0
  153.3663  143.4110  158.9857 H   0  0  0  0  0  0  0  0  0  0  0  0
  150.5267  144.3082  158.3483 H   0  0  0  0  0  0  0  0  0  0  0  0
  152.0049  145.0838  157.8560 H   0  0  0  0  0  0  0  0  0  0  0  0
  151.1032  143.7458  155.9753 H   0  0  0  0  0  0  0  0  0  0  0  0
  152.6429  143.1520  156.4725 H   0  0  0  0  0  0  0  0  0  0  0  0
  151.2043  141.2511  156.1284 H   0  0  0  0  0  0  0  0  0  0  0  0
  148.9913  142.3246  156.4451 H   0  0  0  0  0  0  0  0  0  0  0  0
  149.6046  142.2633  159.4260 H   0  0  0  0  0  0  0  0  0  0  0  0
  147.9785  142.4023  158.7691 H   0  0  0  0  0  0  0  0  0  0  0  0
  149.1350  143.6548  158.4387 H   0  0  0  0  0  0  0  0  0  0  0  0
  149.4059  139.7906  158.0857 H   0  0  0  0  0  0  0  0  0  0  0  0
  148.9617  139.8896  156.3797 H   0  0  0  0  0  0  0  0  0  0  0  0
  147.8347  140.4143  157.5979 H   0  0  0  0  0  0  0  0  0  0  0  0
  152.9539  141.2568  157.8330 H   0  0  0  0  0  0  0  0  0  0  0  0
  150.7673  139.5380  158.7988 H   0  0  0  0  0  0  0  0  0  0  0  0
  152.9338  136.6899  158.4401 H   0  0  0  0  0  0  0  0  0  0  0  0
  151.6698  137.2975  159.4542 H   0  0  0  0  0  0  0  0  0  0  0  0
  152.2575  137.1622  155.7798 H   0  0  0  0  0  0  0  0  0  0  0  0
  150.6996  136.3204  154.1619 H   0  0  0  0  0  0  0  0  0  0  0  0
  152.4524  141.5284  160.2302 H   0  0  0  0  0  0  0  0  0  0  0  0
  150.8121  141.9880  159.8585 H   0  0  0  0  0  0  0  0  0  0  0  0
  1  2  1  0  0  0  0
  1 24  1  0  0  0  0
  1 25  1  0  0  0  0
  1 26  1  0  0  0  0
  2 22  1  0  0  0  0
  2  3  1  0  0  0  0
  2 27  1  0  0  0  0
  3  4  1  0  0  0  0
  3 28  1  0  0  0  0
  3 29  1  0  0  0  0
  4  5  1  0  0  0  0
  4 30  1  0  0  0  0
  4 31  1  0  0  0  0
  5  6  1  0  0  0  0
  5  9  1  0  0  0  0
  5 32  1  0  0  0  0
  6  7  1  0  0  0  0
  6  8  1  0  0  0  0
  6 33  1  0  0  0  0
  7 34  1  0  0  0  0
  7 35  1  0  0  0  0
  7 36  1  0  0  0  0
  8 37  1  0  0  0  0
  8 38  1  0  0  0  0
  8 39  1  0  0  0  0
  9 10  1  0  0  0  0
  9 22  1  0  0  0  0
  9 40  1  0  0  0  0
 10 11  1  0  0  0  0
 10 41  1  0  0  0  0
 11 12  2  0  0  0  0
 11 13  1  0  0  0  0
 13 14  1  0  0  0  0
 13 42  1  0  0  0  0
 13 43  1  0  0  0  0
 14 20  1  0  0  0  0
 14 15  1  0  0  0  0
 15 16  2  0  0  0  0
 15 44  1  0  0  0  0
 16 17  1  0  0  0  0
 16 45  1  0  0  0  0
 17 18  2  0  0  0  0
 17 19  1  0  0  0  0
 19 23  1  0  0  0  0
 19 20  1  0  0  0  0
 20 21  2  0  0  0  0
 22 46  1  0  0  0  0
 22 47  1  0  0  0  0
M  END
> <s_m_source_file>
AV-unprocessed.smi

> <i_m_source_file_index>
2855

> <i_lp_mmshare_version>
43012

> <i_f3d_flags>
0

> <s_epik_input>
W0NIM11bQ0BASF0xW0NIMl1bQ0gyXVtDQEBIXShbQ0hdKFtDSDNdKVtDSDNdKVtDQEhdKFtDSDJdMSlbTkhdQyg9TylbQ0gyXW4yW2NIXVtjSF1jKD1PKVtuSF1jMj1P

> <s_epik_cmdline>
J2VwaWtfcHl0aG9uJywgJy1waCcsICc3LjAnLCAnLXRuJywgJzgnLCAnLW1hJywgJzIwMCcsICctbWV0YWxfYmluZGluZycsICctaW1hZScsICc8aW5maWxlLm1hZT4nLCAnLW9tYWUnLCAnPG91dGZpbGUubWFlPic=

> <r_lp_tautomer_probability>
0.999537

> <r_epik_Ionization_Penalty>
0.00306256

> <r_epik_Ionization_Penalty_Charging>
0.00306254

> <r_epik_Ionization_Penalty_Neutral>
2.0223e-08

> <r_epik_State_Penalty>
0.0021533

> <r_epik_Charging_Adjusted_Penalty>
0.00521583

> <i_epik_Tot_Q>
0

> <i_epik_Tot_abs_Q>
0

> <r_epik_Metal_State_Penalty>
0.362116

> <b_epik_Metal_Only>
0

> <s_lp_Force_Field>
OPLS_2005

> <r_lp_Energy>
18.1406

> <b_lp_Chiralities_Consistent>
1

> <s_lp_Variant>
AV-unprocessed.smi:2855-7

> <Gold.Version>
5.8.1

> <Gold.Id.Protein>
6NUR|6NUR_protein|mol2

> <Gold.PLP.Fitness>
35.7123

> <Gold.PLP.PLP>
-30.2877

> <Gold.PLP.part.hbond>
-1.7913

> <Gold.PLP.part.metal>
0.0000

> <Gold.PLP.part.buried>
-5.8008

> <Gold.PLP.part.nonpolar>
-24.0117

> <Gold.PLP.part.repulsive>
0.7859

> <Gold.PLP.ligand.clash>
0.1194

> <Gold.PLP.ligand.torsion>
0.2484

> <Gold.PLP.Chemscore.Hbond>
2.0000

> <Gold.PLP.Chemscore.CHOScore>
0.0000

> <Gold.PLP.Chemscore.Metal>
0.0000

> <Gold.Chemscore.Hbonds>
donor molecule, donor type, donor heavy atom, donor atom, acceptor molecule, acceptor atom, score
      P1  H  6896  6909       L1    21  0.80
      P1  H  7997  8009       L1    12  1.00

> <Gold.PLP.Chemscore.Internal.Correction>
0.0407

> <Gold.Rescore>
     Score         DG    S(hbond)    S(metal)    S(lipo)     H(rot)  DE(clash)    DE(int)     intcor
     15.40     -17.65       1.96        0.00      88.68       1.85       0.43       1.82       ----

> <Gold.Chemscore.Fitness>
15.3996

> <Gold.Chemscore.DG>
-17.6471

> <Gold.Chemscore.ZeroCoef>
-5.4800

> <Gold.Chemscore.Hbond>
1.9574

> <Gold.Chemscore.Metal>
0.0000

> <Gold.Chemscore.Lipo>
88.6776

> <Gold.Chemscore.Internal_Hbond>
0.0000

> <Gold.Chemscore.DEClash>
0.4322

> <Gold.Chemscore.DEInternal>
1.8152

> <Gold.Chemscore.Rot>
1.8539

> <Gold.Chemscore.Internal.Correction>
   9.000000E+99

> <Gold.Chemscore.Hbonds>
donor molecule, donor type, donor heavy atom, donor atom, acceptor molecule, acceptor atom, score
      P1  H  6896  6909       L1    21  0.11
      P1  H  7997  8009       L1    12  0.95

> <Gold.Chemscore.Hbond.Weighted>
-6.5378

> <Gold.Chemscore.Metal.Weighted>
-0.0000

> <Gold.Chemscore.Lipo.Weighted>
-10.3753

> <Gold.Chemscore.Internal_Hbond.Weighted>
0.0000

> <Gold.Chemscore.DEClash.Weighted>
0.4322

> <Gold.Chemscore.DEInternal.Weighted>
1.8152

> <Gold.Chemscore.Rot.Weighted>
4.7460

> <Gold.Chemscore.Internal.Correction.Weighted>
   9.000000E+99

> <Gold.Protein.RotatedTorsions>
[ 6907 6896 6895 6894 ] final   65.05 input  -60.11 | X-H torsion
[ 7974 7965 7964 7962 ] final   39.43 input  175.53 | X-H torsion
[ 8008 7997 7996 7995 ] final  174.14 input   59.86 | X-H torsion
[ 10167 10162 10161 10158 ] final -105.07 input  -65.29 | X-H torsion
[ 10718 10713 10712 10709 ] final   55.71 input   66.30 | X-H torsion
[ 10763 10752 10751 10750 ] final -149.84 input  -60.55 | X-H torsion
[ 11005 11000 10999 10996 ] final   43.49 input  -57.11 | X-H torsion

> <Gold.Protein.ActiveResidues>
 VAL166  LYS551  ARG553  GLY616  TRP617  ASP618  TYR619  PRO620  LYS621  CYS622 
 ASP623  PHE694  ASN695  SER759  ASP760  ASP761  ALA762  ILE779  LEU786  VAL792 
 PHE793  MET794  SER795  GLU796  ALA797  LYS798  CYS799  TRP800  GLU811  SER814 

> <Gold.Protein.RotatedAtoms>
  152.4378  134.5651  159.9905 H   0  0  0  0  0  0  0  0  0  0  0  0  # atno 6907 bound_to 6896
  151.5757  133.3378  159.3006 H   0  0  0  0  0  0  0  0  0  0  0  0  # atno 6908 bound_to 6896
  150.8279  134.7553  159.6893 H   0  0  0  0  0  0  0  0  0  0  0  0  # atno 6909 bound_to 6896
  146.0985  139.5652  142.9430 H   0  0  0  0  0  0  0  0  0  0  0  0  # atno 7974 bound_to 7965
  156.1004  140.1442  156.9475 H   0  0  0  0  0  0  0  0  0  0  0  0  # atno 8008 bound_to 7997
  154.4699  140.0913  156.7162 H   0  0  0  0  0  0  0  0  0  0  0  0  # atno 8009 bound_to 7997
  155.4769  140.3443  155.4336 H   0  0  0  0  0  0  0  0  0  0  0  0  # atno 8010 bound_to 7997
  140.2025  143.3808  152.1118 H   0  0  0  0  0  0  0  0  0  0  0  0  # atno 10167 bound_to 10162
  157.5368  130.8669  149.8765 H   0  0  0  0  0  0  0  0  0  0  0  0  # atno 10718 bound_to 10713
  154.8154  135.3299  154.7191 H   0  0  0  0  0  0  0  0  0  0  0  0  # atno 10763 bound_to 10752
  153.7833  135.6917  153.4889 H   0  0  0  0  0  0  0  0  0  0  0  0  # atno 10764 bound_to 10752
  153.1966  135.4531  155.0162 H   0  0  0  0  0  0  0  0  0  0  0  0  # atno 10765 bound_to 10752
  140.1640  134.4305  155.8299 H   0  0  0  0  0  0  0  0  0  0  0  0  # atno 11005 bound_to 11000
  145.5902  141.0370  143.2074 LP  0  0  0  0  0  0  0  0  0  0  0  0  # atno 17320 bound_to 7965
  144.7414  139.7439  143.7309 LP  0  0  0  0  0  0  0  0  0  0  0  0  # atno 17321 bound_to 7965
  139.5211  144.7042  151.5403 LP  0  0  0  0  0  0  0  0  0  0  0  0  # atno 17342 bound_to 10162
  140.6380  143.8945  150.6665 LP  0  0  0  0  0  0  0  0  0  0  0  0  # atno 17343 bound_to 10162
  156.0465  130.3727  150.1304 LP  0  0  0  0  0  0  0  0  0  0  0  0  # atno 17370 bound_to 10713
  156.9486  130.9767  151.3502 LP  0  0  0  0  0  0  0  0  0  0  0  0  # atno 17371 bound_to 10713
  141.2212  133.6926  156.7645 LP  0  0  0  0  0  0  0  0  0  0  0  0  # atno 17394 bound_to 11000
  140.2456  134.8580  157.3616 LP  0  0  0  0  0  0  0  0  0  0  0  0  # atno 17395 bound_to 11000

$$$$
