AV-unprocessed.smi:2532|AV-procd|sdf|9970|dock6
  -GOLD-   2272014 13D 1   1.00000     0.00000
 Structure written by MMmdl.
 37 39  0  0  0  0  0  0  0  0  2 V2000
  152.0235  136.9807  155.7972 O   0  0  0  0  0  0  0  0  0  0  0  0
  152.0393  138.3681  155.5255 C   0  0  2  0  0  0  0  0  0  0  0  0
  153.1228  138.6411  154.4709 C   0  0  0  0  0  0  0  0  0  0  0  0
  154.3710  138.1866  154.9660 O   0  0  0  0  0  0  0  0  0  0  0  0
  155.4634  138.9606  154.4963 C   0  0  0  0  0  0  0  0  0  0  0  0
  156.5216  138.0231  154.0051 C   0  0  0  0  0  0  0  0  0  0  0  0
  156.4680  137.2474  152.8747 C   0  0  0  0  0  0  0  0  0  0  0  0
  157.6438  136.4678  152.6678 C   0  0  0  0  0  0  0  0  0  0  0  0
  158.5873  136.6612  153.6410 C   0  0  0  0  0  0  0  0  0  0  0  0
  158.0484  137.8109  154.8338 S   0  0  0  0  0  0  0  0  0  0  0  0
  152.3036  139.1407  156.8331 C   0  0  0  0  0  0  0  0  0  0  0  0
  151.6846  140.4743  156.8456 N   0  0  0  0  0  0  0  0  0  0  0  0
  150.8309  141.0414  155.9504 C   0  0  0  0  0  0  0  0  0  0  0  0
  150.5390  142.2946  156.3960 N   0  3  0  0  0  0  0  0  0  0  0  0
  151.2141  142.5323  157.5950 C   0  0  0  0  0  0  0  0  0  0  0  0
  151.2339  143.6514  158.4219 C   0  0  0  0  0  0  0  0  0  0  0  0
  152.0304  143.5665  159.5828 C   0  0  0  0  0  0  0  0  0  0  0  0
  152.7663  142.4023  159.8849 C   0  0  0  0  0  0  0  0  0  0  0  0
  152.7397  141.2743  159.0385 C   0  0  0  0  0  0  0  0  0  0  0  0
  151.9516  141.3662  157.8915 C   0  0  0  0  0  0  0  0  0  0  0  0
  151.3391  136.8092  156.4266 H   0  0  0  0  0  0  0  0  0  0  0  0
  151.0649  138.6617  155.1326 H   0  0  0  0  0  0  0  0  0  0  0  0
  152.8954  138.0877  153.5583 H   0  0  0  0  0  0  0  0  0  0  0  0
  153.1593  139.6995  154.2065 H   0  0  0  0  0  0  0  0  0  0  0  0
  155.1413  139.6203  153.6894 H   0  0  0  0  0  0  0  0  0  0  0  0
  155.8620  139.5824  155.2990 H   0  0  0  0  0  0  0  0  0  0  0  0
  155.6302  137.2126  152.1940 H   0  0  0  0  0  0  0  0  0  0  0  0
  157.7555  135.8034  151.8236 H   0  0  0  0  0  0  0  0  0  0  0  0
  159.5618  136.2036  153.7289 H   0  0  0  0  0  0  0  0  0  0  0  0
  151.9673  138.5765  157.7033 H   0  0  0  0  0  0  0  0  0  0  0  0
  153.3762  139.2893  156.9638 H   0  0  0  0  0  0  0  0  0  0  0  0
  150.4540  140.5808  155.0487 H   0  0  0  0  0  0  0  0  0  0  0  0
  150.6693  144.5436  158.1942 H   0  0  0  0  0  0  0  0  0  0  0  0
  152.0765  144.4104  160.2557 H   0  0  0  0  0  0  0  0  0  0  0  0
  153.3626  142.3726  160.7854 H   0  0  0  0  0  0  0  0  0  0  0  0
  153.3023  140.3858  159.2837 H   0  0  0  0  0  0  0  0  0  0  0  0
  149.9230  142.9379  155.9155 H   0  0  0  0  0  0  0  0  0  0  0  0
  1  2  1  0  0  0  0
  1 21  1  0  0  0  0
  2  3  1  0  0  0  0
  2 11  1  0  0  0  0
  2 22  1  0  0  0  0
  3  4  1  0  0  0  0
  3 23  1  0  0  0  0
  3 24  1  0  0  0  0
  4  5  1  0  0  0  0
  5  6  1  0  0  0  0
  5 25  1  0  0  0  0
  5 26  1  0  0  0  0
  6 10  1  0  0  0  0
  6  7  2  0  0  0  0
  7  8  1  0  0  0  0
  7 27  1  0  0  0  0
  8  9  2  0  0  0  0
  8 28  1  0  0  0  0
  9 10  1  0  0  0  0
  9 29  1  0  0  0  0
 11 12  1  0  0  0  0
 11 30  1  0  0  0  0
 11 31  1  0  0  0  0
 12 20  1  0  0  0  0
 12 13  1  0  0  0  0
 13 14  2  0  0  0  0
 13 32  1  0  0  0  0
 14 15  1  0  0  0  0
 14 37  1  0  0  0  0
 15 20  2  0  0  0  0
 15 16  1  0  0  0  0
 16 17  2  0  0  0  0
 16 33  1  0  0  0  0
 17 18  1  0  0  0  0
 17 34  1  0  0  0  0
 18 19  2  0  0  0  0
 18 35  1  0  0  0  0
 19 20  1  0  0  0  0
 19 36  1  0  0  0  0
M  CHG  1  14   1
M  END
> <s_m_source_file>
AV-unprocessed.smi

> <i_m_source_file_index>
2532

> <i_lp_mmshare_version>
43012

> <i_f3d_flags>
0

> <s_epik_input>
W2NIXTFbY0hdW2NIXVtjSF1jKGMxMiluKFtjSF1uMilbQ0gyXVtDQEhdKFtPSF0pW0NIMl1PW0NIMl1jM1tjSF1bY0hdW2NIXXMz

> <s_epik_cmdline>
J2VwaWtfcHl0aG9uJywgJy1waCcsICc3LjAnLCAnLXRuJywgJzgnLCAnLW1hJywgJzIwMCcsICctbWV0YWxfYmluZGluZycsICctaW1hZScsICc8aW5maWxlLm1hZT4nLCAnLW9tYWUnLCAnPG91dGZpbGUubWFlPic=

> <r_epik_Ionization_Penalty>
1.31758

> <r_epik_Ionization_Penalty_Charging>
1.31758

> <r_epik_Ionization_Penalty_Neutral>
1.26231e-06

> <r_epik_State_Penalty>
1.39289

> <r_epik_Charging_Adjusted_Penalty>
2.71047

> <i_epik_Tot_Q>
1

> <i_epik_Tot_abs_Q>
1

> <r_epik_Metal_State_Penalty>
5.42637

> <b_epik_Metal_Only>
0

> <s_lp_Force_Field>
OPLS_2005

> <r_lp_Energy>
15.3098

> <b_lp_Chiralities_Consistent>
1

> <s_lp_Variant>
AV-unprocessed.smi:2532-3

> <Gold.Version>
5.8.1

> <Gold.Id.Protein>
6NUR|6NUR_protein|mol2

> <Gold.PLP.Fitness>
50.6039

> <Gold.PLP.PLP>
-43.6536

> <Gold.PLP.part.hbond>
-3.8712

> <Gold.PLP.part.metal>
0.0000

> <Gold.PLP.part.buried>
-1.0888

> <Gold.PLP.part.nonpolar>
-38.6051

> <Gold.PLP.part.repulsive>
0.0883

> <Gold.PLP.ligand.clash>
0.0000

> <Gold.PLP.ligand.torsion>
1.0596

> <Gold.PLP.Chemscore.Hbond>
3.0000

> <Gold.PLP.Chemscore.CHOScore>
0.0000

> <Gold.PLP.Chemscore.Metal>
0.0000

> <Gold.Chemscore.Hbonds>
donor molecule, donor type, donor heavy atom, donor atom, acceptor molecule, acceptor atom, score
      L1  H    14    37       P1  8028  1.76
      P1  H 10752 10765       L1     1  1.00

> <Gold.PLP.Chemscore.Internal.Correction>
0.0695

> <Gold.Rescore>
     Score         DG    S(hbond)    S(metal)    S(lipo)     H(rot)  DE(clash)    DE(int)     intcor
     19.95     -22.69       1.81        0.00     149.29       2.46       1.66       1.09       ----

> <Gold.Chemscore.Fitness>
19.9455

> <Gold.Chemscore.DG>
-22.6871

> <Gold.Chemscore.ZeroCoef>
-5.4800

> <Gold.Chemscore.Hbond>
1.8084

> <Gold.Chemscore.Metal>
0.0000

> <Gold.Chemscore.Lipo>
149.2864

> <Gold.Chemscore.Internal_Hbond>
0.0000

> <Gold.Chemscore.DEClash>
1.6559

> <Gold.Chemscore.DEInternal>
1.0856

> <Gold.Chemscore.Rot>
2.4608

> <Gold.Chemscore.Internal.Correction>
   9.000000E+99

> <Gold.Chemscore.Hbonds>
donor molecule, donor type, donor heavy atom, donor atom, acceptor molecule, acceptor atom, score
      L1  H    14    37       P1  8028  0.84
      P1  H 10752 10765       L1     1  0.92

> <Gold.Chemscore.Hbond.Weighted>
-6.0402

> <Gold.Chemscore.Metal.Weighted>
-0.0000

> <Gold.Chemscore.Lipo.Weighted>
-17.4665

> <Gold.Chemscore.Internal_Hbond.Weighted>
0.0000

> <Gold.Chemscore.DEClash.Weighted>
1.6559

> <Gold.Chemscore.DEInternal.Weighted>
1.0856

> <Gold.Chemscore.Rot.Weighted>
6.2996

> <Gold.Chemscore.Internal.Correction.Weighted>
   9.000000E+99

> <Gold.Protein.RotatedTorsions>
[ 6907 6896 6895 6894 ] final   13.00 input  -60.11 | X-H torsion
[ 7974 7965 7964 7962 ] final -117.44 input  175.53 | X-H torsion
[ 8008 7997 7996 7995 ] final -178.24 input   59.86 | X-H torsion
[ 10167 10162 10161 10158 ] final  -41.17 input  -65.29 | X-H torsion
[ 10718 10713 10712 10709 ] final  178.58 input   66.30 | X-H torsion
[ 10763 10752 10751 10750 ] final -167.76 input  -60.55 | X-H torsion
[ 11005 11000 10999 10996 ] final   31.80 input  -57.11 | X-H torsion

> <Gold.Protein.ActiveResidues>
 VAL166  LYS551  ARG553  GLY616  TRP617  ASP618  TYR619  PRO620  LYS621  CYS622 
 ASP623  PHE694  ASN695  SER759  ASP760  ASP761  ALA762  ILE779  LEU786  VAL792 
 PHE793  MET794  SER795  GLU796  ALA797  LYS798  CYS799  TRP800  GLU811  SER814 

> <Gold.Protein.RotatedAtoms>
  151.7793  135.0766  160.0371 H   0  0  0  0  0  0  0  0  0  0  0  0  # atno 6907 bound_to 6896
  152.3234  133.5874  159.5768 H   0  0  0  0  0  0  0  0  0  0  0  0  # atno 6908 bound_to 6896
  150.7382  133.9893  159.3643 H   0  0  0  0  0  0  0  0  0  0  0  0  # atno 6909 bound_to 6896
  145.0852  140.8453  143.4015 H   0  0  0  0  0  0  0  0  0  0  0  0  # atno 7974 bound_to 7965
  156.0165  140.1252  157.0401 H   0  0  0  0  0  0  0  0  0  0  0  0  # atno 8008 bound_to 7997
  154.4295  140.1077  156.5973 H   0  0  0  0  0  0  0  0  0  0  0  0  # atno 8009 bound_to 7997
  155.6006  140.3470  155.4595 H   0  0  0  0  0  0  0  0  0  0  0  0  # atno 8010 bound_to 7997
  140.7011  143.3110  151.3028 H   0  0  0  0  0  0  0  0  0  0  0  0  # atno 10167 bound_to 10162
  156.8885  130.9839  151.3052 H   0  0  0  0  0  0  0  0  0  0  0  0  # atno 10718 bound_to 10713
  154.6698  135.2937  154.9757 H   0  0  0  0  0  0  0  0  0  0  0  0  # atno 10763 bound_to 10752
  154.0788  135.6607  153.4838 H   0  0  0  0  0  0  0  0  0  0  0  0  # atno 10764 bound_to 10752
  153.0480  135.5192  154.7689 H   0  0  0  0  0  0  0  0  0  0  0  0  # atno 10765 bound_to 10752
  140.2801  134.2983  155.7803 H   0  0  0  0  0  0  0  0  0  0  0  0  # atno 11005 bound_to 11000
  145.1131  139.2744  143.5627 LP  0  0  0  0  0  0  0  0  0  0  0  0  # atno 17320 bound_to 7965
  146.3531  140.0732  142.8622 LP  0  0  0  0  0  0  0  0  0  0  0  0  # atno 17321 bound_to 7965
  139.6533  144.0323  152.2642 LP  0  0  0  0  0  0  0  0  0  0  0  0  # atno 17342 bound_to 10162
  139.9866  144.6391  150.7852 LP  0  0  0  0  0  0  0  0  0  0  0  0  # atno 17343 bound_to 10162
  157.6098  130.8574  149.8933 LP  0  0  0  0  0  0  0  0  0  0  0  0  # atno 17370 bound_to 10713
  156.0641  130.3695  150.0917 LP  0  0  0  0  0  0  0  0  0  0  0  0  # atno 17371 bound_to 10713
  141.2164  133.7520  156.9467 LP  0  0  0  0  0  0  0  0  0  0  0  0  # atno 17394 bound_to 11000
  140.1291  134.9367  157.2312 LP  0  0  0  0  0  0  0  0  0  0  0  0  # atno 17395 bound_to 11000

$$$$
