AV-unprocessed.smi:2744|AV-procd|sdf|10568|dock4
  -GOLD-   2272015 23D 1   1.00000     0.00000
 Structure written by MMmdl.
 40 41  0  0  0  0  0  0  0  0  1 V2000
  152.8474  143.5840  160.0920 C   0  0  0  0  0  0  0  0  0  0  0  0
  152.5584  144.0926  158.6691 C   0  0  0  0  0  0  0  0  0  0  0  0
  151.3845  143.4037  157.9307 C   0  0  1  0  0  0  0  0  0  0  0  0
  150.0175  143.7520  158.5574 C   0  0  0  0  0  0  0  0  0  0  0  0
  151.3713  143.8755  156.5968 O   0  0  0  0  0  0  0  0  0  0  0  0
  151.6374  141.8736  157.8896 C   0  0  0  0  0  0  0  0  0  0  0  0
  150.8298  141.1530  156.9160 N   0  0  0  0  0  0  0  0  0  0  0  0
  149.4767  141.2982  156.7031 C   0  0  0  0  0  0  0  0  0  0  0  0
  148.9728  140.5363  155.7706 N   0  0  0  0  0  0  0  0  0  0  0  0
  150.0595  139.8009  155.3156 C   0  0  0  0  0  0  0  0  0  0  0  0
  150.2219  138.7974  154.3256 C   0  0  0  0  0  0  0  0  0  0  0  0
  149.1709  138.3696  153.5907 N   0  0  0  0  0  0  0  0  0  0  0  0
  147.7971  138.7013  153.9578 C   0  0  0  0  0  0  0  0  0  0  0  0
  147.0391  137.4616  154.4616 C   0  0  0  0  0  0  0  0  0  0  0  0
  147.0756  139.3348  152.7614 C   0  0  0  0  0  0  0  0  0  0  0  0
  151.4662  138.2801  154.1490 N   0  0  0  0  0  0  0  0  0  0  0  0
  152.4867  138.7200  154.8922 C   0  0  0  0  0  0  0  0  0  0  0  0
  152.4827  139.6517  155.8486 N   0  0  0  0  0  0  0  0  0  0  0  0
  151.2345  140.1717  156.0275 C   0  0  0  0  0  0  0  0  0  0  0  0
  153.6389  144.1743  160.5537 H   0  0  0  0  0  0  0  0  0  0  0  0
  153.1802  142.5465  160.0924 H   0  0  0  0  0  0  0  0  0  0  0  0
  151.9687  143.6589  160.7328 H   0  0  0  0  0  0  0  0  0  0  0  0
  152.3650  145.1650  158.7231 H   0  0  0  0  0  0  0  0  0  0  0  0
  153.4672  143.9866  158.0756 H   0  0  0  0  0  0  0  0  0  0  0  0
  149.9593  143.4049  159.5892 H   0  0  0  0  0  0  0  0  0  0  0  0
  149.1907  143.3000  158.0095 H   0  0  0  0  0  0  0  0  0  0  0  0
  149.8314  144.8257  158.5584 H   0  0  0  0  0  0  0  0  0  0  0  0
  150.5570  144.3311  156.4470 H   0  0  0  0  0  0  0  0  0  0  0  0
  152.6882  141.6660  157.6819 H   0  0  0  0  0  0  0  0  0  0  0  0
  151.4348  141.4414  158.8705 H   0  0  0  0  0  0  0  0  0  0  0  0
  148.8721  141.9990  157.2603 H   0  0  0  0  0  0  0  0  0  0  0  0
  149.2749  137.7528  152.7978 H   0  0  0  0  0  0  0  0  0  0  0  0
  147.8143  139.4472  154.7534 H   0  0  0  0  0  0  0  0  0  0  0  0
  146.0155  137.7156  154.7383 H   0  0  0  0  0  0  0  0  0  0  0  0
  147.5154  137.0292  155.3415 H   0  0  0  0  0  0  0  0  0  0  0  0
  146.9934  136.6872  153.6951 H   0  0  0  0  0  0  0  0  0  0  0  0
  146.0558  139.6181  153.0239 H   0  0  0  0  0  0  0  0  0  0  0  0
  147.0227  138.6459  151.9176 H   0  0  0  0  0  0  0  0  0  0  0  0
  147.5900  140.2354  152.4247 H   0  0  0  0  0  0  0  0  0  0  0  0
  153.4429  138.2594  154.6923 H   0  0  0  0  0  0  0  0  0  0  0  0
  1  2  1  0  0  0  0
  1 20  1  0  0  0  0
  1 21  1  0  0  0  0
  1 22  1  0  0  0  0
  2  3  1  0  0  0  0
  2 23  1  0  0  0  0
  2 24  1  0  0  0  0
  3  4  1  0  0  0  0
  3  5  1  0  0  0  0
  3  6  1  0  0  0  0
  4 25  1  0  0  0  0
  4 26  1  0  0  0  0
  4 27  1  0  0  0  0
  5 28  1  0  0  0  0
  6  7  1  0  0  0  0
  6 29  1  0  0  0  0
  6 30  1  0  0  0  0
  7 19  1  0  0  0  0
  7  8  1  0  0  0  0
  8  9  2  0  0  0  0
  8 31  1  0  0  0  0
  9 10  1  0  0  0  0
 10 19  2  0  0  0  0
 10 11  1  0  0  0  0
 11 12  1  0  0  0  0
 11 16  2  0  0  0  0
 12 13  1  0  0  0  0
 12 32  1  0  0  0  0
 13 14  1  0  0  0  0
 13 15  1  0  0  0  0
 13 33  1  0  0  0  0
 14 34  1  0  0  0  0
 14 35  1  0  0  0  0
 14 36  1  0  0  0  0
 15 37  1  0  0  0  0
 15 38  1  0  0  0  0
 15 39  1  0  0  0  0
 16 17  1  0  0  0  0
 17 18  2  0  0  0  0
 17 40  1  0  0  0  0
 18 19  1  0  0  0  0
M  END
> <s_m_source_file>
AV-unprocessed.smi

> <i_m_source_file_index>
2744

> <i_lp_mmshare_version>
43012

> <i_f3d_flags>
0

> <s_epik_input>
W0NIM11bQ0gyXVtDQEBdKFtDSDNdKShbT0hdKVtDSDJdbihbY0hdbjEpYyhjMTIpbltjSF1uYzJbTkhdW0NIXShbQ0gzXSlbQ0gzXQ==

> <s_epik_cmdline>
J2VwaWtfcHl0aG9uJywgJy1waCcsICc3LjAnLCAnLXRuJywgJzgnLCAnLW1hJywgJzIwMCcsICctbWV0YWxfYmluZGluZycsICctaW1hZScsICc8aW5maWxlLm1hZT4nLCAnLW9tYWUnLCAnPG91dGZpbGUubWFlPic=

> <r_lp_tautomer_probability>
1

> <r_epik_Ionization_Penalty>
0.00217876

> <r_epik_Ionization_Penalty_Charging>
0

> <r_epik_Ionization_Penalty_Neutral>
0.00217876

> <r_epik_State_Penalty>
-0

> <r_epik_Charging_Adjusted_Penalty>
0

> <i_epik_Tot_Q>
0

> <i_epik_Tot_abs_Q>
0

> <r_epik_Metal_State_Penalty>
-0

> <b_epik_Metal_Only>
0

> <s_lp_Force_Field>
OPLS_2005

> <r_lp_Energy>
9.06816

> <b_lp_Chiralities_Consistent>
1

> <s_lp_Variant>
AV-unprocessed.smi:2744-1

> <Gold.Version>
5.8.1

> <Gold.Id.Protein>
6NUR|6NUR_protein|mol2

> <Gold.PLP.Fitness>
45.2405

> <Gold.PLP.PLP>
-37.1158

> <Gold.PLP.part.hbond>
-4.0000

> <Gold.PLP.part.metal>
0.0000

> <Gold.PLP.part.buried>
-3.2070

> <Gold.PLP.part.nonpolar>
-30.7817

> <Gold.PLP.part.repulsive>
0.3112

> <Gold.PLP.ligand.clash>
0.0000

> <Gold.PLP.ligand.torsion>
0.4727

> <Gold.PLP.Chemscore.Hbond>
3.0000

> <Gold.PLP.Chemscore.CHOScore>
0.0000

> <Gold.PLP.Chemscore.Metal>
0.0000

> <Gold.Chemscore.Hbonds>
donor molecule, donor type, donor heavy atom, donor atom, acceptor molecule, acceptor atom, score
      L1  H     5    28       P1  8028  1.00
      L1  H    12    32       P1  7948  1.00
      P1  H  7997  8010       L1    18  1.00

> <Gold.PLP.Chemscore.Internal.Correction>
0.0700

> <Gold.Rescore>
     Score         DG    S(hbond)    S(metal)    S(lipo)     H(rot)  DE(clash)    DE(int)     intcor
     15.39     -17.48       2.83        0.00      73.96       2.38       0.26       1.82       ----

> <Gold.Chemscore.Fitness>
15.3945

> <Gold.Chemscore.DG>
-17.4773

> <Gold.Chemscore.ZeroCoef>
-5.4800

> <Gold.Chemscore.Hbond>
2.8255

> <Gold.Chemscore.Metal>
0.0000

> <Gold.Chemscore.Lipo>
73.9604

> <Gold.Chemscore.Internal_Hbond>
0.0000

> <Gold.Chemscore.DEClash>
0.2593

> <Gold.Chemscore.DEInternal>
1.8235

> <Gold.Chemscore.Rot>
2.3802

> <Gold.Chemscore.Internal.Correction>
   9.000000E+99

> <Gold.Chemscore.Hbonds>
donor molecule, donor type, donor heavy atom, donor atom, acceptor molecule, acceptor atom, score
      L1  H     5    28       P1  8028  0.99
      L1  H    12    32       P1  7948  0.94
      P1  H  7997  8010       L1    18  0.37

> <Gold.Chemscore.Hbond.Weighted>
-9.4372

> <Gold.Chemscore.Metal.Weighted>
-0.0000

> <Gold.Chemscore.Lipo.Weighted>
-8.6534

> <Gold.Chemscore.Internal_Hbond.Weighted>
0.0000

> <Gold.Chemscore.DEClash.Weighted>
0.2593

> <Gold.Chemscore.DEInternal.Weighted>
1.8235

> <Gold.Chemscore.Rot.Weighted>
6.0933

> <Gold.Chemscore.Internal.Correction.Weighted>
   9.000000E+99

> <Gold.Protein.RotatedTorsions>
[ 6907 6896 6895 6894 ] final  -84.60 input  -60.11 | X-H torsion
[ 7974 7965 7964 7962 ] final  112.38 input  175.53 | X-H torsion
[ 8008 7997 7996 7995 ] final  100.69 input   59.86 | X-H torsion
[ 10167 10162 10161 10158 ] final  -80.21 input  -65.29 | X-H torsion
[ 10718 10713 10712 10709 ] final  177.65 input   66.30 | X-H torsion
[ 10763 10752 10751 10750 ] final  -88.14 input  -60.55 | X-H torsion
[ 11005 11000 10999 10996 ] final   86.07 input  -57.11 | X-H torsion

> <Gold.Protein.ActiveResidues>
 VAL166  LYS551  ARG553  GLY616  TRP617  ASP618  TYR619  PRO620  LYS621  CYS622 
 ASP623  PHE694  ASN695  SER759  ASP760  ASP761  ALA762  ILE779  LEU786  VAL792 
 PHE793  MET794  SER795  GLU796  ALA797  LYS798  CYS799  TRP800  GLU811  SER814 

> <Gold.Protein.RotatedAtoms>
  150.6875  134.3333  159.4836 H   0  0  0  0  0  0  0  0  0  0  0  0  # atno 6907 bound_to 6896
  152.1195  134.9213  160.0573 H   0  0  0  0  0  0  0  0  0  0  0  0  # atno 6908 bound_to 6896
  152.0424  133.3948  159.4379 H   0  0  0  0  0  0  0  0  0  0  0  0  # atno 6909 bound_to 6896
  145.2302  139.2823  143.4172 H   0  0  0  0  0  0  0  0  0  0  0  0  # atno 7974 bound_to 7965
  156.1228  140.3209  155.8233 H   0  0  0  0  0  0  0  0  0  0  0  0  # atno 8008 bound_to 7997
  155.4474  140.0530  157.3022 H   0  0  0  0  0  0  0  0  0  0  0  0  # atno 8009 bound_to 7997
  154.4840  140.2065  155.9711 H   0  0  0  0  0  0  0  0  0  0  0  0  # atno 8010 bound_to 7997
  140.4524  143.2479  151.8470 H   0  0  0  0  0  0  0  0  0  0  0  0  # atno 10167 bound_to 10162
  156.9022  130.9882  151.3034 H   0  0  0  0  0  0  0  0  0  0  0  0  # atno 10718 bound_to 10713
  154.6413  135.5388  153.7792 H   0  0  0  0  0  0  0  0  0  0  0  0  # atno 10763 bound_to 10752
  153.0335  135.6460  154.1156 H   0  0  0  0  0  0  0  0  0  0  0  0  # atno 10764 bound_to 10752
  154.1080  135.2928  155.3217 H   0  0  0  0  0  0  0  0  0  0  0  0  # atno 10765 bound_to 10752
  139.8954  134.8330  156.2669 H   0  0  0  0  0  0  0  0  0  0  0  0  # atno 11005 bound_to 11000
  146.3355  140.2635  142.8603 LP  0  0  0  0  0  0  0  0  0  0  0  0  # atno 17320 bound_to 7965
  144.9683  140.8344  143.5471 LP  0  0  0  0  0  0  0  0  0  0  0  0  # atno 17321 bound_to 7965
  139.4798  144.5105  151.8939 LP  0  0  0  0  0  0  0  0  0  0  0  0  # atno 17342 bound_to 10162
  140.4192  144.2266  150.5887 LP  0  0  0  0  0  0  0  0  0  0  0  0  # atno 17343 bound_to 10162
  157.6019  130.8519  149.8815 LP  0  0  0  0  0  0  0  0  0  0  0  0  # atno 17370 bound_to 10713
  156.0576  130.3705  150.1054 LP  0  0  0  0  0  0  0  0  0  0  0  0  # atno 17371 bound_to 10713
  141.0126  133.7087  156.1136 LP  0  0  0  0  0  0  0  0  0  0  0  0  # atno 17394 bound_to 11000
  140.7346  134.4217  157.5562 LP  0  0  0  0  0  0  0  0  0  0  0  0  # atno 17395 bound_to 11000

$$$$
