AV-unprocessed.smi:2535|AV-procd|sdf|9976|dock4
  -GOLD-   2272014 23D 1   1.00000     0.00000
 Structure written by MMmdl.
 26 27  0  0  0  0  0  0  0  0  2 V2000
  149.4922  141.4039  155.1594 C   0  0  0  0  0  0  0  0  0  0  0  0
  150.6940  140.6866  155.5378 N   0  0  0  0  0  0  0  0  0  0  0  0
  151.3015  139.8425  154.6690 N   0  0  0  0  0  0  0  0  0  0  0  0
  152.3414  139.3567  155.2834 N   0  0  0  0  0  0  0  0  0  0  0  0
  152.4488  139.8618  156.5652 N   0  0  0  0  0  0  0  0  0  0  0  0
  151.4063  140.6751  156.6733 C   0  0  0  0  0  0  0  0  0  0  0  0
  151.0637  141.4684  157.8961 C   0  0  0  0  0  0  0  0  0  0  0  0
  151.4001  142.9630  157.7543 C   0  0  2  0  0  0  0  0  0  0  0  0
  152.4968  143.4688  158.6960 C   0  0  0  0  0  0  0  0  0  0  0  0
  152.2216  144.9661  158.7574 C   0  0  0  0  0  0  0  0  0  0  0  0
  150.6939  145.0479  158.7072 C   0  0  0  0  0  0  0  0  0  0  0  0
  150.2303  143.8225  158.0246 N   0  3  0  0  0  0  0  0  0  0  0  0
  149.6372  142.4735  155.3129 H   0  0  0  0  0  0  0  0  0  0  0  0
  148.6533  141.0641  155.7663 H   0  0  0  0  0  0  0  0  0  0  0  0
  149.2587  141.2303  154.1081 H   0  0  0  0  0  0  0  0  0  0  0  0
  149.9968  141.3481  158.0876 H   0  0  0  0  0  0  0  0  0  0  0  0
  151.5764  141.0475  158.7612 H   0  0  0  0  0  0  0  0  0  0  0  0
  151.7085  143.1679  156.7275 H   0  0  0  0  0  0  0  0  0  0  0  0
  152.3780  143.0352  159.6897 H   0  0  0  0  0  0  0  0  0  0  0  0
  153.5018  143.2359  158.3421 H   0  0  0  0  0  0  0  0  0  0  0  0
  152.6424  145.4402  159.6447 H   0  0  0  0  0  0  0  0  0  0  0  0
  152.6492  145.4548  157.8808 H   0  0  0  0  0  0  0  0  0  0  0  0
  150.2802  145.0569  159.7161 H   0  0  0  0  0  0  0  0  0  0  0  0
  150.3470  145.9448  158.1933 H   0  0  0  0  0  0  0  0  0  0  0  0
  149.7622  144.0501  157.1588 H   0  0  0  0  0  0  0  0  0  0  0  0
  149.5909  143.3372  158.6375 H   0  0  0  0  0  0  0  0  0  0  0  0
  1  2  1  0  0  0  0
  1 13  1  0  0  0  0
  1 14  1  0  0  0  0
  1 15  1  0  0  0  0
  2  6  1  0  0  0  0
  2  3  1  0  0  0  0
  3  4  2  0  0  0  0
  4  5  1  0  0  0  0
  5  6  2  0  0  0  0
  6  7  1  0  0  0  0
  7  8  1  0  0  0  0
  7 16  1  0  0  0  0
  7 17  1  0  0  0  0
  8 12  1  0  0  0  0
  8  9  1  0  0  0  0
  8 18  1  0  0  0  0
  9 10  1  0  0  0  0
  9 19  1  0  0  0  0
  9 20  1  0  0  0  0
 10 11  1  0  0  0  0
 10 21  1  0  0  0  0
 10 22  1  0  0  0  0
 11 12  1  0  0  0  0
 11 23  1  0  0  0  0
 11 24  1  0  0  0  0
 12 25  1  0  0  0  0
 12 26  1  0  0  0  0
M  CHG  1  12   1
M  END
> <s_m_source_file>
AV-unprocessed.smi

> <i_m_source_file_index>
2535

> <i_lp_mmshare_version>
43012

> <i_f3d_flags>
0

> <s_epik_input>
W0NIM11uMW5ubmMxW0NIMl1bQ0BASF0yW0NIMl1bQ0gyXVtDSDJdW05IXTI=

> <s_epik_cmdline>
J2VwaWtfcHl0aG9uJywgJy1waCcsICc3LjAnLCAnLXRuJywgJzgnLCAnLW1hJywgJzIwMCcsICctbWV0YWxfYmluZGluZycsICctaW1hZScsICc8aW5maWxlLm1hZT4nLCAnLW9tYWUnLCAnPG91dGZpbGUubWFlPic=

> <r_lp_tautomer_probability>
1

> <r_epik_Ionization_Penalty>
0.000863359

> <r_epik_Ionization_Penalty_Charging>
0.000863359

> <r_epik_Ionization_Penalty_Neutral>
1.80841e-10

> <r_epik_State_Penalty>
0.000557253

> <r_epik_Charging_Adjusted_Penalty>
0.00142061

> <i_epik_Tot_Q>
1

> <i_epik_Tot_abs_Q>
1

> <r_epik_Metal_State_Penalty>
-0

> <b_epik_Metal_Only>
0

> <s_lp_Force_Field>
OPLS_2005

> <r_lp_Energy>
24.3513

> <b_lp_Chiralities_Consistent>
1

> <s_lp_Variant>
AV-unprocessed.smi:2535-1

> <Gold.Version>
5.8.1

> <Gold.Id.Protein>
6NUR|6NUR_protein|mol2

> <Gold.PLP.Fitness>
39.5268

> <Gold.PLP.PLP>
-29.3822

> <Gold.PLP.part.hbond>
-3.6687

> <Gold.PLP.part.metal>
0.0000

> <Gold.PLP.part.buried>
-3.7230

> <Gold.PLP.part.nonpolar>
-22.2680

> <Gold.PLP.part.repulsive>
0.1171

> <Gold.PLP.ligand.clash>
0.0000

> <Gold.PLP.ligand.torsion>
0.9278

> <Gold.PLP.Chemscore.Hbond>
4.0000

> <Gold.PLP.Chemscore.CHOScore>
0.0000

> <Gold.PLP.Chemscore.Metal>
0.0000

> <Gold.Chemscore.Hbonds>
donor molecule, donor type, donor heavy atom, donor atom, acceptor molecule, acceptor atom, score
      L1  H    12    25       P1  8028  2.00
      P1  H  7989  7998       L1     3  1.00
      P1  H  7997  8010       L1     5  0.75

> <Gold.PLP.Chemscore.Internal.Correction>
0.0003

> <Gold.Rescore>
     Score         DG    S(hbond)    S(metal)    S(lipo)     H(rot)  DE(clash)    DE(int)     intcor
     14.73     -15.80       1.90        0.00      63.45       1.34       0.08       0.99       ----

> <Gold.Chemscore.Fitness>
14.7265

> <Gold.Chemscore.DG>
-15.8014

> <Gold.Chemscore.ZeroCoef>
-5.4800

> <Gold.Chemscore.Hbond>
1.8952

> <Gold.Chemscore.Metal>
0.0000

> <Gold.Chemscore.Lipo>
63.4510

> <Gold.Chemscore.Internal_Hbond>
0.0000

> <Gold.Chemscore.DEClash>
0.0830

> <Gold.Chemscore.DEInternal>
0.9919

> <Gold.Chemscore.Rot>
1.3407

> <Gold.Chemscore.Internal.Correction>
   9.000000E+99

> <Gold.Chemscore.Hbonds>
donor molecule, donor type, donor heavy atom, donor atom, acceptor molecule, acceptor atom, score
      L1  H    12    25       P1  8028  0.70
      P1  H  7989  7998       L1     3  0.22
      P1  H  7997  8010       L1     5  0.09

> <Gold.Chemscore.Hbond.Weighted>
-6.3299

> <Gold.Chemscore.Metal.Weighted>
-0.0000

> <Gold.Chemscore.Lipo.Weighted>
-7.4238

> <Gold.Chemscore.Internal_Hbond.Weighted>
0.0000

> <Gold.Chemscore.DEClash.Weighted>
0.0830

> <Gold.Chemscore.DEInternal.Weighted>
0.9919

> <Gold.Chemscore.Rot.Weighted>
3.4323

> <Gold.Chemscore.Internal.Correction.Weighted>
   9.000000E+99

> <Gold.Protein.RotatedTorsions>
[ 6907 6896 6895 6894 ] final  142.38 input  -60.11 | X-H torsion
[ 7974 7965 7964 7962 ] final  -74.15 input  175.53 | X-H torsion
[ 8008 7997 7996 7995 ] final   67.54 input   59.86 | X-H torsion
[ 10167 10162 10161 10158 ] final  -59.10 input  -65.29 | X-H torsion
[ 10718 10713 10712 10709 ] final -173.56 input   66.30 | X-H torsion
[ 10763 10752 10751 10750 ] final -118.14 input  -60.55 | X-H torsion
[ 11005 11000 10999 10996 ] final    5.56 input  -57.11 | X-H torsion

> <Gold.Protein.ActiveResidues>
 VAL166  LYS551  ARG553  GLY616  TRP617  ASP618  TYR619  PRO620  LYS621  CYS622 
 ASP623  PHE694  ASN695  SER759  ASP760  ASP761  ALA762  ILE779  LEU786  VAL792 
 PHE793  MET794  SER795  GLU796  ALA797  LYS798  CYS799  TRP800  GLU811  SER814 

> <Gold.Protein.RotatedAtoms>
  152.2194  133.4972  159.5153 H   0  0  0  0  0  0  0  0  0  0  0  0  # atno 6907 bound_to 6896
  150.7009  134.1362  159.4097 H   0  0  0  0  0  0  0  0  0  0  0  0  # atno 6908 bound_to 6896
  151.9282  135.0268  160.0578 H   0  0  0  0  0  0  0  0  0  0  0  0  # atno 6909 bound_to 6896
  145.6428  140.9306  143.1026 H   0  0  0  0  0  0  0  0  0  0  0  0  # atno 7974 bound_to 7965
  155.6945  140.3496  155.4907 H   0  0  0  0  0  0  0  0  0  0  0  0  # atno 8008 bound_to 7997
  155.9495  140.1116  157.1011 H   0  0  0  0  0  0  0  0  0  0  0  0  # atno 8009 bound_to 7997
  154.4119  140.1197  156.5020 H   0  0  0  0  0  0  0  0  0  0  0  0  # atno 8010 bound_to 7997
  140.6156  143.2401  151.5605 H   0  0  0  0  0  0  0  0  0  0  0  0  # atno 10167 bound_to 10162
  156.7721  130.9452  151.3120 H   0  0  0  0  0  0  0  0  0  0  0  0  # atno 10718 bound_to 10713
  154.8578  135.4284  154.2092 H   0  0  0  0  0  0  0  0  0  0  0  0  # atno 10763 bound_to 10752
  153.3121  135.6976  153.7112 H   0  0  0  0  0  0  0  0  0  0  0  0  # atno 10764 bound_to 10752
  153.6200  135.3503  155.2981 H   0  0  0  0  0  0  0  0  0  0  0  0  # atno 10765 bound_to 10752
  140.5693  134.0118  155.8002 H   0  0  0  0  0  0  0  0  0  0  0  0  # atno 11005 bound_to 11000
  144.7151  139.8227  143.7401 LP  0  0  0  0  0  0  0  0  0  0  0  0  # atno 17320 bound_to 7965
  146.1267  139.4294  143.0194 LP  0  0  0  0  0  0  0  0  0  0  0  0  # atno 17321 bound_to 7965
  139.5396  144.2684  152.1323 LP  0  0  0  0  0  0  0  0  0  0  0  0  # atno 17342 bound_to 10162
  140.1893  144.4767  150.6487 LP  0  0  0  0  0  0  0  0  0  0  0  0  # atno 17343 bound_to 10162
  157.6686  130.9030  149.9988 LP  0  0  0  0  0  0  0  0  0  0  0  0  # atno 17370 bound_to 10713
  156.1271  130.3644  149.9791 LP  0  0  0  0  0  0  0  0  0  0  0  0  # atno 17371 bound_to 10713
  141.1066  133.9684  157.2986 LP  0  0  0  0  0  0  0  0  0  0  0  0  # atno 17394 bound_to 11000
  139.9369  135.0195  156.8586 LP  0  0  0  0  0  0  0  0  0  0  0  0  # atno 17395 bound_to 11000

$$$$
