AV-unprocessed.smi:1545|AV-procd|sdf|6216|dock2
  -GOLD-   22720 6383D 1   1.00000     0.00000
 Structure written by MMmdl.
 41 43  0  0  0  0  0  0  0  0  1 V2000
  151.7721  137.0168  155.5162 O   0  0  0  0  0  0  0  0  0  0  0  0
  151.7894  138.1204  154.6363 C   0  0  0  0  0  0  0  0  0  0  0  0
  151.2139  139.3641  155.3288 C   0  0  0  0  0  0  0  0  0  0  0  0
  151.7983  139.5791  156.6399 N   0  0  0  0  0  0  0  0  0  0  0  0
  151.8566  140.6968  157.4642 C   0  0  0  0  0  0  0  0  0  0  0  0
  151.3307  141.8801  157.1544 N   0  0  0  0  0  0  0  0  0  0  0  0
  151.6440  142.6401  158.2654 C   0  0  0  0  0  0  0  0  0  0  0  0
  151.3637  143.9939  158.5591 C   0  0  0  0  0  0  0  0  0  0  0  0
  151.7898  144.5633  159.7768 C   0  0  0  0  0  0  0  0  0  0  0  0
  152.5005  143.7893  160.7171 C   0  0  0  0  0  0  0  0  0  0  0  0
  152.7907  142.4384  160.4456 C   0  0  0  0  0  0  0  0  0  0  0  0
  152.3644  141.8742  159.2282 C   0  0  0  0  0  0  0  0  0  0  0  0
  152.4805  140.6078  158.6624 N   0  0  0  0  0  0  0  0  0  0  0  0
  153.1336  139.4451  159.2493 C   0  0  0  0  0  0  0  0  0  0  0  0
  154.5616  139.7550  159.7405 C   0  0  2  0  0  0  0  0  0  0  0  0
  155.5104  139.2124  158.8423 O   0  0  0  0  0  0  0  0  0  0  0  0
  154.7755  139.2721  161.1662 C   0  0  0  0  0  0  0  0  0  0  0  0
  155.3219  140.1462  162.1307 C   0  0  0  0  0  0  0  0  0  0  0  0
  155.5146  139.7103  163.4561 C   0  0  0  0  0  0  0  0  0  0  0  0
  155.1591  138.3990  163.8256 C   0  0  0  0  0  0  0  0  0  0  0  0
  154.6099  137.5236  162.8692 C   0  0  0  0  0  0  0  0  0  0  0  0
  154.2645  136.2636  163.2243 F   0  0  0  0  0  0  0  0  0  0  0  0
  154.4178  137.9585  161.5433 C   0  0  0  0  0  0  0  0  0  0  0  0
  150.9599  137.0288  155.9989 H   0  0  0  0  0  0  0  0  0  0  0  0
  152.7979  138.2952  154.2588 H   0  0  0  0  0  0  0  0  0  0  0  0
  151.1671  137.8611  153.7796 H   0  0  0  0  0  0  0  0  0  0  0  0
  151.4463  140.2458  154.7313 H   0  0  0  0  0  0  0  0  0  0  0  0
  150.1266  139.3123  155.3993 H   0  0  0  0  0  0  0  0  0  0  0  0
  152.2080  138.7467  157.0378 H   0  0  0  0  0  0  0  0  0  0  0  0
  150.8193  144.5946  157.8455 H   0  0  0  0  0  0  0  0  0  0  0  0
  151.5697  145.5989  159.9900 H   0  0  0  0  0  0  0  0  0  0  0  0
  152.8228  144.2332  161.6475 H   0  0  0  0  0  0  0  0  0  0  0  0
  153.3334  141.8439  161.1652 H   0  0  0  0  0  0  0  0  0  0  0  0
  152.5196  139.0850  160.0758 H   0  0  0  0  0  0  0  0  0  0  0  0
  153.1487  138.6412  158.5127 H   0  0  0  0  0  0  0  0  0  0  0  0
  154.7122  140.8352  159.7271 H   0  0  0  0  0  0  0  0  0  0  0  0
  156.2915  138.9930  159.3263 H   0  0  0  0  0  0  0  0  0  0  0  0
  155.5948  141.1552  161.8581 H   0  0  0  0  0  0  0  0  0  0  0  0
  155.9339  140.3826  164.1900 H   0  0  0  0  0  0  0  0  0  0  0  0
  155.3059  138.0659  164.8423 H   0  0  0  0  0  0  0  0  0  0  0  0
  153.9925  137.2805  160.8179 H   0  0  0  0  0  0  0  0  0  0  0  0
  1  2  1  0  0  0  0
  1 24  1  0  0  0  0
  2  3  1  0  0  0  0
  2 25  1  0  0  0  0
  2 26  1  0  0  0  0
  3  4  1  0  0  0  0
  3 27  1  0  0  0  0
  3 28  1  0  0  0  0
  4  5  1  0  0  0  0
  4 29  1  0  0  0  0
  5 13  1  0  0  0  0
  5  6  2  0  0  0  0
  6  7  1  0  0  0  0
  7 12  2  0  0  0  0
  7  8  1  0  0  0  0
  8  9  2  0  0  0  0
  8 30  1  0  0  0  0
  9 10  1  0  0  0  0
  9 31  1  0  0  0  0
 10 11  2  0  0  0  0
 10 32  1  0  0  0  0
 11 12  1  0  0  0  0
 11 33  1  0  0  0  0
 12 13  1  0  0  0  0
 13 14  1  0  0  0  0
 14 15  1  0  0  0  0
 14 34  1  0  0  0  0
 14 35  1  0  0  0  0
 15 16  1  0  0  0  0
 15 17  1  0  0  0  0
 15 36  1  0  0  0  0
 16 37  1  0  0  0  0
 17 23  1  0  0  0  0
 17 18  2  0  0  0  0
 18 19  1  0  0  0  0
 18 38  1  0  0  0  0
 19 20  2  0  0  0  0
 19 39  1  0  0  0  0
 20 21  1  0  0  0  0
 20 40  1  0  0  0  0
 21 22  1  0  0  0  0
 21 23  2  0  0  0  0
 23 41  1  0  0  0  0
M  END
> <s_m_source_file>
AV-unprocessed.smi

> <i_m_source_file_index>
1545

> <i_lp_mmshare_version>
43012

> <i_f3d_flags>
0

> <s_epik_input>
W09IXVtDSDJdW0NIMl1bTkhdYyhuMSluKGMoYzEyKVtjSF1bY0hdW2NIXVtjSF0yKVtDSDJdW0NASF0oW09IXSljM1tjSF1bY0hdW2NIXWMoRilbY0hdMw==

> <s_epik_cmdline>
J2VwaWtfcHl0aG9uJywgJy1waCcsICc3LjAnLCAnLXRuJywgJzgnLCAnLW1hJywgJzIwMCcsICctbWV0YWxfYmluZGluZycsICctaW1hZScsICc8aW5maWxlLm1hZT4nLCAnLW9tYWUnLCAnPG91dGZpbGUubWFlPic=

> <r_epik_Ionization_Penalty>
1.30972

> <r_epik_Ionization_Penalty_Charging>
0

> <r_epik_Ionization_Penalty_Neutral>
1.30972

> <r_epik_State_Penalty>
1.38438

> <r_epik_Charging_Adjusted_Penalty>
1.38438

> <i_epik_Tot_Q>
0

> <i_epik_Tot_abs_Q>
0

> <r_epik_Metal_State_Penalty>
0.00551145

> <b_epik_Metal_Only>
0

> <s_lp_Force_Field>
OPLS_2005

> <r_lp_Energy>
9.7293

> <b_lp_Chiralities_Consistent>
1

> <s_lp_Variant>
AV-unprocessed.smi:1545-3

> <Gold.Version>
5.8.1

> <Gold.Id.Protein>
6NUR|6NUR_protein|mol2

> <Gold.PLP.Fitness>
51.9476

> <Gold.PLP.PLP>
-48.2898

> <Gold.PLP.part.hbond>
-2.0000

> <Gold.PLP.part.metal>
0.0000

> <Gold.PLP.part.buried>
-4.7780

> <Gold.PLP.part.nonpolar>
-41.4252

> <Gold.PLP.part.repulsive>
0.1678

> <Gold.PLP.ligand.clash>
0.0000

> <Gold.PLP.ligand.torsion>
1.1801

> <Gold.PLP.Chemscore.Hbond>
1.9920

> <Gold.PLP.Chemscore.CHOScore>
0.0000

> <Gold.PLP.Chemscore.Metal>
0.0000

> <Gold.Chemscore.Hbonds>
donor molecule, donor type, donor heavy atom, donor atom, acceptor molecule, acceptor atom, score
      P1  H  7997  8010       L1    16  1.00
      P1  H 10752 10764       L1     1  0.96

> <Gold.PLP.Chemscore.Internal.Correction>
0.0419

> <Gold.Rescore>
     Score         DG    S(hbond)    S(metal)    S(lipo)     H(rot)  DE(clash)    DE(int)     intcor
     17.86     -18.93       1.81        0.00     130.71       3.08       0.01       1.06       ----

> <Gold.Chemscore.Fitness>
17.8562

> <Gold.Chemscore.DG>
-18.9284

> <Gold.Chemscore.ZeroCoef>
-5.4800

> <Gold.Chemscore.Hbond>
1.8092

> <Gold.Chemscore.Metal>
0.0000

> <Gold.Chemscore.Lipo>
130.7149

> <Gold.Chemscore.Internal_Hbond>
0.0000

> <Gold.Chemscore.DEClash>
0.0106

> <Gold.Chemscore.DEInternal>
1.0616

> <Gold.Chemscore.Rot>
3.0812

> <Gold.Chemscore.Internal.Correction>
   9.000000E+99

> <Gold.Chemscore.Hbonds>
donor molecule, donor type, donor heavy atom, donor atom, acceptor molecule, acceptor atom, score
      P1  H  7997  8010       L1    16  0.88
      P1  H 10752 10764       L1     1  0.68

> <Gold.Chemscore.Hbond.Weighted>
-6.0426

> <Gold.Chemscore.Metal.Weighted>
-0.0000

> <Gold.Chemscore.Lipo.Weighted>
-15.2936

> <Gold.Chemscore.Internal_Hbond.Weighted>
0.0000

> <Gold.Chemscore.DEClash.Weighted>
0.0106

> <Gold.Chemscore.DEInternal.Weighted>
1.0616

> <Gold.Chemscore.Rot.Weighted>
7.8878

> <Gold.Chemscore.Internal.Correction.Weighted>
   9.000000E+99

> <Gold.Protein.RotatedTorsions>
[ 6907 6896 6895 6894 ] final  -31.93 input  -60.11 | X-H torsion
[ 7974 7965 7964 7962 ] final -178.07 input  175.53 | X-H torsion
[ 8008 7997 7996 7995 ] final  -30.34 input   59.86 | X-H torsion
[ 10167 10162 10161 10158 ] final   49.69 input  -65.29 | X-H torsion
[ 10718 10713 10712 10709 ] final  109.76 input   66.30 | X-H torsion
[ 10763 10752 10751 10750 ] final  -40.75 input  -60.55 | X-H torsion
[ 11005 11000 10999 10996 ] final   56.02 input  -57.11 | X-H torsion

> <Gold.Protein.ActiveResidues>
 VAL166  LYS551  ARG553  GLY616  TRP617  ASP618  TYR619  PRO620  LYS621  CYS622 
 ASP623  PHE694  ASN695  SER759  ASP760  ASP761  ALA762  ILE779  LEU786  VAL792 
 PHE793  MET794  SER795  GLU796  ALA797  LYS798  CYS799  TRP800  GLU811  SER814 

> <Gold.Protein.RotatedAtoms>
  151.0854  134.9884  159.8376 H   0  0  0  0  0  0  0  0  0  0  0  0  # atno 6907 bound_to 6896
  152.5424  134.2130  159.8767 H   0  0  0  0  0  0  0  0  0  0  0  0  # atno 6908 bound_to 6896
  151.2163  133.4484  159.2633 H   0  0  0  0  0  0  0  0  0  0  0  0  # atno 6909 bound_to 6896
  144.7129  140.0924  143.6420 H   0  0  0  0  0  0  0  0  0  0  0  0  # atno 7974 bound_to 7965
  154.4254  140.1794  156.1392 H   0  0  0  0  0  0  0  0  0  0  0  0  # atno 8008 bound_to 7997
  156.0005  140.3360  155.6816 H   0  0  0  0  0  0  0  0  0  0  0  0  # atno 8009 bound_to 7997
  155.6249  140.0663  157.2657 H   0  0  0  0  0  0  0  0  0  0  0  0  # atno 8010 bound_to 7997
  140.2802  144.3165  150.6266 H   0  0  0  0  0  0  0  0  0  0  0  0  # atno 10167 bound_to 10162
  157.6526  131.0920  150.6501 H   0  0  0  0  0  0  0  0  0  0  0  0  # atno 10718 bound_to 10713
  153.9511  135.6750  153.4744 H   0  0  0  0  0  0  0  0  0  0  0  0  # atno 10763 bound_to 10752
  153.0884  135.4887  154.8639 H   0  0  0  0  0  0  0  0  0  0  0  0  # atno 10764 bound_to 10752
  154.7325  135.3141  154.8827 H   0  0  0  0  0  0  0  0  0  0  0  0  # atno 10765 bound_to 10752
  140.0562  134.5667  155.9205 H   0  0  0  0  0  0  0  0  0  0  0  0  # atno 11005 bound_to 11000
  145.9609  139.2800  143.1156 LP  0  0  0  0  0  0  0  0  0  0  0  0  # atno 17320 bound_to 7965
  145.9222  140.9107  143.0399 LP  0  0  0  0  0  0  0  0  0  0  0  0  # atno 17321 bound_to 7965
  140.5818  143.2172  151.7415 LP  0  0  0  0  0  0  0  0  0  0  0  0  # atno 17342 bound_to 10162
  139.4964  144.4069  152.0122 LP  0  0  0  0  0  0  0  0  0  0  0  0  # atno 17343 bound_to 10162
  156.6811  130.4567  149.5627 LP  0  0  0  0  0  0  0  0  0  0  0  0  # atno 17370 bound_to 10713
  156.1928  130.6571  151.1081 LP  0  0  0  0  0  0  0  0  0  0  0  0  # atno 17371 bound_to 10713
  141.1953  133.6586  156.5636 LP  0  0  0  0  0  0  0  0  0  0  0  0  # atno 17394 bound_to 11000
  140.3841  134.7498  157.4680 LP  0  0  0  0  0  0  0  0  0  0  0  0  # atno 17395 bound_to 11000

$$$$
