AV-unprocessed.smi:2390|AV-procd|sdf|9478|dock6
  -GOLD-   2272013103D 1   1.00000     0.00000
 Structure written by MMmdl.
 46 47  0  0  0  0  0  0  0  0  2 V2000
  152.7684  142.9607  162.3309 C   0  0  0  0  0  0  0  0  0  0  0  0
  152.4166  143.4380  160.9376 C   0  0  0  0  0  0  0  0  0  0  0  0
  153.4047  143.5559  159.9406 C   0  0  0  0  0  0  0  0  0  0  0  0
  153.0110  144.0007  158.6659 C   0  0  0  0  0  0  0  0  0  0  0  0
  151.6546  144.3049  158.4414 C   0  0  0  0  0  0  0  0  0  0  0  0
  150.7263  144.1607  159.4967 C   0  0  0  0  0  0  0  0  0  0  0  0
  149.3834  144.4834  159.1660 N   0  0  0  0  0  0  0  0  0  0  0  0
  148.2838  144.3299  159.9239 C   0  0  0  0  0  0  0  0  0  0  0  0
  148.2699  143.9333  161.0898 O   0  0  0  0  0  0  0  0  0  0  0  0
  147.1759  144.6714  159.2488 N   0  0  0  0  0  0  0  0  0  0  0  0
  145.8137  144.6299  159.7808 C   0  0  1  0  0  0  0  0  0  0  0  0
  145.8277  145.1913  161.2137 C   0  0  0  0  0  0  0  0  0  0  0  0
  144.7930  145.3547  158.8439 C   0  0  2  0  0  0  0  0  0  0  0  0
  144.3894  144.4538  157.6486 C   0  0  0  0  0  0  0  0  0  0  0  0
  145.2745  146.7093  158.4081 N   0  3  0  0  0  0  0  0  0  0  0  0
  144.5866  147.2410  157.1975 C   0  0  0  0  0  0  0  0  0  0  0  0
  145.1303  148.6234  156.7989 C   0  0  0  0  0  0  0  0  0  0  0  0
  145.0015  149.5241  157.8871 O   0  0  0  0  0  0  0  0  0  0  0  0
  145.7614  149.0909  159.0037 C   0  0  0  0  0  0  0  0  0  0  0  0
  145.2358  147.7310  159.4921 C   0  0  0  0  0  0  0  0  0  0  0  0
  151.1158  143.7312  160.7229 N   0  0  0  0  0  0  0  0  0  0  0  0
  153.8483  142.8872  162.4625 H   0  0  0  0  0  0  0  0  0  0  0  0
  152.3345  141.9772  162.5137 H   0  0  0  0  0  0  0  0  0  0  0  0
  152.3823  143.6522  163.0804 H   0  0  0  0  0  0  0  0  0  0  0  0
  154.4372  143.3123  160.1437 H   0  0  0  0  0  0  0  0  0  0  0  0
  153.7361  144.1056  157.8724 H   0  0  0  0  0  0  0  0  0  0  0  0
  151.3354  144.6460  157.4671 H   0  0  0  0  0  0  0  0  0  0  0  0
  149.2442  144.8590  158.2398 H   0  0  0  0  0  0  0  0  0  0  0  0
  147.2811  144.9887  158.2960 H   0  0  0  0  0  0  0  0  0  0  0  0
  145.5674  143.5711  159.8492 H   0  0  0  0  0  0  0  0  0  0  0  0
  144.8456  145.1210  161.6813 H   0  0  0  0  0  0  0  0  0  0  0  0
  146.1327  146.2378  161.2351 H   0  0  0  0  0  0  0  0  0  0  0  0
  146.5237  144.6350  161.8429 H   0  0  0  0  0  0  0  0  0  0  0  0
  143.8819  145.5284  159.4183 H   0  0  0  0  0  0  0  0  0  0  0  0
  144.1259  143.4445  157.9625 H   0  0  0  0  0  0  0  0  0  0  0  0
  145.1951  144.3692  156.9190 H   0  0  0  0  0  0  0  0  0  0  0  0
  143.5066  144.8332  157.1342 H   0  0  0  0  0  0  0  0  0  0  0  0
  144.7327  146.5812  156.3436 H   0  0  0  0  0  0  0  0  0  0  0  0
  143.5133  147.3009  157.3848 H   0  0  0  0  0  0  0  0  0  0  0  0
  146.1732  148.5566  156.4846 H   0  0  0  0  0  0  0  0  0  0  0  0
  144.5692  149.0157  155.9507 H   0  0  0  0  0  0  0  0  0  0  0  0
  146.8191  149.0297  158.7420 H   0  0  0  0  0  0  0  0  0  0  0  0
  145.6741  149.8332  159.7973 H   0  0  0  0  0  0  0  0  0  0  0  0
  144.2134  147.8369  159.8587 H   0  0  0  0  0  0  0  0  0  0  0  0
  145.8519  147.4342  160.3379 H   0  0  0  0  0  0  0  0  0  0  0  0
  146.2453  146.5972  158.1527 H   0  0  0  0  0  0  0  0  0  0  0  0
  1  2  1  0  0  0  0
  1 22  1  0  0  0  0
  1 23  1  0  0  0  0
  1 24  1  0  0  0  0
  2 21  1  0  0  0  0
  2  3  2  0  0  0  0
  3  4  1  0  0  0  0
  3 25  1  0  0  0  0
  4  5  2  0  0  0  0
  4 26  1  0  0  0  0
  5  6  1  0  0  0  0
  5 27  1  0  0  0  0
  6  7  1  0  0  0  0
  6 21  2  0  0  0  0
  7  8  1  0  0  0  0
  7 28  1  0  0  0  0
  8  9  2  0  0  0  0
  8 10  1  0  0  0  0
 10 11  1  0  0  0  0
 10 29  1  0  0  0  0
 11 12  1  0  0  0  0
 11 13  1  0  0  0  0
 11 30  1  0  0  0  0
 12 31  1  0  0  0  0
 12 32  1  0  0  0  0
 12 33  1  0  0  0  0
 13 14  1  0  0  0  0
 13 15  1  0  0  0  0
 13 34  1  0  0  0  0
 14 35  1  0  0  0  0
 14 36  1  0  0  0  0
 14 37  1  0  0  0  0
 15 20  1  0  0  0  0
 15 16  1  0  0  0  0
 15 46  1  0  0  0  0
 16 17  1  0  0  0  0
 16 38  1  0  0  0  0
 16 39  1  0  0  0  0
 17 18  1  0  0  0  0
 17 40  1  0  0  0  0
 17 41  1  0  0  0  0
 18 19  1  0  0  0  0
 19 20  1  0  0  0  0
 19 42  1  0  0  0  0
 19 43  1  0  0  0  0
 20 44  1  0  0  0  0
 20 45  1  0  0  0  0
M  CHG  1  15   1
M  END
> <s_m_source_file>
AV-unprocessed.smi

> <i_m_source_file_index>
2390

> <i_lp_mmshare_version>
43012

> <i_f3d_flags>
0

> <s_epik_input>
W0NIM11jMVtjSF1bY0hdW2NIXWMobjEpW05IXUMoPU8pW05IXVtDQEhdKFtDSDNdKVtDQEhdKFtDSDNdKU4yW0NIMl1bQ0gyXU9bQ0gyXVtDSDJdMg==

> <s_epik_cmdline>
J2VwaWtfcHl0aG9uJywgJy1waCcsICc3LjAnLCAnLXRuJywgJzgnLCAnLW1hJywgJzIwMCcsICctbWV0YWxfYmluZGluZycsICctaW1hZScsICc8aW5maWxlLm1hZT4nLCAnLW9tYWUnLCAnPG91dGZpbGUubWFlPic=

> <r_epik_Ionization_Penalty>
0.60259

> <r_epik_Ionization_Penalty_Charging>
0.602531

> <r_epik_Ionization_Penalty_Neutral>
5.9516e-05

> <r_epik_State_Penalty>
0.617039

> <r_epik_Charging_Adjusted_Penalty>
1.21957

> <i_epik_Tot_Q>
1

> <i_epik_Tot_abs_Q>
1

> <r_epik_Metal_State_Penalty>
0.617047

> <b_epik_Metal_Only>
0

> <s_lp_Force_Field>
OPLS_2005

> <r_lp_Energy>
24.4942

> <b_lp_Chiralities_Consistent>
1

> <s_lp_Variant>
AV-unprocessed.smi:2390-6

> <Gold.Version>
5.8.1

> <Gold.Id.Protein>
6NUR|6NUR_protein|mol2

> <Gold.PLP.Fitness>
56.8466

> <Gold.PLP.PLP>
-44.6631

> <Gold.PLP.part.hbond>
-4.4121

> <Gold.PLP.part.metal>
0.0000

> <Gold.PLP.part.buried>
-5.9209

> <Gold.PLP.part.nonpolar>
-35.7073

> <Gold.PLP.part.repulsive>
0.6063

> <Gold.PLP.ligand.clash>
0.0003

> <Gold.PLP.ligand.torsion>
0.8458

> <Gold.PLP.Chemscore.Hbond>
4.5877

> <Gold.PLP.Chemscore.CHOScore>
0.0000

> <Gold.PLP.Chemscore.Metal>
0.0000

> <Gold.Chemscore.Hbonds>
donor molecule, donor type, donor heavy atom, donor atom, acceptor molecule, acceptor atom, score
      L1  H     7    28       P1  8029  0.78
      L1  H    10    29       P1  8029  0.96
      L1  H    15    46       P1  8029  2.00
      P1  H  6933  6944       L1     9  1.00

> <Gold.PLP.Chemscore.Internal.Correction>
0.1121

> <Gold.Rescore>
     Score         DG    S(hbond)    S(metal)    S(lipo)     H(rot)  DE(clash)    DE(int)     intcor
     20.39     -25.22       3.23        0.00     108.94       1.48       1.03       3.80       ----

> <Gold.Chemscore.Fitness>
20.3941

> <Gold.Chemscore.DG>
-25.2231

> <Gold.Chemscore.ZeroCoef>
-5.4800

> <Gold.Chemscore.Hbond>
3.2328

> <Gold.Chemscore.Metal>
0.0000

> <Gold.Chemscore.Lipo>
108.9360

> <Gold.Chemscore.Internal_Hbond>
0.0000

> <Gold.Chemscore.DEClash>
1.0280

> <Gold.Chemscore.DEInternal>
3.8010

> <Gold.Chemscore.Rot>
1.4844

> <Gold.Chemscore.Internal.Correction>
   9.000000E+99

> <Gold.Chemscore.Hbonds>
donor molecule, donor type, donor heavy atom, donor atom, acceptor molecule, acceptor atom, score
      L1  H     7    28       P1  8029  0.30
      L1  H    10    29       P1  8029  0.85
      L1  H    15    46       P1  8029  1.00
      P1  H  6933  6944       L1     9  0.96

> <Gold.Chemscore.Hbond.Weighted>
-10.7975

> <Gold.Chemscore.Metal.Weighted>
-0.0000

> <Gold.Chemscore.Lipo.Weighted>
-12.7455

> <Gold.Chemscore.Internal_Hbond.Weighted>
0.0000

> <Gold.Chemscore.DEClash.Weighted>
1.0280

> <Gold.Chemscore.DEInternal.Weighted>
3.8010

> <Gold.Chemscore.Rot.Weighted>
3.8000

> <Gold.Chemscore.Internal.Correction.Weighted>
   9.000000E+99

> <Gold.Protein.RotatedTorsions>
[ 6907 6896 6895 6894 ] final  -13.70 input  -60.11 | X-H torsion
[ 7974 7965 7964 7962 ] final -176.47 input  175.53 | X-H torsion
[ 8008 7997 7996 7995 ] final  102.27 input   59.86 | X-H torsion
[ 10167 10162 10161 10158 ] final -161.73 input  -65.29 | X-H torsion
[ 10718 10713 10712 10709 ] final  -83.56 input   66.30 | X-H torsion
[ 10763 10752 10751 10750 ] final  150.49 input  -60.55 | X-H torsion
[ 11005 11000 10999 10996 ] final  -19.52 input  -57.11 | X-H torsion

> <Gold.Protein.ActiveResidues>
 VAL166  LYS551  ARG553  GLY616  TRP617  ASP618  TYR619  PRO620  LYS621  CYS622 
 ASP623  PHE694  ASN695  SER759  ASP760  ASP761  ALA762  ILE779  LEU786  VAL792 
 PHE793  MET794  SER795  GLU796  ALA797  LYS798  CYS799  TRP800  GLU811  SER814 

> <Gold.Protein.RotatedAtoms>
  151.3508  135.0884  159.9401 H   0  0  0  0  0  0  0  0  0  0  0  0  # atno 6907 bound_to 6896
  152.5188  133.9354  159.7611 H   0  0  0  0  0  0  0  0  0  0  0  0  # atno 6908 bound_to 6896
  150.9729  133.6271  159.2764 H   0  0  0  0  0  0  0  0  0  0  0  0  # atno 6909 bound_to 6896
  144.7127  140.1165  143.6408 H   0  0  0  0  0  0  0  0  0  0  0  0  # atno 7974 bound_to 7965
  156.1377  140.3184  155.8446 H   0  0  0  0  0  0  0  0  0  0  0  0  # atno 8008 bound_to 7997
  155.4213  140.0512  157.3042 H   0  0  0  0  0  0  0  0  0  0  0  0  # atno 8009 bound_to 7997
  154.4950  140.2107  155.9478 H   0  0  0  0  0  0  0  0  0  0  0  0  # atno 8010 bound_to 7997
  139.6443  144.0201  152.2116 H   0  0  0  0  0  0  0  0  0  0  0  0  # atno 10167 bound_to 10162
  156.0017  130.4670  150.4277 H   0  0  0  0  0  0  0  0  0  0  0  0  # atno 10718 bound_to 10713
  154.0883  135.2854  155.3277 H   0  0  0  0  0  0  0  0  0  0  0  0  # atno 10763 bound_to 10752
  154.6637  135.5325  153.8054 H   0  0  0  0  0  0  0  0  0  0  0  0  # atno 10764 bound_to 10752
  153.0423  135.6540  154.1053 H   0  0  0  0  0  0  0  0  0  0  0  0  # atno 10765 bound_to 10752
  140.8375  133.7951  155.9824 H   0  0  0  0  0  0  0  0  0  0  0  0  # atno 11005 bound_to 11000
  145.9409  139.2668  143.1269 LP  0  0  0  0  0  0  0  0  0  0  0  0  # atno 17320 bound_to 7965
  145.9425  140.8969  143.0300 LP  0  0  0  0  0  0  0  0  0  0  0  0  # atno 17321 bound_to 7965
  139.9898  144.6369  150.7824 LP  0  0  0  0  0  0  0  0  0  0  0  0  # atno 17342 bound_to 10162
  140.7507  143.2959  151.3205 LP  0  0  0  0  0  0  0  0  0  0  0  0  # atno 17343 bound_to 10162
  157.2328  131.0508  151.2482 LP  0  0  0  0  0  0  0  0  0  0  0  0  # atno 17370 bound_to 10713
  157.3695  130.7173  149.6555 LP  0  0  0  0  0  0  0  0  0  0  0  0  # atno 17371 bound_to 10713
  140.8932  134.2470  157.5083 LP  0  0  0  0  0  0  0  0  0  0  0  0  # atno 17394 bound_to 11000
  139.8704  134.9671  156.4586 LP  0  0  0  0  0  0  0  0  0  0  0  0  # atno 17395 bound_to 11000

$$$$
