AV-unprocessed.smi:2032|AV-procd|sdf|8246|dock1
  -GOLD-   2272010513D 1   1.00000     0.00000
 Structure written by MMmdl.
 41 42  0  0  0  0  0  0  0  0  2 V2000
  152.5786  144.0015  158.9374 C   0  0  0  0  0  0  0  0  0  0  0  0
  152.2819  142.5753  159.4129 C   0  0  1  0  0  0  0  0  0  0  0  0
  151.7122  141.6933  158.2854 C   0  0  0  0  0  0  0  0  0  0  0  0
  151.4955  140.3029  158.6996 N   0  0  0  0  0  0  0  0  0  0  0  0
  150.9637  139.4616  157.6011 C   0  0  2  0  0  0  0  0  0  0  0  0
  149.7559  140.1142  156.8809 C   0  0  0  0  0  0  0  0  0  0  0  0
  150.5649  138.0278  158.0604 C   0  0  0  0  0  0  0  0  0  0  0  0
  149.4806  138.0042  159.0395 N   0  0  0  0  0  0  0  0  0  0  0  0
  148.8442  136.9117  159.4863 C   0  0  0  0  0  0  0  0  0  0  0  0
  149.1697  135.7968  159.0718 O   0  0  0  0  0  0  0  0  0  0  0  0
  147.8676  137.1816  160.3822 N   0  5  0  0  0  0  0  0  0  0  0  0
  147.2578  136.1806  161.0377 C   0  0  0  0  0  0  0  0  0  0  0  0
  147.7042  134.9193  161.0216 N   0  0  0  0  0  0  0  0  0  0  0  0
  146.9262  134.0452  161.7828 C   0  0  0  0  0  0  0  0  0  0  0  0
  145.8677  134.6568  162.4005 C   0  0  0  0  0  0  0  0  0  0  0  0
  145.8149  136.3590  162.0401 S   0  0  0  0  0  0  0  0  0  0  0  0
  152.7579  139.7939  159.2459 C   0  0  0  0  0  0  0  0  0  0  0  0
  153.3226  140.6791  160.3735 C   0  0  1  0  0  0  0  0  0  0  0  0
  154.6768  140.1742  160.8830 C   0  0  0  0  0  0  0  0  0  0  0  0
  153.4946  142.0039  159.8867 O   0  0  0  0  0  0  0  0  0  0  0  0
  151.6754  144.4887  158.5690 H   0  0  0  0  0  0  0  0  0  0  0  0
  153.3132  144.0038  158.1315 H   0  0  0  0  0  0  0  0  0  0  0  0
  152.9753  144.6086  159.7514 H   0  0  0  0  0  0  0  0  0  0  0  0
  151.5665  142.6230  160.2358 H   0  0  0  0  0  0  0  0  0  0  0  0
  150.7758  142.1482  157.9683 H   0  0  0  0  0  0  0  0  0  0  0  0
  152.3842  141.7200  157.4262 H   0  0  0  0  0  0  0  0  0  0  0  0
  151.7530  139.3507  156.8561 H   0  0  0  0  0  0  0  0  0  0  0  0
  149.3430  139.4768  156.1000 H   0  0  0  0  0  0  0  0  0  0  0  0
  150.0253  141.0389  156.3734 H   0  0  0  0  0  0  0  0  0  0  0  0
  148.9515  140.3355  157.5829 H   0  0  0  0  0  0  0  0  0  0  0  0
  150.2426  137.4072  157.2252 H   0  0  0  0  0  0  0  0  0  0  0  0
  151.4267  137.5270  158.5020 H   0  0  0  0  0  0  0  0  0  0  0  0
  149.1809  138.8951  159.4073 H   0  0  0  0  0  0  0  0  0  0  0  0
  147.2017  133.0023  161.8316 H   0  0  0  0  0  0  0  0  0  0  0  0
  145.1214  134.2142  163.0425 H   0  0  0  0  0  0  0  0  0  0  0  0
  152.6199  138.7999  159.6661 H   0  0  0  0  0  0  0  0  0  0  0  0
  153.4952  139.7023  158.4466 H   0  0  0  0  0  0  0  0  0  0  0  0
  152.6204  140.6969  161.2090 H   0  0  0  0  0  0  0  0  0  0  0  0
  154.5932  139.1622  161.2798 H   0  0  0  0  0  0  0  0  0  0  0  0
  155.0559  140.8136  161.6805 H   0  0  0  0  0  0  0  0  0  0  0  0
  155.4190  140.1608  160.0842 H   0  0  0  0  0  0  0  0  0  0  0  0
  1  2  1  0  0  0  0
  1 21  1  0  0  0  0
  1 22  1  0  0  0  0
  1 23  1  0  0  0  0
  2 20  1  0  0  0  0
  2  3  1  0  0  0  0
  2 24  1  0  0  0  0
  3  4  1  0  0  0  0
  3 25  1  0  0  0  0
  3 26  1  0  0  0  0
  4  5  1  0  0  0  0
  4 17  1  0  0  0  0
  5  6  1  0  0  0  0
  5  7  1  0  0  0  0
  5 27  1  0  0  0  0
  6 28  1  0  0  0  0
  6 29  1  0  0  0  0
  6 30  1  0  0  0  0
  7  8  1  0  0  0  0
  7 31  1  0  0  0  0
  7 32  1  0  0  0  0
  8  9  1  0  0  0  0
  8 33  1  0  0  0  0
  9 10  2  0  0  0  0
  9 11  1  0  0  0  0
 11 12  1  0  0  0  0
 12 16  1  0  0  0  0
 12 13  2  0  0  0  0
 13 14  1  0  0  0  0
 14 15  2  0  0  0  0
 14 34  1  0  0  0  0
 15 16  1  0  0  0  0
 15 35  1  0  0  0  0
 17 18  1  0  0  0  0
 17 36  1  0  0  0  0
 17 37  1  0  0  0  0
 18 19  1  0  0  0  0
 18 20  1  0  0  0  0
 18 38  1  0  0  0  0
 19 39  1  0  0  0  0
 19 40  1  0  0  0  0
 19 41  1  0  0  0  0
M  CHG  1  11  -1
M  END
> <s_m_source_file>
AV-unprocessed.smi

> <i_m_source_file_index>
2032

> <i_lp_mmshare_version>
43012

> <i_f3d_flags>
0

> <s_epik_input>
W0NIM11bQ0BASF0xW0NIMl1OKFtDSDJdW0NASF0oTzEpW0NIM10pW0NASF0oW0NIM10pW0NIMl1bTkhdQyg9TylbTkhdYzJuW2NIXVtjSF1zMg==

> <s_epik_cmdline>
J2VwaWtfcHl0aG9uJywgJy1waCcsICc3LjAnLCAnLXRuJywgJzgnLCAnLW1hJywgJzIwMCcsICctbWV0YWxfYmluZGluZycsICctaW1hZScsICc8aW5maWxlLm1hZT4nLCAnLW9tYWUnLCAnPG91dGZpbGUubWFlPic=

> <r_lp_tautomer_probability>
0.999

> <r_epik_Ionization_Penalty>
7.22375

> <r_epik_Ionization_Penalty_Charging>
5.82415

> <r_epik_Ionization_Penalty_Neutral>
1.39959

> <r_epik_State_Penalty>
6.03347

> <r_epik_Charging_Adjusted_Penalty>
11.8576

> <i_epik_Tot_Q>
-1

> <i_epik_Tot_abs_Q>
1

> <r_epik_Metal_State_Penalty>
2.01024

> <b_epik_Metal_Only>
1

> <s_lp_Force_Field>
OPLS_2005

> <r_lp_Energy>
22.7494

> <b_lp_Chiralities_Consistent>
1

> <s_lp_Variant>
AV-unprocessed.smi:2032-16

> <Gold.Version>
5.8.1

> <Gold.Id.Protein>
6NUR|6NUR_protein|mol2

> <Gold.PLP.Fitness>
48.6465

> <Gold.PLP.PLP>
-36.8750

> <Gold.PLP.part.hbond>
-3.0000

> <Gold.PLP.part.metal>
0.0000

> <Gold.PLP.part.buried>
-5.5448

> <Gold.PLP.part.nonpolar>
-29.7785

> <Gold.PLP.part.repulsive>
0.4417

> <Gold.PLP.ligand.clash>
0.0000

> <Gold.PLP.ligand.torsion>
0.1470

> <Gold.PLP.Chemscore.Hbond>
3.9631

> <Gold.PLP.Chemscore.CHOScore>
0.0000

> <Gold.PLP.Chemscore.Metal>
0.0000

> <Gold.Chemscore.Hbonds>
donor molecule, donor type, donor heavy atom, donor atom, acceptor molecule, acceptor atom, score
      P1  H  6896  6908       L1    10  0.93
      P1  H  6931  6943       L1    11  0.87
      P1  H  6934  6947       L1    11  1.65

> <Gold.PLP.Chemscore.Internal.Correction>
0.1762

> <Gold.Rescore>
     Score         DG    S(hbond)    S(metal)    S(lipo)     H(rot)  DE(clash)    DE(int)     intcor
     16.27     -18.14       1.72        0.00      92.70       1.54       0.03       1.84       ----

> <Gold.Chemscore.Fitness>
16.2718

> <Gold.Chemscore.DG>
-18.1352

> <Gold.Chemscore.ZeroCoef>
-5.4800

> <Gold.Chemscore.Hbond>
1.7244

> <Gold.Chemscore.Metal>
0.0000

> <Gold.Chemscore.Lipo>
92.6999

> <Gold.Chemscore.Internal_Hbond>
0.0000

> <Gold.Chemscore.DEClash>
0.0254

> <Gold.Chemscore.DEInternal>
1.8380

> <Gold.Chemscore.Rot>
1.5431

> <Gold.Chemscore.Internal.Correction>
   9.000000E+99

> <Gold.Chemscore.Hbonds>
donor molecule, donor type, donor heavy atom, donor atom, acceptor molecule, acceptor atom, score
      P1  H  6896  6908       L1    10  0.82
      P1  H  6931  6943       L1    11  0.06
      P1  H  6934  6947       L1    11  0.66

> <Gold.Chemscore.Hbond.Weighted>
-5.7595

> <Gold.Chemscore.Metal.Weighted>
-0.0000

> <Gold.Chemscore.Lipo.Weighted>
-10.8459

> <Gold.Chemscore.Internal_Hbond.Weighted>
0.0000

> <Gold.Chemscore.DEClash.Weighted>
0.0254

> <Gold.Chemscore.DEInternal.Weighted>
1.8380

> <Gold.Chemscore.Rot.Weighted>
3.9503

> <Gold.Chemscore.Internal.Correction.Weighted>
   9.000000E+99

> <Gold.Protein.RotatedTorsions>
[ 6907 6896 6895 6894 ] final -161.36 input  -60.11 | X-H torsion
[ 7974 7965 7964 7962 ] final  -64.11 input  175.53 | X-H torsion
[ 8008 7997 7996 7995 ] final    0.76 input   59.86 | X-H torsion
[ 10167 10162 10161 10158 ] final   48.41 input  -65.29 | X-H torsion
[ 10718 10713 10712 10709 ] final  -88.54 input   66.30 | X-H torsion
[ 10763 10752 10751 10750 ] final -116.61 input  -60.55 | X-H torsion
[ 11005 11000 10999 10996 ] final  -35.20 input  -57.11 | X-H torsion

> <Gold.Protein.ActiveResidues>
 VAL166  LYS551  ARG553  GLY616  TRP617  ASP618  TYR619  PRO620  LYS621  CYS622 
 ASP623  PHE694  ASN695  SER759  ASP760  ASP761  ALA762  ILE779  LEU786  VAL792 
 PHE793  MET794  SER795  GLU796  ALA797  LYS798  CYS799  TRP800  GLU811  SER814 

> <Gold.Protein.RotatedAtoms>
  151.3635  133.3881  159.2691 H   0  0  0  0  0  0  0  0  0  0  0  0  # atno 6907 bound_to 6896
  150.9707  134.9081  159.7797 H   0  0  0  0  0  0  0  0  0  0  0  0  # atno 6908 bound_to 6896
  152.5183  134.3596  159.9332 H   0  0  0  0  0  0  0  0  0  0  0  0  # atno 6909 bound_to 6896
  145.7708  140.8814  143.0381 H   0  0  0  0  0  0  0  0  0  0  0  0  # atno 7974 bound_to 7965
  154.6718  140.2613  155.6999 H   0  0  0  0  0  0  0  0  0  0  0  0  # atno 8008 bound_to 7997
  156.2662  140.2828  156.1152 H   0  0  0  0  0  0  0  0  0  0  0  0  # atno 8009 bound_to 7997
  155.1158  140.0376  157.2726 H   0  0  0  0  0  0  0  0  0  0  0  0  # atno 8010 bound_to 7997
  140.2936  144.3017  150.6235 H   0  0  0  0  0  0  0  0  0  0  0  0  # atno 10167 bound_to 10162
  155.9983  130.4839  150.5034 H   0  0  0  0  0  0  0  0  0  0  0  0  # atno 10718 bound_to 10713
  154.8525  135.4339  154.1849 H   0  0  0  0  0  0  0  0  0  0  0  0  # atno 10763 bound_to 10752
  153.2931  135.6963  153.7280 H   0  0  0  0  0  0  0  0  0  0  0  0  # atno 10764 bound_to 10752
  153.6440  135.3463  155.3054 H   0  0  0  0  0  0  0  0  0  0  0  0  # atno 10765 bound_to 10752
  140.9777  133.7074  156.1630 H   0  0  0  0  0  0  0  0  0  0  0  0  # atno 11005 bound_to 11000
  144.6813  139.9852  143.7484 LP  0  0  0  0  0  0  0  0  0  0  0  0  # atno 17320 bound_to 7965
  146.0172  139.3220  143.0835 LP  0  0  0  0  0  0  0  0  0  0  0  0  # atno 17321 bound_to 7965
  140.5712  143.2181  151.7596 LP  0  0  0  0  0  0  0  0  0  0  0  0  # atno 17342 bound_to 10162
  139.4932  144.4214  151.9973 LP  0  0  0  0  0  0  0  0  0  0  0  0  # atno 17343 bound_to 10162
  157.3016  131.0646  151.2064 LP  0  0  0  0  0  0  0  0  0  0  0  0  # atno 17370 bound_to 10713
  157.3041  130.6857  149.6180 LP  0  0  0  0  0  0  0  0  0  0  0  0  # atno 17371 bound_to 10713
  140.7234  134.4334  157.5573 LP  0  0  0  0  0  0  0  0  0  0  0  0  # atno 17394 bound_to 11000
  139.8937  134.8724  156.2210 LP  0  0  0  0  0  0  0  0  0  0  0  0  # atno 17395 bound_to 11000

$$$$
