AV-unprocessed.smi:1205|AV-procd|sdf|5040|dock9
  -GOLD-   22720 4 63D 1   1.00000     0.00000
 Structure written by MMmdl.
 49 50  0  0  0  0  0  0  0  0  2 V2000
  150.1749  141.7096  155.8235 C   0  0  0  0  0  0  0  0  0  0  0  0
  150.3915  140.3436  155.2419 C   0  0  0  0  0  0  0  0  0  0  0  0
  149.4435  139.2888  155.1009 C   0  0  0  0  0  0  0  0  0  0  0  0
  150.1829  138.2953  154.5195 C   0  0  0  0  0  0  0  0  0  0  0  0
  149.7971  137.0429  154.1573 N   0  0  0  0  0  0  0  0  0  0  0  0
  149.6504  135.9528  154.9303 C   0  0  0  0  0  0  0  0  0  0  0  0
  149.8481  135.9032  156.1445 O   0  0  0  0  0  0  0  0  0  0  0  0
  149.2445  134.8980  154.2091 N   0  0  0  0  0  0  0  0  0  0  0  0
  148.9858  133.5677  154.7509 C   0  0  0  0  0  0  0  0  0  0  0  0
  149.3838  132.4378  153.7663 C   0  0  1  0  0  0  0  0  0  0  0  0
  150.1111  131.2724  154.4639 C   0  0  0  0  0  0  0  0  0  0  0  0
  148.2367  131.9334  152.9560 N   0  3  1  0  0  0  0  0  0  0  0  0
  147.4605  130.8220  153.5707 C   0  0  0  0  0  0  0  0  0  0  0  0
  146.4714  130.2260  152.5570 C   0  0  0  0  0  0  0  0  0  0  0  0
  145.5334  131.3089  152.0072 C   0  0  0  0  0  0  0  0  0  0  0  0
  146.3474  132.4697  151.4098 C   0  0  1  0  0  0  0  0  0  0  0  0
  145.4321  133.5796  150.8745 C   0  0  0  0  0  0  0  0  0  0  0  0
  147.3466  133.0135  152.4513 C   0  0  0  0  0  0  0  0  0  0  0  0
  151.4717  138.7467  154.3394 N   0  0  0  0  0  0  0  0  0  0  0  0
  152.6180  138.0633  153.7724 C   0  0  0  0  0  0  0  0  0  0  0  0
  151.5956  140.0146  154.7874 N   0  0  0  0  0  0  0  0  0  0  0  0
  149.1399  141.8440  156.1391 H   0  0  0  0  0  0  0  0  0  0  0  0
  150.4026  142.4878  155.0950 H   0  0  0  0  0  0  0  0  0  0  0  0
  150.8105  141.8704  156.6946 H   0  0  0  0  0  0  0  0  0  0  0  0
  148.4029  139.2830  155.3882 H   0  0  0  0  0  0  0  0  0  0  0  0
  149.5818  136.9274  153.1778 H   0  0  0  0  0  0  0  0  0  0  0  0
  149.1076  135.0227  153.2165 H   0  0  0  0  0  0  0  0  0  0  0  0
  149.5562  133.4867  155.6759 H   0  0  0  0  0  0  0  0  0  0  0  0
  147.9337  133.4940  155.0293 H   0  0  0  0  0  0  0  0  0  0  0  0
  150.1041  132.8483  153.0572 H   0  0  0  0  0  0  0  0  0  0  0  0
  151.0501  131.6020  154.9091 H   0  0  0  0  0  0  0  0  0  0  0  0
  150.3537  130.4807  153.7544 H   0  0  0  0  0  0  0  0  0  0  0  0
  149.5112  130.8346  155.2615 H   0  0  0  0  0  0  0  0  0  0  0  0
  148.1292  130.0352  153.9182 H   0  0  0  0  0  0  0  0  0  0  0  0
  146.9127  131.1835  154.4417 H   0  0  0  0  0  0  0  0  0  0  0  0
  147.0202  129.7628  151.7359 H   0  0  0  0  0  0  0  0  0  0  0  0
  145.8890  129.4331  153.0269 H   0  0  0  0  0  0  0  0  0  0  0  0
  144.8737  130.8798  151.2521 H   0  0  0  0  0  0  0  0  0  0  0  0
  144.8916  131.6779  152.8085 H   0  0  0  0  0  0  0  0  0  0  0  0
  146.9193  132.0815  150.5653 H   0  0  0  0  0  0  0  0  0  0  0  0
  144.8234  134.0104  151.6701 H   0  0  0  0  0  0  0  0  0  0  0  0
  144.7567  133.1958  150.1093 H   0  0  0  0  0  0  0  0  0  0  0  0
  146.0128  134.3861  150.4257 H   0  0  0  0  0  0  0  0  0  0  0  0
  146.8092  133.4701  153.2835 H   0  0  0  0  0  0  0  0  0  0  0  0
  147.9473  133.8003  151.9928 H   0  0  0  0  0  0  0  0  0  0  0  0
  152.3330  137.5755  152.8399 H   0  0  0  0  0  0  0  0  0  0  0  0
  152.9785  137.3108  154.4743 H   0  0  0  0  0  0  0  0  0  0  0  0
  153.4223  138.7708  153.5665 H   0  0  0  0  0  0  0  0  0  0  0  0
  148.6613  131.5423  152.1271 H   0  0  0  0  0  0  0  0  0  0  0  0
  1  2  1  0  0  0  0
  1 22  1  0  0  0  0
  1 23  1  0  0  0  0
  1 24  1  0  0  0  0
  2 21  2  0  0  0  0
  2  3  1  0  0  0  0
  3  4  2  0  0  0  0
  3 25  1  0  0  0  0
  4  5  1  0  0  0  0
  4 19  1  0  0  0  0
  5  6  1  0  0  0  0
  5 26  1  0  0  0  0
  6  7  2  0  0  0  0
  6  8  1  0  0  0  0
  8  9  1  0  0  0  0
  8 27  1  0  0  0  0
  9 10  1  0  0  0  0
  9 28  1  0  0  0  0
  9 29  1  0  0  0  0
 10 11  1  0  0  0  0
 10 12  1  0  0  0  0
 10 30  1  0  0  0  0
 11 31  1  0  0  0  0
 11 32  1  0  0  0  0
 11 33  1  0  0  0  0
 12 18  1  0  0  0  0
 12 13  1  0  0  0  0
 12 49  1  0  0  0  0
 13 14  1  0  0  0  0
 13 34  1  0  0  0  0
 13 35  1  0  0  0  0
 14 15  1  0  0  0  0
 14 36  1  0  0  0  0
 14 37  1  0  0  0  0
 15 16  1  0  0  0  0
 15 38  1  0  0  0  0
 15 39  1  0  0  0  0
 16 17  1  0  0  0  0
 16 18  1  0  0  0  0
 16 40  1  0  0  0  0
 17 41  1  0  0  0  0
 17 42  1  0  0  0  0
 17 43  1  0  0  0  0
 18 44  1  0  0  0  0
 18 45  1  0  0  0  0
 19 20  1  0  0  0  0
 19 21  1  0  0  0  0
 20 46  1  0  0  0  0
 20 47  1  0  0  0  0
 20 48  1  0  0  0  0
M  CHG  1  12   1
M  END
> <s_m_source_file>
AV-unprocessed.smi

> <i_m_source_file_index>
1205

> <i_lp_mmshare_version>
43012

> <i_f3d_flags>
0

> <s_epik_input>
W0NIM11jMVtjSF1jKG4objEpW0NIM10pW05IXUMoPU8pW05IXVtDSDJdW0NASF0oW0NIM10pTjJbQ0gyXVtDSDJdW0NIMl1bQ0BASF0oW0NIM10pW0NIMl0y

> <s_epik_cmdline>
J2VwaWtfcHl0aG9uJywgJy1waCcsICc3LjAnLCAnLXRuJywgJzgnLCAnLW1hJywgJzIwMCcsICctbWV0YWxfYmluZGluZycsICctaW1hZScsICc8aW5maWxlLm1hZT4nLCAnLW9tYWUnLCAnPG91dGZpbGUubWFlPic=

> <r_lp_tautomer_probability>
1

> <r_epik_Ionization_Penalty>
0.0020309

> <r_epik_Ionization_Penalty_Charging>
0.00195276

> <r_epik_Ionization_Penalty_Neutral>
7.81448e-05

> <r_epik_State_Penalty>
0.00133177

> <r_epik_Charging_Adjusted_Penalty>
0.00328452

> <i_epik_Tot_Q>
1

> <i_epik_Tot_abs_Q>
1

> <r_epik_Metal_State_Penalty>
-0

> <b_epik_Metal_Only>
0

> <s_lp_Force_Field>
OPLS_2005

> <r_lp_Energy>
21.6269

> <b_lp_Chiralities_Consistent>
1

> <s_lp_Variant>
AV-unprocessed.smi:1205-2

> <Gold.Version>
5.8.1

> <Gold.Id.Protein>
6NUR|6NUR_protein|mol2

> <Gold.PLP.Fitness>
46.5079

> <Gold.PLP.PLP>
-38.0768

> <Gold.PLP.part.hbond>
-4.0691

> <Gold.PLP.part.metal>
0.0000

> <Gold.PLP.part.buried>
-3.7964

> <Gold.PLP.part.nonpolar>
-30.4231

> <Gold.PLP.part.repulsive>
0.0992

> <Gold.PLP.ligand.clash>
0.0000

> <Gold.PLP.ligand.torsion>
1.8305

> <Gold.PLP.Chemscore.Hbond>
3.9920

> <Gold.PLP.Chemscore.CHOScore>
0.0000

> <Gold.PLP.Chemscore.Metal>
0.0000

> <Gold.Chemscore.Hbonds>
donor molecule, donor type, donor heavy atom, donor atom, acceptor molecule, acceptor atom, score
      L1  H     5    26       P1  7948  1.00
      L1  H     8    27       P1  7948  0.74
      L1  H    12    49       P1 10747  1.00
      P1  H  7989  7998       L1    21  1.00

> <Gold.PLP.Chemscore.Internal.Correction>
0.1161

> <Gold.Rescore>
     Score         DG    S(hbond)    S(metal)    S(lipo)     H(rot)  DE(clash)    DE(int)     intcor
     18.16     -20.19       2.68        0.00      81.26       1.47       0.05       1.97       ----

> <Gold.Chemscore.Fitness>
18.1649

> <Gold.Chemscore.DG>
-20.1881

> <Gold.Chemscore.ZeroCoef>
-5.4800

> <Gold.Chemscore.Hbond>
2.6807

> <Gold.Chemscore.Metal>
0.0000

> <Gold.Chemscore.Lipo>
81.2576

> <Gold.Chemscore.Internal_Hbond>
0.0000

> <Gold.Chemscore.DEClash>
0.0528

> <Gold.Chemscore.DEInternal>
1.9705

> <Gold.Chemscore.Rot>
1.4658

> <Gold.Chemscore.Internal.Correction>
   9.000000E+99

> <Gold.Chemscore.Hbonds>
donor molecule, donor type, donor heavy atom, donor atom, acceptor molecule, acceptor atom, score
      L1  H     5    26       P1  7948  0.63
      L1  H     8    27       P1  7948  0.11
      L1  H    12    49       P1 10747  0.94
      P1  H  7989  7998       L1    21  0.12

> <Gold.Chemscore.Hbond.Weighted>
-8.9535

> <Gold.Chemscore.Metal.Weighted>
-0.0000

> <Gold.Chemscore.Lipo.Weighted>
-9.5071

> <Gold.Chemscore.Internal_Hbond.Weighted>
0.0000

> <Gold.Chemscore.DEClash.Weighted>
0.0528

> <Gold.Chemscore.DEInternal.Weighted>
1.9705

> <Gold.Chemscore.Rot.Weighted>
3.7526

> <Gold.Chemscore.Internal.Correction.Weighted>
   9.000000E+99

> <Gold.Protein.RotatedTorsions>
[ 6907 6896 6895 6894 ] final -122.70 input  -60.11 | X-H torsion
[ 7974 7965 7964 7962 ] final  -75.40 input  175.53 | X-H torsion
[ 8008 7997 7996 7995 ] final -167.12 input   59.86 | X-H torsion
[ 10167 10162 10161 10158 ] final   93.16 input  -65.29 | X-H torsion
[ 10718 10713 10712 10709 ] final  -51.58 input   66.30 | X-H torsion
[ 10763 10752 10751 10750 ] final   15.57 input  -60.55 | X-H torsion
[ 11005 11000 10999 10996 ] final -137.71 input  -57.11 | X-H torsion

> <Gold.Protein.ActiveResidues>
 VAL166  LYS551  ARG553  GLY616  TRP617  ASP618  TYR619  PRO620  LYS621  CYS622 
 ASP623  PHE694  ASN695  SER759  ASP760  ASP761  ALA762  ILE779  LEU786  VAL792 
 PHE793  MET794  SER795  GLU796  ALA797  LYS798  CYS799  TRP800  GLU811  SER814 

> <Gold.Protein.RotatedAtoms>
  150.8601  133.7657  159.2995 H   0  0  0  0  0  0  0  0  0  0  0  0  # atno 6907 bound_to 6896
  151.5302  135.1066  159.9910 H   0  0  0  0  0  0  0  0  0  0  0  0  # atno 6908 bound_to 6896
  152.4619  133.7797  159.6900 H   0  0  0  0  0  0  0  0  0  0  0  0  # atno 6909 bound_to 6896
  145.6265  140.9349  143.1110 H   0  0  0  0  0  0  0  0  0  0  0  0  # atno 7974 bound_to 7965
  155.8733  140.0997  157.1535 H   0  0  0  0  0  0  0  0  0  0  0  0  # atno 8008 bound_to 7997
  154.3999  140.1343  156.4169 H   0  0  0  0  0  0  0  0  0  0  0  0  # atno 8009 bound_to 7997
  155.7725  140.3460  155.5257 H   0  0  0  0  0  0  0  0  0  0  0  0  # atno 8010 bound_to 7997
  139.8206  144.6733  150.9523 H   0  0  0  0  0  0  0  0  0  0  0  0  # atno 10167 bound_to 10162
  156.1697  130.4149  149.9665 H   0  0  0  0  0  0  0  0  0  0  0  0  # atno 10718 bound_to 10713
  153.1513  135.6779  153.8878 H   0  0  0  0  0  0  0  0  0  0  0  0  # atno 10763 bound_to 10752
  153.8303  135.3118  155.3419 H   0  0  0  0  0  0  0  0  0  0  0  0  # atno 10764 bound_to 10752
  154.7864  135.4859  154.0042 H   0  0  0  0  0  0  0  0  0  0  0  0  # atno 10765 bound_to 10752
  140.8686  134.2080  157.4665 H   0  0  0  0  0  0  0  0  0  0  0  0  # atno 11005 bound_to 11000
  144.7210  139.8029  143.7382 LP  0  0  0  0  0  0  0  0  0  0  0  0  # atno 17320 bound_to 7965
  146.1390  139.4443  143.0120 LP  0  0  0  0  0  0  0  0  0  0  0  0  # atno 17321 bound_to 7965
  140.7813  143.4095  151.1016 LP  0  0  0  0  0  0  0  0  0  0  0  0  # atno 17342 bound_to 10162
  139.7756  143.8431  152.3128 LP  0  0  0  0  0  0  0  0  0  0  0  0  # atno 17343 bound_to 10162
  156.7469  130.9101  151.3635 LP  0  0  0  0  0  0  0  0  0  0  0  0  # atno 17370 bound_to 10713
  157.6794  130.9125  150.0229 LP  0  0  0  0  0  0  0  0  0  0  0  0  # atno 17371 bound_to 10713
  139.8710  134.9763  156.4917 LP  0  0  0  0  0  0  0  0  0  0  0  0  # atno 17394 bound_to 11000
  140.8600  133.8067  155.9255 LP  0  0  0  0  0  0  0  0  0  0  0  0  # atno 17395 bound_to 11000

$$$$
