AV-unprocessed.smi:2482|AV-procd|sdf|9775|dock4
  -GOLD-   2272013413D 1   1.00000     0.00000
 Structure written by MMmdl.
 35 36  0  0  0  0  0  0  0  0  2 V2000
  153.1404  142.5313  160.4216 C   0  0  0  0  0  0  0  0  0  0  0  0
  152.4024  142.4856  159.0967 C   0  0  0  0  0  0  0  0  0  0  0  0
  152.0916  143.6851  158.5585 N   0  0  0  0  0  0  0  0  0  0  0  0
  151.4395  143.7019  157.3782 C   0  0  0  0  0  0  0  0  0  0  0  0
  151.0628  142.5361  156.6845 C   0  0  0  0  0  0  0  0  0  0  0  0
  151.3730  141.2774  157.2528 C   0  0  0  0  0  0  0  0  0  0  0  0
  151.0605  140.0370  156.6309 N   0  0  0  0  0  0  0  0  0  0  0  0
  150.4955  139.8074  155.4306 C   0  0  0  0  0  0  0  0  0  0  0  0
  150.1594  140.6896  154.6406 O   0  0  0  0  0  0  0  0  0  0  0  0
  150.2789  138.3300  155.0666 C   0  0  2  0  0  0  0  0  0  0  0  0
  148.7838  137.9653  154.9088 C   0  0  0  0  0  0  0  0  0  0  0  0
  148.6255  136.5189  154.6328 N   0  3  2  0  0  0  0  0  0  0  0  0
  147.2135  136.1275  154.4357 C   0  0  0  0  0  0  0  0  0  0  0  0
  149.3044  135.7051  155.6658 C   0  0  0  0  0  0  0  0  0  0  0  0
  150.7761  136.1286  155.7927 C   0  0  0  0  0  0  0  0  0  0  0  0
  150.8467  137.5168  156.0930 O   0  0  0  0  0  0  0  0  0  0  0  0
  152.0716  141.2547  158.4828 C   0  0  0  0  0  0  0  0  0  0  0  0
  152.5066  139.7513  159.2257 Cl  0  0  0  0  0  0  0  0  0  0  0  0
  152.5643  142.0206  161.1935 H   0  0  0  0  0  0  0  0  0  0  0  0
  153.3096  143.5571  160.7518 H   0  0  0  0  0  0  0  0  0  0  0  0
  154.1107  142.0417  160.3333 H   0  0  0  0  0  0  0  0  0  0  0  0
  151.2165  144.6761  156.9691 H   0  0  0  0  0  0  0  0  0  0  0  0
  150.5614  142.6327  155.7343 H   0  0  0  0  0  0  0  0  0  0  0  0
  151.2101  139.2210  157.2070 H   0  0  0  0  0  0  0  0  0  0  0  0
  150.8058  138.1445  154.1290 H   0  0  0  0  0  0  0  0  0  0  0  0
  148.2319  138.2239  155.8148 H   0  0  0  0  0  0  0  0  0  0  0  0
  148.3408  138.5332  154.0892 H   0  0  0  0  0  0  0  0  0  0  0  0
  146.6283  136.3008  155.3398 H   0  0  0  0  0  0  0  0  0  0  0  0
  147.1399  135.0710  154.1767 H   0  0  0  0  0  0  0  0  0  0  0  0
  146.7661  136.7013  153.6234 H   0  0  0  0  0  0  0  0  0  0  0  0
  148.7963  135.8275  156.6238 H   0  0  0  0  0  0  0  0  0  0  0  0
  149.2437  134.6488  155.4017 H   0  0  0  0  0  0  0  0  0  0  0  0
  151.2610  135.5690  156.5926 H   0  0  0  0  0  0  0  0  0  0  0  0
  151.3255  135.9139  154.8747 H   0  0  0  0  0  0  0  0  0  0  0  0
  149.1012  136.3356  153.7606 H   0  0  0  0  0  0  0  0  0  0  0  0
  1  2  1  0  0  0  0
  1 19  1  0  0  0  0
  1 20  1  0  0  0  0
  1 21  1  0  0  0  0
  2 17  1  0  0  0  0
  2  3  2  0  0  0  0
  3  4  1  0  0  0  0
  4  5  2  0  0  0  0
  4 22  1  0  0  0  0
  5  6  1  0  0  0  0
  5 23  1  0  0  0  0
  6  7  1  0  0  0  0
  6 17  2  0  0  0  0
  7  8  1  0  0  0  0
  7 24  1  0  0  0  0
  8  9  2  0  0  0  0
  8 10  1  0  0  0  0
 10 16  1  0  0  0  0
 10 11  1  0  0  0  0
 10 25  1  0  0  0  0
 11 12  1  0  0  0  0
 11 26  1  0  0  0  0
 11 27  1  0  0  0  0
 12 13  1  0  0  0  0
 12 14  1  0  0  0  0
 12 35  1  0  0  0  0
 13 28  1  0  0  0  0
 13 29  1  0  0  0  0
 13 30  1  0  0  0  0
 14 15  1  0  0  0  0
 14 31  1  0  0  0  0
 14 32  1  0  0  0  0
 15 16  1  0  0  0  0
 15 33  1  0  0  0  0
 15 34  1  0  0  0  0
 17 18  1  0  0  0  0
M  CHG  1  12   1
M  END
> <s_m_source_file>
AV-unprocessed.smi

> <i_m_source_file_index>
2482

> <i_lp_mmshare_version>
43012

> <i_f3d_flags>
0

> <s_epik_input>
W0NIM11jMW5bY0hdW2NIXWMoYzFDbClbTkhdQyg9TylbQ0BASF0yW0NIMl1OKFtDSDNdKVtDSDJdW0NIMl1PMg==

> <s_epik_cmdline>
J2VwaWtfcHl0aG9uJywgJy1waCcsICc3LjAnLCAnLXRuJywgJzgnLCAnLW1hJywgJzIwMCcsICctbWV0YWxfYmluZGluZycsICctaW1hZScsICc8aW5maWxlLm1hZT4nLCAnLW9tYWUnLCAnPG91dGZpbGUubWFlPic=

> <r_epik_Ionization_Penalty>
0.314226

> <r_epik_Ionization_Penalty_Charging>
0.314023

> <r_epik_Ionization_Penalty_Neutral>
0.00020299

> <r_epik_State_Penalty>
0.308208

> <r_epik_Charging_Adjusted_Penalty>
0.62223

> <i_epik_Tot_Q>
1

> <i_epik_Tot_abs_Q>
1

> <r_epik_Metal_State_Penalty>
0.314444

> <b_epik_Metal_Only>
0

> <s_lp_Force_Field>
OPLS_2005

> <r_lp_Energy>
22.3098

> <b_lp_Chiralities_Consistent>
1

> <s_lp_Variant>
AV-unprocessed.smi:2482-1

> <Gold.Version>
5.8.1

> <Gold.Id.Protein>
6NUR|6NUR_protein|mol2

> <Gold.PLP.Fitness>
39.1226

> <Gold.PLP.PLP>
-28.5560

> <Gold.PLP.part.hbond>
-2.0000

> <Gold.PLP.part.metal>
0.0000

> <Gold.PLP.part.buried>
-3.3840

> <Gold.PLP.part.nonpolar>
-23.6196

> <Gold.PLP.part.repulsive>
0.2363

> <Gold.PLP.ligand.clash>
0.0000

> <Gold.PLP.ligand.torsion>
0.0395

> <Gold.PLP.Chemscore.Hbond>
2.8000

> <Gold.PLP.Chemscore.CHOScore>
0.7480

> <Gold.PLP.Chemscore.Metal>
0.0000

> <Gold.Chemscore.Hbonds>
donor molecule, donor type, donor heavy atom, donor atom, acceptor molecule, acceptor atom, score
      L1  H    12    35       P1  7948  1.92
      P1  H  7989  7998       L1     9  0.83
      L1  C     4    22       P1  8028  0.50

> <Gold.PLP.Chemscore.Internal.Correction>
0.0015

> <Gold.Rescore>
     Score         DG    S(hbond)    S(metal)    S(lipo)     H(rot)  DE(clash)    DE(int)     intcor
     15.19     -16.50       1.24        0.00      80.66       1.00       0.02       1.29       ----

> <Gold.Chemscore.Fitness>
15.1876

> <Gold.Chemscore.DG>
-16.5001

> <Gold.Chemscore.ZeroCoef>
-5.4800

> <Gold.Chemscore.Hbond>
1.2402

> <Gold.Chemscore.Metal>
0.0000

> <Gold.Chemscore.Lipo>
80.6640

> <Gold.Chemscore.Internal_Hbond>
0.0000

> <Gold.Chemscore.DEClash>
0.0241

> <Gold.Chemscore.DEInternal>
1.2885

> <Gold.Chemscore.Rot>
1.0000

> <Gold.Chemscore.Internal.Correction>
   9.000000E+99

> <Gold.Chemscore.Hbonds>
donor molecule, donor type, donor heavy atom, donor atom, acceptor molecule, acceptor atom, score
      L1  H    12    35       P1  7948  0.90
      P1  H  7989  7998       L1     9  0.41

> <Gold.Chemscore.Hbond.Weighted>
-4.1424

> <Gold.Chemscore.Metal.Weighted>
-0.0000

> <Gold.Chemscore.Lipo.Weighted>
-9.4377

> <Gold.Chemscore.Internal_Hbond.Weighted>
0.0000

> <Gold.Chemscore.DEClash.Weighted>
0.0241

> <Gold.Chemscore.DEInternal.Weighted>
1.2885

> <Gold.Chemscore.Rot.Weighted>
2.5600

> <Gold.Chemscore.Internal.Correction.Weighted>
   9.000000E+99

> <Gold.Protein.RotatedTorsions>
[ 6907 6896 6895 6894 ] final  -51.92 input  -60.11 | X-H torsion
[ 7974 7965 7964 7962 ] final   78.96 input  175.53 | X-H torsion
[ 8008 7997 7996 7995 ] final   50.19 input   59.86 | X-H torsion
[ 10167 10162 10161 10158 ] final   36.77 input  -65.29 | X-H torsion
[ 10718 10713 10712 10709 ] final  161.75 input   66.30 | X-H torsion
[ 10763 10752 10751 10750 ] final -144.02 input  -60.55 | X-H torsion
[ 11005 11000 10999 10996 ] final -167.33 input  -57.11 | X-H torsion

> <Gold.Protein.ActiveResidues>
 VAL166  LYS551  ARG553  GLY616  TRP617  ASP618  TYR619  PRO620  LYS621  CYS622 
 ASP623  PHE694  ASN695  SER759  ASP760  ASP761  ALA762  ILE779  LEU786  VAL792 
 PHE793  MET794  SER795  GLU796  ALA797  LYS798  CYS799  TRP800  GLU811  SER814 

> <Gold.Protein.RotatedAtoms>
  150.8566  134.7907  159.7050 H   0  0  0  0  0  0  0  0  0  0  0  0  # atno 6907 bound_to 6896
  152.4616  134.5168  159.9780 H   0  0  0  0  0  0  0  0  0  0  0  0  # atno 6908 bound_to 6896
  151.5279  133.3416  159.2948 H   0  0  0  0  0  0  0  0  0  0  0  0  # atno 6909 bound_to 6896
  145.6704  139.2495  143.1872 H   0  0  0  0  0  0  0  0  0  0  0  0  # atno 7974 bound_to 7965
  155.4147  140.3444  155.4266 H   0  0  0  0  0  0  0  0  0  0  0  0  # atno 8008 bound_to 7997
  156.1428  140.1547  156.8925 H   0  0  0  0  0  0  0  0  0  0  0  0  # atno 8009 bound_to 7997
  154.4985  140.0821  156.7729 H   0  0  0  0  0  0  0  0  0  0  0  0  # atno 8010 bound_to 7997
  140.4096  144.1610  150.6138 H   0  0  0  0  0  0  0  0  0  0  0  0  # atno 10167 bound_to 10162
  157.1321  131.0519  151.2366 H   0  0  0  0  0  0  0  0  0  0  0  0  # atno 10718 bound_to 10713
  154.8446  135.3452  154.6280 H   0  0  0  0  0  0  0  0  0  0  0  0  # atno 10763 bound_to 10752
  153.6889  135.6976  153.5100 H   0  0  0  0  0  0  0  0  0  0  0  0  # atno 10764 bound_to 10752
  153.2610  135.4323  155.0849 H   0  0  0  0  0  0  0  0  0  0  0  0  # atno 10765 bound_to 10752
  140.5544  134.5396  157.5130 H   0  0  0  0  0  0  0  0  0  0  0  0  # atno 11005 bound_to 11000
  146.1050  140.7498  142.9530 LP  0  0  0  0  0  0  0  0  0  0  0  0  # atno 17320 bound_to 7965
  144.7059  140.3848  143.7119 LP  0  0  0  0  0  0  0  0  0  0  0  0  # atno 17321 bound_to 7965
  140.4652  143.2434  151.9166 LP  0  0  0  0  0  0  0  0  0  0  0  0  # atno 17342 bound_to 10162
  139.4783  144.5427  151.8504 LP  0  0  0  0  0  0  0  0  0  0  0  0  # atno 17343 bound_to 10162
  157.4383  130.7529  149.7047 LP  0  0  0  0  0  0  0  0  0  0  0  0  # atno 17370 bound_to 10713
  155.9806  130.4028  150.3521 LP  0  0  0  0  0  0  0  0  0  0  0  0  # atno 17371 bound_to 10713
  139.9439  134.7738  156.0611 LP  0  0  0  0  0  0  0  0  0  0  0  0  # atno 17394 bound_to 11000
  141.1152  133.6630  156.3076 LP  0  0  0  0  0  0  0  0  0  0  0  0  # atno 17395 bound_to 11000

$$$$
