AV-unprocessed.smi:1047|AV-procd|sdf|4576|dock5
  -GOLD-   22720 3 33D 1   1.00000     0.00000
 Structure written by MMmdl.
 56 58  0  0  0  0  0  0  0  0  2 V2000
  144.4517  134.7726  150.5224 C   0  0  0  0  0  0  0  0  0  0  0  0
  145.5811  135.7714  150.8116 C   0  0  0  0  0  0  0  0  0  0  0  0
  145.1689  136.8380  151.7579 N   0  3  1  0  0  0  0  0  0  0  0  0
  144.6598  136.3195  153.0516 C   0  0  0  0  0  0  0  0  0  0  0  0
  144.2072  137.4790  153.9548 C   0  0  0  0  0  0  0  0  0  0  0  0
  145.2851  138.3847  154.1565 O   0  0  0  0  0  0  0  0  0  0  0  0
  145.7519  138.9487  152.9350 C   0  0  1  0  0  0  0  0  0  0  0  0
  146.8174  140.0125  153.2486 C   0  0  0  0  0  0  0  0  0  0  0  0
  147.7581  139.5630  154.2716 N   0  0  0  0  0  0  0  0  0  0  0  0
  148.5998  140.6361  154.7920 C   0  0  0  0  0  0  0  0  0  0  0  0
  150.0175  140.1266  155.1176 C   0  0  1  0  0  0  0  0  0  0  0  0
  150.6258  139.7047  153.9149 O   0  0  0  0  0  0  0  0  0  0  0  0
  150.9313  141.1999  155.7411 C   0  0  0  0  0  0  0  0  0  0  0  0
  151.5387  140.7626  156.9852 N   0  0  0  0  0  0  0  0  0  0  0  0
  151.9429  139.5153  157.2923 C   0  0  0  0  0  0  0  0  0  0  0  0
  152.4724  139.3260  158.4971 N   0  0  0  0  0  0  0  0  0  0  0  0
  152.4095  140.6007  159.0330 C   0  0  0  0  0  0  0  0  0  0  0  0
  152.8124  141.0846  160.2969 C   0  0  0  0  0  0  0  0  0  0  0  0
  152.6490  142.4463  160.6375 C   0  0  0  0  0  0  0  0  0  0  0  0
  153.0964  142.9232  162.0079 C   0  0  0  0  0  0  0  0  0  0  0  0
  152.0740  143.3478  159.7061 C   0  0  0  0  0  0  0  0  0  0  0  0
  151.8899  144.8156  160.0490 C   0  0  0  0  0  0  0  0  0  0  0  0
  151.6646  142.8807  158.4396 C   0  0  0  0  0  0  0  0  0  0  0  0
  151.8330  141.5236  158.1119 C   0  0  0  0  0  0  0  0  0  0  0  0
  146.2434  137.8323  151.9896 C   0  0  0  0  0  0  0  0  0  0  0  0
  144.7581  134.0596  149.7567 H   0  0  0  0  0  0  0  0  0  0  0  0
  143.5586  135.2817  150.1593 H   0  0  0  0  0  0  0  0  0  0  0  0
  144.1774  134.1974  151.4060 H   0  0  0  0  0  0  0  0  0  0  0  0
  146.4645  135.2551  151.1897 H   0  0  0  0  0  0  0  0  0  0  0  0
  145.8715  136.2289  149.8650 H   0  0  0  0  0  0  0  0  0  0  0  0
  143.8202  135.6449  152.8891 H   0  0  0  0  0  0  0  0  0  0  0  0
  145.4418  135.7436  153.5494 H   0  0  0  0  0  0  0  0  0  0  0  0
  143.3541  138.0012  153.5189 H   0  0  0  0  0  0  0  0  0  0  0  0
  143.8840  137.0959  154.9228 H   0  0  0  0  0  0  0  0  0  0  0  0
  144.9147  139.4629  152.4590 H   0  0  0  0  0  0  0  0  0  0  0  0
  147.3580  140.2632  152.3350 H   0  0  0  0  0  0  0  0  0  0  0  0
  146.3229  140.9281  153.5754 H   0  0  0  0  0  0  0  0  0  0  0  0
  147.2478  139.1311  155.0357 H   0  0  0  0  0  0  0  0  0  0  0  0
  148.6443  141.4714  154.0918 H   0  0  0  0  0  0  0  0  0  0  0  0
  148.1356  141.0232  155.6987 H   0  0  0  0  0  0  0  0  0  0  0  0
  149.9620  139.2745  155.7967 H   0  0  0  0  0  0  0  0  0  0  0  0
  149.9896  139.7726  153.2193 H   0  0  0  0  0  0  0  0  0  0  0  0
  151.7323  141.4619  155.0483 H   0  0  0  0  0  0  0  0  0  0  0  0
  150.3712  142.1170  155.9284 H   0  0  0  0  0  0  0  0  0  0  0  0
  151.8375  138.6990  156.5924 H   0  0  0  0  0  0  0  0  0  0  0  0
  153.2498  140.3975  161.0062 H   0  0  0  0  0  0  0  0  0  0  0  0
  153.8657  143.6897  161.9130 H   0  0  0  0  0  0  0  0  0  0  0  0
  153.5104  142.1055  162.5987 H   0  0  0  0  0  0  0  0  0  0  0  0
  152.2552  143.3424  162.5603 H   0  0  0  0  0  0  0  0  0  0  0  0
  151.4503  145.3664  159.2171 H   0  0  0  0  0  0  0  0  0  0  0  0
  152.8494  145.2769  160.2844 H   0  0  0  0  0  0  0  0  0  0  0  0
  151.2305  144.9272  160.9100 H   0  0  0  0  0  0  0  0  0  0  0  0
  151.2225  143.5564  157.7224 H   0  0  0  0  0  0  0  0  0  0  0  0
  147.1129  137.3244  152.4097 H   0  0  0  0  0  0  0  0  0  0  0  0
  146.5546  138.2681  151.0394 H   0  0  0  0  0  0  0  0  0  0  0  0
  144.4094  137.3379  151.3181 H   0  0  0  0  0  0  0  0  0  0  0  0
  1  2  1  0  0  0  0
  1 26  1  0  0  0  0
  1 27  1  0  0  0  0
  1 28  1  0  0  0  0
  2  3  1  0  0  0  0
  2 29  1  0  0  0  0
  2 30  1  0  0  0  0
  3 25  1  0  0  0  0
  3  4  1  0  0  0  0
  3 56  1  0  0  0  0
  4  5  1  0  0  0  0
  4 31  1  0  0  0  0
  4 32  1  0  0  0  0
  5  6  1  0  0  0  0
  5 33  1  0  0  0  0
  5 34  1  0  0  0  0
  6  7  1  0  0  0  0
  7  8  1  0  0  0  0
  7 25  1  0  0  0  0
  7 35  1  0  0  0  0
  8  9  1  0  0  0  0
  8 36  1  0  0  0  0
  8 37  1  0  0  0  0
  9 10  1  0  0  0  0
  9 38  1  0  0  0  0
 10 11  1  0  0  0  0
 10 39  1  0  0  0  0
 10 40  1  0  0  0  0
 11 12  1  0  0  0  0
 11 13  1  0  0  0  0
 11 41  1  0  0  0  0
 12 42  1  0  0  0  0
 13 14  1  0  0  0  0
 13 43  1  0  0  0  0
 13 44  1  0  0  0  0
 14 24  1  0  0  0  0
 14 15  1  0  0  0  0
 15 16  2  0  0  0  0
 15 45  1  0  0  0  0
 16 17  1  0  0  0  0
 17 24  2  0  0  0  0
 17 18  1  0  0  0  0
 18 19  2  0  0  0  0
 18 46  1  0  0  0  0
 19 20  1  0  0  0  0
 19 21  1  0  0  0  0
 20 47  1  0  0  0  0
 20 48  1  0  0  0  0
 20 49  1  0  0  0  0
 21 22  1  0  0  0  0
 21 23  2  0  0  0  0
 22 50  1  0  0  0  0
 22 51  1  0  0  0  0
 22 52  1  0  0  0  0
 23 24  1  0  0  0  0
 23 53  1  0  0  0  0
 25 54  1  0  0  0  0
 25 55  1  0  0  0  0
M  CHG  1   3   1
M  END
> <s_m_source_file>
AV-unprocessed.smi

> <i_m_source_file_index>
1047

> <i_lp_mmshare_version>
43012

> <i_f3d_flags>
0

> <s_epik_input>
W0NIM11bQ0gyXU4xW0NIMl1bQ0gyXU9bQ0BIXShbQ0gyXTEpW0NIMl1bTkhdW0NIMl1bQ0BIXShbT0hdKVtDSDJdbihbY0hdbjIpYyhjMjMpW2NIXWMoW0NIM10pYyhbY0hdMylbQ0gzXQ==

> <s_epik_cmdline>
J2VwaWtfcHl0aG9uJywgJy1waCcsICc3LjAnLCAnLXRuJywgJzgnLCAnLW1hJywgJzIwMCcsICctbWV0YWxfYmluZGluZycsICctaW1hZScsICc8aW5maWxlLm1hZT4nLCAnLW9tYWUnLCAnPG91dGZpbGUubWFlPic=

> <r_epik_Ionization_Penalty>
1.19246

> <r_epik_Ionization_Penalty_Charging>
0.210041

> <r_epik_Ionization_Penalty_Neutral>
0.982415

> <r_epik_State_Penalty>
1.57595

> <r_epik_Charging_Adjusted_Penalty>
1.78599

> <i_epik_Tot_Q>
1

> <i_epik_Tot_abs_Q>
1

> <r_epik_Metal_State_Penalty>
1.46172

> <b_epik_Metal_Only>
0

> <s_lp_Force_Field>
OPLS_2005

> <r_lp_Energy>
33.3203

> <b_lp_Chiralities_Consistent>
1

> <s_lp_Variant>
AV-unprocessed.smi:1047-17

> <Gold.Version>
5.8.1

> <Gold.Id.Protein>
6NUR|6NUR_protein|mol2

> <Gold.PLP.Fitness>
50.7763

> <Gold.PLP.PLP>
-45.3880

> <Gold.PLP.part.hbond>
-2.9718

> <Gold.PLP.part.metal>
0.0000

> <Gold.PLP.part.buried>
1.5968

> <Gold.PLP.part.nonpolar>
-43.6808

> <Gold.PLP.part.repulsive>
0.3717

> <Gold.PLP.ligand.clash>
0.0000

> <Gold.PLP.ligand.torsion>
1.5197

> <Gold.PLP.Chemscore.Hbond>
2.7708

> <Gold.PLP.Chemscore.CHOScore>
0.0000

> <Gold.PLP.Chemscore.Metal>
0.0000

> <Gold.Chemscore.Hbonds>
donor molecule, donor type, donor heavy atom, donor atom, acceptor molecule, acceptor atom, score
      L1  H     3    56       P1 10171  0.93
      L1  H    12    42       P1  7957  0.77
      P1  H  7989  7998       L1    12  0.95

> <Gold.PLP.Chemscore.Internal.Correction>
0.1153

> <Gold.Rescore>
     Score         DG    S(hbond)    S(metal)    S(lipo)     H(rot)  DE(clash)    DE(int)     intcor
     18.89     -22.15       2.04        0.00     141.68       2.62       1.84       1.42       ----

> <Gold.Chemscore.Fitness>
18.8858

> <Gold.Chemscore.DG>
-22.1454

> <Gold.Chemscore.ZeroCoef>
-5.4800

> <Gold.Chemscore.Hbond>
2.0354

> <Gold.Chemscore.Metal>
0.0000

> <Gold.Chemscore.Lipo>
141.6827

> <Gold.Chemscore.Internal_Hbond>
0.0000

> <Gold.Chemscore.DEClash>
1.8350

> <Gold.Chemscore.DEInternal>
1.4245

> <Gold.Chemscore.Rot>
2.6209

> <Gold.Chemscore.Internal.Correction>
   9.000000E+99

> <Gold.Chemscore.Hbonds>
donor molecule, donor type, donor heavy atom, donor atom, acceptor molecule, acceptor atom, score
      L1  H     3    56       P1 10171  0.84
      L1  H    12    42       P1  7957  0.73
      P1  H  7989  7998       L1    12  0.13

> <Gold.Chemscore.Hbond.Weighted>
-6.7981

> <Gold.Chemscore.Metal.Weighted>
-0.0000

> <Gold.Chemscore.Lipo.Weighted>
-16.5769

> <Gold.Chemscore.Internal_Hbond.Weighted>
0.0000

> <Gold.Chemscore.DEClash.Weighted>
1.8350

> <Gold.Chemscore.DEInternal.Weighted>
1.4245

> <Gold.Chemscore.Rot.Weighted>
6.7096

> <Gold.Chemscore.Internal.Correction.Weighted>
   9.000000E+99

> <Gold.Protein.RotatedTorsions>
[ 6907 6896 6895 6894 ] final  -50.22 input  -60.11 | X-H torsion
[ 7974 7965 7964 7962 ] final  -35.89 input  175.53 | X-H torsion
[ 8008 7997 7996 7995 ] final    2.12 input   59.86 | X-H torsion
[ 10167 10162 10161 10158 ] final -175.32 input  -65.29 | X-H torsion
[ 10718 10713 10712 10709 ] final  151.38 input   66.30 | X-H torsion
[ 10763 10752 10751 10750 ] final  -75.10 input  -60.55 | X-H torsion
[ 11005 11000 10999 10996 ] final   47.79 input  -57.11 | X-H torsion

> <Gold.Protein.ActiveResidues>
 VAL166  LYS551  ARG553  GLY616  TRP617  ASP618  TYR619  PRO620  LYS621  CYS622 
 ASP623  PHE694  ASN695  SER759  ASP760  ASP761  ALA762  ILE779  LEU786  VAL792 
 PHE793  MET794  SER795  GLU796  ALA797  LYS798  CYS799  TRP800  GLU811  SER814 

> <Gold.Protein.RotatedAtoms>
  150.8728  134.8105  159.7167 H   0  0  0  0  0  0  0  0  0  0  0  0  # atno 6907 bound_to 6896
  152.4726  134.4919  159.9708 H   0  0  0  0  0  0  0  0  0  0  0  0  # atno 6908 bound_to 6896
  151.5005  133.3467  159.2903 H   0  0  0  0  0  0  0  0  0  0  0  0  # atno 6909 bound_to 6896
  146.0708  140.6213  142.8953 H   0  0  0  0  0  0  0  0  0  0  0  0  # atno 7974 bound_to 7965
  154.6878  140.2646  155.6842 H   0  0  0  0  0  0  0  0  0  0  0  0  # atno 8008 bound_to 7997
  156.2721  140.2797  156.1369 H   0  0  0  0  0  0  0  0  0  0  0  0  # atno 8009 bound_to 7997
  155.0939  140.0373  157.2667 H   0  0  0  0  0  0  0  0  0  0  0  0  # atno 8010 bound_to 7997
  139.5587  144.1924  152.1203 H   0  0  0  0  0  0  0  0  0  0  0  0  # atno 10167 bound_to 10162
  157.2715  131.0818  151.1596 H   0  0  0  0  0  0  0  0  0  0  0  0  # atno 10718 bound_to 10713
  154.4820  135.5842  153.6396 H   0  0  0  0  0  0  0  0  0  0  0  0  # atno 10763 bound_to 10752
  152.9849  135.6092  154.3235 H   0  0  0  0  0  0  0  0  0  0  0  0  # atno 10764 bound_to 10752
  154.3126  135.2845  155.2537 H   0  0  0  0  0  0  0  0  0  0  0  0  # atno 10765 bound_to 10752
  140.1248  134.4782  155.8568 H   0  0  0  0  0  0  0  0  0  0  0  0  # atno 11005 bound_to 11000
  144.7230  140.4436  143.6994 LP  0  0  0  0  0  0  0  0  0  0  0  0  # atno 17320 bound_to 7965
  145.6395  139.1548  143.2924 LP  0  0  0  0  0  0  0  0  0  0  0  0  # atno 17321 bound_to 7965
  140.1433  144.5182  150.6731 LP  0  0  0  0  0  0  0  0  0  0  0  0  # atno 17342 bound_to 10162
  140.6864  143.2352  151.5249 LP  0  0  0  0  0  0  0  0  0  0  0  0  # atno 17343 bound_to 10162
  157.3066  130.6869  149.6193 LP  0  0  0  0  0  0  0  0  0  0  0  0  # atno 17370 bound_to 10713
  155.9663  130.4376  150.5182 LP  0  0  0  0  0  0  0  0  0  0  0  0  # atno 17371 bound_to 10713
  141.2159  133.6774  156.6957 LP  0  0  0  0  0  0  0  0  0  0  0  0  # atno 17394 bound_to 11000
  140.2918  134.8234  157.4023 LP  0  0  0  0  0  0  0  0  0  0  0  0  # atno 17395 bound_to 11000

$$$$
