AV-unprocessed.smi:3195|AV-procd|sdf|12220|dock6
  -GOLD-   2272018 53D 1   1.00000     0.00000
 Structure written by MMmdl.
 29 30  0  0  0  0  0  0  0  0  2 V2000
  152.2587  145.1453  158.9557 C   0  0  0  0  0  0  0  0  0  0  0  0
  152.0883  143.6470  159.2603 C   0  0  2  0  0  0  0  0  0  0  0  0
  151.1187  142.9990  158.2478 C   0  0  0  0  0  0  0  0  0  0  0  0
  149.9368  143.3473  158.2461 O   0  0  0  0  0  0  0  0  0  0  0  0
  151.6389  142.0820  157.4092 N   0  0  0  0  0  0  0  0  0  0  0  0
  150.9872  141.3244  156.3971 C   0  0  0  0  0  0  0  0  0  0  0  0
  149.8024  141.6942  155.8483 N   0  0  0  0  0  0  0  0  0  0  0  0
  149.2467  140.9227  154.8918 C   0  0  0  0  0  0  0  0  0  0  0  0
  149.8342  139.7356  154.4209 C   0  0  0  0  0  0  0  0  0  0  0  0
  151.0612  139.3385  154.9799 C   0  0  0  0  0  0  0  0  0  0  0  0
  151.6484  140.1384  155.9809 C   0  0  0  0  0  0  0  0  0  0  0  0
  152.8422  139.7492  156.5257 O   0  5  0  0  0  0  0  0  0  0  0  0
  151.6419  143.3974  160.7208 C   0  0  0  0  0  0  0  0  0  0  0  0
  152.8113  142.6681  161.3591 C   0  0  0  0  0  0  0  0  0  0  0  0
  153.5016  142.0321  160.1636 C   0  0  0  0  0  0  0  0  0  0  0  0
  153.3805  143.0373  159.1686 O   0  0  0  0  0  0  0  0  0  0  0  0
  151.3161  145.6848  159.0552 H   0  0  0  0  0  0  0  0  0  0  0  0
  152.6280  145.3038  157.9417 H   0  0  0  0  0  0  0  0  0  0  0  0
  152.9742  145.6033  159.6393 H   0  0  0  0  0  0  0  0  0  0  0  0
  152.6264  141.8937  157.5096 H   0  0  0  0  0  0  0  0  0  0  0  0
  148.3044  141.2636  154.4898 H   0  0  0  0  0  0  0  0  0  0  0  0
  149.3568  139.1460  153.6527 H   0  0  0  0  0  0  0  0  0  0  0  0
  151.5437  138.4321  154.6441 H   0  0  0  0  0  0  0  0  0  0  0  0
  151.4099  144.3189  161.2561 H   0  0  0  0  0  0  0  0  0  0  0  0
  150.7520  142.7676  160.7732 H   0  0  0  0  0  0  0  0  0  0  0  0
  153.4820  143.3860  161.8329 H   0  0  0  0  0  0  0  0  0  0  0  0
  152.5043  141.9409  162.1110 H   0  0  0  0  0  0  0  0  0  0  0  0
  154.5441  141.7822  160.3603 H   0  0  0  0  0  0  0  0  0  0  0  0
  152.9821  141.1267  159.8453 H   0  0  0  0  0  0  0  0  0  0  0  0
  1  2  1  0  0  0  0
  1 17  1  0  0  0  0
  1 18  1  0  0  0  0
  1 19  1  0  0  0  0
  2 16  1  0  0  0  0
  2  3  1  0  0  0  0
  2 13  1  0  0  0  0
  3  4  2  0  0  0  0
  3  5  1  0  0  0  0
  5 20  1  0  0  0  0
  5  6  1  0  0  0  0
  6 11  2  0  0  0  0
  6  7  1  0  0  0  0
  7  8  2  0  0  0  0
  8 21  1  0  0  0  0
  8  9  1  0  0  0  0
  9 22  1  0  0  0  0
  9 10  2  0  0  0  0
 10 11  1  0  0  0  0
 10 23  1  0  0  0  0
 11 12  1  0  0  0  0
 13 14  1  0  0  0  0
 13 24  1  0  0  0  0
 13 25  1  0  0  0  0
 14 15  1  0  0  0  0
 14 26  1  0  0  0  0
 14 27  1  0  0  0  0
 15 16  1  0  0  0  0
 15 28  1  0  0  0  0
 15 29  1  0  0  0  0
M  CHG  1  12  -1
M  END
> <s_m_source_file>
AV-unprocessed.smi

> <i_m_source_file_index>
3195

> <i_lp_mmshare_version>
43012

> <i_f3d_flags>
0

> <s_epik_input>
TzFbQ0gyXVtDSDJdW0NIMl1bQ0BAXTEoW0NIM10pQyg9TylbTkhdYzJuW2NIXVtjSF1bY0hdYzJbT0hd

> <s_epik_cmdline>
J2VwaWtfcHl0aG9uJywgJy1waCcsICc3LjAnLCAnLXRuJywgJzgnLCAnLW1hJywgJzIwMCcsICctbWV0YWxfYmluZGluZycsICctaW1hZScsICc8aW5maWxlLm1hZT4nLCAnLW9tYWUnLCAnPG91dGZpbGUubWFlPic=

> <r_epik_Ionization_Penalty>
4.16712

> <r_epik_Ionization_Penalty_Charging>
2.09898

> <r_epik_Ionization_Penalty_Neutral>
2.06814

> <r_epik_State_Penalty>
2.6848

> <r_epik_Charging_Adjusted_Penalty>
4.78378

> <i_epik_Tot_Q>
-1

> <i_epik_Tot_abs_Q>
1

> <r_epik_Metal_State_Penalty>
0.595229

> <b_epik_Metal_Only>
0

> <s_lp_Force_Field>
OPLS_2005

> <r_lp_Energy>
19.5699

> <b_lp_Chiralities_Consistent>
1

> <s_lp_Variant>
AV-unprocessed.smi:3195-8

> <Gold.Version>
5.8.1

> <Gold.Id.Protein>
6NUR|6NUR_protein|mol2

> <Gold.PLP.Fitness>
41.3380

> <Gold.PLP.PLP>
-35.5998

> <Gold.PLP.part.hbond>
-1.0000

> <Gold.PLP.part.metal>
0.0000

> <Gold.PLP.part.buried>
-2.1861

> <Gold.PLP.part.nonpolar>
-33.0152

> <Gold.PLP.part.repulsive>
0.7523

> <Gold.PLP.ligand.clash>
0.0000

> <Gold.PLP.ligand.torsion>
0.1475

> <Gold.PLP.Chemscore.Hbond>
2.0000

> <Gold.PLP.Chemscore.CHOScore>
0.0000

> <Gold.PLP.Chemscore.Metal>
0.0000

> <Gold.Chemscore.Hbonds>
donor molecule, donor type, donor heavy atom, donor atom, acceptor molecule, acceptor atom, score
      P1  H  7997  8009       L1    12  2.00

> <Gold.PLP.Chemscore.Internal.Correction>
0.0332

> <Gold.Rescore>
     Score         DG    S(hbond)    S(metal)    S(lipo)     H(rot)  DE(clash)    DE(int)     intcor
     15.15     -16.53       1.00        0.00      87.84       1.00       0.02       1.37       ----

> <Gold.Chemscore.Fitness>
15.1454

> <Gold.Chemscore.DG>
-16.5328

> <Gold.Chemscore.ZeroCoef>
-5.4800

> <Gold.Chemscore.Hbond>
0.9985

> <Gold.Chemscore.Metal>
0.0000

> <Gold.Chemscore.Lipo>
87.8440

> <Gold.Chemscore.Internal_Hbond>
0.0000

> <Gold.Chemscore.DEClash>
0.0163

> <Gold.Chemscore.DEInternal>
1.3711

> <Gold.Chemscore.Rot>
1.0000

> <Gold.Chemscore.Internal.Correction>
   9.000000E+99

> <Gold.Chemscore.Hbonds>
donor molecule, donor type, donor heavy atom, donor atom, acceptor molecule, acceptor atom, score
      P1  H  7997  8009       L1    12  0.94

> <Gold.Chemscore.Hbond.Weighted>
-3.3351

> <Gold.Chemscore.Metal.Weighted>
-0.0000

> <Gold.Chemscore.Lipo.Weighted>
-10.2777

> <Gold.Chemscore.Internal_Hbond.Weighted>
0.0000

> <Gold.Chemscore.DEClash.Weighted>
0.0163

> <Gold.Chemscore.DEInternal.Weighted>
1.3711

> <Gold.Chemscore.Rot.Weighted>
2.5600

> <Gold.Chemscore.Internal.Correction.Weighted>
   9.000000E+99

> <Gold.Protein.RotatedTorsions>
[ 6907 6896 6895 6894 ] final -161.70 input  -60.11 | X-H torsion
[ 7974 7965 7964 7962 ] final  113.70 input  175.53 | X-H torsion
[ 8008 7997 7996 7995 ] final -162.79 input   59.86 | X-H torsion
[ 10167 10162 10161 10158 ] final   19.59 input  -65.29 | X-H torsion
[ 10718 10713 10712 10709 ] final  122.70 input   66.30 | X-H torsion
[ 10763 10752 10751 10750 ] final  -12.92 input  -60.55 | X-H torsion
[ 11005 11000 10999 10996 ] final  138.38 input  -57.11 | X-H torsion

> <Gold.Protein.ActiveResidues>
 VAL166  LYS551  ARG553  GLY616  TRP617  ASP618  TYR619  PRO620  LYS621  CYS622 
 ASP623  PHE694  ASN695  SER759  ASP760  ASP761  ALA762  ILE779  LEU786  VAL792 
 PHE793  MET794  SER795  GLU796  ALA797  LYS798  CYS799  TRP800  GLU811  SER814 

> <Gold.Protein.RotatedAtoms>
  151.3688  133.3862  159.2697 H   0  0  0  0  0  0  0  0  0  0  0  0  # atno 6907 bound_to 6896
  150.9667  134.9048  159.7774 H   0  0  0  0  0  0  0  0  0  0  0  0  # atno 6908 bound_to 6896
  152.5170  134.3649  159.9350 H   0  0  0  0  0  0  0  0  0  0  0  0  # atno 6909 bound_to 6896
  145.2137  139.2894  143.4255 H   0  0  0  0  0  0  0  0  0  0  0  0  # atno 7974 bound_to 7965
  155.8119  140.0907  157.1899 H   0  0  0  0  0  0  0  0  0  0  0  0  # atno 8008 bound_to 7997
  154.3980  140.1453  156.3456 H   0  0  0  0  0  0  0  0  0  0  0  0  # atno 8009 bound_to 7997
  155.8356  140.3441  155.5602 H   0  0  0  0  0  0  0  0  0  0  0  0  # atno 8010 bound_to 7997
  140.5567  143.9411  150.6614 H   0  0  0  0  0  0  0  0  0  0  0  0  # atno 10167 bound_to 10162
  157.5722  131.1082  150.8346 H   0  0  0  0  0  0  0  0  0  0  0  0  # atno 10718 bound_to 10713
  153.5056  135.7017  153.5808 H   0  0  0  0  0  0  0  0  0  0  0  0  # atno 10763 bound_to 10752
  153.3920  135.3893  155.1930 H   0  0  0  0  0  0  0  0  0  0  0  0  # atno 10764 bound_to 10752
  154.8707  135.3860  154.4531 H   0  0  0  0  0  0  0  0  0  0  0  0  # atno 10765 bound_to 10752
  140.0180  134.9409  157.0415 H   0  0  0  0  0  0  0  0  0  0  0  0  # atno 11005 bound_to 11000
  146.3392  140.2421  142.8596 LP  0  0  0  0  0  0  0  0  0  0  0  0  # atno 17320 bound_to 7965
  144.9831  140.8478  143.5385 LP  0  0  0  0  0  0  0  0  0  0  0  0  # atno 17321 bound_to 7965
  140.2851  143.3362  152.1115 LP  0  0  0  0  0  0  0  0  0  0  0  0  # atno 17342 bound_to 10162
  139.5051  144.6789  151.6059 LP  0  0  0  0  0  0  0  0  0  0  0  0  # atno 17343 bound_to 10162
  156.8814  130.5180  149.5291 LP  0  0  0  0  0  0  0  0  0  0  0  0  # atno 17370 bound_to 10713
  156.0767  130.5787  150.9487 LP  0  0  0  0  0  0  0  0  0  0  0  0  # atno 17371 bound_to 10713
  140.4437  134.1654  155.7176 LP  0  0  0  0  0  0  0  0  0  0  0  0  # atno 17394 bound_to 11000
  141.1755  133.8522  157.1434 LP  0  0  0  0  0  0  0  0  0  0  0  0  # atno 17395 bound_to 11000

$$$$
