AV-unprocessed.smi:2147|AV-procd|sdf|8742|dock5
  -GOLD-   2272011513D 1   1.00000     0.00000
 Structure written by MMmdl.
 41 43  0  0  0  0  0  0  0  0  1 V2000
  145.0695  145.1442  152.4517 C   0  0  0  0  0  0  0  0  0  0  0  0
  144.5327  144.6399  153.7903 C   0  0  0  0  0  0  0  0  0  0  0  0
  143.4535  145.0715  154.1946 O   0  0  0  0  0  0  0  0  0  0  0  0
  145.3532  143.6453  154.5385 C   0  0  0  0  0  0  0  0  0  0  0  0
  145.1343  143.3770  155.9096 C   0  0  0  0  0  0  0  0  0  0  0  0
  145.9256  142.4292  156.5866 C   0  0  0  0  0  0  0  0  0  0  0  0
  146.9491  141.7292  155.9179 C   0  0  0  0  0  0  0  0  0  0  0  0
  147.6723  140.8175  156.6566 O   0  0  0  0  0  0  0  0  0  0  0  0
  148.9801  140.4798  156.2128 C   0  0  0  0  0  0  0  0  0  0  0  0
  149.9897  141.4586  156.8299 C   0  0  2  0  0  0  0  0  0  0  0  0
  150.1437  142.5517  155.9463 O   0  0  0  0  0  0  0  0  0  0  0  0
  151.3586  140.8017  157.0948 C   0  0  0  0  0  0  0  0  0  0  0  0
  151.9401  141.2150  158.3597 N   0  0  0  0  0  0  0  0  0  0  0  0
  152.7368  140.4832  159.1622 C   0  0  0  0  0  0  0  0  0  0  0  0
  153.1656  141.0569  160.2827 N   0  0  0  0  0  0  0  0  0  0  0  0
  152.5805  142.3088  160.1974 C   0  0  0  0  0  0  0  0  0  0  0  0
  152.6410  143.4118  161.0790 C   0  0  0  0  0  0  0  0  0  0  0  0
  151.9500  144.6044  160.7793 C   0  0  0  0  0  0  0  0  0  0  0  0
  151.1881  144.7122  159.5977 C   0  0  0  0  0  0  0  0  0  0  0  0
  151.1128  143.6267  158.7040 C   0  0  0  0  0  0  0  0  0  0  0  0
  151.8056  142.4394  159.0054 C   0  0  0  0  0  0  0  0  0  0  0  0
  147.1713  141.9992  154.5454 C   0  0  0  0  0  0  0  0  0  0  0  0
  146.3805  142.9460  153.8663 C   0  0  0  0  0  0  0  0  0  0  0  0
  146.0308  145.6399  152.5874 H   0  0  0  0  0  0  0  0  0  0  0  0
  144.3768  145.8601  152.0085 H   0  0  0  0  0  0  0  0  0  0  0  0
  145.1958  144.3165  151.7538 H   0  0  0  0  0  0  0  0  0  0  0  0
  144.3616  143.8869  156.4653 H   0  0  0  0  0  0  0  0  0  0  0  0
  145.7433  142.2364  157.6337 H   0  0  0  0  0  0  0  0  0  0  0  0
  149.2335  139.4566  156.4959 H   0  0  0  0  0  0  0  0  0  0  0  0
  149.0198  140.5498  155.1241 H   0  0  0  0  0  0  0  0  0  0  0  0
  149.5834  141.8470  157.7647 H   0  0  0  0  0  0  0  0  0  0  0  0
  149.4766  143.1919  156.1429 H   0  0  0  0  0  0  0  0  0  0  0  0
  151.2599  139.7155  157.1059 H   0  0  0  0  0  0  0  0  0  0  0  0
  152.0595  141.0403  156.2939 H   0  0  0  0  0  0  0  0  0  0  0  0
  153.0175  139.4711  158.9090 H   0  0  0  0  0  0  0  0  0  0  0  0
  153.2205  143.3404  161.9875 H   0  0  0  0  0  0  0  0  0  0  0  0
  152.0045  145.4412  161.4602 H   0  0  0  0  0  0  0  0  0  0  0  0
  150.6611  145.6291  159.3777 H   0  0  0  0  0  0  0  0  0  0  0  0
  150.5285  143.7049  157.7990 H   0  0  0  0  0  0  0  0  0  0  0  0
  147.9442  141.4931  153.9872 H   0  0  0  0  0  0  0  0  0  0  0  0
  146.5743  143.1275  152.8189 H   0  0  0  0  0  0  0  0  0  0  0  0
  1  2  1  0  0  0  0
  1 24  1  0  0  0  0
  1 25  1  0  0  0  0
  1 26  1  0  0  0  0
  2  3  2  0  0  0  0
  2  4  1  0  0  0  0
  4 23  1  0  0  0  0
  4  5  2  0  0  0  0
  5  6  1  0  0  0  0
  5 27  1  0  0  0  0
  6  7  2  0  0  0  0
  6 28  1  0  0  0  0
  7  8  1  0  0  0  0
  7 22  1  0  0  0  0
  8  9  1  0  0  0  0
  9 10  1  0  0  0  0
  9 29  1  0  0  0  0
  9 30  1  0  0  0  0
 10 11  1  0  0  0  0
 10 12  1  0  0  0  0
 10 31  1  0  0  0  0
 11 32  1  0  0  0  0
 12 13  1  0  0  0  0
 12 33  1  0  0  0  0
 12 34  1  0  0  0  0
 13 21  1  0  0  0  0
 13 14  1  0  0  0  0
 14 15  2  0  0  0  0
 14 35  1  0  0  0  0
 15 16  1  0  0  0  0
 16 21  2  0  0  0  0
 16 17  1  0  0  0  0
 17 18  2  0  0  0  0
 17 36  1  0  0  0  0
 18 19  1  0  0  0  0
 18 37  1  0  0  0  0
 19 20  2  0  0  0  0
 19 38  1  0  0  0  0
 20 21  1  0  0  0  0
 20 39  1  0  0  0  0
 22 23  2  0  0  0  0
 22 40  1  0  0  0  0
 23 41  1  0  0  0  0
M  END
> <s_m_source_file>
AV-unprocessed.smi

> <i_m_source_file_index>
2147

> <i_lp_mmshare_version>
43012

> <i_f3d_flags>
0

> <s_epik_input>
W0NIM11DKD1PKWMxW2NIXVtjSF1jKFtjSF1bY0hdMSlPW0NIMl1bQ0BIXShbT0hdKVtDSDJdbihbY0hdbjIpYyhjMjMpW2NIXVtjSF1bY0hdW2NIXTM=

> <s_epik_cmdline>
J2VwaWtfcHl0aG9uJywgJy1waCcsICc3LjAnLCAnLXRuJywgJzgnLCAnLW1hJywgJzIwMCcsICctbWV0YWxfYmluZGluZycsICctaW1hZScsICc8aW5maWxlLm1hZT4nLCAnLW9tYWUnLCAnPG91dGZpbGUubWFlPic=

> <r_lp_tautomer_probability>
0.99995

> <r_epik_Ionization_Penalty>
0.0583018

> <r_epik_Ionization_Penalty_Charging>
0

> <r_epik_Ionization_Penalty_Neutral>
0.0583018

> <r_epik_State_Penalty>
0.0504087

> <r_epik_Charging_Adjusted_Penalty>
0.0504087

> <i_epik_Tot_Q>
0

> <i_epik_Tot_abs_Q>
0

> <r_epik_Metal_State_Penalty>
5.26129e-05

> <b_epik_Metal_Only>
0

> <s_lp_Force_Field>
OPLS_2005

> <r_lp_Energy>
19.9149

> <b_lp_Chiralities_Consistent>
1

> <s_lp_Variant>
AV-unprocessed.smi:2147-1

> <Gold.Version>
5.8.1

> <Gold.Id.Protein>
6NUR|6NUR_protein|mol2

> <Gold.PLP.Fitness>
49.7820

> <Gold.PLP.PLP>
-50.6995

> <Gold.PLP.part.hbond>
-1.1326

> <Gold.PLP.part.metal>
0.0000

> <Gold.PLP.part.buried>
-8.3407

> <Gold.PLP.part.nonpolar>
-40.9170

> <Gold.PLP.part.repulsive>
0.1402

> <Gold.PLP.ligand.clash>
0.0000

> <Gold.PLP.ligand.torsion>
1.9712

> <Gold.PLP.Chemscore.Hbond>
0.9920

> <Gold.PLP.Chemscore.CHOScore>
0.0000

> <Gold.PLP.Chemscore.Metal>
0.0000

> <Gold.Chemscore.Hbonds>
donor molecule, donor type, donor heavy atom, donor atom, acceptor molecule, acceptor atom, score
      L1  H    11    32       P1  8028  0.85

> <Gold.PLP.Chemscore.Internal.Correction>
0.0489

> <Gold.Rescore>
     Score         DG    S(hbond)    S(metal)    S(lipo)     H(rot)  DE(clash)    DE(int)     intcor
     14.74     -16.90       0.98        0.00     122.12       2.40       0.16       2.00       ----

> <Gold.Chemscore.Fitness>
14.7419

> <Gold.Chemscore.DG>
-16.9045

> <Gold.Chemscore.ZeroCoef>
-5.4800

> <Gold.Chemscore.Hbond>
0.9826

> <Gold.Chemscore.Metal>
0.0000

> <Gold.Chemscore.Lipo>
122.1183

> <Gold.Chemscore.Internal_Hbond>
0.0000

> <Gold.Chemscore.DEClash>
0.1607

> <Gold.Chemscore.DEInternal>
2.0019

> <Gold.Chemscore.Rot>
2.4005

> <Gold.Chemscore.Internal.Correction>
   9.000000E+99

> <Gold.Chemscore.Hbonds>
donor molecule, donor type, donor heavy atom, donor atom, acceptor molecule, acceptor atom, score
      L1  H    11    32       P1  8028  0.83

> <Gold.Chemscore.Hbond.Weighted>
-3.2820

> <Gold.Chemscore.Metal.Weighted>
-0.0000

> <Gold.Chemscore.Lipo.Weighted>
-14.2878

> <Gold.Chemscore.Internal_Hbond.Weighted>
0.0000

> <Gold.Chemscore.DEClash.Weighted>
0.1607

> <Gold.Chemscore.DEInternal.Weighted>
2.0019

> <Gold.Chemscore.Rot.Weighted>
6.1453

> <Gold.Chemscore.Internal.Correction.Weighted>
   9.000000E+99

> <Gold.Protein.RotatedTorsions>
[ 6907 6896 6895 6894 ] final  -50.39 input  -60.11 | X-H torsion
[ 7974 7965 7964 7962 ] final  -25.24 input  175.53 | X-H torsion
[ 8008 7997 7996 7995 ] final  -95.04 input   59.86 | X-H torsion
[ 10167 10162 10161 10158 ] final  -28.15 input  -65.29 | X-H torsion
[ 10718 10713 10712 10709 ] final  -85.68 input   66.30 | X-H torsion
[ 10763 10752 10751 10750 ] final  -46.22 input  -60.55 | X-H torsion
[ 11005 11000 10999 10996 ] final  174.47 input  -57.11 | X-H torsion

> <Gold.Protein.ActiveResidues>
 VAL166  LYS551  ARG553  GLY616  TRP617  ASP618  TYR619  PRO620  LYS621  CYS622 
 ASP623  PHE694  ASN695  SER759  ASP760  ASP761  ALA762  ILE779  LEU786  VAL792 
 PHE793  MET794  SER795  GLU796  ALA797  LYS798  CYS799  TRP800  GLU811  SER814 

> <Gold.Protein.RotatedAtoms>
  150.8712  134.8086  159.7156 H   0  0  0  0  0  0  0  0  0  0  0  0  # atno 6907 bound_to 6896
  152.4716  134.4943  159.9715 H   0  0  0  0  0  0  0  0  0  0  0  0  # atno 6908 bound_to 6896
  151.5032  133.3461  159.2908 H   0  0  0  0  0  0  0  0  0  0  0  0  # atno 6909 bound_to 6896
  146.1504  140.4860  142.8614 H   0  0  0  0  0  0  0  0  0  0  0  0  # atno 7974 bound_to 7965
  154.7561  140.0484  157.0934 H   0  0  0  0  0  0  0  0  0  0  0  0  # atno 8008 bound_to 7997
  154.9996  140.3123  155.4853 H   0  0  0  0  0  0  0  0  0  0  0  0  # atno 8009 bound_to 7997
  156.2895  140.2204  156.5105 H   0  0  0  0  0  0  0  0  0  0  0  0  # atno 8010 bound_to 7997
  140.7272  143.4033  151.1227 H   0  0  0  0  0  0  0  0  0  0  0  0  # atno 10167 bound_to 10162
  155.9995  130.4739  150.4600 H   0  0  0  0  0  0  0  0  0  0  0  0  # atno 10718 bound_to 10713
  154.0414  135.6643  153.4790 H   0  0  0  0  0  0  0  0  0  0  0  0  # atno 10763 bound_to 10752
  153.0500  135.5090  154.7838 H   0  0  0  0  0  0  0  0  0  0  0  0  # atno 10764 bound_to 10752
  154.6815  135.3046  154.9571 H   0  0  0  0  0  0  0  0  0  0  0  0  # atno 10765 bound_to 10752
  140.3517  134.7189  157.4272 H   0  0  0  0  0  0  0  0  0  0  0  0  # atno 11005 bound_to 11000
  144.7897  140.6006  143.6550 LP  0  0  0  0  0  0  0  0  0  0  0  0  # atno 17320 bound_to 7965
  145.4837  139.1493  143.3747 LP  0  0  0  0  0  0  0  0  0  0  0  0  # atno 17321 bound_to 7965
  139.7656  143.8570  152.3110 LP  0  0  0  0  0  0  0  0  0  0  0  0  # atno 17342 bound_to 10162
  139.8471  144.7182  150.9260 LP  0  0  0  0  0  0  0  0  0  0  0  0  # atno 17343 bound_to 10162
  157.2625  131.0570  151.2311 LP  0  0  0  0  0  0  0  0  0  0  0  0  # atno 17370 bound_to 10713
  157.3421  130.7038  149.6388 LP  0  0  0  0  0  0  0  0  0  0  0  0  # atno 17371 bound_to 10713
  140.0698  134.5879  155.8655 LP  0  0  0  0  0  0  0  0  0  0  0  0  # atno 17394 bound_to 11000
  141.2010  133.6616  156.5927 LP  0  0  0  0  0  0  0  0  0  0  0  0  # atno 17395 bound_to 11000

$$$$
