AV-unprocessed.smi:3298|AV-procd|sdf|12641|dock2
  -GOLD-   2272018573D 1   1.00000     0.00000
 Structure written by MMmdl.
 35 36  0  0  0  0  0  0  0  0  1 V2000
  153.2976  141.3499  160.5227 C   0  0  0  0  0  0  0  0  0  0  0  0
  152.5665  142.4604  159.7975 C   0  0  0  0  0  0  0  0  0  0  0  0
  151.7622  142.1833  158.6719 C   0  0  0  0  0  0  0  0  0  0  0  0
  151.1111  143.2520  158.0215 C   0  0  0  0  0  0  0  0  0  0  0  0
  150.2920  142.9464  156.9010 N   0  0  0  0  0  0  0  0  0  0  0  0
  150.3193  141.8560  156.1152 C   0  0  0  0  0  0  0  0  0  0  0  0
  151.0539  140.8808  156.2733 O   0  0  0  0  0  0  0  0  0  0  0  0
  149.4175  141.9475  155.1276 N   0  0  0  0  0  0  0  0  0  0  0  0
  149.1918  140.9292  154.1077 C   0  0  1  0  0  0  0  0  0  0  0  0
  149.2111  139.5554  154.7192 C   0  0  0  0  0  0  0  0  0  0  0  0
  148.0751  138.8896  154.5249 C   0  0  0  0  0  0  0  0  0  0  0  0
  147.0493  139.6880  153.7642 C   0  0  2  0  0  0  0  0  0  0  0  0
  146.5607  138.9480  152.5081 C   0  0  0  0  0  0  0  0  0  0  0  0
  147.6561  138.6027  151.6872 O   0  0  0  0  0  0  0  0  0  0  0  0
  147.7835  141.0214  153.4635 C   0  0  0  0  0  0  0  0  0  0  0  0
  151.2781  144.5548  158.5493 C   0  0  0  0  0  0  0  0  0  0  0  0
  152.1019  144.7233  159.6799 C   0  0  0  0  0  0  0  0  0  0  0  0
  152.7385  143.7041  160.2947 N   0  0  0  0  0  0  0  0  0  0  0  0
  149.9718  140.9798  153.3459 H   0  0  0  0  0  0  0  0  0  0  0  0
  146.2094  139.8672  154.4369 H   0  0  0  0  0  0  0  0  0  0  0  0
  153.0135  140.3709  160.1361 H   0  0  0  0  0  0  0  0  0  0  0  0
  153.0670  141.3734  161.5883 H   0  0  0  0  0  0  0  0  0  0  0  0
  154.3749  141.4652  160.4011 H   0  0  0  0  0  0  0  0  0  0  0  0
  151.6529  141.1708  158.3109 H   0  0  0  0  0  0  0  0  0  0  0  0
  149.5686  143.6205  156.6990 H   0  0  0  0  0  0  0  0  0  0  0  0
  148.8507  142.7810  155.0725 H   0  0  0  0  0  0  0  0  0  0  0  0
  150.0737  139.1712  155.2436 H   0  0  0  0  0  0  0  0  0  0  0  0
  147.8760  137.8885  154.8776 H   0  0  0  0  0  0  0  0  0  0  0  0
  146.0103  138.0453  152.7755 H   0  0  0  0  0  0  0  0  0  0  0  0
  145.8846  139.5806  151.9321 H   0  0  0  0  0  0  0  0  0  0  0  0
  148.3586  139.2135  151.8505 H   0  0  0  0  0  0  0  0  0  0  0  0
  147.2098  141.8637  153.8528 H   0  0  0  0  0  0  0  0  0  0  0  0
  147.8818  141.1852  152.3896 H   0  0  0  0  0  0  0  0  0  0  0  0
  150.7865  145.4157  158.1234 H   0  0  0  0  0  0  0  0  0  0  0  0
  152.2476  145.7044  160.1066 H   0  0  0  0  0  0  0  0  0  0  0  0
  1  2  1  0  0  0  0
  1 21  1  0  0  0  0
  1 22  1  0  0  0  0
  1 23  1  0  0  0  0
  2 18  1  0  0  0  0
  2  3  2  0  0  0  0
  3  4  1  0  0  0  0
  3 24  1  0  0  0  0
  4  5  1  0  0  0  0
  4 16  2  0  0  0  0
  5  6  1  0  0  0  0
  5 25  1  0  0  0  0
  6  7  2  0  0  0  0
  6  8  1  0  0  0  0
  8  9  1  0  0  0  0
  8 26  1  0  0  0  0
  9 19  1  0  0  0  0
  9 15  1  0  0  0  0
  9 10  1  0  0  0  0
 10 11  2  0  0  0  0
 10 27  1  0  0  0  0
 11 12  1  0  0  0  0
 11 28  1  0  0  0  0
 12 20  1  0  0  0  0
 12 13  1  0  0  0  0
 12 15  1  0  0  0  0
 13 14  1  0  0  0  0
 13 29  1  0  0  0  0
 13 30  1  0  0  0  0
 14 31  1  0  0  0  0
 15 32  1  0  0  0  0
 15 33  1  0  0  0  0
 16 17  1  0  0  0  0
 16 34  1  0  0  0  0
 17 18  2  0  0  0  0
 17 35  1  0  0  0  0
M  END
> <s_m_source_file>
AV-unprocessed.smi

> <i_m_source_file_index>
3298

> <i_lp_mmshare_version>
43012

> <i_f3d_flags>
0

> <s_epik_input>
W0NIM11jMVtjSF1jKFtjSF1bY0hdbjEpW05IXUMoPU8pW05IXVtDQEBIXTJbQ0hdPVtDSF1bQ0BASF0oW0NIMl0yKVtDSDJdW09IXQ==

> <s_epik_cmdline>
J2VwaWtfcHl0aG9uJywgJy1waCcsICc3LjAnLCAnLXRuJywgJzgnLCAnLW1hJywgJzIwMCcsICctbWV0YWxfYmluZGluZycsICctaW1hZScsICc8aW5maWxlLm1hZT4nLCAnLW9tYWUnLCAnPG91dGZpbGUubWFlPic=

> <r_epik_Ionization_Penalty>
0.379275

> <r_epik_Ionization_Penalty_Charging>
0

> <r_epik_Ionization_Penalty_Neutral>
0.379275

> <r_epik_State_Penalty>
0.377195

> <r_epik_Charging_Adjusted_Penalty>
0.377195

> <i_epik_Tot_Q>
0

> <i_epik_Tot_abs_Q>
0

> <r_epik_Metal_State_Penalty>
0.22815

> <b_epik_Metal_Only>
0

> <s_lp_Force_Field>
OPLS_2005

> <r_lp_Energy>
21.1615

> <b_lp_Chiralities_Consistent>
1

> <s_lp_Variant>
AV-unprocessed.smi:3298-2

> <Gold.Version>
5.8.1

> <Gold.Id.Protein>
6NUR|6NUR_protein|mol2

> <Gold.PLP.Fitness>
51.2220

> <Gold.PLP.PLP>
-41.0366

> <Gold.PLP.part.hbond>
-4.8120

> <Gold.PLP.part.metal>
0.0000

> <Gold.PLP.part.buried>
-2.5393

> <Gold.PLP.part.nonpolar>
-33.7550

> <Gold.PLP.part.repulsive>
0.2654

> <Gold.PLP.ligand.clash>
0.0000

> <Gold.PLP.ligand.torsion>
0.3768

> <Gold.PLP.Chemscore.Hbond>
3.6409

> <Gold.PLP.Chemscore.CHOScore>
0.0000

> <Gold.PLP.Chemscore.Metal>
0.0000

> <Gold.Chemscore.Hbonds>
donor molecule, donor type, donor heavy atom, donor atom, acceptor molecule, acceptor atom, score
      L1  H     5    25       P1  8028  1.00
      L1  H     8    26       P1  8028  0.82
      L1  H    14    31       P1  7957  0.85
      P1  H  7954  7966       L1    14  0.96

> <Gold.PLP.Chemscore.Internal.Correction>
0.0165

> <Gold.Rescore>
     Score         DG    S(hbond)    S(metal)    S(lipo)     H(rot)  DE(clash)    DE(int)     intcor
     19.13     -22.83       2.86        0.00     105.65       1.78       0.74       2.96       ----

> <Gold.Chemscore.Fitness>
19.1280

> <Gold.Chemscore.DG>
-22.8282

> <Gold.Chemscore.ZeroCoef>
-5.4800

> <Gold.Chemscore.Hbond>
2.8571

> <Gold.Chemscore.Metal>
0.0000

> <Gold.Chemscore.Lipo>
105.6509

> <Gold.Chemscore.Internal_Hbond>
0.0000

> <Gold.Chemscore.DEClash>
0.7365

> <Gold.Chemscore.DEInternal>
2.9637

> <Gold.Chemscore.Rot>
1.7796

> <Gold.Chemscore.Internal.Correction>
   9.000000E+99

> <Gold.Chemscore.Hbonds>
donor molecule, donor type, donor heavy atom, donor atom, acceptor molecule, acceptor atom, score
      L1  H     5    25       P1  8028  0.94
      L1  H     8    26       P1  8028  0.78
      L1  H    14    31       P1  7957  0.83
      P1  H  7954  7966       L1    14  0.27

> <Gold.Chemscore.Hbond.Weighted>
-9.5429

> <Gold.Chemscore.Metal.Weighted>
-0.0000

> <Gold.Chemscore.Lipo.Weighted>
-12.3612

> <Gold.Chemscore.Internal_Hbond.Weighted>
0.0000

> <Gold.Chemscore.DEClash.Weighted>
0.7365

> <Gold.Chemscore.DEInternal.Weighted>
2.9637

> <Gold.Chemscore.Rot.Weighted>
4.5558

> <Gold.Chemscore.Internal.Correction.Weighted>
   9.000000E+99

> <Gold.Protein.RotatedTorsions>
[ 6907 6896 6895 6894 ] final   29.45 input  -60.11 | X-H torsion
[ 7974 7965 7964 7962 ] final   87.56 input  175.53 | X-H torsion
[ 8008 7997 7996 7995 ] final  -85.68 input   59.86 | X-H torsion
[ 10167 10162 10161 10158 ] final   -8.90 input  -65.29 | X-H torsion
[ 10718 10713 10712 10709 ] final  113.24 input   66.30 | X-H torsion
[ 10763 10752 10751 10750 ] final -118.75 input  -60.55 | X-H torsion
[ 11005 11000 10999 10996 ] final   47.63 input  -57.11 | X-H torsion

> <Gold.Protein.ActiveResidues>
 VAL166  LYS551  ARG553  GLY616  TRP617  ASP618  TYR619  PRO620  LYS621  CYS622 
 ASP623  PHE694  ASN695  SER759  ASP760  ASP761  ALA762  ILE779  LEU786  VAL792 
 PHE793  MET794  SER795  GLU796  ALA797  LYS798  CYS799  TRP800  GLU811  SER814 

> <Gold.Protein.RotatedAtoms>
  152.0317  134.9763  160.0572 H   0  0  0  0  0  0  0  0  0  0  0  0  # atno 6907 bound_to 6896
  152.1237  133.4363  159.4696 H   0  0  0  0  0  0  0  0  0  0  0  0  # atno 6908 bound_to 6896
  150.6851  134.2422  159.4520 H   0  0  0  0  0  0  0  0  0  0  0  0  # atno 6909 bound_to 6896
  145.5573  139.2300  143.2479 H   0  0  0  0  0  0  0  0  0  0  0  0  # atno 7974 bound_to 7965
  154.6434  140.0588  156.9872 H   0  0  0  0  0  0  0  0  0  0  0  0  # atno 8008 bound_to 7997
  155.1482  140.3271  155.4418 H   0  0  0  0  0  0  0  0  0  0  0  0  # atno 8009 bound_to 7997
  156.2542  140.1952  156.6595 H   0  0  0  0  0  0  0  0  0  0  0  0  # atno 8010 bound_to 7997
  140.7072  143.5917  150.8886 H   0  0  0  0  0  0  0  0  0  0  0  0  # atno 10167 bound_to 10162
  157.6349  131.0980  150.7012 H   0  0  0  0  0  0  0  0  0  0  0  0  # atno 10718 bound_to 10713
  154.8597  135.4263  154.2189 H   0  0  0  0  0  0  0  0  0  0  0  0  # atno 10763 bound_to 10752
  153.3198  135.6981  153.7046 H   0  0  0  0  0  0  0  0  0  0  0  0  # atno 10764 bound_to 10752
  153.6106  135.3520  155.2951 H   0  0  0  0  0  0  0  0  0  0  0  0  # atno 10765 bound_to 10752
  140.1262  134.4765  155.8558 H   0  0  0  0  0  0  0  0  0  0  0  0  # atno 11005 bound_to 11000
  146.1875  140.6397  142.9160 LP  0  0  0  0  0  0  0  0  0  0  0  0  # atno 17320 bound_to 7965
  144.7500  140.5166  143.6808 LP  0  0  0  0  0  0  0  0  0  0  0  0  # atno 17321 bound_to 7965
  139.9643  143.6128  152.2993 LP  0  0  0  0  0  0  0  0  0  0  0  0  # atno 17342 bound_to 10162
  139.6692  144.7661  151.1815 LP  0  0  0  0  0  0  0  0  0  0  0  0  # atno 17343 bound_to 10162
  156.7345  130.4720  149.5492 LP  0  0  0  0  0  0  0  0  0  0  0  0  # atno 17370 bound_to 10713
  156.1580  130.6355  151.0682 LP  0  0  0  0  0  0  0  0  0  0  0  0  # atno 17371 bound_to 10713
  141.2161  133.6778  156.6982 LP  0  0  0  0  0  0  0  0  0  0  0  0  # atno 17394 bound_to 11000
  140.2901  134.8247  157.4009 LP  0  0  0  0  0  0  0  0  0  0  0  0  # atno 17395 bound_to 11000

$$$$
