AV-unprocessed.smi:1593|AV-procd|sdf|6410|dock10
  -GOLD-   22720 7 43D 1   1.00000     0.00000
 Structure written by MMmdl.
 37 38  0  0  0  0  0  0  0  0  2 V2000
  150.9525  141.9685  156.8840 C   0  0  0  0  0  0  0  0  0  0  0  0
  150.6912  140.8733  155.9078 C   0  0  0  0  0  0  0  0  0  0  0  0
  149.5782  140.4919  155.2126 C   0  0  0  0  0  0  0  0  0  0  0  0
  150.0355  139.3733  154.4666 C   0  0  0  0  0  0  0  0  0  0  0  0
  149.1625  138.6731  153.5954 N   0  0  0  0  0  0  0  0  0  0  0  0
  147.8222  138.7558  153.5421 C   0  0  0  0  0  0  0  0  0  0  0  0
  147.1261  139.4806  154.2538 O   0  0  0  0  0  0  0  0  0  0  0  0
  147.3169  137.9384  152.6069 N   0  0  0  0  0  0  0  0  0  0  0  0
  145.8973  137.8055  152.3002 C   0  0  0  0  0  0  0  0  0  0  0  0
  145.3408  136.4472  152.7693 C   0  0  0  0  0  0  0  0  0  0  0  0
  146.1354  135.3034  152.2574 N   0  3  0  0  0  0  0  0  0  0  0  0
  146.2906  134.2289  153.2670 C   0  0  0  0  0  0  0  0  0  0  0  0
  147.1564  133.0855  152.7114 C   0  0  0  0  0  0  0  0  0  0  0  0
  146.5764  132.5864  151.5130 O   0  0  0  0  0  0  0  0  0  0  0  0
  146.5035  133.5844  150.5026 C   0  0  0  0  0  0  0  0  0  0  0  0
  145.6154  134.7442  150.9844 C   0  0  0  0  0  0  0  0  0  0  0  0
  151.3116  139.0966  154.6866 N   0  0  0  0  0  0  0  0  0  0  0  0
  151.7384  140.0566  155.6117 O   0  0  0  0  0  0  0  0  0  0  0  0
  150.0517  142.5563  157.0615 H   0  0  0  0  0  0  0  0  0  0  0  0
  151.7265  142.6399  156.5122 H   0  0  0  0  0  0  0  0  0  0  0  0
  151.2857  141.5627  157.8394 H   0  0  0  0  0  0  0  0  0  0  0  0
  148.5972  140.9429  155.2359 H   0  0  0  0  0  0  0  0  0  0  0  0
  149.6067  138.0379  152.9490 H   0  0  0  0  0  0  0  0  0  0  0  0
  147.9579  137.3772  152.0646 H   0  0  0  0  0  0  0  0  0  0  0  0
  145.3567  138.6374  152.7523 H   0  0  0  0  0  0  0  0  0  0  0  0
  145.7734  137.9050  151.2216 H   0  0  0  0  0  0  0  0  0  0  0  0
  145.3578  136.4344  153.8603 H   0  0  0  0  0  0  0  0  0  0  0  0
  144.2968  136.3247  152.4773 H   0  0  0  0  0  0  0  0  0  0  0  0
  146.7529  134.6310  154.1692 H   0  0  0  0  0  0  0  0  0  0  0  0
  145.3078  133.8493  153.5509 H   0  0  0  0  0  0  0  0  0  0  0  0
  148.1767  133.4240  152.5239 H   0  0  0  0  0  0  0  0  0  0  0  0
  147.2184  132.2753  153.4380 H   0  0  0  0  0  0  0  0  0  0  0  0
  147.5046  133.9381  150.2503 H   0  0  0  0  0  0  0  0  0  0  0  0
  146.0854  133.1417  149.5983 H   0  0  0  0  0  0  0  0  0  0  0  0
  144.5927  134.3922  151.1290 H   0  0  0  0  0  0  0  0  0  0  0  0
  145.5810  135.5129  150.2131 H   0  0  0  0  0  0  0  0  0  0  0  0
  147.0642  135.6542  152.0717 H   0  0  0  0  0  0  0  0  0  0  0  0
  1  2  1  0  0  0  0
  1 19  1  0  0  0  0
  1 20  1  0  0  0  0
  1 21  1  0  0  0  0
  2 18  1  0  0  0  0
  2  3  2  0  0  0  0
  3  4  1  0  0  0  0
  3 22  1  0  0  0  0
  4  5  1  0  0  0  0
  4 17  2  0  0  0  0
  5  6  1  0  0  0  0
  5 23  1  0  0  0  0
  6  7  2  0  0  0  0
  6  8  1  0  0  0  0
  8  9  1  0  0  0  0
  8 24  1  0  0  0  0
  9 10  1  0  0  0  0
  9 25  1  0  0  0  0
  9 26  1  0  0  0  0
 10 11  1  0  0  0  0
 10 27  1  0  0  0  0
 10 28  1  0  0  0  0
 11 16  1  0  0  0  0
 11 12  1  0  0  0  0
 11 37  1  0  0  0  0
 12 13  1  0  0  0  0
 12 29  1  0  0  0  0
 12 30  1  0  0  0  0
 13 14  1  0  0  0  0
 13 31  1  0  0  0  0
 13 32  1  0  0  0  0
 14 15  1  0  0  0  0
 15 16  1  0  0  0  0
 15 33  1  0  0  0  0
 15 34  1  0  0  0  0
 16 35  1  0  0  0  0
 16 36  1  0  0  0  0
 17 18  1  0  0  0  0
M  CHG  1  11   1
M  END
> <s_m_source_file>
AV-unprocessed.smi

> <i_m_source_file_index>
1593

> <i_lp_mmshare_version>
43012

> <i_f3d_flags>
0

> <s_epik_input>
W0NIM11jMVtjSF1jKG5vMSlbTkhdQyg9TylbTkhdW0NIMl1bQ0gyXU4yW0NIMl1bQ0gyXU9bQ0gyXVtDSDJdMg==

> <s_epik_cmdline>
J2VwaWtfcHl0aG9uJywgJy1waCcsICc3LjAnLCAnLXRuJywgJzgnLCAnLW1hJywgJzIwMCcsICctbWV0YWxfYmluZGluZycsICctaW1hZScsICc8aW5maWxlLm1hZT4nLCAnLW9tYWUnLCAnPG91dGZpbGUubWFlPic=

> <r_epik_Ionization_Penalty>
0.707076

> <r_epik_Ionization_Penalty_Charging>
0.707039

> <r_epik_Ionization_Penalty_Neutral>
3.67886e-05

> <r_epik_State_Penalty>
0.730276

> <r_epik_Charging_Adjusted_Penalty>
1.43732

> <i_epik_Tot_Q>
1

> <i_epik_Tot_abs_Q>
1

> <r_epik_Metal_State_Penalty>
0.743216

> <b_epik_Metal_Only>
0

> <s_lp_Force_Field>
OPLS_2005

> <r_lp_Energy>
12.0314

> <b_lp_Chiralities_Consistent>
1

> <s_lp_Variant>
AV-unprocessed.smi:1593-2

> <Gold.Version>
5.8.1

> <Gold.Id.Protein>
6NUR|6NUR_protein|mol2

> <Gold.PLP.Fitness>
38.8614

> <Gold.PLP.PLP>
-29.6090

> <Gold.PLP.part.hbond>
-5.8053

> <Gold.PLP.part.metal>
0.0000

> <Gold.PLP.part.buried>
-2.0692

> <Gold.PLP.part.nonpolar>
-20.7008

> <Gold.PLP.part.repulsive>
0.5599

> <Gold.PLP.ligand.clash>
0.0000

> <Gold.PLP.ligand.torsion>
0.6037

> <Gold.PLP.Chemscore.Hbond>
3.4827

> <Gold.PLP.Chemscore.CHOScore>
0.0000

> <Gold.PLP.Chemscore.Metal>
0.0000

> <Gold.Chemscore.Hbonds>
donor molecule, donor type, donor heavy atom, donor atom, acceptor molecule, acceptor atom, score
      L1  H     5    23       P1  7948  0.48
      L1  H     8    24       P1  7948  0.94
      L1  H    11    37       P1  7948  2.00

> <Gold.PLP.Chemscore.Internal.Correction>
0.0117

> <Gold.Rescore>
     Score         DG    S(hbond)    S(metal)    S(lipo)     H(rot)  DE(clash)    DE(int)     intcor
     13.37     -15.39       2.33        0.00      54.18       1.65       0.07       1.94       ----

> <Gold.Chemscore.Fitness>
13.3721

> <Gold.Chemscore.DG>
-15.3900

> <Gold.Chemscore.ZeroCoef>
-5.4800

> <Gold.Chemscore.Hbond>
2.3349

> <Gold.Chemscore.Metal>
0.0000

> <Gold.Chemscore.Lipo>
54.1826

> <Gold.Chemscore.Internal_Hbond>
0.0000

> <Gold.Chemscore.DEClash>
0.0743

> <Gold.Chemscore.DEInternal>
1.9436

> <Gold.Chemscore.Rot>
1.6516

> <Gold.Chemscore.Internal.Correction>
   9.000000E+99

> <Gold.Chemscore.Hbonds>
donor molecule, donor type, donor heavy atom, donor atom, acceptor molecule, acceptor atom, score
      L1  H     5    23       P1  7948  0.36
      L1  H     8    24       P1  7948  0.89
      L1  H    11    37       P1  7948  0.99

> <Gold.Chemscore.Hbond.Weighted>
-7.7987

> <Gold.Chemscore.Metal.Weighted>
-0.0000

> <Gold.Chemscore.Lipo.Weighted>
-6.3394

> <Gold.Chemscore.Internal_Hbond.Weighted>
0.0000

> <Gold.Chemscore.DEClash.Weighted>
0.0743

> <Gold.Chemscore.DEInternal.Weighted>
1.9436

> <Gold.Chemscore.Rot.Weighted>
4.2281

> <Gold.Chemscore.Internal.Correction.Weighted>
   9.000000E+99

> <Gold.Protein.RotatedTorsions>
[ 6907 6896 6895 6894 ] final  123.86 input  -60.11 | X-H torsion
[ 7974 7965 7964 7962 ] final  -98.05 input  175.53 | X-H torsion
[ 8008 7997 7996 7995 ] final -119.77 input   59.86 | X-H torsion
[ 10167 10162 10161 10158 ] final  -20.65 input  -65.29 | X-H torsion
[ 10718 10713 10712 10709 ] final  167.17 input   66.30 | X-H torsion
[ 10763 10752 10751 10750 ] final  -65.94 input  -60.55 | X-H torsion
[ 11005 11000 10999 10996 ] final   15.76 input  -57.11 | X-H torsion

> <Gold.Protein.ActiveResidues>
 VAL166  LYS551  ARG553  GLY616  TRP617  ASP618  TYR619  PRO620  LYS621  CYS622 
 ASP623  PHE694  ASN695  SER759  ASP760  ASP761  ALA762  ILE779  LEU786  VAL792 
 PHE793  MET794  SER795  GLU796  ALA797  LYS798  CYS799  TRP800  GLU811  SER814 

> <Gold.Protein.RotatedAtoms>
  152.4126  133.6988  159.6411 H   0  0  0  0  0  0  0  0  0  0  0  0  # atno 6907 bound_to 6896
  150.8005  133.8596  159.3237 H   0  0  0  0  0  0  0  0  0  0  0  0  # atno 6908 bound_to 6896
  151.6335  135.1022  160.0178 H   0  0  0  0  0  0  0  0  0  0  0  0  # atno 6909 bound_to 6896
  145.3257  140.9431  143.2690 H   0  0  0  0  0  0  0  0  0  0  0  0  # atno 7974 bound_to 7965
  155.1211  140.0398  157.2750 H   0  0  0  0  0  0  0  0  0  0  0  0  # atno 8008 bound_to 7997
  154.6613  140.2591  155.7080 H   0  0  0  0  0  0  0  0  0  0  0  0  # atno 8009 bound_to 7997
  156.2620  140.2816  156.1086 H   0  0  0  0  0  0  0  0  0  0  0  0  # atno 8010 bound_to 7997
  140.7277  143.4702  151.0257 H   0  0  0  0  0  0  0  0  0  0  0  0  # atno 10167 bound_to 10162
  157.0553  131.0325  151.2666 H   0  0  0  0  0  0  0  0  0  0  0  0  # atno 10718 bound_to 10713
  154.3524  135.6133  153.5649 H   0  0  0  0  0  0  0  0  0  0  0  0  # atno 10763 bound_to 10752
  152.9797  135.5795  154.4727 H   0  0  0  0  0  0  0  0  0  0  0  0  # atno 10764 bound_to 10752
  154.4451  135.2851  155.1798 H   0  0  0  0  0  0  0  0  0  0  0  0  # atno 10765 bound_to 10752
  140.4547  134.1189  155.7707 H   0  0  0  0  0  0  0  0  0  0  0  0  # atno 11005 bound_to 11000
  144.8904  139.4782  143.6680 LP  0  0  0  0  0  0  0  0  0  0  0  0  # atno 17320 bound_to 7965
  146.3065  139.7598  142.9052 LP  0  0  0  0  0  0  0  0  0  0  0  0  # atno 17321 bound_to 7965
  139.8394  143.7585  152.3180 LP  0  0  0  0  0  0  0  0  0  0  0  0  # atno 17342 bound_to 10162
  139.7728  144.7471  151.0200 LP  0  0  0  0  0  0  0  0  0  0  0  0  # atno 17343 bound_to 10162
  157.4998  130.7873  149.7592 LP  0  0  0  0  0  0  0  0  0  0  0  0  # atno 17370 bound_to 10713
  155.9995  130.3888  150.2662 LP  0  0  0  0  0  0  0  0  0  0  0  0  # atno 17371 bound_to 10713
  141.1648  133.8723  157.1745 LP  0  0  0  0  0  0  0  0  0  0  0  0  # atno 17394 bound_to 11000
  139.9984  135.0037  157.0135 LP  0  0  0  0  0  0  0  0  0  0  0  0  # atno 17395 bound_to 11000

$$$$
