AV-unprocessed.smi:1645|AV-procd|sdf|6600|dock1
  -GOLD-   22720 7303D 1   1.00000     0.00000
 Structure written by MMmdl.
 55 58  0  0  0  0  0  0  0  0  2 V2000
  148.1325  135.6854  156.1881 O   0  0  0  0  0  0  0  0  0  0  0  0
  148.3377  135.9152  154.9965 C   0  0  0  0  0  0  0  0  0  0  0  0
  149.0410  136.9554  154.5184 N   0  0  0  0  0  0  0  0  0  0  0  0
  149.6437  138.0110  155.2534 C   0  0  0  0  0  0  0  0  0  0  0  0
  149.7320  138.0412  156.6643 C   0  0  0  0  0  0  0  0  0  0  0  0
  150.3340  139.1515  157.2860 C   0  0  0  0  0  0  0  0  0  0  0  0
  150.8289  140.2078  156.4862 C   0  0  0  0  0  0  0  0  0  0  0  0
  151.4365  141.3267  157.0944 N   0  0  0  0  0  0  0  0  0  0  0  0
  151.7902  141.1474  158.5038 C   0  0  0  0  0  0  0  0  0  0  0  0
  152.7761  142.2317  158.9720 C   0  0  0  0  0  0  0  0  0  0  0  0
  152.2349  143.6376  158.6721 C   0  0  0  0  0  0  0  0  0  0  0  0
  151.8926  143.7609  157.1802 C   0  0  0  0  0  0  0  0  0  0  0  0
  150.9204  142.6519  156.7430 C   0  0  0  0  0  0  0  0  0  0  0  0
  150.7334  140.1806  155.1340 N   0  0  0  0  0  0  0  0  0  0  0  0
  150.1505  139.1170  154.5425 C   0  0  0  0  0  0  0  0  0  0  0  0
  147.8935  135.1279  154.0066 N   0  0  0  0  0  0  0  0  0  0  0  0
  147.1295  133.8977  154.1955 C   0  0  2  0  0  0  0  0  0  0  0  0
  147.8509  132.8752  155.0906 C   0  0  0  0  0  0  0  0  0  0  0  0
  147.4917  131.4956  154.5035 C   0  0  0  0  0  0  0  0  0  0  0  0
  146.5780  131.7737  153.3784 N   0  3  2  0  0  0  0  0  0  0  0  0
  146.5133  130.7675  152.2964 C   0  0  0  0  0  0  0  0  0  0  0  0
  145.4413  131.1914  151.2730 C   0  0  0  0  0  0  0  0  0  0  0  0
  145.6751  132.6280  150.7636 C   0  0  0  0  0  0  0  0  0  0  0  0
  145.8287  133.6164  151.9357 C   0  0  0  0  0  0  0  0  0  0  0  0
  146.9253  133.1182  152.8931 C   0  0  1  0  0  0  0  0  0  0  0  0
  149.2198  136.9599  153.5248 H   0  0  0  0  0  0  0  0  0  0  0  0
  149.3411  137.2444  157.2783 H   0  0  0  0  0  0  0  0  0  0  0  0
  150.4186  139.1779  158.3623 H   0  0  0  0  0  0  0  0  0  0  0  0
  150.8772  141.1955  159.0988 H   0  0  0  0  0  0  0  0  0  0  0  0
  152.2291  140.1669  158.6854 H   0  0  0  0  0  0  0  0  0  0  0  0
  152.9678  142.1249  160.0401 H   0  0  0  0  0  0  0  0  0  0  0  0
  153.7347  142.0945  158.4697 H   0  0  0  0  0  0  0  0  0  0  0  0
  151.3432  143.8253  159.2715 H   0  0  0  0  0  0  0  0  0  0  0  0
  152.9685  144.3930  158.9555 H   0  0  0  0  0  0  0  0  0  0  0  0
  151.4586  144.7394  156.9741 H   0  0  0  0  0  0  0  0  0  0  0  0
  152.8076  143.6972  156.5899 H   0  0  0  0  0  0  0  0  0  0  0  0
  150.7636  142.7185  155.6657 H   0  0  0  0  0  0  0  0  0  0  0  0
  149.9505  142.7970  157.2206 H   0  0  0  0  0  0  0  0  0  0  0  0
  150.0948  139.1487  153.4641 H   0  0  0  0  0  0  0  0  0  0  0  0
  148.1117  135.3901  153.0563 H   0  0  0  0  0  0  0  0  0  0  0  0
  146.1579  134.1182  154.6430 H   0  0  0  0  0  0  0  0  0  0  0  0
  148.9326  133.0152  155.0578 H   0  0  0  0  0  0  0  0  0  0  0  0
  147.5401  132.9708  156.1314 H   0  0  0  0  0  0  0  0  0  0  0  0
  148.3922  130.9943  154.1452 H   0  0  0  0  0  0  0  0  0  0  0  0
  147.0101  130.8461  155.2351 H   0  0  0  0  0  0  0  0  0  0  0  0
  147.4878  130.6754  151.8145 H   0  0  0  0  0  0  0  0  0  0  0  0
  146.2668  129.7923  152.7177 H   0  0  0  0  0  0  0  0  0  0  0  0
  145.4276  130.4944  150.4346 H   0  0  0  0  0  0  0  0  0  0  0  0
  144.4562  131.1321  151.7379 H   0  0  0  0  0  0  0  0  0  0  0  0
  146.5760  132.6520  150.1490 H   0  0  0  0  0  0  0  0  0  0  0  0
  144.8526  132.9364  150.1178 H   0  0  0  0  0  0  0  0  0  0  0  0
  146.0786  134.6054  151.5515 H   0  0  0  0  0  0  0  0  0  0  0  0
  144.8811  133.7153  152.4671 H   0  0  0  0  0  0  0  0  0  0  0  0
  147.8756  133.0604  152.3570 H   0  0  0  0  0  0  0  0  0  0  0  0
  145.6517  131.8473  153.7747 H   0  0  0  0  0  0  0  0  0  0  0  0
  1  2  2  0  0  0  0
  2  3  1  0  0  0  0
  2 16  1  0  0  0  0
  3  4  1  0  0  0  0
  3 26  1  0  0  0  0
  4 15  1  0  0  0  0
  4  5  2  0  0  0  0
  5  6  1  0  0  0  0
  5 27  1  0  0  0  0
  6  7  2  0  0  0  0
  6 28  1  0  0  0  0
  7  8  1  0  0  0  0
  7 14  1  0  0  0  0
  8 13  1  0  0  0  0
  8  9  1  0  0  0  0
  9 10  1  0  0  0  0
  9 29  1  0  0  0  0
  9 30  1  0  0  0  0
 10 11  1  0  0  0  0
 10 31  1  0  0  0  0
 10 32  1  0  0  0  0
 11 12  1  0  0  0  0
 11 33  1  0  0  0  0
 11 34  1  0  0  0  0
 12 13  1  0  0  0  0
 12 35  1  0  0  0  0
 12 36  1  0  0  0  0
 13 37  1  0  0  0  0
 13 38  1  0  0  0  0
 14 15  2  0  0  0  0
 15 39  1  0  0  0  0
 16 17  1  0  0  0  0
 16 40  1  0  0  0  0
 17 25  1  0  0  0  0
 17 18  1  0  0  0  0
 17 41  1  0  0  0  0
 18 19  1  0  0  0  0
 18 42  1  0  0  0  0
 18 43  1  0  0  0  0
 19 20  1  0  0  0  0
 19 44  1  0  0  0  0
 19 45  1  0  0  0  0
 20 25  1  0  0  0  0
 20 21  1  0  0  0  0
 20 55  1  0  0  0  0
 21 22  1  0  0  0  0
 21 46  1  0  0  0  0
 21 47  1  0  0  0  0
 22 23  1  0  0  0  0
 22 48  1  0  0  0  0
 22 49  1  0  0  0  0
 23 24  1  0  0  0  0
 23 50  1  0  0  0  0
 23 51  1  0  0  0  0
 24 25  1  0  0  0  0
 24 52  1  0  0  0  0
 24 53  1  0  0  0  0
 25 54  1  0  0  0  0
M  CHG  1  20   1
M  END
> <s_m_source_file>
AV-unprocessed.smi

> <i_m_source_file_index>
1645

> <i_lp_mmshare_version>
43012

> <i_f3d_flags>
0

> <s_epik_input>
W0NIMl0xW0NIMl1bQ0gyXVtDSDJdW0NASF0oTjEyKVtDQEBIXShbQ0gyXVtDSDJdMilbTkhdQyg9TylbTkhdYzNbY0hdW2NIXWMobltjSF0zKU40W0NIMl1bQ0gyXVtDSDJdW0NIMl1bQ0gyXTQ=

> <s_epik_cmdline>
J2VwaWtfcHl0aG9uJywgJy1waCcsICc3LjAnLCAnLXRuJywgJzgnLCAnLW1hJywgJzIwMCcsICctbWV0YWxfYmluZGluZycsICctaW1hZScsICc8aW5maWxlLm1hZT4nLCAnLW9tYWUnLCAnPG91dGZpbGUubWFlPic=

> <r_lp_tautomer_probability>
1

> <r_epik_Ionization_Penalty>
0.0808019

> <r_epik_Ionization_Penalty_Charging>
0.000974069

> <r_epik_Ionization_Penalty_Neutral>
0.0798278

> <r_epik_State_Penalty>
0.0653665

> <r_epik_Charging_Adjusted_Penalty>
0.0663406

> <i_epik_Tot_Q>
1

> <i_epik_Tot_abs_Q>
1

> <r_epik_Metal_State_Penalty>
0.0585673

> <b_epik_Metal_Only>
0

> <s_lp_Force_Field>
OPLS_2005

> <r_lp_Energy>
50.8313

> <b_lp_Chiralities_Consistent>
1

> <s_lp_Variant>
AV-unprocessed.smi:1645-1

> <Gold.Version>
5.8.1

> <Gold.Id.Protein>
6NUR|6NUR_protein|mol2

> <Gold.PLP.Fitness>
46.5273

> <Gold.PLP.PLP>
-35.0858

> <Gold.PLP.part.hbond>
-3.0000

> <Gold.PLP.part.metal>
0.0000

> <Gold.PLP.part.buried>
-4.0042

> <Gold.PLP.part.nonpolar>
-27.7819

> <Gold.PLP.part.repulsive>
0.0975

> <Gold.PLP.ligand.clash>
0.0000

> <Gold.PLP.ligand.torsion>
0.2654

> <Gold.PLP.Chemscore.Hbond>
2.8500

> <Gold.PLP.Chemscore.CHOScore>
1.0000

> <Gold.PLP.Chemscore.Metal>
0.0000

> <Gold.Chemscore.Hbonds>
donor molecule, donor type, donor heavy atom, donor atom, acceptor molecule, acceptor atom, score
      L1  H     3    26       P1  7948  1.00
      L1  H    16    40       P1  7948  1.00
      P1  H  7989  7998       L1    14  0.80
      L1  C    15    39       P1  7957  1.00

> <Gold.PLP.Chemscore.Internal.Correction>
0.4223

> <Gold.Rescore>
     Score         DG    S(hbond)    S(metal)    S(lipo)     H(rot)  DE(clash)    DE(int)     intcor
     19.62     -23.78       2.50        0.00     110.58       1.17       1.76       2.40       ----

> <Gold.Chemscore.Fitness>
19.6182

> <Gold.Chemscore.DG>
-23.7770

> <Gold.Chemscore.ZeroCoef>
-5.4800

> <Gold.Chemscore.Hbond>
2.5037

> <Gold.Chemscore.Metal>
0.0000

> <Gold.Chemscore.Lipo>
110.5812

> <Gold.Chemscore.Internal_Hbond>
0.0000

> <Gold.Chemscore.DEClash>
1.7563

> <Gold.Chemscore.DEInternal>
2.4025

> <Gold.Chemscore.Rot>
1.1731

> <Gold.Chemscore.Internal.Correction>
   9.000000E+99

> <Gold.Chemscore.Hbonds>
donor molecule, donor type, donor heavy atom, donor atom, acceptor molecule, acceptor atom, score
      L1  H     3    26       P1  7948  0.94
      L1  H    16    40       P1  7948  0.98
      P1  H  7989  7998       L1    14  0.11

> <Gold.Chemscore.Hbond.Weighted>
-8.3623

> <Gold.Chemscore.Metal.Weighted>
-0.0000

> <Gold.Chemscore.Lipo.Weighted>
-12.9380

> <Gold.Chemscore.Internal_Hbond.Weighted>
0.0000

> <Gold.Chemscore.DEClash.Weighted>
1.7563

> <Gold.Chemscore.DEInternal.Weighted>
2.4025

> <Gold.Chemscore.Rot.Weighted>
3.0032

> <Gold.Chemscore.Internal.Correction.Weighted>
   9.000000E+99

> <Gold.Protein.RotatedTorsions>
[ 6907 6896 6895 6894 ] final  -15.33 input  -60.11 | X-H torsion
[ 7974 7965 7964 7962 ] final    3.80 input  175.53 | X-H torsion
[ 8008 7997 7996 7995 ] final  -59.93 input   59.86 | X-H torsion
[ 10167 10162 10161 10158 ] final  121.40 input  -65.29 | X-H torsion
[ 10718 10713 10712 10709 ] final  141.97 input   66.30 | X-H torsion
[ 10763 10752 10751 10750 ] final -108.68 input  -60.55 | X-H torsion
[ 11005 11000 10999 10996 ] final  -61.61 input  -57.11 | X-H torsion

> <Gold.Protein.ActiveResidues>
 VAL166  LYS551  ARG553  GLY616  TRP617  ASP618  TYR619  PRO620  LYS621  CYS622 
 ASP623  PHE694  ASN695  SER759  ASP760  ASP761  ALA762  ILE779  LEU786  VAL792 
 PHE793  MET794  SER795  GLU796  ALA797  LYS798  CYS799  TRP800  GLU811  SER814 

> <Gold.Protein.RotatedAtoms>
  151.3256  135.0829  159.9320 H   0  0  0  0  0  0  0  0  0  0  0  0  # atno 6907 bound_to 6896
  152.5246  133.9595  159.7720 H   0  0  0  0  0  0  0  0  0  0  0  0  # atno 6908 bound_to 6896
  150.9924  133.6084  159.2736 H   0  0  0  0  0  0  0  0  0  0  0  0  # atno 6909 bound_to 6896
  146.2445  140.0630  142.8367 H   0  0  0  0  0  0  0  0  0  0  0  0  # atno 7974 bound_to 7965
  154.4375  140.1051  156.6193 H   0  0  0  0  0  0  0  0  0  0  0  0  # atno 8008 bound_to 7997
  155.5725  140.3489  155.4500 H   0  0  0  0  0  0  0  0  0  0  0  0  # atno 8009 bound_to 7997
  156.0379  140.1275  157.0177 H   0  0  0  0  0  0  0  0  0  0  0  0  # atno 8010 bound_to 7997
  139.5922  144.7029  151.3262 H   0  0  0  0  0  0  0  0  0  0  0  0  # atno 10167 bound_to 10162
  157.3860  131.0998  151.0693 H   0  0  0  0  0  0  0  0  0  0  0  0  # atno 10718 bound_to 10713
  154.8150  135.4629  154.0617 H   0  0  0  0  0  0  0  0  0  0  0  0  # atno 10763 bound_to 10752
  153.2018  135.6870  153.8228 H   0  0  0  0  0  0  0  0  0  0  0  0  # atno 10764 bound_to 10752
  153.7710  135.3270  155.3329 H   0  0  0  0  0  0  0  0  0  0  0  0  # atno 10765 bound_to 10752
  141.1330  133.6632  156.5401 H   0  0  0  0  0  0  0  0  0  0  0  0  # atno 11005 bound_to 11000
  145.0883  140.9267  143.4784 LP  0  0  0  0  0  0  0  0  0  0  0  0  # atno 17320 bound_to 7965
  145.0797  139.2969  143.5790 LP  0  0  0  0  0  0  0  0  0  0  0  0  # atno 17321 bound_to 7965
  140.7182  143.7207  150.7698 LP  0  0  0  0  0  0  0  0  0  0  0  0  # atno 17342 bound_to 10162
  140.0765  143.5010  152.2552 LP  0  0  0  0  0  0  0  0  0  0  0  0  # atno 17343 bound_to 10162
  157.1744  130.6282  149.5651 LP  0  0  0  0  0  0  0  0  0  0  0  0  # atno 17370 bound_to 10713
  155.9787  130.4774  150.6669 LP  0  0  0  0  0  0  0  0  0  0  0  0  # atno 17371 bound_to 10713
  140.4146  134.7242  157.4855 LP  0  0  0  0  0  0  0  0  0  0  0  0  # atno 17394 bound_to 11000
  140.0403  134.6277  155.8990 LP  0  0  0  0  0  0  0  0  0  0  0  0  # atno 17395 bound_to 11000

$$$$
