AV-unprocessed.smi:287|AV-procd|sdf|2179|dock2
  -GOLD-   2262021543D 1   1.00000     0.00000
 Structure written by MMmdl.
 55 58  0  0  0  0  0  0  0  0  1 V2000
  134.4182  136.3456  156.0078 C   0  0  0  0  0  0  0  0  0  0  0  0
  135.8411  136.7858  155.9620 C   0  0  0  0  0  0  0  0  0  0  0  0
  136.8141  136.9348  156.9066 C   0  0  0  0  0  0  0  0  0  0  0  0
  137.9870  137.4014  156.2411 C   0  0  0  0  0  0  0  0  0  0  0  0
  139.3301  137.7017  156.8923 C   0  0  1  0  0  0  0  0  0  0  0  0
  139.1273  138.6590  158.0780 C   0  0  0  0  0  0  0  0  0  0  0  0
  139.9441  136.5496  157.4369 O   0  0  0  0  0  0  0  0  0  0  0  0
  140.3531  138.2954  155.8974 C   0  0  0  0  0  0  0  0  0  0  0  0
  141.6864  138.4398  156.4733 N   0  0  0  0  0  0  0  0  0  0  0  0
  142.7739  138.0583  155.7717 C   0  0  0  0  0  0  0  0  0  0  0  0
  143.9096  138.8047  155.7780 N   0  0  0  0  0  0  0  0  0  0  0  0
  144.9719  138.4098  155.0687 C   0  0  0  0  0  0  0  0  0  0  0  0
  145.1076  137.3260  154.3006 N   0  0  0  0  0  0  0  0  0  0  0  0
  143.9685  136.5746  154.2958 C   0  0  0  0  0  0  0  0  0  0  0  0
  142.7691  136.8681  155.0000 C   0  0  0  0  0  0  0  0  0  0  0  0
  141.8271  135.8769  154.7569 N   0  0  0  0  0  0  0  0  0  0  0  0
  142.4389  135.0493  153.9521 C   0  0  0  0  0  0  0  0  0  0  0  0
  143.7294  135.4020  153.6143 N   0  0  0  0  0  0  0  0  0  0  0  0
  144.7065  134.7064  152.7152 C   0  0  1  0  0  0  0  0  0  0  0  0
  144.1905  133.4492  152.3933 O   0  0  0  0  0  0  0  0  0  0  0  0
  143.6485  133.4718  151.0772 C   0  0  2  0  0  0  0  0  0  0  0  0
  143.5723  132.0424  150.5200 C   0  0  0  0  0  0  0  0  0  0  0  0
  142.9443  132.0526  149.2560 O   0  0  0  0  0  0  0  0  0  0  0  0
  144.6571  134.3646  150.3551 C   0  0  1  0  0  0  0  0  0  0  0  0
  144.1731  134.8537  149.1179 O   0  0  0  0  0  0  0  0  0  0  0  0
  144.9273  135.4624  151.3819 C   0  0  1  0  0  0  0  0  0  0  0  0
  144.0749  136.5855  151.2063 O   0  0  0  0  0  0  0  0  0  0  0  0
  137.6283  137.4850  154.9171 C   0  0  0  0  0  0  0  0  0  0  0  0
  138.3508  137.8772  153.6702 C   0  0  0  0  0  0  0  0  0  0  0  0
  136.3280  137.1190  154.7403 O   0  0  0  0  0  0  0  0  0  0  0  0
  145.6100  134.6000  153.3171 H   0  0  0  0  0  0  0  0  0  0  0  0
  142.6670  133.9496  151.0792 H   0  0  0  0  0  0  0  0  0  0  0  0
  145.5776  133.8055  150.1793 H   0  0  0  0  0  0  0  0  0  0  0  0
  145.9609  135.8054  151.3264 H   0  0  0  0  0  0  0  0  0  0  0  0
  134.0816  136.2232  157.0376 H   0  0  0  0  0  0  0  0  0  0  0  0
  134.2924  135.3917  155.4955 H   0  0  0  0  0  0  0  0  0  0  0  0
  133.7704  137.0779  155.5260 H   0  0  0  0  0  0  0  0  0  0  0  0
  136.6975  136.7351  157.9616 H   0  0  0  0  0  0  0  0  0  0  0  0
  138.6852  139.6015  157.7528 H   0  0  0  0  0  0  0  0  0  0  0  0
  140.0718  138.8935  158.5703 H   0  0  0  0  0  0  0  0  0  0  0  0
  138.4625  138.2268  158.8271 H   0  0  0  0  0  0  0  0  0  0  0  0
  140.8178  136.7789  157.7139 H   0  0  0  0  0  0  0  0  0  0  0  0
  140.4392  137.6232  155.0424 H   0  0  0  0  0  0  0  0  0  0  0  0
  140.0047  139.2534  155.5080 H   0  0  0  0  0  0  0  0  0  0  0  0
  141.7304  138.8328  157.4029 H   0  0  0  0  0  0  0  0  0  0  0  0
  145.8357  139.0557  155.1224 H   0  0  0  0  0  0  0  0  0  0  0  0
  141.9550  134.1576  153.5819 H   0  0  0  0  0  0  0  0  0  0  0  0
  144.5756  131.6381  150.3828 H   0  0  0  0  0  0  0  0  0  0  0  0
  143.0444  131.3761  151.2028 H   0  0  0  0  0  0  0  0  0  0  0  0
  142.3021  132.7458  149.2449 H   0  0  0  0  0  0  0  0  0  0  0  0
  144.8957  134.8997  148.5104 H   0  0  0  0  0  0  0  0  0  0  0  0
  144.3951  137.0917  150.4751 H   0  0  0  0  0  0  0  0  0  0  0  0
  139.3013  137.3494  153.5912 H   0  0  0  0  0  0  0  0  0  0  0  0
  138.5555  138.9478  153.6643 H   0  0  0  0  0  0  0  0  0  0  0  0
  137.7634  137.6417  152.7823 H   0  0  0  0  0  0  0  0  0  0  0  0
  1  2  1  0  0  0  0
  1 35  1  0  0  0  0
  1 36  1  0  0  0  0
  1 37  1  0  0  0  0
  2 30  1  0  0  0  0
  2  3  2  0  0  0  0
  3  4  1  0  0  0  0
  3 38  1  0  0  0  0
  4  5  1  0  0  0  0
  4 28  2  0  0  0  0
  5  6  1  0  0  0  0
  5  7  1  0  0  0  0
  5  8  1  0  0  0  0
  6 39  1  0  0  0  0
  6 40  1  0  0  0  0
  6 41  1  0  0  0  0
  7 42  1  0  0  0  0
  8  9  1  0  0  0  0
  8 43  1  0  0  0  0
  8 44  1  0  0  0  0
  9 10  1  0  0  0  0
  9 45  1  0  0  0  0
 10 15  1  0  0  0  0
 10 11  2  0  0  0  0
 11 12  1  0  0  0  0
 12 13  2  0  0  0  0
 12 46  1  0  0  0  0
 13 14  1  0  0  0  0
 14 18  1  0  0  0  0
 14 15  2  0  0  0  0
 15 16  1  0  0  0  0
 16 17  2  0  0  0  0
 17 18  1  0  0  0  0
 17 47  1  0  0  0  0
 18 19  1  0  0  0  0
 19 31  1  0  0  0  0
 19 26  1  0  0  0  0
 19 20  1  0  0  0  0
 20 21  1  0  0  0  0
 21 32  1  0  0  0  0
 21 22  1  0  0  0  0
 21 24  1  0  0  0  0
 22 23  1  0  0  0  0
 22 48  1  0  0  0  0
 22 49  1  0  0  0  0
 23 50  1  0  0  0  0
 24 33  1  0  0  0  0
 24 25  1  0  0  0  0
 24 26  1  0  0  0  0
 25 51  1  0  0  0  0
 26 34  1  0  0  0  0
 26 27  1  0  0  0  0
 27 52  1  0  0  0  0
 28 29  1  0  0  0  0
 28 30  1  0  0  0  0
 29 53  1  0  0  0  0
 29 54  1  0  0  0  0
 29 55  1  0  0  0  0
M  END
> <s_m_source_file>
AV-unprocessed.smi

> <i_m_source_file_index>
287

> <i_lp_mmshare_version>
43012

> <i_f3d_flags>
0

> <s_epik_input>
W0NIM11jMVtjSF1jKGMobzEpW0NIM10pW0NAQF0oW0NIM10pKFtPSF0pW0NIMl1bTkhdYyhuW2NIXW4yKWMoYzIzKW5bY0hdbjNbQ0BASF00T1tDQEhdKFtDSDJdW09IXSlbQ0BASF0oW09IXSlbQ0BIXTRbT0hd

> <s_epik_cmdline>
J2VwaWtfcHl0aG9uJywgJy1waCcsICc3LjAnLCAnLXRuJywgJzgnLCAnLW1hJywgJzIwMCcsICctbWV0YWxfYmluZGluZycsICctaW1hZScsICc8aW5maWxlLm1hZT4nLCAnLW9tYWUnLCAnPG91dGZpbGUubWFlPic=

> <r_lp_tautomer_probability>
1

> <r_epik_Ionization_Penalty>
0.000992612

> <r_epik_Ionization_Penalty_Charging>
0

> <r_epik_Ionization_Penalty_Neutral>
0.000992612

> <r_epik_State_Penalty>
-0

> <r_epik_Charging_Adjusted_Penalty>
0

> <i_epik_Tot_Q>
0

> <i_epik_Tot_abs_Q>
0

> <r_epik_Metal_State_Penalty>
-0

> <b_epik_Metal_Only>
0

> <s_epik_Chemistry_Notes>
This compound contains an acetal/aminal-like group ( X-CH(R)-Y where X, Y are N, S, or O) that may be acid/base labile, releasing an aldehyde.

> <s_lp_Force_Field>
OPLS_2005

> <r_lp_Energy>
45.8532

> <b_lp_Chiralities_Consistent>
1

> <s_lp_Variant>
AV-unprocessed.smi:287-3

> <Gold.Version>
5.8.1

> <Gold.Id.Protein>
6NUR|6NUR_protein|mol2

> <Gold.PLP.Fitness>
49.6885

> <Gold.PLP.PLP>
-36.6659

> <Gold.PLP.part.hbond>
-6.9757

> <Gold.PLP.part.metal>
0.0000

> <Gold.PLP.part.buried>
-7.6050

> <Gold.PLP.part.nonpolar>
-23.4907

> <Gold.PLP.part.repulsive>
0.3967

> <Gold.PLP.ligand.clash>
0.0000

> <Gold.PLP.ligand.torsion>
0.8389

> <Gold.PLP.Chemscore.Hbond>
4.5250

> <Gold.PLP.Chemscore.CHOScore>
0.2995

> <Gold.PLP.Chemscore.Metal>
0.0000

> <Gold.Chemscore.Hbonds>
donor molecule, donor type, donor heavy atom, donor atom, acceptor molecule, acceptor atom, score
      L1  H    23    50       P1 10186  0.75
      L1  H    25    51       P1  7921  0.96
      L1  H    27    52       P1 10171  0.64
      P1  H 10785 10796       L1    23  1.00
      P1  H 11000 11005       L1     7  1.00
      L1  C    17    47       P1 10957  0.33

> <Gold.PLP.Chemscore.Internal.Correction>
0.2270

> <Gold.Rescore>
     Score         DG    S(hbond)    S(metal)    S(lipo)     H(rot)  DE(clash)    DE(int)     intcor
     10.14     -13.05       4.09        0.00      63.18       5.27       0.10       2.81       ----

> <Gold.Chemscore.Fitness>
10.1405

> <Gold.Chemscore.DG>
-13.0481

> <Gold.Chemscore.ZeroCoef>
-5.4800

> <Gold.Chemscore.Hbond>
4.0898

> <Gold.Chemscore.Metal>
0.0000

> <Gold.Chemscore.Lipo>
63.1796

> <Gold.Chemscore.Internal_Hbond>
0.0000

> <Gold.Chemscore.DEClash>
0.1018

> <Gold.Chemscore.DEInternal>
2.8058

> <Gold.Chemscore.Rot>
5.2672

> <Gold.Chemscore.Internal.Correction>
   9.000000E+99

> <Gold.Chemscore.Hbonds>
donor molecule, donor type, donor heavy atom, donor atom, acceptor molecule, acceptor atom, score
      L1  H    23    50       P1 10186  0.75
      L1  H    25    51       P1  7921  0.90
      L1  H    27    52       P1 10171  0.64
      P1  H 10785 10796       L1    23  0.25
      P1  H 11000 11005       L1     7  0.54

> <Gold.Chemscore.Hbond.Weighted>
-13.6600

> <Gold.Chemscore.Metal.Weighted>
-0.0000

> <Gold.Chemscore.Lipo.Weighted>
-7.3920

> <Gold.Chemscore.Internal_Hbond.Weighted>
0.0000

> <Gold.Chemscore.DEClash.Weighted>
0.1018

> <Gold.Chemscore.DEInternal.Weighted>
2.8058

> <Gold.Chemscore.Rot.Weighted>
13.4839

> <Gold.Chemscore.Internal.Correction.Weighted>
   9.000000E+99

> <Gold.Protein.RotatedTorsions>
[ 6907 6896 6895 6894 ] final -104.11 input  -60.11 | X-H torsion
[ 7974 7965 7964 7962 ] final   31.51 input  175.53 | X-H torsion
[ 8008 7997 7996 7995 ] final  -19.83 input   59.86 | X-H torsion
[ 10167 10162 10161 10158 ] final  -93.20 input  -65.29 | X-H torsion
[ 10718 10713 10712 10709 ] final  176.52 input   66.30 | X-H torsion
[ 10763 10752 10751 10750 ] final -142.31 input  -60.55 | X-H torsion
[ 11005 11000 10999 10996 ] final  136.03 input  -57.11 | X-H torsion

> <Gold.Protein.ActiveResidues>
 VAL166  LYS551  ARG553  GLY616  TRP617  ASP618  TYR619  PRO620  LYS621  CYS622 
 ASP623  PHE694  ASN695  SER759  ASP760  ASP761  ALA762  ILE779  LEU786  VAL792 
 PHE793  MET794  SER795  GLU796  ALA797  LYS798  CYS799  TRP800  GLU811  SER814 

> <Gold.Protein.RotatedAtoms>
  150.7271  134.0328  159.3738 H   0  0  0  0  0  0  0  0  0  0  0  0  # atno 6907 bound_to 6896
  151.8298  135.0623  160.0445 H   0  0  0  0  0  0  0  0  0  0  0  0  # atno 6908 bound_to 6896
  152.2942  133.5555  159.5613 H   0  0  0  0  0  0  0  0  0  0  0  0  # atno 6909 bound_to 6896
  146.1545  139.6647  142.9076 H   0  0  0  0  0  0  0  0  0  0  0  0  # atno 7974 bound_to 7965
  154.4810  140.2078  155.9764 H   0  0  0  0  0  0  0  0  0  0  0  0  # atno 8008 bound_to 7997
  156.1165  140.3220  155.8116 H   0  0  0  0  0  0  0  0  0  0  0  0  # atno 8009 bound_to 7997
  155.4544  140.0519  157.2988 H   0  0  0  0  0  0  0  0  0  0  0  0  # atno 8010 bound_to 7997
  140.3271  143.3016  151.9983 H   0  0  0  0  0  0  0  0  0  0  0  0  # atno 10167 bound_to 10162
  156.9189  130.9934  151.3008 H   0  0  0  0  0  0  0  0  0  0  0  0  # atno 10718 bound_to 10713
  154.8513  135.3499  154.6008 H   0  0  0  0  0  0  0  0  0  0  0  0  # atno 10763 bound_to 10752
  153.6616  135.6989  153.5180 H   0  0  0  0  0  0  0  0  0  0  0  0  # atno 10764 bound_to 10752
  153.2813  135.4263  155.1038 H   0  0  0  0  0  0  0  0  0  0  0  0  # atno 10765 bound_to 10752
  140.0019  134.9475  157.0090 H   0  0  0  0  0  0  0  0  0  0  0  0  # atno 11005 bound_to 11000
  145.4741  141.0437  143.2682 LP  0  0  0  0  0  0  0  0  0  0  0  0  # atno 17320 bound_to 7965
  144.7946  139.6260  143.7098 LP  0  0  0  0  0  0  0  0  0  0  0  0  # atno 17321 bound_to 7965
  139.4863  144.6265  151.7154 LP  0  0  0  0  0  0  0  0  0  0  0  0  # atno 17342 bound_to 10162
  140.5431  144.0547  150.6096 LP  0  0  0  0  0  0  0  0  0  0  0  0  # atno 17343 bound_to 10162
  157.5920  130.8450  149.8673 LP  0  0  0  0  0  0  0  0  0  0  0  0  # atno 17370 bound_to 10713
  156.0500  130.3719  150.1224 LP  0  0  0  0  0  0  0  0  0  0  0  0  # atno 17371 bound_to 10713
  140.4713  134.1384  155.7203 LP  0  0  0  0  0  0  0  0  0  0  0  0  # atno 17394 bound_to 11000
  141.1648  133.8724  157.1746 LP  0  0  0  0  0  0  0  0  0  0  0  0  # atno 17395 bound_to 11000

$$$$
