AV-unprocessed.smi:20|AV-procd|sdf|119|dock9
  -GOLD-   2262015293D 1   1.00000     0.00000
 Structure written by MMmdl.
 57 61  0  0  0  0  0  0  0  0  1 V2000
  137.5528  140.6722  154.3145 O   0  0  0  0  0  0  0  0  0  0  0  0
  138.3446  139.7931  153.9833 C   0  0  0  0  0  0  0  0  0  0  0  0
  138.4803  138.4626  154.7055 C   0  0  0  0  0  0  0  0  0  0  0  0
  139.8193  137.9051  154.1765 C   0  0  2  0  0  0  0  0  0  0  0  0
  139.7857  136.3671  154.0216 C   0  0  0  0  0  0  0  0  0  0  0  0
  141.1572  135.8094  153.6069 C   0  0  0  0  0  0  0  0  0  0  0  0
  142.2512  136.2579  154.5861 C   0  0  0  0  0  0  0  0  0  0  0  0
  142.2470  137.7117  154.7287 N   0  0  0  0  0  0  0  0  0  0  0  0
  143.3842  138.2417  155.2439 C   0  0  0  0  0  0  0  0  0  0  0  0
  143.3117  139.2530  156.1502 N   0  0  0  0  0  0  0  0  0  0  0  0
  144.4272  139.7749  156.6684 C   0  0  0  0  0  0  0  0  0  0  0  0
  145.6959  139.4466  156.4186 N   0  0  0  0  0  0  0  0  0  0  0  0
  145.7766  138.4424  155.4999 C   0  0  0  0  0  0  0  0  0  0  0  0
  144.6801  137.7848  154.8738 C   0  0  0  0  0  0  0  0  0  0  0  0
  145.1487  136.8129  153.9978 N   0  0  0  0  0  0  0  0  0  0  0  0
  146.4470  136.8853  154.1060 C   0  0  0  0  0  0  0  0  0  0  0  0
  146.9117  137.8549  154.9666 N   0  0  0  0  0  0  0  0  0  0  0  0
  148.3031  138.1436  155.2713 C   0  0  0  0  0  0  0  0  0  0  0  0
  149.0719  138.9350  154.1753 C   0  0  1  0  0  0  0  0  0  0  0  0
  148.6592  140.4255  154.2467 C   0  0  0  0  0  0  0  0  0  0  0  0
  149.1736  141.1563  153.1524 O   0  0  0  0  0  0  0  0  0  0  0  0
  150.6203  138.7826  154.2615 C   0  0  1  0  0  0  0  0  0  0  0  0
  151.3049  139.4896  155.4226 C   0  0  0  0  0  0  0  0  0  0  0  0
  152.6460  138.7724  155.5113 C   0  0  0  0  0  0  0  0  0  0  0  0
  152.3907  137.4341  155.1101 O   0  0  0  0  0  0  0  0  0  0  0  0
  151.1004  137.3459  154.5168 C   0  0  0  0  0  0  0  0  0  0  0  0
  140.9699  138.2977  155.1406 C   0  0  0  0  0  0  0  0  0  0  0  0
  139.9791  138.6385  152.8208 C   0  0  0  0  0  0  0  0  0  0  0  0
  139.1958  139.8505  152.9616 N   0  0  0  0  0  0  0  0  0  0  0  0
  138.4664  138.5871  155.7890 H   0  0  0  0  0  0  0  0  0  0  0  0
  137.6383  137.8288  154.4239 H   0  0  0  0  0  0  0  0  0  0  0  0
  139.4897  135.9144  154.9689 H   0  0  0  0  0  0  0  0  0  0  0  0
  139.0292  136.0714  153.2938 H   0  0  0  0  0  0  0  0  0  0  0  0
  141.1205  134.7206  153.5643 H   0  0  0  0  0  0  0  0  0  0  0  0
  141.4064  136.1489  152.6009 H   0  0  0  0  0  0  0  0  0  0  0  0
  142.0789  135.8109  155.5661 H   0  0  0  0  0  0  0  0  0  0  0  0
  143.2180  135.8914  154.2425 H   0  0  0  0  0  0  0  0  0  0  0  0
  144.2825  140.5705  157.3844 H   0  0  0  0  0  0  0  0  0  0  0  0
  147.1059  136.2398  153.5436 H   0  0  0  0  0  0  0  0  0  0  0  0
  148.3038  138.6951  156.2117 H   0  0  0  0  0  0  0  0  0  0  0  0
  148.8169  137.2029  155.4733 H   0  0  0  0  0  0  0  0  0  0  0  0
  148.7618  138.5683  153.1964 H   0  0  0  0  0  0  0  0  0  0  0  0
  147.5736  140.5258  154.2699 H   0  0  0  0  0  0  0  0  0  0  0  0
  149.0432  140.9066  155.1450 H   0  0  0  0  0  0  0  0  0  0  0  0
  149.0205  140.6615  152.3620 H   0  0  0  0  0  0  0  0  0  0  0  0
  151.0687  139.1339  153.3306 H   0  0  0  0  0  0  0  0  0  0  0  0
  151.4442  140.5575  155.2659 H   0  0  0  0  0  0  0  0  0  0  0  0
  150.7410  139.3461  156.3457 H   0  0  0  0  0  0  0  0  0  0  0  0
  153.3595  139.2132  154.8141 H   0  0  0  0  0  0  0  0  0  0  0  0
  153.0772  138.8157  156.5119 H   0  0  0  0  0  0  0  0  0  0  0  0
  150.4401  136.8377  155.2212 H   0  0  0  0  0  0  0  0  0  0  0  0
  151.1409  136.7509  153.6042 H   0  0  0  0  0  0  0  0  0  0  0  0
  141.0575  139.3843  155.1904 H   0  0  0  0  0  0  0  0  0  0  0  0
  140.7422  137.9522  156.1501 H   0  0  0  0  0  0  0  0  0  0  0  0
  141.0167  138.8664  152.5747 H   0  0  0  0  0  0  0  0  0  0  0  0
  139.5626  138.0560  151.9979 H   0  0  0  0  0  0  0  0  0  0  0  0
  139.2865  140.6384  152.3366 H   0  0  0  0  0  0  0  0  0  0  0  0
  1  2  2  0  0  0  0
  2 29  1  0  0  0  0
  2  3  1  0  0  0  0
  3  4  1  0  0  0  0
  3 30  1  0  0  0  0
  3 31  1  0  0  0  0
  4 27  1  0  0  0  0
  4  5  1  0  0  0  0
  4 28  1  0  0  0  0
  5  6  1  0  0  0  0
  5 32  1  0  0  0  0
  5 33  1  0  0  0  0
  6  7  1  0  0  0  0
  6 34  1  0  0  0  0
  6 35  1  0  0  0  0
  7  8  1  0  0  0  0
  7 36  1  0  0  0  0
  7 37  1  0  0  0  0
  8  9  1  0  0  0  0
  8 27  1  0  0  0  0
  9 14  1  0  0  0  0
  9 10  2  0  0  0  0
 10 11  1  0  0  0  0
 11 12  2  0  0  0  0
 11 38  1  0  0  0  0
 12 13  1  0  0  0  0
 13 17  1  0  0  0  0
 13 14  2  0  0  0  0
 14 15  1  0  0  0  0
 15 16  2  0  0  0  0
 16 17  1  0  0  0  0
 16 39  1  0  0  0  0
 17 18  1  0  0  0  0
 18 19  1  0  0  0  0
 18 40  1  0  0  0  0
 18 41  1  0  0  0  0
 19 20  1  0  0  0  0
 19 22  1  0  0  0  0
 19 42  1  0  0  0  0
 20 21  1  0  0  0  0
 20 43  1  0  0  0  0
 20 44  1  0  0  0  0
 21 45  1  0  0  0  0
 22 26  1  0  0  0  0
 22 23  1  0  0  0  0
 22 46  1  0  0  0  0
 23 24  1  0  0  0  0
 23 47  1  0  0  0  0
 23 48  1  0  0  0  0
 24 25  1  0  0  0  0
 24 49  1  0  0  0  0
 24 50  1  0  0  0  0
 25 26  1  0  0  0  0
 26 51  1  0  0  0  0
 26 52  1  0  0  0  0
 27 53  1  0  0  0  0
 27 54  1  0  0  0  0
 28 29  1  0  0  0  0
 28 55  1  0  0  0  0
 28 56  1  0  0  0  0
 29 57  1  0  0  0  0
M  END
> <s_m_source_file>
AV-unprocessed.smi

> <i_m_source_file_index>
20

> <i_lp_mmshare_version>
43012

> <i_f3d_flags>
0

> <s_epik_input>
W0NIMl0xW05IXUMoPU8pW0NIMl1bQ0BAXTEyW0NIMl1bQ0gyXVtDSDJdTihbQ0gyXTIpYyhuW2NIXW4zKWMoYzM0KW5bY0hdbjRbQ0gyXVtDQEhdKFtDSDJdW09IXSlbQ0BASF01W0NIMl1bQ0gyXU9bQ0gyXTU=

> <s_epik_cmdline>
J2VwaWtfcHl0aG9uJywgJy1waCcsICc3LjAnLCAnLXRuJywgJzgnLCAnLW1hJywgJzIwMCcsICctbWV0YWxfYmluZGluZycsICctaW1hZScsICc8aW5maWxlLm1hZT4nLCAnLW9tYWUnLCAnPG91dGZpbGUubWFlPic=

> <r_lp_tautomer_probability>
1

> <r_epik_Ionization_Penalty>
0.0019697

> <r_epik_Ionization_Penalty_Charging>
0

> <r_epik_Ionization_Penalty_Neutral>
0.0019697

> <r_epik_State_Penalty>
0.00113613

> <r_epik_Charging_Adjusted_Penalty>
0.00113613

> <i_epik_Tot_Q>
0

> <i_epik_Tot_abs_Q>
0

> <r_epik_Metal_State_Penalty>
-0

> <b_epik_Metal_Only>
0

> <s_lp_Force_Field>
OPLS_2005

> <r_lp_Energy>
59.3743

> <b_lp_Chiralities_Consistent>
1

> <s_lp_Variant>
AV-unprocessed.smi:20-7

> <Gold.Version>
5.8.1

> <Gold.Id.Protein>
6NUR|6NUR_protein|mol2

> <Gold.PLP.Fitness>
46.6478

> <Gold.PLP.PLP>
-37.3936

> <Gold.PLP.part.hbond>
-4.4736

> <Gold.PLP.part.metal>
0.0000

> <Gold.PLP.part.buried>
-3.3696

> <Gold.PLP.part.nonpolar>
-30.5209

> <Gold.PLP.part.repulsive>
0.3523

> <Gold.PLP.ligand.clash>
0.0000

> <Gold.PLP.ligand.torsion>
0.8147

> <Gold.PLP.Chemscore.Hbond>
2.4599

> <Gold.PLP.Chemscore.CHOScore>
1.0000

> <Gold.PLP.Chemscore.Metal>
0.0000

> <Gold.Chemscore.Hbonds>
donor molecule, donor type, donor heavy atom, donor atom, acceptor molecule, acceptor atom, score
      L1  H    21    45       P1  7957  0.80
      L1  H    29    57       P1 10160  0.40
      P1  H  8011  8017       L1    21  0.60
      P1  H 10752 10763       L1    25  0.61
      L1  C    16    39       P1  7948  1.00

> <Gold.PLP.Chemscore.Internal.Correction>
0.5039

> <Gold.Rescore>
     Score         DG    S(hbond)    S(metal)    S(lipo)     H(rot)  DE(clash)    DE(int)     intcor
     14.64     -16.03       2.42        0.00      81.15       2.74       0.73       0.66       ----

> <Gold.Chemscore.Fitness>
14.6416

> <Gold.Chemscore.DG>
-16.0331

> <Gold.Chemscore.ZeroCoef>
-5.4800

> <Gold.Chemscore.Hbond>
2.4181

> <Gold.Chemscore.Metal>
0.0000

> <Gold.Chemscore.Lipo>
81.1527

> <Gold.Chemscore.Internal_Hbond>
0.0000

> <Gold.Chemscore.DEClash>
0.7278

> <Gold.Chemscore.DEInternal>
0.6637

> <Gold.Chemscore.Rot>
2.7415

> <Gold.Chemscore.Internal.Correction>
   9.000000E+99

> <Gold.Chemscore.Hbonds>
donor molecule, donor type, donor heavy atom, donor atom, acceptor molecule, acceptor atom, score
      L1  H    21    45       P1  7957  0.75
      L1  H    29    57       P1 10160  0.40
      P1  H  8011  8017       L1    21  0.04
      P1  H 10752 10763       L1    25  0.13

> <Gold.Chemscore.Hbond.Weighted>
-8.0764

> <Gold.Chemscore.Metal.Weighted>
-0.0000

> <Gold.Chemscore.Lipo.Weighted>
-9.4949

> <Gold.Chemscore.Internal_Hbond.Weighted>
0.0000

> <Gold.Chemscore.DEClash.Weighted>
0.7278

> <Gold.Chemscore.DEInternal.Weighted>
0.6637

> <Gold.Chemscore.Rot.Weighted>
7.0182

> <Gold.Chemscore.Internal.Correction.Weighted>
   9.000000E+99

> <Gold.Protein.RotatedTorsions>
[ 6907 6896 6895 6894 ] final  136.46 input  -60.11 | X-H torsion
[ 7974 7965 7964 7962 ] final  118.83 input  175.53 | X-H torsion
[ 8008 7997 7996 7995 ] final  100.09 input   59.86 | X-H torsion
[ 10167 10162 10161 10158 ] final  115.26 input  -65.29 | X-H torsion
[ 10718 10713 10712 10709 ] final -171.03 input   66.30 | X-H torsion
[ 10763 10752 10751 10750 ] final   69.72 input  -60.55 | X-H torsion
[ 11005 11000 10999 10996 ] final -104.86 input  -57.11 | X-H torsion

> <Gold.Protein.ActiveResidues>
 VAL166  LYS551  ARG553  GLY616  TRP617  ASP618  TYR619  PRO620  LYS621  CYS622 
 ASP623  PHE694  ASN695  SER759  ASP760  ASP761  ALA762  ILE779  LEU786  VAL792 
 PHE793  MET794  SER795  GLU796  ALA797  LYS798  CYS799  TRP800  GLU811  SER814 

> <Gold.Protein.RotatedAtoms>
  152.2890  133.5543  159.5545 H   0  0  0  0  0  0  0  0  0  0  0  0  # atno 6907 bound_to 6896
  150.7227  134.0455  159.3789 H   0  0  0  0  0  0  0  0  0  0  0  0  # atno 6908 bound_to 6896
  151.8362  135.0605  160.0493 H   0  0  0  0  0  0  0  0  0  0  0  0  # atno 6909 bound_to 6896
  145.1504  139.3214  143.4569 H   0  0  0  0  0  0  0  0  0  0  0  0  # atno 7974 bound_to 7965
  156.1169  140.3219  155.8152 H   0  0  0  0  0  0  0  0  0  0  0  0  # atno 8008 bound_to 7997
  155.4574  140.0537  157.3012 H   0  0  0  0  0  0  0  0  0  0  0  0  # atno 8009 bound_to 7997
  154.4799  140.2048  155.9802 H   0  0  0  0  0  0  0  0  0  0  0  0  # atno 8010 bound_to 7997
  139.6330  144.7117  151.2393 H   0  0  0  0  0  0  0  0  0  0  0  0  # atno 10167 bound_to 10162
  156.7348  130.9320  151.3107 H   0  0  0  0  0  0  0  0  0  0  0  0  # atno 10718 bound_to 10713
  153.0302  135.5200  154.7331 H   0  0  0  0  0  0  0  0  0  0  0  0  # atno 10763 bound_to 10752
  154.6353  135.2905  155.0171 H   0  0  0  0  0  0  0  0  0  0  0  0  # atno 10764 bound_to 10752
  154.1108  135.6622  153.4937 H   0  0  0  0  0  0  0  0  0  0  0  0  # atno 10765 bound_to 10752
  141.1081  133.8758  157.1663 H   0  0  0  0  0  0  0  0  0  0  0  0  # atno 11005 bound_to 11000
  146.3495  140.1576  142.8591 LP  0  0  0  0  0  0  0  0  0  0  0  0  # atno 17320 bound_to 7965
  145.0437  140.8965  143.5037 LP  0  0  0  0  0  0  0  0  0  0  0  0  # atno 17321 bound_to 7965
  140.7450  143.6446  150.8303 LP  0  0  0  0  0  0  0  0  0  0  0  0  # atno 17342 bound_to 10162
  140.0074  143.5679  152.2852 LP  0  0  0  0  0  0  0  0  0  0  0  0  # atno 17343 bound_to 10162
  157.6843  130.9170  150.0347 LP  0  0  0  0  0  0  0  0  0  0  0  0  # atno 17370 bound_to 10713
  156.1504  130.3642  149.9447 LP  0  0  0  0  0  0  0  0  0  0  0  0  # atno 17371 bound_to 10713
  139.9961  135.0046  157.0084 LP  0  0  0  0  0  0  0  0  0  0  0  0  # atno 17394 bound_to 11000
  140.4849  134.1252  155.7223 LP  0  0  0  0  0  0  0  0  0  0  0  0  # atno 17395 bound_to 11000

$$$$
