AV-unprocessed.smi:2032|AV-procd|sdf|8243|dock9
  -GOLD-   2272010513D 1   1.00000     0.00000
 Structure written by MMmdl.
 43 44  0  0  0  0  0  0  0  0  2 V2000
  151.9417  138.9026  154.7220 C   0  0  0  0  0  0  0  0  0  0  0  0
  150.7878  137.9473  154.3974 C   0  0  2  0  0  0  0  0  0  0  0  0
  149.4698  138.6971  154.1286 C   0  0  0  0  0  0  0  0  0  0  0  0
  148.3385  137.7571  153.8886 N   0  3  2  0  0  0  0  0  0  0  0  0
  147.0361  138.4503  153.6015 C   0  0  1  0  0  0  0  0  0  0  0  0
  147.2632  139.8235  152.9217 C   0  0  0  0  0  0  0  0  0  0  0  0
  146.0740  137.5691  152.7552 C   0  0  0  0  0  0  0  0  0  0  0  0
  144.6881  138.0327  152.7808 N   0  0  0  0  0  0  0  0  0  0  0  0
  143.6345  137.3096  153.1892 C   0  0  0  0  0  0  0  0  0  0  0  0
  143.7206  136.1427  153.5729 O   0  0  0  0  0  0  0  0  0  0  0  0
  142.4967  138.0215  153.1128 N   0  0  0  0  0  0  0  0  0  0  0  0
  141.1793  137.6082  153.4434 C   0  0  0  0  0  0  0  0  0  0  0  0
  140.8872  136.5064  154.1444 N   0  0  0  0  0  0  0  0  0  0  0  0
  139.5105  136.3484  154.3233 C   0  0  0  0  0  0  0  0  0  0  0  0
  138.7640  137.3454  153.7460 C   0  0  0  0  0  0  0  0  0  0  0  0
  139.7662  138.5298  152.9506 S   0  0  0  0  0  0  0  0  0  0  0  0
  148.2697  136.7669  155.0005 C   0  0  0  0  0  0  0  0  0  0  0  0
  149.6298  136.0865  155.2463 C   0  0  2  0  0  0  0  0  0  0  0  0
  149.5896  135.1320  156.4450 C   0  0  0  0  0  0  0  0  0  0  0  0
  150.6097  137.0798  155.5067 O   0  0  0  0  0  0  0  0  0  0  0  0
  152.1327  139.5844  153.8930 H   0  0  0  0  0  0  0  0  0  0  0  0
  152.8616  138.3502  154.9151 H   0  0  0  0  0  0  0  0  0  0  0  0
  151.7230  139.5028  155.6057 H   0  0  0  0  0  0  0  0  0  0  0  0
  151.0641  137.3609  153.5188 H   0  0  0  0  0  0  0  0  0  0  0  0
  149.2280  139.3477  154.9708 H   0  0  0  0  0  0  0  0  0  0  0  0
  149.6363  139.3363  153.2639 H   0  0  0  0  0  0  0  0  0  0  0  0
  146.5485  138.6347  154.5602 H   0  0  0  0  0  0  0  0  0  0  0  0
  146.3254  140.3222  152.6813 H   0  0  0  0  0  0  0  0  0  0  0  0
  147.8253  139.7176  151.9935 H   0  0  0  0  0  0  0  0  0  0  0  0
  147.7919  140.5275  153.5618 H   0  0  0  0  0  0  0  0  0  0  0  0
  146.4428  137.4832  151.7315 H   0  0  0  0  0  0  0  0  0  0  0  0
  146.0269  136.5564  153.1530 H   0  0  0  0  0  0  0  0  0  0  0  0
  144.5214  138.9813  152.4777 H   0  0  0  0  0  0  0  0  0  0  0  0
  142.5807  138.9702  152.7788 H   0  0  0  0  0  0  0  0  0  0  0  0
  139.1476  135.4947  154.8765 H   0  0  0  0  0  0  0  0  0  0  0  0
  137.6897  137.4543  153.7408 H   0  0  0  0  0  0  0  0  0  0  0  0
  147.9252  137.2650  155.9086 H   0  0  0  0  0  0  0  0  0  0  0  0
  147.5586  135.9752  154.7712 H   0  0  0  0  0  0  0  0  0  0  0  0
  149.9209  135.5156  154.3627 H   0  0  0  0  0  0  0  0  0  0  0  0
  148.8625  134.3349  156.2882 H   0  0  0  0  0  0  0  0  0  0  0  0
  149.3176  135.6579  157.3608 H   0  0  0  0  0  0  0  0  0  0  0  0
  150.5623  134.6661  156.6052 H   0  0  0  0  0  0  0  0  0  0  0  0
  148.5725  137.2322  153.0577 H   0  0  0  0  0  0  0  0  0  0  0  0
  1  2  1  0  0  0  0
  1 21  1  0  0  0  0
  1 22  1  0  0  0  0
  1 23  1  0  0  0  0
  2 20  1  0  0  0  0
  2  3  1  0  0  0  0
  2 24  1  0  0  0  0
  3  4  1  0  0  0  0
  3 25  1  0  0  0  0
  3 26  1  0  0  0  0
  4  5  1  0  0  0  0
  4 17  1  0  0  0  0
  4 43  1  0  0  0  0
  5  6  1  0  0  0  0
  5  7  1  0  0  0  0
  5 27  1  0  0  0  0
  6 28  1  0  0  0  0
  6 29  1  0  0  0  0
  6 30  1  0  0  0  0
  7  8  1  0  0  0  0
  7 31  1  0  0  0  0
  7 32  1  0  0  0  0
  8  9  1  0  0  0  0
  8 33  1  0  0  0  0
  9 10  2  0  0  0  0
  9 11  1  0  0  0  0
 11 12  1  0  0  0  0
 11 34  1  0  0  0  0
 12 16  1  0  0  0  0
 12 13  2  0  0  0  0
 13 14  1  0  0  0  0
 14 15  2  0  0  0  0
 14 35  1  0  0  0  0
 15 16  1  0  0  0  0
 15 36  1  0  0  0  0
 17 18  1  0  0  0  0
 17 37  1  0  0  0  0
 17 38  1  0  0  0  0
 18 19  1  0  0  0  0
 18 20  1  0  0  0  0
 18 39  1  0  0  0  0
 19 40  1  0  0  0  0
 19 41  1  0  0  0  0
 19 42  1  0  0  0  0
M  CHG  1   4   1
M  END
> <s_m_source_file>
AV-unprocessed.smi

> <i_m_source_file_index>
2032

> <i_lp_mmshare_version>
43012

> <i_f3d_flags>
0

> <s_epik_input>
W0NIM11bQ0BASF0xW0NIMl1OKFtDSDJdW0NASF0oTzEpW0NIM10pW0NASF0oW0NIM10pW0NIMl1bTkhdQyg9TylbTkhdYzJuW2NIXVtjSF1zMg==

> <s_epik_cmdline>
J2VwaWtfcHl0aG9uJywgJy1waCcsICc3LjAnLCAnLXRuJywgJzgnLCAnLW1hJywgJzIwMCcsICctbWV0YWxfYmluZGluZycsICctaW1hZScsICc8aW5maWxlLm1hZT4nLCAnLW9tYWUnLCAnPG91dGZpbGUubWFlPic=

> <r_lp_tautomer_probability>
0.999

> <r_epik_Ionization_Penalty>
0.695838

> <r_epik_Ionization_Penalty_Charging>
0.695697

> <r_epik_Ionization_Penalty_Neutral>
0.000141198

> <r_epik_State_Penalty>
0.717972

> <r_epik_Charging_Adjusted_Penalty>
1.41367

> <i_epik_Tot_Q>
1

> <i_epik_Tot_abs_Q>
1

> <r_epik_Metal_State_Penalty>
0.756405

> <b_epik_Metal_Only>
0

> <s_lp_Force_Field>
OPLS_2005

> <r_lp_Energy>
18.3762

> <b_lp_Chiralities_Consistent>
1

> <s_lp_Variant>
AV-unprocessed.smi:2032-13

> <Gold.Version>
5.8.1

> <Gold.Id.Protein>
6NUR|6NUR_protein|mol2

> <Gold.PLP.Fitness>
45.0393

> <Gold.PLP.PLP>
-31.4713

> <Gold.PLP.part.hbond>
-3.7665

> <Gold.PLP.part.metal>
0.0000

> <Gold.PLP.part.buried>
-0.5045

> <Gold.PLP.part.nonpolar>
-27.5763

> <Gold.PLP.part.repulsive>
0.2527

> <Gold.PLP.ligand.clash>
0.0000

> <Gold.PLP.ligand.torsion>
0.7081

> <Gold.PLP.Chemscore.Hbond>
4.0000

> <Gold.PLP.Chemscore.CHOScore>
0.9800

> <Gold.PLP.Chemscore.Metal>
0.0000

> <Gold.Chemscore.Hbonds>
donor molecule, donor type, donor heavy atom, donor atom, acceptor molecule, acceptor atom, score
      L1  H     4    43       P1  7948  2.00
      L1  H     8    33       P1 10175  1.00
      L1  H    11    34       P1 10175  1.00
      L1  C    14    35       P1 11000  0.99

> <Gold.PLP.Chemscore.Internal.Correction>
0.0443

> <Gold.Rescore>
     Score         DG    S(hbond)    S(metal)    S(lipo)     H(rot)  DE(clash)    DE(int)     intcor
     17.81     -19.72       2.92        0.00      73.70       1.61       0.06       1.85       ----

> <Gold.Chemscore.Fitness>
17.8104

> <Gold.Chemscore.DG>
-19.7230

> <Gold.Chemscore.ZeroCoef>
-5.4800

> <Gold.Chemscore.Hbond>
2.9175

> <Gold.Chemscore.Metal>
0.0000

> <Gold.Chemscore.Lipo>
73.6992

> <Gold.Chemscore.Internal_Hbond>
0.0000

> <Gold.Chemscore.DEClash>
0.0582

> <Gold.Chemscore.DEInternal>
1.8544

> <Gold.Chemscore.Rot>
1.6110

> <Gold.Chemscore.Internal.Correction>
   9.000000E+99

> <Gold.Chemscore.Hbonds>
donor molecule, donor type, donor heavy atom, donor atom, acceptor molecule, acceptor atom, score
      L1  H     4    43       P1  7948  0.98
      L1  H     8    33       P1 10175  0.98
      L1  H    11    34       P1 10175  0.94

> <Gold.Chemscore.Hbond.Weighted>
-9.7444

> <Gold.Chemscore.Metal.Weighted>
-0.0000

> <Gold.Chemscore.Lipo.Weighted>
-8.6228

> <Gold.Chemscore.Internal_Hbond.Weighted>
0.0000

> <Gold.Chemscore.DEClash.Weighted>
0.0582

> <Gold.Chemscore.DEInternal.Weighted>
1.8544

> <Gold.Chemscore.Rot.Weighted>
4.1242

> <Gold.Chemscore.Internal.Correction.Weighted>
   9.000000E+99

> <Gold.Protein.RotatedTorsions>
[ 6907 6896 6895 6894 ] final    5.25 input  -60.11 | X-H torsion
[ 7974 7965 7964 7962 ] final -157.69 input  175.53 | X-H torsion
[ 8008 7997 7996 7995 ] final -136.13 input   59.86 | X-H torsion
[ 10167 10162 10161 10158 ] final   15.80 input  -65.29 | X-H torsion
[ 10718 10713 10712 10709 ] final  -81.97 input   66.30 | X-H torsion
[ 10763 10752 10751 10750 ] final   22.53 input  -60.55 | X-H torsion
[ 11005 11000 10999 10996 ] final -155.84 input  -57.11 | X-H torsion

> <Gold.Protein.ActiveResidues>
 VAL166  LYS551  ARG553  GLY616  TRP617  ASP618  TYR619  PRO620  LYS621  CYS622 
 ASP623  PHE694  ASN695  SER759  ASP760  ASP761  ALA762  ILE779  LEU786  VAL792 
 PHE793  MET794  SER795  GLU796  ALA797  LYS798  CYS799  TRP800  GLU811  SER814 

> <Gold.Protein.RotatedAtoms>
  151.6545  135.0997  160.0167 H   0  0  0  0  0  0  0  0  0  0  0  0  # atno 6907 bound_to 6896
  152.3982  133.6773  159.6302 H   0  0  0  0  0  0  0  0  0  0  0  0  # atno 6908 bound_to 6896
  150.7885  133.8754  159.3312 H   0  0  0  0  0  0  0  0  0  0  0  0  # atno 6909 bound_to 6896
  144.7537  140.3934  143.6028 H   0  0  0  0  0  0  0  0  0  0  0  0  # atno 7974 bound_to 7965
  155.3901  140.0499  157.3041 H   0  0  0  0  0  0  0  0  0  0  0  0  # atno 8008 bound_to 7997
  154.5040  140.2167  155.9250 H   0  0  0  0  0  0  0  0  0  0  0  0  # atno 8009 bound_to 7997
  156.1503  140.3137  155.8642 H   0  0  0  0  0  0  0  0  0  0  0  0  # atno 8010 bound_to 7997
  140.5842  143.8923  150.6815 H   0  0  0  0  0  0  0  0  0  0  0  0  # atno 10167 bound_to 10162
  156.0041  130.4620  150.4033 H   0  0  0  0  0  0  0  0  0  0  0  0  # atno 10718 bound_to 10713
  153.0908  135.6646  153.9858 H   0  0  0  0  0  0  0  0  0  0  0  0  # atno 10763 bound_to 10752
  153.9455  135.2989  155.3442 H   0  0  0  0  0  0  0  0  0  0  0  0  # atno 10764 bound_to 10752
  154.7322  135.5118  153.9056 H   0  0  0  0  0  0  0  0  0  0  0  0  # atno 10765 bound_to 10752
  140.6821  134.4134  157.5226 H   0  0  0  0  0  0  0  0  0  0  0  0  # atno 11005 bound_to 11000
  145.6852  139.1627  143.2678 LP  0  0  0  0  0  0  0  0  0  0  0  0  # atno 17320 bound_to 7965
  146.1522  140.6909  142.9317 LP  0  0  0  0  0  0  0  0  0  0  0  0  # atno 17321 bound_to 7965
  140.2429  143.3650  152.1471 LP  0  0  0  0  0  0  0  0  0  0  0  0  # atno 17342 bound_to 10162
  139.5187  144.7010  151.5494 LP  0  0  0  0  0  0  0  0  0  0  0  0  # atno 17343 bound_to 10162
  157.2101  131.0458  151.2604 LP  0  0  0  0  0  0  0  0  0  0  0  0  # atno 17370 bound_to 10713
  157.3897  130.7275  149.6688 LP  0  0  0  0  0  0  0  0  0  0  0  0  # atno 17371 bound_to 10713
  139.8949  134.8696  156.2157 LP  0  0  0  0  0  0  0  0  0  0  0  0  # atno 17394 bound_to 11000
  141.0309  133.6989  156.1429 LP  0  0  0  0  0  0  0  0  0  0  0  0  # atno 17395 bound_to 11000

$$$$
