AV-unprocessed.smi:1865|AV-procd|sdf|7554|dock5
  -GOLD-   22720 9273D 1   1.00000     0.00000
 Structure written by MMmdl.
 40 41  0  0  0  0  0  0  0  0  1 V2000
  154.6153  138.9704  158.5906 O   0  0  0  0  0  0  0  0  0  0  0  0
  153.6698  139.3508  159.2816 C   0  0  0  0  0  0  0  0  0  0  0  0
  152.9540  140.6674  158.9642 C   0  0  0  0  0  0  0  0  0  0  0  0
  152.9507  141.6515  160.1496 C   0  0  0  0  0  0  0  0  0  0  0  0
  152.0749  142.8924  159.9001 C   0  0  0  0  0  0  0  0  0  0  0  0
  152.4870  143.6909  158.6620 C   0  0  0  0  0  0  0  0  0  0  0  0
  151.8309  145.0606  158.8512 C   0  0  0  0  0  0  0  0  0  0  0  0
  151.7047  145.2631  160.3683 C   0  0  0  0  0  0  0  0  0  0  0  0
  152.1235  143.9383  161.0199 C   0  0  0  0  0  0  0  0  0  0  0  0
  153.2118  138.6660  160.3409 N   0  0  0  0  0  0  0  0  0  0  0  0
  153.7599  137.4043  160.8245 C   0  0  0  0  0  0  0  0  0  0  0  0
  154.4803  137.5755  162.1719 C   0  0  0  0  0  0  0  0  0  0  0  0
  154.7486  136.2445  162.8462 C   0  0  0  0  0  0  0  0  0  0  0  0
  154.4571  136.0517  164.2121 C   0  0  0  0  0  0  0  0  0  0  0  0
  154.7299  134.7985  164.7934 C   0  0  0  0  0  0  0  0  0  0  0  0
  155.2848  133.7892  163.9815 C   0  0  0  0  0  0  0  0  0  0  0  0
  155.5691  133.9629  162.6726 N   0  0  0  0  0  0  0  0  0  0  0  0
  155.3040  135.1676  162.1229 C   0  0  0  0  0  0  0  0  0  0  0  0
  153.4288  141.1378  158.1017 H   0  0  0  0  0  0  0  0  0  0  0  0
  151.9312  140.4319  158.6687 H   0  0  0  0  0  0  0  0  0  0  0  0
  152.6132  141.1460  161.0557 H   0  0  0  0  0  0  0  0  0  0  0  0
  153.9736  141.9769  160.3460 H   0  0  0  0  0  0  0  0  0  0  0  0
  151.0385  142.5773  159.7658 H   0  0  0  0  0  0  0  0  0  0  0  0
  153.5716  143.8067  158.6366 H   0  0  0  0  0  0  0  0  0  0  0  0
  152.1837  143.2092  157.7320 H   0  0  0  0  0  0  0  0  0  0  0  0
  152.4040  145.8558  158.3735 H   0  0  0  0  0  0  0  0  0  0  0  0
  150.8376  145.0573  158.4007 H   0  0  0  0  0  0  0  0  0  0  0  0
  152.3359  146.0813  160.7168 H   0  0  0  0  0  0  0  0  0  0  0  0
  150.6755  145.5128  160.6285 H   0  0  0  0  0  0  0  0  0  0  0  0
  151.4847  143.6745  161.8633 H   0  0  0  0  0  0  0  0  0  0  0  0
  153.1427  144.0301  161.3981 H   0  0  0  0  0  0  0  0  0  0  0  0
  152.4320  139.0513  160.8539 H   0  0  0  0  0  0  0  0  0  0  0  0
  152.9658  136.6596  160.9055 H   0  0  0  0  0  0  0  0  0  0  0  0
  154.4590  137.0320  160.0749 H   0  0  0  0  0  0  0  0  0  0  0  0
  155.4259  138.0999  162.0274 H   0  0  0  0  0  0  0  0  0  0  0  0
  153.8850  138.1941  162.8451 H   0  0  0  0  0  0  0  0  0  0  0  0
  154.0337  136.8488  164.8055 H   0  0  0  0  0  0  0  0  0  0  0  0
  154.5194  134.6147  165.8365 H   0  0  0  0  0  0  0  0  0  0  0  0
  155.5069  132.8163  164.3945 H   0  0  0  0  0  0  0  0  0  0  0  0
  155.5444  135.2756  161.0754 H   0  0  0  0  0  0  0  0  0  0  0  0
  1  2  2  0  0  0  0
  2  3  1  0  0  0  0
  2 10  1  0  0  0  0
  3  4  1  0  0  0  0
  3 19  1  0  0  0  0
  3 20  1  0  0  0  0
  4  5  1  0  0  0  0
  4 21  1  0  0  0  0
  4 22  1  0  0  0  0
  5  9  1  0  0  0  0
  5  6  1  0  0  0  0
  5 23  1  0  0  0  0
  6  7  1  0  0  0  0
  6 24  1  0  0  0  0
  6 25  1  0  0  0  0
  7  8  1  0  0  0  0
  7 26  1  0  0  0  0
  7 27  1  0  0  0  0
  8  9  1  0  0  0  0
  8 28  1  0  0  0  0
  8 29  1  0  0  0  0
  9 30  1  0  0  0  0
  9 31  1  0  0  0  0
 10 11  1  0  0  0  0
 10 32  1  0  0  0  0
 11 12  1  0  0  0  0
 11 33  1  0  0  0  0
 11 34  1  0  0  0  0
 12 13  1  0  0  0  0
 12 35  1  0  0  0  0
 12 36  1  0  0  0  0
 13 18  1  0  0  0  0
 13 14  2  0  0  0  0
 14 15  1  0  0  0  0
 14 37  1  0  0  0  0
 15 16  2  0  0  0  0
 15 38  1  0  0  0  0
 16 17  1  0  0  0  0
 16 39  1  0  0  0  0
 17 18  2  0  0  0  0
 18 40  1  0  0  0  0
M  END
> <s_m_source_file>
AV-unprocessed.smi

> <i_m_source_file_index>
1865

> <i_lp_mmshare_version>
43012

> <i_f3d_flags>
0

> <s_epik_input>
W0NIMl0xW0NIMl1bQ0gyXVtDSDJdW0NIXTFbQ0gyXVtDSDJdQyg9TylbTkhdW0NIMl1bQ0gyXWMyW2NIXVtjSF1bY0hdbltjSF0y

> <s_epik_cmdline>
J2VwaWtfcHl0aG9uJywgJy1waCcsICc3LjAnLCAnLXRuJywgJzgnLCAnLW1hJywgJzIwMCcsICctbWV0YWxfYmluZGluZycsICctaW1hZScsICc8aW5maWxlLm1hZT4nLCAnLW9tYWUnLCAnPG91dGZpbGUubWFlPic=

> <r_epik_Ionization_Penalty>
0.0133844

> <r_epik_Ionization_Penalty_Charging>
0

> <r_epik_Ionization_Penalty_Neutral>
0.0133844

> <r_epik_State_Penalty>
0.0104136

> <r_epik_Charging_Adjusted_Penalty>
0.0104136

> <i_epik_Tot_Q>
0

> <i_epik_Tot_abs_Q>
0

> <r_epik_Metal_State_Penalty>
0.0101831

> <b_epik_Metal_Only>
0

> <s_lp_Force_Field>
OPLS_2005

> <r_lp_Energy>
19.5978

> <b_lp_Chiralities_Consistent>
1

> <s_lp_Variant>
AV-unprocessed.smi:1865-1

> <Gold.Version>
5.8.1

> <Gold.Id.Protein>
6NUR|6NUR_protein|mol2

> <Gold.PLP.Fitness>
47.7883

> <Gold.PLP.PLP>
-45.2697

> <Gold.PLP.part.hbond>
-1.0000

> <Gold.PLP.part.metal>
0.0000

> <Gold.PLP.part.buried>
-3.8404

> <Gold.PLP.part.nonpolar>
-40.4940

> <Gold.PLP.part.repulsive>
0.0666

> <Gold.PLP.ligand.clash>
0.0000

> <Gold.PLP.ligand.torsion>
0.2766

> <Gold.PLP.Chemscore.Hbond>
1.0000

> <Gold.PLP.Chemscore.CHOScore>
0.0000

> <Gold.PLP.Chemscore.Metal>
0.0000

> <Gold.Chemscore.Hbonds>
donor molecule, donor type, donor heavy atom, donor atom, acceptor molecule, acceptor atom, score
      P1  H  7997  8008       L1     1  1.00

> <Gold.PLP.Chemscore.Internal.Correction>
0.0719

> <Gold.Rescore>
     Score         DG    S(hbond)    S(metal)    S(lipo)     H(rot)  DE(clash)    DE(int)     intcor
     20.22     -20.53       0.99        0.00     134.58       1.56       0.02       0.30       ----

> <Gold.Chemscore.Fitness>
20.2189

> <Gold.Chemscore.DG>
-20.5335

> <Gold.Chemscore.ZeroCoef>
-5.4800

> <Gold.Chemscore.Hbond>
0.9896

> <Gold.Chemscore.Metal>
0.0000

> <Gold.Chemscore.Lipo>
134.5761

> <Gold.Chemscore.Internal_Hbond>
0.0000

> <Gold.Chemscore.DEClash>
0.0172

> <Gold.Chemscore.DEInternal>
0.2973

> <Gold.Chemscore.Rot>
1.5614

> <Gold.Chemscore.Internal.Correction>
   9.000000E+99

> <Gold.Chemscore.Hbonds>
donor molecule, donor type, donor heavy atom, donor atom, acceptor molecule, acceptor atom, score
      P1  H  7997  8008       L1     1  0.93

> <Gold.Chemscore.Hbond.Weighted>
-3.3052

> <Gold.Chemscore.Metal.Weighted>
-0.0000

> <Gold.Chemscore.Lipo.Weighted>
-15.7454

> <Gold.Chemscore.Internal_Hbond.Weighted>
0.0000

> <Gold.Chemscore.DEClash.Weighted>
0.0172

> <Gold.Chemscore.DEInternal.Weighted>
0.2973

> <Gold.Chemscore.Rot.Weighted>
3.9971

> <Gold.Chemscore.Internal.Correction.Weighted>
   9.000000E+99

> <Gold.Protein.RotatedTorsions>
[ 6907 6896 6895 6894 ] final -171.35 input  -60.11 | X-H torsion
[ 7974 7965 7964 7962 ] final   -5.60 input  175.53 | X-H torsion
[ 8008 7997 7996 7995 ] final -117.25 input   59.86 | X-H torsion
[ 10167 10162 10161 10158 ] final  172.28 input  -65.29 | X-H torsion
[ 10718 10713 10712 10709 ] final  -96.08 input   66.30 | X-H torsion
[ 10763 10752 10751 10750 ] final -109.35 input  -60.55 | X-H torsion
[ 11005 11000 10999 10996 ] final  -94.33 input  -57.11 | X-H torsion

> <Gold.Protein.ActiveResidues>
 VAL166  LYS551  ARG553  GLY616  TRP617  ASP618  TYR619  PRO620  LYS621  CYS622 
 ASP623  PHE694  ASN695  SER759  ASP760  ASP761  ALA762  ILE779  LEU786  VAL792 
 PHE793  MET794  SER795  GLU796  ALA797  LYS798  CYS799  TRP800  GLU811  SER814 

> <Gold.Protein.RotatedAtoms>
  151.5223  133.3464  159.2903 H   0  0  0  0  0  0  0  0  0  0  0  0  # atno 6907 bound_to 6896
  150.8644  134.8007  159.7119 H   0  0  0  0  0  0  0  0  0  0  0  0  # atno 6908 bound_to 6896
  152.4653  134.5098  159.9802 H   0  0  0  0  0  0  0  0  0  0  0  0  # atno 6909 bound_to 6896
  146.2349  140.2046  142.8334 H   0  0  0  0  0  0  0  0  0  0  0  0  # atno 7974 bound_to 7965
  155.0807  140.0394  157.2638 H   0  0  0  0  0  0  0  0  0  0  0  0  # atno 8008 bound_to 7997
  154.6909  140.2653  155.6789 H   0  0  0  0  0  0  0  0  0  0  0  0  # atno 8009 bound_to 7997
  156.2728  140.2760  156.1486 H   0  0  0  0  0  0  0  0  0  0  0  0  # atno 8010 bound_to 7997
  139.5072  144.3391  152.0035 H   0  0  0  0  0  0  0  0  0  0  0  0  # atno 10167 bound_to 10162
  156.0055  130.5136  150.6173 H   0  0  0  0  0  0  0  0  0  0  0  0  # atno 10718 bound_to 10713
  154.8188  135.4604  154.0720 H   0  0  0  0  0  0  0  0  0  0  0  0  # atno 10763 bound_to 10752
  153.2090  135.6879  153.8143 H   0  0  0  0  0  0  0  0  0  0  0  0  # atno 10764 bound_to 10752
  153.7601  135.3285  155.3312 H   0  0  0  0  0  0  0  0  0  0  0  0  # atno 10765 bound_to 10752
  141.1473  133.7949  157.0284 H   0  0  0  0  0  0  0  0  0  0  0  0  # atno 11005 bound_to 11000
  144.9755  140.8409  143.5429 LP  0  0  0  0  0  0  0  0  0  0  0  0  # atno 17320 bound_to 7965
  145.2033  139.2241  143.5181 LP  0  0  0  0  0  0  0  0  0  0  0  0  # atno 17321 bound_to 7965
  140.2830  144.3839  150.6113 LP  0  0  0  0  0  0  0  0  0  0  0  0  # atno 17342 bound_to 10162
  140.6004  143.2167  151.7083 LP  0  0  0  0  0  0  0  0  0  0  0  0  # atno 17343 bound_to 10162
  157.3995  131.0808  151.1321 LP  0  0  0  0  0  0  0  0  0  0  0  0  # atno 17370 bound_to 10713
  157.1988  130.6385  149.5731 LP  0  0  0  0  0  0  0  0  0  0  0  0  # atno 17371 bound_to 10713
  140.0770  134.9670  157.1562 LP  0  0  0  0  0  0  0  0  0  0  0  0  # atno 17394 bound_to 11000
  140.3630  134.2474  155.7185 LP  0  0  0  0  0  0  0  0  0  0  0  0  # atno 17395 bound_to 11000

$$$$
