AV-unprocessed.smi:1071|AV-procd|sdf|4682|dock6
  -GOLD-   22720 3203D 1   1.00000     0.00000
 Structure written by MMmdl.
 46 47  0  0  0  0  0  0  0  0  1 V2000
  147.3095  136.6905  156.6798 C   0  0  0  0  0  0  0  0  0  0  0  0
  147.5954  137.8350  155.8948 O   0  0  0  0  0  0  0  0  0  0  0  0
  146.6628  138.0184  154.8427 C   0  0  0  0  0  0  0  0  0  0  0  0
  147.0681  139.2474  154.0244 C   0  0  0  0  0  0  0  0  0  0  0  0
  148.4864  139.2606  153.8917 O   0  0  0  0  0  0  0  0  0  0  0  0
  149.2263  139.9885  154.8010 C   0  0  0  0  0  0  0  0  0  0  0  0
  148.5575  140.9142  155.6260 C   0  0  0  0  0  0  0  0  0  0  0  0
  149.3036  141.6596  156.5590 C   0  0  0  0  0  0  0  0  0  0  0  0
  150.7003  141.4479  156.6427 C   0  0  0  0  0  0  0  0  0  0  0  0
  151.5658  142.1476  157.5262 N   0  0  0  0  0  0  0  0  0  0  0  0
  151.2533  142.8439  158.6369 C   0  0  0  0  0  0  0  0  0  0  0  0
  150.1003  143.0967  158.9838 O   0  0  0  0  0  0  0  0  0  0  0  0
  152.3474  143.3437  159.2633 N   0  0  0  0  0  0  0  0  0  0  0  0
  153.5281  142.5000  159.5087 C   0  0  0  0  0  0  0  0  0  0  0  0
  153.4148  141.8827  160.9188 C   0  0  0  0  0  0  0  0  0  0  0  0
  153.3301  142.9415  161.9277 N   0  0  0  0  0  0  0  0  0  0  0  0
  153.1915  142.3497  163.2501 C   0  0  0  0  0  0  0  0  0  0  0  0
  152.1957  143.8303  161.6625 C   0  0  0  0  0  0  0  0  0  0  0  0
  152.3349  144.4418  160.2516 C   0  0  2  0  0  0  0  0  0  0  0  0
  151.3017  145.5572  159.9884 C   0  0  0  0  0  0  0  0  0  0  0  0
  151.2756  140.5104  155.7604 C   0  0  0  0  0  0  0  0  0  0  0  0
  150.5662  139.7916  154.8653 N   0  0  0  0  0  0  0  0  0  0  0  0
  148.0501  136.5971  157.4741 H   0  0  0  0  0  0  0  0  0  0  0  0
  147.3456  135.7813  156.0784 H   0  0  0  0  0  0  0  0  0  0  0  0
  146.3252  136.7651  157.1441 H   0  0  0  0  0  0  0  0  0  0  0  0
  146.6390  137.1352  154.2023 H   0  0  0  0  0  0  0  0  0  0  0  0
  145.6611  138.1575  155.2521 H   0  0  0  0  0  0  0  0  0  0  0  0
  146.5973  139.2046  153.0406 H   0  0  0  0  0  0  0  0  0  0  0  0
  146.7237  140.1528  154.5268 H   0  0  0  0  0  0  0  0  0  0  0  0
  147.4898  141.0537  155.5425 H   0  0  0  0  0  0  0  0  0  0  0  0
  148.7934  142.3833  157.1752 H   0  0  0  0  0  0  0  0  0  0  0  0
  152.5525  142.0125  157.3607 H   0  0  0  0  0  0  0  0  0  0  0  0
  153.6419  141.7001  158.7760 H   0  0  0  0  0  0  0  0  0  0  0  0
  154.4360  143.0997  159.4273 H   0  0  0  0  0  0  0  0  0  0  0  0
  152.5368  141.2370  160.9767 H   0  0  0  0  0  0  0  0  0  0  0  0
  154.2867  141.2589  161.1198 H   0  0  0  0  0  0  0  0  0  0  0  0
  153.1555  143.1261  164.0150 H   0  0  0  0  0  0  0  0  0  0  0  0
  154.0424  141.7046  163.4713 H   0  0  0  0  0  0  0  0  0  0  0  0
  152.2809  141.7533  163.3249 H   0  0  0  0  0  0  0  0  0  0  0  0
  151.2547  143.2845  161.7510 H   0  0  0  0  0  0  0  0  0  0  0  0
  152.1803  144.6232  162.4113 H   0  0  0  0  0  0  0  0  0  0  0  0
  153.3067  144.9356  160.1920 H   0  0  0  0  0  0  0  0  0  0  0  0
  151.4989  146.4160  160.6304 H   0  0  0  0  0  0  0  0  0  0  0  0
  150.2806  145.2396  160.1965 H   0  0  0  0  0  0  0  0  0  0  0  0
  151.3484  145.9058  158.9563 H   0  0  0  0  0  0  0  0  0  0  0  0
  152.3397  140.3245  155.7760 H   0  0  0  0  0  0  0  0  0  0  0  0
  1  2  1  0  0  0  0
  1 23  1  0  0  0  0
  1 24  1  0  0  0  0
  1 25  1  0  0  0  0
  2  3  1  0  0  0  0
  3  4  1  0  0  0  0
  3 26  1  0  0  0  0
  3 27  1  0  0  0  0
  4  5  1  0  0  0  0
  4 28  1  0  0  0  0
  4 29  1  0  0  0  0
  5  6  1  0  0  0  0
  6 22  1  0  0  0  0
  6  7  2  0  0  0  0
  7  8  1  0  0  0  0
  7 30  1  0  0  0  0
  8  9  2  0  0  0  0
  8 31  1  0  0  0  0
  9 10  1  0  0  0  0
  9 21  1  0  0  0  0
 10 11  1  0  0  0  0
 10 32  1  0  0  0  0
 11 12  2  0  0  0  0
 11 13  1  0  0  0  0
 13 19  1  0  0  0  0
 13 14  1  0  0  0  0
 14 15  1  0  0  0  0
 14 33  1  0  0  0  0
 14 34  1  0  0  0  0
 15 16  1  0  0  0  0
 15 35  1  0  0  0  0
 15 36  1  0  0  0  0
 16 17  1  0  0  0  0
 16 18  1  0  0  0  0
 17 37  1  0  0  0  0
 17 38  1  0  0  0  0
 17 39  1  0  0  0  0
 18 19  1  0  0  0  0
 18 40  1  0  0  0  0
 18 41  1  0  0  0  0
 19 20  1  0  0  0  0
 19 42  1  0  0  0  0
 20 43  1  0  0  0  0
 20 44  1  0  0  0  0
 20 45  1  0  0  0  0
 21 22  2  0  0  0  0
 21 46  1  0  0  0  0
M  END
> <s_m_source_file>
AV-unprocessed.smi

> <i_m_source_file_index>
1071

> <i_lp_mmshare_version>
43012

> <i_f3d_flags>
0

> <s_epik_input>
W0NIM11PW0NIMl1bQ0gyXU9jMVtjSF1bY0hdYyhbY0hdbjEpW05IXUMoPU8pTjJbQ0gyXVtDSDJdTihbQ0gzXSlbQ0gyXVtDQEhdMltDSDNd

> <s_epik_cmdline>
J2VwaWtfcHl0aG9uJywgJy1waCcsICc3LjAnLCAnLXRuJywgJzgnLCAnLW1hJywgJzIwMCcsICctbWV0YWxfYmluZGluZycsICctaW1hZScsICc8aW5maWxlLm1hZT4nLCAnLW9tYWUnLCAnPG91dGZpbGUubWFlPic=

> <r_lp_tautomer_probability>
1

> <r_epik_Ionization_Penalty>
0.623446

> <r_epik_Ionization_Penalty_Charging>
0

> <r_epik_Ionization_Penalty_Neutral>
0.623446

> <r_epik_State_Penalty>
0.639577

> <r_epik_Charging_Adjusted_Penalty>
0.639577

> <i_epik_Tot_Q>
0

> <i_epik_Tot_abs_Q>
0

> <r_epik_Metal_State_Penalty>
0.639567

> <b_epik_Metal_Only>
0

> <s_lp_Force_Field>
OPLS_2005

> <r_lp_Energy>
48.0993

> <b_lp_Chiralities_Consistent>
1

> <s_lp_Variant>
AV-unprocessed.smi:1071-6

> <Gold.Version>
5.8.1

> <Gold.Id.Protein>
6NUR|6NUR_protein|mol2

> <Gold.PLP.Fitness>
37.9889

> <Gold.PLP.PLP>
-38.6371

> <Gold.PLP.part.hbond>
-1.0711

> <Gold.PLP.part.metal>
0.0000

> <Gold.PLP.part.buried>
-2.3011

> <Gold.PLP.part.nonpolar>
-35.4847

> <Gold.PLP.part.repulsive>
1.6266

> <Gold.PLP.ligand.clash>
0.0050

> <Gold.PLP.ligand.torsion>
0.9728

> <Gold.PLP.Chemscore.Hbond>
0.2500

> <Gold.PLP.Chemscore.CHOScore>
0.0000

> <Gold.PLP.Chemscore.Metal>
0.0000

> <Gold.Chemscore.Hbonds>
donor molecule, donor type, donor heavy atom, donor atom, acceptor molecule, acceptor atom, score
      P1  H  7989  7998       L1    22  0.20

> <Gold.PLP.Chemscore.Internal.Correction>
0.5525

> <Gold.Rescore>
     Score         DG    S(hbond)    S(metal)    S(lipo)     H(rot)  DE(clash)    DE(int)     intcor
      7.78     -13.06       0.01        0.00      99.03       1.57       0.66       4.62       ----

> <Gold.Chemscore.Fitness>
7.7814

> <Gold.Chemscore.DG>
-13.0577

> <Gold.Chemscore.ZeroCoef>
-5.4800

> <Gold.Chemscore.Hbond>
0.0063

> <Gold.Chemscore.Metal>
0.0000

> <Gold.Chemscore.Lipo>
99.0328

> <Gold.Chemscore.Internal_Hbond>
0.0000

> <Gold.Chemscore.DEClash>
0.6606

> <Gold.Chemscore.DEInternal>
4.6157

> <Gold.Chemscore.Rot>
1.5743

> <Gold.Chemscore.Internal.Correction>
   9.000000E+99

> <Gold.Chemscore.Hbond.Weighted>
-0.0210

> <Gold.Chemscore.Metal.Weighted>
-0.0000

> <Gold.Chemscore.Lipo.Weighted>
-11.5868

> <Gold.Chemscore.Internal_Hbond.Weighted>
0.0000

> <Gold.Chemscore.DEClash.Weighted>
0.6606

> <Gold.Chemscore.DEInternal.Weighted>
4.6157

> <Gold.Chemscore.Rot.Weighted>
4.0301

> <Gold.Chemscore.Internal.Correction.Weighted>
   9.000000E+99

> <Gold.Protein.RotatedTorsions>
[ 6907 6896 6895 6894 ] final  -27.90 input  -60.11 | X-H torsion
[ 7974 7965 7964 7962 ] final  113.62 input  175.53 | X-H torsion
[ 8008 7997 7996 7995 ] final  118.40 input   59.86 | X-H torsion
[ 10167 10162 10161 10158 ] final   99.90 input  -65.29 | X-H torsion
[ 10718 10713 10712 10709 ] final -104.02 input   66.30 | X-H torsion
[ 10763 10752 10751 10750 ] final  178.01 input  -60.55 | X-H torsion
[ 11005 11000 10999 10996 ] final   -8.79 input  -57.11 | X-H torsion

> <Gold.Protein.ActiveResidues>
 VAL166  LYS551  ARG553  GLY616  TRP617  ASP618  TYR619  PRO620  LYS621  CYS622 
 ASP623  PHE694  ASN695  SER759  ASP760  ASP761  ALA762  ILE779  LEU786  VAL792 
 PHE793  MET794  SER795  GLU796  ALA797  LYS798  CYS799  TRP800  GLU811  SER814 

> <Gold.Protein.RotatedAtoms>
  151.1404  135.0176  159.8622 H   0  0  0  0  0  0  0  0  0  0  0  0  # atno 6907 bound_to 6896
  152.5452  134.1506  159.8527 H   0  0  0  0  0  0  0  0  0  0  0  0  # atno 6908 bound_to 6896
  151.1581  133.4818  159.2627 H   0  0  0  0  0  0  0  0  0  0  0  0  # atno 6909 bound_to 6896
  145.2147  139.2890  143.4250 H   0  0  0  0  0  0  0  0  0  0  0  0  # atno 7974 bound_to 7965
  156.2544  140.2875  156.0828 H   0  0  0  0  0  0  0  0  0  0  0  0  # atno 8008 bound_to 7997
  155.1547  140.0398  157.2846 H   0  0  0  0  0  0  0  0  0  0  0  0  # atno 8009 bound_to 7997
  154.6435  140.2528  155.7301 H   0  0  0  0  0  0  0  0  0  0  0  0  # atno 8010 bound_to 7997
  139.7575  144.6965  151.0341 H   0  0  0  0  0  0  0  0  0  0  0  0  # atno 10167 bound_to 10162
  156.0288  130.5495  150.7336 H   0  0  0  0  0  0  0  0  0  0  0  0  # atno 10718 bound_to 10713
  154.5020  135.2784  155.1413 H   0  0  0  0  0  0  0  0  0  0  0  0  # atno 10763 bound_to 10752
  154.3042  135.6242  153.5441 H   0  0  0  0  0  0  0  0  0  0  0  0  # atno 10764 bound_to 10752
  152.9904  135.5704  154.5465 H   0  0  0  0  0  0  0  0  0  0  0  0  # atno 10765 bound_to 10752
  140.7272  133.8779  155.8865 H   0  0  0  0  0  0  0  0  0  0  0  0  # atno 11005 bound_to 11000
  146.3389  140.2434  142.8596 LP  0  0  0  0  0  0  0  0  0  0  0  0  # atno 17320 bound_to 7965
  144.9822  140.8470  143.5390 LP  0  0  0  0  0  0  0  0  0  0  0  0  # atno 17321 bound_to 7965
  140.7804  143.4736  151.0113 LP  0  0  0  0  0  0  0  0  0  0  0  0  # atno 17342 bound_to 10162
  139.8422  143.7548  152.3180 LP  0  0  0  0  0  0  0  0  0  0  0  0  # atno 17343 bound_to 10162
  157.4923  131.0912  151.0413 LP  0  0  0  0  0  0  0  0  0  0  0  0  # atno 17370 bound_to 10713
  157.0816  130.5905  149.5421 LP  0  0  0  0  0  0  0  0  0  0  0  0  # atno 17371 bound_to 10713
  140.9952  134.1224  157.4370 LP  0  0  0  0  0  0  0  0  0  0  0  0  # atno 17394 bound_to 11000
  139.8834  135.0052  156.6300 LP  0  0  0  0  0  0  0  0  0  0  0  0  # atno 17395 bound_to 11000

$$$$
