AV-unprocessed.smi:1480|AV-procd|sdf|5986|dock10
  -GOLD-   22720 6 83D 1   1.00000     0.00000
 Structure written by MMmdl.
 37 38  0  0  0  0  0  0  0  0  1 V2000
  153.0454  142.9434  160.5930 C   0  0  0  0  0  0  0  0  0  0  0  0
  152.4827  142.3848  159.3623 N   0  0  0  0  0  0  0  0  0  0  0  0
  151.9504  143.3754  158.4158 C   0  0  0  0  0  0  0  0  0  0  0  0
  151.0164  142.7740  157.3577 C   0  0  0  0  0  0  0  0  0  0  0  0
  151.6569  141.5254  156.7380 C   0  0  2  0  0  0  0  0  0  0  0  0
  150.7617  140.9438  155.6340 C   0  0  0  0  0  0  0  0  0  0  0  0
  151.1954  140.0514  154.9052 O   0  0  0  0  0  0  0  0  0  0  0  0
  149.5257  141.4690  155.5462 N   0  0  0  0  0  0  0  0  0  0  0  0
  148.4901  141.1505  154.6300 C   0  0  0  0  0  0  0  0  0  0  0  0
  147.5040  142.0512  154.1259 C   0  0  0  0  0  0  0  0  0  0  0  0
  146.7531  141.2635  153.3009 C   0  0  0  0  0  0  0  0  0  0  0  0
  147.2887  139.9916  153.3388 N   0  0  0  0  0  0  0  0  0  0  0  0
  146.8401  138.8046  152.6328 C   0  0  0  0  0  0  0  0  0  0  0  0
  146.3684  137.7263  153.6095 C   0  0  0  0  0  0  0  0  0  0  0  0
  147.0173  136.5591  153.5892 N   0  0  0  0  0  0  0  0  0  0  0  0
  145.4304  137.9448  154.3729 O   0  0  0  0  0  0  0  0  0  0  0  0
  148.3605  139.9216  154.1592 N   0  0  0  0  0  0  0  0  0  0  0  0
  151.9248  140.4795  157.8394 C   0  0  0  0  0  0  0  0  0  0  0  0
  152.5530  141.0532  159.1207 C   0  0  0  0  0  0  0  0  0  0  0  0
  153.0788  140.2664  159.9086 O   0  0  0  0  0  0  0  0  0  0  0  0
  154.1105  142.7183  160.6652 H   0  0  0  0  0  0  0  0  0  0  0  0
  152.5476  142.5232  161.4680 H   0  0  0  0  0  0  0  0  0  0  0  0
  152.9388  144.0276  160.6422 H   0  0  0  0  0  0  0  0  0  0  0  0
  151.4160  144.1604  158.9528 H   0  0  0  0  0  0  0  0  0  0  0  0
  152.7969  143.8559  157.9234 H   0  0  0  0  0  0  0  0  0  0  0  0
  150.0624  142.5179  157.8223 H   0  0  0  0  0  0  0  0  0  0  0  0
  150.8000  143.5199  156.5915 H   0  0  0  0  0  0  0  0  0  0  0  0
  152.6127  141.8139  156.2959 H   0  0  0  0  0  0  0  0  0  0  0  0
  149.3006  142.1903  156.2158 H   0  0  0  0  0  0  0  0  0  0  0  0
  147.3550  143.1015  154.3248 H   0  0  0  0  0  0  0  0  0  0  0  0
  145.8909  141.4990  152.6944 H   0  0  0  0  0  0  0  0  0  0  0  0
  146.0368  139.0674  151.9423 H   0  0  0  0  0  0  0  0  0  0  0  0
  147.6667  138.4236  152.0316 H   0  0  0  0  0  0  0  0  0  0  0  0
  146.7447  135.8197  154.2207 H   0  0  0  0  0  0  0  0  0  0  0  0
  147.7834  136.4228  152.9455 H   0  0  0  0  0  0  0  0  0  0  0  0
  150.9961  139.9891  158.1351 H   0  0  0  0  0  0  0  0  0  0  0  0
  152.5756  139.6952  157.4504 H   0  0  0  0  0  0  0  0  0  0  0  0
  1  2  1  0  0  0  0
  1 21  1  0  0  0  0
  1 22  1  0  0  0  0
  1 23  1  0  0  0  0
  2 19  1  0  0  0  0
  2  3  1  0  0  0  0
  3  4  1  0  0  0  0
  3 24  1  0  0  0  0
  3 25  1  0  0  0  0
  4  5  1  0  0  0  0
  4 26  1  0  0  0  0
  4 27  1  0  0  0  0
  5  6  1  0  0  0  0
  5 18  1  0  0  0  0
  5 28  1  0  0  0  0
  6  7  2  0  0  0  0
  6  8  1  0  0  0  0
  8  9  1  0  0  0  0
  8 29  1  0  0  0  0
  9 17  2  0  0  0  0
  9 10  1  0  0  0  0
 10 11  2  0  0  0  0
 10 30  1  0  0  0  0
 11 12  1  0  0  0  0
 11 31  1  0  0  0  0
 12 13  1  0  0  0  0
 12 17  1  0  0  0  0
 13 14  1  0  0  0  0
 13 32  1  0  0  0  0
 13 33  1  0  0  0  0
 14 15  1  0  0  0  0
 14 16  2  0  0  0  0
 15 34  1  0  0  0  0
 15 35  1  0  0  0  0
 18 19  1  0  0  0  0
 18 36  1  0  0  0  0
 18 37  1  0  0  0  0
 19 20  2  0  0  0  0
M  END
> <s_m_source_file>
AV-unprocessed.smi

> <i_m_source_file_index>
1480

> <i_lp_mmshare_version>
43012

> <i_f3d_flags>
0

> <s_epik_input>
W0NIM11OMVtDSDJdW0NIMl1bQ0BIXShbQ0gyXUMxPU8pQyg9TylbTkhdYzJbY0hdW2NIXW4objIpW0NIMl1DKD1PKVtOSDJd

> <s_epik_cmdline>
J2VwaWtfcHl0aG9uJywgJy1waCcsICc3LjAnLCAnLXRuJywgJzgnLCAnLW1hJywgJzIwMCcsICctbWV0YWxfYmluZGluZycsICctaW1hZScsICc8aW5maWxlLm1hZT4nLCAnLW9tYWUnLCAnPG91dGZpbGUubWFlPic=

> <r_lp_tautomer_probability>
1

> <r_epik_Ionization_Penalty>
3.93272e-06

> <r_epik_Ionization_Penalty_Charging>
0

> <r_epik_Ionization_Penalty_Neutral>
3.93272e-06

> <r_epik_State_Penalty>
-0

> <r_epik_Charging_Adjusted_Penalty>
0

> <i_epik_Tot_Q>
0

> <i_epik_Tot_abs_Q>
0

> <r_epik_Metal_State_Penalty>
-0

> <b_epik_Metal_Only>
0

> <s_lp_Force_Field>
OPLS_2005

> <r_lp_Energy>
16.8293

> <b_lp_Chiralities_Consistent>
1

> <s_lp_Variant>
AV-unprocessed.smi:1480-2

> <Gold.Version>
5.8.1

> <Gold.Id.Protein>
6NUR|6NUR_protein|mol2

> <Gold.PLP.Fitness>
41.1068

> <Gold.PLP.PLP>
-36.8792

> <Gold.PLP.part.hbond>
-2.0000

> <Gold.PLP.part.metal>
0.0000

> <Gold.PLP.part.buried>
-5.3483

> <Gold.PLP.part.nonpolar>
-30.3112

> <Gold.PLP.part.repulsive>
0.3914

> <Gold.PLP.ligand.clash>
2.3522

> <Gold.PLP.ligand.torsion>
0.3752

> <Gold.PLP.Chemscore.Hbond>
2.0000

> <Gold.PLP.Chemscore.CHOScore>
0.4410

> <Gold.PLP.Chemscore.Metal>
0.0000

> <Gold.Chemscore.Hbonds>
donor molecule, donor type, donor heavy atom, donor atom, acceptor molecule, acceptor atom, score
      L1  H    15    35       P1  7948  1.00
      P1  H  7989  7998       L1     7  1.00
      L1  C    11    31       P1 10175  0.40

> <Gold.PLP.Chemscore.Internal.Correction>
0.0072

> <Gold.Rescore>
     Score         DG    S(hbond)    S(metal)    S(lipo)     H(rot)  DE(clash)    DE(int)     intcor
     12.94     -14.54       1.97        0.00      65.63       2.03       0.04       1.56       ----

> <Gold.Chemscore.Fitness>
12.9423

> <Gold.Chemscore.DG>
-14.5432

> <Gold.Chemscore.ZeroCoef>
-5.4800

> <Gold.Chemscore.Hbond>
1.9679

> <Gold.Chemscore.Metal>
0.0000

> <Gold.Chemscore.Lipo>
65.6347

> <Gold.Chemscore.Internal_Hbond>
0.0000

> <Gold.Chemscore.DEClash>
0.0411

> <Gold.Chemscore.DEInternal>
1.5598

> <Gold.Chemscore.Rot>
2.0269

> <Gold.Chemscore.Internal.Correction>
   9.000000E+99

> <Gold.Chemscore.Hbonds>
donor molecule, donor type, donor heavy atom, donor atom, acceptor molecule, acceptor atom, score
      L1  H    15    35       P1  7948  0.99
      P1  H  7989  7998       L1     7  0.45

> <Gold.Chemscore.Hbond.Weighted>
-6.5727

> <Gold.Chemscore.Metal.Weighted>
-0.0000

> <Gold.Chemscore.Lipo.Weighted>
-7.6793

> <Gold.Chemscore.Internal_Hbond.Weighted>
0.0000

> <Gold.Chemscore.DEClash.Weighted>
0.0411

> <Gold.Chemscore.DEInternal.Weighted>
1.5598

> <Gold.Chemscore.Rot.Weighted>
5.1888

> <Gold.Chemscore.Internal.Correction.Weighted>
   9.000000E+99

> <Gold.Protein.RotatedTorsions>
[ 6907 6896 6895 6894 ] final   20.49 input  -60.11 | X-H torsion
[ 7974 7965 7964 7962 ] final   50.61 input  175.53 | X-H torsion
[ 8008 7997 7996 7995 ] final   54.64 input   59.86 | X-H torsion
[ 10167 10162 10161 10158 ] final   81.24 input  -65.29 | X-H torsion
[ 10718 10713 10712 10709 ] final   75.22 input   66.30 | X-H torsion
[ 10763 10752 10751 10750 ] final  -31.33 input  -60.55 | X-H torsion
[ 11005 11000 10999 10996 ] final  -87.13 input  -57.11 | X-H torsion

> <Gold.Protein.ActiveResidues>
 VAL166  LYS551  ARG553  GLY616  TRP617  ASP618  TYR619  PRO620  LYS621  CYS622 
 ASP623  PHE694  ASN695  SER759  ASP760  ASP761  ALA762  ILE779  LEU786  VAL792 
 PHE793  MET794  SER795  GLU796  ALA797  LYS798  CYS799  TRP800  GLU811  SER814 

> <Gold.Protein.RotatedAtoms>
  151.8971  135.0393  160.0502 H   0  0  0  0  0  0  0  0  0  0  0  0  # atno 6907 bound_to 6896
  152.2388  133.5114  159.5266 H   0  0  0  0  0  0  0  0  0  0  0  0  # atno 6908 bound_to 6896
  150.7047  134.1033  159.4016 H   0  0  0  0  0  0  0  0  0  0  0  0  # atno 6909 bound_to 6896
  145.9995  139.4424  143.0024 H   0  0  0  0  0  0  0  0  0  0  0  0  # atno 7974 bound_to 7965
  155.4880  140.3470  155.4350 H   0  0  0  0  0  0  0  0  0  0  0  0  # atno 8008 bound_to 7997
  156.0996  140.1432  156.9514 H   0  0  0  0  0  0  0  0  0  0  0  0  # atno 8009 bound_to 7997
  154.4685  140.0909  156.7061 H   0  0  0  0  0  0  0  0  0  0  0  0  # atno 8010 bound_to 7997
  139.9413  144.6088  150.8249 H   0  0  0  0  0  0  0  0  0  0  0  0  # atno 10167 bound_to 10162
  157.6625  130.9716  150.1323 H   0  0  0  0  0  0  0  0  0  0  0  0  # atno 10718 bound_to 10713
  153.7956  135.6894  153.4864 H   0  0  0  0  0  0  0  0  0  0  0  0  # atno 10763 bound_to 10752
  153.1721  135.4538  154.9915 H   0  0  0  0  0  0  0  0  0  0  0  0  # atno 10764 bound_to 10752
  154.8027  135.3344  154.7449 H   0  0  0  0  0  0  0  0  0  0  0  0  # atno 10765 bound_to 10752
  141.1621  133.7494  156.9262 H   0  0  0  0  0  0  0  0  0  0  0  0  # atno 11005 bound_to 11000
  145.7509  140.9973  143.1251 LP  0  0  0  0  0  0  0  0  0  0  0  0  # atno 17320 bound_to 7965
  144.6914  139.9213  143.7468 LP  0  0  0  0  0  0  0  0  0  0  0  0  # atno 17321 bound_to 7965
  140.7610  143.3164  151.2723 LP  0  0  0  0  0  0  0  0  0  0  0  0  # atno 17342 bound_to 10162
  139.6702  144.0033  152.2748 LP  0  0  0  0  0  0  0  0  0  0  0  0  # atno 17343 bound_to 10162
  156.2166  130.3670  149.8605 LP  0  0  0  0  0  0  0  0  0  0  0  0  # atno 17370 bound_to 10713
  156.6470  130.8728  151.3524 LP  0  0  0  0  0  0  0  0  0  0  0  0  # atno 17371 bound_to 10713
  140.1418  134.9289  157.2476 LP  0  0  0  0  0  0  0  0  0  0  0  0  # atno 17394 bound_to 11000
  140.2828  134.3330  155.7338 LP  0  0  0  0  0  0  0  0  0  0  0  0  # atno 17395 bound_to 11000

$$$$
