AV-unprocessed.smi:54|AV-procd|sdf|533|dock8
  -GOLD-   2262016413D 1   1.00000     0.00000
 Structure written by MMmdl.
 44 46  0  0  0  0  0  0  0  0  1 V2000
  151.8636  131.9574  157.0667 C   0  0  0  0  0  0  0  0  0  0  0  0
  150.7262  132.8208  156.4974 C   0  0  0  0  0  0  0  0  0  0  0  0
  150.2856  132.3212  155.1118 C   0  0  0  0  0  0  0  0  0  0  0  0
  151.1473  134.2929  156.4313 C   0  0  0  0  0  0  0  0  0  0  0  0
  152.1952  134.6949  156.9359 O   0  0  0  0  0  0  0  0  0  0  0  0
  150.2363  135.1709  155.7224 N   0  0  0  0  0  0  0  0  0  0  0  0
  150.3710  136.5023  155.5262 C   0  0  0  0  0  0  0  0  0  0  0  0
  149.3777  137.2816  155.1208 N   0  0  0  0  0  0  0  0  0  0  0  0
  149.7168  138.5968  154.9525 C   0  0  0  0  0  0  0  0  0  0  0  0
  150.9612  139.1542  155.1688 C   0  0  0  0  0  0  0  0  0  0  0  0
  150.9327  140.5179  154.9023 N   0  0  0  0  0  0  0  0  0  0  0  0
  149.7034  140.7405  154.5327 C   0  0  0  0  0  0  0  0  0  0  0  0
  148.8995  139.6264  154.5264 N   0  0  0  0  0  0  0  0  0  0  0  0
  147.4575  139.5520  154.1448 C   0  0  2  0  0  0  0  0  0  0  0  0
  147.0718  138.2160  154.1394 O   0  0  0  0  0  0  0  0  0  0  0  0
  146.0323  138.0642  153.1844 C   0  0  2  0  0  0  0  0  0  0  0  0
  145.7939  136.5837  152.8406 C   0  0  0  0  0  0  0  0  0  0  0  0
  144.9670  136.4783  151.7012 O   0  0  0  0  0  0  0  0  0  0  0  0
  146.5009  138.9597  152.0260 C   0  0  2  0  0  0  0  0  0  0  0  0
  147.3929  138.2765  151.1659 O   0  0  0  0  0  0  0  0  0  0  0  0
  147.2144  140.1132  152.7319 C   0  0  1  0  0  0  0  0  0  0  0  0
  146.3553  141.2355  152.7734 O   0  0  0  0  0  0  0  0  0  0  0  0
  152.0451  138.3228  155.6062 C   0  0  0  0  0  0  0  0  0  0  0  0
  153.2063  138.6473  155.8446 O   0  0  0  0  0  0  0  0  0  0  0  0
  151.6579  136.9862  155.7560 N   0  0  0  0  0  0  0  0  0  0  0  0
  146.9259  140.0941  154.9286 H   0  0  0  0  0  0  0  0  0  0  0  0
  145.1201  138.5004  153.5975 H   0  0  0  0  0  0  0  0  0  0  0  0
  145.6575  139.2939  151.4200 H   0  0  0  0  0  0  0  0  0  0  0  0
  148.1511  140.3878  152.2435 H   0  0  0  0  0  0  0  0  0  0  0  0
  152.1828  132.3167  158.0458 H   0  0  0  0  0  0  0  0  0  0  0  0
  152.7355  131.9581  156.4111 H   0  0  0  0  0  0  0  0  0  0  0  0
  151.5429  130.9224  157.1874 H   0  0  0  0  0  0  0  0  0  0  0  0
  149.8726  132.7409  157.1722 H   0  0  0  0  0  0  0  0  0  0  0  0
  149.4808  132.9356  154.7063 H   0  0  0  0  0  0  0  0  0  0  0  0
  149.9175  131.2965  155.1667 H   0  0  0  0  0  0  0  0  0  0  0  0
  151.1097  132.3371  154.3973 H   0  0  0  0  0  0  0  0  0  0  0  0
  149.4376  134.7272  155.2941 H   0  0  0  0  0  0  0  0  0  0  0  0
  149.3525  141.7217  154.2479 H   0  0  0  0  0  0  0  0  0  0  0  0
  146.7385  136.0932  152.6037 H   0  0  0  0  0  0  0  0  0  0  0  0
  145.3461  136.0482  153.6766 H   0  0  0  0  0  0  0  0  0  0  0  0
  144.7791  137.3487  151.3847 H   0  0  0  0  0  0  0  0  0  0  0  0
  147.9463  137.7153  151.6869 H   0  0  0  0  0  0  0  0  0  0  0  0
  145.4634  140.9287  152.8307 H   0  0  0  0  0  0  0  0  0  0  0  0
  152.3730  136.3408  156.0568 H   0  0  0  0  0  0  0  0  0  0  0  0
  1  2  1  0  0  0  0
  1 30  1  0  0  0  0
  1 31  1  0  0  0  0
  1 32  1  0  0  0  0
  2  3  1  0  0  0  0
  2  4  1  0  0  0  0
  2 33  1  0  0  0  0
  3 34  1  0  0  0  0
  3 35  1  0  0  0  0
  3 36  1  0  0  0  0
  4  5  2  0  0  0  0
  4  6  1  0  0  0  0
  6 37  1  0  0  0  0
  6  7  1  0  0  0  0
  7 25  1  0  0  0  0
  7  8  2  0  0  0  0
  8  9  1  0  0  0  0
  9 13  1  0  0  0  0
  9 10  2  0  0  0  0
 10 11  1  0  0  0  0
 10 23  1  0  0  0  0
 11 12  2  0  0  0  0
 12 13  1  0  0  0  0
 12 38  1  0  0  0  0
 13 14  1  0  0  0  0
 14 26  1  0  0  0  0
 14 21  1  0  0  0  0
 14 15  1  0  0  0  0
 15 16  1  0  0  0  0
 16 27  1  0  0  0  0
 16 17  1  0  0  0  0
 16 19  1  0  0  0  0
 17 18  1  0  0  0  0
 17 39  1  0  0  0  0
 17 40  1  0  0  0  0
 18 41  1  0  0  0  0
 19 28  1  0  0  0  0
 19 20  1  0  0  0  0
 19 21  1  0  0  0  0
 20 42  1  0  0  0  0
 21 29  1  0  0  0  0
 21 22  1  0  0  0  0
 22 43  1  0  0  0  0
 23 24  2  0  0  0  0
 23 25  1  0  0  0  0
 25 44  1  0  0  0  0
M  END
> <s_m_source_file>
AV-unprocessed.smi

> <i_m_source_file_index>
54

> <i_lp_mmshare_version>
43012

> <i_f3d_flags>
0

> <s_epik_input>
W0NIM11bQ0hdKFtDSDNdKUMoPU8pW05IXWMobjEpW25IXWMoPU8pYyhjMTIpbltjSF1uMltDQEBIXTNPW0NASF0oW0NIMl1bT0hdKVtDQEBIXShbT0hdKVtDQEhdM1tPSF0=

> <s_epik_cmdline>
J2VwaWtfcHl0aG9uJywgJy1waCcsICc3LjAnLCAnLXRuJywgJzgnLCAnLW1hJywgJzIwMCcsICctbWV0YWxfYmluZGluZycsICctaW1hZScsICc8aW5maWxlLm1hZT4nLCAnLW9tYWUnLCAnPG91dGZpbGUubWFlPic=

> <r_lp_tautomer_probability>
0.85571

> <r_epik_Ionization_Penalty>
0.0316551

> <r_epik_Ionization_Penalty_Charging>
0.0316043

> <r_epik_Ionization_Penalty_Neutral>
5.07097e-05

> <r_epik_State_Penalty>
3.15494e-07

> <r_epik_Charging_Adjusted_Penalty>
0.0316047

> <i_epik_Tot_Q>
0

> <i_epik_Tot_abs_Q>
0

> <r_epik_Metal_State_Penalty>
0.421206

> <b_epik_Metal_Only>
0

> <s_epik_Chemistry_Notes>
This compound contains an acetal/aminal-like group ( X-CH(R)-Y where X, Y are N, S, or O) that may be acid/base labile, releasing an aldehyde.

> <s_lp_Force_Field>
OPLS_2005

> <r_lp_Energy>
38.1022

> <b_lp_Chiralities_Consistent>
1

> <s_lp_Variant>
AV-unprocessed.smi:54-5

> <Gold.Version>
5.8.1

> <Gold.Id.Protein>
6NUR|6NUR_protein|mol2

> <Gold.PLP.Fitness>
50.6363

> <Gold.PLP.PLP>
-33.9381

> <Gold.PLP.part.hbond>
-8.2205

> <Gold.PLP.part.metal>
0.0000

> <Gold.PLP.part.buried>
3.5676

> <Gold.PLP.part.nonpolar>
-26.7299

> <Gold.PLP.part.repulsive>
0.7753

> <Gold.PLP.ligand.clash>
0.0000

> <Gold.PLP.ligand.torsion>
0.3933

> <Gold.PLP.Chemscore.Hbond>
5.8179

> <Gold.PLP.Chemscore.CHOScore>
0.0000

> <Gold.PLP.Chemscore.Metal>
0.0000

> <Gold.Chemscore.Hbonds>
donor molecule, donor type, donor heavy atom, donor atom, acceptor molecule, acceptor atom, score
      L1  H    18    41       P1 10171  0.55
      L1  H    20    42       P1  7948  0.98
      L1  H    22    43       P1 10175  1.00
      P1  H  7954  7966       L1    20  0.50
      P1  H  7989  7998       L1    11  0.85
      P1  H  7997  8008       L1    24  1.00
      P1  H 10752 10763       L1     5  0.63

> <Gold.PLP.Chemscore.Internal.Correction>
0.0313

> <Gold.Rescore>
     Score         DG    S(hbond)    S(metal)    S(lipo)     H(rot)  DE(clash)    DE(int)     intcor
     10.14     -13.91       3.90        0.00      49.40       4.05       1.98       1.79       ----

> <Gold.Chemscore.Fitness>
10.1388

> <Gold.Chemscore.DG>
-13.9131

> <Gold.Chemscore.ZeroCoef>
-5.4800

> <Gold.Chemscore.Hbond>
3.8982

> <Gold.Chemscore.Metal>
0.0000

> <Gold.Chemscore.Lipo>
49.3955

> <Gold.Chemscore.Internal_Hbond>
0.0000

> <Gold.Chemscore.DEClash>
1.9831

> <Gold.Chemscore.DEInternal>
1.7912

> <Gold.Chemscore.Rot>
4.0493

> <Gold.Chemscore.Internal.Correction>
   9.000000E+99

> <Gold.Chemscore.Hbonds>
donor molecule, donor type, donor heavy atom, donor atom, acceptor molecule, acceptor atom, score
      L1  H    18    41       P1 10171  0.53
      L1  H    20    42       P1  7948  0.93
      L1  H    22    43       P1 10175  0.26
      P1  H  7954  7966       L1    20  0.02
      P1  H  7989  7998       L1    11  0.12
      P1  H  7997  8008       L1    24  0.94
      P1  H 10752 10763       L1     5  0.21

> <Gold.Chemscore.Hbond.Weighted>
-13.0200

> <Gold.Chemscore.Metal.Weighted>
-0.0000

> <Gold.Chemscore.Lipo.Weighted>
-5.7793

> <Gold.Chemscore.Internal_Hbond.Weighted>
0.0000

> <Gold.Chemscore.DEClash.Weighted>
1.9831

> <Gold.Chemscore.DEInternal.Weighted>
1.7912

> <Gold.Chemscore.Rot.Weighted>
10.3662

> <Gold.Chemscore.Internal.Correction.Weighted>
   9.000000E+99

> <Gold.Protein.RotatedTorsions>
[ 6907 6896 6895 6894 ] final -127.96 input  -60.11 | X-H torsion
[ 7974 7965 7964 7962 ] final  112.35 input  175.53 | X-H torsion
[ 8008 7997 7996 7995 ] final  -36.62 input   59.86 | X-H torsion
[ 10167 10162 10161 10158 ] final -107.51 input  -65.29 | X-H torsion
[ 10718 10713 10712 10709 ] final -175.43 input   66.30 | X-H torsion
[ 10763 10752 10751 10750 ] final  100.49 input  -60.55 | X-H torsion
[ 11005 11000 10999 10996 ] final  -79.86 input  -57.11 | X-H torsion

> <Gold.Protein.ActiveResidues>
 VAL166  LYS551  ARG553  GLY616  TRP617  ASP618  TYR619  PRO620  LYS621  CYS622 
 ASP623  PHE694  ASN695  SER759  ASP760  ASP761  ALA762  ILE779  LEU786  VAL792 
 PHE793  MET794  SER795  GLU796  ALA797  LYS798  CYS799  TRP800  GLU811  SER814 

> <Gold.Protein.RotatedAtoms>
  150.9128  133.6976  159.2850 H   0  0  0  0  0  0  0  0  0  0  0  0  # atno 6907 bound_to 6896
  151.4457  135.1023  159.9693 H   0  0  0  0  0  0  0  0  0  0  0  0  # atno 6908 bound_to 6896
  152.4939  133.8526  159.7264 H   0  0  0  0  0  0  0  0  0  0  0  0  # atno 6909 bound_to 6896
  145.2306  139.2821  143.4170 H   0  0  0  0  0  0  0  0  0  0  0  0  # atno 7974 bound_to 7965
  154.4069  140.1626  156.2404 H   0  0  0  0  0  0  0  0  0  0  0  0  # atno 8008 bound_to 7997
  155.9206  140.3421  155.6147 H   0  0  0  0  0  0  0  0  0  0  0  0  # atno 8009 bound_to 7997
  155.7227  140.0770  157.2314 H   0  0  0  0  0  0  0  0  0  0  0  0  # atno 8010 bound_to 7997
  140.1762  143.4003  152.1316 H   0  0  0  0  0  0  0  0  0  0  0  0  # atno 10167 bound_to 10162
  156.7997  130.9548  151.3119 H   0  0  0  0  0  0  0  0  0  0  0  0  # atno 10718 bound_to 10713
  153.3147  135.4077  155.1366 H   0  0  0  0  0  0  0  0  0  0  0  0  # atno 10763 bound_to 10752
  154.8585  135.3573  154.5677 H   0  0  0  0  0  0  0  0  0  0  0  0  # atno 10764 bound_to 10752
  153.6107  135.7068  153.5407 H   0  0  0  0  0  0  0  0  0  0  0  0  # atno 10765 bound_to 10752
  141.1668  133.7124  156.8186 H   0  0  0  0  0  0  0  0  0  0  0  0  # atno 11005 bound_to 11000
  146.3354  140.2640  142.8603 LP  0  0  0  0  0  0  0  0  0  0  0  0  # atno 17320 bound_to 7965
  144.9680  140.8340  143.5473 LP  0  0  0  0  0  0  0  0  0  0  0  0  # atno 17321 bound_to 7965
  139.5316  144.7165  151.5037 LP  0  0  0  0  0  0  0  0  0  0  0  0  # atno 17342 bound_to 10162
  140.6550  143.8619  150.6825 LP  0  0  0  0  0  0  0  0  0  0  0  0  # atno 17343 bound_to 10162
  157.6560  130.8925  149.9729 LP  0  0  0  0  0  0  0  0  0  0  0  0  # atno 17370 bound_to 10713
  156.1109  130.3650  150.0051 LP  0  0  0  0  0  0  0  0  0  0  0  0  # atno 17371 bound_to 10713
  140.2136  134.8809  157.3301 LP  0  0  0  0  0  0  0  0  0  0  0  0  # atno 17394 bound_to 11000
  140.2061  134.4195  155.7637 LP  0  0  0  0  0  0  0  0  0  0  0  0  # atno 17395 bound_to 11000

$$$$
