AV-unprocessed.smi:1469|AV-procd|sdf|5959|dock8
  -GOLD-   22720 6 43D 1   1.00000     0.00000
 Structure written by MMmdl.
 41 42  0  0  0  0  0  0  0  0  2 V2000
  146.1444  137.2978  154.7050 C   0  0  0  0  0  0  0  0  0  0  0  0
  145.8898  137.5594  153.2062 C   0  0  1  0  0  0  0  0  0  0  0  0
  146.7489  138.7460  152.6985 C   0  0  0  0  0  0  0  0  0  0  0  0
  148.1423  138.6828  153.1373 N   0  0  0  0  0  0  0  0  0  0  0  0
  148.7004  139.4666  154.0725 C   0  0  0  0  0  0  0  0  0  0  0  0
  148.0730  140.3241  154.6951 O   0  0  0  0  0  0  0  0  0  0  0  0
  150.1888  139.2184  154.3562 C   0  0  0  0  0  0  0  0  0  0  0  0
  150.6776  139.9130  155.5590 N   0  0  0  0  0  0  0  0  0  0  0  0
  150.4682  141.3051  155.6265 C   0  0  0  0  0  0  0  0  0  0  0  0
  150.8750  142.0340  156.6779 C   0  0  0  0  0  0  0  0  0  0  0  0
  151.5437  141.3542  157.7619 C   0  0  0  0  0  0  0  0  0  0  0  0
  151.7517  140.0235  157.7061 C   0  0  0  0  0  0  0  0  0  0  0  0
  151.3117  139.2234  156.5573 C   0  0  0  0  0  0  0  0  0  0  0  0
  151.5013  138.0081  156.4949 O   0  0  0  0  0  0  0  0  0  0  0  0
  146.1040  136.3283  152.3914 N   0  3  0  0  0  0  0  0  0  0  0  0
  145.6137  135.0685  152.9909 C   0  0  0  0  0  0  0  0  0  0  0  0
  145.4932  134.0979  151.8220 C   0  0  0  0  0  0  0  0  0  0  0  0
  145.0055  134.9886  150.6850 C   0  0  0  0  0  0  0  0  0  0  0  0
  145.5612  136.3822  151.0101 C   0  0  0  0  0  0  0  0  0  0  0  0
  146.0689  138.2202  155.2815 H   0  0  0  0  0  0  0  0  0  0  0  0
  147.1364  136.8804  154.8781 H   0  0  0  0  0  0  0  0  0  0  0  0
  145.4156  136.6050  155.1257 H   0  0  0  0  0  0  0  0  0  0  0  0
  144.8418  137.8469  153.1057 H   0  0  0  0  0  0  0  0  0  0  0  0
  146.7588  138.7557  151.6085 H   0  0  0  0  0  0  0  0  0  0  0  0
  146.2946  139.6958  152.9863 H   0  0  0  0  0  0  0  0  0  0  0  0
  148.7368  138.0118  152.6724 H   0  0  0  0  0  0  0  0  0  0  0  0
  150.3405  138.1420  154.4476 H   0  0  0  0  0  0  0  0  0  0  0  0
  150.7795  139.5167  153.4877 H   0  0  0  0  0  0  0  0  0  0  0  0
  149.9669  141.7380  154.7732 H   0  0  0  0  0  0  0  0  0  0  0  0
  150.7091  143.1008  156.7109 H   0  0  0  0  0  0  0  0  0  0  0  0
  151.8800  141.9150  158.6214 H   0  0  0  0  0  0  0  0  0  0  0  0
  152.2546  139.5319  158.5262 H   0  0  0  0  0  0  0  0  0  0  0  0
  146.2858  134.6953  153.7642 H   0  0  0  0  0  0  0  0  0  0  0  0
  144.6314  135.2296  153.4386 H   0  0  0  0  0  0  0  0  0  0  0  0
  146.4743  133.6877  151.5782 H   0  0  0  0  0  0  0  0  0  0  0  0
  144.8206  133.2647  152.0287 H   0  0  0  0  0  0  0  0  0  0  0  0
  145.3252  134.6269  149.7072 H   0  0  0  0  0  0  0  0  0  0  0  0
  143.9149  135.0196  150.6856 H   0  0  0  0  0  0  0  0  0  0  0  0
  144.7668  137.1242  150.9174 H   0  0  0  0  0  0  0  0  0  0  0  0
  146.3589  136.6629  150.3215 H   0  0  0  0  0  0  0  0  0  0  0  0
  147.1027  136.2124  152.2936 H   0  0  0  0  0  0  0  0  0  0  0  0
  1  2  1  0  0  0  0
  1 20  1  0  0  0  0
  1 21  1  0  0  0  0
  1 22  1  0  0  0  0
  2  3  1  0  0  0  0
  2 15  1  0  0  0  0
  2 23  1  0  0  0  0
  3  4  1  0  0  0  0
  3 24  1  0  0  0  0
  3 25  1  0  0  0  0
  4  5  1  0  0  0  0
  4 26  1  0  0  0  0
  5  6  2  0  0  0  0
  5  7  1  0  0  0  0
  7  8  1  0  0  0  0
  7 27  1  0  0  0  0
  7 28  1  0  0  0  0
  8 13  1  0  0  0  0
  8  9  1  0  0  0  0
  9 10  2  0  0  0  0
  9 29  1  0  0  0  0
 10 11  1  0  0  0  0
 10 30  1  0  0  0  0
 11 12  2  0  0  0  0
 11 31  1  0  0  0  0
 12 13  1  0  0  0  0
 12 32  1  0  0  0  0
 13 14  2  0  0  0  0
 15 19  1  0  0  0  0
 15 16  1  0  0  0  0
 15 41  1  0  0  0  0
 16 17  1  0  0  0  0
 16 33  1  0  0  0  0
 16 34  1  0  0  0  0
 17 18  1  0  0  0  0
 17 35  1  0  0  0  0
 17 36  1  0  0  0  0
 18 19  1  0  0  0  0
 18 37  1  0  0  0  0
 18 38  1  0  0  0  0
 19 39  1  0  0  0  0
 19 40  1  0  0  0  0
M  CHG  1  15   1
M  END
> <s_m_source_file>
AV-unprocessed.smi

> <i_m_source_file_index>
1469

> <i_lp_mmshare_version>
43012

> <i_f3d_flags>
0

> <s_epik_input>
W0NIMl0xW0NIMl1bQ0gyXVtDSDJdTjFbQ0BIXShbQ0gzXSlbQ0gyXVtOSF1DKD1PKVtDSDJdbjJbY0hdW2NIXVtjSF1bY0hdYzI9Tw==

> <s_epik_cmdline>
J2VwaWtfcHl0aG9uJywgJy1waCcsICc3LjAnLCAnLXRuJywgJzgnLCAnLW1hJywgJzIwMCcsICctbWV0YWxfYmluZGluZycsICctaW1hZScsICc8aW5maWxlLm1hZT4nLCAnLW9tYWUnLCAnPG91dGZpbGUubWFlPic=

> <r_lp_tautomer_probability>
1

> <r_epik_Ionization_Penalty>
0.00497231

> <r_epik_Ionization_Penalty_Charging>
0.00497223

> <r_epik_Ionization_Penalty_Neutral>
8.2288e-08

> <r_epik_State_Penalty>
0.0036131

> <r_epik_Charging_Adjusted_Penalty>
0.00858533

> <i_epik_Tot_Q>
1

> <i_epik_Tot_abs_Q>
1

> <r_epik_Metal_State_Penalty>
-0

> <b_epik_Metal_Only>
0

> <s_lp_Force_Field>
OPLS_2005

> <r_lp_Energy>
47.1466

> <b_lp_Chiralities_Consistent>
1

> <s_lp_Variant>
AV-unprocessed.smi:1469-2

> <Gold.Version>
5.8.1

> <Gold.Id.Protein>
6NUR|6NUR_protein|mol2

> <Gold.PLP.Fitness>
40.4014

> <Gold.PLP.PLP>
-32.6022

> <Gold.PLP.part.hbond>
-3.0000

> <Gold.PLP.part.metal>
0.0000

> <Gold.PLP.part.buried>
-2.6362

> <Gold.PLP.part.nonpolar>
-27.2206

> <Gold.PLP.part.repulsive>
0.1441

> <Gold.PLP.ligand.clash>
0.0000

> <Gold.PLP.ligand.torsion>
0.5781

> <Gold.PLP.Chemscore.Hbond>
2.9600

> <Gold.PLP.Chemscore.CHOScore>
0.0000

> <Gold.PLP.Chemscore.Metal>
0.0000

> <Gold.Chemscore.Hbonds>
donor molecule, donor type, donor heavy atom, donor atom, acceptor molecule, acceptor atom, score
      L1  H     4    26       P1  7948  1.00
      L1  H    15    41       P1  7948  2.00

> <Gold.PLP.Chemscore.Internal.Correction>
0.0753

> <Gold.Rescore>
     Score         DG    S(hbond)    S(metal)    S(lipo)     H(rot)  DE(clash)    DE(int)     intcor
     13.17     -15.10       1.91        0.00      69.12       1.89       0.14       1.79       ----

> <Gold.Chemscore.Fitness>
13.1683

> <Gold.Chemscore.DG>
-15.0987

> <Gold.Chemscore.ZeroCoef>
-5.4800

> <Gold.Chemscore.Hbond>
1.9058

> <Gold.Chemscore.Metal>
0.0000

> <Gold.Chemscore.Lipo>
69.1211

> <Gold.Chemscore.Internal_Hbond>
0.0000

> <Gold.Chemscore.DEClash>
0.1364

> <Gold.Chemscore.DEInternal>
1.7940

> <Gold.Chemscore.Rot>
1.8882

> <Gold.Chemscore.Internal.Correction>
   9.000000E+99

> <Gold.Chemscore.Hbonds>
donor molecule, donor type, donor heavy atom, donor atom, acceptor molecule, acceptor atom, score
      L1  H     4    26       P1  7948  0.94
      L1  H    15    41       P1  7948  1.00

> <Gold.Chemscore.Hbond.Weighted>
-6.3653

> <Gold.Chemscore.Metal.Weighted>
-0.0000

> <Gold.Chemscore.Lipo.Weighted>
-8.0872

> <Gold.Chemscore.Internal_Hbond.Weighted>
0.0000

> <Gold.Chemscore.DEClash.Weighted>
0.1364

> <Gold.Chemscore.DEInternal.Weighted>
1.7940

> <Gold.Chemscore.Rot.Weighted>
4.8338

> <Gold.Chemscore.Internal.Correction.Weighted>
   9.000000E+99

> <Gold.Protein.RotatedTorsions>
[ 6907 6896 6895 6894 ] final  -54.96 input  -60.11 | X-H torsion
[ 7974 7965 7964 7962 ] final   53.88 input  175.53 | X-H torsion
[ 8008 7997 7996 7995 ] final -138.84 input   59.86 | X-H torsion
[ 10167 10162 10161 10158 ] final  -12.67 input  -65.29 | X-H torsion
[ 10718 10713 10712 10709 ] final  120.38 input   66.30 | X-H torsion
[ 10763 10752 10751 10750 ] final   72.46 input  -60.55 | X-H torsion
[ 11005 11000 10999 10996 ] final  -85.93 input  -57.11 | X-H torsion

> <Gold.Protein.ActiveResidues>
 VAL166  LYS551  ARG553  GLY616  TRP617  ASP618  TYR619  PRO620  LYS621  CYS622 
 ASP623  PHE694  ASN695  SER759  ASP760  ASP761  ALA762  ILE779  LEU786  VAL792 
 PHE793  MET794  SER795  GLU796  ALA797  LYS798  CYS799  TRP800  GLU811  SER814 

> <Gold.Protein.RotatedAtoms>
  150.8292  134.7538  159.6839 H   0  0  0  0  0  0  0  0  0  0  0  0  # atno 6907 bound_to 6896
  152.4399  134.5608  159.9903 H   0  0  0  0  0  0  0  0  0  0  0  0  # atno 6908 bound_to 6896
  151.5773  133.3344  159.3037 H   0  0  0  0  0  0  0  0  0  0  0  0  # atno 6909 bound_to 6896
  145.9666  139.4109  143.0215 H   0  0  0  0  0  0  0  0  0  0  0  0  # atno 7974 bound_to 7965
  155.4350  140.0528  157.3015 H   0  0  0  0  0  0  0  0  0  0  0  0  # atno 8008 bound_to 7997
  154.4843  140.2094  155.9649 H   0  0  0  0  0  0  0  0  0  0  0  0  # atno 8009 bound_to 7997
  156.1251  140.3181  155.8271 H   0  0  0  0  0  0  0  0  0  0  0  0  # atno 8010 bound_to 7997
  140.7166  143.5508  150.9303 H   0  0  0  0  0  0  0  0  0  0  0  0  # atno 10167 bound_to 10162
  157.5895  131.1066  150.8027 H   0  0  0  0  0  0  0  0  0  0  0  0  # atno 10718 bound_to 10713
  153.0460  135.5099  154.7747 H   0  0  0  0  0  0  0  0  0  0  0  0  # atno 10763 bound_to 10752
  154.6647  135.2944  154.9824 H   0  0  0  0  0  0  0  0  0  0  0  0  # atno 10764 bound_to 10752
  154.0662  135.6684  153.4871 H   0  0  0  0  0  0  0  0  0  0  0  0  # atno 10765 bound_to 10752
  141.1636  133.7426  156.9087 H   0  0  0  0  0  0  0  0  0  0  0  0  # atno 11005 bound_to 11000
  145.7965  140.9790  143.1021 LP  0  0  0  0  0  0  0  0  0  0  0  0  # atno 17320 bound_to 7965
  144.6827  139.9748  143.7482 LP  0  0  0  0  0  0  0  0  0  0  0  0  # atno 17321 bound_to 7965
  139.9232  143.6581  152.3092 LP  0  0  0  0  0  0  0  0  0  0  0  0  # atno 17342 bound_to 10162
  139.7005  144.7635  151.1281 LP  0  0  0  0  0  0  0  0  0  0  0  0  # atno 17343 bound_to 10162
  156.8453  130.5062  149.5317 LP  0  0  0  0  0  0  0  0  0  0  0  0  # atno 17370 bound_to 10713
  156.0948  130.5923  150.9794 LP  0  0  0  0  0  0  0  0  0  0  0  0  # atno 17371 bound_to 10713
  140.1532  134.9216  157.2620 LP  0  0  0  0  0  0  0  0  0  0  0  0  # atno 17394 bound_to 11000
  140.2698  134.3473  155.7377 LP  0  0  0  0  0  0  0  0  0  0  0  0  # atno 17395 bound_to 11000

$$$$
