AV-unprocessed.smi:103|AV-procd|sdf|984|dock8
  -GOLD-   2262017553D 1   1.00000     0.00000
 Structure written by MMmdl.
 53 55  0  0  0  0  0  0  0  0  1 V2000
  145.6870  134.9112  162.3814 C   0  0  0  0  0  0  0  0  0  0  0  0
  146.9075  135.3759  161.5983 C   0  0  0  0  0  0  0  0  0  0  0  0
  147.5624  136.3581  161.9481 O   0  0  0  0  0  0  0  0  0  0  0  0
  147.1557  134.6004  160.5325 O   0  0  0  0  0  0  0  0  0  0  0  0
  148.2677  134.8849  159.6981 C   0  0  0  0  0  0  0  0  0  0  0  0
  147.9400  136.0746  158.7746 C   0  0  1  0  0  0  0  0  0  0  0  0
  148.7572  137.1722  159.1539 O   0  0  0  0  0  0  0  0  0  0  0  0
  149.9850  137.0751  158.5023 C   0  0  2  0  0  0  0  0  0  0  0  0
  150.4803  138.4628  158.2223 N   0  0  0  0  0  0  0  0  0  0  0  0
  151.7181  139.0217  158.4697 C   0  0  0  0  0  0  0  0  0  0  0  0
  153.1017  138.2304  159.2816 S   0  0  0  0  0  0  0  0  0  0  0  0
  153.3423  139.3103  160.7493 C   0  0  0  0  0  0  0  0  0  0  0  0
  152.6491  136.9038  159.7272 O   0  0  0  0  0  0  0  0  0  0  0  0
  154.2585  138.3621  158.3821 O   0  0  0  0  0  0  0  0  0  0  0  0
  151.8595  140.2852  158.1734 N   0  0  0  0  0  0  0  0  0  0  0  0
  150.6402  140.6108  157.5963 C   0  0  0  0  0  0  0  0  0  0  0  0
  150.1058  141.7920  157.0225 C   0  0  0  0  0  0  0  0  0  0  0  0
  150.7909  142.9411  156.9420 N   0  0  0  0  0  0  0  0  0  0  0  0
  148.8453  141.7592  156.5311 N   0  0  0  0  0  0  0  0  0  0  0  0
  148.1408  140.6252  156.5992 C   0  0  0  0  0  0  0  0  0  0  0  0
  148.5028  139.4458  157.1112 N   0  0  0  0  0  0  0  0  0  0  0  0
  149.7743  139.4797  157.6089 C   0  0  0  0  0  0  0  0  0  0  0  0
  149.7703  136.2395  157.2206 C   0  0  2  0  0  0  0  0  0  0  0  0
  150.0247  136.9774  156.0282 O   0  0  0  0  0  0  0  0  0  0  0  0
  151.2824  137.2027  155.6152 C   0  0  0  0  0  0  0  0  0  0  0  0
  151.3324  138.1078  154.3927 C   0  0  0  0  0  0  0  0  0  0  0  0
  152.3086  136.7618  156.1318 O   0  0  0  0  0  0  0  0  0  0  0  0
  148.2924  135.8742  157.2947 C   0  0  1  0  0  0  0  0  0  0  0  0
  148.0631  134.5370  156.8662 O   0  0  0  0  0  0  0  0  0  0  0  0
  146.8267  134.0132  156.8910 C   0  0  0  0  0  0  0  0  0  0  0  0
  146.7980  132.5793  156.3796 C   0  0  0  0  0  0  0  0  0  0  0  0
  145.8031  134.5823  157.2699 O   0  0  0  0  0  0  0  0  0  0  0  0
  145.8300  133.8883  162.7299 H   0  0  0  0  0  0  0  0  0  0  0  0
  144.7978  134.9427  161.7516 H   0  0  0  0  0  0  0  0  0  0  0  0
  145.5203  135.5512  163.2479 H   0  0  0  0  0  0  0  0  0  0  0  0
  149.1165  135.1351  160.3357 H   0  0  0  0  0  0  0  0  0  0  0  0
  148.5508  134.0108  159.1097 H   0  0  0  0  0  0  0  0  0  0  0  0
  146.8926  136.3530  158.8955 H   0  0  0  0  0  0  0  0  0  0  0  0
  150.7092  136.6338  159.1846 H   0  0  0  0  0  0  0  0  0  0  0  0
  154.1793  138.9388  161.3397 H   0  0  0  0  0  0  0  0  0  0  0  0
  152.4379  139.3076  161.3570 H   0  0  0  0  0  0  0  0  0  0  0  0
  153.5545  140.3269  160.4190 H   0  0  0  0  0  0  0  0  0  0  0  0
  151.7338  142.9914  157.3005 H   0  0  0  0  0  0  0  0  0  0  0  0
  150.3630  143.7545  156.5240 H   0  0  0  0  0  0  0  0  0  0  0  0
  147.1432  140.6696  156.1874 H   0  0  0  0  0  0  0  0  0  0  0  0
  150.3830  135.3402  157.3020 H   0  0  0  0  0  0  0  0  0  0  0  0
  150.9136  139.0857  154.6306 H   0  0  0  0  0  0  0  0  0  0  0  0
  150.7561  137.6726  153.5763 H   0  0  0  0  0  0  0  0  0  0  0  0
  152.3605  138.2436  154.0569 H   0  0  0  0  0  0  0  0  0  0  0  0
  147.7044  136.5843  156.7103 H   0  0  0  0  0  0  0  0  0  0  0  0
  147.4331  131.9446  156.9976 H   0  0  0  0  0  0  0  0  0  0  0  0
  147.1597  132.5361  155.3524 H   0  0  0  0  0  0  0  0  0  0  0  0
  145.7827  132.1832  156.4053 H   0  0  0  0  0  0  0  0  0  0  0  0
  1  2  1  0  0  0  0
  1 33  1  0  0  0  0
  1 34  1  0  0  0  0
  1 35  1  0  0  0  0
  2  3  2  0  0  0  0
  2  4  1  0  0  0  0
  4  5  1  0  0  0  0
  5  6  1  0  0  0  0
  5 36  1  0  0  0  0
  5 37  1  0  0  0  0
  6 28  1  0  0  0  0
  6  7  1  0  0  0  0
  6 38  1  0  0  0  0
  7  8  1  0  0  0  0
  8  9  1  0  0  0  0
  8 23  1  0  0  0  0
  8 39  1  0  0  0  0
  9 22  1  0  0  0  0
  9 10  1  0  0  0  0
 10 11  1  0  0  0  0
 10 15  2  0  0  0  0
 11 12  1  0  0  0  0
 11 13  2  0  0  0  0
 11 14  2  0  0  0  0
 12 40  1  0  0  0  0
 12 41  1  0  0  0  0
 12 42  1  0  0  0  0
 15 16  1  0  0  0  0
 16 22  2  0  0  0  0
 16 17  1  0  0  0  0
 17 18  1  0  0  0  0
 17 19  2  0  0  0  0
 18 43  1  0  0  0  0
 18 44  1  0  0  0  0
 19 20  1  0  0  0  0
 20 21  2  0  0  0  0
 20 45  1  0  0  0  0
 21 22  1  0  0  0  0
 23 24  1  0  0  0  0
 23 28  1  0  0  0  0
 23 46  1  0  0  0  0
 24 25  1  0  0  0  0
 25 26  1  0  0  0  0
 25 27  2  0  0  0  0
 26 47  1  0  0  0  0
 26 48  1  0  0  0  0
 26 49  1  0  0  0  0
 28 29  1  0  0  0  0
 28 50  1  0  0  0  0
 29 30  1  0  0  0  0
 30 31  1  0  0  0  0
 30 32  2  0  0  0  0
 31 51  1  0  0  0  0
 31 52  1  0  0  0  0
 31 53  1  0  0  0  0
M  END
> <s_m_source_file>
AV-unprocessed.smi

> <i_m_source_file_index>
103

> <i_lp_mmshare_version>
43012

> <i_f3d_flags>
0

> <s_epik_input>
W0NIM11DKD1PKU9bQ0gyXVtDQEBIXTFPW0NASF0oW0NAQEhdKE9DKD1PKVtDSDNdKVtDQEhdMU9DKD1PKVtDSDNdKW4oYyhuMilTKD1PKSg9TylbQ0gzXSljKGMyMyluW2NIXW5jM1tOSDJd

> <s_epik_cmdline>
J2VwaWtfcHl0aG9uJywgJy1waCcsICc3LjAnLCAnLXRuJywgJzgnLCAnLW1hJywgJzIwMCcsICctbWV0YWxfYmluZGluZycsICctaW1hZScsICc8aW5maWxlLm1hZT4nLCAnLW9tYWUnLCAnPG91dGZpbGUubWFlPic=

> <r_lp_tautomer_probability>
1

> <r_epik_Ionization_Penalty>
1.51338e-05

> <r_epik_Ionization_Penalty_Charging>
0

> <r_epik_Ionization_Penalty_Neutral>
1.51338e-05

> <r_epik_State_Penalty>
-0

> <r_epik_Charging_Adjusted_Penalty>
0

> <i_epik_Tot_Q>
0

> <i_epik_Tot_abs_Q>
0

> <r_epik_Metal_State_Penalty>
-0

> <b_epik_Metal_Only>
0

> <s_epik_Chemistry_Notes>
This compound has an ester and may undergo hydrolysis at high or low pH. This compound contains an acetal/aminal-like group ( X-CH(R)-Y where X, Y are N, S, or O) that may be acid/base labile, releasing an aldehyde.

> <s_lp_Force_Field>
OPLS_2005

> <r_lp_Energy>
18.7929

> <b_lp_Chiralities_Consistent>
1

> <s_lp_Variant>
AV-unprocessed.smi:103-8

> <Gold.Version>
5.8.1

> <Gold.Id.Protein>
6NUR|6NUR_protein|mol2

> <Gold.PLP.Fitness>
45.5754

> <Gold.PLP.PLP>
-32.8591

> <Gold.PLP.part.hbond>
-5.0284

> <Gold.PLP.part.metal>
0.0000

> <Gold.PLP.part.buried>
-8.6955

> <Gold.PLP.part.nonpolar>
-20.9230

> <Gold.PLP.part.repulsive>
1.1034

> <Gold.PLP.ligand.clash>
0.0000

> <Gold.PLP.ligand.torsion>
2.1512

> <Gold.PLP.Chemscore.Hbond>
4.9280

> <Gold.PLP.Chemscore.CHOScore>
0.0000

> <Gold.PLP.Chemscore.Metal>
0.0000

> <Gold.Chemscore.Hbonds>
donor molecule, donor type, donor heavy atom, donor atom, acceptor molecule, acceptor atom, score
      L1  H    18    44       P1  8028  1.00
      P1  H  6896  6909       L1    13  1.00
      P1  H  6931  6943       L1     3  0.10
      P1  H  7997  8008       L1    14  0.83
      P1  H 10752 10765       L1    27  1.00

> <Gold.PLP.Chemscore.Internal.Correction>
2.2346

> <Gold.Rescore>
     Score         DG    S(hbond)    S(metal)    S(lipo)     H(rot)  DE(clash)    DE(int)     intcor
      7.80     -14.62       4.56        0.00      40.77       4.25       0.08       6.74       ----

> <Gold.Chemscore.Fitness>
7.8017

> <Gold.Chemscore.DG>
-14.6195

> <Gold.Chemscore.ZeroCoef>
-5.4800

> <Gold.Chemscore.Hbond>
4.5622

> <Gold.Chemscore.Metal>
0.0000

> <Gold.Chemscore.Lipo>
40.7729

> <Gold.Chemscore.Internal_Hbond>
0.0000

> <Gold.Chemscore.DEClash>
0.0756

> <Gold.Chemscore.DEInternal>
6.7422

> <Gold.Chemscore.Rot>
4.2456

> <Gold.Chemscore.Internal.Correction>
   9.000000E+99

> <Gold.Chemscore.Hbonds>
donor molecule, donor type, donor heavy atom, donor atom, acceptor molecule, acceptor atom, score
      L1  H    18    44       P1  8028  0.97
      P1  H  6896  6909       L1    13  0.98
      P1  H  6931  6943       L1     3  0.13
      P1  H  7997  8008       L1    14  0.81
      P1  H 10752 10765       L1    27  0.80

> <Gold.Chemscore.Hbond.Weighted>
-15.2377

> <Gold.Chemscore.Metal.Weighted>
-0.0000

> <Gold.Chemscore.Lipo.Weighted>
-4.7704

> <Gold.Chemscore.Internal_Hbond.Weighted>
0.0000

> <Gold.Chemscore.DEClash.Weighted>
0.0756

> <Gold.Chemscore.DEInternal.Weighted>
6.7422

> <Gold.Chemscore.Rot.Weighted>
10.8687

> <Gold.Chemscore.Internal.Correction.Weighted>
   9.000000E+99

> <Gold.Protein.RotatedTorsions>
[ 6907 6896 6895 6894 ] final  143.52 input  -60.11 | X-H torsion
[ 7974 7965 7964 7962 ] final  124.64 input  175.53 | X-H torsion
[ 8008 7997 7996 7995 ] final  -98.77 input   59.86 | X-H torsion
[ 10167 10162 10161 10158 ] final   49.75 input  -65.29 | X-H torsion
[ 10718 10713 10712 10709 ] final  -54.18 input   66.30 | X-H torsion
[ 10763 10752 10751 10750 ] final -150.88 input  -60.55 | X-H torsion
[ 11005 11000 10999 10996 ] final -142.54 input  -57.11 | X-H torsion

> <Gold.Protein.ActiveResidues>
 VAL166  LYS551  ARG553  GLY616  TRP617  ASP618  TYR619  PRO620  LYS621  CYS622 
 ASP623  PHE694  ASN695  SER759  ASP760  ASP761  ALA762  ILE779  LEU786  VAL792 
 PHE793  MET794  SER795  GLU796  ALA797  LYS798  CYS799  TRP800  GLU811  SER814 

> <Gold.Protein.RotatedAtoms>
  152.2052  133.4870  159.5079 H   0  0  0  0  0  0  0  0  0  0  0  0  # atno 6907 bound_to 6896
  150.6978  134.1539  159.4160 H   0  0  0  0  0  0  0  0  0  0  0  0  # atno 6908 bound_to 6896
  151.9457  135.0192  160.0589 H   0  0  0  0  0  0  0  0  0  0  0  0  # atno 6909 bound_to 6896
  145.0821  139.3649  143.4904 H   0  0  0  0  0  0  0  0  0  0  0  0  # atno 7974 bound_to 7965
  154.8058  140.0452  157.1306 H   0  0  0  0  0  0  0  0  0  0  0  0  # atno 8008 bound_to 7997
  154.9426  140.3054  155.5093 H   0  0  0  0  0  0  0  0  0  0  0  0  # atno 8009 bound_to 7997
  156.2966  140.2303  156.4496 H   0  0  0  0  0  0  0  0  0  0  0  0  # atno 8010 bound_to 7997
  140.2796  144.3171  150.6268 H   0  0  0  0  0  0  0  0  0  0  0  0  # atno 10167 bound_to 10162
  156.1473  130.4152  150.0003 H   0  0  0  0  0  0  0  0  0  0  0  0  # atno 10718 bound_to 10713
  154.8092  135.3273  154.7351 H   0  0  0  0  0  0  0  0  0  0  0  0  # atno 10763 bound_to 10752
  153.8003  135.6904  153.4861 H   0  0  0  0  0  0  0  0  0  0  0  0  # atno 10764 bound_to 10752
  153.1858  135.4569  155.0032 H   0  0  0  0  0  0  0  0  0  0  0  0  # atno 10765 bound_to 10752
  140.8215  134.2625  157.4898 H   0  0  0  0  0  0  0  0  0  0  0  0  # atno 11005 bound_to 11000
  146.3531  140.0616  142.8629 LP  0  0  0  0  0  0  0  0  0  0  0  0  # atno 17320 bound_to 7965
  145.1166  140.9437  143.4625 LP  0  0  0  0  0  0  0  0  0  0  0  0  # atno 17321 bound_to 7965
  140.5822  143.2172  151.7407 LP  0  0  0  0  0  0  0  0  0  0  0  0  # atno 17342 bound_to 10162
  139.4966  144.4063  152.0128 LP  0  0  0  0  0  0  0  0  0  0  0  0  # atno 17343 bound_to 10162
  156.7871  130.9242  151.3646 LP  0  0  0  0  0  0  0  0  0  0  0  0  # atno 17370 bound_to 10713
  157.6627  130.8980  149.9865 LP  0  0  0  0  0  0  0  0  0  0  0  0  # atno 17371 bound_to 10713
  139.8708  134.9538  156.4156 LP  0  0  0  0  0  0  0  0  0  0  0  0  # atno 17394 bound_to 11000
  140.9093  133.7723  155.9773 LP  0  0  0  0  0  0  0  0  0  0  0  0  # atno 17395 bound_to 11000

$$$$
