AV-unprocessed.smi:2548|AV-procd|sdf|10007|dock4
  -GOLD-   2272014 53D 1   1.00000     0.00000
 Structure written by MMmdl.
 44 45  0  0  0  0  0  0  0  0  1 V2000
  144.1266  133.2883  150.7540 C   0  0  0  0  0  0  0  0  0  0  0  0
  144.0526  134.3423  151.8056 C   0  0  0  0  0  0  0  0  0  0  0  0
  144.3137  135.6828  151.7635 C   0  0  0  0  0  0  0  0  0  0  0  0
  144.0525  136.1361  153.0909 C   0  0  0  0  0  0  0  0  0  0  0  0
  144.1767  137.5364  153.6356 C   0  0  0  0  0  0  0  0  0  0  0  0
  145.6338  138.0145  153.6716 C   0  0  0  0  0  0  0  0  0  0  0  0
  146.5407  137.2649  154.0368 O   0  0  0  0  0  0  0  0  0  0  0  0
  145.8424  139.2778  153.2676 N   0  0  0  0  0  0  0  0  0  0  0  0
  147.1385  139.9534  153.1996 C   0  0  0  0  0  0  0  0  0  0  0  0
  147.2865  141.1345  154.2073 C   0  0  0  0  0  0  0  0  0  0  0  0
  146.3571  142.2849  153.7528 C   0  0  0  0  0  0  0  0  0  0  0  0
  146.8089  140.7138  155.6277 C   0  0  0  0  0  0  0  0  0  0  0  0
  147.5213  139.5126  156.2841 C   0  0  0  0  0  0  0  0  0  0  0  0
  148.8125  139.8335  157.0559 C   0  0  0  0  0  0  0  0  0  0  0  0
  149.7964  140.8098  156.3900 C   0  0  0  0  0  0  0  0  0  0  0  0
  149.8163  140.7946  154.8537 C   0  0  0  0  0  0  0  0  0  0  0  0
  148.7320  141.6985  154.2371 C   0  0  0  0  0  0  0  0  0  0  0  0
  143.6684  135.1521  153.8926 N   0  0  0  0  0  0  0  0  0  0  0  0
  143.6683  134.0664  153.0973 N   0  0  0  0  0  0  0  0  0  0  0  0
  143.4088  133.1546  153.4459 H   0  0  0  0  0  0  0  0  0  0  0  0
  144.5586  133.6849  149.8350 H   0  0  0  0  0  0  0  0  0  0  0  0
  143.1335  132.9037  150.5215 H   0  0  0  0  0  0  0  0  0  0  0  0
  144.7454  132.4535  151.0835 H   0  0  0  0  0  0  0  0  0  0  0  0
  144.6402  136.2586  150.9100 H   0  0  0  0  0  0  0  0  0  0  0  0
  143.5972  138.2385  153.0347 H   0  0  0  0  0  0  0  0  0  0  0  0
  143.7620  137.5767  154.6436 H   0  0  0  0  0  0  0  0  0  0  0  0
  145.0388  139.8161  152.9777 H   0  0  0  0  0  0  0  0  0  0  0  0
  147.9000  139.2016  153.4091 H   0  0  0  0  0  0  0  0  0  0  0  0
  147.3214  140.2713  152.1747 H   0  0  0  0  0  0  0  0  0  0  0  0
  146.3578  143.1048  154.4720 H   0  0  0  0  0  0  0  0  0  0  0  0
  145.3254  141.9471  153.6482 H   0  0  0  0  0  0  0  0  0  0  0  0
  146.6620  142.7049  152.7938 H   0  0  0  0  0  0  0  0  0  0  0  0
  146.8509  141.5667  156.3068 H   0  0  0  0  0  0  0  0  0  0  0  0
  145.7503  140.4584  155.5588 H   0  0  0  0  0  0  0  0  0  0  0  0
  146.8302  139.0600  156.9961 H   0  0  0  0  0  0  0  0  0  0  0  0
  147.7157  138.7234  155.5619 H   0  0  0  0  0  0  0  0  0  0  0  0
  148.5545  140.2286  158.0393 H   0  0  0  0  0  0  0  0  0  0  0  0
  149.3272  138.8919  157.2492 H   0  0  0  0  0  0  0  0  0  0  0  0
  149.5908  141.8229  156.7374 H   0  0  0  0  0  0  0  0  0  0  0  0
  150.7971  140.5822  156.7595 H   0  0  0  0  0  0  0  0  0  0  0  0
  150.7825  141.1872  154.5350 H   0  0  0  0  0  0  0  0  0  0  0  0
  149.7743  139.7778  154.4636 H   0  0  0  0  0  0  0  0  0  0  0  0
  149.0386  141.9561  153.2236 H   0  0  0  0  0  0  0  0  0  0  0  0
  148.7368  142.6516  154.7677 H   0  0  0  0  0  0  0  0  0  0  0  0
  1  2  1  0  0  0  0
  1 21  1  0  0  0  0
  1 22  1  0  0  0  0
  1 23  1  0  0  0  0
  2 19  1  0  0  0  0
  2  3  2  0  0  0  0
  3  4  1  0  0  0  0
  3 24  1  0  0  0  0
  4  5  1  0  0  0  0
  4 18  2  0  0  0  0
  5  6  1  0  0  0  0
  5 25  1  0  0  0  0
  5 26  1  0  0  0  0
  6  7  2  0  0  0  0
  6  8  1  0  0  0  0
  8  9  1  0  0  0  0
  8 27  1  0  0  0  0
  9 10  1  0  0  0  0
  9 28  1  0  0  0  0
  9 29  1  0  0  0  0
 10 17  1  0  0  0  0
 10 11  1  0  0  0  0
 10 12  1  0  0  0  0
 11 30  1  0  0  0  0
 11 31  1  0  0  0  0
 11 32  1  0  0  0  0
 12 13  1  0  0  0  0
 12 33  1  0  0  0  0
 12 34  1  0  0  0  0
 13 14  1  0  0  0  0
 13 35  1  0  0  0  0
 13 36  1  0  0  0  0
 14 15  1  0  0  0  0
 14 37  1  0  0  0  0
 14 38  1  0  0  0  0
 15 16  1  0  0  0  0
 15 39  1  0  0  0  0
 15 40  1  0  0  0  0
 16 17  1  0  0  0  0
 16 41  1  0  0  0  0
 16 42  1  0  0  0  0
 17 43  1  0  0  0  0
 17 44  1  0  0  0  0
 18 19  1  0  0  0  0
 19 20  1  0  0  0  0
M  END
> <s_m_source_file>
AV-unprocessed.smi

> <i_m_source_file_index>
2548

> <i_lp_mmshare_version>
43012

> <i_f3d_flags>
0

> <s_epik_input>
W0NIM11jMVtjSF1jKG5bbkhdMSlbQ0gyXUMoPU8pW05IXVtDSDJdQzIoW0NIM10pW0NIMl1bQ0gyXVtDSDJdW0NIMl1bQ0gyXVtDSDJdMg==

> <s_epik_cmdline>
J2VwaWtfcHl0aG9uJywgJy1waCcsICc3LjAnLCAnLXRuJywgJzgnLCAnLW1hJywgJzIwMCcsICctbWV0YWxfYmluZGluZycsICctaW1hZScsICc8aW5maWxlLm1hZT4nLCAnLW9tYWUnLCAnPG91dGZpbGUubWFlPic=

> <r_lp_tautomer_probability>
0.5

> <r_epik_Ionization_Penalty>
8.42262e-05

> <r_epik_Ionization_Penalty_Charging>
0

> <r_epik_Ionization_Penalty_Neutral>
8.42262e-05

> <r_epik_State_Penalty>
0.41068

> <r_epik_Charging_Adjusted_Penalty>
0.41068

> <i_epik_Tot_Q>
0

> <i_epik_Tot_abs_Q>
0

> <r_epik_Metal_State_Penalty>
0.410698

> <b_epik_Metal_Only>
0

> <s_lp_Force_Field>
OPLS_2005

> <r_lp_Energy>
22.9227

> <b_lp_Chiralities_Consistent>
1

> <s_lp_Variant>
AV-unprocessed.smi:2548-1

> <Gold.Version>
5.8.1

> <Gold.Id.Protein>
6NUR|6NUR_protein|mol2

> <Gold.PLP.Fitness>
32.8659

> <Gold.PLP.PLP>
-27.6338

> <Gold.PLP.part.hbond>
-2.0000

> <Gold.PLP.part.metal>
0.0000

> <Gold.PLP.part.buried>
-2.4354

> <Gold.PLP.part.nonpolar>
-22.7613

> <Gold.PLP.part.repulsive>
0.1723

> <Gold.PLP.ligand.clash>
0.0000

> <Gold.PLP.ligand.torsion>
0.3973

> <Gold.PLP.Chemscore.Hbond>
2.0000

> <Gold.PLP.Chemscore.CHOScore>
0.0000

> <Gold.PLP.Chemscore.Metal>
0.0000

> <Gold.Chemscore.Hbonds>
donor molecule, donor type, donor heavy atom, donor atom, acceptor molecule, acceptor atom, score
      L1  H     8    27       P1 10175  1.00
      L1  H    19    20       P1 10957  0.93

> <Gold.PLP.Chemscore.Internal.Correction>
0.0267

> <Gold.Rescore>
     Score         DG    S(hbond)    S(metal)    S(lipo)     H(rot)  DE(clash)    DE(int)     intcor
     15.26     -15.68       1.98        0.00      64.55       1.55       0.02       0.40       ----

> <Gold.Chemscore.Fitness>
15.2582

> <Gold.Chemscore.DG>
-15.6826

> <Gold.Chemscore.ZeroCoef>
-5.4800

> <Gold.Chemscore.Hbond>
1.9807

> <Gold.Chemscore.Metal>
0.0000

> <Gold.Chemscore.Lipo>
64.5497

> <Gold.Chemscore.Internal_Hbond>
0.0000

> <Gold.Chemscore.DEClash>
0.0232

> <Gold.Chemscore.DEInternal>
0.4011

> <Gold.Chemscore.Rot>
1.5489

> <Gold.Chemscore.Internal.Correction>
   9.000000E+99

> <Gold.Chemscore.Hbonds>
donor molecule, donor type, donor heavy atom, donor atom, acceptor molecule, acceptor atom, score
      L1  H     8    27       P1 10175  0.98
      L1  H    19    20       P1 10957  0.81

> <Gold.Chemscore.Hbond.Weighted>
-6.6155

> <Gold.Chemscore.Metal.Weighted>
-0.0000

> <Gold.Chemscore.Lipo.Weighted>
-7.5523

> <Gold.Chemscore.Internal_Hbond.Weighted>
0.0000

> <Gold.Chemscore.DEClash.Weighted>
0.0232

> <Gold.Chemscore.DEInternal.Weighted>
0.4011

> <Gold.Chemscore.Rot.Weighted>
3.9652

> <Gold.Chemscore.Internal.Correction.Weighted>
   9.000000E+99

> <Gold.Protein.RotatedTorsions>
[ 6907 6896 6895 6894 ] final -111.55 input  -60.11 | X-H torsion
[ 7974 7965 7964 7962 ] final  166.22 input  175.53 | X-H torsion
[ 8008 7997 7996 7995 ] final  111.02 input   59.86 | X-H torsion
[ 10167 10162 10161 10158 ] final  -40.32 input  -65.29 | X-H torsion
[ 10718 10713 10712 10709 ] final  147.31 input   66.30 | X-H torsion
[ 10763 10752 10751 10750 ] final  139.63 input  -60.55 | X-H torsion
[ 11005 11000 10999 10996 ] final -151.02 input  -57.11 | X-H torsion

> <Gold.Protein.ActiveResidues>
 VAL166  LYS551  ARG553  GLY616  TRP617  ASP618  TYR619  PRO620  LYS621  CYS622 
 ASP623  PHE694  ASN695  SER759  ASP760  ASP761  ALA762  ILE779  LEU786  VAL792 
 PHE793  MET794  SER795  GLU796  ALA797  LYS798  CYS799  TRP800  GLU811  SER814 

> <Gold.Protein.RotatedAtoms>
  150.7698  133.9219  159.3400 H   0  0  0  0  0  0  0  0  0  0  0  0  # atno 6907 bound_to 6896
  151.7109  135.0911  160.0277 H   0  0  0  0  0  0  0  0  0  0  0  0  # atno 6908 bound_to 6896
  152.3710  133.6381  159.6123 H   0  0  0  0  0  0  0  0  0  0  0  0  # atno 6909 bound_to 6896
  144.7471  139.8584  143.6378 H   0  0  0  0  0  0  0  0  0  0  0  0  # atno 7974 bound_to 7965
  156.2095  140.3027  155.9700 H   0  0  0  0  0  0  0  0  0  0  0  0  # atno 8008 bound_to 7997
  155.2760  140.0435  157.3028 H   0  0  0  0  0  0  0  0  0  0  0  0  # atno 8009 bound_to 7997
  154.5679  140.2339  155.8244 H   0  0  0  0  0  0  0  0  0  0  0  0  # atno 8010 bound_to 7997
  140.7038  143.3161  151.2907 H   0  0  0  0  0  0  0  0  0  0  0  0  # atno 10167 bound_to 10162
  157.3225  131.0906  151.1229 H   0  0  0  0  0  0  0  0  0  0  0  0  # atno 10718 bound_to 10713
  153.9093  135.3013  155.3448 H   0  0  0  0  0  0  0  0  0  0  0  0  # atno 10763 bound_to 10752
  154.7631  135.4924  153.9505 H   0  0  0  0  0  0  0  0  0  0  0  0  # atno 10764 bound_to 10752
  153.1201  135.6780  153.9451 H   0  0  0  0  0  0  0  0  0  0  0  0  # atno 10765 bound_to 10752
  140.7340  134.3588  157.5161 H   0  0  0  0  0  0  0  0  0  0  0  0  # atno 11005 bound_to 11000
  146.1366  139.4413  143.0135 LP  0  0  0  0  0  0  0  0  0  0  0  0  # atno 17320 bound_to 7965
  145.7083  141.0114  143.1467 LP  0  0  0  0  0  0  0  0  0  0  0  0  # atno 17321 bound_to 7965
  139.6599  144.0207  152.2685 LP  0  0  0  0  0  0  0  0  0  0  0  0  # atno 17342 bound_to 10162
  139.9771  144.6454  150.7935 LP  0  0  0  0  0  0  0  0  0  0  0  0  # atno 17343 bound_to 10162
  157.2508  130.6613  149.5931 LP  0  0  0  0  0  0  0  0  0  0  0  0  # atno 17370 bound_to 10713
  155.9687  130.4539  150.5829 LP  0  0  0  0  0  0  0  0  0  0  0  0  # atno 17371 bound_to 10713
  139.8820  134.9037  156.2862 LP  0  0  0  0  0  0  0  0  0  0  0  0  # atno 17394 bound_to 11000
  140.9895  133.7217  156.0793 LP  0  0  0  0  0  0  0  0  0  0  0  0  # atno 17395 bound_to 11000

$$$$
