AV-unprocessed.smi:2768|AV-procd|sdf|10655|dock5
  -GOLD-   2272015103D 1   1.00000     0.00000
 Structure written by MMmdl.
 34 35  0  0  0  0  0  0  0  0  2 V2000
  149.5224  143.4610  158.3746 O   0  0  0  0  0  0  0  0  0  0  0  0
  150.7422  143.2849  158.2737 C   0  0  0  0  0  0  0  0  0  0  0  0
  151.4350  142.4341  157.4626 N   0  5  0  0  0  0  0  0  0  0  0  0
  150.8964  141.1790  156.9332 C   0  0  1  0  0  0  0  0  0  0  0  0
  149.9793  141.4688  155.7173 C   0  0  0  0  0  0  0  0  0  0  0  0
  149.4848  140.1868  155.0010 C   0  0  0  0  0  0  0  0  0  0  0  0
  150.6456  139.2779  154.5461 C   0  0  0  0  0  0  0  0  0  0  0  0
  151.5599  138.9686  155.7498 C   0  0  0  0  0  0  0  0  0  0  0  0
  152.0531  140.2523  156.4687 C   0  0  2  0  0  0  0  0  0  0  0  0
  152.8313  139.8722  157.5857 O   0  0  0  0  0  0  0  0  0  0  0  0
  151.6748  144.1414  159.1571 C   0  0  0  0  0  0  0  0  0  0  0  0
  152.5267  144.7946  158.3628 F   0  0  0  0  0  0  0  0  0  0  0  0
  150.9727  145.0631  159.8266 F   0  0  0  0  0  0  0  0  0  0  0  0
  152.4634  143.2546  160.1191 C   0  0  0  0  0  0  0  0  0  0  0  0
  152.3355  143.4147  161.5182 C   0  0  0  0  0  0  0  0  0  0  0  0
  153.0890  142.5808  162.3665 C   0  0  0  0  0  0  0  0  0  0  0  0
  153.9415  141.6198  161.7912 C   0  0  0  0  0  0  0  0  0  0  0  0
  154.0048  141.5380  160.3863 C   0  0  0  0  0  0  0  0  0  0  0  0
  153.2861  142.3317  159.5646 N   0  0  0  0  0  0  0  0  0  0  0  0
  150.3094  140.6398  157.6793 H   0  0  0  0  0  0  0  0  0  0  0  0
  152.7008  140.8039  155.7853 H   0  0  0  0  0  0  0  0  0  0  0  0
  149.1180  142.0570  156.0365 H   0  0  0  0  0  0  0  0  0  0  0  0
  150.5155  142.0865  154.9950 H   0  0  0  0  0  0  0  0  0  0  0  0
  148.8182  139.6240  155.6576 H   0  0  0  0  0  0  0  0  0  0  0  0
  148.8832  140.4655  154.1356 H   0  0  0  0  0  0  0  0  0  0  0  0
  150.2609  138.3550  154.1117 H   0  0  0  0  0  0  0  0  0  0  0  0
  151.2215  139.7788  153.7669 H   0  0  0  0  0  0  0  0  0  0  0  0
  151.0245  138.3235  156.4502 H   0  0  0  0  0  0  0  0  0  0  0  0
  152.4179  138.3883  155.4081 H   0  0  0  0  0  0  0  0  0  0  0  0
  153.4303  139.1995  157.2973 H   0  0  0  0  0  0  0  0  0  0  0  0
  151.6790  144.1654  161.9325 H   0  0  0  0  0  0  0  0  0  0  0  0
  153.0152  142.6777  163.4398 H   0  0  0  0  0  0  0  0  0  0  0  0
  154.5336  140.9625  162.4106 H   0  0  0  0  0  0  0  0  0  0  0  0
  154.6484  140.8136  159.9096 H   0  0  0  0  0  0  0  0  0  0  0  0
  1  2  2  0  0  0  0
  2  3  1  0  0  0  0
  2 11  1  0  0  0  0
  3  4  1  0  0  0  0
  4 20  1  0  0  0  0
  4  9  1  0  0  0  0
  4  5  1  0  0  0  0
  5  6  1  0  0  0  0
  5 22  1  0  0  0  0
  5 23  1  0  0  0  0
  6  7  1  0  0  0  0
  6 24  1  0  0  0  0
  6 25  1  0  0  0  0
  7  8  1  0  0  0  0
  7 26  1  0  0  0  0
  7 27  1  0  0  0  0
  8  9  1  0  0  0  0
  8 28  1  0  0  0  0
  8 29  1  0  0  0  0
  9 21  1  0  0  0  0
  9 10  1  0  0  0  0
 10 30  1  0  0  0  0
 11 12  1  0  0  0  0
 11 13  1  0  0  0  0
 11 14  1  0  0  0  0
 14 19  1  0  0  0  0
 14 15  2  0  0  0  0
 15 16  1  0  0  0  0
 15 31  1  0  0  0  0
 16 17  2  0  0  0  0
 16 32  1  0  0  0  0
 17 18  1  0  0  0  0
 17 33  1  0  0  0  0
 18 19  2  0  0  0  0
 18 34  1  0  0  0  0
M  CHG  1   3  -1
M  END
> <s_m_source_file>
AV-unprocessed.smi

> <i_m_source_file_index>
2768

> <i_lp_mmshare_version>
43012

> <i_f3d_flags>
0

> <s_epik_input>
bjFbY0hdW2NIXVtjSF1bY0hdYzFDKEYpKEYpQyg9TylbTkhdW0NAQEhdMltDSDJdW0NIMl1bQ0gyXVtDSDJdW0NASF0yW09IXQ==

> <s_epik_cmdline>
J2VwaWtfcHl0aG9uJywgJy1waCcsICc3LjAnLCAnLXRuJywgJzgnLCAnLW1hJywgJzIwMCcsICctbWV0YWxfYmluZGluZycsICctaW1hZScsICc8aW5maWxlLm1hZT4nLCAnLW9tYWUnLCAnPG91dGZpbGUubWFlPic=

> <r_lp_tautomer_probability>
1

> <r_epik_Ionization_Penalty>
5.70553

> <r_epik_Ionization_Penalty_Charging>
5.70553

> <r_epik_Ionization_Penalty_Neutral>
5.5493e-06

> <r_epik_State_Penalty>
5.70549

> <r_epik_Charging_Adjusted_Penalty>
11.411

> <i_epik_Tot_Q>
-1

> <i_epik_Tot_abs_Q>
1

> <r_epik_Metal_State_Penalty>
1.6859

> <b_epik_Metal_Only>
1

> <s_lp_Force_Field>
OPLS_2005

> <r_lp_Energy>
26.4517

> <b_lp_Chiralities_Consistent>
1

> <s_lp_Variant>
AV-unprocessed.smi:2768-8

> <Gold.Version>
5.8.1

> <Gold.Id.Protein>
6NUR|6NUR_protein|mol2

> <Gold.PLP.Fitness>
47.9468

> <Gold.PLP.PLP>
-49.7340

> <Gold.PLP.part.hbond>
-1.0000

> <Gold.PLP.part.metal>
0.0000

> <Gold.PLP.part.buried>
-5.0320

> <Gold.PLP.part.nonpolar>
-44.9882

> <Gold.PLP.part.repulsive>
1.5271

> <Gold.PLP.ligand.clash>
0.8349

> <Gold.PLP.ligand.torsion>
0.4969

> <Gold.PLP.Chemscore.Hbond>
0.0000

> <Gold.PLP.Chemscore.CHOScore>
0.0000

> <Gold.PLP.Chemscore.Metal>
0.0000

> <Gold.PLP.Chemscore.Internal.Correction>
0.0415

> <Gold.Rescore>
     Score         DG    S(hbond)    S(metal)    S(lipo)     H(rot)  DE(clash)    DE(int)     intcor
     11.20     -13.08       0.00        0.00     107.63       1.95       0.02       1.85       ----

> <Gold.Chemscore.Fitness>
11.2028

> <Gold.Chemscore.DG>
-13.0804

> <Gold.Chemscore.ZeroCoef>
-5.4800

> <Gold.Chemscore.Hbond>
0.0000

> <Gold.Chemscore.Metal>
0.0000

> <Gold.Chemscore.Lipo>
107.6337

> <Gold.Chemscore.Internal_Hbond>
0.0000

> <Gold.Chemscore.DEClash>
0.0243

> <Gold.Chemscore.DEInternal>
1.8532

> <Gold.Chemscore.Rot>
1.9503

> <Gold.Chemscore.Internal.Correction>
   9.000000E+99

> <Gold.Chemscore.Hbond.Weighted>
-0.0000

> <Gold.Chemscore.Metal.Weighted>
-0.0000

> <Gold.Chemscore.Lipo.Weighted>
-12.5931

> <Gold.Chemscore.Internal_Hbond.Weighted>
0.0000

> <Gold.Chemscore.DEClash.Weighted>
0.0243

> <Gold.Chemscore.DEInternal.Weighted>
1.8532

> <Gold.Chemscore.Rot.Weighted>
4.9928

> <Gold.Chemscore.Internal.Correction.Weighted>
   9.000000E+99

> <Gold.Protein.RotatedTorsions>
[ 6907 6896 6895 6894 ] final  -53.32 input  -60.11 | X-H torsion
[ 7974 7965 7964 7962 ] final   46.01 input  175.53 | X-H torsion
[ 8008 7997 7996 7995 ] final -124.17 input   59.86 | X-H torsion
[ 10167 10162 10161 10158 ] final -146.02 input  -65.29 | X-H torsion
[ 10718 10713 10712 10709 ] final -157.76 input   66.30 | X-H torsion
[ 10763 10752 10751 10750 ] final  -92.78 input  -60.55 | X-H torsion
[ 11005 11000 10999 10996 ] final   95.87 input  -57.11 | X-H torsion

> <Gold.Protein.ActiveResidues>
 VAL166  LYS551  ARG553  GLY616  TRP617  ASP618  TYR619  PRO620  LYS621  CYS622 
 ASP623  PHE694  ASN695  SER759  ASP760  ASP761  ALA762  ILE779  LEU786  VAL792 
 PHE793  MET794  SER795  GLU796  ALA797  LYS798  CYS799  TRP800  GLU811  SER814 

> <Gold.Protein.RotatedAtoms>
  150.8437  134.7739  159.6952 H   0  0  0  0  0  0  0  0  0  0  0  0  # atno 6907 bound_to 6896
  152.4519  134.5372  159.9838 H   0  0  0  0  0  0  0  0  0  0  0  0  # atno 6908 bound_to 6896
  151.5507  133.3380  159.2988 H   0  0  0  0  0  0  0  0  0  0  0  0  # atno 6909 bound_to 6896
  146.0428  139.4902  142.9767 H   0  0  0  0  0  0  0  0  0  0  0  0  # atno 7974 bound_to 7965
  155.1925  140.0413  157.2903 H   0  0  0  0  0  0  0  0  0  0  0  0  # atno 8008 bound_to 7997
  154.6129  140.2481  155.7618 H   0  0  0  0  0  0  0  0  0  0  0  0  # atno 8009 bound_to 7997
  156.2389  140.2911  156.0400 H   0  0  0  0  0  0  0  0  0  0  0  0  # atno 8010 bound_to 7997
  139.7752  143.8180  152.2631 H   0  0  0  0  0  0  0  0  0  0  0  0  # atno 10167 bound_to 10162
  156.5448  130.8579  151.2760 H   0  0  0  0  0  0  0  0  0  0  0  0  # atno 10718 bound_to 10713
  154.6895  135.5218  153.8372 H   0  0  0  0  0  0  0  0  0  0  0  0  # atno 10763 bound_to 10752
  153.0621  135.6572  154.0447 H   0  0  0  0  0  0  0  0  0  0  0  0  # atno 10764 bound_to 10752
  154.0323  135.2984  155.3346 H   0  0  0  0  0  0  0  0  0  0  0  0  # atno 10765 bound_to 10752
  139.8785  134.8921  156.4075 H   0  0  0  0  0  0  0  0  0  0  0  0  # atno 11005 bound_to 11000
  145.6855  141.0179  143.1583 LP  0  0  0  0  0  0  0  0  0  0  0  0  # atno 17320 bound_to 7965
  144.7083  139.8471  143.7423 LP  0  0  0  0  0  0  0  0  0  0  0  0  # atno 17321 bound_to 7965
  139.8226  144.7289  150.9552 LP  0  0  0  0  0  0  0  0  0  0  0  0  # atno 17342 bound_to 10162
  140.7816  143.4144  151.0940 LP  0  0  0  0  0  0  0  0  0  0  0  0  # atno 17343 bound_to 10162
  157.7399  130.9839  150.2341 LP  0  0  0  0  0  0  0  0  0  0  0  0  # atno 17370 bound_to 10713
  156.2939  130.3749  149.7815 LP  0  0  0  0  0  0  0  0  0  0  0  0  # atno 17371 bound_to 10713
  140.9224  133.7636  155.9923 LP  0  0  0  0  0  0  0  0  0  0  0  0  # atno 17394 bound_to 11000
  140.8424  134.3050  157.5308 LP  0  0  0  0  0  0  0  0  0  0  0  0  # atno 17395 bound_to 11000

$$$$
