AV-unprocessed.smi:337|AV-procd|sdf|2372|dock9
  -GOLD-   2262022293D 1   1.00000     0.00000
 Structure written by MMmdl.
 43 44  0  0  0  0  0  0  0  0  1 V2000
  150.5247  134.7192  155.7449 C   0  0  0  0  0  0  0  0  0  0  0  0
  149.0367  134.8691  155.3862 C   0  0  2  0  0  0  0  0  0  0  0  0
  148.8542  134.4193  154.0070 N   0  0  0  0  0  0  0  0  0  0  0  0
  148.6705  133.1452  153.6310 C   0  0  0  0  0  0  0  0  0  0  0  0
  148.5045  133.0238  152.3137 N   0  0  0  0  0  0  0  0  0  0  0  0
  148.6523  132.1867  154.4007 O   0  0  0  0  0  0  0  0  0  0  0  0
  148.6617  136.3529  155.5280 C   0  0  0  0  0  0  0  0  0  0  0  0
  148.4110  136.8351  156.6339 O   0  0  0  0  0  0  0  0  0  0  0  0
  148.6042  137.0596  154.3890 N   0  0  0  0  0  0  0  0  0  0  0  0
  148.2468  138.4715  154.3004 C   0  0  0  0  0  0  0  0  0  0  0  0
  149.0827  139.3866  155.1845 C   0  0  0  0  0  0  0  0  0  0  0  0
  150.4729  139.5411  155.0014 C   0  0  0  0  0  0  0  0  0  0  0  0
  151.1837  140.4030  155.8578 C   0  0  0  0  0  0  0  0  0  0  0  0
  150.4882  141.0865  156.8837 C   0  0  0  0  0  0  0  0  0  0  0  0
  151.1802  141.9569  157.7540 N   0  0  0  0  0  0  0  0  0  0  0  0
  151.5809  143.2400  157.1821 C   0  0  0  0  0  0  0  0  0  0  0  0
  152.0367  144.2028  158.2923 C   0  0  0  0  0  0  0  0  0  0  0  0
  153.0663  143.5960  159.0657 O   0  0  0  0  0  0  0  0  0  0  0  0
  152.6163  142.4063  159.7049 C   0  0  0  0  0  0  0  0  0  0  0  0
  152.1862  141.3796  158.6439 C   0  0  0  0  0  0  0  0  0  0  0  0
  149.1519  140.9333  157.0565 N   0  0  0  0  0  0  0  0  0  0  0  0
  148.4752  140.1060  156.2327 C   0  0  0  0  0  0  0  0  0  0  0  0
  150.7198  135.0392  156.7694 H   0  0  0  0  0  0  0  0  0  0  0  0
  151.1637  135.3086  155.0854 H   0  0  0  0  0  0  0  0  0  0  0  0
  150.8409  133.6786  155.6656 H   0  0  0  0  0  0  0  0  0  0  0  0
  148.4327  134.2590  156.0611 H   0  0  0  0  0  0  0  0  0  0  0  0
  148.8445  135.1339  153.2944 H   0  0  0  0  0  0  0  0  0  0  0  0
  148.3601  132.1144  151.9003 H   0  0  0  0  0  0  0  0  0  0  0  0
  148.5278  133.8487  151.7318 H   0  0  0  0  0  0  0  0  0  0  0  0
  148.8247  136.5874  153.5242 H   0  0  0  0  0  0  0  0  0  0  0  0
  148.3117  138.7996  153.2614 H   0  0  0  0  0  0  0  0  0  0  0  0
  147.2018  138.5769  154.5920 H   0  0  0  0  0  0  0  0  0  0  0  0
  150.9941  139.0136  154.2161 H   0  0  0  0  0  0  0  0  0  0  0  0
  152.2441  140.5396  155.7083 H   0  0  0  0  0  0  0  0  0  0  0  0
  152.3962  143.0713  156.4775 H   0  0  0  0  0  0  0  0  0  0  0  0
  150.7703  143.7049  156.6231 H   0  0  0  0  0  0  0  0  0  0  0  0
  152.4197  145.1246  157.8542 H   0  0  0  0  0  0  0  0  0  0  0  0
  151.1993  144.4797  158.9347 H   0  0  0  0  0  0  0  0  0  0  0  0
  153.4257  142.0015  160.3120 H   0  0  0  0  0  0  0  0  0  0  0  0
  151.7924  142.6334  160.3834 H   0  0  0  0  0  0  0  0  0  0  0  0
  151.7891  140.4934  159.1403 H   0  0  0  0  0  0  0  0  0  0  0  0
  153.0503  141.0661  158.0565 H   0  0  0  0  0  0  0  0  0  0  0  0
  147.4144  140.0190  156.4167 H   0  0  0  0  0  0  0  0  0  0  0  0
  1  2  1  0  0  0  0
  1 23  1  0  0  0  0
  1 24  1  0  0  0  0
  1 25  1  0  0  0  0
  2  3  1  0  0  0  0
  2  7  1  0  0  0  0
  2 26  1  0  0  0  0
  3  4  1  0  0  0  0
  3 27  1  0  0  0  0
  4  5  1  0  0  0  0
  4  6  2  0  0  0  0
  5 28  1  0  0  0  0
  5 29  1  0  0  0  0
  7  8  2  0  0  0  0
  7  9  1  0  0  0  0
  9 10  1  0  0  0  0
  9 30  1  0  0  0  0
 10 11  1  0  0  0  0
 10 31  1  0  0  0  0
 10 32  1  0  0  0  0
 11 22  1  0  0  0  0
 11 12  2  0  0  0  0
 12 13  1  0  0  0  0
 12 33  1  0  0  0  0
 13 14  2  0  0  0  0
 13 34  1  0  0  0  0
 14 15  1  0  0  0  0
 14 21  1  0  0  0  0
 15 20  1  0  0  0  0
 15 16  1  0  0  0  0
 16 17  1  0  0  0  0
 16 35  1  0  0  0  0
 16 36  1  0  0  0  0
 17 18  1  0  0  0  0
 17 37  1  0  0  0  0
 17 38  1  0  0  0  0
 18 19  1  0  0  0  0
 19 20  1  0  0  0  0
 19 39  1  0  0  0  0
 19 40  1  0  0  0  0
 20 41  1  0  0  0  0
 20 42  1  0  0  0  0
 21 22  2  0  0  0  0
 22 43  1  0  0  0  0
M  END
> <s_m_source_file>
AV-unprocessed.smi

> <i_m_source_file_index>
337

> <i_lp_mmshare_version>
43012

> <i_f3d_flags>
0

> <s_epik_input>
W05IMl1DKD1PKVtOSF1bQ0BASF0oW0NIM10pQyg9TylbTkhdW0NIMl1jMVtjSF1bY0hdYyhuW2NIXTEpTjJbQ0gyXVtDSDJdT1tDSDJdW0NIMl0y

> <s_epik_cmdline>
J2VwaWtfcHl0aG9uJywgJy1waCcsICc3LjAnLCAnLXRuJywgJzgnLCAnLW1hJywgJzIwMCcsICctbWV0YWxfYmluZGluZycsICctaW1hZScsICc8aW5maWxlLm1hZT4nLCAnLW9tYWUnLCAnPG91dGZpbGUubWFlPic=

> <r_lp_tautomer_probability>
1

> <r_epik_Ionization_Penalty>
0.0048357

> <r_epik_Ionization_Penalty_Charging>
0

> <r_epik_Ionization_Penalty_Neutral>
0.0048357

> <r_epik_State_Penalty>
0.0034696

> <r_epik_Charging_Adjusted_Penalty>
0.0034696

> <i_epik_Tot_Q>
0

> <i_epik_Tot_abs_Q>
0

> <r_epik_Metal_State_Penalty>
-0

> <b_epik_Metal_Only>
0

> <s_lp_Force_Field>
OPLS_2005

> <r_lp_Energy>
8.56102

> <b_lp_Chiralities_Consistent>
1

> <s_lp_Variant>
AV-unprocessed.smi:337-1

> <Gold.Version>
5.8.1

> <Gold.Id.Protein>
6NUR|6NUR_protein|mol2

> <Gold.PLP.Fitness>
39.9719

> <Gold.PLP.PLP>
-33.2069

> <Gold.PLP.part.hbond>
-3.4278

> <Gold.PLP.part.metal>
0.0000

> <Gold.PLP.part.buried>
-4.1730

> <Gold.PLP.part.nonpolar>
-25.6201

> <Gold.PLP.part.repulsive>
0.1583

> <Gold.PLP.ligand.clash>
0.0000

> <Gold.PLP.ligand.torsion>
1.0895

> <Gold.PLP.Chemscore.Hbond>
2.8596

> <Gold.PLP.Chemscore.CHOScore>
0.0000

> <Gold.PLP.Chemscore.Metal>
0.0000

> <Gold.Chemscore.Hbonds>
donor molecule, donor type, donor heavy atom, donor atom, acceptor molecule, acceptor atom, score
      L1  H     3    27       P1  7948  1.00
      L1  H     5    28       P1 10747  0.63
      L1  H     9    30       P1  7948  1.00

> <Gold.PLP.Chemscore.Internal.Correction>
0.3653

> <Gold.Rescore>
     Score         DG    S(hbond)    S(metal)    S(lipo)     H(rot)  DE(clash)    DE(int)     intcor
     13.23     -15.45       2.47        0.00      72.72       2.66       0.16       2.06       ----

> <Gold.Chemscore.Fitness>
13.2286

> <Gold.Chemscore.DG>
-15.4457

> <Gold.Chemscore.ZeroCoef>
-5.4800

> <Gold.Chemscore.Hbond>
2.4731

> <Gold.Chemscore.Metal>
0.0000

> <Gold.Chemscore.Lipo>
72.7215

> <Gold.Chemscore.Internal_Hbond>
0.0000

> <Gold.Chemscore.DEClash>
0.1587

> <Gold.Chemscore.DEInternal>
2.0584

> <Gold.Chemscore.Rot>
2.6573

> <Gold.Chemscore.Internal.Correction>
   9.000000E+99

> <Gold.Chemscore.Hbonds>
donor molecule, donor type, donor heavy atom, donor atom, acceptor molecule, acceptor atom, score
      L1  H     3    27       P1  7948  0.55
      L1  H     5    28       P1 10747  0.61
      L1  H     9    30       P1  7948  1.00

> <Gold.Chemscore.Hbond.Weighted>
-8.2600

> <Gold.Chemscore.Metal.Weighted>
-0.0000

> <Gold.Chemscore.Lipo.Weighted>
-8.5084

> <Gold.Chemscore.Internal_Hbond.Weighted>
0.0000

> <Gold.Chemscore.DEClash.Weighted>
0.1587

> <Gold.Chemscore.DEInternal.Weighted>
2.0584

> <Gold.Chemscore.Rot.Weighted>
6.8027

> <Gold.Chemscore.Internal.Correction.Weighted>
   9.000000E+99

> <Gold.Protein.RotatedTorsions>
[ 6907 6896 6895 6894 ] final  -87.62 input  -60.11 | X-H torsion
[ 7974 7965 7964 7962 ] final   16.46 input  175.53 | X-H torsion
[ 8008 7997 7996 7995 ] final  133.55 input   59.86 | X-H torsion
[ 10167 10162 10161 10158 ] final  -61.02 input  -65.29 | X-H torsion
[ 10718 10713 10712 10709 ] final  121.38 input   66.30 | X-H torsion
[ 10763 10752 10751 10750 ] final   12.39 input  -60.55 | X-H torsion
[ 11005 11000 10999 10996 ] final   53.29 input  -57.11 | X-H torsion

> <Gold.Protein.ActiveResidues>
 VAL166  LYS551  ARG553  GLY616  TRP617  ASP618  TYR619  PRO620  LYS621  CYS622 
 ASP623  PHE694  ASN695  SER759  ASP760  ASP761  ALA762  ILE779  LEU786  VAL792 
 PHE793  MET794  SER795  GLU796  ALA797  LYS798  CYS799  TRP800  GLU811  SER814 

> <Gold.Protein.RotatedAtoms>
  150.6867  134.2868  159.4649 H   0  0  0  0  0  0  0  0  0  0  0  0  # atno 6907 bound_to 6896
  152.0776  134.9489  160.0583 H   0  0  0  0  0  0  0  0  0  0  0  0  # atno 6908 bound_to 6896
  152.0855  133.4139  159.4557 H   0  0  0  0  0  0  0  0  0  0  0  0  # atno 6909 bound_to 6896
  146.2249  139.8744  142.8582 H   0  0  0  0  0  0  0  0  0  0  0  0  # atno 7974 bound_to 7965
  156.2993  140.2518  156.3272 H   0  0  0  0  0  0  0  0  0  0  0  0  # atno 8008 bound_to 7997
  154.9179  140.0401  157.2001 H   0  0  0  0  0  0  0  0  0  0  0  0  # atno 8009 bound_to 7997
  154.8340  140.2880  155.5708 H   0  0  0  0  0  0  0  0  0  0  0  0  # atno 8010 bound_to 7997
  140.6033  143.2367  151.5878 H   0  0  0  0  0  0  0  0  0  0  0  0  # atno 10167 bound_to 10162
  157.5822  131.1073  150.8165 H   0  0  0  0  0  0  0  0  0  0  0  0  # atno 10718 bound_to 10713
  153.1828  135.6830  153.8455 H   0  0  0  0  0  0  0  0  0  0  0  0  # atno 10763 bound_to 10752
  153.7782  135.3186  155.3363 H   0  0  0  0  0  0  0  0  0  0  0  0  # atno 10764 bound_to 10752
  154.8070  135.4742  154.0513 H   0  0  0  0  0  0  0  0  0  0  0  0  # atno 10765 bound_to 10752
  140.0779  134.5379  155.8977 H   0  0  0  0  0  0  0  0  0  0  0  0  # atno 11005 bound_to 11000
  145.2575  141.0065  143.3845 LP  0  0  0  0  0  0  0  0  0  0  0  0  # atno 17320 bound_to 7965
  144.9325  139.4282  143.6488 LP  0  0  0  0  0  0  0  0  0  0  0  0  # atno 17321 bound_to 7965
  139.5307  144.2925  152.1140 LP  0  0  0  0  0  0  0  0  0  0  0  0  # atno 17342 bound_to 10162
  140.2110  144.4563  150.6386 LP  0  0  0  0  0  0  0  0  0  0  0  0  # atno 17343 bound_to 10162
  156.8608  130.5112  149.5304 LP  0  0  0  0  0  0  0  0  0  0  0  0  # atno 17370 bound_to 10713
  156.0868  130.5865  150.9663 LP  0  0  0  0  0  0  0  0  0  0  0  0  # atno 17371 bound_to 10713
  141.2036  133.6633  156.6073 LP  0  0  0  0  0  0  0  0  0  0  0  0  # atno 17394 bound_to 11000
  140.3531  134.7752  157.4481 LP  0  0  0  0  0  0  0  0  0  0  0  0  # atno 17395 bound_to 11000

$$$$
