AV-unprocessed.smi:155|AV-procd|sdf|1269|dock1
  -GOLD-   2262018523D 1   1.00000     0.00000
 Structure written by MMmdl.
 63 66  0  0  0  0  0  0  0  0  2 V2000
  152.6511  144.1122  158.5857 C   0  0  0  0  0  0  0  0  0  0  0  0
  152.0630  143.0034  159.3297 N   0  0  0  0  0  0  0  0  0  0  0  0
  152.9923  142.6174  160.3831 C   0  0  0  0  0  0  0  0  0  0  0  0
  151.8090  141.8510  158.4662 C   0  0  0  0  0  0  0  0  0  0  0  0
  150.8185  142.1481  157.3133 C   0  0  0  0  0  0  0  0  0  0  0  0
  150.6252  141.0343  156.3461 N   0  3  2  0  0  0  0  0  0  0  0  0
  151.8479  140.2208  156.0975 C   0  0  0  0  0  0  0  0  0  0  0  0
  151.6448  139.0723  155.0864 C   0  0  0  0  0  0  0  0  0  0  0  0
  150.3946  138.2054  155.3361 C   0  0  0  0  0  0  0  0  0  0  0  0
  149.1516  138.9807  155.3252 N   0  0  0  0  0  0  0  0  0  0  0  0
  148.1087  138.5699  156.0923 C   0  0  0  0  0  0  0  0  0  0  0  0
  146.8695  139.0438  155.7986 N   0  0  0  0  0  0  0  0  0  0  0  0
  145.8126  138.6770  156.5291 C   0  0  0  0  0  0  0  0  0  0  0  0
  145.7691  137.8524  157.5765 N   0  0  0  0  0  0  0  0  0  0  0  0
  147.0059  137.3591  157.8686 C   0  0  0  0  0  0  0  0  0  0  0  0
  148.2190  137.6601  157.1852 C   0  0  0  0  0  0  0  0  0  0  0  0
  149.2671  136.9485  157.7603 N   0  0  0  0  0  0  0  0  0  0  0  0
  148.7110  136.2849  158.7367 C   0  0  0  0  0  0  0  0  0  0  0  0
  147.3561  136.4748  158.8733 N   0  0  0  0  0  0  0  0  0  0  0  0
  146.4937  135.8667  159.8711 C   0  0  0  0  0  0  0  0  0  0  0  0
  147.1912  135.7196  161.2376 C   0  0  1  0  0  0  0  0  0  0  0  0
  147.3265  136.9952  161.8349 O   0  0  0  0  0  0  0  0  0  0  0  0
  146.4101  134.7994  162.1934 C   0  0  2  0  0  0  0  0  0  0  0  0
  146.3154  133.3410  161.7374 C   0  0  0  0  0  0  0  0  0  0  0  0
  145.0190  132.8439  162.3599 C   0  0  0  0  0  0  0  0  0  0  0  0
  144.3346  134.1161  162.8646 C   0  0  0  0  0  0  0  0  0  0  0  0
  145.0437  135.1790  162.2455 O   0  0  0  0  0  0  0  0  0  0  0  0
  149.0516  140.2095  154.5345 C   0  0  0  0  0  0  0  0  0  0  0  0
  149.8468  141.3986  155.1304 C   0  0  0  0  0  0  0  0  0  0  0  0
  151.9775  144.4810  157.8134 H   0  0  0  0  0  0  0  0  0  0  0  0
  153.5887  143.8200  158.1102 H   0  0  0  0  0  0  0  0  0  0  0  0
  152.8589  144.9485  159.2540 H   0  0  0  0  0  0  0  0  0  0  0  0
  152.5742  141.8123  160.9884 H   0  0  0  0  0  0  0  0  0  0  0  0
  153.1897  143.4586  161.0485 H   0  0  0  0  0  0  0  0  0  0  0  0
  153.9435  142.2771  159.9708 H   0  0  0  0  0  0  0  0  0  0  0  0
  152.7594  141.5134  158.0495 H   0  0  0  0  0  0  0  0  0  0  0  0
  151.4383  141.0161  159.0608 H   0  0  0  0  0  0  0  0  0  0  0  0
  149.8509  142.4898  157.6786 H   0  0  0  0  0  0  0  0  0  0  0  0
  151.2143  142.9887  156.7420 H   0  0  0  0  0  0  0  0  0  0  0  0
  152.6531  140.8545  155.7298 H   0  0  0  0  0  0  0  0  0  0  0  0
  152.1829  139.8094  157.0503 H   0  0  0  0  0  0  0  0  0  0  0  0
  151.6191  139.4750  154.0735 H   0  0  0  0  0  0  0  0  0  0  0  0
  152.5263  138.4309  155.1085 H   0  0  0  0  0  0  0  0  0  0  0  0
  150.3271  137.4257  154.5768 H   0  0  0  0  0  0  0  0  0  0  0  0
  150.5069  137.7012  156.2972 H   0  0  0  0  0  0  0  0  0  0  0  0
  144.8668  139.1064  156.2324 H   0  0  0  0  0  0  0  0  0  0  0  0
  149.2764  135.6352  159.3891 H   0  0  0  0  0  0  0  0  0  0  0  0
  145.5871  136.4657  159.9654 H   0  0  0  0  0  0  0  0  0  0  0  0
  146.1827  134.8900  159.4987 H   0  0  0  0  0  0  0  0  0  0  0  0
  148.1930  135.3146  161.0877 H   0  0  0  0  0  0  0  0  0  0  0  0
  146.9139  136.9739  162.6849 H   0  0  0  0  0  0  0  0  0  0  0  0
  146.8277  134.8490  163.2011 H   0  0  0  0  0  0  0  0  0  0  0  0
  146.2403  133.2868  160.6506 H   0  0  0  0  0  0  0  0  0  0  0  0
  147.1820  132.7536  162.0416 H   0  0  0  0  0  0  0  0  0  0  0  0
  144.4085  132.3313  161.6160 H   0  0  0  0  0  0  0  0  0  0  0  0
  145.2025  132.1494  163.1803 H   0  0  0  0  0  0  0  0  0  0  0  0
  143.2736  134.1499  162.6168 H   0  0  0  0  0  0  0  0  0  0  0  0
  144.4346  134.2020  163.9475 H   0  0  0  0  0  0  0  0  0  0  0  0
  149.4278  139.9918  153.5346 H   0  0  0  0  0  0  0  0  0  0  0  0
  148.0085  140.4879  154.3821 H   0  0  0  0  0  0  0  0  0  0  0  0
  149.1303  142.1788  155.3897 H   0  0  0  0  0  0  0  0  0  0  0  0
  150.5063  141.8327  154.3780 H   0  0  0  0  0  0  0  0  0  0  0  0
  150.0093  140.4013  156.8365 H   0  0  0  0  0  0  0  0  0  0  0  0
  1  2  1  0  0  0  0
  1 30  1  0  0  0  0
  1 31  1  0  0  0  0
  1 32  1  0  0  0  0
  2  3  1  0  0  0  0
  2  4  1  0  0  0  0
  3 33  1  0  0  0  0
  3 34  1  0  0  0  0
  3 35  1  0  0  0  0
  4  5  1  0  0  0  0
  4 36  1  0  0  0  0
  4 37  1  0  0  0  0
  5  6  1  0  0  0  0
  5 38  1  0  0  0  0
  5 39  1  0  0  0  0
  6 29  1  0  0  0  0
  6  7  1  0  0  0  0
  6 63  1  0  0  0  0
  7  8  1  0  0  0  0
  7 40  1  0  0  0  0
  7 41  1  0  0  0  0
  8  9  1  0  0  0  0
  8 42  1  0  0  0  0
  8 43  1  0  0  0  0
  9 10  1  0  0  0  0
  9 44  1  0  0  0  0
  9 45  1  0  0  0  0
 10 11  1  0  0  0  0
 10 28  1  0  0  0  0
 11 16  1  0  0  0  0
 11 12  2  0  0  0  0
 12 13  1  0  0  0  0
 13 14  2  0  0  0  0
 13 46  1  0  0  0  0
 14 15  1  0  0  0  0
 15 19  1  0  0  0  0
 15 16  2  0  0  0  0
 16 17  1  0  0  0  0
 17 18  2  0  0  0  0
 18 19  1  0  0  0  0
 18 47  1  0  0  0  0
 19 20  1  0  0  0  0
 20 21  1  0  0  0  0
 20 48  1  0  0  0  0
 20 49  1  0  0  0  0
 21 22  1  0  0  0  0
 21 23  1  0  0  0  0
 21 50  1  0  0  0  0
 22 51  1  0  0  0  0
 23 27  1  0  0  0  0
 23 24  1  0  0  0  0
 23 52  1  0  0  0  0
 24 25  1  0  0  0  0
 24 53  1  0  0  0  0
 24 54  1  0  0  0  0
 25 26  1  0  0  0  0
 25 55  1  0  0  0  0
 25 56  1  0  0  0  0
 26 27  1  0  0  0  0
 26 57  1  0  0  0  0
 26 58  1  0  0  0  0
 28 29  1  0  0  0  0
 28 59  1  0  0  0  0
 28 60  1  0  0  0  0
 29 61  1  0  0  0  0
 29 62  1  0  0  0  0
M  CHG  1   6   1
M  END
> <s_m_source_file>
AV-unprocessed.smi

> <i_m_source_file_index>
155

> <i_lp_mmshare_version>
43012

> <i_f3d_flags>
0

> <s_epik_input>
W0NIM11OKFtDSDNdKVtDSDJdW0NIMl1OMVtDSDJdW0NIMl1bQ0gyXU4oW0NIMl1bQ0gyXTEpYyhuW2NIXW4yKWMoYzIzKW5bY0hdbjNbQ0gyXVtDQEhdKFtPSF0pW0NAQEhdNFtDSDJdW0NIMl1bQ0gyXU80

> <s_epik_cmdline>
J2VwaWtfcHl0aG9uJywgJy1waCcsICc3LjAnLCAnLXRuJywgJzgnLCAnLW1hJywgJzIwMCcsICctbWV0YWxfYmluZGluZycsICctaW1hZScsICc8aW5maWxlLm1hZT4nLCAnLW9tYWUnLCAnPG91dGZpbGUubWFlPic=

> <r_epik_Ionization_Penalty>
0.0619615

> <r_epik_Ionization_Penalty_Charging>
0.0161638

> <r_epik_Ionization_Penalty_Neutral>
0.0457976

> <r_epik_State_Penalty>
0.403408

> <r_epik_Charging_Adjusted_Penalty>
0.419572

> <i_epik_Tot_Q>
1

> <i_epik_Tot_abs_Q>
1

> <r_epik_Metal_State_Penalty>
0.404222

> <b_epik_Metal_Only>
0

> <s_lp_Force_Field>
OPLS_2005

> <r_lp_Energy>
55.2712

> <b_lp_Chiralities_Consistent>
1

> <s_lp_Variant>
AV-unprocessed.smi:155-3

> <Gold.Version>
5.8.1

> <Gold.Id.Protein>
6NUR|6NUR_protein|mol2

> <Gold.PLP.Fitness>
51.7275

> <Gold.PLP.PLP>
-47.9149

> <Gold.PLP.part.hbond>
-2.0000

> <Gold.PLP.part.metal>
0.0000

> <Gold.PLP.part.buried>
-4.7281

> <Gold.PLP.part.nonpolar>
-40.6362

> <Gold.PLP.part.repulsive>
0.1132

> <Gold.PLP.ligand.clash>
0.0000

> <Gold.PLP.ligand.torsion>
0.8233

> <Gold.PLP.Chemscore.Hbond>
1.6800

> <Gold.PLP.Chemscore.CHOScore>
0.0000

> <Gold.PLP.Chemscore.Metal>
0.0000

> <Gold.Chemscore.Hbonds>
donor molecule, donor type, donor heavy atom, donor atom, acceptor molecule, acceptor atom, score
      P1  H  6931  6943       L1    22  0.78
      P1  H  6934  6947       L1    22  0.45

> <Gold.PLP.Chemscore.Internal.Correction>
0.4191

> <Gold.Rescore>
     Score         DG    S(hbond)    S(metal)    S(lipo)     H(rot)  DE(clash)    DE(int)     intcor
     15.31     -17.69       1.38        0.00     122.62       2.63       0.20       2.19       ----

> <Gold.Chemscore.Fitness>
15.3089

> <Gold.Chemscore.DG>
-17.6925

> <Gold.Chemscore.ZeroCoef>
-5.4800

> <Gold.Chemscore.Hbond>
1.3787

> <Gold.Chemscore.Metal>
0.0000

> <Gold.Chemscore.Lipo>
122.6195

> <Gold.Chemscore.Internal_Hbond>
0.0000

> <Gold.Chemscore.DEClash>
0.1960

> <Gold.Chemscore.DEInternal>
2.1876

> <Gold.Chemscore.Rot>
2.6324

> <Gold.Chemscore.Internal.Correction>
   9.000000E+99

> <Gold.Chemscore.Hbonds>
donor molecule, donor type, donor heavy atom, donor atom, acceptor molecule, acceptor atom, score
      P1  H  6931  6943       L1    22  0.51
      P1  H  6934  6947       L1    22  0.33

> <Gold.Chemscore.Hbond.Weighted>
-4.6049

> <Gold.Chemscore.Metal.Weighted>
-0.0000

> <Gold.Chemscore.Lipo.Weighted>
-14.3465

> <Gold.Chemscore.Internal_Hbond.Weighted>
0.0000

> <Gold.Chemscore.DEClash.Weighted>
0.1960

> <Gold.Chemscore.DEInternal.Weighted>
2.1876

> <Gold.Chemscore.Rot.Weighted>
6.7389

> <Gold.Chemscore.Internal.Correction.Weighted>
   9.000000E+99

> <Gold.Protein.RotatedTorsions>
[ 6907 6896 6895 6894 ] final -137.71 input  -60.11 | X-H torsion
[ 7974 7965 7964 7962 ] final  151.98 input  175.53 | X-H torsion
[ 8008 7997 7996 7995 ] final   25.81 input   59.86 | X-H torsion
[ 10167 10162 10161 10158 ] final  113.47 input  -65.29 | X-H torsion
[ 10718 10713 10712 10709 ] final  101.38 input   66.30 | X-H torsion
[ 10763 10752 10751 10750 ] final  146.99 input  -60.55 | X-H torsion
[ 11005 11000 10999 10996 ] final -123.08 input  -57.11 | X-H torsion

> <Gold.Protein.ActiveResidues>
 VAL166  LYS551  ARG553  GLY616  TRP617  ASP618  TYR619  PRO620  LYS621  CYS622 
 ASP623  PHE694  ASN695  SER759  ASP760  ASP761  ALA762  ILE779  LEU786  VAL792 
 PHE793  MET794  SER795  GLU796  ALA797  LYS798  CYS799  TRP800  GLU811  SER814 

> <Gold.Protein.RotatedAtoms>
  151.0258  133.5835  159.2665 H   0  0  0  0  0  0  0  0  0  0  0  0  # atno 6907 bound_to 6896
  151.2934  135.0747  159.9222 H   0  0  0  0  0  0  0  0  0  0  0  0  # atno 6908 bound_to 6896
  152.5334  133.9953  159.7923 H   0  0  0  0  0  0  0  0  0  0  0  0  # atno 6909 bound_to 6896
  144.8254  139.6608  143.6082 H   0  0  0  0  0  0  0  0  0  0  0  0  # atno 7974 bound_to 7965
  155.0176  140.3144  155.4806 H   0  0  0  0  0  0  0  0  0  0  0  0  # atno 8008 bound_to 7997
  156.2898  140.2203  156.5234 H   0  0  0  0  0  0  0  0  0  0  0  0  # atno 8009 bound_to 7997
  154.7480  140.0468  157.0857 H   0  0  0  0  0  0  0  0  0  0  0  0  # atno 8010 bound_to 7997
  139.6459  144.7126  151.2144 H   0  0  0  0  0  0  0  0  0  0  0  0  # atno 10167 bound_to 10162
  157.6830  131.0724  150.5244 H   0  0  0  0  0  0  0  0  0  0  0  0  # atno 10718 bound_to 10713
  154.0310  135.2897  155.3368 H   0  0  0  0  0  0  0  0  0  0  0  0  # atno 10763 bound_to 10752
  154.6988  135.5197  153.8499 H   0  0  0  0  0  0  0  0  0  0  0  0  # atno 10764 bound_to 10752
  153.0640  135.6624  154.0523 H   0  0  0  0  0  0  0  0  0  0  0  0  # atno 10765 bound_to 10752
  140.9946  134.0489  157.3612 H   0  0  0  0  0  0  0  0  0  0  0  0  # atno 11005 bound_to 11000
  146.2560  139.6303  142.9395 LP  0  0  0  0  0  0  0  0  0  0  0  0  # atno 17320 bound_to 7965
  145.5011  141.0437  143.2540 LP  0  0  0  0  0  0  0  0  0  0  0  0  # atno 17321 bound_to 7965
  140.7514  143.6233  150.8493 LP  0  0  0  0  0  0  0  0  0  0  0  0  # atno 17342 bound_to 10162
  139.9875  143.5883  152.2922 LP  0  0  0  0  0  0  0  0  0  0  0  0  # atno 17343 bound_to 10162
  156.5556  130.4242  149.6087 LP  0  0  0  0  0  0  0  0  0  0  0  0  # atno 17370 bound_to 10713
  156.2865  130.7100  151.1938 LP  0  0  0  0  0  0  0  0  0  0  0  0  # atno 17371 bound_to 10713
  139.9009  135.0164  156.7261 LP  0  0  0  0  0  0  0  0  0  0  0  0  # atno 17394 bound_to 11000
  140.6985  133.9327  155.8010 LP  0  0  0  0  0  0  0  0  0  0  0  0  # atno 17395 bound_to 11000

$$$$
