AV-unprocessed.smi:40|AV-procd|sdf|382|dock4
  -GOLD-   2262016243D 1   1.00000     0.00000
 Structure written by MMmdl.
 47 48  0  0  0  0  0  0  0  0  1 V2000
  153.8183  145.3903  159.3973 C   0  0  0  0  0  0  0  0  0  0  0  0
  154.4432  144.2015  158.6554 C   0  0  0  0  0  0  0  0  0  0  0  0
  153.9564  142.8320  159.1561 C   0  0  0  0  0  0  0  0  0  0  0  0
  154.0542  142.6597  160.6828 C   0  0  0  0  0  0  0  0  0  0  0  0
  153.5644  141.2877  161.1652 C   0  0  0  0  0  0  0  0  0  0  0  0
  153.8877  141.1325  162.5364 O   0  0  0  0  0  0  0  0  0  0  0  0
  153.4671  142.0310  163.4456 C   0  0  0  0  0  0  0  0  0  0  0  0
  152.8622  143.0654  163.1649 O   0  0  0  0  0  0  0  0  0  0  0  0
  153.7817  141.6004  164.7973 N   0  0  0  0  0  0  0  0  0  0  0  0
  153.5175  142.2356  165.9646 C   0  0  0  0  0  0  0  0  0  0  0  0
  153.5848  143.5529  166.0803 N   0  0  0  0  0  0  0  0  0  0  0  0
  153.3130  144.2343  167.2356 C   0  0  0  0  0  0  0  0  0  0  0  0
  153.4295  145.4579  167.2870 O   0  0  0  0  0  0  0  0  0  0  0  0
  152.9084  143.4739  168.3572 N   0  0  0  0  0  0  0  0  0  0  0  0
  152.6129  144.1873  169.6554 C   0  0  1  0  0  0  0  0  0  0  0  0
  152.2350  143.2420  170.6143 O   0  0  0  0  0  0  0  0  0  0  0  0
  153.0047  143.4137  171.7992 C   0  0  1  0  0  0  0  0  0  0  0  0
  153.1475  142.0760  172.5346 C   0  0  0  0  0  0  0  0  0  0  0  0
  154.3239  143.9959  171.2948 C   0  0  2  0  0  0  0  0  0  0  0  0
  155.0532  144.6696  172.3030 O   0  0  0  0  0  0  0  0  0  0  0  0
  153.8715  144.9111  170.1626 C   0  0  2  0  0  0  0  0  0  0  0  0
  153.5594  146.2186  170.6075 O   0  0  0  0  0  0  0  0  0  0  0  0
  152.8266  142.0927  168.2569 C   0  0  0  0  0  0  0  0  0  0  0  0
  153.1068  141.4455  167.1052 C   0  0  0  0  0  0  0  0  0  0  0  0
  153.0137  140.1065  167.0291 F   0  0  0  0  0  0  0  0  0  0  0  0
  151.7680  144.8493  169.4577 H   0  0  0  0  0  0  0  0  0  0  0  0
  152.4918  144.1405  172.4315 H   0  0  0  0  0  0  0  0  0  0  0  0
  154.9432  143.1985  170.8812 H   0  0  0  0  0  0  0  0  0  0  0  0
  154.6252  144.9890  169.3777 H   0  0  0  0  0  0  0  0  0  0  0  0
  154.2393  146.3307  159.0414 H   0  0  0  0  0  0  0  0  0  0  0  0
  154.0061  145.3280  160.4694 H   0  0  0  0  0  0  0  0  0  0  0  0
  152.7400  145.4372  159.2461 H   0  0  0  0  0  0  0  0  0  0  0  0
  154.2545  144.2930  157.5853 H   0  0  0  0  0  0  0  0  0  0  0  0
  155.5260  144.2505  158.7747 H   0  0  0  0  0  0  0  0  0  0  0  0
  152.9170  142.7108  158.8496 H   0  0  0  0  0  0  0  0  0  0  0  0
  154.5115  142.0374  158.6565 H   0  0  0  0  0  0  0  0  0  0  0  0
  155.0897  142.7861  160.9981 H   0  0  0  0  0  0  0  0  0  0  0  0
  153.4833  143.4436  161.1820 H   0  0  0  0  0  0  0  0  0  0  0  0
  152.4873  141.1933  161.0203 H   0  0  0  0  0  0  0  0  0  0  0  0
  154.0450  140.4987  160.5852 H   0  0  0  0  0  0  0  0  0  0  0  0
  154.2835  140.7259  164.8493 H   0  0  0  0  0  0  0  0  0  0  0  0
  153.7468  142.1893  173.4382 H   0  0  0  0  0  0  0  0  0  0  0  0
  153.6291  141.3275  171.9051 H   0  0  0  0  0  0  0  0  0  0  0  0
  152.1723  141.6871  172.8278 H   0  0  0  0  0  0  0  0  0  0  0  0
  155.3691  145.4865  171.9483 H   0  0  0  0  0  0  0  0  0  0  0  0
  153.6095  146.2335  171.5510 H   0  0  0  0  0  0  0  0  0  0  0  0
  152.5344  141.5009  169.1117 H   0  0  0  0  0  0  0  0  0  0  0  0
  1  2  1  0  0  0  0
  1 30  1  0  0  0  0
  1 31  1  0  0  0  0
  1 32  1  0  0  0  0
  2  3  1  0  0  0  0
  2 33  1  0  0  0  0
  2 34  1  0  0  0  0
  3  4  1  0  0  0  0
  3 35  1  0  0  0  0
  3 36  1  0  0  0  0
  4  5  1  0  0  0  0
  4 37  1  0  0  0  0
  4 38  1  0  0  0  0
  5  6  1  0  0  0  0
  5 39  1  0  0  0  0
  5 40  1  0  0  0  0
  6  7  1  0  0  0  0
  7  8  2  0  0  0  0
  7  9  1  0  0  0  0
  9 10  1  0  0  0  0
  9 41  1  0  0  0  0
 10 24  1  0  0  0  0
 10 11  2  0  0  0  0
 11 12  1  0  0  0  0
 12 13  2  0  0  0  0
 12 14  1  0  0  0  0
 14 15  1  0  0  0  0
 14 23  1  0  0  0  0
 15 26  1  0  0  0  0
 15 21  1  0  0  0  0
 15 16  1  0  0  0  0
 16 17  1  0  0  0  0
 17 27  1  0  0  0  0
 17 18  1  0  0  0  0
 17 19  1  0  0  0  0
 18 42  1  0  0  0  0
 18 43  1  0  0  0  0
 18 44  1  0  0  0  0
 19 28  1  0  0  0  0
 19 20  1  0  0  0  0
 19 21  1  0  0  0  0
 20 45  1  0  0  0  0
 21 29  1  0  0  0  0
 21 22  1  0  0  0  0
 22 46  1  0  0  0  0
 23 24  2  0  0  0  0
 23 47  1  0  0  0  0
 24 25  1  0  0  0  0
M  END
> <s_m_source_file>
AV-unprocessed.smi

> <i_m_source_file_index>
40

> <i_lp_mmshare_version>
43012

> <i_f3d_flags>
0

> <s_epik_input>
W0NIM11bQ0gyXVtDSDJdW0NIMl1bQ0gyXU9DKD1PKVtOSF1jMW5jKD1PKW4oW2NIXWMxRilbQ0BASF0yT1tDQEhdKFtDSDNdKVtDQEBIXShbT0hdKVtDQEhdMltPSF0=

> <s_epik_cmdline>
J2VwaWtfcHl0aG9uJywgJy1waCcsICc3LjAnLCAnLXRuJywgJzgnLCAnLW1hJywgJzIwMCcsICctbWV0YWxfYmluZGluZycsICctaW1hZScsICc8aW5maWxlLm1hZT4nLCAnLW9tYWUnLCAnPG91dGZpbGUubWFlPic=

> <r_lp_tautomer_probability>
1

> <r_epik_Ionization_Penalty>
2.29506e-06

> <r_epik_Ionization_Penalty_Charging>
8.26867e-09

> <r_epik_Ionization_Penalty_Neutral>
2.2868e-06

> <r_epik_State_Penalty>
-0

> <r_epik_Charging_Adjusted_Penalty>
8.26867e-09

> <i_epik_Tot_Q>
0

> <i_epik_Tot_abs_Q>
0

> <r_epik_Metal_State_Penalty>
-0

> <b_epik_Metal_Only>
0

> <s_epik_Chemistry_Notes>
This compound has an ester and may undergo hydrolysis at high or low pH. This compound contains an acetal/aminal-like group ( X-CH(R)-Y where X, Y are N, S, or O) that may be acid/base labile, releasing an aldehyde.

> <s_lp_Force_Field>
OPLS_2005

> <r_lp_Energy>
35.629

> <b_lp_Chiralities_Consistent>
1

> <s_lp_Variant>
AV-unprocessed.smi:40-16

> <Gold.Version>
5.8.1

> <Gold.Id.Protein>
6NUR|6NUR_protein|mol2

> <Gold.PLP.Fitness>
48.6261

> <Gold.PLP.PLP>
-49.2300

> <Gold.PLP.part.hbond>
-4.5698

> <Gold.PLP.part.metal>
0.0000

> <Gold.PLP.part.buried>
-6.3518

> <Gold.PLP.part.nonpolar>
-38.0597

> <Gold.PLP.part.repulsive>
0.4063

> <Gold.PLP.ligand.clash>
0.0000

> <Gold.PLP.ligand.torsion>
0.3668

> <Gold.PLP.Chemscore.Hbond>
0.0000

> <Gold.PLP.Chemscore.CHOScore>
0.0000

> <Gold.PLP.Chemscore.Metal>
0.0000

> <Gold.PLP.Chemscore.Internal.Correction>
0.1298

> <Gold.Rescore>
     Score         DG    S(hbond)    S(metal)    S(lipo)     H(rot)  DE(clash)    DE(int)     intcor
     -0.74      -4.59       0.00        0.00      73.24       3.70       1.41       3.93       ----

> <Gold.Chemscore.Fitness>
-0.7432

> <Gold.Chemscore.DG>
-4.5881

> <Gold.Chemscore.ZeroCoef>
-5.4800

> <Gold.Chemscore.Hbond>
0.0000

> <Gold.Chemscore.Metal>
0.0000

> <Gold.Chemscore.Lipo>
73.2398

> <Gold.Chemscore.Internal_Hbond>
0.0000

> <Gold.Chemscore.DEClash>
1.4062

> <Gold.Chemscore.DEInternal>
3.9251

> <Gold.Chemscore.Rot>
3.6957

> <Gold.Chemscore.Internal.Correction>
   9.000000E+99

> <Gold.Chemscore.Hbond.Weighted>
-0.0000

> <Gold.Chemscore.Metal.Weighted>
-0.0000

> <Gold.Chemscore.Lipo.Weighted>
-8.5691

> <Gold.Chemscore.Internal_Hbond.Weighted>
0.0000

> <Gold.Chemscore.DEClash.Weighted>
1.4062

> <Gold.Chemscore.DEInternal.Weighted>
3.9251

> <Gold.Chemscore.Rot.Weighted>
9.4610

> <Gold.Chemscore.Internal.Correction.Weighted>
   9.000000E+99

> <Gold.Protein.RotatedTorsions>
[ 6907 6896 6895 6894 ] final   94.47 input  -60.11 | X-H torsion
[ 7974 7965 7964 7962 ] final  107.45 input  175.53 | X-H torsion
[ 8008 7997 7996 7995 ] final   43.34 input   59.86 | X-H torsion
[ 10167 10162 10161 10158 ] final   93.53 input  -65.29 | X-H torsion
[ 10718 10713 10712 10709 ] final  -69.80 input   66.30 | X-H torsion
[ 10763 10752 10751 10750 ] final  166.37 input  -60.55 | X-H torsion
[ 11005 11000 10999 10996 ] final  -31.03 input  -57.11 | X-H torsion

> <Gold.Protein.ActiveResidues>
 VAL166  LYS551  ARG553  GLY616  TRP617  ASP618  TYR619  PRO620  LYS621  CYS622 
 ASP623  PHE694  ASN695  SER759  ASP760  ASP761  ALA762  ILE779  LEU786  VAL792 
 PHE793  MET794  SER795  GLU796  ALA797  LYS798  CYS799  TRP800  GLU811  SER814 

> <Gold.Protein.RotatedAtoms>
  152.5449  134.1188  159.8389 H   0  0  0  0  0  0  0  0  0  0  0  0  # atno 6907 bound_to 6896
  151.1246  133.5072  159.2608 H   0  0  0  0  0  0  0  0  0  0  0  0  # atno 6908 bound_to 6896
  151.1741  135.0341  159.8819 H   0  0  0  0  0  0  0  0  0  0  0  0  # atno 6909 bound_to 6896
  145.2935  139.2592  143.3852 H   0  0  0  0  0  0  0  0  0  0  0  0  # atno 7974 bound_to 7965
  155.3011  140.3385  155.4247 H   0  0  0  0  0  0  0  0  0  0  0  0  # atno 8008 bound_to 7997
  156.2001  140.1729  156.7957 H   0  0  0  0  0  0  0  0  0  0  0  0  # atno 8009 bound_to 7997
  154.5548  140.0698  156.8709 H   0  0  0  0  0  0  0  0  0  0  0  0  # atno 8010 bound_to 7997
  139.8170  144.6748  150.9567 H   0  0  0  0  0  0  0  0  0  0  0  0  # atno 10167 bound_to 10162
  156.0438  130.4319  150.2200 H   0  0  0  0  0  0  0  0  0  0  0  0  # atno 10718 bound_to 10713
  154.3380  135.2754  155.2437 H   0  0  0  0  0  0  0  0  0  0  0  0  # atno 10763 bound_to 10752
  154.4721  135.5880  153.6332 H   0  0  0  0  0  0  0  0  0  0  0  0  # atno 10764 bound_to 10752
  152.9860  135.6090  154.3578 H   0  0  0  0  0  0  0  0  0  0  0  0  # atno 10765 bound_to 10752
  140.9433  133.7265  156.1109 H   0  0  0  0  0  0  0  0  0  0  0  0  # atno 11005 bound_to 11000
  146.3177  140.3432  142.8649 LP  0  0  0  0  0  0  0  0  0  0  0  0  # atno 17320 bound_to 7965
  144.9153  140.7805  143.5782 LP  0  0  0  0  0  0  0  0  0  0  0  0  # atno 17321 bound_to 7965
  140.7815  143.4128  151.0965 LP  0  0  0  0  0  0  0  0  0  0  0  0  # atno 17342 bound_to 10162
  139.7791  143.8381  152.3134 LP  0  0  0  0  0  0  0  0  0  0  0  0  # atno 17343 bound_to 10162
  157.0293  131.0002  151.3317 LP  0  0  0  0  0  0  0  0  0  0  0  0  # atno 17370 bound_to 10713
  157.5289  130.8046  149.7894 LP  0  0  0  0  0  0  0  0  0  0  0  0  # atno 17371 bound_to 10713
  140.7703  134.3840  157.5509 LP  0  0  0  0  0  0  0  0  0  0  0  0  # atno 17394 bound_to 11000
  139.8826  134.9018  156.2818 LP  0  0  0  0  0  0  0  0  0  0  0  0  # atno 17395 bound_to 11000

$$$$
