AV-unprocessed.smi:2438|AV-procd|sdf|9597|dock8
  -GOLD-   2272013233D 1   1.00000     0.00000
 Structure written by MMmdl.
 43 44  0  0  0  0  0  0  0  0  1 V2000
  150.1077  137.1087  154.8136 C   0  0  0  0  0  0  0  0  0  0  0  0
  150.5983  138.2995  154.1313 N   0  0  0  0  0  0  0  0  0  0  0  0
  152.0168  138.5895  154.2915 C   0  0  0  0  0  0  0  0  0  0  0  0
  149.7836  139.4470  154.2099 C   0  0  0  0  0  0  0  0  0  0  0  0
  150.2749  140.5336  154.8541 N   0  0  0  0  0  0  0  0  0  0  0  0
  149.5073  141.6236  154.9011 C   0  0  0  0  0  0  0  0  0  0  0  0
  148.2882  141.7630  154.3801 N   0  0  0  0  0  0  0  0  0  0  0  0
  147.7777  140.6929  153.7362 C   0  0  0  0  0  0  0  0  0  0  0  0
  148.4977  139.4799  153.6094 C   0  0  0  0  0  0  0  0  0  0  0  0
  147.9582  138.3205  152.9884 N   0  0  0  0  0  0  0  0  0  0  0  0
  146.6631  137.9997  152.8403 C   0  0  0  0  0  0  0  0  0  0  0  0
  145.7165  138.6934  153.2121 O   0  0  0  0  0  0  0  0  0  0  0  0
  146.5253  136.8289  152.2027 N   0  0  0  0  0  0  0  0  0  0  0  0
  145.2565  136.2101  151.8310 C   0  0  2  0  0  0  0  0  0  0  0  0
  144.2933  136.2516  153.0304 C   0  0  0  0  0  0  0  0  0  0  0  0
  142.9726  135.5373  152.7098 C   0  0  0  0  0  0  0  0  0  0  0  0
  143.2190  134.0907  152.2546 C   0  0  0  0  0  0  0  0  0  0  0  0
  144.1692  134.0305  151.0401 C   0  0  2  0  0  0  0  0  0  0  0  0
  144.4101  132.5819  150.5671 C   0  0  0  0  0  0  0  0  0  0  0  0
  145.2713  132.5520  149.5495 F   0  0  0  0  0  0  0  0  0  0  0  0
  144.9001  131.8499  151.5676 F   0  0  0  0  0  0  0  0  0  0  0  0
  143.2609  132.0326  150.1744 F   0  0  0  0  0  0  0  0  0  0  0  0
  145.4913  134.7599  151.3622 C   0  0  0  0  0  0  0  0  0  0  0  0
  149.0530  136.9395  154.5924 H   0  0  0  0  0  0  0  0  0  0  0  0
  150.2266  137.2010  155.8939 H   0  0  0  0  0  0  0  0  0  0  0  0
  150.6634  136.2304  154.4843 H   0  0  0  0  0  0  0  0  0  0  0  0
  152.3459  139.3940  153.6338 H   0  0  0  0  0  0  0  0  0  0  0  0
  152.6124  137.7060  154.0604 H   0  0  0  0  0  0  0  0  0  0  0  0
  152.2299  138.8834  155.3200 H   0  0  0  0  0  0  0  0  0  0  0  0
  149.9142  142.4803  155.4176 H   0  0  0  0  0  0  0  0  0  0  0  0
  146.7762  140.8104  153.3506 H   0  0  0  0  0  0  0  0  0  0  0  0
  148.6287  137.7173  152.5342 H   0  0  0  0  0  0  0  0  0  0  0  0
  147.3640  136.3338  151.9373 H   0  0  0  0  0  0  0  0  0  0  0  0
  144.8009  136.7746  151.0149 H   0  0  0  0  0  0  0  0  0  0  0  0
  144.7580  135.7781  153.8966 H   0  0  0  0  0  0  0  0  0  0  0  0
  144.0924  137.2856  153.3135 H   0  0  0  0  0  0  0  0  0  0  0  0
  142.3244  135.5457  153.5866 H   0  0  0  0  0  0  0  0  0  0  0  0
  142.4414  136.0819  151.9279 H   0  0  0  0  0  0  0  0  0  0  0  0
  143.6385  133.5172  153.0820 H   0  0  0  0  0  0  0  0  0  0  0  0
  142.2655  133.6228  152.0089 H   0  0  0  0  0  0  0  0  0  0  0  0
  143.6895  134.5655  150.2187 H   0  0  0  0  0  0  0  0  0  0  0  0
  146.1349  134.7618  150.4818 H   0  0  0  0  0  0  0  0  0  0  0  0
  146.0310  134.2096  152.1342 H   0  0  0  0  0  0  0  0  0  0  0  0
  1  2  1  0  0  0  0
  1 24  1  0  0  0  0
  1 25  1  0  0  0  0
  1 26  1  0  0  0  0
  2  3  1  0  0  0  0
  2  4  1  0  0  0  0
  3 27  1  0  0  0  0
  3 28  1  0  0  0  0
  3 29  1  0  0  0  0
  4  9  1  0  0  0  0
  4  5  2  0  0  0  0
  5  6  1  0  0  0  0
  6  7  2  0  0  0  0
  6 30  1  0  0  0  0
  7  8  1  0  0  0  0
  8  9  2  0  0  0  0
  8 31  1  0  0  0  0
  9 10  1  0  0  0  0
 10 11  1  0  0  0  0
 10 32  1  0  0  0  0
 11 12  2  0  0  0  0
 11 13  1  0  0  0  0
 13 14  1  0  0  0  0
 13 33  1  0  0  0  0
 14 23  1  0  0  0  0
 14 15  1  0  0  0  0
 14 34  1  0  0  0  0
 15 16  1  0  0  0  0
 15 35  1  0  0  0  0
 15 36  1  0  0  0  0
 16 17  1  0  0  0  0
 16 37  1  0  0  0  0
 16 38  1  0  0  0  0
 17 18  1  0  0  0  0
 17 39  1  0  0  0  0
 17 40  1  0  0  0  0
 18 19  1  0  0  0  0
 18 23  1  0  0  0  0
 18 41  1  0  0  0  0
 19 20  1  0  0  0  0
 19 21  1  0  0  0  0
 19 22  1  0  0  0  0
 23 42  1  0  0  0  0
 23 43  1  0  0  0  0
M  END
> <s_m_source_file>
AV-unprocessed.smi

> <i_m_source_file_index>
2438

> <i_lp_mmshare_version>
43012

> <i_f3d_flags>
0

> <s_epik_input>
W0NIM11OKFtDSDNdKWMxbltjSF1uW2NIXWMxW05IXUMoPU8pW05IXVtDQEBIXTJbQ0gyXVtDSDJdW0NIMl1bQ0BASF0oQyhGKShGKUYpW0NIMl0y

> <s_epik_cmdline>
J2VwaWtfcHl0aG9uJywgJy1waCcsICc3LjAnLCAnLXRuJywgJzgnLCAnLW1hJywgJzIwMCcsICctbWV0YWxfYmluZGluZycsICctaW1hZScsICc8aW5maWxlLm1hZT4nLCAnLW9tYWUnLCAnPG91dGZpbGUubWFlPic=

> <r_lp_tautomer_probability>
1

> <r_epik_Ionization_Penalty>
0.01759

> <r_epik_Ionization_Penalty_Charging>
0

> <r_epik_Ionization_Penalty_Neutral>
0.01759

> <r_epik_State_Penalty>
0.0133536

> <r_epik_Charging_Adjusted_Penalty>
0.0133536

> <i_epik_Tot_Q>
0

> <i_epik_Tot_abs_Q>
0

> <r_epik_Metal_State_Penalty>
0.0129828

> <b_epik_Metal_Only>
0

> <s_lp_Force_Field>
OPLS_2005

> <r_lp_Energy>
11.5061

> <b_lp_Chiralities_Consistent>
1

> <s_lp_Variant>
AV-unprocessed.smi:2438-3

> <Gold.Version>
5.8.1

> <Gold.Id.Protein>
6NUR|6NUR_protein|mol2

> <Gold.PLP.Fitness>
47.9074

> <Gold.PLP.PLP>
-37.9679

> <Gold.PLP.part.hbond>
-4.2116

> <Gold.PLP.part.metal>
0.0000

> <Gold.PLP.part.buried>
-0.6184

> <Gold.PLP.part.nonpolar>
-37.5909

> <Gold.PLP.part.repulsive>
2.9822

> <Gold.PLP.ligand.clash>
0.0000

> <Gold.PLP.ligand.torsion>
0.6554

> <Gold.PLP.Chemscore.Hbond>
2.6640

> <Gold.PLP.Chemscore.CHOScore>
0.9728

> <Gold.PLP.Chemscore.Metal>
0.0000

> <Gold.Chemscore.Hbonds>
donor molecule, donor type, donor heavy atom, donor atom, acceptor molecule, acceptor atom, score
      L1  H    10    32       P1  7948  0.99
      L1  H    13    33       P1  7948  1.00
      P1  H  7989  7998       L1     5  0.67
      L1  C     6    30       P1  8028  0.95

> <Gold.PLP.Chemscore.Internal.Correction>
0.3398

> <Gold.Rescore>
     Score         DG    S(hbond)    S(metal)    S(lipo)     H(rot)  DE(clash)    DE(int)     intcor
     11.13     -15.96       1.94        0.00      62.69       1.30       1.48       3.35       ----

> <Gold.Chemscore.Fitness>
11.1335

> <Gold.Chemscore.DG>
-15.9613

> <Gold.Chemscore.ZeroCoef>
-5.4800

> <Gold.Chemscore.Hbond>
1.9373

> <Gold.Chemscore.Metal>
0.0000

> <Gold.Chemscore.Lipo>
62.6935

> <Gold.Chemscore.Internal_Hbond>
0.0000

> <Gold.Chemscore.DEClash>
1.4794

> <Gold.Chemscore.DEInternal>
3.3484

> <Gold.Chemscore.Rot>
1.2987

> <Gold.Chemscore.Internal.Correction>
   9.000000E+99

> <Gold.Chemscore.Hbonds>
donor molecule, donor type, donor heavy atom, donor atom, acceptor molecule, acceptor atom, score
      L1  H    10    32       P1  7948  0.93
      L1  H    13    33       P1  7948  0.93
      P1  H  7989  7998       L1     5  0.04

> <Gold.Chemscore.Hbond.Weighted>
-6.4707

> <Gold.Chemscore.Metal.Weighted>
-0.0000

> <Gold.Chemscore.Lipo.Weighted>
-7.3351

> <Gold.Chemscore.Internal_Hbond.Weighted>
0.0000

> <Gold.Chemscore.DEClash.Weighted>
1.4794

> <Gold.Chemscore.DEInternal.Weighted>
3.3484

> <Gold.Chemscore.Rot.Weighted>
3.3246

> <Gold.Chemscore.Internal.Correction.Weighted>
   9.000000E+99

> <Gold.Protein.RotatedTorsions>
[ 6907 6896 6895 6894 ] final    7.73 input  -60.11 | X-H torsion
[ 7974 7965 7964 7962 ] final   -5.75 input  175.53 | X-H torsion
[ 8008 7997 7996 7995 ] final  164.32 input   59.86 | X-H torsion
[ 10167 10162 10161 10158 ] final   35.56 input  -65.29 | X-H torsion
[ 10718 10713 10712 10709 ] final  176.28 input   66.30 | X-H torsion
[ 10763 10752 10751 10750 ] final  136.50 input  -60.55 | X-H torsion
[ 11005 11000 10999 10996 ] final   83.36 input  -57.11 | X-H torsion

> <Gold.Protein.ActiveResidues>
 VAL166  LYS551  ARG553  GLY616  TRP617  ASP618  TYR619  PRO620  LYS621  CYS622 
 ASP623  PHE694  ASN695  SER759  ASP760  ASP761  ALA762  ILE779  LEU786  VAL792 
 PHE793  MET794  SER795  GLU796  ALA797  LYS798  CYS799  TRP800  GLU811  SER814 

> <Gold.Protein.RotatedAtoms>
  151.6946  135.0940  160.0239 H   0  0  0  0  0  0  0  0  0  0  0  0  # atno 6907 bound_to 6896
  152.3758  133.6475  159.6131 H   0  0  0  0  0  0  0  0  0  0  0  0  # atno 6908 bound_to 6896
  150.7708  133.9112  159.3411 H   0  0  0  0  0  0  0  0  0  0  0  0  # atno 6909 bound_to 6896
  146.2346  140.2068  142.8334 H   0  0  0  0  0  0  0  0  0  0  0  0  # atno 7974 bound_to 7965
  156.1889  140.1700  156.8132 H   0  0  0  0  0  0  0  0  0  0  0  0  # atno 8008 bound_to 7997
  154.5447  140.0729  156.8601 H   0  0  0  0  0  0  0  0  0  0  0  0  # atno 8009 bound_to 7997
  155.3146  140.3369  155.4245 H   0  0  0  0  0  0  0  0  0  0  0  0  # atno 8010 bound_to 7997
  140.4210  144.1459  150.6148 H   0  0  0  0  0  0  0  0  0  0  0  0  # atno 10167 bound_to 10162
  156.9224  130.9945  151.3002 H   0  0  0  0  0  0  0  0  0  0  0  0  # atno 10718 bound_to 10713
  153.8575  135.3071  155.3436 H   0  0  0  0  0  0  0  0  0  0  0  0  # atno 10763 bound_to 10752
  154.7864  135.4807  153.9957 H   0  0  0  0  0  0  0  0  0  0  0  0  # atno 10764 bound_to 10752
  153.1481  135.6837  153.9017 H   0  0  0  0  0  0  0  0  0  0  0  0  # atno 10765 bound_to 10752
  139.9033  134.8139  156.2299 H   0  0  0  0  0  0  0  0  0  0  0  0  # atno 11005 bound_to 11000
  144.9738  140.8394  143.5439 LP  0  0  0  0  0  0  0  0  0  0  0  0  # atno 17320 bound_to 7965
  145.2053  139.2232  143.5171 LP  0  0  0  0  0  0  0  0  0  0  0  0  # atno 17321 bound_to 7965
  140.4533  143.2478  151.9318 LP  0  0  0  0  0  0  0  0  0  0  0  0  # atno 17342 bound_to 10162
  139.4782  144.5540  151.8342 LP  0  0  0  0  0  0  0  0  0  0  0  0  # atno 17343 bound_to 10162
  157.5899  130.8436  149.8644 LP  0  0  0  0  0  0  0  0  0  0  0  0  # atno 17370 bound_to 10713
  156.0485  130.3723  150.1259 LP  0  0  0  0  0  0  0  0  0  0  0  0  # atno 17371 bound_to 10713
  141.0352  133.6967  156.1500 LP  0  0  0  0  0  0  0  0  0  0  0  0  # atno 17394 bound_to 11000
  140.7037  134.4536  157.5585 LP  0  0  0  0  0  0  0  0  0  0  0  0  # atno 17395 bound_to 11000

$$$$
