AV-unprocessed.smi:2237|AV-procd|sdf|9051|dock7
  -GOLD-   2272012253D 1   1.00000     0.00000
 Structure written by MMmdl.
 54 56  0  0  0  0  0  0  0  0  2 V2000
  153.7222  143.1900  163.7518 C   0  0  0  0  0  0  0  0  0  0  0  0
  154.0006  142.0532  162.7909 C   0  0  0  0  0  0  0  0  0  0  0  0
  154.8067  140.9625  163.1720 C   0  0  0  0  0  0  0  0  0  0  0  0
  155.0233  139.9386  162.2326 C   0  0  0  0  0  0  0  0  0  0  0  0
  154.4284  140.0461  160.9608 C   0  0  0  0  0  0  0  0  0  0  0  0
  153.6324  141.1739  160.6585 C   0  0  0  0  0  0  0  0  0  0  0  0
  153.0747  141.1832  159.3527 N   0  0  0  0  0  0  0  0  0  0  0  0
  151.9036  141.7080  158.9512 C   0  0  0  0  0  0  0  0  0  0  0  0
  151.1086  142.3140  159.6706 O   0  0  0  0  0  0  0  0  0  0  0  0
  151.7013  141.4929  157.6432 N   0  0  0  0  0  0  0  0  0  0  0  0
  150.5278  141.9240  156.8893 C   0  0  0  0  0  0  0  0  0  0  0  0
  149.2538  141.5668  157.6591 C   0  0  0  0  0  0  0  0  0  0  0  0
  147.9952  141.8907  156.8362 C   0  0  0  0  0  0  0  0  0  0  0  0
  147.9776  141.1594  155.5583 N   0  0  0  0  0  0  0  0  0  0  0  0
  146.7270  141.3951  154.8000 C   0  0  2  0  0  0  0  0  0  0  0  0
  145.5180  140.5638  155.3027 C   0  0  0  0  0  0  0  0  0  0  0  0
  145.6986  139.0608  155.0233 C   0  0  0  0  0  0  0  0  0  0  0  0
  145.8978  138.8064  153.5754 N   0  3  2  0  0  0  0  0  0  0  0  0
  145.9939  137.3639  153.2656 C   0  0  0  0  0  0  0  0  0  0  0  0
  147.0340  139.5813  153.0193 C   0  0  0  0  0  0  0  0  0  0  0  0
  146.8621  141.0877  153.2861 C   0  0  0  0  0  0  0  0  0  0  0  0
  149.1609  141.5735  154.7851 C   0  0  0  0  0  0  0  0  0  0  0  0
  150.4699  141.2368  155.5200 C   0  0  0  0  0  0  0  0  0  0  0  0
  153.4299  142.1565  161.5712 N   0  0  0  0  0  0  0  0  0  0  0  0
  154.3467  143.1167  164.6427 H   0  0  0  0  0  0  0  0  0  0  0  0
  152.6778  143.1723  164.0639 H   0  0  0  0  0  0  0  0  0  0  0  0
  153.9223  144.1502  163.2754 H   0  0  0  0  0  0  0  0  0  0  0  0
  155.2482  140.9087  164.1563 H   0  0  0  0  0  0  0  0  0  0  0  0
  155.6345  139.0841  162.4824 H   0  0  0  0  0  0  0  0  0  0  0  0
  154.5839  139.2674  160.2283 H   0  0  0  0  0  0  0  0  0  0  0  0
  153.6289  140.7288  158.6423 H   0  0  0  0  0  0  0  0  0  0  0  0
  152.4089  140.9873  157.1307 H   0  0  0  0  0  0  0  0  0  0  0  0
  150.5588  143.0065  156.7505 H   0  0  0  0  0  0  0  0  0  0  0  0
  149.2534  140.5059  157.9145 H   0  0  0  0  0  0  0  0  0  0  0  0
  149.2251  142.1118  158.6034 H   0  0  0  0  0  0  0  0  0  0  0  0
  147.1508  141.6108  157.4607 H   0  0  0  0  0  0  0  0  0  0  0  0
  147.9230  142.9645  156.6560 H   0  0  0  0  0  0  0  0  0  0  0  0
  146.4772  142.4512  154.9138 H   0  0  0  0  0  0  0  0  0  0  0  0
  145.2810  140.7401  156.3499 H   0  0  0  0  0  0  0  0  0  0  0  0
  144.6257  140.9021  154.7738 H   0  0  0  0  0  0  0  0  0  0  0  0
  146.5484  138.6719  155.5868 H   0  0  0  0  0  0  0  0  0  0  0  0
  144.8170  138.5187  155.3673 H   0  0  0  0  0  0  0  0  0  0  0  0
  146.8668  136.9181  153.7444 H   0  0  0  0  0  0  0  0  0  0  0  0
  146.0753  137.2050  152.1897 H   0  0  0  0  0  0  0  0  0  0  0  0
  145.1056  136.8356  153.6134 H   0  0  0  0  0  0  0  0  0  0  0  0
  147.9706  139.2250  153.4514 H   0  0  0  0  0  0  0  0  0  0  0  0
  147.0961  139.4083  151.9442 H   0  0  0  0  0  0  0  0  0  0  0  0
  145.9512  141.4196  152.7858 H   0  0  0  0  0  0  0  0  0  0  0  0
  147.6506  141.6562  152.7986 H   0  0  0  0  0  0  0  0  0  0  0  0
  149.2108  141.0581  153.8299 H   0  0  0  0  0  0  0  0  0  0  0  0
  149.1117  142.6419  154.5688 H   0  0  0  0  0  0  0  0  0  0  0  0
  151.3205  141.5442  154.9105 H   0  0  0  0  0  0  0  0  0  0  0  0
  150.5503  140.1552  155.6385 H   0  0  0  0  0  0  0  0  0  0  0  0
  145.0678  139.1446  153.1094 H   0  0  0  0  0  0  0  0  0  0  0  0
  1  2  1  0  0  0  0
  1 25  1  0  0  0  0
  1 26  1  0  0  0  0
  1 27  1  0  0  0  0
  2 24  1  0  0  0  0
  2  3  2  0  0  0  0
  3  4  1  0  0  0  0
  3 28  1  0  0  0  0
  4  5  2  0  0  0  0
  4 29  1  0  0  0  0
  5  6  1  0  0  0  0
  5 30  1  0  0  0  0
  6  7  1  0  0  0  0
  6 24  2  0  0  0  0
  7  8  1  0  0  0  0
  7 31  1  0  0  0  0
  8  9  2  0  0  0  0
  8 10  1  0  0  0  0
 10 11  1  0  0  0  0
 10 32  1  0  0  0  0
 11 23  1  0  0  0  0
 11 12  1  0  0  0  0
 11 33  1  0  0  0  0
 12 13  1  0  0  0  0
 12 34  1  0  0  0  0
 12 35  1  0  0  0  0
 13 14  1  0  0  0  0
 13 36  1  0  0  0  0
 13 37  1  0  0  0  0
 14 15  1  0  0  0  0
 14 22  1  0  0  0  0
 15 21  1  0  0  0  0
 15 16  1  0  0  0  0
 15 38  1  0  0  0  0
 16 17  1  0  0  0  0
 16 39  1  0  0  0  0
 16 40  1  0  0  0  0
 17 18  1  0  0  0  0
 17 41  1  0  0  0  0
 17 42  1  0  0  0  0
 18 19  1  0  0  0  0
 18 20  1  0  0  0  0
 18 54  1  0  0  0  0
 19 43  1  0  0  0  0
 19 44  1  0  0  0  0
 19 45  1  0  0  0  0
 20 21  1  0  0  0  0
 20 46  1  0  0  0  0
 20 47  1  0  0  0  0
 21 48  1  0  0  0  0
 21 49  1  0  0  0  0
 22 23  1  0  0  0  0
 22 50  1  0  0  0  0
 22 51  1  0  0  0  0
 23 52  1  0  0  0  0
 23 53  1  0  0  0  0
M  CHG  1  18   1
M  END
> <s_m_source_file>
AV-unprocessed.smi

> <i_m_source_file_index>
2237

> <i_lp_mmshare_version>
43012

> <i_f3d_flags>
0

> <s_epik_input>
W0NIM11jMVtjSF1bY0hdW2NIXWMobjEpW05IXUMoPU8pW05IXVtDSF0yW0NIMl1bQ0gyXU4oW0NIMl1bQ0gyXTIpW0NIXTNbQ0gyXVtDSDJdTihbQ0gzXSlbQ0gyXVtDSDJdMw==

> <s_epik_cmdline>
J2VwaWtfcHl0aG9uJywgJy1waCcsICc3LjAnLCAnLXRuJywgJzgnLCAnLW1hJywgJzIwMCcsICctbWV0YWxfYmluZGluZycsICctaW1hZScsICc8aW5maWxlLm1hZT4nLCAnLW9tYWUnLCAnPG91dGZpbGUubWFlPic=

> <r_epik_Ionization_Penalty>
1.00983

> <r_epik_Ionization_Penalty_Charging>
0.000974969

> <r_epik_Ionization_Penalty_Neutral>
1.00886

> <r_epik_State_Penalty>
1.10286

> <r_epik_Charging_Adjusted_Penalty>
1.10383

> <i_epik_Tot_Q>
1

> <i_epik_Tot_abs_Q>
1

> <r_epik_Metal_State_Penalty>
1.10284

> <b_epik_Metal_Only>
0

> <s_lp_Force_Field>
OPLS_2005

> <r_lp_Energy>
36.6088

> <b_lp_Chiralities_Consistent>
1

> <s_lp_Variant>
AV-unprocessed.smi:2237-6

> <Gold.Version>
5.8.1

> <Gold.Id.Protein>
6NUR|6NUR_protein|mol2

> <Gold.PLP.Fitness>
41.6637

> <Gold.PLP.PLP>
-37.1647

> <Gold.PLP.part.hbond>
-2.0000

> <Gold.PLP.part.metal>
0.0000

> <Gold.PLP.part.buried>
-0.9223

> <Gold.PLP.part.nonpolar>
-33.4312

> <Gold.PLP.part.repulsive>
0.2660

> <Gold.PLP.ligand.clash>
0.0000

> <Gold.PLP.ligand.torsion>
0.7513

> <Gold.PLP.Chemscore.Hbond>
2.0000

> <Gold.PLP.Chemscore.CHOScore>
0.0000

> <Gold.PLP.Chemscore.Metal>
0.0000

> <Gold.Chemscore.Hbonds>
donor molecule, donor type, donor heavy atom, donor atom, acceptor molecule, acceptor atom, score
      L1  H    18    54       P1 10175  2.00

> <Gold.PLP.Chemscore.Internal.Correction>
0.0018

> <Gold.Rescore>
     Score         DG    S(hbond)    S(metal)    S(lipo)     H(rot)  DE(clash)    DE(int)     intcor
     14.14     -17.77       0.98        0.00     103.70       1.22       0.58       3.05       ----

> <Gold.Chemscore.Fitness>
14.1355

> <Gold.Chemscore.DG>
-17.7698

> <Gold.Chemscore.ZeroCoef>
-5.4800

> <Gold.Chemscore.Hbond>
0.9804

> <Gold.Chemscore.Metal>
0.0000

> <Gold.Chemscore.Lipo>
103.7002

> <Gold.Chemscore.Internal_Hbond>
0.0000

> <Gold.Chemscore.DEClash>
0.5794

> <Gold.Chemscore.DEInternal>
3.0548

> <Gold.Chemscore.Rot>
1.2179

> <Gold.Chemscore.Internal.Correction>
   9.000000E+99

> <Gold.Chemscore.Hbonds>
donor molecule, donor type, donor heavy atom, donor atom, acceptor molecule, acceptor atom, score
      L1  H    18    54       P1 10175  0.94

> <Gold.Chemscore.Hbond.Weighted>
-3.2746

> <Gold.Chemscore.Metal.Weighted>
-0.0000

> <Gold.Chemscore.Lipo.Weighted>
-12.1329

> <Gold.Chemscore.Internal_Hbond.Weighted>
0.0000

> <Gold.Chemscore.DEClash.Weighted>
0.5794

> <Gold.Chemscore.DEInternal.Weighted>
3.0548

> <Gold.Chemscore.Rot.Weighted>
3.1177

> <Gold.Chemscore.Internal.Correction.Weighted>
   9.000000E+99

> <Gold.Protein.RotatedTorsions>
[ 6907 6896 6895 6894 ] final   20.19 input  -60.11 | X-H torsion
[ 7974 7965 7964 7962 ] final  -92.67 input  175.53 | X-H torsion
[ 8008 7997 7996 7995 ] final  140.34 input   59.86 | X-H torsion
[ 10167 10162 10161 10158 ] final -172.86 input  -65.29 | X-H torsion
[ 10718 10713 10712 10709 ] final  126.76 input   66.30 | X-H torsion
[ 10763 10752 10751 10750 ] final -176.12 input  -60.55 | X-H torsion
[ 11005 11000 10999 10996 ] final  172.42 input  -57.11 | X-H torsion

> <Gold.Protein.ActiveResidues>
 VAL166  LYS551  ARG553  GLY616  TRP617  ASP618  TYR619  PRO620  LYS621  CYS622 
 ASP623  PHE694  ASN695  SER759  ASP760  ASP761  ALA762  ILE779  LEU786  VAL792 
 PHE793  MET794  SER795  GLU796  ALA797  LYS798  CYS799  TRP800  GLU811  SER814 

> <Gold.Protein.RotatedAtoms>
  151.8926  135.0410  160.0498 H   0  0  0  0  0  0  0  0  0  0  0  0  # atno 6907 bound_to 6896
  152.2423  133.5141  159.5286 H   0  0  0  0  0  0  0  0  0  0  0  0  # atno 6908 bound_to 6896
  150.7057  134.0988  159.4001 H   0  0  0  0  0  0  0  0  0  0  0  0  # atno 6909 bound_to 6896
  145.3968  140.9533  143.2309 H   0  0  0  0  0  0  0  0  0  0  0  0  # atno 7974 bound_to 7965
  156.2980  140.2344  156.4385 H   0  0  0  0  0  0  0  0  0  0  0  0  # atno 8008 bound_to 7997
  154.8206  140.0438  157.1429 H   0  0  0  0  0  0  0  0  0  0  0  0  # atno 8009 bound_to 7997
  154.9319  140.3018  155.5167 H   0  0  0  0  0  0  0  0  0  0  0  0  # atno 8010 bound_to 7997
  139.5720  144.1619  152.1398 H   0  0  0  0  0  0  0  0  0  0  0  0  # atno 10167 bound_to 10162
  157.5392  131.1097  150.8886 H   0  0  0  0  0  0  0  0  0  0  0  0  # atno 10718 bound_to 10713
  154.5761  135.2832  155.0779 H   0  0  0  0  0  0  0  0  0  0  0  0  # atno 10763 bound_to 10752
  154.2133  135.6404  153.5125 H   0  0  0  0  0  0  0  0  0  0  0  0  # atno 10764 bound_to 10752
  153.0073  135.5497  154.6400 H   0  0  0  0  0  0  0  0  0  0  0  0  # atno 10765 bound_to 10752
  140.3295  134.7369  157.4124 H   0  0  0  0  0  0  0  0  0  0  0  0  # atno 11005 bound_to 11000
  144.8402  139.5485  143.6904 LP  0  0  0  0  0  0  0  0  0  0  0  0  # atno 17320 bound_to 7965
  146.2771  139.6781  142.9255 LP  0  0  0  0  0  0  0  0  0  0  0  0  # atno 17321 bound_to 7965
  140.1154  144.5421  150.6898 LP  0  0  0  0  0  0  0  0  0  0  0  0  # atno 17342 bound_to 10162
  140.7004  143.2431  151.4879 LP  0  0  0  0  0  0  0  0  0  0  0  0  # atno 17343 bound_to 10162
  156.9444  130.5396  149.5281 LP  0  0  0  0  0  0  0  0  0  0  0  0  # atno 17370 bound_to 10713
  156.0483  130.5556  150.8931 LP  0  0  0  0  0  0  0  0  0  0  0  0  # atno 17371 bound_to 10713
  140.0873  134.5649  155.8480 LP  0  0  0  0  0  0  0  0  0  0  0  0  # atno 17394 bound_to 11000
  141.2067  133.6657  156.6258 LP  0  0  0  0  0  0  0  0  0  0  0  0  # atno 17395 bound_to 11000

$$$$
