AV-unprocessed.smi:290|AV-procd|sdf|2233|dock4
  -GOLD-   2262022 93D 1   1.00000     0.00000
 Structure written by MMmdl.
 59 62  0  0  0  0  0  0  0  0  2 V2000
  152.2171  144.3456  158.3601 C   0  0  0  0  0  0  0  0  0  0  0  0
  151.5810  143.0404  158.8657 C   0  0  2  0  0  0  0  0  0  0  0  0
  152.6151  142.1811  159.3355 O   0  0  0  0  0  0  0  0  0  0  0  0
  152.1885  140.8390  159.1899 C   0  0  0  0  0  0  0  0  0  0  0  0
  151.4971  140.8655  157.8349 C   0  0  0  0  0  0  0  0  0  0  0  0
  150.7687  142.2110  157.8293 C   0  0  2  0  0  0  0  0  0  0  0  0
  150.8615  142.7503  156.5219 O   0  0  0  0  0  0  0  0  0  0  0  0
  149.2481  142.1226  158.1456 C   0  0  0  0  0  0  0  0  0  0  0  0
  148.4375  141.4389  157.1455 N   0  0  0  0  0  0  0  0  0  0  0  0
  147.7603  142.0140  156.0919 C   0  0  0  0  0  0  0  0  0  0  0  0
  147.1034  141.1839  155.3283 N   0  0  0  0  0  0  0  0  0  0  0  0
  147.3667  139.9377  155.8828 C   0  0  0  0  0  0  0  0  0  0  0  0
  146.9837  138.6055  155.5595 C   0  0  0  0  0  0  0  0  0  0  0  0
  146.1857  138.2641  154.5244 N   0  0  0  0  0  0  0  0  0  0  0  0
  146.5011  138.9163  153.2620 C   0  0  0  0  0  0  0  0  0  0  0  0
  146.6360  137.8038  152.2292 C   0  0  0  0  0  0  0  0  0  0  0  0
  145.7983  136.6487  152.7956 C   0  0  1  0  0  0  0  0  0  0  0  0
  146.2341  135.3414  152.2147 N   0  3  1  0  0  0  0  0  0  0  0  0
  145.8714  134.1438  153.0098 C   0  0  0  0  0  0  0  0  0  0  0  0
  145.8360  135.1864  150.7888 C   0  0  0  0  0  0  0  0  0  0  0  0
  144.3123  135.2767  150.6048 C   0  0  0  0  0  0  0  0  0  0  0  0
  143.9555  134.8480  149.3072 O   0  0  0  0  0  0  0  0  0  0  0  0
  146.0210  136.8262  154.3179 C   0  0  2  0  0  0  0  0  0  0  0  0
  144.8728  136.3157  155.2131 C   0  0  0  0  0  0  0  0  0  0  0  0
  147.4559  137.5997  156.3344 N   0  0  0  0  0  0  0  0  0  0  0  0
  148.2576  137.8750  157.3673 C   0  0  0  0  0  0  0  0  0  0  0  0
  148.6969  139.0626  157.7896 N   0  0  0  0  0  0  0  0  0  0  0  0
  148.2169  140.0776  157.0149 C   0  0  0  0  0  0  0  0  0  0  0  0
  144.7440  136.8192  152.5688 H   0  0  0  0  0  0  0  0  0  0  0  0
  146.9457  136.3210  154.6009 H   0  0  0  0  0  0  0  0  0  0  0  0
  151.4586  145.0381  157.9945 H   0  0  0  0  0  0  0  0  0  0  0  0
  152.9247  144.1587  157.5517 H   0  0  0  0  0  0  0  0  0  0  0  0
  152.7604  144.8457  159.1618 H   0  0  0  0  0  0  0  0  0  0  0  0
  150.9591  143.2848  159.7240 H   0  0  0  0  0  0  0  0  0  0  0  0
  153.0278  140.1444  159.2210 H   0  0  0  0  0  0  0  0  0  0  0  0
  151.4960  140.5787  159.9913 H   0  0  0  0  0  0  0  0  0  0  0  0
  152.2681  140.8453  157.0626 H   0  0  0  0  0  0  0  0  0  0  0  0
  150.8520  140.0066  157.6597 H   0  0  0  0  0  0  0  0  0  0  0  0
  150.0890  143.2687  156.3551 H   0  0  0  0  0  0  0  0  0  0  0  0
  149.0980  141.6209  159.1029 H   0  0  0  0  0  0  0  0  0  0  0  0
  148.8377  143.1262  158.2678 H   0  0  0  0  0  0  0  0  0  0  0  0
  147.7661  143.0778  155.9034 H   0  0  0  0  0  0  0  0  0  0  0  0
  145.6663  139.5691  153.0051 H   0  0  0  0  0  0  0  0  0  0  0  0
  147.3987  139.5354  153.3032 H   0  0  0  0  0  0  0  0  0  0  0  0
  146.3186  138.1323  151.2396 H   0  0  0  0  0  0  0  0  0  0  0  0
  147.6839  137.5064  152.1607 H   0  0  0  0  0  0  0  0  0  0  0  0
  144.7923  134.0838  153.1567 H   0  0  0  0  0  0  0  0  0  0  0  0
  146.3656  134.1495  153.9807 H   0  0  0  0  0  0  0  0  0  0  0  0
  146.1874  133.2277  152.5119 H   0  0  0  0  0  0  0  0  0  0  0  0
  146.3336  135.9505  150.1896 H   0  0  0  0  0  0  0  0  0  0  0  0
  146.1738  134.2345  150.3798 H   0  0  0  0  0  0  0  0  0  0  0  0
  143.7762  134.6836  151.3452 H   0  0  0  0  0  0  0  0  0  0  0  0
  143.9826  136.3088  150.7268 H   0  0  0  0  0  0  0  0  0  0  0  0
  143.0124  134.8386  149.2382 H   0  0  0  0  0  0  0  0  0  0  0  0
  144.7090  135.2442  155.1310 H   0  0  0  0  0  0  0  0  0  0  0  0
  143.9332  136.8105  154.9654 H   0  0  0  0  0  0  0  0  0  0  0  0
  145.0799  136.5183  156.2642 H   0  0  0  0  0  0  0  0  0  0  0  0
  148.5944  137.0219  157.9380 H   0  0  0  0  0  0  0  0  0  0  0  0
  147.2440  135.3763  152.2145 H   0  0  0  0  0  0  0  0  0  0  0  0
  1  2  1  0  0  0  0
  1 31  1  0  0  0  0
  1 32  1  0  0  0  0
  1 33  1  0  0  0  0
  2  6  1  0  0  0  0
  2  3  1  0  0  0  0
  2 34  1  0  0  0  0
  3  4  1  0  0  0  0
  4  5  1  0  0  0  0
  4 35  1  0  0  0  0
  4 36  1  0  0  0  0
  5  6  1  0  0  0  0
  5 37  1  0  0  0  0
  5 38  1  0  0  0  0
  6  7  1  0  0  0  0
  6  8  1  0  0  0  0
  7 39  1  0  0  0  0
  8  9  1  0  0  0  0
  8 40  1  0  0  0  0
  8 41  1  0  0  0  0
  9 28  1  0  0  0  0
  9 10  1  0  0  0  0
 10 11  2  0  0  0  0
 10 42  1  0  0  0  0
 11 12  1  0  0  0  0
 12 28  2  0  0  0  0
 12 13  1  0  0  0  0
 13 14  1  0  0  0  0
 13 25  2  0  0  0  0
 14 23  1  0  0  0  0
 14 15  1  0  0  0  0
 15 16  1  0  0  0  0
 15 43  1  0  0  0  0
 15 44  1  0  0  0  0
 16 17  1  0  0  0  0
 16 45  1  0  0  0  0
 16 46  1  0  0  0  0
 17 29  1  0  0  0  0
 17 18  1  0  0  0  0
 17 23  1  0  0  0  0
 18 19  1  0  0  0  0
 18 20  1  0  0  0  0
 18 59  1  0  0  0  0
 19 47  1  0  0  0  0
 19 48  1  0  0  0  0
 19 49  1  0  0  0  0
 20 21  1  0  0  0  0
 20 50  1  0  0  0  0
 20 51  1  0  0  0  0
 21 22  1  0  0  0  0
 21 52  1  0  0  0  0
 21 53  1  0  0  0  0
 22 54  1  0  0  0  0
 23 30  1  0  0  0  0
 23 24  1  0  0  0  0
 24 55  1  0  0  0  0
 24 56  1  0  0  0  0
 24 57  1  0  0  0  0
 25 26  1  0  0  0  0
 26 27  2  0  0  0  0
 26 58  1  0  0  0  0
 27 28  1  0  0  0  0
M  CHG  1  18   1
M  END
> <s_m_source_file>
AV-unprocessed.smi

> <i_m_source_file_index>
290

> <i_lp_mmshare_version>
43012

> <i_f3d_flags>
0

> <s_epik_input>
W0NIMl0xW0NIMl1PW0NAQEhdKFtDSDNdKVtDQEBdMShbT0hdKVtDSDJdbihbY0hdbjIpYyhjMjMpbltjSF1uYzNONFtDSDJdW0NIMl1bQ0BIXShbQ0BIXTRbQ0gzXSlOKFtDSDNdKVtDSDJdW0NIMl1bT0hd

> <s_epik_cmdline>
J2VwaWtfcHl0aG9uJywgJy1waCcsICc3LjAnLCAnLXRuJywgJzgnLCAnLW1hJywgJzIwMCcsICctbWV0YWxfYmluZGluZycsICctaW1hZScsICc8aW5maWxlLm1hZT4nLCAnLW9tYWUnLCAnPG91dGZpbGUubWFlPic=

> <r_lp_tautomer_probability>
1

> <r_epik_Ionization_Penalty>
0.0036983

> <r_epik_Ionization_Penalty_Charging>
0.0032725

> <r_epik_Ionization_Penalty_Neutral>
0.000425798

> <r_epik_State_Penalty>
-0

> <r_epik_Charging_Adjusted_Penalty>
0.0032725

> <i_epik_Tot_Q>
1

> <i_epik_Tot_abs_Q>
1

> <r_epik_Metal_State_Penalty>
-0

> <b_epik_Metal_Only>
0

> <s_lp_Force_Field>
OPLS_2005

> <r_lp_Energy>
66.0364

> <b_lp_Chiralities_Consistent>
1

> <s_lp_Variant>
AV-unprocessed.smi:290-19

> <Gold.Version>
5.8.1

> <Gold.Id.Protein>
6NUR|6NUR_protein|mol2

> <Gold.PLP.Fitness>
45.5826

> <Gold.PLP.PLP>
-32.0334

> <Gold.PLP.part.hbond>
-4.0000

> <Gold.PLP.part.metal>
0.0000

> <Gold.PLP.part.buried>
-2.5678

> <Gold.PLP.part.nonpolar>
-25.6056

> <Gold.PLP.part.repulsive>
0.1806

> <Gold.PLP.ligand.clash>
0.0000

> <Gold.PLP.ligand.torsion>
0.8759

> <Gold.PLP.Chemscore.Hbond>
4.0000

> <Gold.PLP.Chemscore.CHOScore>
1.0000

> <Gold.PLP.Chemscore.Metal>
0.0000

> <Gold.Chemscore.Hbonds>
donor molecule, donor type, donor heavy atom, donor atom, acceptor molecule, acceptor atom, score
      L1  H     7    39       P1  8028  1.00
      L1  H    18    59       P1  7948  2.00
      L1  H    22    54       P1 10186  0.94
      L1  C    10    42       P1  8028  0.86

> <Gold.PLP.Chemscore.Internal.Correction>
0.3009

> <Gold.Rescore>
     Score         DG    S(hbond)    S(metal)    S(lipo)     H(rot)  DE(clash)    DE(int)     intcor
     13.01     -15.11       2.86        0.00      80.81       3.67       1.20       0.91       ----

> <Gold.Chemscore.Fitness>
13.0056

> <Gold.Chemscore.DG>
-15.1124

> <Gold.Chemscore.ZeroCoef>
-5.4800

> <Gold.Chemscore.Hbond>
2.8630

> <Gold.Chemscore.Metal>
0.0000

> <Gold.Chemscore.Lipo>
80.8073

> <Gold.Chemscore.Internal_Hbond>
0.0000

> <Gold.Chemscore.DEClash>
1.2015

> <Gold.Chemscore.DEInternal>
0.9053

> <Gold.Chemscore.Rot>
3.6658

> <Gold.Chemscore.Internal.Correction>
   9.000000E+99

> <Gold.Chemscore.Hbonds>
donor molecule, donor type, donor heavy atom, donor atom, acceptor molecule, acceptor atom, score
      L1  H     7    39       P1  8028  0.96
      L1  H    18    59       P1  7948  0.97
      L1  H    22    54       P1 10186  0.83

> <Gold.Chemscore.Hbond.Weighted>
-9.5623

> <Gold.Chemscore.Metal.Weighted>
-0.0000

> <Gold.Chemscore.Lipo.Weighted>
-9.4545

> <Gold.Chemscore.Internal_Hbond.Weighted>
0.0000

> <Gold.Chemscore.DEClash.Weighted>
1.2015

> <Gold.Chemscore.DEInternal.Weighted>
0.9053

> <Gold.Chemscore.Rot.Weighted>
9.3844

> <Gold.Chemscore.Internal.Correction.Weighted>
   9.000000E+99

> <Gold.Protein.RotatedTorsions>
[ 6907 6896 6895 6894 ] final -153.00 input  -60.11 | X-H torsion
[ 7974 7965 7964 7962 ] final  -42.64 input  175.53 | X-H torsion
[ 8008 7997 7996 7995 ] final  135.41 input   59.86 | X-H torsion
[ 10167 10162 10161 10158 ] final  109.63 input  -65.29 | X-H torsion
[ 10718 10713 10712 10709 ] final -149.10 input   66.30 | X-H torsion
[ 10763 10752 10751 10750 ] final -148.55 input  -60.55 | X-H torsion
[ 11005 11000 10999 10996 ] final   32.22 input  -57.11 | X-H torsion

> <Gold.Protein.ActiveResidues>
 VAL166  LYS551  ARG553  GLY616  TRP617  ASP618  TYR619  PRO620  LYS621  CYS622 
 ASP623  PHE694  ASN695  SER759  ASP760  ASP761  ALA762  ILE779  LEU786  VAL792 
 PHE793  MET794  SER795  GLU796  ALA797  LYS798  CYS799  TRP800  GLU811  SER814 

> <Gold.Protein.RotatedAtoms>
  151.2361  133.4424  159.2605 H   0  0  0  0  0  0  0  0  0  0  0  0  # atno 6907 bound_to 6896
  151.0749  134.9822  159.8337 H   0  0  0  0  0  0  0  0  0  0  0  0  # atno 6908 bound_to 6896
  152.5417  134.2304  159.8875 H   0  0  0  0  0  0  0  0  0  0  0  0  # atno 6909 bound_to 6896
  146.0097  140.6979  142.9230 H   0  0  0  0  0  0  0  0  0  0  0  0  # atno 7974 bound_to 7965
  156.3003  140.2471  156.3576 H   0  0  0  0  0  0  0  0  0  0  0  0  # atno 8008 bound_to 7997
  154.8907  140.0409  157.1856 H   0  0  0  0  0  0  0  0  0  0  0  0  # atno 8009 bound_to 7997
  154.8601  140.2919  155.5548 H   0  0  0  0  0  0  0  0  0  0  0  0  # atno 8010 bound_to 7997
  139.6752  144.7122  151.1615 H   0  0  0  0  0  0  0  0  0  0  0  0  # atno 10167 bound_to 10162
  156.4288  130.8065  151.2291 H   0  0  0  0  0  0  0  0  0  0  0  0  # atno 10718 bound_to 10713
  154.8227  135.3332  154.6991 H   0  0  0  0  0  0  0  0  0  0  0  0  # atno 10763 bound_to 10752
  153.7621  135.6932  153.4928 H   0  0  0  0  0  0  0  0  0  0  0  0  # atno 10764 bound_to 10752
  153.2103  135.4484  155.0321 H   0  0  0  0  0  0  0  0  0  0  0  0  # atno 10765 bound_to 10752
  140.2757  134.3030  155.7815 H   0  0  0  0  0  0  0  0  0  0  0  0  # atno 11005 bound_to 11000
  144.6948  140.3376  143.7205 LP  0  0  0  0  0  0  0  0  0  0  0  0  # atno 17320 bound_to 7965
  145.7361  139.1750  143.2402 LP  0  0  0  0  0  0  0  0  0  0  0  0  # atno 17321 bound_to 7965
  140.7633  143.5783  150.8922 LP  0  0  0  0  0  0  0  0  0  0  0  0  # atno 17342 bound_to 10162
  139.9451  143.6336  152.3043 LP  0  0  0  0  0  0  0  0  0  0  0  0  # atno 17343 bound_to 10162
  157.7508  131.0205  150.3710 LP  0  0  0  0  0  0  0  0  0  0  0  0  # atno 17370 bound_to 10713
  156.4043  130.3922  149.6937 LP  0  0  0  0  0  0  0  0  0  0  0  0  # atno 17371 bound_to 10713
  141.2170  133.7494  156.9404 LP  0  0  0  0  0  0  0  0  0  0  0  0  # atno 17394 bound_to 11000
  140.1330  134.9343  157.2364 LP  0  0  0  0  0  0  0  0  0  0  0  0  # atno 17395 bound_to 11000

$$$$
