AV-unprocessed.smi:861|AV-procd|sdf|3967|dock7
  -GOLD-   22720 1443D 1   1.00000     0.00000
 Structure written by MMmdl.
 44 45  0  0  0  0  0  0  0  0  2 V2000
  145.4701  134.1342  150.7937 C   0  0  0  0  0  0  0  0  0  0  0  0
  146.0925  132.7624  150.4929 C   0  0  0  0  0  0  0  0  0  0  0  0
  145.4199  132.1282  149.2636 C   0  0  0  0  0  0  0  0  0  0  0  0
  146.0283  131.8496  151.7349 C   0  0  0  0  0  0  0  0  0  0  0  0
  146.7452  132.4281  152.9701 C   0  0  0  0  0  0  0  0  0  0  0  0
  148.1933  132.0889  152.9960 N   0  3  2  0  0  0  0  0  0  0  0  0
  148.5174  130.9476  153.8860 C   0  0  0  0  0  0  0  0  0  0  0  0
  148.5353  131.3828  155.3621 C   0  0  0  0  0  0  0  0  0  0  0  0
  149.4620  132.4484  155.5284 O   0  0  0  0  0  0  0  0  0  0  0  0
  149.1086  133.6048  154.7751 C   0  0  1  0  0  0  0  0  0  0  0  0
  150.1380  134.7027  155.0760 C   0  0  0  0  0  0  0  0  0  0  0  0
  149.6227  136.0269  154.7564 N   0  0  0  0  0  0  0  0  0  0  0  0
  150.4145  137.1665  154.9506 C   0  0  0  0  0  0  0  0  0  0  0  0
  149.8402  138.4384  154.7555 C   0  0  0  0  0  0  0  0  0  0  0  0
  150.6605  139.5621  154.9565 C   0  0  0  0  0  0  0  0  0  0  0  0
  151.9942  139.3277  155.3381 C   0  0  0  0  0  0  0  0  0  0  0  0
  152.4938  138.0832  155.5109 N   0  0  0  0  0  0  0  0  0  0  0  0
  151.7119  137.0150  155.3183 N   0  0  0  0  0  0  0  0  0  0  0  0
  149.0989  133.2336  153.2755 C   0  0  0  0  0  0  0  0  0  0  0  0
  144.4136  134.0436  151.0480 H   0  0  0  0  0  0  0  0  0  0  0  0
  145.5489  134.7993  149.9331 H   0  0  0  0  0  0  0  0  0  0  0  0
  145.9733  134.6214  151.6292 H   0  0  0  0  0  0  0  0  0  0  0  0
  147.1421  132.9326  150.2495 H   0  0  0  0  0  0  0  0  0  0  0  0
  144.3719  131.8990  149.4592 H   0  0  0  0  0  0  0  0  0  0  0  0
  145.9139  131.2047  148.9629 H   0  0  0  0  0  0  0  0  0  0  0  0
  145.4558  132.8022  148.4071 H   0  0  0  0  0  0  0  0  0  0  0  0
  144.9820  131.6829  151.9948 H   0  0  0  0  0  0  0  0  0  0  0  0
  146.4344  130.8718  151.4767 H   0  0  0  0  0  0  0  0  0  0  0  0
  146.6071  133.5063  153.0345 H   0  0  0  0  0  0  0  0  0  0  0  0
  146.2714  132.0074  153.8579 H   0  0  0  0  0  0  0  0  0  0  0  0
  147.8195  130.1241  153.7313 H   0  0  0  0  0  0  0  0  0  0  0  0
  149.5025  130.5676  153.6117 H   0  0  0  0  0  0  0  0  0  0  0  0
  147.5434  131.6864  155.7001 H   0  0  0  0  0  0  0  0  0  0  0  0
  148.8431  130.5492  155.9934 H   0  0  0  0  0  0  0  0  0  0  0  0
  148.1218  133.9569  155.0795 H   0  0  0  0  0  0  0  0  0  0  0  0
  150.4347  134.6641  156.1250 H   0  0  0  0  0  0  0  0  0  0  0  0
  151.0360  134.5316  154.4807 H   0  0  0  0  0  0  0  0  0  0  0  0
  148.6548  136.1267  154.4863 H   0  0  0  0  0  0  0  0  0  0  0  0
  148.8069  138.5525  154.4616 H   0  0  0  0  0  0  0  0  0  0  0  0
  150.2831  140.5650  154.8236 H   0  0  0  0  0  0  0  0  0  0  0  0
  152.6726  140.1506  155.5075 H   0  0  0  0  0  0  0  0  0  0  0  0
  150.1058  132.9457  152.9700 H   0  0  0  0  0  0  0  0  0  0  0  0
  148.8374  134.0981  152.6667 H   0  0  0  0  0  0  0  0  0  0  0  0
  148.4057  131.7757  152.0593 H   0  0  0  0  0  0  0  0  0  0  0  0
  1  2  1  0  0  0  0
  1 20  1  0  0  0  0
  1 21  1  0  0  0  0
  1 22  1  0  0  0  0
  2  3  1  0  0  0  0
  2  4  1  0  0  0  0
  2 23  1  0  0  0  0
  3 24  1  0  0  0  0
  3 25  1  0  0  0  0
  3 26  1  0  0  0  0
  4  5  1  0  0  0  0
  4 27  1  0  0  0  0
  4 28  1  0  0  0  0
  5  6  1  0  0  0  0
  5 29  1  0  0  0  0
  5 30  1  0  0  0  0
  6 19  1  0  0  0  0
  6  7  1  0  0  0  0
  6 44  1  0  0  0  0
  7  8  1  0  0  0  0
  7 31  1  0  0  0  0
  7 32  1  0  0  0  0
  8  9  1  0  0  0  0
  8 33  1  0  0  0  0
  8 34  1  0  0  0  0
  9 10  1  0  0  0  0
 10 11  1  0  0  0  0
 10 19  1  0  0  0  0
 10 35  1  0  0  0  0
 11 12  1  0  0  0  0
 11 36  1  0  0  0  0
 11 37  1  0  0  0  0
 12 13  1  0  0  0  0
 12 38  1  0  0  0  0
 13 18  1  0  0  0  0
 13 14  2  0  0  0  0
 14 15  1  0  0  0  0
 14 39  1  0  0  0  0
 15 16  2  0  0  0  0
 15 40  1  0  0  0  0
 16 17  1  0  0  0  0
 16 41  1  0  0  0  0
 17 18  2  0  0  0  0
 19 42  1  0  0  0  0
 19 43  1  0  0  0  0
M  CHG  1   6   1
M  END
> <s_m_source_file>
AV-unprocessed.smi

> <i_m_source_file_index>
861

> <i_lp_mmshare_version>
43012

> <i_f3d_flags>
0

> <s_epik_input>
W0NIM11bQ0hdKFtDSDNdKVtDSDJdW0NIMl1OMVtDSDJdW0NIMl1PW0NASF0oW0NIMl0xKVtDSDJdW05IXWMyW2NIXVtjSF1bY0hdbm4y

> <s_epik_cmdline>
J2VwaWtfcHl0aG9uJywgJy1waCcsICc3LjAnLCAnLXRuJywgJzgnLCAnLW1hJywgJzIwMCcsICctbWV0YWxfYmluZGluZycsICctaW1hZScsICc8aW5maWxlLm1hZT4nLCAnLW9tYWUnLCAnPG91dGZpbGUubWFlPic=

> <r_lp_tautomer_probability>
0.999978

> <r_epik_Ionization_Penalty>
0.114704

> <r_epik_Ionization_Penalty_Charging>
0.0953451

> <r_epik_Ionization_Penalty_Neutral>
0.0193593

> <r_epik_State_Penalty>
0.104983

> <r_epik_Charging_Adjusted_Penalty>
0.200328

> <i_epik_Tot_Q>
1

> <i_epik_Tot_abs_Q>
1

> <r_epik_Metal_State_Penalty>
0.100113

> <b_epik_Metal_Only>
0

> <s_lp_Force_Field>
OPLS_2005

> <r_lp_Energy>
26.6721

> <b_lp_Chiralities_Consistent>
1

> <s_lp_Variant>
AV-unprocessed.smi:861-2

> <Gold.Version>
5.8.1

> <Gold.Id.Protein>
6NUR|6NUR_protein|mol2

> <Gold.PLP.Fitness>
41.8407

> <Gold.PLP.PLP>
-37.6963

> <Gold.PLP.part.hbond>
-3.8887

> <Gold.PLP.part.metal>
0.0000

> <Gold.PLP.part.buried>
-4.4597

> <Gold.PLP.part.nonpolar>
-29.5382

> <Gold.PLP.part.repulsive>
0.1685

> <Gold.PLP.ligand.clash>
0.0000

> <Gold.PLP.ligand.torsion>
0.9858

> <Gold.PLP.Chemscore.Hbond>
2.0000

> <Gold.PLP.Chemscore.CHOScore>
0.0000

> <Gold.PLP.Chemscore.Metal>
0.0000

> <Gold.Chemscore.Hbonds>
donor molecule, donor type, donor heavy atom, donor atom, acceptor molecule, acceptor atom, score
      L1  H     6    44       P1 10747  0.89
      P1  H 10752 10764       L1    18  1.00

> <Gold.PLP.Chemscore.Internal.Correction>
0.1160

> <Gold.Rescore>
     Score         DG    S(hbond)    S(metal)    S(lipo)     H(rot)  DE(clash)    DE(int)     intcor
     17.28     -18.42       2.00        0.00      91.13       1.71       0.13       1.01       ----

> <Gold.Chemscore.Fitness>
17.2800

> <Gold.Chemscore.DG>
-18.4243

> <Gold.Chemscore.ZeroCoef>
-5.4800

> <Gold.Chemscore.Hbond>
1.9959

> <Gold.Chemscore.Metal>
0.0000

> <Gold.Chemscore.Lipo>
91.1309

> <Gold.Chemscore.Internal_Hbond>
0.0000

> <Gold.Chemscore.DEClash>
0.1299

> <Gold.Chemscore.DEInternal>
1.0143

> <Gold.Chemscore.Rot>
1.7127

> <Gold.Chemscore.Internal.Correction>
   9.000000E+99

> <Gold.Chemscore.Hbonds>
donor molecule, donor type, donor heavy atom, donor atom, acceptor molecule, acceptor atom, score
      L1  H     6    44       P1 10747  0.85
      P1  H 10752 10764       L1    18  0.42

> <Gold.Chemscore.Hbond.Weighted>
-6.6664

> <Gold.Chemscore.Metal.Weighted>
-0.0000

> <Gold.Chemscore.Lipo.Weighted>
-10.6623

> <Gold.Chemscore.Internal_Hbond.Weighted>
0.0000

> <Gold.Chemscore.DEClash.Weighted>
0.1299

> <Gold.Chemscore.DEInternal.Weighted>
1.0143

> <Gold.Chemscore.Rot.Weighted>
4.3844

> <Gold.Chemscore.Internal.Correction.Weighted>
   9.000000E+99

> <Gold.Protein.RotatedTorsions>
[ 6907 6896 6895 6894 ] final -105.42 input  -60.11 | X-H torsion
[ 7974 7965 7964 7962 ] final -105.05 input  175.53 | X-H torsion
[ 8008 7997 7996 7995 ] final   22.12 input   59.86 | X-H torsion
[ 10167 10162 10161 10158 ] final -112.35 input  -65.29 | X-H torsion
[ 10718 10713 10712 10709 ] final   -6.14 input   66.30 | X-H torsion
[ 10763 10752 10751 10750 ] final  -55.58 input  -60.55 | X-H torsion
[ 11005 11000 10999 10996 ] final -130.68 input  -57.11 | X-H torsion

> <Gold.Protein.ActiveResidues>
 VAL166  LYS551  ARG553  GLY616  TRP617  ASP618  TYR619  PRO620  LYS621  CYS622 
 ASP623  PHE694  ASN695  SER759  ASP760  ASP761  ALA762  ILE779  LEU786  VAL792 
 PHE793  MET794  SER795  GLU796  ALA797  LYS798  CYS799  TRP800  GLU811  SER814 

> <Gold.Protein.RotatedAtoms>
  150.7336  134.0129  159.3675 H   0  0  0  0  0  0  0  0  0  0  0  0  # atno 6907 bound_to 6896
  151.8090  135.0684  160.0419 H   0  0  0  0  0  0  0  0  0  0  0  0  # atno 6908 bound_to 6896
  152.3087  133.5693  159.5702 H   0  0  0  0  0  0  0  0  0  0  0  0  # atno 6909 bound_to 6896
  145.2353  140.9186  143.3181 H   0  0  0  0  0  0  0  0  0  0  0  0  # atno 7974 bound_to 7965
  154.9609  140.3078  155.5031 H   0  0  0  0  0  0  0  0  0  0  0  0  # atno 8008 bound_to 7997
  156.2977  140.2301  156.4633 H   0  0  0  0  0  0  0  0  0  0  0  0  # atno 8009 bound_to 7997
  154.7965  140.0436  157.1229 H   0  0  0  0  0  0  0  0  0  0  0  0  # atno 8010 bound_to 7997
  140.1237  143.4421  152.1674 H   0  0  0  0  0  0  0  0  0  0  0  0  # atno 10167 bound_to 10162
  156.7362  130.5195  149.5834 H   0  0  0  0  0  0  0  0  0  0  0  0  # atno 10718 bound_to 10713
  154.1931  135.6424  153.5065 H   0  0  0  0  0  0  0  0  0  0  0  0  # atno 10763 bound_to 10752
  153.0030  135.5433  154.6395 H   0  0  0  0  0  0  0  0  0  0  0  0  # atno 10764 bound_to 10752
  154.5788  135.2923  155.0726 H   0  0  0  0  0  0  0  0  0  0  0  0  # atno 10765 bound_to 10752
  140.9324  134.1301  157.4223 H   0  0  0  0  0  0  0  0  0  0  0  0  # atno 11005 bound_to 11000
  144.9638  139.3951  143.6342 LP  0  0  0  0  0  0  0  0  0  0  0  0  # atno 17320 bound_to 7965
  146.3342  139.8704  142.8841 LP  0  0  0  0  0  0  0  0  0  0  0  0  # atno 17321 bound_to 7965
  139.5555  144.7370  151.4306 LP  0  0  0  0  0  0  0  0  0  0  0  0  # atno 17342 bound_to 10162
  140.6857  143.7979  150.7183 LP  0  0  0  0  0  0  0  0  0  0  0  0  # atno 17343 bound_to 10162
  156.1495  130.6300  151.0577 LP  0  0  0  0  0  0  0  0  0  0  0  0  # atno 17370 bound_to 10713
  157.6838  131.0830  150.7299 LP  0  0  0  0  0  0  0  0  0  0  0  0  # atno 17371 bound_to 10713
  139.8799  135.0009  156.6040 LP  0  0  0  0  0  0  0  0  0  0  0  0  # atno 17394 bound_to 11000
  140.7844  133.8633  155.8594 LP  0  0  0  0  0  0  0  0  0  0  0  0  # atno 17395 bound_to 11000

$$$$
