AV-unprocessed.smi:1605|AV-procd|sdf|6457|dock1
  -GOLD-   22720 7113D 1   1.00000     0.00000
 Structure written by MMmdl.
 52 54  0  0  0  0  0  0  0  0  3 V2000
  146.0503  134.3812  157.4464 C   0  0  0  0  0  0  0  0  0  0  0  0
  147.0898  133.9613  156.5761 O   0  0  0  0  0  0  0  0  0  0  0  0
  146.9108  134.3442  155.2171 C   0  0  2  0  0  0  0  0  0  0  0  0
  148.1425  133.8751  154.4276 C   0  0  0  0  0  0  0  0  0  0  0  0
  149.4089  134.6480  154.8371 C   0  0  0  0  0  0  0  0  0  0  0  0
  149.2204  136.1137  154.6855 N   0  3  2  0  0  0  0  0  0  0  0  0
  150.4695  136.8736  154.9504 C   0  0  0  0  0  0  0  0  0  0  0  0
  150.2363  138.3967  154.9987 C   0  0  2  0  0  0  0  0  0  0  0  0
  150.7078  138.9630  153.7915 O   0  0  0  0  0  0  0  0  0  0  0  0
  150.9623  139.0489  156.1917 C   0  0  0  0  0  0  0  0  0  0  0  0
  150.6854  140.4886  156.3095 N   0  0  0  0  0  0  0  0  0  0  0  0
  149.9260  141.2926  155.5160 C   0  0  0  0  0  0  0  0  0  0  0  0
  149.9765  142.5500  156.0359 N   0  3  0  0  0  0  0  0  0  0  0  0
  150.7770  142.5500  157.1801 C   0  0  0  0  0  0  0  0  0  0  0  0
  151.1272  143.5801  158.0448 C   0  0  0  0  0  0  0  0  0  0  0  0
  151.9674  143.2520  159.1325 C   0  0  0  0  0  0  0  0  0  0  0  0
  152.3702  144.3554  160.0963 C   0  0  0  0  0  0  0  0  0  0  0  0
  152.4269  141.9234  159.3246 C   0  0  0  0  0  0  0  0  0  0  0  0
  153.3237  141.5800  160.5019 C   0  0  0  0  0  0  0  0  0  0  0  0
  152.0631  140.8906  158.4311 C   0  0  0  0  0  0  0  0  0  0  0  0
  151.2335  141.2299  157.3644 C   0  0  0  0  0  0  0  0  0  0  0  0
  148.0583  136.6003  155.4762 C   0  0  0  0  0  0  0  0  0  0  0  0
  146.7657  135.8711  155.0718 C   0  0  0  0  0  0  0  0  0  0  0  0
  146.2497  134.0110  158.4519 H   0  0  0  0  0  0  0  0  0  0  0  0
  145.0856  133.9825  157.1310 H   0  0  0  0  0  0  0  0  0  0  0  0
  145.9797  135.4670  157.5027 H   0  0  0  0  0  0  0  0  0  0  0  0
  146.0299  133.8449  154.8102 H   0  0  0  0  0  0  0  0  0  0  0  0
  148.2941  132.8052  154.5737 H   0  0  0  0  0  0  0  0  0  0  0  0
  147.9640  134.0154  153.3607 H   0  0  0  0  0  0  0  0  0  0  0  0
  149.6760  134.4192  155.8700 H   0  0  0  0  0  0  0  0  0  0  0  0
  150.2414  134.3179  154.2147 H   0  0  0  0  0  0  0  0  0  0  0  0
  150.9118  136.5218  155.8840 H   0  0  0  0  0  0  0  0  0  0  0  0
  151.2049  136.6636  154.1716 H   0  0  0  0  0  0  0  0  0  0  0  0
  149.1725  138.6173  155.0830 H   0  0  0  0  0  0  0  0  0  0  0  0
  149.9848  139.0233  153.1853 H   0  0  0  0  0  0  0  0  0  0  0  0
  150.6334  138.5848  157.1224 H   0  0  0  0  0  0  0  0  0  0  0  0
  152.0394  138.8894  156.1383 H   0  0  0  0  0  0  0  0  0  0  0  0
  149.3812  140.9893  154.6336 H   0  0  0  0  0  0  0  0  0  0  0  0
  150.7725  144.5894  157.8931 H   0  0  0  0  0  0  0  0  0  0  0  0
  151.9977  144.1429  161.0984 H   0  0  0  0  0  0  0  0  0  0  0  0
  151.9679  145.3208  159.7883 H   0  0  0  0  0  0  0  0  0  0  0  0
  153.4553  144.4482  160.1427 H   0  0  0  0  0  0  0  0  0  0  0  0
  153.5671  140.5173  160.5218 H   0  0  0  0  0  0  0  0  0  0  0  0
  152.8306  141.8247  161.4431 H   0  0  0  0  0  0  0  0  0  0  0  0
  154.2603  142.1351  160.4457 H   0  0  0  0  0  0  0  0  0  0  0  0
  152.4201  139.8820  158.5778 H   0  0  0  0  0  0  0  0  0  0  0  0
  148.2527  136.4541  156.5400 H   0  0  0  0  0  0  0  0  0  0  0  0
  147.9195  137.6705  155.3279 H   0  0  0  0  0  0  0  0  0  0  0  0
  146.5300  136.1116  154.0344 H   0  0  0  0  0  0  0  0  0  0  0  0
  145.9269  136.2423  155.6596 H   0  0  0  0  0  0  0  0  0  0  0  0
  149.0016  136.2669  153.7110 H   0  0  0  0  0  0  0  0  0  0  0  0
  149.4969  143.3478  155.6385 H   0  0  0  0  0  0  0  0  0  0  0  0
  1  2  1  0  0  0  0
  1 24  1  0  0  0  0
  1 25  1  0  0  0  0
  1 26  1  0  0  0  0
  2  3  1  0  0  0  0
  3 23  1  0  0  0  0
  3  4  1  0  0  0  0
  3 27  1  0  0  0  0
  4  5  1  0  0  0  0
  4 28  1  0  0  0  0
  4 29  1  0  0  0  0
  5  6  1  0  0  0  0
  5 30  1  0  0  0  0
  5 31  1  0  0  0  0
  6  7  1  0  0  0  0
  6 22  1  0  0  0  0
  6 51  1  0  0  0  0
  7  8  1  0  0  0  0
  7 32  1  0  0  0  0
  7 33  1  0  0  0  0
  8  9  1  0  0  0  0
  8 10  1  0  0  0  0
  8 34  1  0  0  0  0
  9 35  1  0  0  0  0
 10 11  1  0  0  0  0
 10 36  1  0  0  0  0
 10 37  1  0  0  0  0
 11 21  1  0  0  0  0
 11 12  1  0  0  0  0
 12 13  2  0  0  0  0
 12 38  1  0  0  0  0
 13 14  1  0  0  0  0
 13 52  1  0  0  0  0
 14 21  2  0  0  0  0
 14 15  1  0  0  0  0
 15 16  2  0  0  0  0
 15 39  1  0  0  0  0
 16 17  1  0  0  0  0
 16 18  1  0  0  0  0
 17 40  1  0  0  0  0
 17 41  1  0  0  0  0
 17 42  1  0  0  0  0
 18 19  1  0  0  0  0
 18 20  2  0  0  0  0
 19 43  1  0  0  0  0
 19 44  1  0  0  0  0
 19 45  1  0  0  0  0
 20 21  1  0  0  0  0
 20 46  1  0  0  0  0
 22 23  1  0  0  0  0
 22 47  1  0  0  0  0
 22 48  1  0  0  0  0
 23 49  1  0  0  0  0
 23 50  1  0  0  0  0
M  CHG  1   6   1
M  CHG  1  13   1
M  END
> <s_m_source_file>
AV-unprocessed.smi

> <i_m_source_file_index>
1605

> <i_lp_mmshare_version>
43012

> <i_f3d_flags>
0

> <s_epik_input>
W0NIM11PW0NIXTFbQ0gyXVtDSDJdTihbQ0gyXVtDSDJdMSlbQ0gyXVtDQEhdKFtPSF0pW0NIMl1uKFtjSF1uMiljKGMyMylbY0hdYyhbQ0gzXSljKFtjSF0zKVtDSDNd

> <s_epik_cmdline>
J2VwaWtfcHl0aG9uJywgJy1waCcsICc3LjAnLCAnLXRuJywgJzgnLCAnLW1hJywgJzIwMCcsICctbWV0YWxfYmluZGluZycsICctaW1hZScsICc8aW5maWxlLm1hZT4nLCAnLW9tYWUnLCAnPG91dGZpbGUubWFlPic=

> <r_epik_Ionization_Penalty>
1.19848

> <r_epik_Ionization_Penalty_Charging>
1.19848

> <r_epik_Ionization_Penalty_Neutral>
1.67134e-06

> <r_epik_State_Penalty>
1.2782

> <r_epik_Charging_Adjusted_Penalty>
2.47668

> <i_epik_Tot_Q>
2

> <i_epik_Tot_abs_Q>
2

> <r_epik_Metal_State_Penalty>
5.29544

> <b_epik_Metal_Only>
0

> <s_lp_Force_Field>
OPLS_2005

> <r_lp_Energy>
31.9375

> <b_lp_Chiralities_Consistent>
1

> <s_lp_Variant>
AV-unprocessed.smi:1605-7

> <Gold.Version>
5.8.1

> <Gold.Id.Protein>
6NUR|6NUR_protein|mol2

> <Gold.PLP.Fitness>
55.1544

> <Gold.PLP.PLP>
-40.1027

> <Gold.PLP.part.hbond>
-3.8867

> <Gold.PLP.part.metal>
0.0000

> <Gold.PLP.part.buried>
1.0927

> <Gold.PLP.part.nonpolar>
-36.1032

> <Gold.PLP.part.repulsive>
0.1803

> <Gold.PLP.ligand.clash>
0.0000

> <Gold.PLP.ligand.torsion>
0.7237

> <Gold.PLP.Chemscore.Hbond>
5.4390

> <Gold.PLP.Chemscore.CHOScore>
0.0000

> <Gold.PLP.Chemscore.Metal>
0.0000

> <Gold.Chemscore.Hbonds>
donor molecule, donor type, donor heavy atom, donor atom, acceptor molecule, acceptor atom, score
      L1  H     6    51       P1  7948  2.00
      L1  H     9    35       P1  7957  0.26
      L1  H    13    52       P1  8028  1.85
      P1  H  7989  7998       L1     9  0.77

> <Gold.PLP.Chemscore.Internal.Correction>
0.1820

> <Gold.Rescore>
     Score         DG    S(hbond)    S(metal)    S(lipo)     H(rot)  DE(clash)    DE(int)     intcor
     20.91     -23.08       3.11        0.00     111.77       2.28       1.39       0.78       ----

> <Gold.Chemscore.Fitness>
20.9149

> <Gold.Chemscore.DG>
-23.0828

> <Gold.Chemscore.ZeroCoef>
-5.4800

> <Gold.Chemscore.Hbond>
3.1057

> <Gold.Chemscore.Metal>
0.0000

> <Gold.Chemscore.Lipo>
111.7671

> <Gold.Chemscore.Internal_Hbond>
0.0000

> <Gold.Chemscore.DEClash>
1.3873

> <Gold.Chemscore.DEInternal>
0.7806

> <Gold.Chemscore.Rot>
2.2839

> <Gold.Chemscore.Internal.Correction>
   9.000000E+99

> <Gold.Chemscore.Hbonds>
donor molecule, donor type, donor heavy atom, donor atom, acceptor molecule, acceptor atom, score
      L1  H     6    51       P1  7948  0.99
      L1  H     9    35       P1  7957  0.25
      L1  H    13    52       P1  8028  0.87
      P1  H  7989  7998       L1     9  0.18

> <Gold.Chemscore.Hbond.Weighted>
-10.3729

> <Gold.Chemscore.Metal.Weighted>
-0.0000

> <Gold.Chemscore.Lipo.Weighted>
-13.0767

> <Gold.Chemscore.Internal_Hbond.Weighted>
0.0000

> <Gold.Chemscore.DEClash.Weighted>
1.3873

> <Gold.Chemscore.DEInternal.Weighted>
0.7806

> <Gold.Chemscore.Rot.Weighted>
5.8469

> <Gold.Chemscore.Internal.Correction.Weighted>
   9.000000E+99

> <Gold.Protein.RotatedTorsions>
[ 6907 6896 6895 6894 ] final -173.89 input  -60.11 | X-H torsion
[ 7974 7965 7964 7962 ] final -113.52 input  175.53 | X-H torsion
[ 8008 7997 7996 7995 ] final -126.04 input   59.86 | X-H torsion
[ 10167 10162 10161 10158 ] final  -68.75 input  -65.29 | X-H torsion
[ 10718 10713 10712 10709 ] final   -0.31 input   66.30 | X-H torsion
[ 10763 10752 10751 10750 ] final  -71.14 input  -60.55 | X-H torsion
[ 11005 11000 10999 10996 ] final -134.92 input  -57.11 | X-H torsion

> <Gold.Protein.ActiveResidues>
 VAL166  LYS551  ARG553  GLY616  TRP617  ASP618  TYR619  PRO620  LYS621  CYS622 
 ASP623  PHE694  ASN695  SER759  ASP760  ASP761  ALA762  ILE779  LEU786  VAL792 
 PHE793  MET794  SER795  GLU796  ALA797  LYS798  CYS799  TRP800  GLU811  SER814 

> <Gold.Protein.RotatedAtoms>
  151.5634  133.3400  159.2975 H   0  0  0  0  0  0  0  0  0  0  0  0  # atno 6907 bound_to 6896
  150.8409  134.7704  159.6943 H   0  0  0  0  0  0  0  0  0  0  0  0  # atno 6908 bound_to 6896
  152.4477  134.5467  159.9906 H   0  0  0  0  0  0  0  0  0  0  0  0  # atno 6909 bound_to 6896
  145.1311  140.8725  143.3757 H   0  0  0  0  0  0  0  0  0  0  0  0  # atno 7974 bound_to 7965
  155.2231  140.0422  157.2951 H   0  0  0  0  0  0  0  0  0  0  0  0  # atno 8008 bound_to 7997
  154.5936  140.2433  155.7857 H   0  0  0  0  0  0  0  0  0  0  0  0  # atno 8009 bound_to 7997
  156.2276  140.2949  156.0114 H   0  0  0  0  0  0  0  0  0  0  0  0  # atno 8010 bound_to 7997
  140.5483  143.2312  151.6960 H   0  0  0  0  0  0  0  0  0  0  0  0  # atno 10167 bound_to 10162
  156.8224  130.5461  149.5696 H   0  0  0  0  0  0  0  0  0  0  0  0  # atno 10718 bound_to 10713
  154.4276  135.5971  153.6049 H   0  0  0  0  0  0  0  0  0  0  0  0  # atno 10763 bound_to 10752
  152.9797  135.5967  154.3878 H   0  0  0  0  0  0  0  0  0  0  0  0  # atno 10764 bound_to 10752
  154.3712  135.2841  155.2244 H   0  0  0  0  0  0  0  0  0  0  0  0  # atno 10765 bound_to 10752
  140.8946  134.1768  157.4504 H   0  0  0  0  0  0  0  0  0  0  0  0  # atno 11005 bound_to 11000
  145.0634  139.3087  143.5868 LP  0  0  0  0  0  0  0  0  0  0  0  0  # atno 17320 bound_to 7965
  146.3514  140.0084  142.8669 LP  0  0  0  0  0  0  0  0  0  0  0  0  # atno 17321 bound_to 7965
  139.5016  144.3859  152.0329 LP  0  0  0  0  0  0  0  0  0  0  0  0  # atno 17342 bound_to 10162
  140.2974  144.3686  150.6070 LP  0  0  0  0  0  0  0  0  0  0  0  0  # atno 17343 bound_to 10162
  156.0981  130.5948  150.9848 LP  0  0  0  0  0  0  0  0  0  0  0  0  # atno 17370 bound_to 10713
  157.6450  131.0905  150.8172 LP  0  0  0  0  0  0  0  0  0  0  0  0  # atno 17371 bound_to 10713
  139.8734  134.9873  156.5361 LP  0  0  0  0  0  0  0  0  0  0  0  0  # atno 17394 bound_to 11000
  140.8305  133.8283  155.8979 LP  0  0  0  0  0  0  0  0  0  0  0  0  # atno 17395 bound_to 11000

$$$$
