AV-unprocessed.smi:2038|AV-procd|sdf|8281|dock4
  -GOLD-   2272010553D 1   1.00000     0.00000
 Structure written by MMmdl.
 33 34  0  0  0  0  0  0  0  0  1 V2000
  150.0411  136.2543  158.8736 O   0  0  0  0  0  0  0  0  0  0  0  0
  149.8408  136.1634  157.6622 C   0  0  0  0  0  0  0  0  0  0  0  0
  149.9931  137.1734  156.7861 N   0  0  0  0  0  0  0  0  0  0  0  0
  150.3786  138.5161  157.0462 C   0  0  0  0  0  0  0  0  0  0  0  0
  150.3742  139.4284  155.9721 C   0  0  0  0  0  0  0  0  0  0  0  0
  150.7325  140.7690  156.2083 C   0  0  0  0  0  0  0  0  0  0  0  0
  151.0742  141.1597  157.5181 C   0  0  0  0  0  0  0  0  0  0  0  0
  151.4254  142.4745  157.7439 O   0  0  0  0  0  0  0  0  0  0  0  0
  151.5284  142.9291  159.0908 C   0  0  0  0  0  0  0  0  0  0  0  0
  151.6635  144.4562  159.1004 C   0  0  0  0  0  0  0  0  0  0  0  0
  152.0105  144.8601  160.3220 F   0  0  0  0  0  0  0  0  0  0  0  0
  152.6055  144.8409  158.2397 F   0  0  0  0  0  0  0  0  0  0  0  0
  150.5021  145.0237  158.7763 F   0  0  0  0  0  0  0  0  0  0  0  0
  151.0656  140.2941  158.5617 N   0  0  0  0  0  0  0  0  0  0  0  0
  150.7233  139.0089  158.3282 C   0  0  0  0  0  0  0  0  0  0  0  0
  149.3966  134.8237  157.0630 C   0  0  1  0  0  0  0  0  0  0  0  0
  149.3074  134.8281  155.5253 C   0  0  0  0  0  0  0  0  0  0  0  0
  150.4760  133.9635  155.0953 C   0  0  0  0  0  0  0  0  0  0  0  0
  150.6018  133.0053  156.2705 C   0  0  0  0  0  0  0  0  0  0  0  0
  150.3792  133.8433  157.3938 O   0  0  0  0  0  0  0  0  0  0  0  0
  149.8771  136.9344  155.8119 H   0  0  0  0  0  0  0  0  0  0  0  0
  150.1050  139.1071  154.9764 H   0  0  0  0  0  0  0  0  0  0  0  0
  150.7439  141.4850  155.3998 H   0  0  0  0  0  0  0  0  0  0  0  0
  150.6424  142.6358  159.6568 H   0  0  0  0  0  0  0  0  0  0  0  0
  152.3978  142.4817  159.5757 H   0  0  0  0  0  0  0  0  0  0  0  0
  150.7087  138.3797  159.2045 H   0  0  0  0  0  0  0  0  0  0  0  0
  148.4367  134.5203  157.4847 H   0  0  0  0  0  0  0  0  0  0  0  0
  148.3689  134.3691  155.2117 H   0  0  0  0  0  0  0  0  0  0  0  0
  149.3480  135.8224  155.0780 H   0  0  0  0  0  0  0  0  0  0  0  0
  150.3083  133.4567  154.1446 H   0  0  0  0  0  0  0  0  0  0  0  0
  151.3792  134.5692  155.0087 H   0  0  0  0  0  0  0  0  0  0  0  0
  149.8303  132.2348  156.2301 H   0  0  0  0  0  0  0  0  0  0  0  0
  151.5764  132.5191  156.3177 H   0  0  0  0  0  0  0  0  0  0  0  0
  1  2  2  0  0  0  0
  2  3  1  0  0  0  0
  2 16  1  0  0  0  0
  3  4  1  0  0  0  0
  3 21  1  0  0  0  0
  4 15  1  0  0  0  0
  4  5  2  0  0  0  0
  5  6  1  0  0  0  0
  5 22  1  0  0  0  0
  6  7  2  0  0  0  0
  6 23  1  0  0  0  0
  7  8  1  0  0  0  0
  7 14  1  0  0  0  0
  8  9  1  0  0  0  0
  9 10  1  0  0  0  0
  9 24  1  0  0  0  0
  9 25  1  0  0  0  0
 10 11  1  0  0  0  0
 10 12  1  0  0  0  0
 10 13  1  0  0  0  0
 14 15  2  0  0  0  0
 15 26  1  0  0  0  0
 16 20  1  0  0  0  0
 16 17  1  0  0  0  0
 16 27  1  0  0  0  0
 17 18  1  0  0  0  0
 17 28  1  0  0  0  0
 17 29  1  0  0  0  0
 18 19  1  0  0  0  0
 18 30  1  0  0  0  0
 18 31  1  0  0  0  0
 19 20  1  0  0  0  0
 19 32  1  0  0  0  0
 19 33  1  0  0  0  0
M  END
> <s_m_source_file>
AV-unprocessed.smi

> <i_m_source_file_index>
2038

> <i_lp_mmshare_version>
43012

> <i_f3d_flags>
0

> <s_epik_input>
TzFbQ0gyXVtDSDJdW0NIMl1bQ0BIXTFDKD1PKVtOSF1jMltjSF1bY0hdYyhuW2NIXTIpT1tDSDJdQyhGKShGKUY=

> <s_epik_cmdline>
J2VwaWtfcHl0aG9uJywgJy1waCcsICc3LjAnLCAnLXRuJywgJzgnLCAnLW1hJywgJzIwMCcsICctbWV0YWxfYmluZGluZycsICctaW1hZScsICc8aW5maWxlLm1hZT4nLCAnLW9tYWUnLCAnPG91dGZpbGUubWFlPic=

> <r_lp_tautomer_probability>
1

> <r_epik_Ionization_Penalty>
2.73305e-06

> <r_epik_Ionization_Penalty_Charging>
0

> <r_epik_Ionization_Penalty_Neutral>
2.73305e-06

> <r_epik_State_Penalty>
-0

> <r_epik_Charging_Adjusted_Penalty>
0

> <i_epik_Tot_Q>
0

> <i_epik_Tot_abs_Q>
0

> <r_epik_Metal_State_Penalty>
-0

> <b_epik_Metal_Only>
0

> <s_lp_Force_Field>
OPLS_2005

> <r_lp_Energy>
22.8429

> <b_lp_Chiralities_Consistent>
1

> <s_lp_Variant>
AV-unprocessed.smi:2038-2

> <Gold.Version>
5.8.1

> <Gold.Id.Protein>
6NUR|6NUR_protein|mol2

> <Gold.PLP.Fitness>
37.7633

> <Gold.PLP.PLP>
-33.4182

> <Gold.PLP.part.hbond>
-2.0000

> <Gold.PLP.part.metal>
0.0000

> <Gold.PLP.part.buried>
-5.3328

> <Gold.PLP.part.nonpolar>
-25.7427

> <Gold.PLP.part.repulsive>
0.0637

> <Gold.PLP.ligand.clash>
0.0143

> <Gold.PLP.ligand.torsion>
0.2803

> <Gold.PLP.Chemscore.Hbond>
1.6320

> <Gold.PLP.Chemscore.CHOScore>
0.0000

> <Gold.PLP.Chemscore.Metal>
0.0000

> <Gold.Chemscore.Hbonds>
donor molecule, donor type, donor heavy atom, donor atom, acceptor molecule, acceptor atom, score
      P1  H  6896  6907       L1    20  0.67
      P1  H  6896  6908       L1     1  0.94

> <Gold.PLP.Chemscore.Internal.Correction>
0.0239

> <Gold.Rescore>
     Score         DG    S(hbond)    S(metal)    S(lipo)     H(rot)  DE(clash)    DE(int)     intcor
     11.71     -13.38       1.63        0.00      57.95       1.69       0.02       1.64       ----

> <Gold.Chemscore.Fitness>
11.7149

> <Gold.Chemscore.DG>
-13.3817

> <Gold.Chemscore.ZeroCoef>
-5.4800

> <Gold.Chemscore.Hbond>
1.6327

> <Gold.Chemscore.Metal>
0.0000

> <Gold.Chemscore.Lipo>
57.9469

> <Gold.Chemscore.Internal_Hbond>
0.0000

> <Gold.Chemscore.DEClash>
0.0249

> <Gold.Chemscore.DEInternal>
1.6418

> <Gold.Chemscore.Rot>
1.6919

> <Gold.Chemscore.Internal.Correction>
   9.000000E+99

> <Gold.Chemscore.Hbonds>
donor molecule, donor type, donor heavy atom, donor atom, acceptor molecule, acceptor atom, score
      P1  H  6896  6907       L1    20  0.67
      P1  H  6896  6908       L1     1  0.90

> <Gold.Chemscore.Hbond.Weighted>
-5.4532

> <Gold.Chemscore.Metal.Weighted>
-0.0000

> <Gold.Chemscore.Lipo.Weighted>
-6.7798

> <Gold.Chemscore.Internal_Hbond.Weighted>
0.0000

> <Gold.Chemscore.DEClash.Weighted>
0.0249

> <Gold.Chemscore.DEInternal.Weighted>
1.6418

> <Gold.Chemscore.Rot.Weighted>
4.3313

> <Gold.Chemscore.Internal.Correction.Weighted>
   9.000000E+99

> <Gold.Protein.RotatedTorsions>
[ 6907 6896 6895 6894 ] final -145.78 input  -60.11 | X-H torsion
[ 7974 7965 7964 7962 ] final -163.38 input  175.53 | X-H torsion
[ 8008 7997 7996 7995 ] final -112.15 input   59.86 | X-H torsion
[ 10167 10162 10161 10158 ] final -107.47 input  -65.29 | X-H torsion
[ 10718 10713 10712 10709 ] final -172.79 input   66.30 | X-H torsion
[ 10763 10752 10751 10750 ] final  -45.14 input  -60.55 | X-H torsion
[ 11005 11000 10999 10996 ] final  -94.65 input  -57.11 | X-H torsion

> <Gold.Protein.ActiveResidues>
 VAL166  LYS551  ARG553  GLY616  TRP617  ASP618  TYR619  PRO620  LYS621  CYS622 
 ASP623  PHE694  ASN695  SER759  ASP760  ASP761  ALA762  ILE779  LEU786  VAL792 
 PHE793  MET794  SER795  GLU796  ALA797  LYS798  CYS799  TRP800  GLU811  SER814 

> <Gold.Protein.RotatedAtoms>
  151.1325  133.5027  159.2598 H   0  0  0  0  0  0  0  0  0  0  0  0  # atno 6907 bound_to 6896
  151.1742  135.0331  159.8774 H   0  0  0  0  0  0  0  0  0  0  0  0  # atno 6908 bound_to 6896
  152.5460  134.1185  159.8442 H   0  0  0  0  0  0  0  0  0  0  0  0  # atno 6909 bound_to 6896
  144.7328  140.3116  143.6187 H   0  0  0  0  0  0  0  0  0  0  0  0  # atno 7974 bound_to 7965
  155.0008  140.0394  157.2359 H   0  0  0  0  0  0  0  0  0  0  0  0  # atno 8008 bound_to 7997
  154.7545  140.2773  155.6242 H   0  0  0  0  0  0  0  0  0  0  0  0  # atno 8009 bound_to 7997
  156.2892  140.2640  156.2307 H   0  0  0  0  0  0  0  0  0  0  0  0  # atno 8010 bound_to 7997
  140.1766  143.4000  152.1314 H   0  0  0  0  0  0  0  0  0  0  0  0  # atno 10167 bound_to 10162
  156.7607  130.9412  151.3118 H   0  0  0  0  0  0  0  0  0  0  0  0  # atno 10718 bound_to 10713
  154.0236  135.6666  153.4774 H   0  0  0  0  0  0  0  0  0  0  0  0  # atno 10763 bound_to 10752
  153.0570  135.5050  154.8000 H   0  0  0  0  0  0  0  0  0  0  0  0  # atno 10764 bound_to 10752
  154.6922  135.3063  154.9428 H   0  0  0  0  0  0  0  0  0  0  0  0  # atno 10765 bound_to 10752
  141.1464  133.7971  157.0326 H   0  0  0  0  0  0  0  0  0  0  0  0  # atno 11005 bound_to 11000
  145.7659  139.1840  143.2240 LP  0  0  0  0  0  0  0  0  0  0  0  0  # atno 17320 bound_to 7965
  146.0949  140.7612  142.9577 LP  0  0  0  0  0  0  0  0  0  0  0  0  # atno 17321 bound_to 7965
  139.5314  144.7163  151.5042 LP  0  0  0  0  0  0  0  0  0  0  0  0  # atno 17342 bound_to 10162
  140.6547  143.8623  150.6823 LP  0  0  0  0  0  0  0  0  0  0  0  0  # atno 17343 bound_to 10162
  157.6736  130.9073  150.0097 LP  0  0  0  0  0  0  0  0  0  0  0  0  # atno 17370 bound_to 10713
  156.1341  130.3643  149.9685 LP  0  0  0  0  0  0  0  0  0  0  0  0  # atno 17371 bound_to 10713
  140.0744  134.9684  157.1521 LP  0  0  0  0  0  0  0  0  0  0  0  0  # atno 17394 bound_to 11000
  140.3665  134.2437  155.7182 LP  0  0  0  0  0  0  0  0  0  0  0  0  # atno 17395 bound_to 11000

$$$$
