AV-unprocessed.smi:2784|AV-procd|sdf|10740|dock9
  -GOLD-   2272015173D 1   1.00000     0.00000
 Structure written by MMmdl.
 31 32  0  0  0  0  0  0  0  0  1 V2000
  152.2680  144.9978  158.6384 C   0  0  0  0  0  0  0  0  0  0  0  0
  152.0270  143.6381  158.3159 O   0  0  0  0  0  0  0  0  0  0  0  0
  151.7090  142.8277  159.4443 C   0  0  2  0  0  0  0  0  0  0  0  0
  152.9099  142.9015  160.3888 C   0  0  0  0  0  0  0  0  0  0  0  0
  153.8912  141.8746  159.8312 C   0  0  0  0  0  0  0  0  0  0  0  0
  153.0085  140.7281  159.3318 C   0  0  0  0  0  0  0  0  0  0  0  0
  151.6179  141.3335  159.0545 C   0  0  2  0  0  0  0  0  0  0  0  0
  151.2247  141.1276  157.6615 N   0  0  0  0  0  0  0  0  0  0  0  0
  150.0714  141.5315  157.1086 C   0  0  0  0  0  0  0  0  0  0  0  0
  149.2141  142.1272  157.7687 O   0  0  0  0  0  0  0  0  0  0  0  0
  150.0442  141.1862  155.7652 N   0  0  0  0  0  0  0  0  0  0  0  0
  148.9403  141.2992  155.0934 C   0  0  0  0  0  0  0  0  0  0  0  0
  148.7329  141.0094  153.7543 N   0  0  0  0  0  0  0  0  0  0  0  0
  147.4230  141.2695  153.4600 C   0  0  0  0  0  0  0  0  0  0  0  0
  146.8290  141.7055  154.5671 C   0  0  0  0  0  0  0  0  0  0  0  0
  147.7322  141.7360  155.5865 O   0  0  0  0  0  0  0  0  0  0  0  0
  152.4648  145.5606  157.7261 H   0  0  0  0  0  0  0  0  0  0  0  0
  153.1376  145.0962  159.2893 H   0  0  0  0  0  0  0  0  0  0  0  0
  151.4083  145.4492  159.1344 H   0  0  0  0  0  0  0  0  0  0  0  0
  150.8013  143.1685  159.9469 H   0  0  0  0  0  0  0  0  0  0  0  0
  153.3370  143.9026  160.4558 H   0  0  0  0  0  0  0  0  0  0  0  0
  152.6045  142.6045  161.3931 H   0  0  0  0  0  0  0  0  0  0  0  0
  154.4367  142.3099  158.9929 H   0  0  0  0  0  0  0  0  0  0  0  0
  154.6234  141.5489  160.5705 H   0  0  0  0  0  0  0  0  0  0  0  0
  153.4485  140.2482  158.4562 H   0  0  0  0  0  0  0  0  0  0  0  0
  152.9239  139.9628  160.1043 H   0  0  0  0  0  0  0  0  0  0  0  0
  150.9056  140.8377  159.7167 H   0  0  0  0  0  0  0  0  0  0  0  0
  151.8904  140.6540  157.0682 H   0  0  0  0  0  0  0  0  0  0  0  0
  149.4003  140.6676  153.0780 H   0  0  0  0  0  0  0  0  0  0  0  0
  147.0454  141.1100  152.4607 H   0  0  0  0  0  0  0  0  0  0  0  0
  145.8186  142.0193  154.7831 H   0  0  0  0  0  0  0  0  0  0  0  0
  1  2  1  0  0  0  0
  1 17  1  0  0  0  0
  1 18  1  0  0  0  0
  1 19  1  0  0  0  0
  2  3  1  0  0  0  0
  3  7  1  0  0  0  0
  3  4  1  0  0  0  0
  3 20  1  0  0  0  0
  4  5  1  0  0  0  0
  4 21  1  0  0  0  0
  4 22  1  0  0  0  0
  5  6  1  0  0  0  0
  5 23  1  0  0  0  0
  5 24  1  0  0  0  0
  6  7  1  0  0  0  0
  6 25  1  0  0  0  0
  6 26  1  0  0  0  0
  7  8  1  0  0  0  0
  7 27  1  0  0  0  0
  8 28  1  0  0  0  0
  8  9  1  0  0  0  0
  9 11  1  0  0  0  0
  9 10  2  0  0  0  0
 11 12  2  0  0  0  0
 12 16  1  0  0  0  0
 12 13  1  0  0  0  0
 13 29  1  0  0  0  0
 13 14  1  0  0  0  0
 14 30  1  0  0  0  0
 14 15  2  0  0  0  0
 15 31  1  0  0  0  0
 15 16  1  0  0  0  0
M  END
> <s_m_source_file>
AV-unprocessed.smi

> <i_m_source_file_index>
2784

> <i_lp_mmshare_version>
43012

> <i_f3d_flags>
0

> <s_epik_input>
W0NIM11PW0NAQEhdMVtDSDJdW0NIMl1bQ0gyXVtDQEhdMVtOSF1DKD1PKVtOSF1jMm5bY0hdW2NIXW8y

> <s_epik_cmdline>
J2VwaWtfcHl0aG9uJywgJy1waCcsICc3LjAnLCAnLXRuJywgJzgnLCAnLW1hJywgJzIwMCcsICctbWV0YWxfYmluZGluZycsICctaW1hZScsICc8aW5maWxlLm1hZT4nLCAnLW9tYWUnLCAnPG91dGZpbGUubWFlPic=

> <r_lp_tautomer_probability>
0.107061

> <r_epik_Ionization_Penalty>
1.29244

> <r_epik_Ionization_Penalty_Charging>
1.29208

> <r_epik_Ionization_Penalty_Neutral>
0.000359742

> <r_epik_State_Penalty>
2.59896

> <r_epik_Charging_Adjusted_Penalty>
3.89105

> <i_epik_Tot_Q>
0

> <i_epik_Tot_abs_Q>
0

> <r_epik_Metal_State_Penalty>
3.62496

> <b_epik_Metal_Only>
0

> <s_lp_Force_Field>
OPLS_2005

> <r_lp_Energy>
45.4205

> <b_lp_Chiralities_Consistent>
1

> <s_lp_Variant>
AV-unprocessed.smi:2784-15

> <Gold.Version>
5.8.1

> <Gold.Id.Protein>
6NUR|6NUR_protein|mol2

> <Gold.PLP.Fitness>
34.5128

> <Gold.PLP.PLP>
-31.9369

> <Gold.PLP.part.hbond>
-1.0000

> <Gold.PLP.part.metal>
0.0000

> <Gold.PLP.part.buried>
-7.3767

> <Gold.PLP.part.nonpolar>
-25.2033

> <Gold.PLP.part.repulsive>
1.5073

> <Gold.PLP.ligand.clash>
0.0000

> <Gold.PLP.ligand.torsion>
0.0385

> <Gold.PLP.Chemscore.Hbond>
0.8800

> <Gold.PLP.Chemscore.CHOScore>
0.0000

> <Gold.PLP.Chemscore.Metal>
0.0000

> <Gold.Chemscore.Hbonds>
donor molecule, donor type, donor heavy atom, donor atom, acceptor molecule, acceptor atom, score
      L1  H    13    29       P1  7957  0.88

> <Gold.PLP.Chemscore.Internal.Correction>
0.0129

> <Gold.Rescore>
     Score         DG    S(hbond)    S(metal)    S(lipo)     H(rot)  DE(clash)    DE(int)     intcor
     12.48     -14.14       0.97        0.00      75.32       1.32       0.05       1.60       ----

> <Gold.Chemscore.Fitness>
12.4823

> <Gold.Chemscore.DG>
-14.1357

> <Gold.Chemscore.ZeroCoef>
-5.4800

> <Gold.Chemscore.Hbond>
0.9676

> <Gold.Chemscore.Metal>
0.0000

> <Gold.Chemscore.Lipo>
75.3168

> <Gold.Chemscore.Internal_Hbond>
0.0000

> <Gold.Chemscore.DEClash>
0.0487

> <Gold.Chemscore.DEInternal>
1.6046

> <Gold.Chemscore.Rot>
1.3235

> <Gold.Chemscore.Internal.Correction>
   9.000000E+99

> <Gold.Chemscore.Hbonds>
donor molecule, donor type, donor heavy atom, donor atom, acceptor molecule, acceptor atom, score
      L1  H    13    29       P1  7957  0.81

> <Gold.Chemscore.Hbond.Weighted>
-3.2318

> <Gold.Chemscore.Metal.Weighted>
-0.0000

> <Gold.Chemscore.Lipo.Weighted>
-8.8121

> <Gold.Chemscore.Internal_Hbond.Weighted>
0.0000

> <Gold.Chemscore.DEClash.Weighted>
0.0487

> <Gold.Chemscore.DEInternal.Weighted>
1.6046

> <Gold.Chemscore.Rot.Weighted>
3.3882

> <Gold.Chemscore.Internal.Correction.Weighted>
   9.000000E+99

> <Gold.Protein.RotatedTorsions>
[ 6907 6896 6895 6894 ] final -151.59 input  -60.11 | X-H torsion
[ 7974 7965 7964 7962 ] final  172.88 input  175.53 | X-H torsion
[ 8008 7997 7996 7995 ] final   46.90 input   59.86 | X-H torsion
[ 10167 10162 10161 10158 ] final  136.19 input  -65.29 | X-H torsion
[ 10718 10713 10712 10709 ] final  127.62 input   66.30 | X-H torsion
[ 10763 10752 10751 10750 ] final   99.13 input  -60.55 | X-H torsion
[ 11005 11000 10999 10996 ] final  -15.86 input  -57.11 | X-H torsion

> <Gold.Protein.ActiveResidues>
 VAL166  LYS551  ARG553  GLY616  TRP617  ASP618  TYR619  PRO620  LYS621  CYS622 
 ASP623  PHE694  ASN695  SER759  ASP760  ASP761  ALA762  ILE779  LEU786  VAL792 
 PHE793  MET794  SER795  GLU796  ALA797  LYS798  CYS799  TRP800  GLU811  SER814 

> <Gold.Protein.RotatedAtoms>
  151.2153  133.4533  159.2599 H   0  0  0  0  0  0  0  0  0  0  0  0  # atno 6907 bound_to 6896
  151.0937  134.9931  159.8425 H   0  0  0  0  0  0  0  0  0  0  0  0  # atno 6908 bound_to 6896
  152.5437  134.2085  159.8793 H   0  0  0  0  0  0  0  0  0  0  0  0  # atno 6909 bound_to 6896
  144.7257  139.9564  143.6433 H   0  0  0  0  0  0  0  0  0  0  0  0  # atno 7974 bound_to 7965
  155.3601  140.3418  155.4240 H   0  0  0  0  0  0  0  0  0  0  0  0  # atno 8008 bound_to 7997
  156.1718  140.1634  156.8468 H   0  0  0  0  0  0  0  0  0  0  0  0  # atno 8009 bound_to 7997
  154.5241  140.0760  156.8208 H   0  0  0  0  0  0  0  0  0  0  0  0  # atno 8010 bound_to 7997
  139.5189  144.6477  151.5392 H   0  0  0  0  0  0  0  0  0  0  0  0  # atno 10167 bound_to 10162
  157.5317  131.1098  150.8999 H   0  0  0  0  0  0  0  0  0  0  0  0  # atno 10718 bound_to 10713
  153.2976  135.4124  155.1224 H   0  0  0  0  0  0  0  0  0  0  0  0  # atno 10763 bound_to 10752
  154.8539  135.3533  154.5895 H   0  0  0  0  0  0  0  0  0  0  0  0  # atno 10764 bound_to 10752
  153.6320  135.7060  153.5330 H   0  0  0  0  0  0  0  0  0  0  0  0  # atno 10765 bound_to 10752
  140.8009  133.8214  155.9469 H   0  0  0  0  0  0  0  0  0  0  0  0  # atno 11005 bound_to 11000
  146.0671  139.3662  143.0545 LP  0  0  0  0  0  0  0  0  0  0  0  0  # atno 17320 bound_to 7965
  145.8016  140.9768  143.0996 LP  0  0  0  0  0  0  0  0  0  0  0  0  # atno 17321 bound_to 7965
  140.6269  143.9151  150.6572 LP  0  0  0  0  0  0  0  0  0  0  0  0  # atno 17342 bound_to 10162
  140.2443  143.3640  152.1460 LP  0  0  0  0  0  0  0  0  0  0  0  0  # atno 17343 bound_to 10162
  156.9579  130.5444  149.5285 LP  0  0  0  0  0  0  0  0  0  0  0  0  # atno 17370 bound_to 10713
  156.0427  130.5508  150.8809 LP  0  0  0  0  0  0  0  0  0  0  0  0  # atno 17371 bound_to 10713
  140.9295  134.2039  157.4873 LP  0  0  0  0  0  0  0  0  0  0  0  0  # atno 17394 bound_to 11000
  139.8722  134.9827  156.5166 LP  0  0  0  0  0  0  0  0  0  0  0  0  # atno 17395 bound_to 11000

$$$$
