AV-unprocessed.smi:2412|AV-procd|sdf|9533|dock2
  -GOLD-   2272013163D 1   1.00000     0.00000
 Structure written by MMmdl.
 38 39  0  0  0  0  0  0  0  0  2 V2000
  150.2698  138.5552  154.3503 C   0  0  0  0  0  0  0  0  0  0  0  0
  149.2051  139.5215  153.8608 C   0  0  0  0  0  0  0  0  0  0  0  0
  149.1914  140.8462  154.3495 C   0  0  0  0  0  0  0  0  0  0  0  0
  148.2544  141.7177  153.9209 N   0  3  0  0  0  0  0  0  0  0  0  0
  147.3059  141.3849  153.0211 C   0  0  0  0  0  0  0  0  0  0  0  0
  147.2653  140.0793  152.4934 C   0  0  0  0  0  0  0  0  0  0  0  0
  148.2182  139.1205  152.9235 C   0  0  0  0  0  0  0  0  0  0  0  0
  148.2562  137.7890  152.4204 N   0  0  0  0  0  0  0  0  0  0  0  0
  147.2278  136.9818  152.1086 C   0  0  0  0  0  0  0  0  0  0  0  0
  146.0374  137.2574  152.2572 O   0  0  0  0  0  0  0  0  0  0  0  0
  147.6598  135.8100  151.6193 N   0  0  0  0  0  0  0  0  0  0  0  0
  146.7978  134.7282  151.1456 C   0  0  0  0  0  0  0  0  0  0  0  0
  147.5730  133.5836  150.4657 C   0  0  0  0  0  0  0  0  0  0  0  0
  148.3240  132.8682  151.1317 O   0  0  0  0  0  0  0  0  0  0  0  0
  147.3938  133.3928  149.1422 N   0  0  0  0  0  0  0  0  0  0  0  0
  148.0410  132.3623  148.3303 C   0  0  0  0  0  0  0  0  0  0  0  0
  147.3614  132.4252  146.9617 C   0  0  0  0  0  0  0  0  0  0  0  0
  146.8340  133.8501  146.8703 C   0  0  0  0  0  0  0  0  0  0  0  0
  146.5194  134.2255  148.3183 C   0  0  0  0  0  0  0  0  0  0  0  0
  150.9198  139.0238  155.0900 H   0  0  0  0  0  0  0  0  0  0  0  0
  150.8912  138.2204  153.5192 H   0  0  0  0  0  0  0  0  0  0  0  0
  149.8096  137.6817  154.8130 H   0  0  0  0  0  0  0  0  0  0  0  0
  149.9001  141.2355  155.0660 H   0  0  0  0  0  0  0  0  0  0  0  0
  146.6163  142.1696  152.7457 H   0  0  0  0  0  0  0  0  0  0  0  0
  146.5119  139.8437  151.7570 H   0  0  0  0  0  0  0  0  0  0  0  0
  149.1777  137.3860  152.3328 H   0  0  0  0  0  0  0  0  0  0  0  0
  148.6550  135.6648  151.5339 H   0  0  0  0  0  0  0  0  0  0  0  0
  146.2583  134.3274  152.0039 H   0  0  0  0  0  0  0  0  0  0  0  0
  146.0492  135.1296  150.4606 H   0  0  0  0  0  0  0  0  0  0  0  0
  149.1032  132.5941  148.2398 H   0  0  0  0  0  0  0  0  0  0  0  0
  147.9436  131.3666  148.7648 H   0  0  0  0  0  0  0  0  0  0  0  0
  148.0341  132.1696  146.1426 H   0  0  0  0  0  0  0  0  0  0  0  0
  146.5246  131.7256  146.9369 H   0  0  0  0  0  0  0  0  0  0  0  0
  147.6175  134.5040  146.4847 H   0  0  0  0  0  0  0  0  0  0  0  0
  145.9692  133.9409  146.2124 H   0  0  0  0  0  0  0  0  0  0  0  0
  145.4808  133.9931  148.5584 H   0  0  0  0  0  0  0  0  0  0  0  0
  146.6781  135.2908  148.4942 H   0  0  0  0  0  0  0  0  0  0  0  0
  148.2670  142.6696  154.2883 H   0  0  0  0  0  0  0  0  0  0  0  0
  1  2  1  0  0  0  0
  1 20  1  0  0  0  0
  1 21  1  0  0  0  0
  1 22  1  0  0  0  0
  2  7  1  0  0  0  0
  2  3  2  0  0  0  0
  3  4  1  0  0  0  0
  3 23  1  0  0  0  0
  4  5  2  0  0  0  0
  4 38  1  0  0  0  0
  5  6  1  0  0  0  0
  5 24  1  0  0  0  0
  6  7  2  0  0  0  0
  6 25  1  0  0  0  0
  7  8  1  0  0  0  0
  8  9  1  0  0  0  0
  8 26  1  0  0  0  0
  9 10  2  0  0  0  0
  9 11  1  0  0  0  0
 11 12  1  0  0  0  0
 11 27  1  0  0  0  0
 12 13  1  0  0  0  0
 12 28  1  0  0  0  0
 12 29  1  0  0  0  0
 13 14  2  0  0  0  0
 13 15  1  0  0  0  0
 15 19  1  0  0  0  0
 15 16  1  0  0  0  0
 16 17  1  0  0  0  0
 16 30  1  0  0  0  0
 16 31  1  0  0  0  0
 17 18  1  0  0  0  0
 17 32  1  0  0  0  0
 17 33  1  0  0  0  0
 18 19  1  0  0  0  0
 18 34  1  0  0  0  0
 18 35  1  0  0  0  0
 19 36  1  0  0  0  0
 19 37  1  0  0  0  0
M  CHG  1   4   1
M  END
> <s_m_source_file>
AV-unprocessed.smi

> <i_m_source_file_index>
2412

> <i_lp_mmshare_version>
43012

> <i_f3d_flags>
0

> <s_epik_input>
W0NIM11jMVtjSF1uW2NIXVtjSF1jMVtOSF1DKD1PKVtOSF1bQ0gyXUMoPU8pTjJbQ0gyXVtDSDJdW0NIMl1bQ0gyXTI=

> <s_epik_cmdline>
J2VwaWtfcHl0aG9uJywgJy1waCcsICc3LjAnLCAnLXRuJywgJzgnLCAnLW1hJywgJzIwMCcsICctbWV0YWxfYmluZGluZycsICctaW1hZScsICc8aW5maWxlLm1hZT4nLCAnLW9tYWUnLCAnPG91dGZpbGUubWFlPic=

> <r_epik_Ionization_Penalty>
0.861722

> <r_epik_Ionization_Penalty_Charging>
0.861704

> <r_epik_Ionization_Penalty_Neutral>
1.84974e-05

> <r_epik_State_Penalty>
0.898238

> <r_epik_Charging_Adjusted_Penalty>
1.75994

> <i_epik_Tot_Q>
1

> <i_epik_Tot_abs_Q>
1

> <r_epik_Metal_State_Penalty>
1.0245

> <b_epik_Metal_Only>
0

> <s_lp_Force_Field>
OPLS_2005

> <r_lp_Energy>
33.6381

> <b_lp_Chiralities_Consistent>
1

> <s_lp_Variant>
AV-unprocessed.smi:2412-2

> <Gold.Version>
5.8.1

> <Gold.Id.Protein>
6NUR|6NUR_protein|mol2

> <Gold.PLP.Fitness>
43.4835

> <Gold.PLP.PLP>
-32.8352

> <Gold.PLP.part.hbond>
-3.0000

> <Gold.PLP.part.metal>
0.0000

> <Gold.PLP.part.buried>
-4.6555

> <Gold.PLP.part.nonpolar>
-26.0771

> <Gold.PLP.part.repulsive>
0.3994

> <Gold.PLP.ligand.clash>
0.0000

> <Gold.PLP.ligand.torsion>
0.3534

> <Gold.PLP.Chemscore.Hbond>
3.7840

> <Gold.PLP.Chemscore.CHOScore>
0.0000

> <Gold.PLP.Chemscore.Metal>
0.0000

> <Gold.Chemscore.Hbonds>
donor molecule, donor type, donor heavy atom, donor atom, acceptor molecule, acceptor atom, score
      L1  H     8    26       P1  7948  0.03

> <Gold.PLP.Chemscore.Internal.Correction>
0.0032

> <Gold.Rescore>
     Score         DG    S(hbond)    S(metal)    S(lipo)     H(rot)  DE(clash)    DE(int)     intcor
     20.23     -20.61       2.82        0.00      76.83       1.28       0.09       0.29       ----

> <Gold.Chemscore.Fitness>
20.2280

> <Gold.Chemscore.DG>
-20.6056

> <Gold.Chemscore.ZeroCoef>
-5.4800

> <Gold.Chemscore.Hbond>
2.8173

> <Gold.Chemscore.Metal>
0.0000

> <Gold.Chemscore.Lipo>
76.8284

> <Gold.Chemscore.Internal_Hbond>
0.0000

> <Gold.Chemscore.DEClash>
0.0886

> <Gold.Chemscore.DEInternal>
0.2890

> <Gold.Chemscore.Rot>
1.2786

> <Gold.Chemscore.Internal.Correction>
   9.000000E+99

> <Gold.Chemscore.Hbonds>
donor molecule, donor type, donor heavy atom, donor atom, acceptor molecule, acceptor atom, score
      L1  H     4    38       P1  8028  0.01
      L1  H     8    26       P1  7948  0.03

> <Gold.Chemscore.Hbond.Weighted>
-9.4099

> <Gold.Chemscore.Metal.Weighted>
-0.0000

> <Gold.Chemscore.Lipo.Weighted>
-8.9889

> <Gold.Chemscore.Internal_Hbond.Weighted>
0.0000

> <Gold.Chemscore.DEClash.Weighted>
0.0886

> <Gold.Chemscore.DEInternal.Weighted>
0.2890

> <Gold.Chemscore.Rot.Weighted>
3.2733

> <Gold.Chemscore.Internal.Correction.Weighted>
   9.000000E+99

> <Gold.Protein.RotatedTorsions>
[ 6907 6896 6895 6894 ] final -163.80 input  -60.11 | X-H torsion
[ 7974 7965 7964 7962 ] final   77.65 input  175.53 | X-H torsion
[ 8008 7997 7996 7995 ] final   29.49 input   59.86 | X-H torsion
[ 10167 10162 10161 10158 ] final  164.37 input  -65.29 | X-H torsion
[ 10718 10713 10712 10709 ] final    9.58 input   66.30 | X-H torsion
[ 10763 10752 10751 10750 ] final   69.38 input  -60.55 | X-H torsion
[ 11005 11000 10999 10996 ] final  -90.08 input  -57.11 | X-H torsion

> <Gold.Protein.ActiveResidues>
 VAL166  LYS551  ARG553  GLY616  TRP617  ASP618  TYR619  PRO620  LYS621  CYS622 
 ASP623  PHE694  ASN695  SER759  ASP760  ASP761  ALA762  ILE779  LEU786  VAL792 
 PHE793  MET794  SER795  GLU796  ALA797  LYS798  CYS799  TRP800  GLU811  SER814 

> <Gold.Protein.RotatedAtoms>
  151.4018  133.3755  159.2732 H   0  0  0  0  0  0  0  0  0  0  0  0  # atno 6907 bound_to 6896
  150.9428  134.8836  159.7633 H   0  0  0  0  0  0  0  0  0  0  0  0  # atno 6908 bound_to 6896
  152.5078  134.3970  159.9455 H   0  0  0  0  0  0  0  0  0  0  0  0  # atno 6909 bound_to 6896
  145.6873  139.2542  143.1780 H   0  0  0  0  0  0  0  0  0  0  0  0  # atno 7974 bound_to 7965
  155.0754  140.3204  155.4617 H   0  0  0  0  0  0  0  0  0  0  0  0  # atno 8008 bound_to 7997
  156.2780  140.2104  156.5827 H   0  0  0  0  0  0  0  0  0  0  0  0  # atno 8009 bound_to 7997
  154.7021  140.0506  157.0455 H   0  0  0  0  0  0  0  0  0  0  0  0  # atno 8010 bound_to 7997
  139.4888  144.4242  151.9149 H   0  0  0  0  0  0  0  0  0  0  0  0  # atno 10167 bound_to 10162
  156.9685  130.5960  149.5667 H   0  0  0  0  0  0  0  0  0  0  0  0  # atno 10718 bound_to 10713
  153.0284  135.5213  154.7279 H   0  0  0  0  0  0  0  0  0  0  0  0  # atno 10763 bound_to 10752
  154.6315  135.2901  155.0213 H   0  0  0  0  0  0  0  0  0  0  0  0  # atno 10764 bound_to 10752
  154.1163  135.6614  153.4947 H   0  0  0  0  0  0  0  0  0  0  0  0  # atno 10765 bound_to 10752
  141.1573  133.7669  156.9686 H   0  0  0  0  0  0  0  0  0  0  0  0  # atno 11005 bound_to 11000
  146.0912  140.7653  142.9594 LP  0  0  0  0  0  0  0  0  0  0  0  0  # atno 17320 bound_to 7965
  144.7007  140.3640  143.7158 LP  0  0  0  0  0  0  0  0  0  0  0  0  # atno 17321 bound_to 7965
  140.3687  144.2882  150.5923 LP  0  0  0  0  0  0  0  0  0  0  0  0  # atno 17342 bound_to 10162
  140.5338  143.2237  151.8196 LP  0  0  0  0  0  0  0  0  0  0  0  0  # atno 17343 bound_to 10162
  156.0292  130.5385  150.8490 LP  0  0  0  0  0  0  0  0  0  0  0  0  # atno 17370 bound_to 10713
  157.5609  131.0946  150.9560 LP  0  0  0  0  0  0  0  0  0  0  0  0  # atno 17371 bound_to 10713
  140.1144  134.9456  157.2113 LP  0  0  0  0  0  0  0  0  0  0  0  0  # atno 17394 bound_to 11000
  140.3152  134.2979  155.7258 LP  0  0  0  0  0  0  0  0  0  0  0  0  # atno 17395 bound_to 11000

$$$$
