AV-unprocessed.smi:2439|AV-procd|sdf|9614|dock9
  -GOLD-   2272013243D 1   1.00000     0.00000
 Structure written by MMmdl.
 40 42  0  0  0  0  0  0  0  0  1 V2000
  149.5598  135.3256  158.0251 N   0  0  0  0  0  0  0  0  0  0  0  0
  150.1853  136.0444  157.3688 C   0  0  0  0  0  0  0  0  0  0  0  0
  150.9730  136.9501  156.5415 C   0  0  0  0  0  0  0  0  0  0  0  0
  150.6896  137.0357  155.1621 C   0  0  0  0  0  0  0  0  0  0  0  0
  151.4466  137.9079  154.3588 C   0  0  0  0  0  0  0  0  0  0  0  0
  152.4607  138.6656  154.9718 C   0  0  0  0  0  0  0  0  0  0  0  0
  152.7408  138.5949  156.2896 N   0  0  0  0  0  0  0  0  0  0  0  0
  152.0192  137.7534  157.0705 C   0  0  0  0  0  0  0  0  0  0  0  0
  152.3325  137.7011  158.4418 N   0  0  0  0  0  0  0  0  0  0  0  0
  153.0308  138.7903  159.1150 C   0  0  0  0  0  0  0  0  0  0  0  0
  152.2243  140.0993  159.1059 C   0  0  1  0  0  0  0  0  0  0  0  0
  152.8140  141.1355  160.0798 C   0  0  0  0  0  0  0  0  0  0  0  0
  152.0990  142.4040  160.0215 N   0  0  0  0  0  0  0  0  0  0  0  0
  152.6720  143.3806  160.9463 C   0  0  0  0  0  0  0  0  0  0  0  0
  151.9136  144.7174  160.9300 C   0  0  0  0  0  0  0  0  0  0  0  0
  151.8751  145.2911  159.5064 C   0  0  0  0  0  0  0  0  0  0  0  0
  151.3230  144.2414  158.5296 C   0  0  0  0  0  0  0  0  0  0  0  0
  152.1012  142.9146  158.6473 C   0  0  2  0  0  0  0  0  0  0  0  0
  151.5381  141.8637  157.6687 C   0  0  0  0  0  0  0  0  0  0  0  0
  152.2681  140.6472  157.7907 O   0  0  0  0  0  0  0  0  0  0  0  0
  149.9022  136.4420  154.7198 H   0  0  0  0  0  0  0  0  0  0  0  0
  151.2538  137.9945  153.2998 H   0  0  0  0  0  0  0  0  0  0  0  0
  153.0626  139.3475  154.3894 H   0  0  0  0  0  0  0  0  0  0  0  0
  152.2510  136.8194  158.9278 H   0  0  0  0  0  0  0  0  0  0  0  0
  153.2651  138.4945  160.1380 H   0  0  0  0  0  0  0  0  0  0  0  0
  153.9894  138.9439  158.6192 H   0  0  0  0  0  0  0  0  0  0  0  0
  151.1872  139.8999  159.3816 H   0  0  0  0  0  0  0  0  0  0  0  0
  152.7763  140.7402  161.0955 H   0  0  0  0  0  0  0  0  0  0  0  0
  153.8680  141.2946  159.8460 H   0  0  0  0  0  0  0  0  0  0  0  0
  152.6590  142.9769  161.9594 H   0  0  0  0  0  0  0  0  0  0  0  0
  153.7199  143.5557  160.6976 H   0  0  0  0  0  0  0  0  0  0  0  0
  150.8967  144.5656  161.2944 H   0  0  0  0  0  0  0  0  0  0  0  0
  152.3863  145.4272  161.6093 H   0  0  0  0  0  0  0  0  0  0  0  0
  151.2659  146.1949  159.4775 H   0  0  0  0  0  0  0  0  0  0  0  0
  152.8814  145.5808  159.2014 H   0  0  0  0  0  0  0  0  0  0  0  0
  150.2666  144.0688  158.7411 H   0  0  0  0  0  0  0  0  0  0  0  0
  151.3776  144.6226  157.5093 H   0  0  0  0  0  0  0  0  0  0  0  0
  153.1344  143.1104  158.3545 H   0  0  0  0  0  0  0  0  0  0  0  0
  150.4801  141.6778  157.8602 H   0  0  0  0  0  0  0  0  0  0  0  0
  151.6191  142.2183  156.6408 H   0  0  0  0  0  0  0  0  0  0  0  0
  1  2  3  0  0  0  0
  2  3  1  0  0  0  0
  3  8  1  0  0  0  0
  3  4  2  0  0  0  0
  4  5  1  0  0  0  0
  4 21  1  0  0  0  0
  5  6  2  0  0  0  0
  5 22  1  0  0  0  0
  6  7  1  0  0  0  0
  6 23  1  0  0  0  0
  7  8  2  0  0  0  0
  8  9  1  0  0  0  0
  9 10  1  0  0  0  0
  9 24  1  0  0  0  0
 10 11  1  0  0  0  0
 10 25  1  0  0  0  0
 10 26  1  0  0  0  0
 11 20  1  0  0  0  0
 11 12  1  0  0  0  0
 11 27  1  0  0  0  0
 12 13  1  0  0  0  0
 12 28  1  0  0  0  0
 12 29  1  0  0  0  0
 13 18  1  0  0  0  0
 13 14  1  0  0  0  0
 14 15  1  0  0  0  0
 14 30  1  0  0  0  0
 14 31  1  0  0  0  0
 15 16  1  0  0  0  0
 15 32  1  0  0  0  0
 15 33  1  0  0  0  0
 16 17  1  0  0  0  0
 16 34  1  0  0  0  0
 16 35  1  0  0  0  0
 17 18  1  0  0  0  0
 17 36  1  0  0  0  0
 17 37  1  0  0  0  0
 18 19  1  0  0  0  0
 18 38  1  0  0  0  0
 19 20  1  0  0  0  0
 19 39  1  0  0  0  0
 19 40  1  0  0  0  0
M  END
> <s_m_source_file>
AV-unprocessed.smi

> <i_m_source_file_index>
2439

> <i_lp_mmshare_version>
43012

> <i_f3d_flags>
0

> <s_epik_input>
TiNDYzFbY0hdW2NIXVtjSF1uYzFbTkhdW0NIMl1bQ0BIXShbQ0gyXTIpT1tDSDJdW0NAQEhdKE4yMylbQ0gyXVtDSDJdW0NIMl1bQ0gyXTM=

> <s_epik_cmdline>
J2VwaWtfcHl0aG9uJywgJy1waCcsICc3LjAnLCAnLXRuJywgJzgnLCAnLW1hJywgJzIwMCcsICctbWV0YWxfYmluZGluZycsICctaW1hZScsICc8aW5maWxlLm1hZT4nLCAnLW9tYWUnLCAnPG91dGZpbGUubWFlPic=

> <r_epik_Ionization_Penalty>
1.22355

> <r_epik_Ionization_Penalty_Charging>
0

> <r_epik_Ionization_Penalty_Neutral>
1.22355

> <r_epik_State_Penalty>
1.29103

> <r_epik_Charging_Adjusted_Penalty>
1.29103

> <i_epik_Tot_Q>
0

> <i_epik_Tot_abs_Q>
0

> <r_epik_Metal_State_Penalty>
1.29103

> <b_epik_Metal_Only>
0

> <s_lp_Force_Field>
OPLS_2005

> <r_lp_Energy>
37.4095

> <b_lp_Chiralities_Consistent>
1

> <s_lp_Variant>
AV-unprocessed.smi:2439-12

> <Gold.Version>
5.8.1

> <Gold.Id.Protein>
6NUR|6NUR_protein|mol2

> <Gold.PLP.Fitness>
44.8088

> <Gold.PLP.PLP>
-39.2010

> <Gold.PLP.part.hbond>
-2.4252

> <Gold.PLP.part.metal>
0.0000

> <Gold.PLP.part.buried>
-5.6367

> <Gold.PLP.part.nonpolar>
-32.1541

> <Gold.PLP.part.repulsive>
0.0896

> <Gold.PLP.ligand.clash>
0.0000

> <Gold.PLP.ligand.torsion>
0.1967

> <Gold.PLP.Chemscore.Hbond>
2.0000

> <Gold.PLP.Chemscore.CHOScore>
0.0000

> <Gold.PLP.Chemscore.Metal>
0.0000

> <Gold.Chemscore.Hbonds>
donor molecule, donor type, donor heavy atom, donor atom, acceptor molecule, acceptor atom, score
      P1  H  6896  6907       L1     1  1.00
      P1  H  7997  8010       L1     7  0.55

> <Gold.PLP.Chemscore.Internal.Correction>
0.0012

> <Gold.Rescore>
     Score         DG    S(hbond)    S(metal)    S(lipo)     H(rot)  DE(clash)    DE(int)     intcor
     18.52     -21.80       1.85        0.00     114.05       1.25       0.53       2.74       ----

> <Gold.Chemscore.Fitness>
18.5184

> <Gold.Chemscore.DG>
-21.7954

> <Gold.Chemscore.ZeroCoef>
-5.4800

> <Gold.Chemscore.Hbond>
1.8465

> <Gold.Chemscore.Metal>
0.0000

> <Gold.Chemscore.Lipo>
114.0536

> <Gold.Chemscore.Internal_Hbond>
0.0000

> <Gold.Chemscore.DEClash>
0.5331

> <Gold.Chemscore.DEInternal>
2.7439

> <Gold.Chemscore.Rot>
1.2485

> <Gold.Chemscore.Internal.Correction>
   9.000000E+99

> <Gold.Chemscore.Hbonds>
donor molecule, donor type, donor heavy atom, donor atom, acceptor molecule, acceptor atom, score
      P1  H  6896  6907       L1     1  0.76
      P1  H  7997  8010       L1     7  0.22

> <Gold.Chemscore.Hbond.Weighted>
-6.1672

> <Gold.Chemscore.Metal.Weighted>
-0.0000

> <Gold.Chemscore.Lipo.Weighted>
-13.3443

> <Gold.Chemscore.Internal_Hbond.Weighted>
0.0000

> <Gold.Chemscore.DEClash.Weighted>
0.5331

> <Gold.Chemscore.DEInternal.Weighted>
2.7439

> <Gold.Chemscore.Rot.Weighted>
3.1961

> <Gold.Chemscore.Internal.Correction.Weighted>
   9.000000E+99

> <Gold.Protein.RotatedTorsions>
[ 6907 6896 6895 6894 ] final  -77.53 input  -60.11 | X-H torsion
[ 7974 7965 7964 7962 ] final  -19.82 input  175.53 | X-H torsion
[ 8008 7997 7996 7995 ] final   65.43 input   59.86 | X-H torsion
[ 10167 10162 10161 10158 ] final -165.04 input  -65.29 | X-H torsion
[ 10718 10713 10712 10709 ] final   84.75 input   66.30 | X-H torsion
[ 10763 10752 10751 10750 ] final   86.24 input  -60.55 | X-H torsion
[ 11005 11000 10999 10996 ] final -117.55 input  -57.11 | X-H torsion

> <Gold.Protein.ActiveResidues>
 VAL166  LYS551  ARG553  GLY616  TRP617  ASP618  TYR619  PRO620  LYS621  CYS622 
 ASP623  PHE694  ASN695  SER759  ASP760  ASP761  ALA762  ILE779  LEU786  VAL792 
 PHE793  MET794  SER795  GLU796  ALA797  LYS798  CYS799  TRP800  GLU811  SER814 

> <Gold.Protein.RotatedAtoms>
  150.6996  134.4408  159.5291 H   0  0  0  0  0  0  0  0  0  0  0  0  # atno 6907 bound_to 6896
  152.2118  134.8491  160.0505 H   0  0  0  0  0  0  0  0  0  0  0  0  # atno 6908 bound_to 6896
  151.9374  133.3593  159.3989 H   0  0  0  0  0  0  0  0  0  0  0  0  # atno 6909 bound_to 6896
  146.1821  140.4116  142.8490 H   0  0  0  0  0  0  0  0  0  0  0  0  # atno 7974 bound_to 7965
  155.6617  140.3497  155.4785 H   0  0  0  0  0  0  0  0  0  0  0  0  # atno 8008 bound_to 7997
  155.9763  140.1165  157.0790 H   0  0  0  0  0  0  0  0  0  0  0  0  # atno 8009 bound_to 7997
  154.4179  140.1147  156.5361 H   0  0  0  0  0  0  0  0  0  0  0  0  # atno 8010 bound_to 7997
  139.6209  144.0626  152.1932 H   0  0  0  0  0  0  0  0  0  0  0  0  # atno 10167 bound_to 10162
  157.6903  131.0146  150.2720 H   0  0  0  0  0  0  0  0  0  0  0  0  # atno 10718 bound_to 10713
  153.1552  135.4587  154.9693 H   0  0  0  0  0  0  0  0  0  0  0  0  # atno 10763 bound_to 10752
  154.7855  135.3202  154.7897 H   0  0  0  0  0  0  0  0  0  0  0  0  # atno 10764 bound_to 10752
  153.8396  135.6931  153.4859 H   0  0  0  0  0  0  0  0  0  0  0  0  # atno 10765 bound_to 10752
  141.0347  133.9928  157.3090 H   0  0  0  0  0  0  0  0  0  0  0  0  # atno 11005 bound_to 11000
  144.8333  140.6741  143.6277 LP  0  0  0  0  0  0  0  0  0  0  0  0  # atno 17320 bound_to 7965
  145.4046  139.1591  143.4159 LP  0  0  0  0  0  0  0  0  0  0  0  0  # atno 17321 bound_to 7965
  140.0268  144.6111  150.7521 LP  0  0  0  0  0  0  0  0  0  0  0  0  # atno 17342 bound_to 10162
  140.7381  143.2774  151.3700 LP  0  0  0  0  0  0  0  0  0  0  0  0  # atno 17343 bound_to 10162
  156.3281  130.3796  149.7515 LP  0  0  0  0  0  0  0  0  0  0  0  0  # atno 17370 bound_to 10713
  156.5063  130.8152  151.3152 LP  0  0  0  0  0  0  0  0  0  0  0  0  # atno 17371 bound_to 10713
  139.9232  135.0201  156.8140 LP  0  0  0  0  0  0  0  0  0  0  0  0  # atno 17394 bound_to 11000
  140.6344  133.9876  155.7677 LP  0  0  0  0  0  0  0  0  0  0  0  0  # atno 17395 bound_to 11000

$$$$
