AV-unprocessed.smi:283|AV-procd|sdf|2144|dock6
  -GOLD-   2262021473D 1   1.00000     0.00000
 Structure written by MMmdl.
 48 51  0  0  0  0  0  0  0  0  1 V2000
  151.9069  143.8331  157.4845 C   0  0  0  0  0  0  0  0  0  0  0  0
  151.3639  142.7283  158.4007 C   0  0  1  0  0  0  0  0  0  0  0  0
  151.4630  141.4353  157.7262 N   0  0  0  0  0  0  0  0  0  0  0  0
  150.5905  141.0947  156.7521 C   0  0  0  0  0  0  0  0  0  0  0  0
  150.1161  142.1197  156.0049 N   0  0  0  0  0  0  0  0  0  0  0  0
  149.2708  141.8805  154.9990 C   0  0  0  0  0  0  0  0  0  0  0  0
  148.7815  140.7119  154.5818 N   0  0  0  0  0  0  0  0  0  0  0  0
  149.2399  139.6744  155.3400 C   0  0  0  0  0  0  0  0  0  0  0  0
  150.1367  139.7788  156.4418 C   0  0  0  0  0  0  0  0  0  0  0  0
  150.3572  138.5137  156.9741 N   0  0  0  0  0  0  0  0  0  0  0  0
  149.6498  137.7162  156.2224 C   0  0  0  0  0  0  0  0  0  0  0  0
  148.9507  138.3310  155.2095 N   0  0  0  0  0  0  0  0  0  0  0  0
  148.0718  137.6840  154.1897 C   0  0  1  0  0  0  0  0  0  0  0  0
  147.1078  136.9325  154.8582 O   0  0  0  0  0  0  0  0  0  0  0  0
  145.8540  137.0291  154.1912 C   0  0  2  0  0  0  0  0  0  0  0  0
  145.7648  135.9197  153.1253 C   0  0  0  0  0  0  0  0  0  0  0  0
  144.5836  136.0740  152.3686 O   0  0  0  0  0  0  0  0  0  0  0  0
  145.8735  138.4387  153.5835 C   0  0  1  0  0  0  0  0  0  0  0  0
  145.3184  139.3518  154.5091 O   0  0  0  0  0  0  0  0  0  0  0  0
  147.3499  138.7414  153.3388 C   0  0  2  0  0  0  0  0  0  0  0  0
  147.6446  138.5739  151.9663 O   0  0  0  0  0  0  0  0  0  0  0  0
  152.0469  142.7906  159.7703 C   0  0  0  0  0  0  0  0  0  0  0  0
  152.8216  141.6963  160.2218 C   0  0  0  0  0  0  0  0  0  0  0  0
  153.4521  141.7318  161.4795 C   0  0  0  0  0  0  0  0  0  0  0  0
  153.3230  142.8679  162.2981 C   0  0  0  0  0  0  0  0  0  0  0  0
  152.5688  143.9692  161.8531 C   0  0  0  0  0  0  0  0  0  0  0  0
  151.9353  143.9392  160.5945 C   0  0  0  0  0  0  0  0  0  0  0  0
  151.0353  145.3284  160.0945 Cl  0  0  0  0  0  0  0  0  0  0  0  0
  148.7351  137.0339  153.6169 H   0  0  0  0  0  0  0  0  0  0  0  0
  145.0314  136.9196  154.9003 H   0  0  0  0  0  0  0  0  0  0  0  0
  145.2745  138.5047  152.6738 H   0  0  0  0  0  0  0  0  0  0  0  0
  147.6243  139.7536  153.6419 H   0  0  0  0  0  0  0  0  0  0  0  0
  151.7609  144.8179  157.9295 H   0  0  0  0  0  0  0  0  0  0  0  0
  151.3981  143.8307  156.5200 H   0  0  0  0  0  0  0  0  0  0  0  0
  152.9741  143.7069  157.2994 H   0  0  0  0  0  0  0  0  0  0  0  0
  150.2997  142.9205  158.5243 H   0  0  0  0  0  0  0  0  0  0  0  0
  151.9875  140.7374  158.2332 H   0  0  0  0  0  0  0  0  0  0  0  0
  148.9428  142.7488  154.4467 H   0  0  0  0  0  0  0  0  0  0  0  0
  149.6230  136.6485  156.3859 H   0  0  0  0  0  0  0  0  0  0  0  0
  146.6029  135.9948  152.4320 H   0  0  0  0  0  0  0  0  0  0  0  0
  145.8023  134.9237  153.5670 H   0  0  0  0  0  0  0  0  0  0  0  0
  143.8541  136.1491  152.9649 H   0  0  0  0  0  0  0  0  0  0  0  0
  144.7657  139.9569  154.0364 H   0  0  0  0  0  0  0  0  0  0  0  0
  147.9064  137.6772  151.8231 H   0  0  0  0  0  0  0  0  0  0  0  0
  152.9341  140.8169  159.6050 H   0  0  0  0  0  0  0  0  0  0  0  0
  154.0353  140.8868  161.8150 H   0  0  0  0  0  0  0  0  0  0  0  0
  153.8059  142.8973  163.2638 H   0  0  0  0  0  0  0  0  0  0  0  0
  152.4780  144.8432  162.4813 H   0  0  0  0  0  0  0  0  0  0  0  0
  1  2  1  0  0  0  0
  1 33  1  0  0  0  0
  1 34  1  0  0  0  0
  1 35  1  0  0  0  0
  2  3  1  0  0  0  0
  2 22  1  0  0  0  0
  2 36  1  0  0  0  0
  3  4  1  0  0  0  0
  3 37  1  0  0  0  0
  4  9  1  0  0  0  0
  4  5  2  0  0  0  0
  5  6  1  0  0  0  0
  6  7  2  0  0  0  0
  6 38  1  0  0  0  0
  7  8  1  0  0  0  0
  8 12  1  0  0  0  0
  8  9  2  0  0  0  0
  9 10  1  0  0  0  0
 10 11  2  0  0  0  0
 11 12  1  0  0  0  0
 11 39  1  0  0  0  0
 12 13  1  0  0  0  0
 13 29  1  0  0  0  0
 13 20  1  0  0  0  0
 13 14  1  0  0  0  0
 14 15  1  0  0  0  0
 15 30  1  0  0  0  0
 15 16  1  0  0  0  0
 15 18  1  0  0  0  0
 16 17  1  0  0  0  0
 16 40  1  0  0  0  0
 16 41  1  0  0  0  0
 17 42  1  0  0  0  0
 18 31  1  0  0  0  0
 18 19  1  0  0  0  0
 18 20  1  0  0  0  0
 19 43  1  0  0  0  0
 20 32  1  0  0  0  0
 20 21  1  0  0  0  0
 21 44  1  0  0  0  0
 22 27  1  0  0  0  0
 22 23  2  0  0  0  0
 23 24  1  0  0  0  0
 23 45  1  0  0  0  0
 24 25  2  0  0  0  0
 24 46  1  0  0  0  0
 25 26  1  0  0  0  0
 25 47  1  0  0  0  0
 26 27  2  0  0  0  0
 26 48  1  0  0  0  0
 27 28  1  0  0  0  0
M  END
> <s_m_source_file>
AV-unprocessed.smi

> <i_m_source_file_index>
283

> <i_lp_mmshare_version>
43012

> <i_f3d_flags>
0

> <s_epik_input>
Q2xjMVtjSF1bY0hdW2NIXVtjSF1jMVtDQEhdKFtDSDNdKVtOSF1jKG5bY0hdbjIpYyhjMjMpbltjSF1uM1tDQEBIXTRPW0NASF0oW0NIMl1bT0hdKVtDQEBIXShbT0hdKVtDQEhdNFtPSF0=

> <s_epik_cmdline>
J2VwaWtfcHl0aG9uJywgJy1waCcsICc3LjAnLCAnLXRuJywgJzgnLCAnLW1hJywgJzIwMCcsICctbWV0YWxfYmluZGluZycsICctaW1hZScsICc8aW5maWxlLm1hZT4nLCAnLW9tYWUnLCAnPG91dGZpbGUubWFlPic=

> <r_lp_tautomer_probability>
1

> <r_epik_Ionization_Penalty>
0.000266407

> <r_epik_Ionization_Penalty_Charging>
0

> <r_epik_Ionization_Penalty_Neutral>
0.000266407

> <r_epik_State_Penalty>
-0

> <r_epik_Charging_Adjusted_Penalty>
0

> <i_epik_Tot_Q>
0

> <i_epik_Tot_abs_Q>
0

> <r_epik_Metal_State_Penalty>
-0

> <b_epik_Metal_Only>
0

> <s_epik_Chemistry_Notes>
This compound contains an acetal/aminal-like group ( X-CH(R)-Y where X, Y are N, S, or O) that may be acid/base labile, releasing an aldehyde.

> <s_lp_Force_Field>
OPLS_2005

> <r_lp_Energy>
38.3642

> <b_lp_Chiralities_Consistent>
1

> <s_lp_Variant>
AV-unprocessed.smi:283-20

> <Gold.Version>
5.8.1

> <Gold.Id.Protein>
6NUR|6NUR_protein|mol2

> <Gold.PLP.Fitness>
48.2448

> <Gold.PLP.PLP>
-41.6361

> <Gold.PLP.part.hbond>
-3.6878

> <Gold.PLP.part.metal>
0.0000

> <Gold.PLP.part.buried>
-3.0388

> <Gold.PLP.part.nonpolar>
-36.2915

> <Gold.PLP.part.repulsive>
1.6660

> <Gold.PLP.ligand.clash>
0.5659

> <Gold.PLP.ligand.torsion>
0.5729

> <Gold.PLP.Chemscore.Hbond>
2.0000

> <Gold.PLP.Chemscore.CHOScore>
0.7352

> <Gold.PLP.Chemscore.Metal>
0.0000

> <Gold.Chemscore.Hbonds>
donor molecule, donor type, donor heavy atom, donor atom, acceptor molecule, acceptor atom, score
      L1  H    19    43       P1 10175  1.00
      L1  H    21    44       P1  7948  1.00
      L1  C     6    38       P1  8028  0.73

> <Gold.PLP.Chemscore.Internal.Correction>
0.1148

> <Gold.Rescore>
     Score         DG    S(hbond)    S(metal)    S(lipo)     H(rot)  DE(clash)    DE(int)     intcor
      9.80     -14.61       1.99        0.00     110.98       4.10       1.41       3.40       ----

> <Gold.Chemscore.Fitness>
9.8008

> <Gold.Chemscore.DG>
-14.6133

> <Gold.Chemscore.ZeroCoef>
-5.4800

> <Gold.Chemscore.Hbond>
1.9869

> <Gold.Chemscore.Metal>
0.0000

> <Gold.Chemscore.Lipo>
110.9831

> <Gold.Chemscore.Internal_Hbond>
0.0000

> <Gold.Chemscore.DEClash>
1.4077

> <Gold.Chemscore.DEInternal>
3.4048

> <Gold.Chemscore.Rot>
4.0968

> <Gold.Chemscore.Internal.Correction>
   9.000000E+99

> <Gold.Chemscore.Hbonds>
donor molecule, donor type, donor heavy atom, donor atom, acceptor molecule, acceptor atom, score
      L1  H    19    43       P1 10175  0.95
      L1  H    21    44       P1  7948  0.99

> <Gold.Chemscore.Hbond.Weighted>
-6.6362

> <Gold.Chemscore.Metal.Weighted>
-0.0000

> <Gold.Chemscore.Lipo.Weighted>
-12.9850

> <Gold.Chemscore.Internal_Hbond.Weighted>
0.0000

> <Gold.Chemscore.DEClash.Weighted>
1.4077

> <Gold.Chemscore.DEInternal.Weighted>
3.4048

> <Gold.Chemscore.Rot.Weighted>
10.4879

> <Gold.Chemscore.Internal.Correction.Weighted>
   9.000000E+99

> <Gold.Protein.RotatedTorsions>
[ 6907 6896 6895 6894 ] final   14.62 input  -60.11 | X-H torsion
[ 7974 7965 7964 7962 ] final  -82.40 input  175.53 | X-H torsion
[ 8008 7997 7996 7995 ] final  174.51 input   59.86 | X-H torsion
[ 10167 10162 10161 10158 ] final  160.26 input  -65.29 | X-H torsion
[ 10718 10713 10712 10709 ] final  -44.22 input   66.30 | X-H torsion
[ 10763 10752 10751 10750 ] final  162.63 input  -60.55 | X-H torsion
[ 11005 11000 10999 10996 ] final  -43.75 input  -57.11 | X-H torsion

> <Gold.Protein.ActiveResidues>
 VAL166  LYS551  ARG553  GLY616  TRP617  ASP618  TYR619  PRO620  LYS621  CYS622 
 ASP623  PHE694  ASN695  SER759  ASP760  ASP761  ALA762  ILE779  LEU786  VAL792 
 PHE793  MET794  SER795  GLU796  ALA797  LYS798  CYS799  TRP800  GLU811  SER814 

> <Gold.Protein.RotatedAtoms>
  151.8051  135.0697  160.0405 H   0  0  0  0  0  0  0  0  0  0  0  0  # atno 6907 bound_to 6896
  152.3061  133.5700  159.5658 H   0  0  0  0  0  0  0  0  0  0  0  0  # atno 6908 bound_to 6896
  150.7297  134.0137  159.3720 H   0  0  0  0  0  0  0  0  0  0  0  0  # atno 6909 bound_to 6896
  145.5338  140.9518  143.1588 H   0  0  0  0  0  0  0  0  0  0  0  0  # atno 7974 bound_to 7965
  156.0967  140.1432  156.9522 H   0  0  0  0  0  0  0  0  0  0  0  0  # atno 8008 bound_to 7997
  154.4676  140.0921  156.7106 H   0  0  0  0  0  0  0  0  0  0  0  0  # atno 8009 bound_to 7997
  155.4830  140.3445  155.4345 H   0  0  0  0  0  0  0  0  0  0  0  0  # atno 8010 bound_to 7997
  139.4838  144.4651  151.8652 H   0  0  0  0  0  0  0  0  0  0  0  0  # atno 10167 bound_to 10162
  156.2408  130.4180  149.8763 H   0  0  0  0  0  0  0  0  0  0  0  0  # atno 10718 bound_to 10713
  154.2814  135.2763  155.2695 H   0  0  0  0  0  0  0  0  0  0  0  0  # atno 10763 bound_to 10752
  154.5215  135.5755  153.6688 H   0  0  0  0  0  0  0  0  0  0  0  0  # atno 10764 bound_to 10752
  152.9928  135.6205  154.2973 H   0  0  0  0  0  0  0  0  0  0  0  0  # atno 10765 bound_to 10752
  141.0405  133.6782  156.2777 H   0  0  0  0  0  0  0  0  0  0  0  0  # atno 11005 bound_to 11000
  144.7612  139.6953  143.7233 LP  0  0  0  0  0  0  0  0  0  0  0  0  # atno 17320 bound_to 7965
  146.2026  139.5331  142.9733 LP  0  0  0  0  0  0  0  0  0  0  0  0  # atno 17321 bound_to 7965
  140.4116  144.2361  150.5889 LP  0  0  0  0  0  0  0  0  0  0  0  0  # atno 17342 bound_to 10162
  140.4961  143.2332  151.8748 LP  0  0  0  0  0  0  0  0  0  0  0  0  # atno 17343 bound_to 10162
  156.6345  130.8679  151.3502 LP  0  0  0  0  0  0  0  0  0  0  0  0  # atno 17370 bound_to 10713
  157.7174  130.9515  150.1308 LP  0  0  0  0  0  0  0  0  0  0  0  0  # atno 17371 bound_to 10713
  140.6243  134.5329  157.5551 LP  0  0  0  0  0  0  0  0  0  0  0  0  # atno 17394 bound_to 11000
  139.9272  134.8033  156.1034 LP  0  0  0  0  0  0  0  0  0  0  0  0  # atno 17395 bound_to 11000

$$$$
