AV-unprocessed.smi:3026|AV-procd|sdf|11513|dock7
  -GOLD-   2272016453D 1   1.00000     0.00000
 Structure written by MMmdl.
 33 34  0  0  0  0  0  0  0  0  1 V2000
  149.4700  141.3958  155.1168 C   0  0  0  0  0  0  0  0  0  0  0  0
  150.6547  140.7518  155.8042 C   0  0  0  0  0  0  0  0  0  0  0  0
  151.2510  139.5772  155.3013 C   0  0  0  0  0  0  0  0  0  0  0  0
  152.3448  139.0737  156.0334 C   0  0  0  0  0  0  0  0  0  0  0  0
  152.7950  139.6840  157.1511 N   0  0  0  0  0  0  0  0  0  0  0  0
  152.1623  140.7983  157.5346 C   0  0  0  0  0  0  0  0  0  0  0  0
  152.6273  141.3934  158.7010 N   0  0  0  0  0  0  0  0  0  0  0  0
  152.9101  140.4181  159.7504 C   0  0  0  0  0  0  0  0  0  0  0  0
  153.7114  141.0528  160.8925 C   0  0  0  0  0  0  0  0  0  0  0  0
  152.9794  142.1568  161.4007 O   0  0  0  0  0  0  0  0  0  0  0  0
  152.8074  143.1651  160.4137 C   0  0  0  0  0  0  0  0  0  0  0  0
  152.0057  142.6312  159.2002 C   0  0  1  0  0  0  0  0  0  0  0  0
  151.9000  143.7223  158.0983 C   0  0  0  0  0  0  0  0  0  0  0  0
  151.4363  145.1049  158.5900 C   0  0  0  0  0  0  0  0  0  0  0  0
  150.0771  145.0668  158.9703 O   0  0  0  0  0  0  0  0  0  0  0  0
  151.1082  141.3556  156.9239 N   0  0  0  0  0  0  0  0  0  0  0  0
  149.3507  141.0142  154.1025 H   0  0  0  0  0  0  0  0  0  0  0  0
  149.6005  142.4769  155.0593 H   0  0  0  0  0  0  0  0  0  0  0  0
  148.5550  141.1880  155.6718 H   0  0  0  0  0  0  0  0  0  0  0  0
  150.8923  139.0876  154.4079 H   0  0  0  0  0  0  0  0  0  0  0  0
  152.8594  138.1767  155.7218 H   0  0  0  0  0  0  0  0  0  0  0  0
  151.9680  140.0215  160.1314 H   0  0  0  0  0  0  0  0  0  0  0  0
  153.4675  139.5743  159.3416 H   0  0  0  0  0  0  0  0  0  0  0  0
  153.8643  140.3288  161.6927 H   0  0  0  0  0  0  0  0  0  0  0  0
  154.6990  141.3699  160.5532 H   0  0  0  0  0  0  0  0  0  0  0  0
  152.2840  143.9943  160.8875 H   0  0  0  0  0  0  0  0  0  0  0  0
  153.7824  143.5438  160.1017 H   0  0  0  0  0  0  0  0  0  0  0  0
  151.0017  142.3728  159.5399 H   0  0  0  0  0  0  0  0  0  0  0  0
  152.8698  143.8285  157.6104 H   0  0  0  0  0  0  0  0  0  0  0  0
  151.2116  143.4170  157.3110 H   0  0  0  0  0  0  0  0  0  0  0  0
  152.0408  145.4658  159.4210 H   0  0  0  0  0  0  0  0  0  0  0  0
  151.5449  145.8347  157.7876 H   0  0  0  0  0  0  0  0  0  0  0  0
  149.5853  145.6240  158.3862 H   0  0  0  0  0  0  0  0  0  0  0  0
  1  2  1  0  0  0  0
  1 17  1  0  0  0  0
  1 18  1  0  0  0  0
  1 19  1  0  0  0  0
  2 16  1  0  0  0  0
  2  3  2  0  0  0  0
  3  4  1  0  0  0  0
  3 20  1  0  0  0  0
  4  5  2  0  0  0  0
  4 21  1  0  0  0  0
  5  6  1  0  0  0  0
  6  7  1  0  0  0  0
  6 16  2  0  0  0  0
  7 12  1  0  0  0  0
  7  8  1  0  0  0  0
  8  9  1  0  0  0  0
  8 22  1  0  0  0  0
  8 23  1  0  0  0  0
  9 10  1  0  0  0  0
  9 24  1  0  0  0  0
  9 25  1  0  0  0  0
 10 11  1  0  0  0  0
 11 12  1  0  0  0  0
 11 26  1  0  0  0  0
 11 27  1  0  0  0  0
 12 13  1  0  0  0  0
 12 28  1  0  0  0  0
 13 14  1  0  0  0  0
 13 29  1  0  0  0  0
 13 30  1  0  0  0  0
 14 15  1  0  0  0  0
 14 31  1  0  0  0  0
 14 32  1  0  0  0  0
 15 33  1  0  0  0  0
M  END
> <s_m_source_file>
AV-unprocessed.smi

> <i_m_source_file_index>
3026

> <i_lp_mmshare_version>
43012

> <i_f3d_flags>
0

> <s_epik_input>
W0NIM11jMVtjSF1bY0hdbmMobjEpTjJbQ0gyXVtDSDJdT1tDSDJdW0NASF0yW0NIMl1bQ0gyXVtPSF0=

> <s_epik_cmdline>
J2VwaWtfcHl0aG9uJywgJy1waCcsICc3LjAnLCAnLXRuJywgJzgnLCAnLW1hJywgJzIwMCcsICctbWV0YWxfYmluZGluZycsICctaW1hZScsICc8aW5maWxlLm1hZT4nLCAnLW9tYWUnLCAnPG91dGZpbGUubWFlPic=

> <r_lp_tautomer_probability>
1

> <r_epik_Ionization_Penalty>
6.52665e-05

> <r_epik_Ionization_Penalty_Charging>
0

> <r_epik_Ionization_Penalty_Neutral>
6.52665e-05

> <r_epik_State_Penalty>
-0

> <r_epik_Charging_Adjusted_Penalty>
0

> <i_epik_Tot_Q>
0

> <i_epik_Tot_abs_Q>
0

> <r_epik_Metal_State_Penalty>
-0

> <b_epik_Metal_Only>
0

> <s_lp_Force_Field>
OPLS_2005

> <r_lp_Energy>
15.2375

> <b_lp_Chiralities_Consistent>
1

> <s_lp_Variant>
AV-unprocessed.smi:3026-1

> <Gold.Version>
5.8.1

> <Gold.Id.Protein>
6NUR|6NUR_protein|mol2

> <Gold.PLP.Fitness>
41.5133

> <Gold.PLP.PLP>
-35.7649

> <Gold.PLP.part.hbond>
-2.0000

> <Gold.PLP.part.metal>
0.0000

> <Gold.PLP.part.buried>
-4.4736

> <Gold.PLP.part.nonpolar>
-29.0750

> <Gold.PLP.part.repulsive>
0.0731

> <Gold.PLP.ligand.clash>
0.0000

> <Gold.PLP.ligand.torsion>
0.2819

> <Gold.PLP.Chemscore.Hbond>
2.0000

> <Gold.PLP.Chemscore.CHOScore>
0.0000

> <Gold.PLP.Chemscore.Metal>
0.0000

> <Gold.Chemscore.Hbonds>
donor molecule, donor type, donor heavy atom, donor atom, acceptor molecule, acceptor atom, score
      L1  H    15    33       P1  8029  0.99
      P1  H  7997  8010       L1     5  1.00

> <Gold.PLP.Chemscore.Internal.Correction>
0.3122

> <Gold.Rescore>
     Score         DG    S(hbond)    S(metal)    S(lipo)     H(rot)  DE(clash)    DE(int)     intcor
     14.95     -16.55       1.73        0.00      88.80       1.99       0.00       1.60       ----

> <Gold.Chemscore.Fitness>
14.9518

> <Gold.Chemscore.DG>
-16.5528

> <Gold.Chemscore.ZeroCoef>
-5.4800

> <Gold.Chemscore.Hbond>
1.7270

> <Gold.Chemscore.Metal>
0.0000

> <Gold.Chemscore.Lipo>
88.8007

> <Gold.Chemscore.Internal_Hbond>
0.0000

> <Gold.Chemscore.DEClash>
0.0038

> <Gold.Chemscore.DEInternal>
1.5972

> <Gold.Chemscore.Rot>
1.9864

> <Gold.Chemscore.Internal.Correction>
   9.000000E+99

> <Gold.Chemscore.Hbonds>
donor molecule, donor type, donor heavy atom, donor atom, acceptor molecule, acceptor atom, score
      L1  H    15    33       P1  8029  0.68
      P1  H  7997  8010       L1     5  0.18

> <Gold.Chemscore.Hbond.Weighted>
-5.7682

> <Gold.Chemscore.Metal.Weighted>
-0.0000

> <Gold.Chemscore.Lipo.Weighted>
-10.3897

> <Gold.Chemscore.Internal_Hbond.Weighted>
0.0000

> <Gold.Chemscore.DEClash.Weighted>
0.0038

> <Gold.Chemscore.DEInternal.Weighted>
1.5972

> <Gold.Chemscore.Rot.Weighted>
5.0851

> <Gold.Chemscore.Internal.Correction.Weighted>
   9.000000E+99

> <Gold.Protein.RotatedTorsions>
[ 6907 6896 6895 6894 ] final    3.03 input  -60.11 | X-H torsion
[ 7974 7965 7964 7962 ] final  170.75 input  175.53 | X-H torsion
[ 8008 7997 7996 7995 ] final   59.54 input   59.86 | X-H torsion
[ 10167 10162 10161 10158 ] final   86.12 input  -65.29 | X-H torsion
[ 10718 10713 10712 10709 ] final  -35.18 input   66.30 | X-H torsion
[ 10763 10752 10751 10750 ] final   72.80 input  -60.55 | X-H torsion
[ 11005 11000 10999 10996 ] final -116.87 input  -57.11 | X-H torsion

> <Gold.Protein.ActiveResidues>
 VAL166  LYS551  ARG553  GLY616  TRP617  ASP618  TYR619  PRO620  LYS621  CYS622 
 ASP623  PHE694  ASN695  SER759  ASP760  ASP761  ALA762  ILE779  LEU786  VAL792 
 PHE793  MET794  SER795  GLU796  ALA797  LYS798  CYS799  TRP800  GLU811  SER814 

> <Gold.Protein.RotatedAtoms>
  151.6184  135.1034  160.0096 H   0  0  0  0  0  0  0  0  0  0  0  0  # atno 6907 bound_to 6896
  152.4171  133.7051  159.6457 H   0  0  0  0  0  0  0  0  0  0  0  0  # atno 6908 bound_to 6896
  150.8059  133.8438  159.3227 H   0  0  0  0  0  0  0  0  0  0  0  0  # atno 6909 bound_to 6896
  144.7314  139.9248  143.6422 H   0  0  0  0  0  0  0  0  0  0  0  0  # atno 7974 bound_to 7965
  155.5678  140.3489  155.4507 H   0  0  0  0  0  0  0  0  0  0  0  0  # atno 8008 bound_to 7997
  156.0466  140.1308  157.0122 H   0  0  0  0  0  0  0  0  0  0  0  0  # atno 8009 bound_to 7997
  154.4415  140.1013  156.6300 H   0  0  0  0  0  0  0  0  0  0  0  0  # atno 8010 bound_to 7997
  139.8907  144.6387  150.8741 H   0  0  0  0  0  0  0  0  0  0  0  0  # atno 10167 bound_to 10162
  156.3417  130.4294  149.7781 H   0  0  0  0  0  0  0  0  0  0  0  0  # atno 10718 bound_to 10713
  153.0481  135.5086  154.7799 H   0  0  0  0  0  0  0  0  0  0  0  0  # atno 10763 bound_to 10752
  154.6682  135.2949  154.9779 H   0  0  0  0  0  0  0  0  0  0  0  0  # atno 10764 bound_to 10752
  154.0606  135.6691  153.4864 H   0  0  0  0  0  0  0  0  0  0  0  0  # atno 10765 bound_to 10752
  141.0393  133.9861  157.3020 H   0  0  0  0  0  0  0  0  0  0  0  0  # atno 11005 bound_to 11000
  146.0902  139.3891  143.0410 LP  0  0  0  0  0  0  0  0  0  0  0  0  # atno 17320 bound_to 7965
  145.7721  140.9892  143.1144 LP  0  0  0  0  0  0  0  0  0  0  0  0  # atno 17321 bound_to 7965
  140.7727  143.3512  151.2011 LP  0  0  0  0  0  0  0  0  0  0  0  0  # atno 17342 bound_to 10162
  139.7112  143.9374  152.2948 LP  0  0  0  0  0  0  0  0  0  0  0  0  # atno 17343 bound_to 10162
  156.5015  130.8131  151.3134 LP  0  0  0  0  0  0  0  0  0  0  0  0  # atno 17370 bound_to 10713
  157.7448  130.9943  150.2703 LP  0  0  0  0  0  0  0  0  0  0  0  0  # atno 17371 bound_to 10713
  139.9264  135.0201  156.8248 LP  0  0  0  0  0  0  0  0  0  0  0  0  # atno 17394 bound_to 11000
  140.6264  133.9946  155.7641 LP  0  0  0  0  0  0  0  0  0  0  0  0  # atno 17395 bound_to 11000

$$$$
