AV-unprocessed.smi:2829|AV-procd|sdf|10899|dock1
  -GOLD-   2272015343D 1   1.00000     0.00000
 Structure written by MMmdl.
 50 53  0  0  0  0  0  0  0  0  1 V2000
  146.1583  132.6810  149.9588 C   0  0  0  0  0  0  0  0  0  0  0  0
  145.2507  132.6146  151.2081 C   0  0  0  0  0  0  0  0  0  0  0  0
  144.0602  131.6940  150.8670 C   0  0  0  0  0  0  0  0  0  0  0  0
  146.0800  131.9959  152.3527 C   0  0  0  0  0  0  0  0  0  0  0  0
  144.7314  134.0000  151.6326 C   0  0  0  0  0  0  0  0  0  0  0  0
  145.0758  135.1957  150.9623 C   0  0  0  0  0  0  0  0  0  0  0  0
  144.5347  136.3978  151.4488 C   0  0  0  0  0  0  0  0  0  0  0  0
  143.6819  136.3455  152.5695 C   0  0  0  0  0  0  0  0  0  0  0  0
  143.1750  137.5961  153.0081 N   0  0  0  0  0  0  0  0  0  0  0  0
  142.3477  137.8416  154.0428 C   0  0  0  0  0  0  0  0  0  0  0  0
  141.8166  136.9768  154.7368 O   0  0  0  0  0  0  0  0  0  0  0  0
  142.1235  139.1477  154.2669 N   0  0  0  0  0  0  0  0  0  0  0  0
  141.2824  139.7457  155.3029 C   0  0  1  0  0  0  0  0  0  0  0  0
  140.6799  141.0792  154.8560 C   0  0  2  0  0  0  0  0  0  0  0  0
  140.9089  142.4974  155.2343 C   0  0  0  0  0  0  0  0  0  0  0  0
  139.4229  142.9306  155.3186 C   0  0  0  0  0  0  0  0  0  0  0  0
  138.6494  141.7098  155.2216 O   0  0  0  0  0  0  0  0  0  0  0  0
  139.5031  140.7098  155.7441 C   0  0  1  0  0  0  0  0  0  0  0  0
  139.7876  139.2733  155.2852 C   0  0  0  0  0  0  0  0  0  0  0  0
  139.3118  138.0691  156.1064 C   0  0  0  0  0  0  0  0  0  0  0  0
  139.0865  137.3103  154.7941 C   0  0  0  0  0  0  0  0  0  0  0  0
  139.0940  138.6540  154.0574 C   0  0  0  0  0  0  0  0  0  0  0  0
  143.3949  135.1612  153.1651 N   0  0  0  0  0  0  0  0  0  0  0  0
  143.9075  134.0150  152.7087 N   0  0  0  0  0  0  0  0  0  0  0  0
  146.5113  131.6890  149.6743 H   0  0  0  0  0  0  0  0  0  0  0  0
  147.0429  133.2945  150.1347 H   0  0  0  0  0  0  0  0  0  0  0  0
  145.6291  133.0896  149.0969 H   0  0  0  0  0  0  0  0  0  0  0  0
  143.4542  132.1129  150.0625 H   0  0  0  0  0  0  0  0  0  0  0  0
  143.4055  131.5428  151.7261 H   0  0  0  0  0  0  0  0  0  0  0  0
  144.3988  130.7088  150.5451 H   0  0  0  0  0  0  0  0  0  0  0  0
  146.4746  131.0183  152.0743 H   0  0  0  0  0  0  0  0  0  0  0  0
  145.4837  131.8553  153.2550 H   0  0  0  0  0  0  0  0  0  0  0  0
  146.9275  132.6300  152.6150 H   0  0  0  0  0  0  0  0  0  0  0  0
  145.7291  135.2177  150.1040 H   0  0  0  0  0  0  0  0  0  0  0  0
  144.7711  137.3367  150.9694 H   0  0  0  0  0  0  0  0  0  0  0  0
  143.5130  138.4033  152.5056 H   0  0  0  0  0  0  0  0  0  0  0  0
  142.5712  139.7961  153.6354 H   0  0  0  0  0  0  0  0  0  0  0  0
  141.7336  139.7873  156.2980 H   0  0  0  0  0  0  0  0  0  0  0  0
  140.4215  141.0252  153.7917 H   0  0  0  0  0  0  0  0  0  0  0  0
  141.4167  142.5873  156.1956 H   0  0  0  0  0  0  0  0  0  0  0  0
  141.4668  143.0528  154.4800 H   0  0  0  0  0  0  0  0  0  0  0  0
  139.2184  143.4365  156.2629 H   0  0  0  0  0  0  0  0  0  0  0  0
  139.1472  143.6036  154.5065 H   0  0  0  0  0  0  0  0  0  0  0  0
  139.6920  140.8545  156.8129 H   0  0  0  0  0  0  0  0  0  0  0  0
  140.0659  137.6323  156.7612 H   0  0  0  0  0  0  0  0  0  0  0  0
  138.3816  138.2683  156.6405 H   0  0  0  0  0  0  0  0  0  0  0  0
  139.9302  136.6748  154.5222 H   0  0  0  0  0  0  0  0  0  0  0  0
  138.1420  136.7684  154.7398 H   0  0  0  0  0  0  0  0  0  0  0  0
  138.0899  139.0506  153.9009 H   0  0  0  0  0  0  0  0  0  0  0  0
  139.6745  138.6605  153.1348 H   0  0  0  0  0  0  0  0  0  0  0  0
  1  2  1  0  0  0  0
  1 25  1  0  0  0  0
  1 26  1  0  0  0  0
  1 27  1  0  0  0  0
  2  3  1  0  0  0  0
  2  4  1  0  0  0  0
  2  5  1  0  0  0  0
  3 28  1  0  0  0  0
  3 29  1  0  0  0  0
  3 30  1  0  0  0  0
  4 31  1  0  0  0  0
  4 32  1  0  0  0  0
  4 33  1  0  0  0  0
  5 24  1  0  0  0  0
  5  6  2  0  0  0  0
  6  7  1  0  0  0  0
  6 34  1  0  0  0  0
  7  8  2  0  0  0  0
  7 35  1  0  0  0  0
  8  9  1  0  0  0  0
  8 23  1  0  0  0  0
  9 10  1  0  0  0  0
  9 36  1  0  0  0  0
 10 11  2  0  0  0  0
 10 12  1  0  0  0  0
 12 13  1  0  0  0  0
 12 37  1  0  0  0  0
 13 19  1  0  0  0  0
 13 14  1  0  0  0  0
 13 38  1  0  0  0  0
 14 18  1  0  0  0  0
 14 15  1  0  0  0  0
 14 39  1  0  0  0  0
 15 16  1  0  0  0  0
 15 40  1  0  0  0  0
 15 41  1  0  0  0  0
 16 17  1  0  0  0  0
 16 42  1  0  0  0  0
 16 43  1  0  0  0  0
 17 18  1  0  0  0  0
 18 19  1  0  0  0  0
 18 44  1  0  0  0  0
 19 22  1  0  0  0  0
 19 20  1  0  0  0  0
 20 21  1  0  0  0  0
 20 45  1  0  0  0  0
 20 46  1  0  0  0  0
 21 22  1  0  0  0  0
 21 47  1  0  0  0  0
 21 48  1  0  0  0  0
 22 49  1  0  0  0  0
 22 50  1  0  0  0  0
 23 24  2  0  0  0  0
M  END
> <s_m_source_file>
AV-unprocessed.smi

> <i_m_source_file_index>
2829

> <i_lp_mmshare_version>
43012

> <i_f3d_flags>
0

> <s_epik_input>
W0NIM11DKFtDSDNdKShbQ0gzXSljMVtjSF1bY0hdYyhubjEpW05IXUMoPU8pW05IXVtDQEBIXTJbQ0BIXShbQ0gyXVtDSDJdTzMpW0NAQEhdM0MyNFtDSDJdW0NIMl1bQ0gyXTQ=

> <s_epik_cmdline>
J2VwaWtfcHl0aG9uJywgJy1waCcsICc3LjAnLCAnLXRuJywgJzgnLCAnLW1hJywgJzIwMCcsICctbWV0YWxfYmluZGluZycsICctaW1hZScsICc8aW5maWxlLm1hZT4nLCAnLW9tYWUnLCAnPG91dGZpbGUubWFlPic=

> <r_lp_tautomer_probability>
1

> <r_epik_Ionization_Penalty>
0.011915

> <r_epik_Ionization_Penalty_Charging>
0

> <r_epik_Ionization_Penalty_Neutral>
0.011915

> <r_epik_State_Penalty>
0.00486223

> <r_epik_Charging_Adjusted_Penalty>
0.00486223

> <i_epik_Tot_Q>
0

> <i_epik_Tot_abs_Q>
0

> <r_epik_Metal_State_Penalty>
-0

> <b_epik_Metal_Only>
0

> <s_lp_Force_Field>
OPLS_2005

> <r_lp_Energy>
82.5072

> <b_lp_Chiralities_Consistent>
1

> <s_lp_Variant>
AV-unprocessed.smi:2829-2

> <Gold.Version>
5.8.1

> <Gold.Id.Protein>
6NUR|6NUR_protein|mol2

> <Gold.PLP.Fitness>
42.0487

> <Gold.PLP.PLP>
-36.2780

> <Gold.PLP.part.hbond>
-2.4527

> <Gold.PLP.part.metal>
0.0000

> <Gold.PLP.part.buried>
-3.0060

> <Gold.PLP.part.nonpolar>
-31.4279

> <Gold.PLP.part.repulsive>
0.4705

> <Gold.PLP.ligand.clash>
0.0000

> <Gold.PLP.ligand.torsion>
0.1956

> <Gold.PLP.Chemscore.Hbond>
1.9440

> <Gold.PLP.Chemscore.CHOScore>
0.0000

> <Gold.PLP.Chemscore.Metal>
0.0000

> <Gold.Chemscore.Hbonds>
donor molecule, donor type, donor heavy atom, donor atom, acceptor molecule, acceptor atom, score
      L1  H     9    36       P1 10175  0.92
      L1  H    12    37       P1 10175  1.00

> <Gold.PLP.Chemscore.Internal.Correction>
0.3299

> <Gold.Rescore>
     Score         DG    S(hbond)    S(metal)    S(lipo)     H(rot)  DE(clash)    DE(int)     intcor
     14.50     -19.48       1.85        0.00      92.39       1.16       1.43       3.55       ----

> <Gold.Chemscore.Fitness>
14.4988

> <Gold.Chemscore.DG>
-19.4787

> <Gold.Chemscore.ZeroCoef>
-5.4800

> <Gold.Chemscore.Hbond>
1.8453

> <Gold.Chemscore.Metal>
0.0000

> <Gold.Chemscore.Lipo>
92.3893

> <Gold.Chemscore.Internal_Hbond>
0.0000

> <Gold.Chemscore.DEClash>
1.4334

> <Gold.Chemscore.DEInternal>
3.5465

> <Gold.Chemscore.Rot>
1.1618

> <Gold.Chemscore.Internal.Correction>
   9.000000E+99

> <Gold.Chemscore.Hbonds>
donor molecule, donor type, donor heavy atom, donor atom, acceptor molecule, acceptor atom, score
      L1  H     9    36       P1 10175  0.83
      L1  H    12    37       P1 10175  0.99

> <Gold.Chemscore.Hbond.Weighted>
-6.1632

> <Gold.Chemscore.Metal.Weighted>
-0.0000

> <Gold.Chemscore.Lipo.Weighted>
-10.8095

> <Gold.Chemscore.Internal_Hbond.Weighted>
0.0000

> <Gold.Chemscore.DEClash.Weighted>
1.4334

> <Gold.Chemscore.DEInternal.Weighted>
3.5465

> <Gold.Chemscore.Rot.Weighted>
2.9741

> <Gold.Chemscore.Internal.Correction.Weighted>
   9.000000E+99

> <Gold.Protein.RotatedTorsions>
[ 6907 6896 6895 6894 ] final -126.74 input  -60.11 | X-H torsion
[ 7974 7965 7964 7962 ] final  -16.59 input  175.53 | X-H torsion
[ 8008 7997 7996 7995 ] final   23.13 input   59.86 | X-H torsion
[ 10167 10162 10161 10158 ] final  -75.85 input  -65.29 | X-H torsion
[ 10718 10713 10712 10709 ] final -156.61 input   66.30 | X-H torsion
[ 10763 10752 10751 10750 ] final  -64.52 input  -60.55 | X-H torsion
[ 11005 11000 10999 10996 ] final   18.67 input  -57.11 | X-H torsion

> <Gold.Protein.ActiveResidues>
 VAL166  LYS551  ARG553  GLY616  TRP617  ASP618  TYR619  PRO620  LYS621  CYS622 
 ASP623  PHE694  ASN695  SER759  ASP760  ASP761  ALA762  ILE779  LEU786  VAL792 
 PHE793  MET794  SER795  GLU796  ALA797  LYS798  CYS799  TRP800  GLU811  SER814 

> <Gold.Protein.RotatedAtoms>
  150.9000  133.7130  159.2881 H   0  0  0  0  0  0  0  0  0  0  0  0  # atno 6907 bound_to 6896
  151.4652  135.1040  159.9745 H   0  0  0  0  0  0  0  0  0  0  0  0  # atno 6908 bound_to 6896
  152.4871  133.8354  159.7180 H   0  0  0  0  0  0  0  0  0  0  0  0  # atno 6909 bound_to 6896
  146.1980  140.3659  142.8433 H   0  0  0  0  0  0  0  0  0  0  0  0  # atno 7974 bound_to 7965
  154.9762  140.3096  155.4966 H   0  0  0  0  0  0  0  0  0  0  0  0  # atno 8008 bound_to 7997
  156.2959  140.2275  156.4797 H   0  0  0  0  0  0  0  0  0  0  0  0  # atno 8009 bound_to 7997
  154.7831  140.0444  157.1131 H   0  0  0  0  0  0  0  0  0  0  0  0  # atno 8010 bound_to 7997
  140.4907  143.2381  151.7911 H   0  0  0  0  0  0  0  0  0  0  0  0  # atno 10167 bound_to 10162
  156.5289  130.8512  151.2709 H   0  0  0  0  0  0  0  0  0  0  0  0  # atno 10718 bound_to 10713
  154.3313  135.6176  153.5552 H   0  0  0  0  0  0  0  0  0  0  0  0  # atno 10763 bound_to 10752
  152.9811  135.5747  154.4959 H   0  0  0  0  0  0  0  0  0  0  0  0  # atno 10764 bound_to 10752
  154.4645  135.2857  155.1665 H   0  0  0  0  0  0  0  0  0  0  0  0  # atno 10765 bound_to 10752
  140.4222  134.1506  155.7674 H   0  0  0  0  0  0  0  0  0  0  0  0  # atno 11005 bound_to 11000
  144.8622  140.7155  143.6100 LP  0  0  0  0  0  0  0  0  0  0  0  0  # atno 17320 bound_to 7965
  145.3579  139.1689  143.4399 LP  0  0  0  0  0  0  0  0  0  0  0  0  # atno 17321 bound_to 7965
  139.4851  144.4652  151.9492 LP  0  0  0  0  0  0  0  0  0  0  0  0  # atno 17342 bound_to 10162
  140.3739  144.2821  150.5916 LP  0  0  0  0  0  0  0  0  0  0  0  0  # atno 17343 bound_to 10162
  157.7425  130.9891  150.2520 LP  0  0  0  0  0  0  0  0  0  0  0  0  # atno 17370 bound_to 10713
  156.3078  130.3767  149.7690 LP  0  0  0  0  0  0  0  0  0  0  0  0  # atno 17371 bound_to 10713
  141.1779  133.8475  157.1358 LP  0  0  0  0  0  0  0  0  0  0  0  0  # atno 17394 bound_to 11000
  140.0192  134.9953  157.0556 LP  0  0  0  0  0  0  0  0  0  0  0  0  # atno 17395 bound_to 11000

$$$$
