AV-unprocessed.smi:3132|AV-procd|sdf|11934|dock6
  -GOLD-   2272017323D 1   1.00000     0.00000
 Structure written by MMmdl.
 33 34  0  0  0  0  0  0  0  0  1 V2000
  153.1924  139.8396  159.8758 C   0  0  0  0  0  0  0  0  0  0  0  0
  152.4168  141.1152  159.5207 C   0  0  1  0  0  0  0  0  0  0  0  0
  153.2300  142.3810  159.8661 C   0  0  0  0  0  0  0  0  0  0  0  0
  152.4531  143.6004  159.7353 N   0  0  0  0  0  0  0  0  0  0  0  0
  152.0855  144.4735  160.7509 C   0  0  0  0  0  0  0  0  0  0  0  0
  151.3685  145.4873  160.1571 C   0  0  0  0  0  0  0  0  0  0  0  0
  151.2775  145.2569  158.7866 N   0  0  0  0  0  0  0  0  0  0  0  0
  151.9415  144.1216  158.6119 C   0  0  0  0  0  0  0  0  0  0  0  0
  152.0801  141.0848  158.0977 N   0  0  0  0  0  0  0  0  0  0  0  0
  151.4470  140.0858  157.4623 C   0  0  0  0  0  0  0  0  0  0  0  0
  151.0980  139.0444  158.0197 O   0  0  0  0  0  0  0  0  0  0  0  0
  151.1600  140.3055  155.9694 C   0  0  2  0  0  0  0  0  0  0  0  0
  150.1694  139.2819  155.3795 C   0  0  0  0  0  0  0  0  0  0  0  0
  150.9489  138.6002  154.2678 C   0  0  0  0  0  0  0  0  0  0  0  0
  152.3966  138.8241  154.6796 C   0  0  0  0  0  0  0  0  0  0  0  0
  152.3697  140.1318  155.2327 O   0  0  0  0  0  0  0  0  0  0  0  0
  153.4353  139.8114  160.9382 H   0  0  0  0  0  0  0  0  0  0  0  0
  154.1278  139.7742  159.3188 H   0  0  0  0  0  0  0  0  0  0  0  0
  152.6064  138.9480  159.6500 H   0  0  0  0  0  0  0  0  0  0  0  0
  151.5034  141.1113  160.1184 H   0  0  0  0  0  0  0  0  0  0  0  0
  153.5913  142.3258  160.8940 H   0  0  0  0  0  0  0  0  0  0  0  0
  154.1128  142.4566  159.2294 H   0  0  0  0  0  0  0  0  0  0  0  0
  152.3627  144.3096  161.7818 H   0  0  0  0  0  0  0  0  0  0  0  0
  150.9142  146.3575  160.6070 H   0  0  0  0  0  0  0  0  0  0  0  0
  152.0647  143.6615  157.6423 H   0  0  0  0  0  0  0  0  0  0  0  0
  152.3345  141.8976  157.5554 H   0  0  0  0  0  0  0  0  0  0  0  0
  150.8017  141.3226  155.8040 H   0  0  0  0  0  0  0  0  0  0  0  0
  149.8474  138.5463  156.1187 H   0  0  0  0  0  0  0  0  0  0  0  0
  149.2707  139.7638  154.9940 H   0  0  0  0  0  0  0  0  0  0  0  0
  150.6980  137.5453  154.1532 H   0  0  0  0  0  0  0  0  0  0  0  0
  150.7548  139.1010  153.3185 H   0  0  0  0  0  0  0  0  0  0  0  0
  152.7034  138.1035  155.4388 H   0  0  0  0  0  0  0  0  0  0  0  0
  153.0895  138.7559  153.8410 H   0  0  0  0  0  0  0  0  0  0  0  0
  1  2  1  0  0  0  0
  1 17  1  0  0  0  0
  1 18  1  0  0  0  0
  1 19  1  0  0  0  0
  2  3  1  0  0  0  0
  2  9  1  0  0  0  0
  2 20  1  0  0  0  0
  3  4  1  0  0  0  0
  3 21  1  0  0  0  0
  3 22  1  0  0  0  0
  4  8  1  0  0  0  0
  4  5  1  0  0  0  0
  5  6  2  0  0  0  0
  5 23  1  0  0  0  0
  6  7  1  0  0  0  0
  6 24  1  0  0  0  0
  7  8  2  0  0  0  0
  8 25  1  0  0  0  0
  9 10  1  0  0  0  0
  9 26  1  0  0  0  0
 10 11  2  0  0  0  0
 10 12  1  0  0  0  0
 12 16  1  0  0  0  0
 12 13  1  0  0  0  0
 12 27  1  0  0  0  0
 13 14  1  0  0  0  0
 13 28  1  0  0  0  0
 13 29  1  0  0  0  0
 14 15  1  0  0  0  0
 14 30  1  0  0  0  0
 14 31  1  0  0  0  0
 15 16  1  0  0  0  0
 15 32  1  0  0  0  0
 15 33  1  0  0  0  0
M  END
> <s_m_source_file>
AV-unprocessed.smi

> <i_m_source_file_index>
3132

> <i_lp_mmshare_version>
43012

> <i_f3d_flags>
0

> <s_epik_input>
W2NIXTFuW2NIXVtjSF1uMVtDSDJdW0NAQEhdKFtDSDNdKVtOSF1DKD1PKVtDQEBIXTJbQ0gyXVtDSDJdW0NIMl1PMg==

> <s_epik_cmdline>
J2VwaWtfcHl0aG9uJywgJy1waCcsICc3LjAnLCAnLXRuJywgJzgnLCAnLW1hJywgJzIwMCcsICctbWV0YWxfYmluZGluZycsICctaW1hZScsICc8aW5maWxlLm1hZT4nLCAnLW9tYWUnLCAnPG91dGZpbGUubWFlPic=

> <r_lp_tautomer_probability>
1

> <r_epik_Ionization_Penalty>
0.630322

> <r_epik_Ionization_Penalty_Charging>
0.630322

> <r_epik_Ionization_Penalty_Neutral>
3.82652e-08

> <r_epik_State_Penalty>
0.647117

> <r_epik_Charging_Adjusted_Penalty>
1.27744

> <i_epik_Tot_Q>
0

> <i_epik_Tot_abs_Q>
0

> <r_epik_Metal_State_Penalty>
0.309095

> <b_epik_Metal_Only>
0

> <s_lp_Force_Field>
OPLS_2005

> <r_lp_Energy>
20.2845

> <b_lp_Chiralities_Consistent>
1

> <s_lp_Variant>
AV-unprocessed.smi:3132-6

> <Gold.Version>
5.8.1

> <Gold.Id.Protein>
6NUR|6NUR_protein|mol2

> <Gold.PLP.Fitness>
42.4802

> <Gold.PLP.PLP>
-39.7786

> <Gold.PLP.part.hbond>
-2.2225

> <Gold.PLP.part.metal>
0.0000

> <Gold.PLP.part.buried>
-4.4844

> <Gold.PLP.part.nonpolar>
-33.6799

> <Gold.PLP.part.repulsive>
0.2175

> <Gold.PLP.ligand.clash>
0.0000

> <Gold.PLP.ligand.torsion>
0.4314

> <Gold.PLP.Chemscore.Hbond>
1.1825

> <Gold.PLP.Chemscore.CHOScore>
0.0000

> <Gold.PLP.Chemscore.Metal>
0.0000

> <Gold.Chemscore.Hbonds>
donor molecule, donor type, donor heavy atom, donor atom, acceptor molecule, acceptor atom, score
      P1  H  7989  7998       L1    16  0.27
      P1  H  7997  8009       L1    16  0.62

> <Gold.PLP.Chemscore.Internal.Correction>
0.0168

> <Gold.Rescore>
     Score         DG    S(hbond)    S(metal)    S(lipo)     H(rot)  DE(clash)    DE(int)     intcor
     12.20     -13.02       0.96        0.00      77.73       1.86       0.00       0.82       ----

> <Gold.Chemscore.Fitness>
12.1970

> <Gold.Chemscore.DG>
-13.0158

> <Gold.Chemscore.ZeroCoef>
-5.4800

> <Gold.Chemscore.Hbond>
0.9616

> <Gold.Chemscore.Metal>
0.0000

> <Gold.Chemscore.Lipo>
77.7343

> <Gold.Chemscore.Internal_Hbond>
0.0000

> <Gold.Chemscore.DEClash>
0.0000

> <Gold.Chemscore.DEInternal>
0.8188

> <Gold.Chemscore.Rot>
1.8636

> <Gold.Chemscore.Internal.Correction>
   9.000000E+99

> <Gold.Chemscore.Hbonds>
donor molecule, donor type, donor heavy atom, donor atom, acceptor molecule, acceptor atom, score
      P1  H  7997  8009       L1    16  0.14

> <Gold.Chemscore.Hbond.Weighted>
-3.2118

> <Gold.Chemscore.Metal.Weighted>
-0.0000

> <Gold.Chemscore.Lipo.Weighted>
-9.0949

> <Gold.Chemscore.Internal_Hbond.Weighted>
0.0000

> <Gold.Chemscore.DEClash.Weighted>
0.0000

> <Gold.Chemscore.DEInternal.Weighted>
0.8188

> <Gold.Chemscore.Rot.Weighted>
4.7709

> <Gold.Chemscore.Internal.Correction.Weighted>
   9.000000E+99

> <Gold.Protein.RotatedTorsions>
[ 6907 6896 6895 6894 ] final  111.56 input  -60.11 | X-H torsion
[ 7974 7965 7964 7962 ] final -165.06 input  175.53 | X-H torsion
[ 8008 7997 7996 7995 ] final -147.61 input   59.86 | X-H torsion
[ 10167 10162 10161 10158 ] final -122.18 input  -65.29 | X-H torsion
[ 10718 10713 10712 10709 ] final   30.35 input   66.30 | X-H torsion
[ 10763 10752 10751 10750 ] final  -98.01 input  -60.55 | X-H torsion
[ 11005 11000 10999 10996 ] final   -3.34 input  -57.11 | X-H torsion

> <Gold.Protein.ActiveResidues>
 VAL166  LYS551  ARG553  GLY616  TRP617  ASP618  TYR619  PRO620  LYS621  CYS622 
 ASP623  PHE694  ASN695  SER759  ASP760  ASP761  ALA762  ILE779  LEU786  VAL792 
 PHE793  MET794  SER795  GLU796  ALA797  LYS798  CYS799  TRP800  GLU811  SER814 

> <Gold.Protein.RotatedAtoms>
  152.4963  133.8640  159.7264 H   0  0  0  0  0  0  0  0  0  0  0  0  # atno 6907 bound_to 6896
  150.9144  133.6949  159.2853 H   0  0  0  0  0  0  0  0  0  0  0  0  # atno 6908 bound_to 6896
  151.4347  135.1018  159.9705 H   0  0  0  0  0  0  0  0  0  0  0  0  # atno 6909 bound_to 6896
  144.7280  140.2870  143.6227 H   0  0  0  0  0  0  0  0  0  0  0  0  # atno 7974 bound_to 7965
  155.5784  140.0641  157.2789 H   0  0  0  0  0  0  0  0  0  0  0  0  # atno 8008 bound_to 7997
  154.4340  140.1856  156.0997 H   0  0  0  0  0  0  0  0  0  0  0  0  # atno 8009 bound_to 7997
  156.0324  140.3305  155.7157 H   0  0  0  0  0  0  0  0  0  0  0  0  # atno 8010 bound_to 7997
  140.0170  143.5383  152.2238 H   0  0  0  0  0  0  0  0  0  0  0  0  # atno 10167 bound_to 10162
  157.2584  130.7149  149.6441 H   0  0  0  0  0  0  0  0  0  0  0  0  # atno 10718 bound_to 10713
  154.7377  135.5025  153.9070 H   0  0  0  0  0  0  0  0  0  0  0  0  # atno 10763 bound_to 10752
  153.1012  135.6685  153.9678 H   0  0  0  0  0  0  0  0  0  0  0  0  # atno 10764 bound_to 10752
  153.9463  135.3062  155.3420 H   0  0  0  0  0  0  0  0  0  0  0  0  # atno 10765 bound_to 10752
  140.6683  133.9259  155.8478 H   0  0  0  0  0  0  0  0  0  0  0  0  # atno 11005 bound_to 11000
  145.7893  139.1921  143.2112 LP  0  0  0  0  0  0  0  0  0  0  0  0  # atno 17320 bound_to 7965
  146.0769  140.7807  142.9660 LP  0  0  0  0  0  0  0  0  0  0  0  0  # atno 17321 bound_to 7965
  139.6166  144.7620  151.2833 LP  0  0  0  0  0  0  0  0  0  0  0  0  # atno 17342 bound_to 10162
  140.7358  143.6726  150.8069 LP  0  0  0  0  0  0  0  0  0  0  0  0  # atno 17343 bound_to 10162
  155.9664  130.4405  150.5303 LP  0  0  0  0  0  0  0  0  0  0  0  0  # atno 17370 bound_to 10713
  157.3202  131.0680  151.1937 LP  0  0  0  0  0  0  0  0  0  0  0  0  # atno 17371 bound_to 10713
  141.0412  134.0618  157.3899 LP  0  0  0  0  0  0  0  0  0  0  0  0  # atno 17394 bound_to 11000
  139.8990  135.0157  156.7175 LP  0  0  0  0  0  0  0  0  0  0  0  0  # atno 17395 bound_to 11000

$$$$
