AV-unprocessed.smi:2738|AV-procd|sdf|10548|dock7
  -GOLD-   2272015 03D 1   1.00000     0.00000
 Structure written by MMmdl.
 32 33  0  0  0  0  0  0  0  0  1 V2000
  152.5312  144.9306  158.2250 C   0  0  0  0  0  0  0  0  0  0  0  0
  151.2741  144.0685  158.0537 C   0  0  0  0  0  0  0  0  0  0  0  0
  151.6082  142.6471  158.0125 N   0  0  0  0  0  0  0  0  0  0  0  0
  151.1700  141.7411  157.1068 C   0  0  0  0  0  0  0  0  0  0  0  0
  150.4130  141.9694  156.1635 O   0  0  0  0  0  0  0  0  0  0  0  0
  151.6948  140.5359  157.4299 N   0  0  0  0  0  0  0  0  0  0  0  0
  151.4733  139.2745  156.7260 C   0  0  0  0  0  0  0  0  0  0  0  0
  151.7025  139.4222  155.2093 C   0  0  2  0  0  0  0  0  0  0  0  0
  151.2554  138.1728  154.4389 C   0  0  0  0  0  0  0  0  0  0  0  0
  153.0844  139.5871  154.9650 O   0  0  0  0  0  0  0  0  0  0  0  0
  152.4681  140.6686  158.5922 C   0  0  0  0  0  0  0  0  0  0  0  0
  153.1903  139.7195  159.3365 C   0  0  0  0  0  0  0  0  0  0  0  0
  153.8717  140.1826  160.4864 C   0  0  0  0  0  0  0  0  0  0  0  0
  153.8178  141.5501  160.8622 C   0  0  0  0  0  0  0  0  0  0  0  0
  153.0805  142.4837  160.0966 C   0  0  0  0  0  0  0  0  0  0  0  0
  152.4146  141.9973  158.9580 C   0  0  0  0  0  0  0  0  0  0  0  0
  152.2732  145.9892  158.2561 H   0  0  0  0  0  0  0  0  0  0  0  0
  153.2270  144.7823  157.3989 H   0  0  0  0  0  0  0  0  0  0  0  0
  153.0528  144.6882  159.1514 H   0  0  0  0  0  0  0  0  0  0  0  0
  150.5778  144.2626  158.8708 H   0  0  0  0  0  0  0  0  0  0  0  0
  150.7506  144.3480  157.1389 H   0  0  0  0  0  0  0  0  0  0  0  0
  152.0931  138.4785  157.1428 H   0  0  0  0  0  0  0  0  0  0  0  0
  150.4434  138.9700  156.9152 H   0  0  0  0  0  0  0  0  0  0  0  0
  151.1642  140.2881  154.8212 H   0  0  0  0  0  0  0  0  0  0  0  0
  150.1867  137.9979  154.5649 H   0  0  0  0  0  0  0  0  0  0  0  0
  151.7813  137.2820  154.7850 H   0  0  0  0  0  0  0  0  0  0  0  0
  151.4460  138.2792  153.3705 H   0  0  0  0  0  0  0  0  0  0  0  0
  153.3720  138.8998  154.3831 H   0  0  0  0  0  0  0  0  0  0  0  0
  153.2238  138.6791  159.0486 H   0  0  0  0  0  0  0  0  0  0  0  0
  154.4384  139.4860  161.0866 H   0  0  0  0  0  0  0  0  0  0  0  0
  154.3443  141.8823  161.7449 H   0  0  0  0  0  0  0  0  0  0  0  0
  153.0319  143.5245  160.3803 H   0  0  0  0  0  0  0  0  0  0  0  0
  1  2  1  0  0  0  0
  1 17  1  0  0  0  0
  1 18  1  0  0  0  0
  1 19  1  0  0  0  0
  2  3  1  0  0  0  0
  2 20  1  0  0  0  0
  2 21  1  0  0  0  0
  3 16  1  0  0  0  0
  3  4  1  0  0  0  0
  4  5  2  0  0  0  0
  4  6  1  0  0  0  0
  6  7  1  0  0  0  0
  6 11  1  0  0  0  0
  7  8  1  0  0  0  0
  7 22  1  0  0  0  0
  7 23  1  0  0  0  0
  8  9  1  0  0  0  0
  8 10  1  0  0  0  0
  8 24  1  0  0  0  0
  9 25  1  0  0  0  0
  9 26  1  0  0  0  0
  9 27  1  0  0  0  0
 10 28  1  0  0  0  0
 11 16  2  0  0  0  0
 11 12  1  0  0  0  0
 12 13  2  0  0  0  0
 12 29  1  0  0  0  0
 13 14  1  0  0  0  0
 13 30  1  0  0  0  0
 14 15  2  0  0  0  0
 14 31  1  0  0  0  0
 15 16  1  0  0  0  0
 15 32  1  0  0  0  0
M  END
> <s_m_source_file>
AV-unprocessed.smi

> <i_m_source_file_index>
2738

> <i_lp_mmshare_version>
43012

> <i_f3d_flags>
0

> <s_epik_input>
W2NIXTFbY0hdW2NIXVtjSF1jKGMxMiluKFtDSDJdW0NIM10pYyg9TyluMltDSDJdW0NASF0oW0NIM10pW09IXQ==

> <s_epik_cmdline>
J2VwaWtfcHl0aG9uJywgJy1waCcsICc3LjAnLCAnLXRuJywgJzgnLCAnLW1hJywgJzIwMCcsICctbWV0YWxfYmluZGluZycsICctaW1hZScsICc8aW5maWxlLm1hZT4nLCAnLW9tYWUnLCAnPG91dGZpbGUubWFlPic=

> <r_lp_tautomer_probability>
1

> <r_epik_Ionization_Penalty>
5.28302e-08

> <r_epik_Ionization_Penalty_Charging>
2.52071e-09

> <r_epik_Ionization_Penalty_Neutral>
5.03095e-08

> <r_epik_State_Penalty>
-0

> <r_epik_Charging_Adjusted_Penalty>
2.52071e-09

> <i_epik_Tot_Q>
0

> <i_epik_Tot_abs_Q>
0

> <r_epik_Metal_State_Penalty>
-0

> <b_epik_Metal_Only>
0

> <s_lp_Force_Field>
OPLS_2005

> <r_lp_Energy>
38.1008

> <b_lp_Chiralities_Consistent>
1

> <s_lp_Variant>
AV-unprocessed.smi:2738-1

> <Gold.Version>
5.8.1

> <Gold.Id.Protein>
6NUR|6NUR_protein|mol2

> <Gold.PLP.Fitness>
43.0941

> <Gold.PLP.PLP>
-40.6360

> <Gold.PLP.part.hbond>
-2.0000

> <Gold.PLP.part.metal>
0.0000

> <Gold.PLP.part.buried>
-4.3062

> <Gold.PLP.part.nonpolar>
-34.4640

> <Gold.PLP.part.repulsive>
0.1049

> <Gold.PLP.ligand.clash>
0.0000

> <Gold.PLP.ligand.torsion>
0.2746

> <Gold.PLP.Chemscore.Hbond>
1.0000

> <Gold.PLP.Chemscore.CHOScore>
0.0000

> <Gold.PLP.Chemscore.Metal>
0.0000

> <Gold.Chemscore.Hbonds>
donor molecule, donor type, donor heavy atom, donor atom, acceptor molecule, acceptor atom, score
      P1  H  7997  8009       L1    10  1.00

> <Gold.PLP.Chemscore.Internal.Correction>
0.0073

> <Gold.Rescore>
     Score         DG    S(hbond)    S(metal)    S(lipo)     H(rot)  DE(clash)    DE(int)     intcor
     15.86     -15.98       0.97        0.00     101.67       1.81       0.00       0.12       ----

> <Gold.Chemscore.Fitness>
15.8561

> <Gold.Chemscore.DG>
-15.9774

> <Gold.Chemscore.ZeroCoef>
-5.4800

> <Gold.Chemscore.Hbond>
0.9696

> <Gold.Chemscore.Metal>
0.0000

> <Gold.Chemscore.Lipo>
101.6656

> <Gold.Chemscore.Internal_Hbond>
0.0000

> <Gold.Chemscore.DEClash>
0.0025

> <Gold.Chemscore.DEInternal>
0.1188

> <Gold.Chemscore.Rot>
1.8109

> <Gold.Chemscore.Internal.Correction>
   9.000000E+99

> <Gold.Chemscore.Hbonds>
donor molecule, donor type, donor heavy atom, donor atom, acceptor molecule, acceptor atom, score
      P1  H  7997  8009       L1    10  0.84

> <Gold.Chemscore.Hbond.Weighted>
-3.2384

> <Gold.Chemscore.Metal.Weighted>
-0.0000

> <Gold.Chemscore.Lipo.Weighted>
-11.8949

> <Gold.Chemscore.Internal_Hbond.Weighted>
0.0000

> <Gold.Chemscore.DEClash.Weighted>
0.0025

> <Gold.Chemscore.DEInternal.Weighted>
0.1188

> <Gold.Chemscore.Rot.Weighted>
4.6358

> <Gold.Chemscore.Internal.Correction.Weighted>
   9.000000E+99

> <Gold.Protein.RotatedTorsions>
[ 6907 6896 6895 6894 ] final  127.14 input  -60.11 | X-H torsion
[ 7974 7965 7964 7962 ] final -124.26 input  175.53 | X-H torsion
[ 8008 7997 7996 7995 ] final -154.48 input   59.86 | X-H torsion
[ 10167 10162 10161 10158 ] final   56.87 input  -65.29 | X-H torsion
[ 10718 10713 10712 10709 ] final   -3.20 input   66.30 | X-H torsion
[ 10763 10752 10751 10750 ] final  -50.18 input  -60.55 | X-H torsion
[ 11005 11000 10999 10996 ] final  -76.67 input  -57.11 | X-H torsion

> <Gold.Protein.ActiveResidues>
 VAL166  LYS551  ARG553  GLY616  TRP617  ASP618  TYR619  PRO620  LYS621  CYS622 
 ASP623  PHE694  ASN695  SER759  ASP760  ASP761  ALA762  ILE779  LEU786  VAL792 
 PHE793  MET794  SER795  GLU796  ALA797  LYS798  CYS799  TRP800  GLU811  SER814 

> <Gold.Protein.RotatedAtoms>
  152.3840  133.6585  159.6183 H   0  0  0  0  0  0  0  0  0  0  0  0  # atno 6907 bound_to 6896
  150.7763  133.9067  159.3366 H   0  0  0  0  0  0  0  0  0  0  0  0  # atno 6908 bound_to 6896
  151.6867  135.0954  160.0277 H   0  0  0  0  0  0  0  0  0  0  0  0  # atno 6909 bound_to 6896
  145.0100  140.7897  143.4444 H   0  0  0  0  0  0  0  0  0  0  0  0  # atno 7974 bound_to 7965
  155.6870  140.0751  157.2463 H   0  0  0  0  0  0  0  0  0  0  0  0  # atno 8008 bound_to 7997
  154.4095  140.1671  156.2097 H   0  0  0  0  0  0  0  0  0  0  0  0  # atno 8009 bound_to 7997
  155.9485  140.3379  155.6390 H   0  0  0  0  0  0  0  0  0  0  0  0  # atno 8010 bound_to 7997
  140.2040  144.3958  150.6516 H   0  0  0  0  0  0  0  0  0  0  0  0  # atno 10167 bound_to 10162
  156.7795  130.5326  149.5753 H   0  0  0  0  0  0  0  0  0  0  0  0  # atno 10718 bound_to 10713
  154.1061  135.6556  153.4876 H   0  0  0  0  0  0  0  0  0  0  0  0  # atno 10763 bound_to 10752
  153.0272  135.5236  154.7238 H   0  0  0  0  0  0  0  0  0  0  0  0  # atno 10764 bound_to 10752
  154.6405  135.2987  155.0079 H   0  0  0  0  0  0  0  0  0  0  0  0  # atno 10765 bound_to 10752
  141.1655  133.6992  156.7704 H   0  0  0  0  0  0  0  0  0  0  0  0  # atno 11005 bound_to 11000
  145.2037  139.2239  143.5179 LP  0  0  0  0  0  0  0  0  0  0  0  0  # atno 17320 bound_to 7965
  146.3468  140.1859  142.8589 LP  0  0  0  0  0  0  0  0  0  0  0  0  # atno 17321 bound_to 7965
  140.6370  143.2196  151.6373 LP  0  0  0  0  0  0  0  0  0  0  0  0  # atno 17342 bound_to 10162
  139.5206  144.3219  152.0903 LP  0  0  0  0  0  0  0  0  0  0  0  0  # atno 17343 bound_to 10162
  156.1227  130.6121  151.0217 LP  0  0  0  0  0  0  0  0  0  0  0  0  # atno 17370 bound_to 10713
  157.6653  131.0873  150.7743 LP  0  0  0  0  0  0  0  0  0  0  0  0  # atno 17371 bound_to 10713
  140.2468  134.8571  157.3628 LP  0  0  0  0  0  0  0  0  0  0  0  0  # atno 17394 bound_to 11000
  140.1742  134.4571  155.7812 LP  0  0  0  0  0  0  0  0  0  0  0  0  # atno 17395 bound_to 11000

$$$$
