AV-unprocessed.smi:76|AV-procd|sdf|770|dock5
  -GOLD-   2262017113D 1   1.00000     0.00000
 Structure written by MMmdl.
 55 58  0  0  0  0  0  0  0  0  1 V2000
  149.3723  140.9101  157.0959 C   0  0  0  0  0  0  0  0  0  0  0  0
  150.7183  141.5466  156.6962 C   0  0  1  0  0  0  0  0  0  0  0  0
  150.9692  142.8924  157.4091 C   0  0  0  0  0  0  0  0  0  0  0  0
  151.3385  142.7182  158.8985 C   0  0  2  0  0  0  0  0  0  0  0  0
  151.6122  144.0678  159.5925 C   0  0  0  0  0  0  0  0  0  0  0  0
  152.4677  144.7876  158.8662 F   0  0  0  0  0  0  0  0  0  0  0  0
  150.4847  144.7630  159.7447 F   0  0  0  0  0  0  0  0  0  0  0  0
  152.1564  143.8606  160.7917 F   0  0  0  0  0  0  0  0  0  0  0  0
  152.5341  141.7523  159.0134 C   0  0  0  0  0  0  0  0  0  0  0  0
  152.2494  140.4180  158.3071 C   0  0  0  0  0  0  0  0  0  0  0  0
  151.8513  140.6394  156.9150 N   0  0  0  0  0  0  0  0  0  0  0  0
  151.9489  139.5889  156.0583 C   0  0  0  0  0  0  0  0  0  0  0  0
  152.9039  139.5969  155.0897 N   0  0  0  0  0  0  0  0  0  0  0  0
  153.0236  138.5657  154.2491 C   0  0  0  0  0  0  0  0  0  0  0  0
  152.3021  137.4453  154.1959 N   0  0  0  0  0  0  0  0  0  0  0  0
  151.3334  137.4347  155.1556 C   0  0  0  0  0  0  0  0  0  0  0  0
  151.0924  138.4529  156.1216 C   0  0  0  0  0  0  0  0  0  0  0  0
  150.0210  138.0900  156.9292 N   0  0  0  0  0  0  0  0  0  0  0  0
  149.6580  136.9224  156.4745 C   0  0  0  0  0  0  0  0  0  0  0  0
  150.3795  136.4605  155.3967 N   0  0  0  0  0  0  0  0  0  0  0  0
  150.1872  135.1992  154.6945 C   0  0  0  0  0  0  0  0  0  0  0  0
  150.1393  133.9324  155.6071 C   0  0  0  0  0  0  0  0  0  0  0  0
  151.3802  133.9487  156.5428 C   0  0  0  0  0  0  0  0  0  0  0  0
  151.3675  132.9215  157.5144 O   0  0  0  0  0  0  0  0  0  0  0  0
  148.8354  133.9637  156.4461 C   0  0  0  0  0  0  0  0  0  0  0  0
  147.5768  133.6906  155.5999 C   0  0  0  0  0  0  0  0  0  0  0  0
  147.7082  132.4532  154.9103 O   0  0  0  0  0  0  0  0  0  0  0  0
  148.8066  132.4322  154.0067 C   0  0  0  0  0  0  0  0  0  0  0  0
  150.1239  132.6210  154.7798 C   0  0  0  0  0  0  0  0  0  0  0  0
  148.5476  141.5981  156.9091 H   0  0  0  0  0  0  0  0  0  0  0  0
  149.3412  140.6372  158.1505 H   0  0  0  0  0  0  0  0  0  0  0  0
  149.1764  140.0071  156.5170 H   0  0  0  0  0  0  0  0  0  0  0  0
  150.6490  141.7754  155.6340 H   0  0  0  0  0  0  0  0  0  0  0  0
  151.7819  143.4113  156.8991 H   0  0  0  0  0  0  0  0  0  0  0  0
  150.0934  143.5337  157.3072 H   0  0  0  0  0  0  0  0  0  0  0  0
  150.4898  142.2609  159.4083 H   0  0  0  0  0  0  0  0  0  0  0  0
  153.4207  142.2099  158.5726 H   0  0  0  0  0  0  0  0  0  0  0  0
  152.7716  141.5655  160.0608 H   0  0  0  0  0  0  0  0  0  0  0  0
  153.1463  139.7981  158.3458 H   0  0  0  0  0  0  0  0  0  0  0  0
  151.4635  139.8738  158.8318 H   0  0  0  0  0  0  0  0  0  0  0  0
  153.8100  138.6513  153.5137 H   0  0  0  0  0  0  0  0  0  0  0  0
  148.8408  136.3667  156.9109 H   0  0  0  0  0  0  0  0  0  0  0  0
  149.2624  135.2750  154.1209 H   0  0  0  0  0  0  0  0  0  0  0  0
  150.9788  135.1243  153.9506 H   0  0  0  0  0  0  0  0  0  0  0  0
  152.2993  133.8340  155.9685 H   0  0  0  0  0  0  0  0  0  0  0  0
  151.4497  134.9040  157.0643 H   0  0  0  0  0  0  0  0  0  0  0  0
  151.8929  132.2025  157.1980 H   0  0  0  0  0  0  0  0  0  0  0  0
  148.8704  133.2029  157.2261 H   0  0  0  0  0  0  0  0  0  0  0  0
  148.7372  134.9185  156.9640 H   0  0  0  0  0  0  0  0  0  0  0  0
  146.7026  133.6326  156.2485 H   0  0  0  0  0  0  0  0  0  0  0  0
  147.3799  134.4966  154.8932 H   0  0  0  0  0  0  0  0  0  0  0  0
  148.8146  131.4703  153.4941 H   0  0  0  0  0  0  0  0  0  0  0  0
  148.6776  133.1935  153.2371 H   0  0  0  0  0  0  0  0  0  0  0  0
  150.9737  132.5730  154.0999 H   0  0  0  0  0  0  0  0  0  0  0  0
  150.2371  131.7638  155.4439 H   0  0  0  0  0  0  0  0  0  0  0  0
  1  2  1  0  0  0  0
  1 30  1  0  0  0  0
  1 31  1  0  0  0  0
  1 32  1  0  0  0  0
  2 11  1  0  0  0  0
  2  3  1  0  0  0  0
  2 33  1  0  0  0  0
  3  4  1  0  0  0  0
  3 34  1  0  0  0  0
  3 35  1  0  0  0  0
  4  5  1  0  0  0  0
  4  9  1  0  0  0  0
  4 36  1  0  0  0  0
  5  6  1  0  0  0  0
  5  7  1  0  0  0  0
  5  8  1  0  0  0  0
  9 10  1  0  0  0  0
  9 37  1  0  0  0  0
  9 38  1  0  0  0  0
 10 11  1  0  0  0  0
 10 39  1  0  0  0  0
 10 40  1  0  0  0  0
 11 12  1  0  0  0  0
 12 17  1  0  0  0  0
 12 13  2  0  0  0  0
 13 14  1  0  0  0  0
 14 15  2  0  0  0  0
 14 41  1  0  0  0  0
 15 16  1  0  0  0  0
 16 20  1  0  0  0  0
 16 17  2  0  0  0  0
 17 18  1  0  0  0  0
 18 19  2  0  0  0  0
 19 20  1  0  0  0  0
 19 42  1  0  0  0  0
 20 21  1  0  0  0  0
 21 22  1  0  0  0  0
 21 43  1  0  0  0  0
 21 44  1  0  0  0  0
 22 29  1  0  0  0  0
 22 23  1  0  0  0  0
 22 25  1  0  0  0  0
 23 24  1  0  0  0  0
 23 45  1  0  0  0  0
 23 46  1  0  0  0  0
 24 47  1  0  0  0  0
 25 26  1  0  0  0  0
 25 48  1  0  0  0  0
 25 49  1  0  0  0  0
 26 27  1  0  0  0  0
 26 50  1  0  0  0  0
 26 51  1  0  0  0  0
 27 28  1  0  0  0  0
 28 29  1  0  0  0  0
 28 52  1  0  0  0  0
 28 53  1  0  0  0  0
 29 54  1  0  0  0  0
 29 55  1  0  0  0  0
M  END
> <s_m_source_file>
AV-unprocessed.smi

> <i_m_source_file_index>
76

> <i_lp_mmshare_version>
43012

> <i_f3d_flags>
0

> <s_epik_input>
W0NIM11bQ0BASF0xW0NIMl1bQ0BASF0oQyhGKShGKUYpW0NIMl1bQ0gyXU4xYyhuW2NIXW4yKWMoYzIzKW5bY0hdbjNbQ0gyXUM0KFtDSDJdW09IXSlbQ0gyXVtDSDJdT1tDSDJdW0NIMl00

> <s_epik_cmdline>
J2VwaWtfcHl0aG9uJywgJy1waCcsICc3LjAnLCAnLXRuJywgJzgnLCAnLW1hJywgJzIwMCcsICctbWV0YWxfYmluZGluZycsICctaW1hZScsICc8aW5maWxlLm1hZT4nLCAnLW9tYWUnLCAnPG91dGZpbGUubWFlPic=

> <r_lp_tautomer_probability>
1

> <r_epik_Ionization_Penalty>
0.00244097

> <r_epik_Ionization_Penalty_Charging>
0

> <r_epik_Ionization_Penalty_Neutral>
0.00244097

> <r_epik_State_Penalty>
0.00151846

> <r_epik_Charging_Adjusted_Penalty>
0.00151846

> <i_epik_Tot_Q>
0

> <i_epik_Tot_abs_Q>
0

> <r_epik_Metal_State_Penalty>
-0

> <b_epik_Metal_Only>
0

> <s_lp_Force_Field>
OPLS_2005

> <r_lp_Energy>
37.9525

> <b_lp_Chiralities_Consistent>
1

> <s_lp_Variant>
AV-unprocessed.smi:76-4

> <Gold.Version>
5.8.1

> <Gold.Id.Protein>
6NUR|6NUR_protein|mol2

> <Gold.PLP.Fitness>
57.3558

> <Gold.PLP.PLP>
-52.1190

> <Gold.PLP.part.hbond>
-3.8424

> <Gold.PLP.part.metal>
0.0000

> <Gold.PLP.part.buried>
-7.4838

> <Gold.PLP.part.nonpolar>
-41.1626

> <Gold.PLP.part.repulsive>
0.1547

> <Gold.PLP.ligand.clash>
0.0000

> <Gold.PLP.ligand.torsion>
1.7272

> <Gold.PLP.Chemscore.Hbond>
2.7871

> <Gold.PLP.Chemscore.CHOScore>
0.0000

> <Gold.PLP.Chemscore.Metal>
0.0000

> <Gold.Chemscore.Hbonds>
donor molecule, donor type, donor heavy atom, donor atom, acceptor molecule, acceptor atom, score
      P1  H  6896  6908       L1    24  0.94
      P1  H  7989  7998       L1    13  0.04
      P1  H  7997  8009       L1    13  1.00
      P1  H 10752 10764       L1    15  0.75

> <Gold.PLP.Chemscore.Internal.Correction>
0.3300

> <Gold.Rescore>
     Score         DG    S(hbond)    S(metal)    S(lipo)     H(rot)  DE(clash)    DE(int)     intcor
     16.54     -18.19       2.38        0.00      87.84       2.16       0.00       1.65       ----

> <Gold.Chemscore.Fitness>
16.5432

> <Gold.Chemscore.DG>
-18.1936

> <Gold.Chemscore.ZeroCoef>
-5.4800

> <Gold.Chemscore.Hbond>
2.3843

> <Gold.Chemscore.Metal>
0.0000

> <Gold.Chemscore.Lipo>
87.8364

> <Gold.Chemscore.Internal_Hbond>
0.0000

> <Gold.Chemscore.DEClash>
0.0007

> <Gold.Chemscore.DEInternal>
1.6497

> <Gold.Chemscore.Rot>
2.1589

> <Gold.Chemscore.Internal.Correction>
   9.000000E+99

> <Gold.Chemscore.Hbonds>
donor molecule, donor type, donor heavy atom, donor atom, acceptor molecule, acceptor atom, score
      P1  H  6896  6908       L1    24  0.85
      P1  H  7997  8009       L1    13  0.34
      P1  H 10752 10764       L1    15  0.56

> <Gold.Chemscore.Hbond.Weighted>
-7.9635

> <Gold.Chemscore.Metal.Weighted>
-0.0000

> <Gold.Chemscore.Lipo.Weighted>
-10.2769

> <Gold.Chemscore.Internal_Hbond.Weighted>
0.0000

> <Gold.Chemscore.DEClash.Weighted>
0.0007

> <Gold.Chemscore.DEInternal.Weighted>
1.6497

> <Gold.Chemscore.Rot.Weighted>
5.5268

> <Gold.Chemscore.Internal.Correction.Weighted>
   9.000000E+99

> <Gold.Protein.RotatedTorsions>
[ 6907 6896 6895 6894 ] final   83.69 input  -60.11 | X-H torsion
[ 7974 7965 7964 7962 ] final -135.52 input  175.53 | X-H torsion
[ 8008 7997 7996 7995 ] final -145.14 input   59.86 | X-H torsion
[ 10167 10162 10161 10158 ] final -120.19 input  -65.29 | X-H torsion
[ 10718 10713 10712 10709 ] final  129.30 input   66.30 | X-H torsion
[ 10763 10752 10751 10750 ] final  -95.47 input  -60.55 | X-H torsion
[ 11005 11000 10999 10996 ] final  -54.95 input  -57.11 | X-H torsion

> <Gold.Protein.ActiveResidues>
 VAL166  LYS551  ARG553  GLY616  TRP617  ASP618  TYR619  PRO620  LYS621  CYS622 
 ASP623  PHE694  ASN695  SER759  ASP760  ASP761  ALA762  ILE779  LEU786  VAL792 
 PHE793  MET794  SER795  GLU796  ALA797  LYS798  CYS799  TRP800  GLU811  SER814 

> <Gold.Protein.RotatedAtoms>
  152.5333  134.2857  159.9023 H   0  0  0  0  0  0  0  0  0  0  0  0  # atno 6907 bound_to 6896
  151.2810  133.4203  159.2634 H   0  0  0  0  0  0  0  0  0  0  0  0  # atno 6908 bound_to 6896
  151.0283  134.9536  159.8154 H   0  0  0  0  0  0  0  0  0  0  0  0  # atno 6909 bound_to 6896
  144.9007  140.6767  143.5087 H   0  0  0  0  0  0  0  0  0  0  0  0  # atno 7974 bound_to 7965
  155.5384  140.0606  157.2875 H   0  0  0  0  0  0  0  0  0  0  0  0  # atno 8008 bound_to 7997
  154.4460  140.1923  156.0610 H   0  0  0  0  0  0  0  0  0  0  0  0  # atno 8009 bound_to 7997
  156.0602  140.3273  155.7457 H   0  0  0  0  0  0  0  0  0  0  0  0  # atno 8010 bound_to 7997
  140.0385  143.5177  152.2141 H   0  0  0  0  0  0  0  0  0  0  0  0  # atno 10167 bound_to 10162
  157.5166  131.1097  150.9215 H   0  0  0  0  0  0  0  0  0  0  0  0  # atno 10718 bound_to 10713
  154.7151  135.5119  153.8726 H   0  0  0  0  0  0  0  0  0  0  0  0  # atno 10763 bound_to 10752
  153.0814  135.6632  154.0047 H   0  0  0  0  0  0  0  0  0  0  0  0  # atno 10764 bound_to 10752
  153.9881  135.3022  155.3394 H   0  0  0  0  0  0  0  0  0  0  0  0  # atno 10765 bound_to 10752
  141.1051  133.6614  156.4397 H   0  0  0  0  0  0  0  0  0  0  0  0  # atno 11005 bound_to 11000
  145.3622  139.1679  143.4377 LP  0  0  0  0  0  0  0  0  0  0  0  0  # atno 17320 bound_to 7965
  146.3106  140.3685  142.8672 LP  0  0  0  0  0  0  0  0  0  0  0  0  # atno 17321 bound_to 7965
  139.6029  144.7588  151.3129 LP  0  0  0  0  0  0  0  0  0  0  0  0  # atno 17342 bound_to 10162
  140.7270  143.6974  150.7873 LP  0  0  0  0  0  0  0  0  0  0  0  0  # atno 17343 bound_to 10162
  156.9838  130.5537  149.5298 LP  0  0  0  0  0  0  0  0  0  0  0  0  # atno 17370 bound_to 10713
  156.0325  130.5415  150.8570 LP  0  0  0  0  0  0  0  0  0  0  0  0  # atno 17371 bound_to 10713
  140.4924  134.6563  157.5216 LP  0  0  0  0  0  0  0  0  0  0  0  0  # atno 17394 bound_to 11000
  139.9917  134.6974  155.9678 LP  0  0  0  0  0  0  0  0  0  0  0  0  # atno 17395 bound_to 11000

$$$$
