AV-unprocessed.smi:546|AV-procd|sdf|2886|dock5
  -GOLD-   2262023383D 1   1.00000     0.00000
 Structure written by MMmdl.
 51 53  0  0  0  0  0  0  0  0  2 V2000
  154.0121  138.6624  154.8140 C   0  0  0  0  0  0  0  0  0  0  0  0
  152.5001  138.4254  154.8189 C   0  0  0  0  0  0  0  0  0  0  0  0
  151.8334  139.6696  154.6893 O   0  0  0  0  0  0  0  0  0  0  0  0
  152.0264  140.5110  155.8159 C   0  0  0  0  0  0  0  0  0  0  0  0
  151.3631  139.8855  157.0508 C   0  0  0  0  0  0  0  0  0  0  0  0
  151.5340  140.7174  158.2415 N   0  0  0  0  0  0  0  0  0  0  0  0
  150.7896  141.7797  158.6592 C   0  0  0  0  0  0  0  0  0  0  0  0
  149.6487  142.2190  157.9836 N   0  0  0  0  0  0  0  0  0  0  0  0
  149.5402  142.2398  156.5259 C   0  0  0  0  0  0  0  0  0  0  0  0
  148.2192  141.6100  156.0445 C   0  0  2  0  0  0  0  0  0  0  0  0
  148.1334  141.5815  154.5131 C   0  0  0  0  0  0  0  0  0  0  0  0
  147.0245  142.3505  156.6680 C   0  0  0  0  0  0  0  0  0  0  0  0
  147.1752  142.4162  158.1970 C   0  0  2  0  0  0  0  0  0  0  0  0
  146.0379  143.2184  158.8426 C   0  0  0  0  0  0  0  0  0  0  0  0
  148.5549  143.0029  158.5582 C   0  0  0  0  0  0  0  0  0  0  0  0
  151.2594  142.3903  159.7492 N   0  0  0  0  0  0  0  0  0  0  0  0
  152.3771  141.6390  160.0740 C   0  0  0  0  0  0  0  0  0  0  0  0
  152.5658  140.6296  159.1832 C   0  0  0  0  0  0  0  0  0  0  0  0
  153.6952  139.6748  159.2516 C   0  0  0  0  0  0  0  0  0  0  0  0
  153.8254  138.7823  158.4161 O   0  0  0  0  0  0  0  0  0  0  0  0
  154.5204  139.9248  160.3171 N   0  5  0  0  0  0  0  0  0  0  0  0
  154.3657  140.9344  161.2425 C   0  0  0  0  0  0  0  0  0  0  0  0
  155.1610  141.0940  162.1695 O   0  0  0  0  0  0  0  0  0  0  0  0
  153.3035  141.7939  161.1410 N   0  0  0  0  0  0  0  0  0  0  0  0
  153.1128  142.8775  162.1093 C   0  0  0  0  0  0  0  0  0  0  0  0
  154.5536  137.7253  154.9442 H   0  0  0  0  0  0  0  0  0  0  0  0
  154.3057  139.3344  155.6209 H   0  0  0  0  0  0  0  0  0  0  0  0
  154.3355  139.1049  153.8717 H   0  0  0  0  0  0  0  0  0  0  0  0
  152.2261  137.7622  153.9970 H   0  0  0  0  0  0  0  0  0  0  0  0
  152.2041  137.9385  155.7494 H   0  0  0  0  0  0  0  0  0  0  0  0
  153.0934  140.6455  155.9979 H   0  0  0  0  0  0  0  0  0  0  0  0
  151.6032  141.4980  155.6237 H   0  0  0  0  0  0  0  0  0  0  0  0
  150.3121  139.7184  156.8451 H   0  0  0  0  0  0  0  0  0  0  0  0
  151.7707  138.8949  157.2463 H   0  0  0  0  0  0  0  0  0  0  0  0
  149.6263  143.2680  156.1718 H   0  0  0  0  0  0  0  0  0  0  0  0
  150.3799  141.6924  156.0954 H   0  0  0  0  0  0  0  0  0  0  0  0
  148.1944  140.5785  156.3949 H   0  0  0  0  0  0  0  0  0  0  0  0
  148.1702  142.5879  154.0947 H   0  0  0  0  0  0  0  0  0  0  0  0
  147.2058  141.1145  154.1808 H   0  0  0  0  0  0  0  0  0  0  0  0
  148.9596  141.0122  154.0861 H   0  0  0  0  0  0  0  0  0  0  0  0
  146.9642  143.3605  156.2597 H   0  0  0  0  0  0  0  0  0  0  0  0
  146.0926  141.8495  156.4039 H   0  0  0  0  0  0  0  0  0  0  0  0
  147.1204  141.3975  158.5832 H   0  0  0  0  0  0  0  0  0  0  0  0
  146.0339  144.2518  158.4945 H   0  0  0  0  0  0  0  0  0  0  0  0
  146.1370  143.2326  159.9284 H   0  0  0  0  0  0  0  0  0  0  0  0
  145.0669  142.7825  158.6057 H   0  0  0  0  0  0  0  0  0  0  0  0
  148.6746  143.0784  159.6386 H   0  0  0  0  0  0  0  0  0  0  0  0
  148.6292  144.0260  158.1867 H   0  0  0  0  0  0  0  0  0  0  0  0
  153.9274  143.5988  162.0353 H   0  0  0  0  0  0  0  0  0  0  0  0
  153.0937  142.4870  163.1275 H   0  0  0  0  0  0  0  0  0  0  0  0
  152.1797  143.4188  161.9559 H   0  0  0  0  0  0  0  0  0  0  0  0
  1  2  1  0  0  0  0
  1 26  1  0  0  0  0
  1 27  1  0  0  0  0
  1 28  1  0  0  0  0
  2  3  1  0  0  0  0
  2 29  1  0  0  0  0
  2 30  1  0  0  0  0
  3  4  1  0  0  0  0
  4  5  1  0  0  0  0
  4 31  1  0  0  0  0
  4 32  1  0  0  0  0
  5  6  1  0  0  0  0
  5 33  1  0  0  0  0
  5 34  1  0  0  0  0
  6 18  1  0  0  0  0
  6  7  1  0  0  0  0
  7  8  1  0  0  0  0
  7 16  2  0  0  0  0
  8 15  1  0  0  0  0
  8  9  1  0  0  0  0
  9 10  1  0  0  0  0
  9 35  1  0  0  0  0
  9 36  1  0  0  0  0
 10 11  1  0  0  0  0
 10 12  1  0  0  0  0
 10 37  1  0  0  0  0
 11 38  1  0  0  0  0
 11 39  1  0  0  0  0
 11 40  1  0  0  0  0
 12 13  1  0  0  0  0
 12 41  1  0  0  0  0
 12 42  1  0  0  0  0
 13 14  1  0  0  0  0
 13 15  1  0  0  0  0
 13 43  1  0  0  0  0
 14 44  1  0  0  0  0
 14 45  1  0  0  0  0
 14 46  1  0  0  0  0
 15 47  1  0  0  0  0
 15 48  1  0  0  0  0
 16 17  1  0  0  0  0
 17 24  1  0  0  0  0
 17 18  2  0  0  0  0
 18 19  1  0  0  0  0
 19 20  2  0  0  0  0
 19 21  1  0  0  0  0
 21 22  1  0  0  0  0
 22 23  2  0  0  0  0
 22 24  1  0  0  0  0
 24 25  1  0  0  0  0
 25 49  1  0  0  0  0
 25 50  1  0  0  0  0
 25 51  1  0  0  0  0
M  CHG  1  21  -1
M  END
> <s_m_source_file>
AV-unprocessed.smi

> <i_m_source_file_index>
546

> <i_lp_mmshare_version>
43012

> <i_f3d_flags>
0

> <s_epik_input>
W0NIM11uMWMoPU8pW25IXWMoPU8pYyhjMTIpbihbQ0gyXVtDSDJdT1tDSDJdW0NIM10pYyhuMilOM1tDSDJdW0NAQEhdKFtDSDNdKVtDSDJdW0NAQEhdKFtDSDNdKVtDSDJdMw==

> <s_epik_cmdline>
J2VwaWtfcHl0aG9uJywgJy1waCcsICc3LjAnLCAnLXRuJywgJzgnLCAnLW1hJywgJzIwMCcsICctbWV0YWxfYmluZGluZycsICctaW1hZScsICc8aW5maWxlLm1hZT4nLCAnLW9tYWUnLCAnPG91dGZpbGUubWFlPic=

> <r_lp_tautomer_probability>
1

> <r_epik_Ionization_Penalty>
5.12825

> <r_epik_Ionization_Penalty_Charging>
0.0743105

> <r_epik_Ionization_Penalty_Neutral>
5.05394

> <r_epik_State_Penalty>
5.04406

> <r_epik_Charging_Adjusted_Penalty>
5.11837

> <i_epik_Tot_Q>
-1

> <i_epik_Tot_abs_Q>
1

> <r_epik_Metal_State_Penalty>
1.15122

> <b_epik_Metal_Only>
1

> <s_lp_Force_Field>
OPLS_2005

> <r_lp_Energy>
39.602

> <b_lp_Chiralities_Consistent>
1

> <s_lp_Variant>
AV-unprocessed.smi:546-4

> <Gold.Version>
5.8.1

> <Gold.Id.Protein>
6NUR|6NUR_protein|mol2

> <Gold.PLP.Fitness>
44.0368

> <Gold.PLP.PLP>
-41.0863

> <Gold.PLP.part.hbond>
-4.0000

> <Gold.PLP.part.metal>
0.0000

> <Gold.PLP.part.buried>
0.1536

> <Gold.PLP.part.nonpolar>
-36.2498

> <Gold.PLP.part.repulsive>
0.0763

> <Gold.PLP.ligand.clash>
0.0000

> <Gold.PLP.ligand.torsion>
0.7968

> <Gold.PLP.Chemscore.Hbond>
1.4000

> <Gold.PLP.Chemscore.CHOScore>
0.0000

> <Gold.PLP.Chemscore.Metal>
0.0000

> <Gold.Chemscore.Hbonds>
donor molecule, donor type, donor heavy atom, donor atom, acceptor molecule, acceptor atom, score
      P1  H  7989  7998       L1     3  0.95
      P1  H  7997  8008       L1    20  0.50

> <Gold.PLP.Chemscore.Internal.Correction>
0.3441

> <Gold.Rescore>
     Score         DG    S(hbond)    S(metal)    S(lipo)     H(rot)  DE(clash)    DE(int)     intcor
      7.18     -10.15       0.00        0.00      73.21       1.52       1.93       1.05       ----

> <Gold.Chemscore.Fitness>
7.1787

> <Gold.Chemscore.DG>
-10.1535

> <Gold.Chemscore.ZeroCoef>
-5.4800

> <Gold.Chemscore.Hbond>
0.0000

> <Gold.Chemscore.Metal>
0.0000

> <Gold.Chemscore.Lipo>
73.2145

> <Gold.Chemscore.Internal_Hbond>
0.0000

> <Gold.Chemscore.DEClash>
1.9263

> <Gold.Chemscore.DEInternal>
1.0486

> <Gold.Chemscore.Rot>
1.5206

> <Gold.Chemscore.Internal.Correction>
   9.000000E+99

> <Gold.Chemscore.Hbonds>
donor molecule, donor type, donor heavy atom, donor atom, acceptor molecule, acceptor atom, score
      P1  H  7989  7998       L1     3  0.20
      P1  H  7997  8008       L1    20  0.02

> <Gold.Chemscore.Hbond.Weighted>
-0.0001

> <Gold.Chemscore.Metal.Weighted>
-0.0000

> <Gold.Chemscore.Lipo.Weighted>
-8.5661

> <Gold.Chemscore.Internal_Hbond.Weighted>
0.0000

> <Gold.Chemscore.DEClash.Weighted>
1.9263

> <Gold.Chemscore.DEInternal.Weighted>
1.0486

> <Gold.Chemscore.Rot.Weighted>
3.8926

> <Gold.Chemscore.Internal.Correction.Weighted>
   9.000000E+99

> <Gold.Protein.RotatedTorsions>
[ 6907 6896 6895 6894 ] final  138.79 input  -60.11 | X-H torsion
[ 7974 7965 7964 7962 ] final -159.66 input  175.53 | X-H torsion
[ 8008 7997 7996 7995 ] final -111.45 input   59.86 | X-H torsion
[ 10167 10162 10161 10158 ] final  109.39 input  -65.29 | X-H torsion
[ 10718 10713 10712 10709 ] final   95.55 input   66.30 | X-H torsion
[ 10763 10752 10751 10750 ] final -170.59 input  -60.55 | X-H torsion
[ 11005 11000 10999 10996 ] final   44.44 input  -57.11 | X-H torsion

> <Gold.Protein.ActiveResidues>
 VAL166  LYS551  ARG553  GLY616  TRP617  ASP618  TYR619  PRO620  LYS621  CYS622 
 ASP623  PHE694  ASN695  SER759  ASP760  ASP761  ALA762  ILE779  LEU786  VAL792 
 PHE793  MET794  SER795  GLU796  ALA797  LYS798  CYS799  TRP800  GLU811  SER814 

> <Gold.Protein.RotatedAtoms>
  152.2625  133.5310  159.5389 H   0  0  0  0  0  0  0  0  0  0  0  0  # atno 6907 bound_to 6896
  150.7130  134.0810  159.3907 H   0  0  0  0  0  0  0  0  0  0  0  0  # atno 6908 bound_to 6896
  151.8727  135.0483  160.0531 H   0  0  0  0  0  0  0  0  0  0  0  0  # atno 6909 bound_to 6896
  144.7456  140.3652  143.6087 H   0  0  0  0  0  0  0  0  0  0  0  0  # atno 7974 bound_to 7965
  154.9900  140.0395  157.2315 H   0  0  0  0  0  0  0  0  0  0  0  0  # atno 8008 bound_to 7997
  154.7637  140.2789  155.6171 H   0  0  0  0  0  0  0  0  0  0  0  0  # atno 8009 bound_to 7997
  156.2908  140.2623  156.2422 H   0  0  0  0  0  0  0  0  0  0  0  0  # atno 8010 bound_to 7997
  139.6770  144.7121  151.1584 H   0  0  0  0  0  0  0  0  0  0  0  0  # atno 10167 bound_to 10162
  157.6937  131.0549  150.4356 H   0  0  0  0  0  0  0  0  0  0  0  0  # atno 10718 bound_to 10713
  154.6398  135.2897  155.0117 H   0  0  0  0  0  0  0  0  0  0  0  0  # atno 10763 bound_to 10752
  154.1247  135.6542  153.4914 H   0  0  0  0  0  0  0  0  0  0  0  0  # atno 10764 bound_to 10752
  153.0321  135.5296  154.7260 H   0  0  0  0  0  0  0  0  0  0  0  0  # atno 10765 bound_to 10752
  140.1551  134.4412  155.8355 H   0  0  0  0  0  0  0  0  0  0  0  0  # atno 11005 bound_to 11000
  145.7135  139.1691  143.2525 LP  0  0  0  0  0  0  0  0  0  0  0  0  # atno 17320 bound_to 7965
  146.1329  140.7161  142.9403 LP  0  0  0  0  0  0  0  0  0  0  0  0  # atno 17321 bound_to 7965
  140.7639  143.5757  150.8948 LP  0  0  0  0  0  0  0  0  0  0  0  0  # atno 17342 bound_to 10162
  139.9426  143.6364  152.3050 LP  0  0  0  0  0  0  0  0  0  0  0  0  # atno 17343 bound_to 10162
  156.4718  130.4054  149.6513 LP  0  0  0  0  0  0  0  0  0  0  0  0  # atno 17370 bound_to 10713
  156.3591  130.7472  151.2441 LP  0  0  0  0  0  0  0  0  0  0  0  0  # atno 17371 bound_to 10713
  141.2203  133.6889  156.7493 LP  0  0  0  0  0  0  0  0  0  0  0  0  # atno 17394 bound_to 11000
  140.2557  134.8506  157.3710 LP  0  0  0  0  0  0  0  0  0  0  0  0  # atno 17395 bound_to 11000

$$$$
