AV-unprocessed.smi:2389|AV-procd|sdf|9472|dock5
  -GOLD-   2272013103D 1   1.00000     0.00000
 Structure written by MMmdl.
 34 35  0  0  0  0  0  0  0  0  1 V2000
  152.0663  138.3792  154.5243 C   0  0  0  0  0  0  0  0  0  0  0  0
  151.0015  137.5519  155.2484 C   0  0  0  0  0  0  0  0  0  0  0  0
  149.7532  137.7298  154.5851 O   0  0  0  0  0  0  0  0  0  0  0  0
  149.2340  139.0051  154.4927 C   0  0  0  0  0  0  0  0  0  0  0  0
  148.1630  139.2370  153.6092 C   0  0  0  0  0  0  0  0  0  0  0  0
  147.6405  140.5392  153.5152 C   0  0  0  0  0  0  0  0  0  0  0  0
  148.2064  141.5577  154.3054 C   0  0  0  0  0  0  0  0  0  0  0  0
  149.2792  141.2486  155.1707 C   0  0  0  0  0  0  0  0  0  0  0  0
  149.7818  142.3416  155.9258 N   0  0  0  0  0  0  0  0  0  0  0  0
  150.7876  142.3407  156.8187 C   0  0  0  0  0  0  0  0  0  0  0  0
  151.4601  141.3580  157.1330 O   0  0  0  0  0  0  0  0  0  0  0  0
  150.9745  143.5615  157.3402 N   0  0  0  0  0  0  0  0  0  0  0  0
  151.9832  143.8971  158.3367 C   0  0  0  0  0  0  0  0  0  0  0  0
  151.9458  143.0529  159.5963 C   0  0  0  0  0  0  0  0  0  0  0  0
  152.4553  143.5903  160.9142 C   0  0  0  0  0  0  0  0  0  0  0  0
  153.2267  142.5145  160.1899 C   0  0  0  0  0  0  0  0  0  0  0  0
  149.7741  139.9892  155.2526 N   0  0  0  0  0  0  0  0  0  0  0  0
  153.0394  138.2647  155.0021 H   0  0  0  0  0  0  0  0  0  0  0  0
  151.8117  139.4392  154.5345 H   0  0  0  0  0  0  0  0  0  0  0  0
  152.1648  138.0674  153.4842 H   0  0  0  0  0  0  0  0  0  0  0  0
  151.2883  136.4990  155.2430 H   0  0  0  0  0  0  0  0  0  0  0  0
  150.9318  137.8776  156.2877 H   0  0  0  0  0  0  0  0  0  0  0  0
  147.7525  138.4334  153.0157 H   0  0  0  0  0  0  0  0  0  0  0  0
  146.8196  140.7543  152.8472 H   0  0  0  0  0  0  0  0  0  0  0  0
  147.8172  142.5637  154.2447 H   0  0  0  0  0  0  0  0  0  0  0  0
  149.3188  143.2250  155.7721 H   0  0  0  0  0  0  0  0  0  0  0  0
  150.3769  144.3121  157.0264 H   0  0  0  0  0  0  0  0  0  0  0  0
  152.9600  143.7659  157.8710 H   0  0  0  0  0  0  0  0  0  0  0  0
  151.9104  144.9539  158.5997 H   0  0  0  0  0  0  0  0  0  0  0  0
  151.0912  142.3807  159.6479 H   0  0  0  0  0  0  0  0  0  0  0  0
  152.8786  144.5928  160.9237 H   0  0  0  0  0  0  0  0  0  0  0  0
  151.9142  143.3050  161.8140 H   0  0  0  0  0  0  0  0  0  0  0  0
  153.2033  141.5105  160.6083 H   0  0  0  0  0  0  0  0  0  0  0  0
  154.1648  142.8020  159.7188 H   0  0  0  0  0  0  0  0  0  0  0  0
  1  2  1  0  0  0  0
  1 18  1  0  0  0  0
  1 19  1  0  0  0  0
  1 20  1  0  0  0  0
  2  3  1  0  0  0  0
  2 21  1  0  0  0  0
  2 22  1  0  0  0  0
  3  4  1  0  0  0  0
  4 17  1  0  0  0  0
  4  5  2  0  0  0  0
  5  6  1  0  0  0  0
  5 23  1  0  0  0  0
  6  7  2  0  0  0  0
  6 24  1  0  0  0  0
  7  8  1  0  0  0  0
  7 25  1  0  0  0  0
  8  9  1  0  0  0  0
  8 17  2  0  0  0  0
  9 10  1  0  0  0  0
  9 26  1  0  0  0  0
 10 11  2  0  0  0  0
 10 12  1  0  0  0  0
 12 13  1  0  0  0  0
 12 27  1  0  0  0  0
 13 14  1  0  0  0  0
 13 28  1  0  0  0  0
 13 29  1  0  0  0  0
 14 16  1  0  0  0  0
 14 15  1  0  0  0  0
 14 30  1  0  0  0  0
 15 16  1  0  0  0  0
 15 31  1  0  0  0  0
 15 32  1  0  0  0  0
 16 33  1  0  0  0  0
 16 34  1  0  0  0  0
M  END
> <s_m_source_file>
AV-unprocessed.smi

> <i_m_source_file_index>
2389

> <i_lp_mmshare_version>
43012

> <i_f3d_flags>
0

> <s_epik_input>
W0NIM11bQ0gyXU9jMVtjSF1bY0hdW2NIXWMobjEpW05IXUMoPU8pW05IXVtDSDJdW0NIXTJbQ0gyXVtDSDJdMg==

> <s_epik_cmdline>
J2VwaWtfcHl0aG9uJywgJy1waCcsICc3LjAnLCAnLXRuJywgJzgnLCAnLW1hJywgJzIwMCcsICctbWV0YWxfYmluZGluZycsICctaW1hZScsICc8aW5maWxlLm1hZT4nLCAnLW9tYWUnLCAnPG91dGZpbGUubWFlPic=

> <r_lp_tautomer_probability>
1

> <r_epik_Ionization_Penalty>
4.07356e-05

> <r_epik_Ionization_Penalty_Charging>
0

> <r_epik_Ionization_Penalty_Neutral>
4.07356e-05

> <r_epik_State_Penalty>
-0

> <r_epik_Charging_Adjusted_Penalty>
0

> <i_epik_Tot_Q>
0

> <i_epik_Tot_abs_Q>
0

> <r_epik_Metal_State_Penalty>
-0

> <b_epik_Metal_Only>
0

> <s_lp_Force_Field>
OPLS_2005

> <r_lp_Energy>
13.6513

> <b_lp_Chiralities_Consistent>
1

> <s_lp_Variant>
AV-unprocessed.smi:2389-1

> <Gold.Version>
5.8.1

> <Gold.Id.Protein>
6NUR|6NUR_protein|mol2

> <Gold.PLP.Fitness>
41.7867

> <Gold.PLP.PLP>
-36.9191

> <Gold.PLP.part.hbond>
-2.0000

> <Gold.PLP.part.metal>
0.0000

> <Gold.PLP.part.buried>
-2.7178

> <Gold.PLP.part.nonpolar>
-33.4281

> <Gold.PLP.part.repulsive>
0.4248

> <Gold.PLP.ligand.clash>
0.0000

> <Gold.PLP.ligand.torsion>
0.6352

> <Gold.PLP.Chemscore.Hbond>
1.8564

> <Gold.PLP.Chemscore.CHOScore>
0.0000

> <Gold.PLP.Chemscore.Metal>
0.0000

> <Gold.Chemscore.Hbonds>
donor molecule, donor type, donor heavy atom, donor atom, acceptor molecule, acceptor atom, score
      L1  H     9    26       P1  8028  1.00
      L1  H    12    27       P1  8028  0.86

> <Gold.PLP.Chemscore.Internal.Correction>
0.5687

> <Gold.Rescore>
     Score         DG    S(hbond)    S(metal)    S(lipo)     H(rot)  DE(clash)    DE(int)     intcor
     15.36     -17.27       1.91        0.00      81.64       1.62       0.04       1.87       ----

> <Gold.Chemscore.Fitness>
15.3579

> <Gold.Chemscore.DG>
-17.2686

> <Gold.Chemscore.ZeroCoef>
-5.4800

> <Gold.Chemscore.Hbond>
1.9137

> <Gold.Chemscore.Metal>
0.0000

> <Gold.Chemscore.Lipo>
81.6356

> <Gold.Chemscore.Internal_Hbond>
0.0000

> <Gold.Chemscore.DEClash>
0.0391

> <Gold.Chemscore.DEInternal>
1.8717

> <Gold.Chemscore.Rot>
1.6228

> <Gold.Chemscore.Internal.Correction>
   9.000000E+99

> <Gold.Chemscore.Hbonds>
donor molecule, donor type, donor heavy atom, donor atom, acceptor molecule, acceptor atom, score
      L1  H     9    26       P1  8028  0.96
      L1  H    12    27       P1  8028  0.71

> <Gold.Chemscore.Hbond.Weighted>
-6.3918

> <Gold.Chemscore.Metal.Weighted>
-0.0000

> <Gold.Chemscore.Lipo.Weighted>
-9.5514

> <Gold.Chemscore.Internal_Hbond.Weighted>
0.0000

> <Gold.Chemscore.DEClash.Weighted>
0.0391

> <Gold.Chemscore.DEInternal.Weighted>
1.8717

> <Gold.Chemscore.Rot.Weighted>
4.1545

> <Gold.Chemscore.Internal.Correction.Weighted>
   9.000000E+99

> <Gold.Protein.RotatedTorsions>
[ 6907 6896 6895 6894 ] final -138.11 input  -60.11 | X-H torsion
[ 7974 7965 7964 7962 ] final  150.05 input  175.53 | X-H torsion
[ 8008 7997 7996 7995 ] final   28.42 input   59.86 | X-H torsion
[ 10167 10162 10161 10158 ] final  -54.54 input  -65.29 | X-H torsion
[ 10718 10713 10712 10709 ] final  161.88 input   66.30 | X-H torsion
[ 10763 10752 10751 10750 ] final  151.21 input  -60.55 | X-H torsion
[ 11005 11000 10999 10996 ] final   41.14 input  -57.11 | X-H torsion

> <Gold.Protein.ActiveResidues>
 VAL166  LYS551  ARG553  GLY616  TRP617  ASP618  TYR619  PRO620  LYS621  CYS622 
 ASP623  PHE694  ASN695  SER759  ASP760  ASP761  ALA762  ILE779  LEU786  VAL792 
 PHE793  MET794  SER795  GLU796  ALA797  LYS798  CYS799  TRP800  GLU811  SER814 

> <Gold.Protein.RotatedAtoms>
  151.0309  133.5791  159.2660 H   0  0  0  0  0  0  0  0  0  0  0  0  # atno 6907 bound_to 6896
  151.2873  135.0730  159.9201 H   0  0  0  0  0  0  0  0  0  0  0  0  # atno 6908 bound_to 6896
  152.5344  134.0014  159.7950 H   0  0  0  0  0  0  0  0  0  0  0  0  # atno 6909 bound_to 6896
  144.8392  139.6359  143.6024 H   0  0  0  0  0  0  0  0  0  0  0  0  # atno 7974 bound_to 7965
  155.0585  140.3187  155.4668 H   0  0  0  0  0  0  0  0  0  0  0  0  # atno 8008 bound_to 7997
  156.2818  140.2133  156.5656 H   0  0  0  0  0  0  0  0  0  0  0  0  # atno 8009 bound_to 7997
  154.7152  140.0494  157.0575 H   0  0  0  0  0  0  0  0  0  0  0  0  # atno 8010 bound_to 7997
  140.6425  143.2516  151.4950 H   0  0  0  0  0  0  0  0  0  0  0  0  # atno 10167 bound_to 10162
  157.1304  131.0515  151.2374 H   0  0  0  0  0  0  0  0  0  0  0  0  # atno 10718 bound_to 10713
  154.1000  135.2846  155.3253 H   0  0  0  0  0  0  0  0  0  0  0  0  # atno 10763 bound_to 10752
  154.6562  135.5351  153.7964 H   0  0  0  0  0  0  0  0  0  0  0  0  # atno 10764 bound_to 10752
  153.0382  135.6522  154.1164 H   0  0  0  0  0  0  0  0  0  0  0  0  # atno 10765 bound_to 10752
  140.1863  134.4041  155.8171 H   0  0  0  0  0  0  0  0  0  0  0  0  # atno 11005 bound_to 11000
  146.2687  139.6582  142.9311 LP  0  0  0  0  0  0  0  0  0  0  0  0  # atno 17320 bound_to 7965
  145.4729  141.0436  143.2688 LP  0  0  0  0  0  0  0  0  0  0  0  0  # atno 17321 bound_to 7965
  139.5634  144.2100  152.1728 LP  0  0  0  0  0  0  0  0  0  0  0  0  # atno 17342 bound_to 10162
  140.1375  144.5232  150.6764 LP  0  0  0  0  0  0  0  0  0  0  0  0  # atno 17343 bound_to 10162
  157.4398  130.7537  149.7059 LP  0  0  0  0  0  0  0  0  0  0  0  0  # atno 17370 bound_to 10713
  155.9809  130.4024  150.3501 LP  0  0  0  0  0  0  0  0  0  0  0  0  # atno 17371 bound_to 10713
  141.2225  133.7024  156.8018 LP  0  0  0  0  0  0  0  0  0  0  0  0  # atno 17394 bound_to 11000
  140.2210  134.8757  157.3377 LP  0  0  0  0  0  0  0  0  0  0  0  0  # atno 17395 bound_to 11000

$$$$
