AV-unprocessed.smi:1009|AV-procd|sdf|4414|dock3
  -GOLD-   22720 2363D 1   1.00000     0.00000
 Structure written by MMmdl.
 33 33  0  0  0  0  0  0  0  0  2 V2000
  150.6248  138.1078  148.6313 C   0  0  0  0  0  0  0  0  0  0  0  0
  149.8268  136.8851  148.8708 N   0  3  0  0  0  0  0  0  0  0  0  0
  150.5072  135.6807  148.3407 C   0  0  0  0  0  0  0  0  0  0  0  0
  148.4306  137.0274  148.3885 C   0  0  0  0  0  0  0  0  0  0  0  0
  147.7117  138.2413  149.0083 C   0  0  0  0  0  0  0  0  0  0  0  0
  147.5296  138.0688  150.4438 N   0  0  0  0  0  0  0  0  0  0  0  0
  146.8796  138.9272  151.2449 C   0  0  0  0  0  0  0  0  0  0  0  0
  146.3337  139.9526  150.8380 O   0  0  0  0  0  0  0  0  0  0  0  0
  146.8550  138.5847  152.7347 C   0  0  0  0  0  0  0  0  0  0  0  0
  147.3513  139.6948  153.5278 N   0  0  0  0  0  0  0  0  0  0  0  0
  148.6623  140.0113  153.8309 C   0  0  0  0  0  0  0  0  0  0  0  0
  148.6442  141.1285  154.6173 C   0  0  0  0  0  0  0  0  0  0  0  0
  147.2571  141.4131  154.7329 C   0  0  0  0  0  0  0  0  0  0  0  0
  146.7573  142.4877  155.4633 N   0  0  0  0  0  0  0  0  0  0  0  0
  146.4787  140.5640  154.0877 N   0  0  0  0  0  0  0  0  0  0  0  0
  150.7115  138.3152  147.5637 H   0  0  0  0  0  0  0  0  0  0  0  0
  151.6293  138.0006  149.0422 H   0  0  0  0  0  0  0  0  0  0  0  0
  150.1645  138.9719  149.1120 H   0  0  0  0  0  0  0  0  0  0  0  0
  150.5726  135.7151  147.2524 H   0  0  0  0  0  0  0  0  0  0  0  0
  149.9832  134.7681  148.6221 H   0  0  0  0  0  0  0  0  0  0  0  0
  151.5202  135.6060  148.7380 H   0  0  0  0  0  0  0  0  0  0  0  0
  148.4376  137.1572  147.3050 H   0  0  0  0  0  0  0  0  0  0  0  0
  147.8826  136.1040  148.5832 H   0  0  0  0  0  0  0  0  0  0  0  0
  148.2558  139.1681  148.8244 H   0  0  0  0  0  0  0  0  0  0  0  0
  146.7279  138.3633  148.5543 H   0  0  0  0  0  0  0  0  0  0  0  0
  147.9498  137.2529  150.8663 H   0  0  0  0  0  0  0  0  0  0  0  0
  145.8353  138.3560  153.0482 H   0  0  0  0  0  0  0  0  0  0  0  0
  147.4580  137.6965  152.9306 H   0  0  0  0  0  0  0  0  0  0  0  0
  149.4892  139.4188  153.4676 H   0  0  0  0  0  0  0  0  0  0  0  0
  149.4873  141.6540  155.0406 H   0  0  0  0  0  0  0  0  0  0  0  0
  147.3700  143.1243  155.9524 H   0  0  0  0  0  0  0  0  0  0  0  0
  145.7716  142.7062  155.4678 H   0  0  0  0  0  0  0  0  0  0  0  0
  149.7762  136.7773  149.8738 H   0  0  0  0  0  0  0  0  0  0  0  0
  1  2  1  0  0  0  0
  1 16  1  0  0  0  0
  1 17  1  0  0  0  0
  1 18  1  0  0  0  0
  2  3  1  0  0  0  0
  2  4  1  0  0  0  0
  2 33  1  0  0  0  0
  3 19  1  0  0  0  0
  3 20  1  0  0  0  0
  3 21  1  0  0  0  0
  4  5  1  0  0  0  0
  4 22  1  0  0  0  0
  4 23  1  0  0  0  0
  5  6  1  0  0  0  0
  5 24  1  0  0  0  0
  5 25  1  0  0  0  0
  6  7  1  0  0  0  0
  6 26  1  0  0  0  0
  7  8  2  0  0  0  0
  7  9  1  0  0  0  0
  9 10  1  0  0  0  0
  9 27  1  0  0  0  0
  9 28  1  0  0  0  0
 10 15  1  0  0  0  0
 10 11  1  0  0  0  0
 11 12  2  0  0  0  0
 11 29  1  0  0  0  0
 12 13  1  0  0  0  0
 12 30  1  0  0  0  0
 13 14  1  0  0  0  0
 13 15  2  0  0  0  0
 14 31  1  0  0  0  0
 14 32  1  0  0  0  0
M  CHG  1   2   1
M  END
> <s_m_source_file>
AV-unprocessed.smi

> <i_m_source_file_index>
1009

> <i_lp_mmshare_version>
43012

> <i_f3d_flags>
0

> <s_epik_input>
W0NIM11OKFtDSDNdKVtDSDJdW0NIMl1bTkhdQyg9TylbQ0gyXW4xW2NIXVtjSF1jKG4xKVtOSDJd

> <s_epik_cmdline>
J2VwaWtfcHl0aG9uJywgJy1waCcsICc3LjAnLCAnLXRuJywgJzgnLCAnLW1hJywgJzIwMCcsICctbWV0YWxfYmluZGluZycsICctaW1hZScsICc8aW5maWxlLm1hZT4nLCAnLW9tYWUnLCAnPG91dGZpbGUubWFlPic=

> <r_lp_tautomer_probability>
1

> <r_epik_Ionization_Penalty>
0.00595791

> <r_epik_Ionization_Penalty_Charging>
0.00581587

> <r_epik_Ionization_Penalty_Neutral>
0.000142034

> <r_epik_State_Penalty>
0.00427192

> <r_epik_Charging_Adjusted_Penalty>
0.0100878

> <i_epik_Tot_Q>
1

> <i_epik_Tot_abs_Q>
1

> <r_epik_Metal_State_Penalty>
-0

> <b_epik_Metal_Only>
0

> <s_lp_Force_Field>
OPLS_2005

> <r_lp_Energy>
4.99311

> <b_lp_Chiralities_Consistent>
1

> <s_lp_Variant>
AV-unprocessed.smi:1009-1

> <Gold.Version>
5.8.1

> <Gold.Id.Protein>
6NUR|6NUR_protein|mol2

> <Gold.PLP.Fitness>
38.4018

> <Gold.PLP.PLP>
-26.6409

> <Gold.PLP.part.hbond>
-4.0013

> <Gold.PLP.part.metal>
0.0000

> <Gold.PLP.part.buried>
-0.6242

> <Gold.PLP.part.nonpolar>
-21.6077

> <Gold.PLP.part.repulsive>
0.1874

> <Gold.PLP.ligand.clash>
0.0000

> <Gold.PLP.ligand.torsion>
0.3984

> <Gold.PLP.Chemscore.Hbond>
3.7440

> <Gold.PLP.Chemscore.CHOScore>
0.4242

> <Gold.PLP.Chemscore.Metal>
0.0000

> <Gold.Chemscore.Hbonds>
donor molecule, donor type, donor heavy atom, donor atom, acceptor molecule, acceptor atom, score
      L1  H     6    26       P1  7948  1.00
      L1  H    14    31       P1  8028  0.35
      L1  C    11    29       P1  7957  0.46

> <Gold.PLP.Chemscore.Internal.Correction>
0.0533

> <Gold.Rescore>
     Score         DG    S(hbond)    S(metal)    S(lipo)     H(rot)  DE(clash)    DE(int)     intcor
     12.61     -13.01       2.87        0.00      36.14       2.45       0.02       0.37       ----

> <Gold.Chemscore.Fitness>
12.6138

> <Gold.Chemscore.DG>
-13.0081

> <Gold.Chemscore.ZeroCoef>
-5.4800

> <Gold.Chemscore.Hbond>
2.8657

> <Gold.Chemscore.Metal>
0.0000

> <Gold.Chemscore.Lipo>
36.1368

> <Gold.Chemscore.Internal_Hbond>
0.0000

> <Gold.Chemscore.DEClash>
0.0234

> <Gold.Chemscore.DEInternal>
0.3708

> <Gold.Chemscore.Rot>
2.4497

> <Gold.Chemscore.Internal.Correction>
   9.000000E+99

> <Gold.Chemscore.Hbonds>
donor molecule, donor type, donor heavy atom, donor atom, acceptor molecule, acceptor atom, score
      L1  H     6    26       P1  7948  0.88
      L1  H    14    31       P1  8028  0.03

> <Gold.Chemscore.Hbond.Weighted>
-9.5713

> <Gold.Chemscore.Metal.Weighted>
-0.0000

> <Gold.Chemscore.Lipo.Weighted>
-4.2280

> <Gold.Chemscore.Internal_Hbond.Weighted>
0.0000

> <Gold.Chemscore.DEClash.Weighted>
0.0234

> <Gold.Chemscore.DEInternal.Weighted>
0.3708

> <Gold.Chemscore.Rot.Weighted>
6.2713

> <Gold.Chemscore.Internal.Correction.Weighted>
   9.000000E+99

> <Gold.Protein.RotatedTorsions>
[ 6907 6896 6895 6894 ] final   44.00 input  -60.11 | X-H torsion
[ 7974 7965 7964 7962 ] final   28.70 input  175.53 | X-H torsion
[ 8008 7997 7996 7995 ] final  -95.88 input   59.86 | X-H torsion
[ 10167 10162 10161 10158 ] final -158.26 input  -65.29 | X-H torsion
[ 10718 10713 10712 10709 ] final  -14.56 input   66.30 | X-H torsion
[ 10763 10752 10751 10750 ] final -137.18 input  -60.55 | X-H torsion
[ 11005 11000 10999 10996 ] final -163.31 input  -57.11 | X-H torsion

> <Gold.Protein.ActiveResidues>
 VAL166  LYS551  ARG553  GLY616  TRP617  ASP618  TYR619  PRO620  LYS621  CYS622 
 ASP623  PHE694  ASN695  SER759  ASP760  ASP761  ALA762  ILE779  LEU786  VAL792 
 PHE793  MET794  SER795  GLU796  ALA797  LYS798  CYS799  TRP800  GLU811  SER814 

> <Gold.Protein.RotatedAtoms>
  152.2272  134.8357  160.0478 H   0  0  0  0  0  0  0  0  0  0  0  0  # atno 6907 bound_to 6896
  151.9119  133.3558  159.3875 H   0  0  0  0  0  0  0  0  0  0  0  0  # atno 6908 bound_to 6896
  150.7015  134.4649  159.5442 H   0  0  0  0  0  0  0  0  0  0  0  0  # atno 6909 bound_to 6896
  146.1714  139.7021  142.8965 H   0  0  0  0  0  0  0  0  0  0  0  0  # atno 7974 bound_to 7965
  154.7672  140.0476  157.1021 H   0  0  0  0  0  0  0  0  0  0  0  0  # atno 8008 bound_to 7997
  154.9865  140.3108  155.4904 H   0  0  0  0  0  0  0  0  0  0  0  0  # atno 8009 bound_to 7997
  156.2915  140.2226  156.4967 H   0  0  0  0  0  0  0  0  0  0  0  0  # atno 8010 bound_to 7997
  139.6706  143.9752  152.2281 H   0  0  0  0  0  0  0  0  0  0  0  0  # atno 10167 bound_to 10162
  156.6143  130.4858  149.6189 H   0  0  0  0  0  0  0  0  0  0  0  0  # atno 10718 bound_to 10713
  154.8667  135.3650  154.5181 H   0  0  0  0  0  0  0  0  0  0  0  0  # atno 10763 bound_to 10752
  153.5813  135.7018  153.5467 H   0  0  0  0  0  0  0  0  0  0  0  0  # atno 10764 bound_to 10752
  153.3455  135.4086  155.1568 H   0  0  0  0  0  0  0  0  0  0  0  0  # atno 10765 bound_to 10752
  140.5995  134.4961  157.5203 H   0  0  0  0  0  0  0  0  0  0  0  0  # atno 11005 bound_to 11000
  145.4329  141.0416  143.2900 LP  0  0  0  0  0  0  0  0  0  0  0  0  # atno 17320 bound_to 7965
  144.8169  139.5861  143.7004 LP  0  0  0  0  0  0  0  0  0  0  0  0  # atno 17321 bound_to 7965
  139.9516  144.6617  150.8167 LP  0  0  0  0  0  0  0  0  0  0  0  0  # atno 17342 bound_to 10162
  140.7616  143.3179  151.2690 LP  0  0  0  0  0  0  0  0  0  0  0  0  # atno 17343 bound_to 10162
  156.2364  130.6825  151.1514 LP  0  0  0  0  0  0  0  0  0  0  0  0  # atno 17370 bound_to 10713
  157.7246  131.0659  150.5990 LP  0  0  0  0  0  0  0  0  0  0  0  0  # atno 17371 bound_to 10713
  139.9238  134.8095  156.1129 LP  0  0  0  0  0  0  0  0  0  0  0  0  # atno 17394 bound_to 11000
  141.0881  133.6725  156.2481 LP  0  0  0  0  0  0  0  0  0  0  0  0  # atno 17395 bound_to 11000

$$$$
