AV-unprocessed.smi:609|AV-procd|sdf|3046|dock9
  -GOLD-   2262023563D 1   1.00000     0.00000
 Structure written by MMmdl.
 43 45  0  0  0  0  0  0  0  0  2 V2000
  152.9110  141.1437  159.4440 C   0  0  0  0  0  0  0  0  0  0  0  0
  151.9589  141.1075  158.2616 C   0  0  0  0  0  0  0  0  0  0  0  0
  152.0137  140.0133  157.3690 C   0  0  0  0  0  0  0  0  0  0  0  0
  151.1449  139.9402  156.2583 C   0  0  0  0  0  0  0  0  0  0  0  0
  151.0295  138.9793  155.2685 N   0  0  0  0  0  0  0  0  0  0  0  0
  150.0498  139.4796  154.5210 C   0  0  0  0  0  0  0  0  0  0  0  0
  149.5189  140.6552  154.9080 N   0  0  0  0  0  0  0  0  0  0  0  0
  148.4567  141.3925  154.2477 C   0  0  0  0  0  0  0  0  0  0  0  0
  147.1008  140.6601  154.2989 C   0  0  1  0  0  0  0  0  0  0  0  0
  146.1397  141.4873  153.6757 O   0  0  0  0  0  0  0  0  0  0  0  0
  147.1144  139.2842  153.6057 C   0  0  0  0  0  0  0  0  0  0  0  0
  145.7978  138.1878  154.2036 S   0  0  0  0  0  0  0  0  0  0  0  0
  145.4174  137.1308  152.8397 C   0  0  0  0  0  0  0  0  0  0  0  0
  146.3055  136.5736  152.0104 N   0  3  0  0  0  0  0  0  0  0  0  0
  145.6548  135.8150  151.0746 C   0  0  0  0  0  0  0  0  0  0  0  0
  144.3141  135.9188  151.3507 C   0  0  0  0  0  0  0  0  0  0  0  0
  144.1983  136.7370  152.4460 N   0  0  0  0  0  0  0  0  0  0  0  0
  142.9631  137.1449  153.1167 C   0  0  0  0  0  0  0  0  0  0  0  0
  150.2119  140.9999  156.0639 C   0  0  0  0  0  0  0  0  0  0  0  0
  150.1472  142.0939  156.9453 C   0  0  0  0  0  0  0  0  0  0  0  0
  151.0233  142.1518  158.0492 C   0  0  0  0  0  0  0  0  0  0  0  0
  150.9455  143.3364  158.9956 C   0  0  0  0  0  0  0  0  0  0  0  0
  153.5415  140.2547  159.4749 H   0  0  0  0  0  0  0  0  0  0  0  0
  152.3556  141.1909  160.3811 H   0  0  0  0  0  0  0  0  0  0  0  0
  153.5633  142.0151  159.3830 H   0  0  0  0  0  0  0  0  0  0  0  0
  152.7262  139.2177  157.5305 H   0  0  0  0  0  0  0  0  0  0  0  0
  149.7007  138.9647  153.6378 H   0  0  0  0  0  0  0  0  0  0  0  0
  148.3749  142.3720  154.7211 H   0  0  0  0  0  0  0  0  0  0  0  0
  148.7535  141.5723  153.2135 H   0  0  0  0  0  0  0  0  0  0  0  0
  146.8068  140.5317  155.3415 H   0  0  0  0  0  0  0  0  0  0  0  0
  145.5332  140.9388  153.2015 H   0  0  0  0  0  0  0  0  0  0  0  0
  147.0178  139.4003  152.5255 H   0  0  0  0  0  0  0  0  0  0  0  0
  148.0615  138.7776  153.7898 H   0  0  0  0  0  0  0  0  0  0  0  0
  146.1801  135.2723  150.3023 H   0  0  0  0  0  0  0  0  0  0  0  0
  143.4565  135.4810  150.8606 H   0  0  0  0  0  0  0  0  0  0  0  0
  142.1083  136.6838  152.6214 H   0  0  0  0  0  0  0  0  0  0  0  0
  142.8675  138.2300  153.0683 H   0  0  0  0  0  0  0  0  0  0  0  0
  142.9948  136.8223  154.1577 H   0  0  0  0  0  0  0  0  0  0  0  0
  149.4293  142.8818  156.7722 H   0  0  0  0  0  0  0  0  0  0  0  0
  150.1822  144.0486  158.6805 H   0  0  0  0  0  0  0  0  0  0  0  0
  151.8998  143.8620  159.0304 H   0  0  0  0  0  0  0  0  0  0  0  0
  150.6959  143.0038  160.0034 H   0  0  0  0  0  0  0  0  0  0  0  0
  147.3084  136.6956  152.0688 H   0  0  0  0  0  0  0  0  0  0  0  0
  1  2  1  0  0  0  0
  1 23  1  0  0  0  0
  1 24  1  0  0  0  0
  1 25  1  0  0  0  0
  2 21  1  0  0  0  0
  2  3  2  0  0  0  0
  3  4  1  0  0  0  0
  3 26  1  0  0  0  0
  4 19  2  0  0  0  0
  4  5  1  0  0  0  0
  5  6  2  0  0  0  0
  6  7  1  0  0  0  0
  6 27  1  0  0  0  0
  7  8  1  0  0  0  0
  7 19  1  0  0  0  0
  8  9  1  0  0  0  0
  8 28  1  0  0  0  0
  8 29  1  0  0  0  0
  9 10  1  0  0  0  0
  9 11  1  0  0  0  0
  9 30  1  0  0  0  0
 10 31  1  0  0  0  0
 11 12  1  0  0  0  0
 11 32  1  0  0  0  0
 11 33  1  0  0  0  0
 12 13  1  0  0  0  0
 13 17  1  0  0  0  0
 13 14  2  0  0  0  0
 14 15  1  0  0  0  0
 14 43  1  0  0  0  0
 15 16  2  0  0  0  0
 15 34  1  0  0  0  0
 16 17  1  0  0  0  0
 16 35  1  0  0  0  0
 17 18  1  0  0  0  0
 18 36  1  0  0  0  0
 18 37  1  0  0  0  0
 18 38  1  0  0  0  0
 19 20  1  0  0  0  0
 20 21  2  0  0  0  0
 20 39  1  0  0  0  0
 21 22  1  0  0  0  0
 22 40  1  0  0  0  0
 22 41  1  0  0  0  0
 22 42  1  0  0  0  0
M  CHG  1  14   1
M  END
> <s_m_source_file>
AV-unprocessed.smi

> <i_m_source_file_index>
609

> <i_lp_mmshare_version>
43012

> <i_f3d_flags>
0

> <s_epik_input>
W0NIM11jKFtjSF0xKWMoW0NIM10pW2NIXWMoYzEyKW4oW2NIXW4yKVtDSDJdW0NASF0oW09IXSlbQ0gyXVNjM25bY0hdW2NIXW4zW0NIM10=

> <s_epik_cmdline>
J2VwaWtfcHl0aG9uJywgJy1waCcsICc3LjAnLCAnLXRuJywgJzgnLCAnLW1hJywgJzIwMCcsICctbWV0YWxfYmluZGluZycsICctaW1hZScsICc8aW5maWxlLm1hZT4nLCAnLW9tYWUnLCAnPG91dGZpbGUubWFlPic=

> <r_lp_tautomer_probability>
1

> <r_epik_Ionization_Penalty>
0.215713

> <r_epik_Ionization_Penalty_Charging>
0

> <r_epik_Ionization_Penalty_Neutral>
0.215713

> <r_epik_State_Penalty>
0.19579

> <r_epik_Charging_Adjusted_Penalty>
0.19579

> <i_epik_Tot_Q>
1

> <i_epik_Tot_abs_Q>
1

> <r_epik_Metal_State_Penalty>
0.429751

> <b_epik_Metal_Only>
0

> <s_lp_Force_Field>
OPLS_2005

> <r_lp_Energy>
9.84341

> <b_lp_Chiralities_Consistent>
1

> <s_lp_Variant>
AV-unprocessed.smi:609-2

> <Gold.Version>
5.8.1

> <Gold.Id.Protein>
6NUR|6NUR_protein|mol2

> <Gold.PLP.Fitness>
51.0088

> <Gold.PLP.PLP>
-40.6346

> <Gold.PLP.part.hbond>
-2.0000

> <Gold.PLP.part.metal>
0.0000

> <Gold.PLP.part.buried>
-1.7653

> <Gold.PLP.part.nonpolar>
-36.3429

> <Gold.PLP.part.repulsive>
0.1050

> <Gold.PLP.ligand.clash>
0.0000

> <Gold.PLP.ligand.torsion>
0.7140

> <Gold.PLP.Chemscore.Hbond>
3.0000

> <Gold.PLP.Chemscore.CHOScore>
0.9269

> <Gold.PLP.Chemscore.Metal>
0.0000

> <Gold.Chemscore.Hbonds>
donor molecule, donor type, donor heavy atom, donor atom, acceptor molecule, acceptor atom, score
      L1  H    10    31       P1 10175  1.00
      L1  H    14    43       P1  7948  2.00
      L1  C     6    27       P1  7957  0.53

> <Gold.PLP.Chemscore.Internal.Correction>
0.0215

> <Gold.Rescore>
     Score         DG    S(hbond)    S(metal)    S(lipo)     H(rot)  DE(clash)    DE(int)     intcor
     14.69     -15.70       1.69        0.00      94.21       2.52       0.42       0.60       ----

> <Gold.Chemscore.Fitness>
14.6856

> <Gold.Chemscore.DG>
-15.6978

> <Gold.Chemscore.ZeroCoef>
-5.4800

> <Gold.Chemscore.Hbond>
1.6868

> <Gold.Chemscore.Metal>
0.0000

> <Gold.Chemscore.Lipo>
94.2141

> <Gold.Chemscore.Internal_Hbond>
0.0000

> <Gold.Chemscore.DEClash>
0.4164

> <Gold.Chemscore.DEInternal>
0.5958

> <Gold.Chemscore.Rot>
2.5153

> <Gold.Chemscore.Internal.Correction>
   9.000000E+99

> <Gold.Chemscore.Hbonds>
donor molecule, donor type, donor heavy atom, donor atom, acceptor molecule, acceptor atom, score
      L1  H    10    31       P1 10175  0.45
      L1  H    14    43       P1  7948  0.98

> <Gold.Chemscore.Hbond.Weighted>
-5.6339

> <Gold.Chemscore.Metal.Weighted>
-0.0000

> <Gold.Chemscore.Lipo.Weighted>
-11.0231

> <Gold.Chemscore.Internal_Hbond.Weighted>
0.0000

> <Gold.Chemscore.DEClash.Weighted>
0.4164

> <Gold.Chemscore.DEInternal.Weighted>
0.5958

> <Gold.Chemscore.Rot.Weighted>
6.4391

> <Gold.Chemscore.Internal.Correction.Weighted>
   9.000000E+99

> <Gold.Protein.RotatedTorsions>
[ 6907 6896 6895 6894 ] final  -44.07 input  -60.11 | X-H torsion
[ 7974 7965 7964 7962 ] final  -44.79 input  175.53 | X-H torsion
[ 8008 7997 7996 7995 ] final  115.29 input   59.86 | X-H torsion
[ 10167 10162 10161 10158 ] final -169.40 input  -65.29 | X-H torsion
[ 10718 10713 10712 10709 ] final  161.39 input   66.30 | X-H torsion
[ 10763 10752 10751 10750 ] final   -9.41 input  -60.55 | X-H torsion
[ 11005 11000 10999 10996 ] final  138.16 input  -57.11 | X-H torsion

> <Gold.Protein.ActiveResidues>
 VAL166  LYS551  ARG553  GLY616  TRP617  ASP618  TYR619  PRO620  LYS621  CYS622 
 ASP623  PHE694  ASN695  SER759  ASP760  ASP761  ALA762  ILE779  LEU786  VAL792 
 PHE793  MET794  SER795  GLU796  ALA797  LYS798  CYS799  TRP800  GLU811  SER814 

> <Gold.Protein.RotatedAtoms>
  150.9369  134.8781  159.7587 H   0  0  0  0  0  0  0  0  0  0  0  0  # atno 6907 bound_to 6896
  152.5063  134.3997  159.9422 H   0  0  0  0  0  0  0  0  0  0  0  0  # atno 6908 bound_to 6896
  151.4021  133.3714  159.2768 H   0  0  0  0  0  0  0  0  0  0  0  0  # atno 6909 bound_to 6896
  145.9886  140.7206  142.9328 H   0  0  0  0  0  0  0  0  0  0  0  0  # atno 7974 bound_to 7965
  156.2373  140.2941  156.0346 H   0  0  0  0  0  0  0  0  0  0  0  0  # atno 8008 bound_to 7997
  155.2056  140.0411  157.2942 H   0  0  0  0  0  0  0  0  0  0  0  0  # atno 8009 bound_to 7997
  154.6101  140.2449  155.7687 H   0  0  0  0  0  0  0  0  0  0  0  0  # atno 8010 bound_to 7997
  139.5925  144.1183  152.1651 H   0  0  0  0  0  0  0  0  0  0  0  0  # atno 10167 bound_to 10162
  157.1372  131.0531  151.2344 H   0  0  0  0  0  0  0  0  0  0  0  0  # atno 10718 bound_to 10713
  153.4544  135.7015  153.6089 H   0  0  0  0  0  0  0  0  0  0  0  0  # atno 10763 bound_to 10752
  153.4410  135.3780  155.2228 H   0  0  0  0  0  0  0  0  0  0  0  0  # atno 10764 bound_to 10752
  154.8728  135.3974  154.3961 H   0  0  0  0  0  0  0  0  0  0  0  0  # atno 10765 bound_to 10752
  140.0164  134.9416  157.0385 H   0  0  0  0  0  0  0  0  0  0  0  0  # atno 11005 bound_to 11000
  144.6882  140.3030  143.7260 LP  0  0  0  0  0  0  0  0  0  0  0  0  # atno 17320 bound_to 7965
  145.7664  139.1842  143.2237 LP  0  0  0  0  0  0  0  0  0  0  0  0  # atno 17321 bound_to 7965
  140.0760  144.5740  150.7156 LP  0  0  0  0  0  0  0  0  0  0  0  0  # atno 17342 bound_to 10162
  140.7185  143.2566  151.4357 LP  0  0  0  0  0  0  0  0  0  0  0  0  # atno 17343 bound_to 10162
  157.4339  130.7506  149.7013 LP  0  0  0  0  0  0  0  0  0  0  0  0  # atno 17370 bound_to 10713
  155.9796  130.4039  150.3579 LP  0  0  0  0  0  0  0  0  0  0  0  0  # atno 17371 bound_to 10713
  140.4463  134.1629  155.7178 LP  0  0  0  0  0  0  0  0  0  0  0  0  # atno 17394 bound_to 11000
  141.1746  133.8541  157.1464 LP  0  0  0  0  0  0  0  0  0  0  0  0  # atno 17395 bound_to 11000

$$$$
