AV-unprocessed.smi:703|AV-procd|sdf|3440|dock8
  -GOLD-   22720 0423D 1   1.00000     0.00000
 Structure written by MMmdl.
 37 38  0  0  0  0  0  0  0  0  3 V2000
  146.7412  138.8220  151.6984 C   0  0  0  0  0  0  0  0  0  0  0  0
  146.9987  140.0952  152.5154 C   0  0  0  0  0  0  0  0  0  0  0  0
  148.3298  140.0815  153.1662 N   0  3  1  0  0  0  0  0  0  0  0  0
  148.6696  141.3241  153.9007 C   0  0  0  0  0  0  0  0  0  0  0  0
  149.2349  140.8850  155.2620 C   0  0  2  0  0  0  0  0  0  0  0  0
  150.2672  141.8529  155.8778 C   0  0  0  0  0  0  0  0  0  0  0  0
  149.6629  139.4203  155.0500 C   0  0  2  0  0  0  0  0  0  0  0  0
  150.9789  139.3407  154.4204 N   0  5  0  0  0  0  0  0  0  0  0  0
  152.2028  138.6142  155.1990 S   0  0  0  0  0  0  0  0  0  0  0  0
  152.0307  137.1548  155.2860 O   0  0  0  0  0  0  0  0  0  0  0  0
  153.5194  139.1051  154.7614 O   0  0  0  0  0  0  0  0  0  0  0  0
  151.9559  139.2609  156.9077 C   0  0  0  0  0  0  0  0  0  0  0  0
  152.9471  138.6278  157.8433 C   0  0  0  0  0  0  0  0  0  0  0  0
  152.6946  137.8180  158.9853 C   0  0  0  0  0  0  0  0  0  0  0  0
  153.9436  137.5207  159.4486 C   0  0  0  0  0  0  0  0  0  0  0  0
  154.8901  138.1026  158.6698 O   0  0  0  0  0  0  0  0  0  0  0  0
  154.2443  138.8103  157.6496 N   0  0  0  0  0  0  0  0  0  0  0  0
  148.5759  138.9416  154.0792 C   0  0  0  0  0  0  0  0  0  0  0  0
  145.7845  138.8841  151.1796 H   0  0  0  0  0  0  0  0  0  0  0  0
  146.7119  137.9359  152.3328 H   0  0  0  0  0  0  0  0  0  0  0  0
  147.5169  138.6724  150.9467 H   0  0  0  0  0  0  0  0  0  0  0  0
  146.9470  140.9554  151.8466 H   0  0  0  0  0  0  0  0  0  0  0  0
  146.2184  140.2321  153.2657 H   0  0  0  0  0  0  0  0  0  0  0  0
  149.4067  141.8793  153.3173 H   0  0  0  0  0  0  0  0  0  0  0  0
  147.8041  141.9748  154.0363 H   0  0  0  0  0  0  0  0  0  0  0  0
  148.3911  140.8539  155.9537 H   0  0  0  0  0  0  0  0  0  0  0  0
  151.1340  142.0017  155.2319 H   0  0  0  0  0  0  0  0  0  0  0  0
  150.6268  141.5006  156.8460 H   0  0  0  0  0  0  0  0  0  0  0  0
  149.8182  142.8333  156.0397 H   0  0  0  0  0  0  0  0  0  0  0  0
  149.6221  138.8692  155.9897 H   0  0  0  0  0  0  0  0  0  0  0  0
  152.0697  140.3449  156.8835 H   0  0  0  0  0  0  0  0  0  0  0  0
  150.9336  139.0406  157.2137 H   0  0  0  0  0  0  0  0  0  0  0  0
  151.7466  137.4995  159.3928 H   0  0  0  0  0  0  0  0  0  0  0  0
  154.3066  136.9372  160.2814 H   0  0  0  0  0  0  0  0  0  0  0  0
  147.6663  138.7259  154.6422 H   0  0  0  0  0  0  0  0  0  0  0  0
  148.8379  138.0358  153.5333 H   0  0  0  0  0  0  0  0  0  0  0  0
  149.0226  140.0033  152.4352 H   0  0  0  0  0  0  0  0  0  0  0  0
  1  2  1  0  0  0  0
  1 19  1  0  0  0  0
  1 20  1  0  0  0  0
  1 21  1  0  0  0  0
  2  3  1  0  0  0  0
  2 22  1  0  0  0  0
  2 23  1  0  0  0  0
  3 18  1  0  0  0  0
  3  4  1  0  0  0  0
  3 37  1  0  0  0  0
  4  5  1  0  0  0  0
  4 24  1  0  0  0  0
  4 25  1  0  0  0  0
  5  6  1  0  0  0  0
  5  7  1  0  0  0  0
  5 26  1  0  0  0  0
  6 27  1  0  0  0  0
  6 28  1  0  0  0  0
  6 29  1  0  0  0  0
  7  8  1  0  0  0  0
  7 18  1  0  0  0  0
  7 30  1  0  0  0  0
  8  9  1  0  0  0  0
  9 10  2  0  0  0  0
  9 11  2  0  0  0  0
  9 12  1  0  0  0  0
 12 13  1  0  0  0  0
 12 31  1  0  0  0  0
 12 32  1  0  0  0  0
 13 17  2  0  0  0  0
 13 14  1  0  0  0  0
 14 15  2  0  0  0  0
 14 33  1  0  0  0  0
 15 16  1  0  0  0  0
 15 34  1  0  0  0  0
 16 17  1  0  0  0  0
 18 35  1  0  0  0  0
 18 36  1  0  0  0  0
M  CHG  1   3   1
M  CHG  1   8  -1
M  END
> <s_m_source_file>
AV-unprocessed.smi

> <i_m_source_file_index>
703

> <i_lp_mmshare_version>
43012

> <i_f3d_flags>
0

> <s_epik_input>
W0NIM11bQ0gyXU4xW0NIMl1bQ0BASF0oW0NIM10pW0NASF0oW0NIMl0xKVtOSF1TKD1PKSg9TylbQ0gyXWMyW2NIXVtjSF1vbjI=

> <s_epik_cmdline>
J2VwaWtfcHl0aG9uJywgJy1waCcsICc3LjAnLCAnLXRuJywgJzgnLCAnLW1hJywgJzIwMCcsICctbWV0YWxfYmluZGluZycsICctaW1hZScsICc8aW5maWxlLm1hZT4nLCAnLW9tYWUnLCAnPG91dGZpbGUubWFlPic=

> <r_epik_Ionization_Penalty>
3.62494

> <r_epik_Ionization_Penalty_Charging>
3.62494

> <r_epik_Ionization_Penalty_Neutral>
2.0321e-10

> <r_epik_State_Penalty>
3.62558

> <r_epik_Charging_Adjusted_Penalty>
7.25052

> <i_epik_Tot_Q>
0

> <i_epik_Tot_abs_Q>
2

> <r_epik_Metal_State_Penalty>
0.530836

> <b_epik_Metal_Only>
1

> <s_lp_Force_Field>
OPLS_2005

> <r_lp_Energy>
16.9152

> <b_lp_Chiralities_Consistent>
1

> <s_lp_Variant>
AV-unprocessed.smi:703-15

> <Gold.Version>
5.8.1

> <Gold.Id.Protein>
6NUR|6NUR_protein|mol2

> <Gold.PLP.Fitness>
43.8060

> <Gold.PLP.PLP>
-30.6659

> <Gold.PLP.part.hbond>
-4.4211

> <Gold.PLP.part.metal>
0.0000

> <Gold.PLP.part.buried>
-1.3115

> <Gold.PLP.part.nonpolar>
-24.6517

> <Gold.PLP.part.repulsive>
0.3330

> <Gold.PLP.ligand.clash>
0.0000

> <Gold.PLP.ligand.torsion>
0.6577

> <Gold.PLP.Chemscore.Hbond>
4.4630

> <Gold.PLP.Chemscore.CHOScore>
0.0000

> <Gold.PLP.Chemscore.Metal>
0.0000

> <Gold.Chemscore.Hbonds>
donor molecule, donor type, donor heavy atom, donor atom, acceptor molecule, acceptor atom, score
      L1  H     3    37       P1  7957  0.68
      P1  H  7989  7998       L1     8  1.00
      P1  H  7997  8008       L1    11  1.00
      P1  H  7997  8010       L1    17  0.60
      P1  H 10752 10765       L1    10  0.90

> <Gold.PLP.Chemscore.Internal.Correction>
1.0666

> <Gold.Rescore>
     Score         DG    S(hbond)    S(metal)    S(lipo)     H(rot)  DE(clash)    DE(int)     intcor
     23.31     -24.21       4.55        0.00      66.05       1.63       0.06       0.84       ----

> <Gold.Chemscore.Fitness>
23.3103

> <Gold.Chemscore.DG>
-24.2083

> <Gold.Chemscore.ZeroCoef>
-5.4800

> <Gold.Chemscore.Hbond>
4.5457

> <Gold.Chemscore.Metal>
0.0000

> <Gold.Chemscore.Lipo>
66.0533

> <Gold.Chemscore.Internal_Hbond>
0.0000

> <Gold.Chemscore.DEClash>
0.0571

> <Gold.Chemscore.DEInternal>
0.8408

> <Gold.Chemscore.Rot>
1.6338

> <Gold.Chemscore.Internal.Correction>
   9.000000E+99

> <Gold.Chemscore.Hbonds>
donor molecule, donor type, donor heavy atom, donor atom, acceptor molecule, acceptor atom, score
      L1  H     3    37       P1  7957  0.68
      P1  H  7989  7998       L1     8  0.68
      P1  H  7997  8008       L1    11  0.99
      P1  H  7997  8010       L1    17  0.31
      P1  H 10752 10765       L1    10  0.88

> <Gold.Chemscore.Hbond.Weighted>
-15.1826

> <Gold.Chemscore.Metal.Weighted>
-0.0000

> <Gold.Chemscore.Lipo.Weighted>
-7.7282

> <Gold.Chemscore.Internal_Hbond.Weighted>
0.0000

> <Gold.Chemscore.DEClash.Weighted>
0.0571

> <Gold.Chemscore.DEInternal.Weighted>
0.8408

> <Gold.Chemscore.Rot.Weighted>
4.1825

> <Gold.Chemscore.Internal.Correction.Weighted>
   9.000000E+99

> <Gold.Protein.RotatedTorsions>
[ 6907 6896 6895 6894 ] final  -10.06 input  -60.11 | X-H torsion
[ 7974 7965 7964 7962 ] final  101.19 input  175.53 | X-H torsion
[ 8008 7997 7996 7995 ] final   -4.05 input   59.86 | X-H torsion
[ 10167 10162 10161 10158 ] final  -35.44 input  -65.29 | X-H torsion
[ 10718 10713 10712 10709 ] final   28.41 input   66.30 | X-H torsion
[ 10763 10752 10751 10750 ] final  176.58 input  -60.55 | X-H torsion
[ 11005 11000 10999 10996 ] final -135.07 input  -57.11 | X-H torsion

> <Gold.Protein.ActiveResidues>
 VAL166  LYS551  ARG553  GLY616  TRP617  ASP618  TYR619  PRO620  LYS621  CYS622 
 ASP623  PHE694  ASN695  SER759  ASP760  ASP761  ALA762  ILE779  LEU786  VAL792 
 PHE793  MET794  SER795  GLU796  ALA797  LYS798  CYS799  TRP800  GLU811  SER814 

> <Gold.Protein.RotatedAtoms>
  151.4080  135.0981  159.9576 H   0  0  0  0  0  0  0  0  0  0  0  0  # atno 6907 bound_to 6896
  152.5029  133.8825  159.7364 H   0  0  0  0  0  0  0  0  0  0  0  0  # atno 6908 bound_to 6896
  150.9313  133.6706  159.2838 H   0  0  0  0  0  0  0  0  0  0  0  0  # atno 6909 bound_to 6896
  145.3756  139.2389  143.3431 H   0  0  0  0  0  0  0  0  0  0  0  0  # atno 7974 bound_to 7965
  154.6184  140.2494  155.7580 H   0  0  0  0  0  0  0  0  0  0  0  0  # atno 8008 bound_to 7997
  156.2412  140.2932  156.0399 H   0  0  0  0  0  0  0  0  0  0  0  0  # atno 8009 bound_to 7997
  155.1937  140.0392  157.2895 H   0  0  0  0  0  0  0  0  0  0  0  0  # atno 8010 bound_to 7997
  140.7165  143.3477  151.2221 H   0  0  0  0  0  0  0  0  0  0  0  0  # atno 10167 bound_to 10162
  157.2330  130.7033  149.6322 H   0  0  0  0  0  0  0  0  0  0  0  0  # atno 10718 bound_to 10713
  154.4830  135.2775  155.1556 H   0  0  0  0  0  0  0  0  0  0  0  0  # atno 10763 bound_to 10752
  154.3258  135.6200  153.5532 H   0  0  0  0  0  0  0  0  0  0  0  0  # atno 10764 bound_to 10752
  152.9877  135.5753  154.5235 H   0  0  0  0  0  0  0  0  0  0  0  0  # atno 10765 bound_to 10752
  140.8932  134.1785  157.4513 H   0  0  0  0  0  0  0  0  0  0  0  0  # atno 11005 bound_to 11000
  146.2865  140.4415  142.8756 LP  0  0  0  0  0  0  0  0  0  0  0  0  # atno 17320 bound_to 7965
  144.8545  140.7049  143.6147 LP  0  0  0  0  0  0  0  0  0  0  0  0  # atno 17321 bound_to 7965
  139.7001  143.9547  152.2901 LP  0  0  0  0  0  0  0  0  0  0  0  0  # atno 17342 bound_to 10162
  139.9238  144.6783  150.8434 LP  0  0  0  0  0  0  0  0  0  0  0  0  # atno 17343 bound_to 10162
  155.9674  130.4482  150.5612 LP  0  0  0  0  0  0  0  0  0  0  0  0  # atno 17370 bound_to 10713
  157.3458  131.0725  151.1752 LP  0  0  0  0  0  0  0  0  0  0  0  0  # atno 17371 bound_to 10713
  139.8732  134.9867  156.5336 LP  0  0  0  0  0  0  0  0  0  0  0  0  # atno 17394 bound_to 11000
  140.8322  133.8270  155.8994 LP  0  0  0  0  0  0  0  0  0  0  0  0  # atno 17395 bound_to 11000

$$$$
