AV-unprocessed.smi:1465|AV-procd|sdf|5952|dock10
  -GOLD-   22720 6 33D 1   1.00000     0.00000
 Structure written by MMmdl.
 54 55  0  0  0  0  0  0  0  0  2 V2000
  149.9566  137.0468  158.3638 C   0  0  0  0  0  0  0  0  0  0  0  0
  149.8699  135.6524  158.1267 O   0  0  0  0  0  0  0  0  0  0  0  0
  149.5670  135.3511  156.7752 C   0  0  0  0  0  0  0  0  0  0  0  0
  150.8253  135.5679  155.9216 C   0  0  0  0  0  0  0  0  0  0  0  0
  151.1639  136.9937  155.8236 N   0  0  0  0  0  0  0  0  0  0  0  0
  150.2096  137.8342  155.2190 C   0  0  0  0  0  0  0  0  0  0  0  0
  150.4107  139.1568  155.0584 C   0  0  0  0  0  0  0  0  0  0  0  0
  149.3818  139.9710  154.4077 C   0  0  0  0  0  0  0  0  0  0  0  0
  149.6102  140.9697  153.7238 O   0  0  0  0  0  0  0  0  0  0  0  0
  148.1297  139.5318  154.6227 N   0  0  0  0  0  0  0  0  0  0  0  0
  146.9072  140.1551  154.1174 C   0  0  2  0  0  0  0  0  0  0  0  0
  145.6693  139.4852  154.7372 C   0  0  0  0  0  0  0  0  0  0  0  0
  145.4443  138.0642  154.1886 C   0  0  0  0  0  0  0  0  0  0  0  0
  145.3505  138.0678  152.7041 N   0  3  2  0  0  0  0  0  0  0  0  0
  145.0081  136.7397  152.1312 C   0  0  0  0  0  0  0  0  0  0  0  0
  143.8740  136.0203  152.8940 C   0  0  0  0  0  0  0  0  0  0  0  0
  143.5061  134.7032  152.1949 C   0  0  0  0  0  0  0  0  0  0  0  0
  142.6299  136.9114  153.0483 C   0  0  0  0  0  0  0  0  0  0  0  0
  146.5690  138.6483  152.0834 C   0  0  0  0  0  0  0  0  0  0  0  0
  146.8187  140.0832  152.5805 C   0  0  0  0  0  0  0  0  0  0  0  0
  151.6691  139.7033  155.5450 C   0  0  0  0  0  0  0  0  0  0  0  0
  152.5890  138.9011  156.1161 C   0  0  0  0  0  0  0  0  0  0  0  0
  152.3670  137.4605  156.2733 C   0  0  0  0  0  0  0  0  0  0  0  0
  153.2129  136.7207  156.7761 O   0  0  0  0  0  0  0  0  0  0  0  0
  150.1894  137.2264  159.4134 H   0  0  0  0  0  0  0  0  0  0  0  0
  149.0126  137.5449  158.1378 H   0  0  0  0  0  0  0  0  0  0  0  0
  150.7451  137.5012  157.7618 H   0  0  0  0  0  0  0  0  0  0  0  0
  149.2255  134.3180  156.6918 H   0  0  0  0  0  0  0  0  0  0  0  0
  148.7595  135.9952  156.4229 H   0  0  0  0  0  0  0  0  0  0  0  0
  151.6601  135.0148  156.3552 H   0  0  0  0  0  0  0  0  0  0  0  0
  150.6831  135.1329  154.9308 H   0  0  0  0  0  0  0  0  0  0  0  0
  149.3155  137.3236  154.8886 H   0  0  0  0  0  0  0  0  0  0  0  0
  148.0175  138.7111  155.1998 H   0  0  0  0  0  0  0  0  0  0  0  0
  146.9124  141.2033  154.4224 H   0  0  0  0  0  0  0  0  0  0  0  0
  145.7582  139.4580  155.8241 H   0  0  0  0  0  0  0  0  0  0  0  0
  144.7887  140.0921  154.5215 H   0  0  0  0  0  0  0  0  0  0  0  0
  146.2556  137.4052  154.5015 H   0  0  0  0  0  0  0  0  0  0  0  0
  144.5313  137.6641  154.6268 H   0  0  0  0  0  0  0  0  0  0  0  0
  144.6925  136.8615  151.0938 H   0  0  0  0  0  0  0  0  0  0  0  0
  145.9062  136.1207  152.1021 H   0  0  0  0  0  0  0  0  0  0  0  0
  144.2223  135.7558  153.8917 H   0  0  0  0  0  0  0  0  0  0  0  0
  143.1320  134.8792  151.1858 H   0  0  0  0  0  0  0  0  0  0  0  0
  142.7329  134.1676  152.7468 H   0  0  0  0  0  0  0  0  0  0  0  0
  144.3702  134.0424  152.1191 H   0  0  0  0  0  0  0  0  0  0  0  0
  142.2336  137.2117  152.0776 H   0  0  0  0  0  0  0  0  0  0  0  0
  142.8531  137.8172  153.6124 H   0  0  0  0  0  0  0  0  0  0  0  0
  141.8363  136.3869  153.5816 H   0  0  0  0  0  0  0  0  0  0  0  0
  147.4299  138.0142  152.3015 H   0  0  0  0  0  0  0  0  0  0  0  0
  146.4567  138.6659  150.9988 H   0  0  0  0  0  0  0  0  0  0  0  0
  146.0023  140.7222  152.2412 H   0  0  0  0  0  0  0  0  0  0  0  0
  147.7231  140.4854  152.1226 H   0  0  0  0  0  0  0  0  0  0  0  0
  151.8950  140.7561  155.4626 H   0  0  0  0  0  0  0  0  0  0  0  0
  153.5158  139.3286  156.4693 H   0  0  0  0  0  0  0  0  0  0  0  0
  144.5901  138.6856  152.4578 H   0  0  0  0  0  0  0  0  0  0  0  0
  1  2  1  0  0  0  0
  1 25  1  0  0  0  0
  1 26  1  0  0  0  0
  1 27  1  0  0  0  0
  2  3  1  0  0  0  0
  3  4  1  0  0  0  0
  3 28  1  0  0  0  0
  3 29  1  0  0  0  0
  4  5  1  0  0  0  0
  4 30  1  0  0  0  0
  4 31  1  0  0  0  0
  5 23  1  0  0  0  0
  5  6  1  0  0  0  0
  6  7  2  0  0  0  0
  6 32  1  0  0  0  0
  7  8  1  0  0  0  0
  7 21  1  0  0  0  0
  8  9  2  0  0  0  0
  8 10  1  0  0  0  0
 10 11  1  0  0  0  0
 10 33  1  0  0  0  0
 11 20  1  0  0  0  0
 11 12  1  0  0  0  0
 11 34  1  0  0  0  0
 12 13  1  0  0  0  0
 12 35  1  0  0  0  0
 12 36  1  0  0  0  0
 13 14  1  0  0  0  0
 13 37  1  0  0  0  0
 13 38  1  0  0  0  0
 14 15  1  0  0  0  0
 14 19  1  0  0  0  0
 14 54  1  0  0  0  0
 15 16  1  0  0  0  0
 15 39  1  0  0  0  0
 15 40  1  0  0  0  0
 16 17  1  0  0  0  0
 16 18  1  0  0  0  0
 16 41  1  0  0  0  0
 17 42  1  0  0  0  0
 17 43  1  0  0  0  0
 17 44  1  0  0  0  0
 18 45  1  0  0  0  0
 18 46  1  0  0  0  0
 18 47  1  0  0  0  0
 19 20  1  0  0  0  0
 19 48  1  0  0  0  0
 19 49  1  0  0  0  0
 20 50  1  0  0  0  0
 20 51  1  0  0  0  0
 21 22  2  0  0  0  0
 21 52  1  0  0  0  0
 22 23  1  0  0  0  0
 22 53  1  0  0  0  0
 23 24  2  0  0  0  0
M  CHG  1  14   1
M  END
> <s_m_source_file>
AV-unprocessed.smi

> <i_m_source_file_index>
1465

> <i_lp_mmshare_version>
43012

> <i_f3d_flags>
0

> <s_epik_input>
W0NIM11PW0NIMl1bQ0gyXW4xW2NIXWMoW2NIXVtjSF1jMT1PKUMoPU8pW05IXVtDSF0yW0NIMl1bQ0gyXU4oW0NIMl1bQ0gyXTIpW0NIMl1bQ0hdKFtDSDNdKVtDSDNd

> <s_epik_cmdline>
J2VwaWtfcHl0aG9uJywgJy1waCcsICc3LjAnLCAnLXRuJywgJzgnLCAnLW1hJywgJzIwMCcsICctbWV0YWxfYmluZGluZycsICctaW1hZScsICc8aW5maWxlLm1hZT4nLCAnLW9tYWUnLCAnPG91dGZpbGUubWFlPic=

> <r_lp_tautomer_probability>
1

> <r_epik_Ionization_Penalty>
0.00386091

> <r_epik_Ionization_Penalty_Charging>
0.0038603

> <r_epik_Ionization_Penalty_Neutral>
6.13806e-07

> <r_epik_State_Penalty>
0.00275716

> <r_epik_Charging_Adjusted_Penalty>
0.00661746

> <i_epik_Tot_Q>
1

> <i_epik_Tot_abs_Q>
1

> <r_epik_Metal_State_Penalty>
-0

> <b_epik_Metal_Only>
0

> <s_lp_Force_Field>
OPLS_2005

> <r_lp_Energy>
34.4783

> <b_lp_Chiralities_Consistent>
1

> <s_lp_Variant>
AV-unprocessed.smi:1465-2

> <Gold.Version>
5.8.1

> <Gold.Id.Protein>
6NUR|6NUR_protein|mol2

> <Gold.PLP.Fitness>
48.1185

> <Gold.PLP.PLP>
-33.2220

> <Gold.PLP.part.hbond>
-5.2800

> <Gold.PLP.part.metal>
0.0000

> <Gold.PLP.part.buried>
-0.4833

> <Gold.PLP.part.nonpolar>
-30.6235

> <Gold.PLP.part.repulsive>
2.6614

> <Gold.PLP.ligand.clash>
0.0000

> <Gold.PLP.ligand.torsion>
0.6368

> <Gold.PLP.Chemscore.Hbond>
5.3440

> <Gold.PLP.Chemscore.CHOScore>
0.0000

> <Gold.PLP.Chemscore.Metal>
0.0000

> <Gold.Chemscore.Hbonds>
donor molecule, donor type, donor heavy atom, donor atom, acceptor molecule, acceptor atom, score
      L1  H    14    54       P1 10175  2.00
      P1  H  6896  6907       L1     2  0.99
      P1  H  7989  7998       L1     9  0.35
      P1  H  8011  8017       L1     9  0.99
      P1  H 10752 10765       L1    24  0.98

> <Gold.PLP.Chemscore.Internal.Correction>
0.1382

> <Gold.Rescore>
     Score         DG    S(hbond)    S(metal)    S(lipo)     H(rot)  DE(clash)    DE(int)     intcor
     18.70     -22.42       3.65        0.00      79.37       1.78       1.64       2.08       ----

> <Gold.Chemscore.Fitness>
18.6968

> <Gold.Chemscore.DG>
-22.4217

> <Gold.Chemscore.ZeroCoef>
-5.4800

> <Gold.Chemscore.Hbond>
3.6540

> <Gold.Chemscore.Metal>
0.0000

> <Gold.Chemscore.Lipo>
79.3696

> <Gold.Chemscore.Internal_Hbond>
0.0000

> <Gold.Chemscore.DEClash>
1.6433

> <Gold.Chemscore.DEInternal>
2.0816

> <Gold.Chemscore.Rot>
1.7769

> <Gold.Chemscore.Internal.Correction>
   9.000000E+99

> <Gold.Chemscore.Hbonds>
donor molecule, donor type, donor heavy atom, donor atom, acceptor molecule, acceptor atom, score
      L1  H    14    54       P1 10175  0.95
      P1  H  6896  6907       L1     2  0.65
      P1  H  7989  7998       L1     9  0.14
      P1  H  8011  8017       L1     9  0.89
      P1  H 10752 10765       L1    24  0.45

> <Gold.Chemscore.Hbond.Weighted>
-12.2044

> <Gold.Chemscore.Metal.Weighted>
-0.0000

> <Gold.Chemscore.Lipo.Weighted>
-9.2862

> <Gold.Chemscore.Internal_Hbond.Weighted>
0.0000

> <Gold.Chemscore.DEClash.Weighted>
1.6433

> <Gold.Chemscore.DEInternal.Weighted>
2.0816

> <Gold.Chemscore.Rot.Weighted>
4.5490

> <Gold.Chemscore.Internal.Correction.Weighted>
   9.000000E+99

> <Gold.Protein.RotatedTorsions>
[ 6907 6896 6895 6894 ] final  -61.31 input  -60.11 | X-H torsion
[ 7974 7965 7964 7962 ] final  -83.13 input  175.53 | X-H torsion
[ 8008 7997 7996 7995 ] final   87.62 input   59.86 | X-H torsion
[ 10167 10162 10161 10158 ] final   76.91 input  -65.29 | X-H torsion
[ 10718 10713 10712 10709 ] final  -53.98 input   66.30 | X-H torsion
[ 10763 10752 10751 10750 ] final -116.71 input  -60.55 | X-H torsion
[ 11005 11000 10999 10996 ] final  -62.94 input  -57.11 | X-H torsion

> <Gold.Protein.ActiveResidues>
 VAL166  LYS551  ARG553  GLY616  TRP617  ASP618  TYR619  PRO620  LYS621  CYS622 
 ASP623  PHE694  ASN695  SER759  ASP760  ASP761  ALA762  ILE779  LEU786  VAL792 
 PHE793  MET794  SER795  GLU796  ALA797  LYS798  CYS799  TRP800  GLU811  SER814 

> <Gold.Protein.RotatedAtoms>
  150.7794  134.6721  159.6397 H   0  0  0  0  0  0  0  0  0  0  0  0  # atno 6907 bound_to 6896
  152.3873  134.6493  160.0129 H   0  0  0  0  0  0  0  0  0  0  0  0  # atno 6908 bound_to 6896
  151.6804  133.3275  159.3254 H   0  0  0  0  0  0  0  0  0  0  0  0  # atno 6909 bound_to 6896
  145.5241  140.9528  143.1639 H   0  0  0  0  0  0  0  0  0  0  0  0  # atno 7974 bound_to 7965
  155.9777  140.3380  155.6634 H   0  0  0  0  0  0  0  0  0  0  0  0  # atno 8008 bound_to 7997
  155.6591  140.0714  157.2578 H   0  0  0  0  0  0  0  0  0  0  0  0  # atno 8009 bound_to 7997
  154.4183  140.1712  156.1744 H   0  0  0  0  0  0  0  0  0  0  0  0  # atno 8010 bound_to 7997
  139.9872  144.5783  150.7849 H   0  0  0  0  0  0  0  0  0  0  0  0  # atno 10167 bound_to 10162
  156.1489  130.4152  149.9978 H   0  0  0  0  0  0  0  0  0  0  0  0  # atno 10718 bound_to 10713
  154.8529  135.4336  154.1864 H   0  0  0  0  0  0  0  0  0  0  0  0  # atno 10763 bound_to 10752
  153.2943  135.6964  153.7269 H   0  0  0  0  0  0  0  0  0  0  0  0  # atno 10764 bound_to 10752
  153.6424  135.3465  155.3050 H   0  0  0  0  0  0  0  0  0  0  0  0  # atno 10765 bound_to 10752
  141.1376  133.6646  156.5604 H   0  0  0  0  0  0  0  0  0  0  0  0  # atno 11005 bound_to 11000
  144.7660  139.6843  143.7214 LP  0  0  0  0  0  0  0  0  0  0  0  0  # atno 17320 bound_to 7965
  146.2087  139.5429  142.9695 LP  0  0  0  0  0  0  0  0  0  0  0  0  # atno 17321 bound_to 7965
  140.7468  143.2896  151.3368 LP  0  0  0  0  0  0  0  0  0  0  0  0  # atno 17342 bound_to 10162
  139.6366  144.0619  152.2521 LP  0  0  0  0  0  0  0  0  0  0  0  0  # atno 17343 bound_to 10162
  156.7842  130.9232  151.3646 LP  0  0  0  0  0  0  0  0  0  0  0  0  # atno 17370 bound_to 10713
  157.6640  130.8991  149.9891 LP  0  0  0  0  0  0  0  0  0  0  0  0  # atno 17371 bound_to 10713
  140.3993  134.7371  157.4770 LP  0  0  0  0  0  0  0  0  0  0  0  0  # atno 17394 bound_to 11000
  140.0508  134.6133  155.8864 LP  0  0  0  0  0  0  0  0  0  0  0  0  # atno 17395 bound_to 11000

$$$$
