AV-unprocessed.smi:2669|AV-procd|sdf|10344|dock3
  -GOLD-   2272014363D 1   1.00000     0.00000
 Structure written by MMmdl.
 39 41  0  0  0  0  0  0  0  0  1 V2000
  148.6744  134.6093  155.5265 C   0  0  0  0  0  0  0  0  0  0  0  0
  148.9906  135.9064  156.1030 N   0  0  0  0  0  0  0  0  0  0  0  0
  148.8548  137.0770  155.3432 C   0  0  0  0  0  0  0  0  0  0  0  0
  147.6956  137.3297  154.6920 N   0  0  0  0  0  0  0  0  0  0  0  0
  147.6111  138.4608  153.9794 C   0  0  0  0  0  0  0  0  0  0  0  0
  148.5321  139.4212  153.8045 N   0  0  0  0  0  0  0  0  0  0  0  0
  149.6839  139.1801  154.4456 C   0  0  0  0  0  0  0  0  0  0  0  0
  150.8017  139.9967  154.4425 N   0  0  0  0  0  0  0  0  0  0  0  0
  151.6405  139.3095  155.2138 C   0  0  0  0  0  0  0  0  0  0  0  0
  151.2031  138.1399  155.7212 N   0  0  0  0  0  0  0  0  0  0  0  0
  151.9472  137.2345  156.5804 C   0  0  0  0  0  0  0  0  0  0  0  0
  152.6892  137.9697  157.7145 C   0  0  1  0  0  0  0  0  0  0  0  0
  153.8322  138.6088  157.1786 O   0  0  0  0  0  0  0  0  0  0  0  0
  151.8029  139.0304  158.3865 C   0  0  0  0  0  0  0  0  0  0  0  0
  152.5789  139.7369  159.3451 O   0  0  0  0  0  0  0  0  0  0  0  0
  152.4166  141.1023  159.4404 C   0  0  0  0  0  0  0  0  0  0  0  0
  152.9510  141.7308  160.5843 C   0  0  0  0  0  0  0  0  0  0  0  0
  152.8299  143.1218  160.7661 C   0  0  0  0  0  0  0  0  0  0  0  0
  152.1698  143.9025  159.7992 C   0  0  0  0  0  0  0  0  0  0  0  0
  152.0198  145.6073  160.0195 Cl  0  0  0  0  0  0  0  0  0  0  0  0
  151.6325  143.2890  158.6522 C   0  0  0  0  0  0  0  0  0  0  0  0
  151.7536  141.8973  158.4710 C   0  0  0  0  0  0  0  0  0  0  0  0
  149.9029  138.0127  155.2374 C   0  0  0  0  0  0  0  0  0  0  0  0
  148.8648  133.8217  156.2555 H   0  0  0  0  0  0  0  0  0  0  0  0
  149.2897  134.4161  154.6472 H   0  0  0  0  0  0  0  0  0  0  0  0
  147.6241  134.5605  155.2377 H   0  0  0  0  0  0  0  0  0  0  0  0
  149.3506  135.9524  157.0451 H   0  0  0  0  0  0  0  0  0  0  0  0
  146.6699  138.6227  153.4754 H   0  0  0  0  0  0  0  0  0  0  0  0
  152.6351  139.6771  155.4203 H   0  0  0  0  0  0  0  0  0  0  0  0
  151.2562  136.4985  156.9940 H   0  0  0  0  0  0  0  0  0  0  0  0
  152.6511  136.6783  155.9608 H   0  0  0  0  0  0  0  0  0  0  0  0
  153.0129  137.2411  158.4587 H   0  0  0  0  0  0  0  0  0  0  0  0
  154.3638  137.9606  156.7429 H   0  0  0  0  0  0  0  0  0  0  0  0
  151.3688  139.7009  157.6426 H   0  0  0  0  0  0  0  0  0  0  0  0
  150.9823  138.5357  158.9088 H   0  0  0  0  0  0  0  0  0  0  0  0
  153.4591  141.1395  161.3321 H   0  0  0  0  0  0  0  0  0  0  0  0
  153.2436  143.5875  161.6485 H   0  0  0  0  0  0  0  0  0  0  0  0
  151.1248  143.8849  157.9080 H   0  0  0  0  0  0  0  0  0  0  0  0
  151.3277  141.4640  157.5788 H   0  0  0  0  0  0  0  0  0  0  0  0
  1  2  1  0  0  0  0
  1 24  1  0  0  0  0
  1 25  1  0  0  0  0
  1 26  1  0  0  0  0
  2  3  1  0  0  0  0
  2 27  1  0  0  0  0
  3 23  1  0  0  0  0
  3  4  2  0  0  0  0
  4  5  1  0  0  0  0
  5  6  2  0  0  0  0
  5 28  1  0  0  0  0
  6  7  1  0  0  0  0
  7 23  2  0  0  0  0
  7  8  1  0  0  0  0
  8  9  2  0  0  0  0
  9 10  1  0  0  0  0
  9 29  1  0  0  0  0
 10 11  1  0  0  0  0
 10 23  1  0  0  0  0
 11 12  1  0  0  0  0
 11 30  1  0  0  0  0
 11 31  1  0  0  0  0
 12 13  1  0  0  0  0
 12 14  1  0  0  0  0
 12 32  1  0  0  0  0
 13 33  1  0  0  0  0
 14 15  1  0  0  0  0
 14 34  1  0  0  0  0
 14 35  1  0  0  0  0
 15 16  1  0  0  0  0
 16 22  1  0  0  0  0
 16 17  2  0  0  0  0
 17 18  1  0  0  0  0
 17 36  1  0  0  0  0
 18 19  2  0  0  0  0
 18 37  1  0  0  0  0
 19 20  1  0  0  0  0
 19 21  1  0  0  0  0
 21 22  2  0  0  0  0
 21 38  1  0  0  0  0
 22 39  1  0  0  0  0
M  END
> <s_m_source_file>
AV-unprocessed.smi

> <i_m_source_file_index>
2669

> <i_lp_mmshare_version>
43012

> <i_f3d_flags>
0

> <s_epik_input>
bjFbY0hdbmMoW05IXVtDSDNdKWMoYzEyKW4oW2NIXW4yKVtDSDJdW0NASF0oW09IXSlbQ0gyXU9jM1tjSF1bY0hdYyhDbClbY0hdW2NIXTM=

> <s_epik_cmdline>
J2VwaWtfcHl0aG9uJywgJy1waCcsICc3LjAnLCAnLXRuJywgJzgnLCAnLW1hJywgJzIwMCcsICctbWV0YWxfYmluZGluZycsICctaW1hZScsICc8aW5maWxlLm1hZT4nLCAnLW9tYWUnLCAnPG91dGZpbGUubWFlPic=

> <r_lp_tautomer_probability>
1

> <r_epik_Ionization_Penalty>
0.00733592

> <r_epik_Ionization_Penalty_Charging>
0

> <r_epik_Ionization_Penalty_Neutral>
0.00733592

> <r_epik_State_Penalty>
-0

> <r_epik_Charging_Adjusted_Penalty>
0

> <i_epik_Tot_Q>
0

> <i_epik_Tot_abs_Q>
0

> <r_epik_Metal_State_Penalty>
-0

> <b_epik_Metal_Only>
0

> <s_lp_Force_Field>
OPLS_2005

> <r_lp_Energy>
13.4458

> <b_lp_Chiralities_Consistent>
1

> <s_lp_Variant>
AV-unprocessed.smi:2669-2

> <Gold.Version>
5.8.1

> <Gold.Id.Protein>
6NUR|6NUR_protein|mol2

> <Gold.PLP.Fitness>
40.9018

> <Gold.PLP.PLP>
-38.2695

> <Gold.PLP.part.hbond>
-1.3669

> <Gold.PLP.part.metal>
0.0000

> <Gold.PLP.part.buried>
-6.8713

> <Gold.PLP.part.nonpolar>
-31.7313

> <Gold.PLP.part.repulsive>
1.5120

> <Gold.PLP.ligand.clash>
0.0000

> <Gold.PLP.ligand.torsion>
1.2358

> <Gold.PLP.Chemscore.Hbond>
1.6560

> <Gold.PLP.Chemscore.CHOScore>
0.0000

> <Gold.PLP.Chemscore.Metal>
0.0000

> <Gold.Chemscore.Hbonds>
donor molecule, donor type, donor heavy atom, donor atom, acceptor molecule, acceptor atom, score
      P1  H  7989  7998       L1     8  0.99
      P1  H  7997  8008       L1    13  0.70

> <Gold.PLP.Chemscore.Internal.Correction>
0.1358

> <Gold.Rescore>
     Score         DG    S(hbond)    S(metal)    S(lipo)     H(rot)  DE(clash)    DE(int)     intcor
     12.46     -14.50       1.61        0.00      96.16       2.97       0.14       1.89       ----

> <Gold.Chemscore.Fitness>
12.4643

> <Gold.Chemscore.DG>
-14.4954

> <Gold.Chemscore.ZeroCoef>
-5.4800

> <Gold.Chemscore.Hbond>
1.6106

> <Gold.Chemscore.Metal>
0.0000

> <Gold.Chemscore.Lipo>
96.1625

> <Gold.Chemscore.Internal_Hbond>
0.0000

> <Gold.Chemscore.DEClash>
0.1434

> <Gold.Chemscore.DEInternal>
1.8877

> <Gold.Chemscore.Rot>
2.9746

> <Gold.Chemscore.Internal.Correction>
   9.000000E+99

> <Gold.Chemscore.Hbonds>
donor molecule, donor type, donor heavy atom, donor atom, acceptor molecule, acceptor atom, score
      P1  H  7989  7998       L1     8  0.61
      P1  H  7997  8008       L1    13  0.31

> <Gold.Chemscore.Hbond.Weighted>
-5.3793

> <Gold.Chemscore.Metal.Weighted>
-0.0000

> <Gold.Chemscore.Lipo.Weighted>
-11.2510

> <Gold.Chemscore.Internal_Hbond.Weighted>
0.0000

> <Gold.Chemscore.DEClash.Weighted>
0.1434

> <Gold.Chemscore.DEInternal.Weighted>
1.8877

> <Gold.Chemscore.Rot.Weighted>
7.6150

> <Gold.Chemscore.Internal.Correction.Weighted>
   9.000000E+99

> <Gold.Protein.RotatedTorsions>
[ 6907 6896 6895 6894 ] final    6.69 input  -60.11 | X-H torsion
[ 7974 7965 7964 7962 ] final   46.34 input  175.53 | X-H torsion
[ 8008 7997 7996 7995 ] final  -98.69 input   59.86 | X-H torsion
[ 10167 10162 10161 10158 ] final -100.25 input  -65.29 | X-H torsion
[ 10718 10713 10712 10709 ] final  -29.23 input   66.30 | X-H torsion
[ 10763 10752 10751 10750 ] final  -95.69 input  -60.55 | X-H torsion
[ 11005 11000 10999 10996 ] final  112.84 input  -57.11 | X-H torsion

> <Gold.Protein.ActiveResidues>
 VAL166  LYS551  ARG553  GLY616  TRP617  ASP618  TYR619  PRO620  LYS621  CYS622 
 ASP623  PHE694  ASN695  SER759  ASP760  ASP761  ALA762  ILE779  LEU786  VAL792 
 PHE793  MET794  SER795  GLU796  ALA797  LYS798  CYS799  TRP800  GLU811  SER814 

> <Gold.Protein.RotatedAtoms>
  151.6777  135.0966  160.0209 H   0  0  0  0  0  0  0  0  0  0  0  0  # atno 6907 bound_to 6896
  152.3854  133.6599  159.6203 H   0  0  0  0  0  0  0  0  0  0  0  0  # atno 6908 bound_to 6896
  150.7781  133.8961  159.3369 H   0  0  0  0  0  0  0  0  0  0  0  0  # atno 6909 bound_to 6896
  146.0399  139.4867  142.9785 H   0  0  0  0  0  0  0  0  0  0  0  0  # atno 7974 bound_to 7965
  154.8046  140.0453  157.1298 H   0  0  0  0  0  0  0  0  0  0  0  0  # atno 8008 bound_to 7997
  154.9439  140.3056  155.5087 H   0  0  0  0  0  0  0  0  0  0  0  0  # atno 8009 bound_to 7997
  156.2965  140.2300  156.4511 H   0  0  0  0  0  0  0  0  0  0  0  0  # atno 8010 bound_to 7997
  140.2538  143.3454  152.0689 H   0  0  0  0  0  0  0  0  0  0  0  0  # atno 10167 bound_to 10162
  156.4151  130.4415  149.7224 H   0  0  0  0  0  0  0  0  0  0  0  0  # atno 10718 bound_to 10713
  154.7171  135.5111  153.8755 H   0  0  0  0  0  0  0  0  0  0  0  0  # atno 10763 bound_to 10752
  153.0830  135.6637  154.0015 H   0  0  0  0  0  0  0  0  0  0  0  0  # atno 10764 bound_to 10752
  153.9846  135.3025  155.3397 H   0  0  0  0  0  0  0  0  0  0  0  0  # atno 10765 bound_to 10752
  139.8937  134.9538  156.6647 H   0  0  0  0  0  0  0  0  0  0  0  0  # atno 11005 bound_to 11000
  145.6902  141.0166  143.1559 LP  0  0  0  0  0  0  0  0  0  0  0  0  # atno 17320 bound_to 7965
  144.7069  139.8524  143.7427 LP  0  0  0  0  0  0  0  0  0  0  0  0  # atno 17321 bound_to 7965
  139.5038  144.6762  151.6123 LP  0  0  0  0  0  0  0  0  0  0  0  0  # atno 17342 bound_to 10162
  140.6019  143.9594  150.6392 LP  0  0  0  0  0  0  0  0  0  0  0  0  # atno 17343 bound_to 10162
  156.4187  130.7758  151.2774 LP  0  0  0  0  0  0  0  0  0  0  0  0  # atno 17370 bound_to 10713
  157.7508  131.0189  150.3646 LP  0  0  0  0  0  0  0  0  0  0  0  0  # atno 17371 bound_to 10713
  140.7419  133.8970  155.8284 LP  0  0  0  0  0  0  0  0  0  0  0  0  # atno 17394 bound_to 11000
  141.0070  134.1072  157.4260 LP  0  0  0  0  0  0  0  0  0  0  0  0  # atno 17395 bound_to 11000

$$$$
