AV-unprocessed.smi:583|AV-procd|sdf|2997|dock6
  -GOLD-   2262023503D 1   1.00000     0.00000
 Structure written by MMmdl.
 35 36  0  0  0  0  0  0  0  0  1 V2000
  151.6320  137.9286  158.0694 O   0  0  0  0  0  0  0  0  0  0  0  0
  150.8942  138.8017  157.6145 C   0  0  0  0  0  0  0  0  0  0  0  0
  151.5114  140.1350  157.1574 C   0  0  0  0  0  0  0  0  0  0  0  0
  152.1344  140.9344  158.2282 N   0  0  0  0  0  0  0  0  0  0  0  0
  151.5737  142.2002  158.4902 C   0  0  0  0  0  0  0  0  0  0  0  0
  152.0388  143.0236  159.4493 C   0  0  0  0  0  0  0  0  0  0  0  0
  151.4445  144.4051  159.6753 C   0  0  0  0  0  0  0  0  0  0  0  0
  151.9334  144.9285  160.7987 F   0  0  0  0  0  0  0  0  0  0  0  0
  151.7433  145.2269  158.6689 F   0  0  0  0  0  0  0  0  0  0  0  0
  150.1167  144.3458  159.7886 F   0  0  0  0  0  0  0  0  0  0  0  0
  153.1908  142.5581  160.1962 C   0  0  0  0  0  0  0  0  0  0  0  0
  153.7417  141.3523  159.9556 C   0  0  0  0  0  0  0  0  0  0  0  0
  153.2064  140.4559  158.9287 C   0  0  0  0  0  0  0  0  0  0  0  0
  153.6874  139.3433  158.7147 O   0  0  0  0  0  0  0  0  0  0  0  0
  149.5652  138.6395  157.4968 N   0  0  0  0  0  0  0  0  0  0  0  0
  148.8240  137.4452  157.8861 C   0  0  2  0  0  0  0  0  0  0  0  0
  149.1268  137.0202  159.3376 C   0  0  0  0  0  0  0  0  0  0  0  0
  148.6267  135.5856  159.5443 C   0  0  0  0  0  0  0  0  0  0  0  0
  148.7759  134.7546  157.9174 S   0  0  0  0  0  0  0  0  0  0  0  0
  149.9492  133.8678  157.9221 O   0  0  0  0  0  0  0  0  0  0  0  0
  147.4519  134.2572  157.5137 O   0  0  0  0  0  0  0  0  0  0  0  0
  149.1754  136.2686  156.9658 C   0  0  0  0  0  0  0  0  0  0  0  0
  152.2368  139.9259  156.3691 H   0  0  0  0  0  0  0  0  0  0  0  0
  150.7289  140.7152  156.6665 H   0  0  0  0  0  0  0  0  0  0  0  0
  150.7341  142.4577  157.8605 H   0  0  0  0  0  0  0  0  0  0  0  0
  153.6178  143.1848  160.9655 H   0  0  0  0  0  0  0  0  0  0  0  0
  154.5980  141.0371  160.5337 H   0  0  0  0  0  0  0  0  0  0  0  0
  149.0286  139.4036  157.1125 H   0  0  0  0  0  0  0  0  0  0  0  0
  147.7526  137.6341  157.7959 H   0  0  0  0  0  0  0  0  0  0  0  0
  150.2058  137.0400  159.4989 H   0  0  0  0  0  0  0  0  0  0  0  0
  148.6849  137.7032  160.0639 H   0  0  0  0  0  0  0  0  0  0  0  0
  149.1933  135.0415  160.3000 H   0  0  0  0  0  0  0  0  0  0  0  0
  147.5740  135.5812  159.8279 H   0  0  0  0  0  0  0  0  0  0  0  0
  148.6222  136.2801  156.0265 H   0  0  0  0  0  0  0  0  0  0  0  0
  150.2424  136.2450  156.7414 H   0  0  0  0  0  0  0  0  0  0  0  0
  1  2  2  0  0  0  0
  2  3  1  0  0  0  0
  2 15  1  0  0  0  0
  3  4  1  0  0  0  0
  3 23  1  0  0  0  0
  3 24  1  0  0  0  0
  4 13  1  0  0  0  0
  4  5  1  0  0  0  0
  5  6  2  0  0  0  0
  5 25  1  0  0  0  0
  6  7  1  0  0  0  0
  6 11  1  0  0  0  0
  7  8  1  0  0  0  0
  7  9  1  0  0  0  0
  7 10  1  0  0  0  0
 11 12  2  0  0  0  0
 11 26  1  0  0  0  0
 12 13  1  0  0  0  0
 12 27  1  0  0  0  0
 13 14  2  0  0  0  0
 15 16  1  0  0  0  0
 15 28  1  0  0  0  0
 16 22  1  0  0  0  0
 16 17  1  0  0  0  0
 16 29  1  0  0  0  0
 17 18  1  0  0  0  0
 17 30  1  0  0  0  0
 17 31  1  0  0  0  0
 18 19  1  0  0  0  0
 18 32  1  0  0  0  0
 18 33  1  0  0  0  0
 19 20  2  0  0  0  0
 19 21  2  0  0  0  0
 19 22  1  0  0  0  0
 22 34  1  0  0  0  0
 22 35  1  0  0  0  0
M  END
> <s_m_source_file>
AV-unprocessed.smi

> <i_m_source_file_index>
583

> <i_lp_mmshare_version>
43012

> <i_f3d_flags>
0

> <s_epik_input>
Tz1TMSg9TylbQ0gyXVtDSDJdW0NASF0oW0NIMl0xKVtOSF1DKD1PKVtDSDJdbjJbY0hdYyhDKEYpKEYpRilbY0hdW2NIXWMyPU8=

> <s_epik_cmdline>
J2VwaWtfcHl0aG9uJywgJy1waCcsICc3LjAnLCAnLXRuJywgJzgnLCAnLW1hJywgJzIwMCcsICctbWV0YWxfYmluZGluZycsICctaW1hZScsICc8aW5maWxlLm1hZT4nLCAnLW9tYWUnLCAnPG91dGZpbGUubWFlPic=

> <r_lp_tautomer_probability>
1

> <r_epik_Ionization_Penalty>
1.22016e-07

> <r_epik_Ionization_Penalty_Charging>
1.48237e-08

> <r_epik_Ionization_Penalty_Neutral>
1.07193e-07

> <r_epik_State_Penalty>
-0

> <r_epik_Charging_Adjusted_Penalty>
1.48237e-08

> <i_epik_Tot_Q>
0

> <i_epik_Tot_abs_Q>
0

> <r_epik_Metal_State_Penalty>
-0

> <b_epik_Metal_Only>
0

> <s_lp_Force_Field>
OPLS_2005

> <r_lp_Energy>
16.6381

> <b_lp_Chiralities_Consistent>
1

> <s_lp_Variant>
AV-unprocessed.smi:583-1

> <Gold.Version>
5.8.1

> <Gold.Id.Protein>
6NUR|6NUR_protein|mol2

> <Gold.PLP.Fitness>
42.3992

> <Gold.PLP.PLP>
-38.3273

> <Gold.PLP.part.hbond>
-1.9992

> <Gold.PLP.part.metal>
0.0000

> <Gold.PLP.part.buried>
-4.8303

> <Gold.PLP.part.nonpolar>
-31.5895

> <Gold.PLP.part.repulsive>
0.0691

> <Gold.PLP.ligand.clash>
0.0000

> <Gold.PLP.ligand.torsion>
0.4574

> <Gold.PLP.Chemscore.Hbond>
1.6500

> <Gold.PLP.Chemscore.CHOScore>
0.0000

> <Gold.PLP.Chemscore.Metal>
0.0000

> <Gold.Chemscore.Hbonds>
donor molecule, donor type, donor heavy atom, donor atom, acceptor molecule, acceptor atom, score
      P1  H  6896  6908       L1    20  1.00
      P1  H  7997  8009       L1    14  0.60

> <Gold.PLP.Chemscore.Internal.Correction>
0.0367

> <Gold.Rescore>
     Score         DG    S(hbond)    S(metal)    S(lipo)     H(rot)  DE(clash)    DE(int)     intcor
     11.28     -15.11       1.78        0.00      69.33       1.73       0.83       2.99       ----

> <Gold.Chemscore.Fitness>
11.2849

> <Gold.Chemscore.DG>
-15.1094

> <Gold.Chemscore.ZeroCoef>
-5.4800

> <Gold.Chemscore.Hbond>
1.7814

> <Gold.Chemscore.Metal>
0.0000

> <Gold.Chemscore.Lipo>
69.3330

> <Gold.Chemscore.Internal_Hbond>
0.0000

> <Gold.Chemscore.DEClash>
0.8341

> <Gold.Chemscore.DEInternal>
2.9905

> <Gold.Chemscore.Rot>
1.7314

> <Gold.Chemscore.Internal.Correction>
   9.000000E+99

> <Gold.Chemscore.Hbonds>
donor molecule, donor type, donor heavy atom, donor atom, acceptor molecule, acceptor atom, score
      P1  H  6896  6908       L1    20  0.92
      P1  H  7997  8009       L1    14  0.04

> <Gold.Chemscore.Hbond.Weighted>
-5.9499

> <Gold.Chemscore.Metal.Weighted>
-0.0000

> <Gold.Chemscore.Lipo.Weighted>
-8.1120

> <Gold.Chemscore.Internal_Hbond.Weighted>
0.0000

> <Gold.Chemscore.DEClash.Weighted>
0.8341

> <Gold.Chemscore.DEInternal.Weighted>
2.9905

> <Gold.Chemscore.Rot.Weighted>
4.4324

> <Gold.Chemscore.Internal.Correction.Weighted>
   9.000000E+99

> <Gold.Protein.RotatedTorsions>
[ 6907 6896 6895 6894 ] final  117.83 input  -60.11 | X-H torsion
[ 7974 7965 7964 7962 ] final  146.22 input  175.53 | X-H torsion
[ 8008 7997 7996 7995 ] final  139.30 input   59.86 | X-H torsion
[ 10167 10162 10161 10158 ] final   99.14 input  -65.29 | X-H torsion
[ 10718 10713 10712 10709 ] final  -74.50 input   66.30 | X-H torsion
[ 10763 10752 10751 10750 ] final   41.56 input  -60.55 | X-H torsion
[ 11005 11000 10999 10996 ] final   34.88 input  -57.11 | X-H torsion

> <Gold.Protein.ActiveResidues>
 VAL166  LYS551  ARG553  GLY616  TRP617  ASP618  TYR619  PRO620  LYS621  CYS622 
 ASP623  PHE694  ASN695  SER759  ASP760  ASP761  ALA762  ILE779  LEU786  VAL792 
 PHE793  MET794  SER795  GLU796  ALA797  LYS798  CYS799  TRP800  GLU811  SER814 

> <Gold.Protein.RotatedAtoms>
  152.4585  133.7772  159.6830 H   0  0  0  0  0  0  0  0  0  0  0  0  # atno 6907 bound_to 6896
  150.8520  133.7763  159.3028 H   0  0  0  0  0  0  0  0  0  0  0  0  # atno 6908 bound_to 6896
  151.5355  135.1071  159.9965 H   0  0  0  0  0  0  0  0  0  0  0  0  # atno 6909 bound_to 6896
  144.8688  139.5879  143.5896 H   0  0  0  0  0  0  0  0  0  0  0  0  # atno 7974 bound_to 7965
  156.2991  140.2371  156.4214 H   0  0  0  0  0  0  0  0  0  0  0  0  # atno 8008 bound_to 7997
  154.8352  140.0431  157.1524 H   0  0  0  0  0  0  0  0  0  0  0  0  # atno 8009 bound_to 7997
  154.9164  140.2997  155.5243 H   0  0  0  0  0  0  0  0  0  0  0  0  # atno 8010 bound_to 7997
  139.7644  144.6944  151.0246 H   0  0  0  0  0  0  0  0  0  0  0  0  # atno 10167 bound_to 10162
  156.0240  130.4418  150.2902 H   0  0  0  0  0  0  0  0  0  0  0  0  # atno 10718 bound_to 10713
  152.9905  135.6158  154.2807 H   0  0  0  0  0  0  0  0  0  0  0  0  # atno 10763 bound_to 10752
  154.2536  135.2784  155.2808 H   0  0  0  0  0  0  0  0  0  0  0  0  # atno 10764 bound_to 10752
  154.5266  135.5800  153.6782 H   0  0  0  0  0  0  0  0  0  0  0  0  # atno 10765 bound_to 10752
  140.2484  134.3332  155.7899 H   0  0  0  0  0  0  0  0  0  0  0  0  # atno 11005 bound_to 11000
  146.2915  139.7154  142.9157 LP  0  0  0  0  0  0  0  0  0  0  0  0  # atno 17320 bound_to 7965
  145.4169  141.0402  143.2985 LP  0  0  0  0  0  0  0  0  0  0  0  0  # atno 17321 bound_to 7965
  140.7809  143.4660  151.0212 LP  0  0  0  0  0  0  0  0  0  0  0  0  # atno 17342 bound_to 10162
  139.8345  143.7646  152.3180 LP  0  0  0  0  0  0  0  0  0  0  0  0  # atno 17343 bound_to 10162
  157.1005  131.0194  151.3087 LP  0  0  0  0  0  0  0  0  0  0  0  0  # atno 17370 bound_to 10713
  157.4783  130.7750  149.7389 LP  0  0  0  0  0  0  0  0  0  0  0  0  # atno 17371 bound_to 10713
  141.2204  133.7339  156.8997 LP  0  0  0  0  0  0  0  0  0  0  0  0  # atno 17394 bound_to 11000
  140.1583  134.9183  157.2682 LP  0  0  0  0  0  0  0  0  0  0  0  0  # atno 17395 bound_to 11000

$$$$
