AV-unprocessed.smi:2377|AV-procd|sdf|9447|dock4
  -GOLD-   2272013 73D 1   1.00000     0.00000
 Structure written by MMmdl.
 23 23  0  0  0  0  0  0  0  0  1 V2000
  148.2516  141.3703  154.4219 C   0  0  0  0  0  0  0  0  0  0  0  0
  149.3710  142.2496  154.7344 N   0  0  0  0  0  0  0  0  0  0  0  0
  150.3419  141.6451  155.6428 C   0  0  0  0  0  0  0  0  0  0  0  0
  149.9491  141.8573  157.1158 C   0  0  2  0  0  0  0  0  0  0  0  0
  148.7762  142.6463  157.1626 O   0  0  0  0  0  0  0  0  0  0  0  0
  151.0833  142.5078  157.8914 C   0  0  0  0  0  0  0  0  0  0  0  0
  151.6999  141.8528  158.9799 C   0  0  0  0  0  0  0  0  0  0  0  0
  152.7386  142.5076  159.6692 C   0  0  0  0  0  0  0  0  0  0  0  0
  153.1188  143.7954  159.2427 C   0  0  0  0  0  0  0  0  0  0  0  0
  152.5357  144.4346  158.2061 N   0  0  0  0  0  0  0  0  0  0  0  0
  151.5403  143.7996  157.5506 C   0  0  0  0  0  0  0  0  0  0  0  0
  147.5619  141.8564  153.7318 H   0  0  0  0  0  0  0  0  0  0  0  0
  147.6949  141.1086  155.3222 H   0  0  0  0  0  0  0  0  0  0  0  0
  148.5962  140.4472  153.9548 H   0  0  0  0  0  0  0  0  0  0  0  0
  149.0239  143.1136  155.1380 H   0  0  0  0  0  0  0  0  0  0  0  0
  150.3861  140.5731  155.4445 H   0  0  0  0  0  0  0  0  0  0  0  0
  151.3429  142.0360  155.4543 H   0  0  0  0  0  0  0  0  0  0  0  0
  149.7222  140.8943  157.5761 H   0  0  0  0  0  0  0  0  0  0  0  0
  148.9504  143.4691  156.7319 H   0  0  0  0  0  0  0  0  0  0  0  0
  151.3819  140.8664  159.2846 H   0  0  0  0  0  0  0  0  0  0  0  0
  153.2315  142.0346  160.5059 H   0  0  0  0  0  0  0  0  0  0  0  0
  153.9110  144.3267  159.7489 H   0  0  0  0  0  0  0  0  0  0  0  0
  151.0952  144.3419  156.7293 H   0  0  0  0  0  0  0  0  0  0  0  0
  1  2  1  0  0  0  0
  1 12  1  0  0  0  0
  1 13  1  0  0  0  0
  1 14  1  0  0  0  0
  2  3  1  0  0  0  0
  2 15  1  0  0  0  0
  3  4  1  0  0  0  0
  3 16  1  0  0  0  0
  3 17  1  0  0  0  0
  4  5  1  0  0  0  0
  4  6  1  0  0  0  0
  4 18  1  0  0  0  0
  5 19  1  0  0  0  0
  6 11  1  0  0  0  0
  6  7  2  0  0  0  0
  7  8  1  0  0  0  0
  7 20  1  0  0  0  0
  8  9  2  0  0  0  0
  8 21  1  0  0  0  0
  9 10  1  0  0  0  0
  9 22  1  0  0  0  0
 10 11  2  0  0  0  0
 11 23  1  0  0  0  0
M  END
> <s_m_source_file>
AV-unprocessed.smi

> <i_m_source_file_index>
2377

> <i_lp_mmshare_version>
43012

> <i_f3d_flags>
0

> <s_epik_input>
W0NIM11bTkhdW0NIMl1bQ0BIXShbT0hdKWMxW2NIXVtjSF1bY0hdbltjSF0x

> <s_epik_cmdline>
J2VwaWtfcHl0aG9uJywgJy1waCcsICc3LjAnLCAnLXRuJywgJzgnLCAnLW1hJywgJzIwMCcsICctbWV0YWxfYmluZGluZycsICctaW1hZScsICc8aW5maWxlLm1hZT4nLCAnLW9tYWUnLCAnPG91dGZpbGUubWFlPic=

> <r_epik_Ionization_Penalty>
2.4626

> <r_epik_Ionization_Penalty_Charging>
0

> <r_epik_Ionization_Penalty_Neutral>
2.4626

> <r_epik_State_Penalty>
2.6219

> <r_epik_Charging_Adjusted_Penalty>
2.6219

> <i_epik_Tot_Q>
0

> <i_epik_Tot_abs_Q>
0

> <r_epik_Metal_State_Penalty>
2.61964

> <b_epik_Metal_Only>
0

> <s_lp_Force_Field>
OPLS_2005

> <r_lp_Energy>
11.5551

> <b_lp_Chiralities_Consistent>
1

> <s_lp_Variant>
AV-unprocessed.smi:2377-3

> <Gold.Version>
5.8.1

> <Gold.Id.Protein>
6NUR|6NUR_protein|mol2

> <Gold.PLP.Fitness>
34.3020

> <Gold.PLP.PLP>
-27.0790

> <Gold.PLP.part.hbond>
-3.0873

> <Gold.PLP.part.metal>
0.0000

> <Gold.PLP.part.buried>
-2.1277

> <Gold.PLP.part.nonpolar>
-19.7059

> <Gold.PLP.part.repulsive>
0.0302

> <Gold.PLP.ligand.clash>
0.0000

> <Gold.PLP.ligand.torsion>
0.8986

> <Gold.PLP.Chemscore.Hbond>
2.0040

> <Gold.PLP.Chemscore.CHOScore>
1.0000

> <Gold.PLP.Chemscore.Metal>
0.0000

> <Gold.Chemscore.Hbonds>
donor molecule, donor type, donor heavy atom, donor atom, acceptor molecule, acceptor atom, score
      L1  H     2    15       P1  8028  1.00
      L1  H     5    19       P1  8028  1.00
      L1  C    11    23       P1  8028  1.00

> <Gold.PLP.Chemscore.Internal.Correction>
0.0082

> <Gold.Rescore>
     Score         DG    S(hbond)    S(metal)    S(lipo)     H(rot)  DE(clash)    DE(int)     intcor
     14.70     -15.57       1.93        0.00      73.59       1.94       0.00       0.87       ----

> <Gold.Chemscore.Fitness>
14.6979

> <Gold.Chemscore.DG>
-15.5692

> <Gold.Chemscore.ZeroCoef>
-5.4800

> <Gold.Chemscore.Hbond>
1.9269

> <Gold.Chemscore.Metal>
0.0000

> <Gold.Chemscore.Lipo>
73.5927

> <Gold.Chemscore.Internal_Hbond>
0.0000

> <Gold.Chemscore.DEClash>
0.0021

> <Gold.Chemscore.DEInternal>
0.8692

> <Gold.Chemscore.Rot>
1.9363

> <Gold.Chemscore.Internal.Correction>
   9.000000E+99

> <Gold.Chemscore.Hbonds>
donor molecule, donor type, donor heavy atom, donor atom, acceptor molecule, acceptor atom, score
      L1  H     2    15       P1  8028  1.00
      L1  H     5    19       P1  8028  0.82

> <Gold.Chemscore.Hbond.Weighted>
-6.4359

> <Gold.Chemscore.Metal.Weighted>
-0.0000

> <Gold.Chemscore.Lipo.Weighted>
-8.6103

> <Gold.Chemscore.Internal_Hbond.Weighted>
0.0000

> <Gold.Chemscore.DEClash.Weighted>
0.0021

> <Gold.Chemscore.DEInternal.Weighted>
0.8692

> <Gold.Chemscore.Rot.Weighted>
4.9570

> <Gold.Chemscore.Internal.Correction.Weighted>
   9.000000E+99

> <Gold.Protein.RotatedTorsions>
[ 6907 6896 6895 6894 ] final -117.17 input  -60.11 | X-H torsion
[ 7974 7965 7964 7962 ] final   21.27 input  175.53 | X-H torsion
[ 8008 7997 7996 7995 ] final  -85.43 input   59.86 | X-H torsion
[ 10167 10162 10161 10158 ] final    5.14 input  -65.29 | X-H torsion
[ 10718 10713 10712 10709 ] final  -35.49 input   66.30 | X-H torsion
[ 10763 10752 10751 10750 ] final -162.80 input  -60.55 | X-H torsion
[ 11005 11000 10999 10996 ] final  134.02 input  -57.11 | X-H torsion

> <Gold.Protein.ActiveResidues>
 VAL166  LYS551  ARG553  GLY616  TRP617  ASP618  TYR619  PRO620  LYS621  CYS622 
 ASP623  PHE694  ASN695  SER759  ASP760  ASP761  ALA762  ILE779  LEU786  VAL792 
 PHE793  MET794  SER795  GLU796  ALA797  LYS798  CYS799  TRP800  GLU811  SER814 

> <Gold.Protein.RotatedAtoms>
  150.8115  133.8414  159.3180 H   0  0  0  0  0  0  0  0  0  0  0  0  # atno 6907 bound_to 6896
  151.6198  135.1031  160.0108 H   0  0  0  0  0  0  0  0  0  0  0  0  # atno 6908 bound_to 6896
  152.4207  133.7071  159.6514 H   0  0  0  0  0  0  0  0  0  0  0  0  # atno 6909 bound_to 6896
  146.2078  139.8051  142.8712 H   0  0  0  0  0  0  0  0  0  0  0  0  # atno 7974 bound_to 7965
  154.6406  140.0591  156.9841 H   0  0  0  0  0  0  0  0  0  0  0  0  # atno 8008 bound_to 7997
  155.1522  140.3275  155.4410 H   0  0  0  0  0  0  0  0  0  0  0  0  # atno 8009 bound_to 7997
  156.2529  140.1945  156.6633 H   0  0  0  0  0  0  0  0  0  0  0  0  # atno 8010 bound_to 7997
  140.6498  143.7573  150.7556 H   0  0  0  0  0  0  0  0  0  0  0  0  # atno 10167 bound_to 10162
  156.3380  130.4289  149.7813 H   0  0  0  0  0  0  0  0  0  0  0  0  # atno 10718 bound_to 10713
  154.7181  135.3020  154.9091 H   0  0  0  0  0  0  0  0  0  0  0  0  # atno 10763 bound_to 10752
  153.9971  135.6711  153.4761 H   0  0  0  0  0  0  0  0  0  0  0  0  # atno 10764 bound_to 10752
  153.0811  135.5008  154.8420 H   0  0  0  0  0  0  0  0  0  0  0  0  # atno 10765 bound_to 10752
  139.9888  134.9522  156.9807 H   0  0  0  0  0  0  0  0  0  0  0  0  # atno 11005 bound_to 11000
  145.3255  141.0254  143.3476 LP  0  0  0  0  0  0  0  0  0  0  0  0  # atno 17320 bound_to 7965
  144.8836  139.4870  143.6711 LP  0  0  0  0  0  0  0  0  0  0  0  0  # atno 17321 bound_to 7965
  140.1221  143.4602  152.2306 LP  0  0  0  0  0  0  0  0  0  0  0  0  # atno 17342 bound_to 10162
  139.5712  144.7463  151.3887 LP  0  0  0  0  0  0  0  0  0  0  0  0  # atno 17343 bound_to 10162
  156.5060  130.8150  151.3151 LP  0  0  0  0  0  0  0  0  0  0  0  0  # atno 17370 bound_to 10713
  157.7442  130.9929  150.2653 LP  0  0  0  0  0  0  0  0  0  0  0  0  # atno 17371 bound_to 10713
  140.4949  134.1156  155.7239 LP  0  0  0  0  0  0  0  0  0  0  0  0  # atno 17394 bound_to 11000
  141.1548  133.8902  157.2005 LP  0  0  0  0  0  0  0  0  0  0  0  0  # atno 17395 bound_to 11000

$$$$
