AV-unprocessed.smi:3064|AV-procd|sdf|11690|dock10
  -GOLD-   2272017 93D 1   1.00000     0.00000
 Structure written by MMmdl.
 21 22  0  0  0  0  0  0  0  0  1 V2000
  152.7842  142.8273  159.9807 C   0  0  0  0  0  0  0  0  0  0  0  0
  152.4361  143.9512  159.2761 C   0  0  0  0  0  0  0  0  0  0  0  0
  151.6706  143.5521  157.7627 S   0  0  0  0  0  0  0  0  0  0  0  0
  151.8384  141.8444  158.1600 C   0  0  0  0  0  0  0  0  0  0  0  0
  151.3990  140.7512  157.2382 C   0  0  1  0  0  0  0  0  0  0  0  0
  150.8613  141.2948  155.9003 C   0  0  0  0  0  0  0  0  0  0  0  0
  150.5177  140.1898  155.0068 N   0  0  0  0  0  0  0  0  0  0  0  0
  151.6550  139.2906  154.8177 C   0  0  0  0  0  0  0  0  0  0  0  0
  152.1815  138.7994  156.1784 C   0  0  0  0  0  0  0  0  0  0  0  0
  152.5284  139.9169  156.9895 O   0  0  0  0  0  0  0  0  0  0  0  0
  152.4493  141.6367  159.3315 N   0  0  0  0  0  0  0  0  0  0  0  0
  153.2730  142.7820  160.9427 H   0  0  0  0  0  0  0  0  0  0  0  0
  152.5859  144.9842  159.5524 H   0  0  0  0  0  0  0  0  0  0  0  0
  150.6258  140.1725  157.7471 H   0  0  0  0  0  0  0  0  0  0  0  0
  149.9863  141.9218  156.0725 H   0  0  0  0  0  0  0  0  0  0  0  0
  151.6142  141.9291  155.4306 H   0  0  0  0  0  0  0  0  0  0  0  0
  150.2221  140.5581  154.1083 H   0  0  0  0  0  0  0  0  0  0  0  0
  151.3622  138.4413  154.2001 H   0  0  0  0  0  0  0  0  0  0  0  0
  152.4523  139.8075  154.2821 H   0  0  0  0  0  0  0  0  0  0  0  0
  151.4385  138.1814  156.6850 H   0  0  0  0  0  0  0  0  0  0  0  0
  153.0663  138.1790  156.0355 H   0  0  0  0  0  0  0  0  0  0  0  0
  1 11  1  0  0  0  0
  1  2  2  0  0  0  0
  1 12  1  0  0  0  0
  2  3  1  0  0  0  0
  2 13  1  0  0  0  0
  3  4  1  0  0  0  0
  4  5  1  0  0  0  0
  4 11  2  0  0  0  0
  5 10  1  0  0  0  0
  5  6  1  0  0  0  0
  5 14  1  0  0  0  0
  6  7  1  0  0  0  0
  6 15  1  0  0  0  0
  6 16  1  0  0  0  0
  7  8  1  0  0  0  0
  7 17  1  0  0  0  0
  8  9  1  0  0  0  0
  8 18  1  0  0  0  0
  8 19  1  0  0  0  0
  9 10  1  0  0  0  0
  9 20  1  0  0  0  0
  9 21  1  0  0  0  0
M  END
> <s_m_source_file>
AV-unprocessed.smi

> <i_m_source_file_index>
3064

> <i_lp_mmshare_version>
43012

> <i_f3d_flags>
0

> <s_epik_input>
bjFbY0hdW2NIXXNjMVtDQEBIXTJbQ0gyXVtOSF1bQ0gyXVtDSDJdTzI=

> <s_epik_cmdline>
J2VwaWtfcHl0aG9uJywgJy1waCcsICc3LjAnLCAnLXRuJywgJzgnLCAnLW1hJywgJzIwMCcsICctbWV0YWxfYmluZGluZycsICctaW1hZScsICc8aW5maWxlLm1hZT4nLCAnLW9tYWUnLCAnPG91dGZpbGUubWFlPic=

> <r_epik_Ionization_Penalty>
0.980767

> <r_epik_Ionization_Penalty_Charging>
0

> <r_epik_Ionization_Penalty_Neutral>
0.980767

> <r_epik_State_Penalty>
1.0271

> <r_epik_Charging_Adjusted_Penalty>
1.0271

> <i_epik_Tot_Q>
0

> <i_epik_Tot_abs_Q>
0

> <r_epik_Metal_State_Penalty>
1.02673

> <b_epik_Metal_Only>
0

> <s_lp_Force_Field>
OPLS_2005

> <r_lp_Energy>
8.04051

> <b_lp_Chiralities_Consistent>
1

> <s_lp_Variant>
AV-unprocessed.smi:3064-4

> <Gold.Version>
5.8.1

> <Gold.Id.Protein>
6NUR|6NUR_protein|mol2

> <Gold.PLP.Fitness>
28.6236

> <Gold.PLP.PLP>
-25.7141

> <Gold.PLP.part.hbond>
-2.0000

> <Gold.PLP.part.metal>
0.0000

> <Gold.PLP.part.buried>
-1.7651

> <Gold.PLP.part.nonpolar>
-21.5724

> <Gold.PLP.part.repulsive>
0.0000

> <Gold.PLP.ligand.clash>
0.0000

> <Gold.PLP.ligand.torsion>
0.0505

> <Gold.PLP.Chemscore.Hbond>
1.0000

> <Gold.PLP.Chemscore.CHOScore>
0.0000

> <Gold.PLP.Chemscore.Metal>
0.0000

> <Gold.Chemscore.Hbonds>
donor molecule, donor type, donor heavy atom, donor atom, acceptor molecule, acceptor atom, score
      P1  H  7997  8008       L1    10  1.00

> <Gold.PLP.Chemscore.Internal.Correction>
0.0106

> <Gold.Rescore>
     Score         DG    S(hbond)    S(metal)    S(lipo)     H(rot)  DE(clash)    DE(int)     intcor
     14.28     -14.43       0.93        0.00      71.87       1.00       0.07       0.08       ----

> <Gold.Chemscore.Fitness>
14.2764

> <Gold.Chemscore.DG>
-14.4313

> <Gold.Chemscore.ZeroCoef>
-5.4800

> <Gold.Chemscore.Hbond>
0.9288

> <Gold.Chemscore.Metal>
0.0000

> <Gold.Chemscore.Lipo>
71.8734

> <Gold.Chemscore.Internal_Hbond>
0.0000

> <Gold.Chemscore.DEClash>
0.0726

> <Gold.Chemscore.DEInternal>
0.0823

> <Gold.Chemscore.Rot>
1.0000

> <Gold.Chemscore.Internal.Correction>
   9.000000E+99

> <Gold.Chemscore.Hbonds>
donor molecule, donor type, donor heavy atom, donor atom, acceptor molecule, acceptor atom, score
      P1  H  7997  8008       L1    10  0.25

> <Gold.Chemscore.Hbond.Weighted>
-3.1021

> <Gold.Chemscore.Metal.Weighted>
-0.0000

> <Gold.Chemscore.Lipo.Weighted>
-8.4092

> <Gold.Chemscore.Internal_Hbond.Weighted>
0.0000

> <Gold.Chemscore.DEClash.Weighted>
0.0726

> <Gold.Chemscore.DEInternal.Weighted>
0.0823

> <Gold.Chemscore.Rot.Weighted>
2.5600

> <Gold.Chemscore.Internal.Correction.Weighted>
   9.000000E+99

> <Gold.Protein.RotatedTorsions>
[ 6907 6896 6895 6894 ] final -137.49 input  -60.11 | X-H torsion
[ 7974 7965 7964 7962 ] final  -59.66 input  175.53 | X-H torsion
[ 8008 7997 7996 7995 ] final  -50.94 input   59.86 | X-H torsion
[ 10167 10162 10161 10158 ] final  173.25 input  -65.29 | X-H torsion
[ 10718 10713 10712 10709 ] final  -27.02 input   66.30 | X-H torsion
[ 10763 10752 10751 10750 ] final   47.00 input  -60.55 | X-H torsion
[ 11005 11000 10999 10996 ] final -142.03 input  -57.11 | X-H torsion

> <Gold.Protein.ActiveResidues>
 VAL166  LYS551  ARG553  GLY616  TRP617  ASP618  TYR619  PRO620  LYS621  CYS622 
 ASP623  PHE694  ASN695  SER759  ASP760  ASP761  ALA762  ILE779  LEU786  VAL792 
 PHE793  MET794  SER795  GLU796  ALA797  LYS798  CYS799  TRP800  GLU811  SER814 

> <Gold.Protein.RotatedAtoms>
  151.0231  133.5858  159.2668 H   0  0  0  0  0  0  0  0  0  0  0  0  # atno 6907 bound_to 6896
  151.2967  135.0756  159.9234 H   0  0  0  0  0  0  0  0  0  0  0  0  # atno 6908 bound_to 6896
  152.5328  133.9920  159.7909 H   0  0  0  0  0  0  0  0  0  0  0  0  # atno 6909 bound_to 6896
  145.8248  140.8517  143.0114 H   0  0  0  0  0  0  0  0  0  0  0  0  # atno 7974 bound_to 7965
  154.4072  140.1260  156.4748 H   0  0  0  0  0  0  0  0  0  0  0  0  # atno 8008 bound_to 7997
  155.7143  140.3493  155.4968 H   0  0  0  0  0  0  0  0  0  0  0  0  # atno 8009 bound_to 7997
  155.9272  140.1063  157.1151 H   0  0  0  0  0  0  0  0  0  0  0  0  # atno 8010 bound_to 7997
  139.5102  144.3282  152.0137 H   0  0  0  0  0  0  0  0  0  0  0  0  # atno 10167 bound_to 10162
  156.4436  130.4469  149.7036 H   0  0  0  0  0  0  0  0  0  0  0  0  # atno 10718 bound_to 10713
  152.9804  135.5990  154.3692 H   0  0  0  0  0  0  0  0  0  0  0  0  # atno 10763 bound_to 10752
  154.3367  135.2768  155.2446 H   0  0  0  0  0  0  0  0  0  0  0  0  # atno 10764 bound_to 10752
  154.4546  135.5981  153.6270 H   0  0  0  0  0  0  0  0  0  0  0  0  # atno 10765 bound_to 10752
  140.8265  134.2568  157.4876 H   0  0  0  0  0  0  0  0  0  0  0  0  # atno 11005 bound_to 11000
  144.6744  140.0586  143.7477 LP  0  0  0  0  0  0  0  0  0  0  0  0  # atno 17320 bound_to 7965
  145.9635  139.2818  143.1141 LP  0  0  0  0  0  0  0  0  0  0  0  0  # atno 17321 bound_to 7965
  140.2722  144.3951  150.6147 LP  0  0  0  0  0  0  0  0  0  0  0  0  # atno 17342 bound_to 10162
  140.6080  143.2168  151.6943 LP  0  0  0  0  0  0  0  0  0  0  0  0  # atno 17343 bound_to 10162
  156.3891  130.7618  151.2617 LP  0  0  0  0  0  0  0  0  0  0  0  0  # atno 17370 bound_to 10713
  157.7505  131.0273  150.4000 LP  0  0  0  0  0  0  0  0  0  0  0  0  # atno 17371 bound_to 10713
  139.8706  134.9563  156.4234 LP  0  0  0  0  0  0  0  0  0  0  0  0  # atno 17394 bound_to 11000
  140.9043  133.7757  155.9717 LP  0  0  0  0  0  0  0  0  0  0  0  0  # atno 17395 bound_to 11000

$$$$
