AV-unprocessed.smi:2322|AV-procd|sdf|9286|dock9
  -GOLD-   2272012513D 1   1.00000     0.00000
 Structure written by MMmdl.
 38 40  0  0  0  0  0  0  0  0  1 V2000
  147.5792  132.7501  152.4533 C   0  0  0  0  0  0  0  0  0  0  0  0
  148.5823  132.2658  153.3821 N   0  0  0  0  0  0  0  0  0  0  0  0
  148.6998  130.9440  153.6491 N   0  0  0  0  0  0  0  0  0  0  0  0
  149.7067  130.9092  154.5209 C   0  0  0  0  0  0  0  0  0  0  0  0
  150.2601  132.1152  154.8436 N   0  0  0  0  0  0  0  0  0  0  0  0
  149.5081  132.9170  154.0938 C   0  0  0  0  0  0  0  0  0  0  0  0
  149.6026  134.3371  153.9943 N   0  0  0  0  0  0  0  0  0  0  0  0
  150.1644  135.2505  154.8138 C   0  0  0  0  0  0  0  0  0  0  0  0
  150.7182  134.9101  155.8578 O   0  0  0  0  0  0  0  0  0  0  0  0
  150.0779  136.5319  154.4210 N   0  0  0  0  0  0  0  0  0  0  0  0
  150.5984  137.6824  155.1518 C   0  0  1  0  0  0  0  0  0  0  0  0
  152.0302  138.0172  154.7025 C   0  0  0  0  0  0  0  0  0  0  0  0
  152.5087  139.3250  155.3531 C   0  0  0  0  0  0  0  0  0  0  0  0
  151.6021  140.3812  155.0529 O   0  0  0  0  0  0  0  0  0  0  0  0
  150.2921  140.1596  155.5671 C   0  0  1  0  0  0  0  0  0  0  0  0
  149.4580  141.3923  155.2803 C   0  0  0  0  0  0  0  0  0  0  0  0
  147.9537  141.3594  155.4184 C   0  0  0  0  0  0  0  0  0  0  0  0
  148.5831  141.4609  154.0501 C   0  0  0  0  0  0  0  0  0  0  0  0
  149.6943  138.9001  154.9134 C   0  0  0  0  0  0  0  0  0  0  0  0
  148.0636  133.0941  151.5394 H   0  0  0  0  0  0  0  0  0  0  0  0
  147.0311  133.5793  152.9012 H   0  0  0  0  0  0  0  0  0  0  0  0
  146.8733  131.9568  152.2045 H   0  0  0  0  0  0  0  0  0  0  0  0
  150.0562  129.9776  154.9410 H   0  0  0  0  0  0  0  0  0  0  0  0
  149.1725  134.7260  153.1678 H   0  0  0  0  0  0  0  0  0  0  0  0
  149.6079  136.7224  153.5471 H   0  0  0  0  0  0  0  0  0  0  0  0
  150.6012  137.4618  156.2212 H   0  0  0  0  0  0  0  0  0  0  0  0
  152.7104  137.2040  154.9575 H   0  0  0  0  0  0  0  0  0  0  0  0
  152.0631  138.1237  153.6173 H   0  0  0  0  0  0  0  0  0  0  0  0
  152.6032  139.2096  156.4340 H   0  0  0  0  0  0  0  0  0  0  0  0
  153.4961  139.5909  154.9751 H   0  0  0  0  0  0  0  0  0  0  0  0
  150.3486  140.0223  156.6487 H   0  0  0  0  0  0  0  0  0  0  0  0
  149.9422  142.3245  155.5659 H   0  0  0  0  0  0  0  0  0  0  0  0
  147.4890  140.4133  155.6883 H   0  0  0  0  0  0  0  0  0  0  0  0
  147.4676  142.2478  155.8164 H   0  0  0  0  0  0  0  0  0  0  0  0
  148.5173  142.4167  153.5347 H   0  0  0  0  0  0  0  0  0  0  0  0
  148.5384  140.5817  153.4102 H   0  0  0  0  0  0  0  0  0  0  0  0
  149.5762  139.0685  153.8418 H   0  0  0  0  0  0  0  0  0  0  0  0
  148.6968  138.7088  155.3109 H   0  0  0  0  0  0  0  0  0  0  0  0
  1  2  1  0  0  0  0
  1 20  1  0  0  0  0
  1 21  1  0  0  0  0
  1 22  1  0  0  0  0
  2  6  1  0  0  0  0
  2  3  1  0  0  0  0
  3  4  2  0  0  0  0
  4  5  1  0  0  0  0
  4 23  1  0  0  0  0
  5  6  2  0  0  0  0
  6  7  1  0  0  0  0
  7  8  1  0  0  0  0
  7 24  1  0  0  0  0
  8  9  2  0  0  0  0
  8 10  1  0  0  0  0
 10 11  1  0  0  0  0
 10 25  1  0  0  0  0
 11 19  1  0  0  0  0
 11 12  1  0  0  0  0
 11 26  1  0  0  0  0
 12 13  1  0  0  0  0
 12 27  1  0  0  0  0
 12 28  1  0  0  0  0
 13 14  1  0  0  0  0
 13 29  1  0  0  0  0
 13 30  1  0  0  0  0
 14 15  1  0  0  0  0
 15 16  1  0  0  0  0
 15 19  1  0  0  0  0
 15 31  1  0  0  0  0
 16 18  1  0  0  0  0
 16 17  1  0  0  0  0
 16 32  1  0  0  0  0
 17 18  1  0  0  0  0
 17 33  1  0  0  0  0
 17 34  1  0  0  0  0
 18 35  1  0  0  0  0
 18 36  1  0  0  0  0
 19 37  1  0  0  0  0
 19 38  1  0  0  0  0
M  END
> <s_m_source_file>
AV-unprocessed.smi

> <i_m_source_file_index>
2322

> <i_lp_mmshare_version>
43012

> <i_f3d_flags>
0

> <s_epik_input>
W0NIM11uMW5bY0hdbmMxW05IXUMoPU8pW05IXVtDQEBIXTJbQ0gyXVtDSDJdT1tDQEhdKFtDSDJdMilbQ0hdM1tDSDJdW0NIMl0z

> <s_epik_cmdline>
J2VwaWtfcHl0aG9uJywgJy1waCcsICc3LjAnLCAnLXRuJywgJzgnLCAnLW1hJywgJzIwMCcsICctbWV0YWxfYmluZGluZycsICctaW1hZScsICc8aW5maWxlLm1hZT4nLCAnLW9tYWUnLCAnPG91dGZpbGUubWFlPic=

> <r_lp_tautomer_probability>
1

> <r_epik_Ionization_Penalty>
2.16399e-05

> <r_epik_Ionization_Penalty_Charging>
0

> <r_epik_Ionization_Penalty_Neutral>
2.16399e-05

> <r_epik_State_Penalty>
-0

> <r_epik_Charging_Adjusted_Penalty>
0

> <i_epik_Tot_Q>
0

> <i_epik_Tot_abs_Q>
0

> <r_epik_Metal_State_Penalty>
-0

> <b_epik_Metal_Only>
0

> <s_lp_Force_Field>
OPLS_2005

> <r_lp_Energy>
20.3548

> <b_lp_Chiralities_Consistent>
1

> <s_lp_Variant>
AV-unprocessed.smi:2322-2

> <Gold.Version>
5.8.1

> <Gold.Id.Protein>
6NUR|6NUR_protein|mol2

> <Gold.PLP.Fitness>
42.2954

> <Gold.PLP.PLP>
-35.2132

> <Gold.PLP.part.hbond>
-3.1608

> <Gold.PLP.part.metal>
0.0000

> <Gold.PLP.part.buried>
-3.0939

> <Gold.PLP.part.nonpolar>
-30.1235

> <Gold.PLP.part.repulsive>
0.2492

> <Gold.PLP.ligand.clash>
0.0000

> <Gold.PLP.ligand.torsion>
1.0206

> <Gold.PLP.Chemscore.Hbond>
2.6832

> <Gold.PLP.Chemscore.CHOScore>
0.0000

> <Gold.PLP.Chemscore.Metal>
0.0000

> <Gold.Chemscore.Hbonds>
donor molecule, donor type, donor heavy atom, donor atom, acceptor molecule, acceptor atom, score
      L1  H     7    24       P1  7948  0.55
      L1  H    10    25       P1  7948  1.00
      P1  H  7989  7998       L1    14  0.90

> <Gold.PLP.Chemscore.Internal.Correction>
1.0738

> <Gold.Rescore>
     Score         DG    S(hbond)    S(metal)    S(lipo)     H(rot)  DE(clash)    DE(int)     intcor
     14.47     -16.33       2.28        0.00      56.38       1.31       0.01       1.85       ----

> <Gold.Chemscore.Fitness>
14.4655

> <Gold.Chemscore.DG>
-16.3323

> <Gold.Chemscore.ZeroCoef>
-5.4800

> <Gold.Chemscore.Hbond>
2.2761

> <Gold.Chemscore.Metal>
0.0000

> <Gold.Chemscore.Lipo>
56.3807

> <Gold.Chemscore.Internal_Hbond>
0.0000

> <Gold.Chemscore.DEClash>
0.0149

> <Gold.Chemscore.DEInternal>
1.8519

> <Gold.Chemscore.Rot>
1.3072

> <Gold.Chemscore.Internal.Correction>
   9.000000E+99

> <Gold.Chemscore.Hbonds>
donor molecule, donor type, donor heavy atom, donor atom, acceptor molecule, acceptor atom, score
      L1  H     7    24       P1  7948  0.03
      L1  H    10    25       P1  7948  0.67
      P1  H  7989  7998       L1    14  0.70

> <Gold.Chemscore.Hbond.Weighted>
-7.6022

> <Gold.Chemscore.Metal.Weighted>
-0.0000

> <Gold.Chemscore.Lipo.Weighted>
-6.5965

> <Gold.Chemscore.Internal_Hbond.Weighted>
0.0000

> <Gold.Chemscore.DEClash.Weighted>
0.0149

> <Gold.Chemscore.DEInternal.Weighted>
1.8519

> <Gold.Chemscore.Rot.Weighted>
3.3464

> <Gold.Chemscore.Internal.Correction.Weighted>
   9.000000E+99

> <Gold.Protein.RotatedTorsions>
[ 6907 6896 6895 6894 ] final  125.48 input  -60.11 | X-H torsion
[ 7974 7965 7964 7962 ] final  -70.34 input  175.53 | X-H torsion
[ 8008 7997 7996 7995 ] final  -21.95 input   59.86 | X-H torsion
[ 10167 10162 10161 10158 ] final -176.40 input  -65.29 | X-H torsion
[ 10718 10713 10712 10709 ] final   49.55 input   66.30 | X-H torsion
[ 10763 10752 10751 10750 ] final -136.09 input  -60.55 | X-H torsion
[ 11005 11000 10999 10996 ] final  -67.15 input  -57.11 | X-H torsion

> <Gold.Protein.ActiveResidues>
 VAL166  LYS551  ARG553  GLY616  TRP617  ASP618  TYR619  PRO620  LYS621  CYS622 
 ASP623  PHE694  ASN695  SER759  ASP760  ASP761  ALA762  ILE779  LEU786  VAL792 
 PHE793  MET794  SER795  GLU796  ALA797  LYS798  CYS799  TRP800  GLU811  SER814 

> <Gold.Protein.RotatedAtoms>
  152.3988  133.6787  159.6298 H   0  0  0  0  0  0  0  0  0  0  0  0  # atno 6907 bound_to 6896
  150.7883  133.8827  159.3299 H   0  0  0  0  0  0  0  0  0  0  0  0  # atno 6908 bound_to 6896
  151.6597  135.0992  160.0228 H   0  0  0  0  0  0  0  0  0  0  0  0  # atno 6909 bound_to 6896
  145.6922  140.9149  143.0776 H   0  0  0  0  0  0  0  0  0  0  0  0  # atno 7974 bound_to 7965
  154.4674  140.2021  156.0084 H   0  0  0  0  0  0  0  0  0  0  0  0  # atno 8008 bound_to 7997
  156.0950  140.3252  155.7837 H   0  0  0  0  0  0  0  0  0  0  0  0  # atno 8009 bound_to 7997
  155.4892  140.0545  157.2947 H   0  0  0  0  0  0  0  0  0  0  0  0  # atno 8010 bound_to 7997
  139.5532  144.2056  152.1113 H   0  0  0  0  0  0  0  0  0  0  0  0  # atno 10167 bound_to 10162
  157.4798  130.8308  149.8080 H   0  0  0  0  0  0  0  0  0  0  0  0  # atno 10718 bound_to 10713
  154.8690  135.3683  154.5004 H   0  0  0  0  0  0  0  0  0  0  0  0  # atno 10763 bound_to 10752
  153.5645  135.7022  153.5537 H   0  0  0  0  0  0  0  0  0  0  0  0  # atno 10764 bound_to 10752
  153.3597  135.4049  155.1672 H   0  0  0  0  0  0  0  0  0  0  0  0  # atno 10765 bound_to 10752
  141.1501  133.6713  156.6249 H   0  0  0  0  0  0  0  0  0  0  0  0  # atno 11005 bound_to 11000
  144.6993  139.8836  143.7448 LP  0  0  0  0  0  0  0  0  0  0  0  0  # atno 17320 bound_to 7965
  146.0872  139.3861  143.0428 LP  0  0  0  0  0  0  0  0  0  0  0  0  # atno 17321 bound_to 7965
  140.1555  144.5074  150.6662 LP  0  0  0  0  0  0  0  0  0  0  0  0  # atno 17342 bound_to 10162
  140.6799  143.2322  151.5411 LP  0  0  0  0  0  0  0  0  0  0  0  0  # atno 17343 bound_to 10162
  156.0115  130.3831  150.2248 LP  0  0  0  0  0  0  0  0  0  0  0  0  # atno 17370 bound_to 10713
  157.0434  131.0041  151.3276 LP  0  0  0  0  0  0  0  0  0  0  0  0  # atno 17371 bound_to 10713
  140.3512  134.7767  157.4468 LP  0  0  0  0  0  0  0  0  0  0  0  0  # atno 17394 bound_to 11000
  140.0859  134.5667  155.8492 LP  0  0  0  0  0  0  0  0  0  0  0  0  # atno 17395 bound_to 11000

$$$$
