AV-unprocessed.smi:290|AV-procd|sdf|2225|dock2
  -GOLD-   2262022 73D 1   1.00000     0.00000
 Structure written by MMmdl.
 59 62  0  0  0  0  0  0  0  0  2 V2000
  148.9551  133.1701  153.6619 C   0  0  0  0  0  0  0  0  0  0  0  0
  149.3188  133.0417  155.1503 C   0  0  2  0  0  0  0  0  0  0  0  0
  148.3327  132.2771  155.8432 O   0  0  0  0  0  0  0  0  0  0  0  0
  147.7681  133.0487  156.8932 C   0  0  0  0  0  0  0  0  0  0  0  0
  148.8781  134.0157  157.2825 C   0  0  0  0  0  0  0  0  0  0  0  0
  149.4982  134.3628  155.9357 C   0  0  2  0  0  0  0  0  0  0  0  0
  148.7350  135.4076  155.3528 O   0  0  0  0  0  0  0  0  0  0  0  0
  150.9738  134.8205  156.0208 C   0  0  0  0  0  0  0  0  0  0  0  0
  151.1242  136.1974  156.4640 N   0  0  0  0  0  0  0  0  0  0  0  0
  151.3449  136.6308  157.7527 C   0  0  0  0  0  0  0  0  0  0  0  0
  151.4335  137.9252  157.8985 N   0  0  0  0  0  0  0  0  0  0  0  0
  151.2716  138.4178  156.6103 C   0  0  0  0  0  0  0  0  0  0  0  0
  151.2588  139.7202  156.0491 C   0  0  0  0  0  0  0  0  0  0  0  0
  151.4241  140.8199  156.8168 N   0  0  0  0  0  0  0  0  0  0  0  0
  152.1237  140.5840  158.0697 C   0  0  0  0  0  0  0  0  0  0  0  0
  151.9119  141.8512  158.9056 C   0  0  0  0  0  0  0  0  0  0  0  0
  150.6630  142.5240  158.2935 C   0  0  1  0  0  0  0  0  0  0  0  0
  150.8587  143.9405  157.8517 N   0  3  2  0  0  0  0  0  0  0  0  0
  152.1042  144.2067  157.0867 C   0  0  0  0  0  0  0  0  0  0  0  0
  150.6471  144.9375  158.9321 C   0  0  0  0  0  0  0  0  0  0  0  0
  151.9276  145.2028  159.7427 C   0  0  0  0  0  0  0  0  0  0  0  0
  151.8248  146.4399  160.4159 O   0  0  0  0  0  0  0  0  0  0  0  0
  150.2225  141.5640  157.1683 C   0  0  1  0  0  0  0  0  0  0  0  0
  149.4815  142.1820  155.9653 C   0  0  0  0  0  0  0  0  0  0  0  0
  151.0780  139.8355  154.7069 N   0  0  0  0  0  0  0  0  0  0  0  0
  150.9156  138.7381  153.9607 C   0  0  0  0  0  0  0  0  0  0  0  0
  150.9006  137.4603  154.3476 N   0  0  0  0  0  0  0  0  0  0  0  0
  151.0841  137.3465  155.6944 C   0  0  0  0  0  0  0  0  0  0  0  0
  149.8638  142.5140  159.0341 H   0  0  0  0  0  0  0  0  0  0  0  0
  149.5324  140.8533  157.6266 H   0  0  0  0  0  0  0  0  0  0  0  0
  149.6926  133.7706  153.1288 H   0  0  0  0  0  0  0  0  0  0  0  0
  147.9778  133.6339  153.5254 H   0  0  0  0  0  0  0  0  0  0  0  0
  148.9198  132.1893  153.1877 H   0  0  0  0  0  0  0  0  0  0  0  0
  150.2391  132.4608  155.2233 H   0  0  0  0  0  0  0  0  0  0  0  0
  146.8999  133.5896  156.5140 H   0  0  0  0  0  0  0  0  0  0  0  0
  147.4441  132.4207  157.7233 H   0  0  0  0  0  0  0  0  0  0  0  0
  148.5168  134.8817  157.8391 H   0  0  0  0  0  0  0  0  0  0  0  0
  149.6028  133.4933  157.9086 H   0  0  0  0  0  0  0  0  0  0  0  0
  148.6582  136.1097  155.9804 H   0  0  0  0  0  0  0  0  0  0  0  0
  151.5277  134.1839  156.7121 H   0  0  0  0  0  0  0  0  0  0  0  0
  151.4601  134.7122  155.0502 H   0  0  0  0  0  0  0  0  0  0  0  0
  151.4309  135.9513  158.5883 H   0  0  0  0  0  0  0  0  0  0  0  0
  151.7035  139.7189  158.5855 H   0  0  0  0  0  0  0  0  0  0  0  0
  153.1830  140.3911  157.8973 H   0  0  0  0  0  0  0  0  0  0  0  0
  151.7559  141.5990  159.9548 H   0  0  0  0  0  0  0  0  0  0  0  0
  152.7998  142.4793  158.8688 H   0  0  0  0  0  0  0  0  0  0  0  0
  152.9726  144.2934  157.7395 H   0  0  0  0  0  0  0  0  0  0  0  0
  152.0088  145.1497  156.5474 H   0  0  0  0  0  0  0  0  0  0  0  0
  152.3102  143.4320  156.3493 H   0  0  0  0  0  0  0  0  0  0  0  0
  150.2676  145.8656  158.5025 H   0  0  0  0  0  0  0  0  0  0  0  0
  149.8754  144.5855  159.6191 H   0  0  0  0  0  0  0  0  0  0  0  0
  152.1343  144.4114  160.4624 H   0  0  0  0  0  0  0  0  0  0  0  0
  152.7851  145.2498  159.0710 H   0  0  0  0  0  0  0  0  0  0  0  0
  152.2902  147.0948  159.9173 H   0  0  0  0  0  0  0  0  0  0  0  0
  148.6262  142.7716  156.2963 H   0  0  0  0  0  0  0  0  0  0  0  0
  149.1011  141.4056  155.3009 H   0  0  0  0  0  0  0  0  0  0  0  0
  150.1243  142.8282  155.3688 H   0  0  0  0  0  0  0  0  0  0  0  0
  150.7759  138.9066  152.9029 H   0  0  0  0  0  0  0  0  0  0  0  0
  150.1110  144.1152  157.1951 H   0  0  0  0  0  0  0  0  0  0  0  0
  1  2  1  0  0  0  0
  1 31  1  0  0  0  0
  1 32  1  0  0  0  0
  1 33  1  0  0  0  0
  2  6  1  0  0  0  0
  2  3  1  0  0  0  0
  2 34  1  0  0  0  0
  3  4  1  0  0  0  0
  4  5  1  0  0  0  0
  4 35  1  0  0  0  0
  4 36  1  0  0  0  0
  5  6  1  0  0  0  0
  5 37  1  0  0  0  0
  5 38  1  0  0  0  0
  6  7  1  0  0  0  0
  6  8  1  0  0  0  0
  7 39  1  0  0  0  0
  8  9  1  0  0  0  0
  8 40  1  0  0  0  0
  8 41  1  0  0  0  0
  9 28  1  0  0  0  0
  9 10  1  0  0  0  0
 10 11  2  0  0  0  0
 10 42  1  0  0  0  0
 11 12  1  0  0  0  0
 12 28  2  0  0  0  0
 12 13  1  0  0  0  0
 13 14  1  0  0  0  0
 13 25  2  0  0  0  0
 14 23  1  0  0  0  0
 14 15  1  0  0  0  0
 15 16  1  0  0  0  0
 15 43  1  0  0  0  0
 15 44  1  0  0  0  0
 16 17  1  0  0  0  0
 16 45  1  0  0  0  0
 16 46  1  0  0  0  0
 17 29  1  0  0  0  0
 17 18  1  0  0  0  0
 17 23  1  0  0  0  0
 18 19  1  0  0  0  0
 18 20  1  0  0  0  0
 18 59  1  0  0  0  0
 19 47  1  0  0  0  0
 19 48  1  0  0  0  0
 19 49  1  0  0  0  0
 20 21  1  0  0  0  0
 20 50  1  0  0  0  0
 20 51  1  0  0  0  0
 21 22  1  0  0  0  0
 21 52  1  0  0  0  0
 21 53  1  0  0  0  0
 22 54  1  0  0  0  0
 23 30  1  0  0  0  0
 23 24  1  0  0  0  0
 24 55  1  0  0  0  0
 24 56  1  0  0  0  0
 24 57  1  0  0  0  0
 25 26  1  0  0  0  0
 26 27  2  0  0  0  0
 26 58  1  0  0  0  0
 27 28  1  0  0  0  0
M  CHG  1  18   1
M  END
> <s_m_source_file>
AV-unprocessed.smi

> <i_m_source_file_index>
290

> <i_lp_mmshare_version>
43012

> <i_f3d_flags>
0

> <s_epik_input>
W0NIMl0xW0NIMl1PW0NAQEhdKFtDSDNdKVtDQEBdMShbT0hdKVtDSDJdbihbY0hdbjIpYyhjMjMpbltjSF1uYzNONFtDSDJdW0NIMl1bQ0BIXShbQ0BIXTRbQ0gzXSlOKFtDSDNdKVtDSDJdW0NIMl1bT0hd

> <s_epik_cmdline>
J2VwaWtfcHl0aG9uJywgJy1waCcsICc3LjAnLCAnLXRuJywgJzgnLCAnLW1hJywgJzIwMCcsICctbWV0YWxfYmluZGluZycsICctaW1hZScsICc8aW5maWxlLm1hZT4nLCAnLW9tYWUnLCAnPG91dGZpbGUubWFlPic=

> <r_lp_tautomer_probability>
1

> <r_epik_Ionization_Penalty>
0.0036983

> <r_epik_Ionization_Penalty_Charging>
0.0032725

> <r_epik_Ionization_Penalty_Neutral>
0.000425798

> <r_epik_State_Penalty>
-0

> <r_epik_Charging_Adjusted_Penalty>
0.0032725

> <i_epik_Tot_Q>
1

> <i_epik_Tot_abs_Q>
1

> <r_epik_Metal_State_Penalty>
-0

> <b_epik_Metal_Only>
0

> <s_lp_Force_Field>
OPLS_2005

> <r_lp_Energy>
70.3682

> <b_lp_Chiralities_Consistent>
1

> <s_lp_Variant>
AV-unprocessed.smi:290-11

> <Gold.Version>
5.8.1

> <Gold.Id.Protein>
6NUR|6NUR_protein|mol2

> <Gold.PLP.Fitness>
46.2099

> <Gold.PLP.PLP>
-38.0187

> <Gold.PLP.part.hbond>
-5.3935

> <Gold.PLP.part.metal>
0.0000

> <Gold.PLP.part.buried>
-3.6034

> <Gold.PLP.part.nonpolar>
-29.5657

> <Gold.PLP.part.repulsive>
0.3169

> <Gold.PLP.ligand.clash>
0.0942

> <Gold.PLP.ligand.torsion>
1.8914

> <Gold.PLP.Chemscore.Hbond>
2.9500

> <Gold.PLP.Chemscore.CHOScore>
1.0000

> <Gold.PLP.Chemscore.Metal>
0.0000

> <Gold.Chemscore.Hbonds>
donor molecule, donor type, donor heavy atom, donor atom, acceptor molecule, acceptor atom, score
      L1  H    18    59       P1  8028  1.98
      P1  H  7989  7998       L1    25  0.90
      L1  C    26    58       P1  7957  0.96

> <Gold.PLP.Chemscore.Internal.Correction>
0.2182

> <Gold.Rescore>
     Score         DG    S(hbond)    S(metal)    S(lipo)     H(rot)  DE(clash)    DE(int)     intcor
      7.04     -13.64       1.83        0.00      97.79       3.67       3.31       3.29       ----

> <Gold.Chemscore.Fitness>
7.0432

> <Gold.Chemscore.DG>
-13.6404

> <Gold.Chemscore.ZeroCoef>
-5.4800

> <Gold.Chemscore.Hbond>
1.8274

> <Gold.Chemscore.Metal>
0.0000

> <Gold.Chemscore.Lipo>
97.7903

> <Gold.Chemscore.Internal_Hbond>
0.0000

> <Gold.Chemscore.DEClash>
3.3081

> <Gold.Chemscore.DEInternal>
3.2892

> <Gold.Chemscore.Rot>
3.6658

> <Gold.Chemscore.Internal.Correction>
   9.000000E+99

> <Gold.Chemscore.Hbonds>
donor molecule, donor type, donor heavy atom, donor atom, acceptor molecule, acceptor atom, score
      L1  H    18    59       P1  8028  0.76
      P1  H  7989  7998       L1    25  0.18

> <Gold.Chemscore.Hbond.Weighted>
-6.1034

> <Gold.Chemscore.Metal.Weighted>
-0.0000

> <Gold.Chemscore.Lipo.Weighted>
-11.4415

> <Gold.Chemscore.Internal_Hbond.Weighted>
0.0000

> <Gold.Chemscore.DEClash.Weighted>
3.3081

> <Gold.Chemscore.DEInternal.Weighted>
3.2892

> <Gold.Chemscore.Rot.Weighted>
9.3844

> <Gold.Chemscore.Internal.Correction.Weighted>
   9.000000E+99

> <Gold.Protein.RotatedTorsions>
[ 6907 6896 6895 6894 ] final  -46.60 input  -60.11 | X-H torsion
[ 7974 7965 7964 7962 ] final  -77.54 input  175.53 | X-H torsion
[ 8008 7997 7996 7995 ] final   -4.28 input   59.86 | X-H torsion
[ 10167 10162 10161 10158 ] final   24.14 input  -65.29 | X-H torsion
[ 10718 10713 10712 10709 ] final  -41.13 input   66.30 | X-H torsion
[ 10763 10752 10751 10750 ] final   36.31 input  -60.55 | X-H torsion
[ 11005 11000 10999 10996 ] final -168.41 input  -57.11 | X-H torsion

> <Gold.Protein.ActiveResidues>
 VAL166  LYS551  ARG553  GLY616  TRP617  ASP618  TYR619  PRO620  LYS621  CYS622 
 ASP623  PHE694  ASN695  SER759  ASP760  ASP761  ALA762  ILE779  LEU786  VAL792 
 PHE793  MET794  SER795  GLU796  ALA797  LYS798  CYS799  TRP800  GLU811  SER814 

> <Gold.Protein.RotatedAtoms>
  150.9095  134.8512  159.7415 H   0  0  0  0  0  0  0  0  0  0  0  0  # atno 6907 bound_to 6896
  152.4937  134.4380  159.9544 H   0  0  0  0  0  0  0  0  0  0  0  0  # atno 6908 bound_to 6896
  151.4424  133.3600  159.2819 H   0  0  0  0  0  0  0  0  0  0  0  0  # atno 6909 bound_to 6896
  145.5983  140.9414  143.1255 H   0  0  0  0  0  0  0  0  0  0  0  0  # atno 7974 bound_to 7965
  154.6160  140.2488  155.7609 H   0  0  0  0  0  0  0  0  0  0  0  0  # atno 8008 bound_to 7997
  156.2399  140.2936  156.0364 H   0  0  0  0  0  0  0  0  0  0  0  0  # atno 8009 bound_to 7997
  155.1974  140.0393  157.2902 H   0  0  0  0  0  0  0  0  0  0  0  0  # atno 8010 bound_to 7997
  140.5212  143.9999  150.6418 H   0  0  0  0  0  0  0  0  0  0  0  0  # atno 10167 bound_to 10162
  156.2737  130.4209  149.8410 H   0  0  0  0  0  0  0  0  0  0  0  0  # atno 10718 bound_to 10713
  153.0082  135.6309  154.1965 H   0  0  0  0  0  0  0  0  0  0  0  0  # atno 10763 bound_to 10752
  154.1708  135.2818  155.3083 H   0  0  0  0  0  0  0  0  0  0  0  0  # atno 10764 bound_to 10752
  154.5910  135.5617  153.7338 H   0  0  0  0  0  0  0  0  0  0  0  0  # atno 10765 bound_to 10752
  140.5423  134.5510  157.5102 H   0  0  0  0  0  0  0  0  0  0  0  0  # atno 11005 bound_to 11000
  144.7321  139.7694  143.7343 LP  0  0  0  0  0  0  0  0  0  0  0  0  # atno 17320 bound_to 7965
  146.1595  139.4705  142.9997 LP  0  0  0  0  0  0  0  0  0  0  0  0  # atno 17321 bound_to 7965
  140.3348  143.3055  152.0649 LP  0  0  0  0  0  0  0  0  0  0  0  0  # atno 17342 bound_to 10162
  139.4924  144.6484  151.6729 LP  0  0  0  0  0  0  0  0  0  0  0  0  # atno 17343 bound_to 10162
  156.5883  130.8495  151.3401 LP  0  0  0  0  0  0  0  0  0  0  0  0  # atno 17370 bound_to 10713
  157.7292  130.9668  150.1777 LP  0  0  0  0  0  0  0  0  0  0  0  0  # atno 17371 bound_to 10713
  139.9497  134.7638  156.0476 LP  0  0  0  0  0  0  0  0  0  0  0  0  # atno 17394 bound_to 11000
  141.1220  133.6610  156.3239 LP  0  0  0  0  0  0  0  0  0  0  0  0  # atno 17395 bound_to 11000

$$$$
