AV-unprocessed.smi:2845|AV-procd|sdf|10947|dock9
  -GOLD-   2272015393D 1   1.00000     0.00000
 Structure written by MMmdl.
 43 45  0  0  0  0  0  0  0  0  2 V2000
  152.0839  144.4918  160.8000 C   0  0  0  0  0  0  0  0  0  0  0  0
  151.8191  143.2901  159.9090 C   0  0  0  0  0  0  0  0  0  0  0  0
  151.0173  143.4673  158.7586 C   0  0  0  0  0  0  0  0  0  0  0  0
  150.7943  142.3501  157.9627 C   0  0  0  0  0  0  0  0  0  0  0  0
  150.0634  142.1973  156.7821 N   0  3  0  0  0  0  0  0  0  0  0  0
  150.1374  140.9025  156.3665 C   0  0  0  0  0  0  0  0  0  0  0  0
  150.9041  140.2272  157.2648 N   0  0  0  0  0  0  0  0  0  0  0  0
  151.3042  138.8147  157.2882 C   0  0  0  0  0  0  0  0  0  0  0  0
  150.6744  138.0374  158.4637 C   0  0  2  0  0  0  0  0  0  0  0  0
  151.3542  136.8073  158.6294 O   0  0  0  0  0  0  0  0  0  0  0  0
  149.1603  137.7849  158.2966 C   0  0  0  0  0  0  0  0  0  0  0  0
  148.6172  136.8215  159.2397 N   0  0  0  0  0  0  0  0  0  0  0  0
  148.4453  135.5007  159.1281 C   0  0  0  0  0  0  0  0  0  0  0  0
  147.9138  134.9329  160.2023 N   0  0  0  0  0  0  0  0  0  0  0  0
  147.7733  136.0442  160.9824 C   0  0  0  0  0  0  0  0  0  0  0  0
  147.0675  135.9547  162.6578 S   0  0  1  0  0  0  0  0  0  0  0  0
  145.6315  137.0763  162.3118 C   0  0  0  0  0  0  0  0  0  0  0  0
  146.5054  134.5391  162.8041 O   0  0  0  0  0  0  0  0  0  0  0  0
  148.1709  137.2024  160.4606 N   0  0  0  0  0  0  0  0  0  0  0  0
  151.3365  141.0890  158.2775 C   0  0  0  0  0  0  0  0  0  0  0  0
  152.1283  140.8961  159.4067 C   0  0  0  0  0  0  0  0  0  0  0  0
  152.3673  142.0207  160.2289 C   0  0  0  0  0  0  0  0  0  0  0  0
  153.2273  141.8419  161.4686 C   0  0  0  0  0  0  0  0  0  0  0  0
  151.5887  145.3865  160.4212 H   0  0  0  0  0  0  0  0  0  0  0  0
  153.1525  144.7007  160.8543 H   0  0  0  0  0  0  0  0  0  0  0  0
  151.7145  144.3096  161.8095 H   0  0  0  0  0  0  0  0  0  0  0  0
  150.5966  144.4305  158.5093 H   0  0  0  0  0  0  0  0  0  0  0  0
  149.6764  140.4866  155.4820 H   0  0  0  0  0  0  0  0  0  0  0  0
  151.0384  138.3627  156.3320 H   0  0  0  0  0  0  0  0  0  0  0  0
  152.3930  138.7917  157.3496 H   0  0  0  0  0  0  0  0  0  0  0  0
  150.8193  138.6056  159.3830 H   0  0  0  0  0  0  0  0  0  0  0  0
  151.8024  136.5997  157.8235 H   0  0  0  0  0  0  0  0  0  0  0  0
  148.6056  138.7196  158.3927 H   0  0  0  0  0  0  0  0  0  0  0  0
  148.9621  137.4152  157.2897 H   0  0  0  0  0  0  0  0  0  0  0  0
  148.7189  134.9430  158.2444 H   0  0  0  0  0  0  0  0  0  0  0  0
  145.8768  137.7995  161.5336 H   0  0  0  0  0  0  0  0  0  0  0  0
  145.3597  137.6234  163.2142 H   0  0  0  0  0  0  0  0  0  0  0  0
  144.7689  136.4952  161.9861 H   0  0  0  0  0  0  0  0  0  0  0  0
  152.5455  139.9299  159.6485 H   0  0  0  0  0  0  0  0  0  0  0  0
  153.5682  140.8114  161.5732 H   0  0  0  0  0  0  0  0  0  0  0  0
  152.6638  142.0986  162.3659 H   0  0  0  0  0  0  0  0  0  0  0  0
  154.1094  142.4807  161.4184 H   0  0  0  0  0  0  0  0  0  0  0  0
  149.5526  142.9211  156.2927 H   0  0  0  0  0  0  0  0  0  0  0  0
  1  2  1  0  0  0  0
  1 24  1  0  0  0  0
  1 25  1  0  0  0  0
  1 26  1  0  0  0  0
  2 22  1  0  0  0  0
  2  3  2  0  0  0  0
  3  4  1  0  0  0  0
  3 27  1  0  0  0  0
  4 20  2  0  0  0  0
  4  5  1  0  0  0  0
  5  6  2  0  0  0  0
  5 43  1  0  0  0  0
  6  7  1  0  0  0  0
  6 28  1  0  0  0  0
  7  8  1  0  0  0  0
  7 20  1  0  0  0  0
  8  9  1  0  0  0  0
  8 29  1  0  0  0  0
  8 30  1  0  0  0  0
  9 10  1  0  0  0  0
  9 11  1  0  0  0  0
  9 31  1  0  0  0  0
 10 32  1  0  0  0  0
 11 12  1  0  0  0  0
 11 33  1  0  0  0  0
 11 34  1  0  0  0  0
 12 19  1  0  0  0  0
 12 13  1  0  0  0  0
 13 14  2  0  0  0  0
 13 35  1  0  0  0  0
 14 15  1  0  0  0  0
 15 16  1  0  0  0  0
 15 19  2  0  0  0  0
 16 17  1  0  0  0  0
 16 18  2  0  0  0  0
 17 36  1  0  0  0  0
 17 37  1  0  0  0  0
 17 38  1  0  0  0  0
 20 21  1  0  0  0  0
 21 22  2  0  0  0  0
 21 39  1  0  0  0  0
 22 23  1  0  0  0  0
 23 40  1  0  0  0  0
 23 41  1  0  0  0  0
 23 42  1  0  0  0  0
M  CHG  1   5   1
M  END
> <s_m_source_file>
AV-unprocessed.smi

> <i_m_source_file_index>
2845

> <i_lp_mmshare_version>
43012

> <i_f3d_flags>
0

> <s_epik_input>
W0NIM11jKFtjSF0xKWMoW0NIM10pW2NIXWMoYzEyKW4oW2NIXW4yKVtDSDJdW0NASF0oW09IXSlbQ0gyXW4zW2NIXW5jKG4zKVtTQF0oPU8pW0NIM10=

> <s_epik_cmdline>
J2VwaWtfcHl0aG9uJywgJy1waCcsICc3LjAnLCAnLXRuJywgJzgnLCAnLW1hJywgJzIwMCcsICctbWV0YWxfYmluZGluZycsICctaW1hZScsICc8aW5maWxlLm1hZT4nLCAnLW9tYWUnLCAnPG91dGZpbGUubWFlPic=

> <r_lp_tautomer_probability>
1

> <r_epik_Ionization_Penalty>
1.12076

> <r_epik_Ionization_Penalty_Charging>
1.12075

> <r_epik_Ionization_Penalty_Neutral>
1.54566e-06

> <r_epik_State_Penalty>
1.17957

> <r_epik_Charging_Adjusted_Penalty>
2.30033

> <i_epik_Tot_Q>
1

> <i_epik_Tot_abs_Q>
1

> <r_epik_Metal_State_Penalty>
1.26402

> <b_epik_Metal_Only>
0

> <s_lp_Force_Field>
OPLS_2005

> <r_lp_Energy>
15.2254

> <b_lp_Chiralities_Consistent>
1

> <s_lp_Variant>
AV-unprocessed.smi:2845-5

> <Gold.Version>
5.8.1

> <Gold.Id.Protein>
6NUR|6NUR_protein|mol2

> <Gold.PLP.Fitness>
57.4302

> <Gold.PLP.PLP>
-46.8932

> <Gold.PLP.part.hbond>
-4.5984

> <Gold.PLP.part.metal>
0.0000

> <Gold.PLP.part.buried>
-8.1537

> <Gold.PLP.part.nonpolar>
-35.5303

> <Gold.PLP.part.repulsive>
0.0328

> <Gold.PLP.ligand.clash>
0.0000

> <Gold.PLP.ligand.torsion>
1.1937

> <Gold.PLP.Chemscore.Hbond>
3.9713

> <Gold.PLP.Chemscore.CHOScore>
0.0000

> <Gold.PLP.Chemscore.Metal>
0.0000

> <Gold.Chemscore.Hbonds>
donor molecule, donor type, donor heavy atom, donor atom, acceptor molecule, acceptor atom, score
      L1  H     5    43       P1  8028  2.00
      P1  H  6896  6907       L1    10  0.72
      P1  H  6931  6943       L1    19  0.74
      P1  H  6934  6947       L1    19  0.54

> <Gold.PLP.Chemscore.Internal.Correction>
1.0105

> <Gold.Rescore>
     Score         DG    S(hbond)    S(metal)    S(lipo)     H(rot)  DE(clash)    DE(int)     intcor
     16.82     -18.00       2.78        0.00      88.29       2.77       0.00       1.18       ----

> <Gold.Chemscore.Fitness>
16.8167

> <Gold.Chemscore.DG>
-18.0001

> <Gold.Chemscore.ZeroCoef>
-5.4800

> <Gold.Chemscore.Hbond>
2.7774

> <Gold.Chemscore.Metal>
0.0000

> <Gold.Chemscore.Lipo>
88.2905

> <Gold.Chemscore.Internal_Hbond>
0.0000

> <Gold.Chemscore.DEClash>
0.0000

> <Gold.Chemscore.DEInternal>
1.1834

> <Gold.Chemscore.Rot>
2.7681

> <Gold.Chemscore.Internal.Correction>
   9.000000E+99

> <Gold.Chemscore.Hbonds>
donor molecule, donor type, donor heavy atom, donor atom, acceptor molecule, acceptor atom, score
      L1  H     5    43       P1  8028  0.94
      P1  H  6896  6907       L1    10  0.51
      P1  H  6931  6943       L1    19  0.51
      P1  H  6934  6947       L1    19  0.53

> <Gold.Chemscore.Hbond.Weighted>
-9.2764

> <Gold.Chemscore.Metal.Weighted>
-0.0000

> <Gold.Chemscore.Lipo.Weighted>
-10.3300

> <Gold.Chemscore.Internal_Hbond.Weighted>
0.0000

> <Gold.Chemscore.DEClash.Weighted>
0.0000

> <Gold.Chemscore.DEInternal.Weighted>
1.1834

> <Gold.Chemscore.Rot.Weighted>
7.0863

> <Gold.Chemscore.Internal.Correction.Weighted>
   9.000000E+99

> <Gold.Protein.RotatedTorsions>
[ 6907 6896 6895 6894 ] final  -20.25 input  -60.11 | X-H torsion
[ 7974 7965 7964 7962 ] final -113.61 input  175.53 | X-H torsion
[ 8008 7997 7996 7995 ] final   70.93 input   59.86 | X-H torsion
[ 10167 10162 10161 10158 ] final  103.88 input  -65.29 | X-H torsion
[ 10718 10713 10712 10709 ] final  -52.15 input   66.30 | X-H torsion
[ 10763 10752 10751 10750 ] final -177.12 input  -60.55 | X-H torsion
[ 11005 11000 10999 10996 ] final    6.96 input  -57.11 | X-H torsion

> <Gold.Protein.ActiveResidues>
 VAL166  LYS551  ARG553  GLY616  TRP617  ASP618  TYR619  PRO620  LYS621  CYS622 
 ASP623  PHE694  ASN695  SER759  ASP760  ASP761  ALA762  ILE779  LEU786  VAL792 
 PHE793  MET794  SER795  GLU796  ALA797  LYS798  CYS799  TRP800  GLU811  SER814 

> <Gold.Protein.RotatedAtoms>
  151.2510  135.0622  159.9061 H   0  0  0  0  0  0  0  0  0  0  0  0  # atno 6907 bound_to 6896
  152.5380  134.0333  159.8044 H   0  0  0  0  0  0  0  0  0  0  0  0  # atno 6908 bound_to 6896
  151.0541  133.5550  159.2671 H   0  0  0  0  0  0  0  0  0  0  0  0  # atno 6909 bound_to 6896
  145.1299  140.8718  143.3764 H   0  0  0  0  0  0  0  0  0  0  0  0  # atno 7974 bound_to 7965
  155.7462  140.3489  155.5128 H   0  0  0  0  0  0  0  0  0  0  0  0  # atno 8008 bound_to 7997
  155.9048  140.1040  157.1345 H   0  0  0  0  0  0  0  0  0  0  0  0  # atno 8009 bound_to 7997
  154.4048  140.1279  156.4468 H   0  0  0  0  0  0  0  0  0  0  0  0  # atno 8010 bound_to 7997
  139.7225  144.7055  151.0850 H   0  0  0  0  0  0  0  0  0  0  0  0  # atno 10167 bound_to 10162
  156.1647  130.4149  149.9739 H   0  0  0  0  0  0  0  0  0  0  0  0  # atno 10718 bound_to 10713
  154.5640  135.2822  155.0891 H   0  0  0  0  0  0  0  0  0  0  0  0  # atno 10763 bound_to 10752
  154.2289  135.6377  153.5172 H   0  0  0  0  0  0  0  0  0  0  0  0  # atno 10764 bound_to 10752
  153.0037  135.5532  154.6243 H   0  0  0  0  0  0  0  0  0  0  0  0  # atno 10765 bound_to 10752
  140.5536  134.0259  155.7946 H   0  0  0  0  0  0  0  0  0  0  0  0  # atno 11005 bound_to 11000
  145.0646  139.3078  143.5863 LP  0  0  0  0  0  0  0  0  0  0  0  0  # atno 17320 bound_to 7965
  146.3514  140.0100  142.8668 LP  0  0  0  0  0  0  0  0  0  0  0  0  # atno 17321 bound_to 7965
  140.7756  143.5148  150.9608 LP  0  0  0  0  0  0  0  0  0  0  0  0  # atno 17342 bound_to 10162
  139.8835  143.7042  152.3154 LP  0  0  0  0  0  0  0  0  0  0  0  0  # atno 17343 bound_to 10162
  156.7558  130.9132  151.3639 LP  0  0  0  0  0  0  0  0  0  0  0  0  # atno 17370 bound_to 10713
  157.6759  130.9093  150.0148 LP  0  0  0  0  0  0  0  0  0  0  0  0  # atno 17371 bound_to 10713
  141.1157  133.9544  157.2827 LP  0  0  0  0  0  0  0  0  0  0  0  0  # atno 17394 bound_to 11000
  139.9443  135.0186  156.8803 LP  0  0  0  0  0  0  0  0  0  0  0  0  # atno 17395 bound_to 11000

$$$$
