AV-unprocessed.smi:160|AV-procd|sdf|1365|dock4
  -GOLD-   2262019 73D 1   1.00000     0.00000
 Structure written by MMmdl.
 28 29  0  0  0  0  0  0  0  0  2 V2000
  151.8012  137.1309  154.3824 N   0  5  0  0  0  0  0  0  0  0  0  0
  152.0875  138.3895  154.7808 C   0  0  0  0  0  0  0  0  0  0  0  0
  153.1995  138.8226  155.0807 O   0  0  0  0  0  0  0  0  0  0  0  0
  150.8945  139.3133  154.8439 C   0  0  0  0  0  0  0  0  0  0  0  0
  151.0630  140.6590  155.0187 N   0  0  0  0  0  0  0  0  0  0  0  0
  149.7912  141.0345  155.0095 C   0  0  0  0  0  0  0  0  0  0  0  0
  148.9223  140.0354  154.8294 N   0  0  0  0  0  0  0  0  0  0  0  0
  147.4209  140.0787  154.8080 C   0  0  2  0  0  0  0  0  0  0  0  0
  146.9534  138.7870  154.5865 O   0  0  0  0  0  0  0  0  0  0  0  0
  146.8630  138.5519  153.1876 C   0  0  1  0  0  0  0  0  0  0  0  0
  145.8784  137.4045  152.9156 C   0  0  0  0  0  0  0  0  0  0  0  0
  146.1932  136.7701  151.6943 O   0  0  0  0  0  0  0  0  0  0  0  0
  146.3864  139.9072  152.6374 C   0  0  2  0  0  0  0  0  0  0  0  0
  146.9716  140.1449  151.3729 O   0  0  0  0  0  0  0  0  0  0  0  0
  146.8725  140.9425  153.6578 C   0  0  1  0  0  0  0  0  0  0  0  0
  145.7992  141.7512  154.0969 O   0  0  0  0  0  0  0  0  0  0  0  0
  149.6336  138.8831  154.7374 N   0  0  0  0  0  0  0  0  0  0  0  0
  147.1532  140.4372  155.8029 H   0  0  0  0  0  0  0  0  0  0  0  0
  147.8526  138.3089  152.7959 H   0  0  0  0  0  0  0  0  0  0  0  0
  145.2985  139.9265  152.5505 H   0  0  0  0  0  0  0  0  0  0  0  0
  147.6462  141.6040  153.2654 H   0  0  0  0  0  0  0  0  0  0  0  0
  150.8262  136.8120  154.4334 H   0  0  0  0  0  0  0  0  0  0  0  0
  149.4854  142.0620  155.1398 H   0  0  0  0  0  0  0  0  0  0  0  0
  145.8762  136.6811  153.7317 H   0  0  0  0  0  0  0  0  0  0  0  0
  144.8649  137.7966  152.8267 H   0  0  0  0  0  0  0  0  0  0  0  0
  147.0179  136.3200  151.7924 H   0  0  0  0  0  0  0  0  0  0  0  0
  147.9114  140.1341  151.4702 H   0  0  0  0  0  0  0  0  0  0  0  0
  144.9972  141.4030  153.7379 H   0  0  0  0  0  0  0  0  0  0  0  0
  1  2  1  0  0  0  0
  1 22  1  0  0  0  0
  2  3  2  0  0  0  0
  2  4  1  0  0  0  0
  4 17  2  0  0  0  0
  4  5  1  0  0  0  0
  5  6  2  0  0  0  0
  6  7  1  0  0  0  0
  6 23  1  0  0  0  0
  7  8  1  0  0  0  0
  7 17  1  0  0  0  0
  8 18  1  0  0  0  0
  8 15  1  0  0  0  0
  8  9  1  0  0  0  0
  9 10  1  0  0  0  0
 10 19  1  0  0  0  0
 10 11  1  0  0  0  0
 10 13  1  0  0  0  0
 11 12  1  0  0  0  0
 11 24  1  0  0  0  0
 11 25  1  0  0  0  0
 12 26  1  0  0  0  0
 13 20  1  0  0  0  0
 13 14  1  0  0  0  0
 13 15  1  0  0  0  0
 14 27  1  0  0  0  0
 15 21  1  0  0  0  0
 15 16  1  0  0  0  0
 16 28  1  0  0  0  0
M  CHG  1   1  -1
M  END
> <s_m_source_file>
AV-unprocessed.smi

> <i_m_source_file_index>
160

> <i_lp_mmshare_version>
43012

> <i_f3d_flags>
0

> <s_epik_input>
W05IMl1DKD1PKWMxbltjSF1uKG4xKVtDQEBIXTJPW0NASF0oW0NIMl1bT0hdKVtDQEBIXShbT0hdKVtDQEhdMltPSF0=

> <s_epik_cmdline>
J2VwaWtfcHl0aG9uJywgJy1waCcsICc3LjAnLCAnLXRuJywgJzgnLCAnLW1hJywgJzIwMCcsICctbWV0YWxfYmluZGluZycsICctaW1hZScsICc8aW5maWxlLm1hZT4nLCAnLW9tYWUnLCAnPG91dGZpbGUubWFlPic=

> <r_lp_tautomer_probability>
1

> <r_epik_Ionization_Penalty>
6.6993

> <r_epik_Ionization_Penalty_Charging>
6.6993

> <r_epik_Ionization_Penalty_Neutral>
6.01698e-06

> <r_epik_State_Penalty>
6.69929

> <r_epik_Charging_Adjusted_Penalty>
13.3986

> <i_epik_Tot_Q>
-1

> <i_epik_Tot_abs_Q>
1

> <r_epik_Metal_State_Penalty>
2.62798

> <b_epik_Metal_Only>
1

> <s_epik_Chemistry_Notes>
This compound contains an acetal/aminal-like group ( X-CH(R)-Y where X, Y are N, S, or O) that may be acid/base labile, releasing an aldehyde.

> <s_lp_Force_Field>
OPLS_2005

> <r_lp_Energy>
36.7288

> <b_lp_Chiralities_Consistent>
1

> <s_lp_Variant>
AV-unprocessed.smi:160-23

> <Gold.Version>
5.8.1

> <Gold.Id.Protein>
6NUR|6NUR_protein|mol2

> <Gold.PLP.Fitness>
43.8860

> <Gold.PLP.PLP>
-23.5887

> <Gold.PLP.part.hbond>
-6.5902

> <Gold.PLP.part.metal>
0.0000

> <Gold.PLP.part.buried>
0.7346

> <Gold.PLP.part.nonpolar>
-18.1659

> <Gold.PLP.part.repulsive>
0.3086

> <Gold.PLP.ligand.clash>
0.0000

> <Gold.PLP.ligand.torsion>
0.4116

> <Gold.PLP.Chemscore.Hbond>
6.6873

> <Gold.PLP.Chemscore.CHOScore>
0.3412

> <Gold.PLP.Chemscore.Metal>
0.0000

> <Gold.Chemscore.Hbonds>
donor molecule, donor type, donor heavy atom, donor atom, acceptor molecule, acceptor atom, score
      L1  H    12    26       P1  7948  1.00
      L1  H    14    27       P1  7957  1.00
      L1  H    16    28       P1 10175  1.00
      P1  H  7989  7998       L1     5  0.64
      P1  H  7997  8010       L1     3  1.00
      P1  H 10752 10765       L1     1  2.00
      L1  C     6    23       P1  8028  0.41

> <Gold.PLP.Chemscore.Internal.Correction>
0.0352

> <Gold.Rescore>
     Score         DG    S(hbond)    S(metal)    S(lipo)     H(rot)  DE(clash)    DE(int)     intcor
     11.99     -14.29       4.87        0.00      24.61       4.04       1.54       0.75       ----

> <Gold.Chemscore.Fitness>
11.9907

> <Gold.Chemscore.DG>
-14.2871

> <Gold.Chemscore.ZeroCoef>
-5.4800

> <Gold.Chemscore.Hbond>
4.8715

> <Gold.Chemscore.Metal>
0.0000

> <Gold.Chemscore.Lipo>
24.6104

> <Gold.Chemscore.Internal_Hbond>
0.0000

> <Gold.Chemscore.DEClash>
1.5440

> <Gold.Chemscore.DEInternal>
0.7524

> <Gold.Chemscore.Rot>
4.0403

> <Gold.Chemscore.Internal.Correction>
   9.000000E+99

> <Gold.Chemscore.Hbonds>
donor molecule, donor type, donor heavy atom, donor atom, acceptor molecule, acceptor atom, score
      L1  H    12    26       P1  7948  0.97
      L1  H    14    27       P1  7957  1.00
      L1  H    16    28       P1 10175  0.24
      P1  H  7989  7998       L1     5  0.04
      P1  H  7997  8010       L1     3  0.93
      P1  H 10752 10765       L1     1  0.73

> <Gold.Chemscore.Hbond.Weighted>
-16.2708

> <Gold.Chemscore.Metal.Weighted>
-0.0000

> <Gold.Chemscore.Lipo.Weighted>
-2.8794

> <Gold.Chemscore.Internal_Hbond.Weighted>
0.0000

> <Gold.Chemscore.DEClash.Weighted>
1.5440

> <Gold.Chemscore.DEInternal.Weighted>
0.7524

> <Gold.Chemscore.Rot.Weighted>
10.3431

> <Gold.Chemscore.Internal.Correction.Weighted>
   9.000000E+99

> <Gold.Protein.RotatedTorsions>
[ 6907 6896 6895 6894 ] final -139.35 input  -60.11 | X-H torsion
[ 7974 7965 7964 7962 ] final   -8.12 input  175.53 | X-H torsion
[ 8008 7997 7996 7995 ] final  106.91 input   59.86 | X-H torsion
[ 10167 10162 10161 10158 ] final  -75.74 input  -65.29 | X-H torsion
[ 10718 10713 10712 10709 ] final    8.11 input   66.30 | X-H torsion
[ 10763 10752 10751 10750 ] final  165.77 input  -60.55 | X-H torsion
[ 11005 11000 10999 10996 ] final  -97.41 input  -57.11 | X-H torsion

> <Gold.Protein.ActiveResidues>
 VAL166  LYS551  ARG553  GLY616  TRP617  ASP618  TYR619  PRO620  LYS621  CYS622 
 ASP623  PHE694  ASN695  SER759  ASP760  ASP761  ALA762  ILE779  LEU786  VAL792 
 PHE793  MET794  SER795  GLU796  ALA797  LYS798  CYS799  TRP800  GLU811  SER814 

> <Gold.Protein.RotatedAtoms>
  151.0466  133.5660  159.2645 H   0  0  0  0  0  0  0  0  0  0  0  0  # atno 6907 bound_to 6896
  151.2686  135.0676  159.9135 H   0  0  0  0  0  0  0  0  0  0  0  0  # atno 6908 bound_to 6896
  152.5374  134.0200  159.8031 H   0  0  0  0  0  0  0  0  0  0  0  0  # atno 6909 bound_to 6896
  146.2289  140.2421  142.8344 H   0  0  0  0  0  0  0  0  0  0  0  0  # atno 7974 bound_to 7965
  156.1781  140.3104  155.9098 H   0  0  0  0  0  0  0  0  0  0  0  0  # atno 8008 bound_to 7997
  155.3443  140.0467  157.3062 H   0  0  0  0  0  0  0  0  0  0  0  0  # atno 8009 bound_to 7997
  154.5313  140.2231  155.8810 H   0  0  0  0  0  0  0  0  0  0  0  0  # atno 8010 bound_to 7997
  140.4917  143.2379  151.7896 H   0  0  0  0  0  0  0  0  0  0  0  0  # atno 10167 bound_to 10162
  156.9467  130.5882  149.5655 H   0  0  0  0  0  0  0  0  0  0  0  0  # atno 10718 bound_to 10713
  154.3289  135.2755  155.2482 H   0  0  0  0  0  0  0  0  0  0  0  0  # atno 10763 bound_to 10752
  154.4802  135.5860  153.6387 H   0  0  0  0  0  0  0  0  0  0  0  0  # atno 10764 bound_to 10752
  152.9868  135.6109  154.3480 H   0  0  0  0  0  0  0  0  0  0  0  0  # atno 10765 bound_to 10752
  141.1380  133.8168  157.0702 H   0  0  0  0  0  0  0  0  0  0  0  0  # atno 11005 bound_to 11000
  144.9476  140.8144  143.5592 LP  0  0  0  0  0  0  0  0  0  0  0  0  # atno 17320 bound_to 7965
  145.2379  139.2085  143.5008 LP  0  0  0  0  0  0  0  0  0  0  0  0  # atno 17321 bound_to 7965
  139.4852  144.4640  151.9506 LP  0  0  0  0  0  0  0  0  0  0  0  0  # atno 17342 bound_to 10162
  140.3727  144.2835  150.5918 LP  0  0  0  0  0  0  0  0  0  0  0  0  # atno 17343 bound_to 10162
  156.0380  130.5466  150.8702 LP  0  0  0  0  0  0  0  0  0  0  0  0  # atno 17370 bound_to 10713
  157.5749  131.0946  150.9361 LP  0  0  0  0  0  0  0  0  0  0  0  0  # atno 17371 bound_to 10713
  140.0516  134.9802  157.1147 LP  0  0  0  0  0  0  0  0  0  0  0  0  # atno 17394 bound_to 11000
  140.3981  134.2112  155.7164 LP  0  0  0  0  0  0  0  0  0  0  0  0  # atno 17395 bound_to 11000

$$$$
