AV-unprocessed.smi:1723|AV-procd|sdf|6946|dock3
  -GOLD-   22720 8153D 1   1.00000     0.00000
 Structure written by MMmdl.
 38 38  0  0  0  0  0  0  0  0  1 V2000
  146.5219  142.0534  153.9752 C   0  0  0  0  0  0  0  0  0  0  0  0
  148.0181  141.7285  153.9081 C   0  0  0  0  0  0  0  0  0  0  0  0
  148.5767  141.2442  155.2536 C   0  0  0  0  0  0  0  0  0  0  0  0
  150.0544  141.6052  155.4427 C   0  0  0  0  0  0  0  0  0  0  0  0
  150.8498  140.5512  154.9122 O   0  0  0  0  0  0  0  0  0  0  0  0
  150.8792  139.3549  155.6868 C   0  0  1  0  0  0  0  0  0  0  0  0
  151.2929  138.2094  154.7514 C   0  0  0  0  0  0  0  0  0  0  0  0
  151.8650  139.5036  156.8569 C   0  0  0  0  0  0  0  0  0  0  0  0
  152.8662  138.7887  156.9002 O   0  0  0  0  0  0  0  0  0  0  0  0
  151.5408  140.4369  157.7734 N   0  0  0  0  0  0  0  0  0  0  0  0
  152.2637  140.8560  158.9020 C   0  0  0  0  0  0  0  0  0  0  0  0
  153.1721  140.0922  159.5631 C   0  0  0  0  0  0  0  0  0  0  0  0
  153.9035  140.5885  160.7165 C   0  0  0  0  0  0  0  0  0  0  0  0
  154.9601  139.7429  161.4104 C   0  0  0  0  0  0  0  0  0  0  0  0
  156.1488  139.8695  160.8192 F   0  0  0  0  0  0  0  0  0  0  0  0
  155.0849  140.1264  162.6800 F   0  0  0  0  0  0  0  0  0  0  0  0
  154.6223  138.4532  161.3984 F   0  0  0  0  0  0  0  0  0  0  0  0
  153.6562  141.8603  161.0819 C   0  0  0  0  0  0  0  0  0  0  0  0
  152.7234  142.6519  160.4076 N   0  0  0  0  0  0  0  0  0  0  0  0
  152.0104  142.2397  159.3354 C   0  0  0  0  0  0  0  0  0  0  0  0
  151.2133  143.0013  158.7888 O   0  0  0  0  0  0  0  0  0  0  0  0
  152.5869  143.5925  160.7491 H   0  0  0  0  0  0  0  0  0  0  0  0
  146.1543  142.3954  153.0074 H   0  0  0  0  0  0  0  0  0  0  0  0
  146.3219  142.8396  154.7038 H   0  0  0  0  0  0  0  0  0  0  0  0
  145.9412  141.1757  154.2602 H   0  0  0  0  0  0  0  0  0  0  0  0
  148.1848  140.9655  153.1469 H   0  0  0  0  0  0  0  0  0  0  0  0
  148.5641  142.6144  153.5821 H   0  0  0  0  0  0  0  0  0  0  0  0
  147.9922  141.6740  156.0679 H   0  0  0  0  0  0  0  0  0  0  0  0
  148.4604  140.1621  155.3274 H   0  0  0  0  0  0  0  0  0  0  0  0
  150.2652  142.5493  154.9391 H   0  0  0  0  0  0  0  0  0  0  0  0
  150.2754  141.7394  156.5027 H   0  0  0  0  0  0  0  0  0  0  0  0
  149.8774  139.1436  156.0663 H   0  0  0  0  0  0  0  0  0  0  0  0
  151.3495  137.2611  155.2870 H   0  0  0  0  0  0  0  0  0  0  0  0
  152.2653  138.3950  154.2935 H   0  0  0  0  0  0  0  0  0  0  0  0
  150.5686  138.0889  153.9455 H   0  0  0  0  0  0  0  0  0  0  0  0
  150.6417  140.8826  157.6593 H   0  0  0  0  0  0  0  0  0  0  0  0
  153.3931  139.0892  159.2362 H   0  0  0  0  0  0  0  0  0  0  0  0
  154.1483  142.3652  161.9001 H   0  0  0  0  0  0  0  0  0  0  0  0
  1  2  1  0  0  0  0
  1 23  1  0  0  0  0
  1 24  1  0  0  0  0
  1 25  1  0  0  0  0
  2  3  1  0  0  0  0
  2 26  1  0  0  0  0
  2 27  1  0  0  0  0
  3  4  1  0  0  0  0
  3 28  1  0  0  0  0
  3 29  1  0  0  0  0
  4  5  1  0  0  0  0
  4 30  1  0  0  0  0
  4 31  1  0  0  0  0
  5  6  1  0  0  0  0
  6  7  1  0  0  0  0
  6  8  1  0  0  0  0
  6 32  1  0  0  0  0
  7 33  1  0  0  0  0
  7 34  1  0  0  0  0
  7 35  1  0  0  0  0
  8  9  2  0  0  0  0
  8 10  1  0  0  0  0
 10 11  1  0  0  0  0
 10 36  1  0  0  0  0
 11 20  1  0  0  0  0
 11 12  2  0  0  0  0
 12 13  1  0  0  0  0
 12 37  1  0  0  0  0
 13 14  1  0  0  0  0
 13 18  2  0  0  0  0
 14 15  1  0  0  0  0
 14 16  1  0  0  0  0
 14 17  1  0  0  0  0
 18 19  1  0  0  0  0
 18 38  1  0  0  0  0
 19 22  1  0  0  0  0
 19 20  1  0  0  0  0
 20 21  2  0  0  0  0
M  END
> <s_m_source_file>
AV-unprocessed.smi

> <i_m_source_file_index>
1723

> <i_lp_mmshare_version>
43012

> <i_f3d_flags>
0

> <s_epik_input>
W0NIM11bQ0gyXVtDSDJdW0NIMl1PW0NASF0oW0NIM10pQyg9TylbTkhdYzFbY0hdYyhDKEYpKEYpRilbY0hdW25IXWMxPU8=

> <s_epik_cmdline>
J2VwaWtfcHl0aG9uJywgJy1waCcsICc3LjAnLCAnLXRuJywgJzgnLCAnLW1hJywgJzIwMCcsICctbWV0YWxfYmluZGluZycsICctaW1hZScsICc8aW5maWxlLm1hZT4nLCAnLW9tYWUnLCAnPG91dGZpbGUubWFlPic=

> <r_lp_tautomer_probability>
0.999

> <r_epik_Ionization_Penalty>
0.00763408

> <r_epik_Ionization_Penalty_Charging>
0.00763398

> <r_epik_Ionization_Penalty_Neutral>
9.29819e-08

> <r_epik_State_Penalty>
0.00571302

> <r_epik_Charging_Adjusted_Penalty>
0.013347

> <i_epik_Tot_Q>
0

> <i_epik_Tot_abs_Q>
0

> <r_epik_Metal_State_Penalty>
0.392814

> <b_epik_Metal_Only>
0

> <s_lp_Force_Field>
OPLS_2005

> <r_lp_Energy>
18.7704

> <b_lp_Chiralities_Consistent>
1

> <s_lp_Variant>
AV-unprocessed.smi:1723-2

> <Gold.Version>
5.8.1

> <Gold.Id.Protein>
6NUR|6NUR_protein|mol2

> <Gold.PLP.Fitness>
42.4655

> <Gold.PLP.PLP>
-40.0746

> <Gold.PLP.part.hbond>
-2.0000

> <Gold.PLP.part.metal>
0.0000

> <Gold.PLP.part.buried>
-4.7141

> <Gold.PLP.part.nonpolar>
-33.4384

> <Gold.PLP.part.repulsive>
0.2464

> <Gold.PLP.ligand.clash>
0.0000

> <Gold.PLP.ligand.torsion>
1.8832

> <Gold.PLP.Chemscore.Hbond>
2.0000

> <Gold.PLP.Chemscore.CHOScore>
0.0000

> <Gold.PLP.Chemscore.Metal>
0.0000

> <Gold.Chemscore.Hbonds>
donor molecule, donor type, donor heavy atom, donor atom, acceptor molecule, acceptor atom, score
      P1  H  7989  7998       L1     5  1.00
      P1  H  7997  8008       L1     9  1.00

> <Gold.PLP.Chemscore.Internal.Correction>
0.1573

> <Gold.Rescore>
     Score         DG    S(hbond)    S(metal)    S(lipo)     H(rot)  DE(clash)    DE(int)     intcor
     13.04     -16.29       1.89        0.00      82.03       1.99       0.01       3.24       ----

> <Gold.Chemscore.Fitness>
13.0433

> <Gold.Chemscore.DG>
-16.2892

> <Gold.Chemscore.ZeroCoef>
-5.4800

> <Gold.Chemscore.Hbond>
1.8916

> <Gold.Chemscore.Metal>
0.0000

> <Gold.Chemscore.Lipo>
82.0296

> <Gold.Chemscore.Internal_Hbond>
0.0000

> <Gold.Chemscore.DEClash>
0.0108

> <Gold.Chemscore.DEInternal>
3.2350

> <Gold.Chemscore.Rot>
1.9946

> <Gold.Chemscore.Internal.Correction>
   9.000000E+99

> <Gold.Chemscore.Hbonds>
donor molecule, donor type, donor heavy atom, donor atom, acceptor molecule, acceptor atom, score
      P1  H  7989  7998       L1     5  0.88
      P1  H  7997  8008       L1     9  0.43

> <Gold.Chemscore.Hbond.Weighted>
-6.3179

> <Gold.Chemscore.Metal.Weighted>
-0.0000

> <Gold.Chemscore.Lipo.Weighted>
-9.5975

> <Gold.Chemscore.Internal_Hbond.Weighted>
0.0000

> <Gold.Chemscore.DEClash.Weighted>
0.0108

> <Gold.Chemscore.DEInternal.Weighted>
3.2350

> <Gold.Chemscore.Rot.Weighted>
5.1062

> <Gold.Chemscore.Internal.Correction.Weighted>
   9.000000E+99

> <Gold.Protein.RotatedTorsions>
[ 6907 6896 6895 6894 ] final  -17.02 input  -60.11 | X-H torsion
[ 7974 7965 7964 7962 ] final    2.96 input  175.53 | X-H torsion
[ 8008 7997 7996 7995 ] final  -60.65 input   59.86 | X-H torsion
[ 10167 10162 10161 10158 ] final  -73.24 input  -65.29 | X-H torsion
[ 10718 10713 10712 10709 ] final  169.38 input   66.30 | X-H torsion
[ 10763 10752 10751 10750 ] final  126.26 input  -60.55 | X-H torsion
[ 11005 11000 10999 10996 ] final -158.19 input  -57.11 | X-H torsion

> <Gold.Protein.ActiveResidues>
 VAL166  LYS551  ARG553  GLY616  TRP617  ASP618  TYR619  PRO620  LYS621  CYS622 
 ASP623  PHE694  ASN695  SER759  ASP760  ASP761  ALA762  ILE779  LEU786  VAL792 
 PHE793  MET794  SER795  GLU796  ALA797  LYS798  CYS799  TRP800  GLU811  SER814 

> <Gold.Protein.RotatedAtoms>
  151.2997  135.0765  159.9233 H   0  0  0  0  0  0  0  0  0  0  0  0  # atno 6907 bound_to 6896
  152.5300  133.9846  159.7833 H   0  0  0  0  0  0  0  0  0  0  0  0  # atno 6908 bound_to 6896
  151.0131  133.5895  159.2711 H   0  0  0  0  0  0  0  0  0  0  0  0  # atno 6909 bound_to 6896
  146.2444  140.0758  142.8360 H   0  0  0  0  0  0  0  0  0  0  0  0  # atno 7974 bound_to 7965
  154.4409  140.1035  156.6308 H   0  0  0  0  0  0  0  0  0  0  0  0  # atno 8008 bound_to 7997
  155.5607  140.3487  155.4472 H   0  0  0  0  0  0  0  0  0  0  0  0  # atno 8009 bound_to 7997
  156.0462  140.1293  157.0091 H   0  0  0  0  0  0  0  0  0  0  0  0  # atno 8010 bound_to 7997
  140.5126  143.2342  151.7567 H   0  0  0  0  0  0  0  0  0  0  0  0  # atno 10167 bound_to 10162
  157.0235  131.0239  151.2767 H   0  0  0  0  0  0  0  0  0  0  0  0  # atno 10718 bound_to 10713
  153.6904  135.3300  155.3200 H   0  0  0  0  0  0  0  0  0  0  0  0  # atno 10763 bound_to 10752
  154.8441  135.4430  154.1514 H   0  0  0  0  0  0  0  0  0  0  0  0  # atno 10764 bound_to 10752
  153.2554  135.6986  153.7712 H   0  0  0  0  0  0  0  0  0  0  0  0  # atno 10765 bound_to 10752
  140.6564  134.4396  157.5235 H   0  0  0  0  0  0  0  0  0  0  0  0  # atno 11005 bound_to 11000
  145.0776  140.9199  143.4844 LP  0  0  0  0  0  0  0  0  0  0  0  0  # atno 17320 bound_to 7965
  145.0904  139.2894  143.5738 LP  0  0  0  0  0  0  0  0  0  0  0  0  # atno 17321 bound_to 7965
  139.4900  144.4368  151.9809 LP  0  0  0  0  0  0  0  0  0  0  0  0  # atno 17342 bound_to 10162
  140.3461  144.3145  150.5958 LP  0  0  0  0  0  0  0  0  0  0  0  0  # atno 17343 bound_to 10162
  157.5232  130.8011  149.7832 LP  0  0  0  0  0  0  0  0  0  0  0  0  # atno 17370 bound_to 10713
  156.0094  130.3840  150.2317 LP  0  0  0  0  0  0  0  0  0  0  0  0  # atno 17371 bound_to 10713
  139.9028  134.8517  156.1826 LP  0  0  0  0  0  0  0  0  0  0  0  0  # atno 17394 bound_to 11000
  141.0498  133.6894  156.1751 LP  0  0  0  0  0  0  0  0  0  0  0  0  # atno 17395 bound_to 11000

$$$$
