AV-unprocessed.smi:257|AV-procd|sdf|1963|dock7
  -GOLD-   2262021113D 1   1.00000     0.00000
 Structure written by MMmdl.
 50 53  0  0  0  0  0  0  0  0  1 V2000
  153.1719  136.8936  163.2642 C   0  0  0  0  0  0  0  0  0  0  0  0
  153.7984  137.8944  162.4148 N   0  0  0  0  0  0  0  0  0  0  0  0
  153.4099  138.1713  161.1620 C   0  0  0  0  0  0  0  0  0  0  0  0
  152.4659  137.6031  160.6107 O   0  0  0  0  0  0  0  0  0  0  0  0
  154.2106  139.2650  160.4317 C   0  0  2  0  0  0  0  0  0  0  0  0
  155.0049  140.1396  161.4177 C   0  0  0  0  0  0  0  0  0  0  0  0
  154.0583  141.2895  161.7569 C   0  0  0  0  0  0  0  0  0  0  0  0
  153.3052  141.5133  160.4464 C   0  0  0  0  0  0  0  0  0  0  0  0
  153.3413  140.2283  159.7549 N   0  0  0  0  0  0  0  0  0  0  0  0
  152.7276  140.0283  158.5551 C   0  0  0  0  0  0  0  0  0  0  0  0
  152.8441  138.8002  157.9829 N   0  0  0  0  0  0  0  0  0  0  0  0
  152.2717  138.5349  156.8065 C   0  0  0  0  0  0  0  0  0  0  0  0
  151.5424  139.3407  156.0358 N   0  0  0  0  0  0  0  0  0  0  0  0
  151.4124  140.5756  156.5972 C   0  0  0  0  0  0  0  0  0  0  0  0
  151.9661  141.0040  157.8401 C   0  0  0  0  0  0  0  0  0  0  0  0
  151.6129  142.3312  158.0640 N   0  0  0  0  0  0  0  0  0  0  0  0
  150.9016  142.6640  157.0233 C   0  0  0  0  0  0  0  0  0  0  0  0
  150.7221  141.6655  156.0954 N   0  0  0  0  0  0  0  0  0  0  0  0
  149.9756  141.7603  154.8490 C   0  0  0  0  0  0  0  0  0  0  0  0
  149.0977  140.5168  154.5385 C   0  0  0  0  0  0  0  0  0  0  0  0
  149.9309  139.5464  153.9311 O   0  0  0  0  0  0  0  0  0  0  0  0
  148.5255  139.8862  155.8239 C   0  0  0  0  0  0  0  0  0  0  0  0
  147.3669  140.7210  156.3997 C   0  0  0  0  0  0  0  0  0  0  0  0
  146.3529  140.8913  155.4153 O   0  0  0  0  0  0  0  0  0  0  0  0
  146.8064  141.5938  154.2634 C   0  0  0  0  0  0  0  0  0  0  0  0
  147.9273  140.7978  153.5714 C   0  0  0  0  0  0  0  0  0  0  0  0
  153.6612  136.8737  164.2378 H   0  0  0  0  0  0  0  0  0  0  0  0
  153.2562  135.9011  162.8195 H   0  0  0  0  0  0  0  0  0  0  0  0
  152.1155  137.1188  163.4165 H   0  0  0  0  0  0  0  0  0  0  0  0
  154.5814  138.4035  162.7988 H   0  0  0  0  0  0  0  0  0  0  0  0
  154.9075  138.8094  159.7275 H   0  0  0  0  0  0  0  0  0  0  0  0
  155.3424  139.6023  162.3052 H   0  0  0  0  0  0  0  0  0  0  0  0
  155.8923  140.5337  160.9204 H   0  0  0  0  0  0  0  0  0  0  0  0
  153.3627  140.9766  162.5369 H   0  0  0  0  0  0  0  0  0  0  0  0
  154.5771  142.1824  162.1063 H   0  0  0  0  0  0  0  0  0  0  0  0
  152.2846  141.8500  160.6324 H   0  0  0  0  0  0  0  0  0  0  0  0
  153.8109  142.2634  159.8369 H   0  0  0  0  0  0  0  0  0  0  0  0
  152.4198  137.5339  156.4292 H   0  0  0  0  0  0  0  0  0  0  0  0
  150.4809  143.6521  156.9055 H   0  0  0  0  0  0  0  0  0  0  0  0
  149.3526  142.6543  154.9000 H   0  0  0  0  0  0  0  0  0  0  0  0
  150.6878  141.9425  154.0447 H   0  0  0  0  0  0  0  0  0  0  0  0
  149.5714  139.3296  153.0842 H   0  0  0  0  0  0  0  0  0  0  0  0
  148.1470  138.8862  155.6056 H   0  0  0  0  0  0  0  0  0  0  0  0
  149.3085  139.7591  156.5726 H   0  0  0  0  0  0  0  0  0  0  0  0
  146.9342  140.2107  157.2602 H   0  0  0  0  0  0  0  0  0  0  0  0
  147.7134  141.6919  156.7548 H   0  0  0  0  0  0  0  0  0  0  0  0
  145.9672  141.7242  153.5804 H   0  0  0  0  0  0  0  0  0  0  0  0
  147.1405  142.5924  154.5446 H   0  0  0  0  0  0  0  0  0  0  0  0
  148.2658  141.3173  152.6749 H   0  0  0  0  0  0  0  0  0  0  0  0
  147.5055  139.8528  153.2256 H   0  0  0  0  0  0  0  0  0  0  0  0
  1  2  1  0  0  0  0
  1 27  1  0  0  0  0
  1 28  1  0  0  0  0
  1 29  1  0  0  0  0
  2  3  1  0  0  0  0
  2 30  1  0  0  0  0
  3  4  2  0  0  0  0
  3  5  1  0  0  0  0
  5  9  1  0  0  0  0
  5  6  1  0  0  0  0
  5 31  1  0  0  0  0
  6  7  1  0  0  0  0
  6 32  1  0  0  0  0
  6 33  1  0  0  0  0
  7  8  1  0  0  0  0
  7 34  1  0  0  0  0
  7 35  1  0  0  0  0
  8  9  1  0  0  0  0
  8 36  1  0  0  0  0
  8 37  1  0  0  0  0
  9 10  1  0  0  0  0
 10 15  1  0  0  0  0
 10 11  2  0  0  0  0
 11 12  1  0  0  0  0
 12 13  2  0  0  0  0
 12 38  1  0  0  0  0
 13 14  1  0  0  0  0
 14 18  1  0  0  0  0
 14 15  2  0  0  0  0
 15 16  1  0  0  0  0
 16 17  2  0  0  0  0
 17 18  1  0  0  0  0
 17 39  1  0  0  0  0
 18 19  1  0  0  0  0
 19 20  1  0  0  0  0
 19 40  1  0  0  0  0
 19 41  1  0  0  0  0
 20 26  1  0  0  0  0
 20 21  1  0  0  0  0
 20 22  1  0  0  0  0
 21 42  1  0  0  0  0
 22 23  1  0  0  0  0
 22 43  1  0  0  0  0
 22 44  1  0  0  0  0
 23 24  1  0  0  0  0
 23 45  1  0  0  0  0
 23 46  1  0  0  0  0
 24 25  1  0  0  0  0
 25 26  1  0  0  0  0
 25 47  1  0  0  0  0
 25 48  1  0  0  0  0
 26 49  1  0  0  0  0
 26 50  1  0  0  0  0
M  END
> <s_m_source_file>
AV-unprocessed.smi

> <i_m_source_file_index>
257

> <i_lp_mmshare_version>
43012

> <i_f3d_flags>
0

> <s_epik_input>
W0NIM11bTkhdQyg9TylbQ0BASF0xW0NIMl1bQ0gyXVtDSDJdTjFjKG5bY0hdbjIpYyhjMjMpbltjSF1uM1tDSDJdQzQoW09IXSlbQ0gyXVtDSDJdT1tDSDJdW0NIMl00

> <s_epik_cmdline>
J2VwaWtfcHl0aG9uJywgJy1waCcsICc3LjAnLCAnLXRuJywgJzgnLCAnLW1hJywgJzIwMCcsICctbWV0YWxfYmluZGluZycsICctaW1hZScsICc8aW5maWxlLm1hZT4nLCAnLW9tYWUnLCAnPG91dGZpbGUubWFlPic=

> <r_lp_tautomer_probability>
1

> <r_epik_Ionization_Penalty>
0.000951012

> <r_epik_Ionization_Penalty_Charging>
0

> <r_epik_Ionization_Penalty_Neutral>
0.000951012

> <r_epik_State_Penalty>
0.000495984

> <r_epik_Charging_Adjusted_Penalty>
0.000495984

> <i_epik_Tot_Q>
0

> <i_epik_Tot_abs_Q>
0

> <r_epik_Metal_State_Penalty>
-0

> <b_epik_Metal_Only>
0

> <s_lp_Force_Field>
OPLS_2005

> <r_lp_Energy>
35.0404

> <b_lp_Chiralities_Consistent>
1

> <s_lp_Variant>
AV-unprocessed.smi:257-1

> <Gold.Version>
5.8.1

> <Gold.Id.Protein>
6NUR|6NUR_protein|mol2

> <Gold.PLP.Fitness>
47.4481

> <Gold.PLP.PLP>
-41.0702

> <Gold.PLP.part.hbond>
-3.0000

> <Gold.PLP.part.metal>
0.0000

> <Gold.PLP.part.buried>
-1.8699

> <Gold.PLP.part.nonpolar>
-35.9580

> <Gold.PLP.part.repulsive>
0.0734

> <Gold.PLP.ligand.clash>
0.4741

> <Gold.PLP.ligand.torsion>
1.0545

> <Gold.PLP.Chemscore.Hbond>
1.9680

> <Gold.PLP.Chemscore.CHOScore>
1.0000

> <Gold.PLP.Chemscore.Metal>
0.0000

> <Gold.Chemscore.Hbonds>
donor molecule, donor type, donor heavy atom, donor atom, acceptor molecule, acceptor atom, score
      L1  H    21    42       P1  7957  0.75
      P1  H  7989  7998       L1    21  0.53
      L1  C    17    39       P1  8028  1.00

> <Gold.PLP.Chemscore.Internal.Correction>
0.0570

> <Gold.Rescore>
     Score         DG    S(hbond)    S(metal)    S(lipo)     H(rot)  DE(clash)    DE(int)     intcor
     12.29     -15.22       1.99        0.00      76.40       2.29       1.66       1.28       ----

> <Gold.Chemscore.Fitness>
12.2890

> <Gold.Chemscore.DG>
-15.2212

> <Gold.Chemscore.ZeroCoef>
-5.4800

> <Gold.Chemscore.Hbond>
1.9945

> <Gold.Chemscore.Metal>
0.0000

> <Gold.Chemscore.Lipo>
76.4031

> <Gold.Chemscore.Internal_Hbond>
0.0000

> <Gold.Chemscore.DEClash>
1.6559

> <Gold.Chemscore.DEInternal>
1.2764

> <Gold.Chemscore.Rot>
2.2889

> <Gold.Chemscore.Internal.Correction>
   9.000000E+99

> <Gold.Chemscore.Hbonds>
donor molecule, donor type, donor heavy atom, donor atom, acceptor molecule, acceptor atom, score
      L1  H    21    42       P1  7957  0.71
      P1  H  7989  7998       L1    21  0.04

> <Gold.Chemscore.Hbond.Weighted>
-6.6617

> <Gold.Chemscore.Metal.Weighted>
-0.0000

> <Gold.Chemscore.Lipo.Weighted>
-8.9392

> <Gold.Chemscore.Internal_Hbond.Weighted>
0.0000

> <Gold.Chemscore.DEClash.Weighted>
1.6559

> <Gold.Chemscore.DEInternal.Weighted>
1.2764

> <Gold.Chemscore.Rot.Weighted>
5.8596

> <Gold.Chemscore.Internal.Correction.Weighted>
   9.000000E+99

> <Gold.Protein.RotatedTorsions>
[ 6907 6896 6895 6894 ] final  -98.97 input  -60.11 | X-H torsion
[ 7974 7965 7964 7962 ] final  -33.72 input  175.53 | X-H torsion
[ 8008 7997 7996 7995 ] final   86.73 input   59.86 | X-H torsion
[ 10167 10162 10161 10158 ] final  -65.44 input  -65.29 | X-H torsion
[ 10718 10713 10712 10709 ] final -120.61 input   66.30 | X-H torsion
[ 10763 10752 10751 10750 ] final  -60.33 input  -60.55 | X-H torsion
[ 11005 11000 10999 10996 ] final  121.58 input  -57.11 | X-H torsion

> <Gold.Protein.ActiveResidues>
 VAL166  LYS551  ARG553  GLY616  TRP617  ASP618  TYR619  PRO620  LYS621  CYS622 
 ASP623  PHE694  ASN695  SER759  ASP760  ASP761  ALA762  ILE779  LEU786  VAL792 
 PHE793  MET794  SER795  GLU796  ALA797  LYS798  CYS799  TRP800  GLU811  SER814 

> <Gold.Protein.RotatedAtoms>
  150.7064  134.1113  159.4000 H   0  0  0  0  0  0  0  0  0  0  0  0  # atno 6907 bound_to 6896
  151.9100  135.0341  160.0523 H   0  0  0  0  0  0  0  0  0  0  0  0  # atno 6908 bound_to 6896
  152.2344  133.5049  159.5271 H   0  0  0  0  0  0  0  0  0  0  0  0  # atno 6909 bound_to 6896
  146.0888  140.5951  142.8874 H   0  0  0  0  0  0  0  0  0  0  0  0  # atno 7974 bound_to 7965
  155.9665  140.3389  155.6537 H   0  0  0  0  0  0  0  0  0  0  0  0  # atno 8008 bound_to 7997
  155.6730  140.0729  157.2531 H   0  0  0  0  0  0  0  0  0  0  0  0  # atno 8009 bound_to 7997
  154.4156  140.1688  156.1887 H   0  0  0  0  0  0  0  0  0  0  0  0  # atno 8010 bound_to 7997
  140.5730  143.2319  151.6500 H   0  0  0  0  0  0  0  0  0  0  0  0  # atno 10167 bound_to 10162
  156.1271  130.6367  150.9561 H   0  0  0  0  0  0  0  0  0  0  0  0  # atno 10718 bound_to 10713
  154.2675  135.6296  153.5297 H   0  0  0  0  0  0  0  0  0  0  0  0  # atno 10763 bound_to 10752
  152.9885  135.5602  154.5636 H   0  0  0  0  0  0  0  0  0  0  0  0  # atno 10764 bound_to 10752
  154.5199  135.2882  155.1247 H   0  0  0  0  0  0  0  0  0  0  0  0  # atno 10765 bound_to 10752
  139.9232  134.9639  156.7979 H   0  0  0  0  0  0  0  0  0  0  0  0  # atno 11005 bound_to 11000
  144.7345  140.4768  143.6914 LP  0  0  0  0  0  0  0  0  0  0  0  0  # atno 17320 bound_to 7965
  145.6079  139.1510  143.3092 LP  0  0  0  0  0  0  0  0  0  0  0  0  # atno 17321 bound_to 7965
  139.5127  144.3466  152.0691 LP  0  0  0  0  0  0  0  0  0  0  0  0  # atno 17342 bound_to 10162
  140.2606  144.4071  150.6187 LP  0  0  0  0  0  0  0  0  0  0  0  0  # atno 17343 bound_to 10162
  157.6452  131.0905  150.8168 LP  0  0  0  0  0  0  0  0  0  0  0  0  # atno 17370 bound_to 10713
  156.8257  130.4999  149.5337 LP  0  0  0  0  0  0  0  0  0  0  0  0  # atno 17371 bound_to 10713
  140.6413  133.9815  155.7709 LP  0  0  0  0  0  0  0  0  0  0  0  0  # atno 17394 bound_to 11000
  141.0769  134.0121  157.3444 LP  0  0  0  0  0  0  0  0  0  0  0  0  # atno 17395 bound_to 11000

$$$$
