AV-unprocessed.smi:1123|AV-procd|sdf|4831|dock5
  -GOLD-   22720 3393D 1   1.00000     0.00000
 Structure written by MMmdl.
 38 39  0  0  0  0  0  0  0  0  2 V2000
  151.1997  142.1151  157.6358 C   0  0  0  0  0  0  0  0  0  0  0  0
  150.7269  141.6870  156.2315 C   0  0  2  0  0  0  0  0  0  0  0  0
  149.1946  141.6895  156.0839 C   0  0  0  0  0  0  0  0  0  0  0  0
  148.4666  141.9037  157.0541 O   0  0  0  0  0  0  0  0  0  0  0  0
  148.7123  141.4655  154.8506 N   0  0  0  0  0  0  0  0  0  0  0  0
  147.2977  141.4389  154.4984 C   0  0  0  0  0  0  0  0  0  0  0  0
  147.0879  140.9035  153.0691 C   0  0  0  0  0  0  0  0  0  0  0  0
  146.3058  139.6421  153.0367 N   0  3  0  0  0  0  0  0  0  0  0  0
  146.5423  138.8693  151.7935 C   0  0  0  0  0  0  0  0  0  0  0  0
  145.6785  137.5971  151.7736 C   0  0  0  0  0  0  0  0  0  0  0  0
  145.9638  136.8125  152.9244 O   0  0  0  0  0  0  0  0  0  0  0  0
  145.6566  137.5053  154.1275 C   0  0  0  0  0  0  0  0  0  0  0  0
  146.5124  138.7803  154.2276 C   0  0  0  0  0  0  0  0  0  0  0  0
  151.2852  140.3958  155.8474 N   0  0  0  0  0  0  0  0  0  0  0  0
  152.0615  139.5566  156.5364 C   0  0  0  0  0  0  0  0  0  0  0  0
  152.4128  138.4712  155.8616 N   0  0  0  0  0  0  0  0  0  0  0  0
  151.7790  138.7231  154.6779 C   0  0  0  0  0  0  0  0  0  0  0  0
  151.0963  139.8660  154.6130 N   0  0  0  0  0  0  0  0  0  0  0  0
  150.8376  143.1123  157.8876 H   0  0  0  0  0  0  0  0  0  0  0  0
  152.2885  142.1428  157.6868 H   0  0  0  0  0  0  0  0  0  0  0  0
  150.8510  141.4306  158.4102 H   0  0  0  0  0  0  0  0  0  0  0  0
  151.1094  142.4239  155.5235 H   0  0  0  0  0  0  0  0  0  0  0  0
  149.3730  141.2954  154.1058 H   0  0  0  0  0  0  0  0  0  0  0  0
  146.7972  140.8048  155.2289 H   0  0  0  0  0  0  0  0  0  0  0  0
  146.8655  142.4358  154.6030 H   0  0  0  0  0  0  0  0  0  0  0  0
  146.5510  141.6591  152.4933 H   0  0  0  0  0  0  0  0  0  0  0  0
  148.0462  140.7574  152.5681 H   0  0  0  0  0  0  0  0  0  0  0  0
  146.3071  139.4833  150.9234 H   0  0  0  0  0  0  0  0  0  0  0  0
  147.5985  138.6038  151.7230 H   0  0  0  0  0  0  0  0  0  0  0  0
  144.6165  137.8456  151.7400 H   0  0  0  0  0  0  0  0  0  0  0  0
  145.8963  137.0088  150.8820 H   0  0  0  0  0  0  0  0  0  0  0  0
  144.5929  137.7467  154.1610 H   0  0  0  0  0  0  0  0  0  0  0  0
  145.8610  136.8492  154.9738 H   0  0  0  0  0  0  0  0  0  0  0  0
  147.5675  138.5141  154.3091 H   0  0  0  0  0  0  0  0  0  0  0  0
  146.2459  139.3152  155.1381 H   0  0  0  0  0  0  0  0  0  0  0  0
  152.3778  139.7441  157.5520 H   0  0  0  0  0  0  0  0  0  0  0  0
  151.8260  138.0461  153.8376 H   0  0  0  0  0  0  0  0  0  0  0  0
  145.3306  139.9053  153.0251 H   0  0  0  0  0  0  0  0  0  0  0  0
  1  2  1  0  0  0  0
  1 19  1  0  0  0  0
  1 20  1  0  0  0  0
  1 21  1  0  0  0  0
  2  3  1  0  0  0  0
  2 14  1  0  0  0  0
  2 22  1  0  0  0  0
  3  4  2  0  0  0  0
  3  5  1  0  0  0  0
  5  6  1  0  0  0  0
  5 23  1  0  0  0  0
  6  7  1  0  0  0  0
  6 24  1  0  0  0  0
  6 25  1  0  0  0  0
  7  8  1  0  0  0  0
  7 26  1  0  0  0  0
  7 27  1  0  0  0  0
  8 13  1  0  0  0  0
  8  9  1  0  0  0  0
  8 38  1  0  0  0  0
  9 10  1  0  0  0  0
  9 28  1  0  0  0  0
  9 29  1  0  0  0  0
 10 11  1  0  0  0  0
 10 30  1  0  0  0  0
 10 31  1  0  0  0  0
 11 12  1  0  0  0  0
 12 13  1  0  0  0  0
 12 32  1  0  0  0  0
 12 33  1  0  0  0  0
 13 34  1  0  0  0  0
 13 35  1  0  0  0  0
 14 18  1  0  0  0  0
 14 15  1  0  0  0  0
 15 16  2  0  0  0  0
 15 36  1  0  0  0  0
 16 17  1  0  0  0  0
 17 18  2  0  0  0  0
 17 37  1  0  0  0  0
M  CHG  1   8   1
M  END
> <s_m_source_file>
AV-unprocessed.smi

> <i_m_source_file_index>
1123

> <i_lp_mmshare_version>
43012

> <i_f3d_flags>
0

> <s_epik_input>
bjFbY0hdbltjSF1uMVtDQEhdKFtDSDNdKUMoPU8pW05IXVtDSDJdW0NIMl1OMltDSDJdW0NIMl1PW0NIMl1bQ0gyXTI=

> <s_epik_cmdline>
J2VwaWtfcHl0aG9uJywgJy1waCcsICc3LjAnLCAnLXRuJywgJzgnLCAnLW1hJywgJzIwMCcsICctbWV0YWxfYmluZGluZycsICctaW1hZScsICc8aW5maWxlLm1hZT4nLCAnLW9tYWUnLCAnPG91dGZpbGUubWFlPic=

> <r_lp_tautomer_probability>
1

> <r_epik_Ionization_Penalty>
0.71326

> <r_epik_Ionization_Penalty_Charging>
0.713252

> <r_epik_Ionization_Penalty_Neutral>
7.98515e-06

> <r_epik_State_Penalty>
0.737017

> <r_epik_Charging_Adjusted_Penalty>
1.45027

> <i_epik_Tot_Q>
1

> <i_epik_Tot_abs_Q>
1

> <r_epik_Metal_State_Penalty>
0.73702

> <b_epik_Metal_Only>
0

> <s_lp_Force_Field>
OPLS_2005

> <r_lp_Energy>
21.5068

> <b_lp_Chiralities_Consistent>
1

> <s_lp_Variant>
AV-unprocessed.smi:1123-3

> <Gold.Version>
5.8.1

> <Gold.Id.Protein>
6NUR|6NUR_protein|mol2

> <Gold.PLP.Fitness>
37.2393

> <Gold.PLP.PLP>
-29.6556

> <Gold.PLP.part.hbond>
-2.0735

> <Gold.PLP.part.metal>
0.0000

> <Gold.PLP.part.buried>
-2.7845

> <Gold.PLP.part.nonpolar>
-25.6510

> <Gold.PLP.part.repulsive>
0.8146

> <Gold.PLP.ligand.clash>
0.0000

> <Gold.PLP.ligand.torsion>
0.7740

> <Gold.PLP.Chemscore.Hbond>
3.0000

> <Gold.PLP.Chemscore.CHOScore>
0.0000

> <Gold.PLP.Chemscore.Metal>
0.0000

> <Gold.Chemscore.Hbonds>
donor molecule, donor type, donor heavy atom, donor atom, acceptor molecule, acceptor atom, score
      L1  H     8    38       P1 10175  2.00
      P1  H  7989  7998       L1    18  1.00

> <Gold.PLP.Chemscore.Internal.Correction>
0.1317

> <Gold.Rescore>
     Score         DG    S(hbond)    S(metal)    S(lipo)     H(rot)  DE(clash)    DE(int)     intcor
      8.50     -10.65       1.95        0.00      47.32       2.69       0.06       2.10       ----

> <Gold.Chemscore.Fitness>
8.4987

> <Gold.Chemscore.DG>
-10.6546

> <Gold.Chemscore.ZeroCoef>
-5.4800

> <Gold.Chemscore.Hbond>
1.9546

> <Gold.Chemscore.Metal>
0.0000

> <Gold.Chemscore.Lipo>
47.3239

> <Gold.Chemscore.Internal_Hbond>
0.0000

> <Gold.Chemscore.DEClash>
0.0551

> <Gold.Chemscore.DEInternal>
2.1008

> <Gold.Chemscore.Rot>
2.6916

> <Gold.Chemscore.Internal.Correction>
   9.000000E+99

> <Gold.Chemscore.Hbonds>
donor molecule, donor type, donor heavy atom, donor atom, acceptor molecule, acceptor atom, score
      L1  H     8    38       P1 10175  1.00
      P1  H  7989  7998       L1    18  0.62

> <Gold.Chemscore.Hbond.Weighted>
-6.5283

> <Gold.Chemscore.Metal.Weighted>
-0.0000

> <Gold.Chemscore.Lipo.Weighted>
-5.5369

> <Gold.Chemscore.Internal_Hbond.Weighted>
0.0000

> <Gold.Chemscore.DEClash.Weighted>
0.0551

> <Gold.Chemscore.DEInternal.Weighted>
2.1008

> <Gold.Chemscore.Rot.Weighted>
6.8906

> <Gold.Chemscore.Internal.Correction.Weighted>
   9.000000E+99

> <Gold.Protein.RotatedTorsions>
[ 6907 6896 6895 6894 ] final  144.29 input  -60.11 | X-H torsion
[ 7974 7965 7964 7962 ] final -151.11 input  175.53 | X-H torsion
[ 8008 7997 7996 7995 ] final -115.04 input   59.86 | X-H torsion
[ 10167 10162 10161 10158 ] final   56.80 input  -65.29 | X-H torsion
[ 10718 10713 10712 10709 ] final   63.32 input   66.30 | X-H torsion
[ 10763 10752 10751 10750 ] final  -55.43 input  -60.55 | X-H torsion
[ 11005 11000 10999 10996 ] final   27.30 input  -57.11 | X-H torsion

> <Gold.Protein.ActiveResidues>
 VAL166  LYS551  ARG553  GLY616  TRP617  ASP618  TYR619  PRO620  LYS621  CYS622 
 ASP623  PHE694  ASN695  SER759  ASP760  ASP761  ALA762  ILE779  LEU786  VAL792 
 PHE793  MET794  SER795  GLU796  ALA797  LYS798  CYS799  TRP800  GLU811  SER814 

> <Gold.Protein.RotatedAtoms>
  152.1955  133.4804  159.5030 H   0  0  0  0  0  0  0  0  0  0  0  0  # atno 6907 bound_to 6896
  150.6959  134.1657  159.4202 H   0  0  0  0  0  0  0  0  0  0  0  0  # atno 6908 bound_to 6896
  151.9573  135.0140  160.0596 H   0  0  0  0  0  0  0  0  0  0  0  0  # atno 6909 bound_to 6896
  144.7868  140.4841  143.5800 H   0  0  0  0  0  0  0  0  0  0  0  0  # atno 7974 bound_to 7965
  155.0458  140.0392  157.2526 H   0  0  0  0  0  0  0  0  0  0  0  0  # atno 8008 bound_to 7997
  154.7179  140.2706  155.6545 H   0  0  0  0  0  0  0  0  0  0  0  0  # atno 8009 bound_to 7997
  156.2808  140.2709  156.1841 H   0  0  0  0  0  0  0  0  0  0  0  0  # atno 8010 bound_to 7997
  140.2048  144.3951  150.6513 H   0  0  0  0  0  0  0  0  0  0  0  0  # atno 10167 bound_to 10162
  157.5963  130.9099  149.9700 H   0  0  0  0  0  0  0  0  0  0  0  0  # atno 10718 bound_to 10713
  154.1907  135.6427  153.5059 H   0  0  0  0  0  0  0  0  0  0  0  0  # atno 10763 bound_to 10752
  153.0036  135.5428  154.6418 H   0  0  0  0  0  0  0  0  0  0  0  0  # atno 10764 bound_to 10752
  154.5806  135.2925  155.0709 H   0  0  0  0  0  0  0  0  0  0  0  0  # atno 10765 bound_to 10752
  140.3278  134.2472  155.7707 H   0  0  0  0  0  0  0  0  0  0  0  0  # atno 11005 bound_to 11000
  145.5899  139.1495  143.3188 LP  0  0  0  0  0  0  0  0  0  0  0  0  # atno 17320 bound_to 7965
  146.2104  140.6025  142.9062 LP  0  0  0  0  0  0  0  0  0  0  0  0  # atno 17321 bound_to 7965
  140.6365  143.2196  151.6383 LP  0  0  0  0  0  0  0  0  0  0  0  0  # atno 17342 bound_to 10162
  139.5203  144.3228  152.0896 LP  0  0  0  0  0  0  0  0  0  0  0  0  # atno 17343 bound_to 10162
  156.1026  130.3655  150.0191 LP  0  0  0  0  0  0  0  0  0  0  0  0  # atno 17370 bound_to 10713
  156.8303  130.9390  151.3637 LP  0  0  0  0  0  0  0  0  0  0  0  0  # atno 17371 bound_to 10713
  141.2071  133.7815  157.0139 LP  0  0  0  0  0  0  0  0  0  0  0  0  # atno 17394 bound_to 11000
  140.0887  134.9605  157.1741 LP  0  0  0  0  0  0  0  0  0  0  0  0  # atno 17395 bound_to 11000

$$$$
