AV-unprocessed.smi:3277|AV-procd|sdf|12538|dock9
  -GOLD-   2272018453D 1   1.00000     0.00000
 Structure written by MMmdl.
 35 37  0  0  0  0  0  0  0  0  1 V2000
  149.5427  140.8728  154.8867 C   0  0  0  0  0  0  0  0  0  0  0  0
  150.0357  140.0687  155.9939 N   0  0  0  0  0  0  0  0  0  0  0  0
  151.3138  139.6897  156.1401 C   0  0  0  0  0  0  0  0  0  0  0  0
  152.2048  139.9968  155.3484 O   0  0  0  0  0  0  0  0  0  0  0  0
  151.6402  138.8359  157.3667 C   0  0  0  0  0  0  0  0  0  0  0  0
  152.2419  139.7298  158.4026 C   0  0  0  0  0  0  0  0  0  0  0  0
  152.1873  141.0628  158.3486 N   0  0  0  0  0  0  0  0  0  0  0  0
  152.8328  141.6828  159.4251 C   0  0  0  0  0  0  0  0  0  0  0  0
  152.9107  143.1854  159.5403 C   0  0  2  0  0  0  0  0  0  0  0  0
  152.3266  143.7784  160.8416 C   0  0  0  0  0  0  0  0  0  0  0  0
  151.4284  144.9149  160.3143 C   0  0  2  0  0  0  0  0  0  0  0  0
  150.1674  144.3099  159.6662 C   0  0  0  0  0  0  0  0  0  0  0  0
  150.7037  143.7453  158.3371 C   0  0  0  0  0  0  0  0  0  0  0  0
  152.2176  144.0233  158.4364 C   0  0  1  0  0  0  0  0  0  0  0  0
  152.2043  145.4010  159.0941 C   0  0  0  0  0  0  0  0  0  0  0  0
  153.3712  140.7811  160.3100 C   0  0  0  0  0  0  0  0  0  0  0  0
  153.0916  139.1322  159.8223 S   0  0  0  0  0  0  0  0  0  0  0  0
  148.4668  141.0189  154.9835 H   0  0  0  0  0  0  0  0  0  0  0  0
  149.7355  140.3802  153.9325 H   0  0  0  0  0  0  0  0  0  0  0  0
  150.0211  141.8531  154.8760 H   0  0  0  0  0  0  0  0  0  0  0  0
  149.3639  139.7754  156.6880 H   0  0  0  0  0  0  0  0  0  0  0  0
  150.7351  138.3703  157.7587 H   0  0  0  0  0  0  0  0  0  0  0  0
  152.3405  138.0399  157.1110 H   0  0  0  0  0  0  0  0  0  0  0  0
  153.9671  143.4595  159.5175 H   0  0  0  0  0  0  0  0  0  0  0  0
  151.7547  143.0608  161.4308 H   0  0  0  0  0  0  0  0  0  0  0  0
  153.1230  144.1641  161.4792 H   0  0  0  0  0  0  0  0  0  0  0  0
  151.2111  145.6803  161.0598 H   0  0  0  0  0  0  0  0  0  0  0  0
  149.7122  143.5397  160.2902 H   0  0  0  0  0  0  0  0  0  0  0  0
  149.4150  145.0772  159.4802 H   0  0  0  0  0  0  0  0  0  0  0  0
  150.4532  142.6979  158.1803 H   0  0  0  0  0  0  0  0  0  0  0  0
  150.2770  144.2977  157.4987 H   0  0  0  0  0  0  0  0  0  0  0  0
  152.7283  143.9811  157.4739 H   0  0  0  0  0  0  0  0  0  0  0  0
  151.6698  146.1555  158.5139 H   0  0  0  0  0  0  0  0  0  0  0  0
  153.1993  145.7786  159.3366 H   0  0  0  0  0  0  0  0  0  0  0  0
  153.9189  140.9879  161.2175 H   0  0  0  0  0  0  0  0  0  0  0  0
  1  2  1  0  0  0  0
  1 18  1  0  0  0  0
  1 19  1  0  0  0  0
  1 20  1  0  0  0  0
  2  3  1  0  0  0  0
  2 21  1  0  0  0  0
  3  4  2  0  0  0  0
  3  5  1  0  0  0  0
  5  6  1  0  0  0  0
  5 22  1  0  0  0  0
  5 23  1  0  0  0  0
  6 17  1  0  0  0  0
  6  7  2  0  0  0  0
  7  8  1  0  0  0  0
  8  9  1  0  0  0  0
  8 16  2  0  0  0  0
  9 14  1  0  0  0  0
  9 10  1  0  0  0  0
  9 24  1  0  0  0  0
 10 11  1  0  0  0  0
 10 25  1  0  0  0  0
 10 26  1  0  0  0  0
 11 15  1  0  0  0  0
 11 12  1  0  0  0  0
 11 27  1  0  0  0  0
 12 13  1  0  0  0  0
 12 28  1  0  0  0  0
 12 29  1  0  0  0  0
 13 14  1  0  0  0  0
 13 30  1  0  0  0  0
 13 31  1  0  0  0  0
 14 15  1  0  0  0  0
 14 32  1  0  0  0  0
 15 33  1  0  0  0  0
 15 34  1  0  0  0  0
 16 17  1  0  0  0  0
 16 35  1  0  0  0  0
M  END
> <s_m_source_file>
AV-unprocessed.smi

> <i_m_source_file_index>
3277

> <i_lp_mmshare_version>
43012

> <i_f3d_flags>
0

> <s_epik_input>
W0NIM11bTkhdQyg9TylbQ0gyXWMxbmMoW2NIXXMxKVtDQEhdKFtDSDJdW0NAQEhdMjMpW0NAQEhdKFtDSDJdMylbQ0gyXVtDSDJdMg==

> <s_epik_cmdline>
J2VwaWtfcHl0aG9uJywgJy1waCcsICc3LjAnLCAnLXRuJywgJzgnLCAnLW1hJywgJzIwMCcsICctbWV0YWxfYmluZGluZycsICctaW1hZScsICc8aW5maWxlLm1hZT4nLCAnLW9tYWUnLCAnPG91dGZpbGUubWFlPic=

> <r_lp_tautomer_probability>
1

> <r_epik_Ionization_Penalty>
8.50008e-05

> <r_epik_Ionization_Penalty_Charging>
0

> <r_epik_Ionization_Penalty_Neutral>
8.50008e-05

> <r_epik_State_Penalty>
-0

> <r_epik_Charging_Adjusted_Penalty>
0

> <i_epik_Tot_Q>
0

> <i_epik_Tot_abs_Q>
0

> <r_epik_Metal_State_Penalty>
-0

> <b_epik_Metal_Only>
0

> <s_lp_Force_Field>
OPLS_2005

> <r_lp_Energy>
46.0194

> <b_lp_Chiralities_Consistent>
1

> <s_lp_Variant>
AV-unprocessed.smi:3277-3

> <Gold.Version>
5.8.1

> <Gold.Id.Protein>
6NUR|6NUR_protein|mol2

> <Gold.PLP.Fitness>
44.1863

> <Gold.PLP.PLP>
-41.0984

> <Gold.PLP.part.hbond>
-1.7485

> <Gold.PLP.part.metal>
0.0000

> <Gold.PLP.part.buried>
-3.4097

> <Gold.PLP.part.nonpolar>
-36.1311

> <Gold.PLP.part.repulsive>
0.0704

> <Gold.PLP.ligand.clash>
0.0000

> <Gold.PLP.ligand.torsion>
0.4558

> <Gold.PLP.Chemscore.Hbond>
1.3316

> <Gold.PLP.Chemscore.CHOScore>
0.0000

> <Gold.PLP.Chemscore.Metal>
0.0000

> <Gold.Chemscore.Hbonds>
donor molecule, donor type, donor heavy atom, donor atom, acceptor molecule, acceptor atom, score
      P1  H  7989  7998       L1     4  0.60
      P1  H  7997  8009       L1     4  0.34

> <Gold.PLP.Chemscore.Internal.Correction>
0.0047

> <Gold.Rescore>
     Score         DG    S(hbond)    S(metal)    S(lipo)     H(rot)  DE(clash)    DE(int)     intcor
     19.02     -19.40       0.97        0.00     122.22       1.41       0.00       0.38       ----

> <Gold.Chemscore.Fitness>
19.0177

> <Gold.Chemscore.DG>
-19.4013

> <Gold.Chemscore.ZeroCoef>
-5.4800

> <Gold.Chemscore.Hbond>
0.9692

> <Gold.Chemscore.Metal>
0.0000

> <Gold.Chemscore.Lipo>
122.2157

> <Gold.Chemscore.Internal_Hbond>
0.0000

> <Gold.Chemscore.DEClash>
0.0036

> <Gold.Chemscore.DEInternal>
0.3800

> <Gold.Chemscore.Rot>
1.4122

> <Gold.Chemscore.Internal.Correction>
   9.000000E+99

> <Gold.Chemscore.Hbonds>
donor molecule, donor type, donor heavy atom, donor atom, acceptor molecule, acceptor atom, score
      P1  H  7989  7998       L1     4  0.58
      P1  H  7997  8009       L1     4  0.34

> <Gold.Chemscore.Hbond.Weighted>
-3.2371

> <Gold.Chemscore.Metal.Weighted>
-0.0000

> <Gold.Chemscore.Lipo.Weighted>
-14.2992

> <Gold.Chemscore.Internal_Hbond.Weighted>
0.0000

> <Gold.Chemscore.DEClash.Weighted>
0.0036

> <Gold.Chemscore.DEInternal.Weighted>
0.3800

> <Gold.Chemscore.Rot.Weighted>
3.6151

> <Gold.Chemscore.Internal.Correction.Weighted>
   9.000000E+99

> <Gold.Protein.RotatedTorsions>
[ 6907 6896 6895 6894 ] final -130.12 input  -60.11 | X-H torsion
[ 7974 7965 7964 7962 ] final  166.80 input  175.53 | X-H torsion
[ 8008 7997 7996 7995 ] final -148.80 input   59.86 | X-H torsion
[ 10167 10162 10161 10158 ] final   56.39 input  -65.29 | X-H torsion
[ 10718 10713 10712 10709 ] final  -46.25 input   66.30 | X-H torsion
[ 10763 10752 10751 10750 ] final   65.04 input  -60.55 | X-H torsion
[ 11005 11000 10999 10996 ] final -105.90 input  -57.11 | X-H torsion

> <Gold.Protein.ActiveResidues>
 VAL166  LYS551  ARG553  GLY616  TRP617  ASP618  TYR619  PRO620  LYS621  CYS622 
 ASP623  PHE694  ASN695  SER759  ASP760  ASP761  ALA762  ILE779  LEU786  VAL792 
 PHE793  MET794  SER795  GLU796  ALA797  LYS798  CYS799  TRP800  GLU811  SER814 

> <Gold.Protein.RotatedAtoms>
  150.9362  133.6709  159.2800 H   0  0  0  0  0  0  0  0  0  0  0  0  # atno 6907 bound_to 6896
  151.4114  135.0984  159.9596 H   0  0  0  0  0  0  0  0  0  0  0  0  # atno 6908 bound_to 6896
  152.5048  133.8834  159.7412 H   0  0  0  0  0  0  0  0  0  0  0  0  # atno 6909 bound_to 6896
  144.7448  139.8668  143.6385 H   0  0  0  0  0  0  0  0  0  0  0  0  # atno 7974 bound_to 7965
  155.5974  140.0658  157.2742 H   0  0  0  0  0  0  0  0  0  0  0  0  # atno 8008 bound_to 7997
  154.4288  140.1824  156.1185 H   0  0  0  0  0  0  0  0  0  0  0  0  # atno 8009 bound_to 7997
  156.0186  140.3319  155.7018 H   0  0  0  0  0  0  0  0  0  0  0  0  # atno 8010 bound_to 7997
  140.2092  144.3907  150.6496 H   0  0  0  0  0  0  0  0  0  0  0  0  # atno 10167 bound_to 10162
  156.2201  130.4165  149.9003 H   0  0  0  0  0  0  0  0  0  0  0  0  # atno 10718 bound_to 10713
  153.0080  135.5371  154.6604 H   0  0  0  0  0  0  0  0  0  0  0  0  # atno 10763 bound_to 10752
  154.5814  135.2850  155.0731 H   0  0  0  0  0  0  0  0  0  0  0  0  # atno 10764 bound_to 10752
  154.1859  135.6508  153.5099 H   0  0  0  0  0  0  0  0  0  0  0  0  # atno 10765 bound_to 10752
  141.1031  133.8847  157.1790 H   0  0  0  0  0  0  0  0  0  0  0  0  # atno 11005 bound_to 11000
  146.1309  139.4344  143.0169 LP  0  0  0  0  0  0  0  0  0  0  0  0  # atno 17320 bound_to 7965
  145.7165  141.0089  143.1425 LP  0  0  0  0  0  0  0  0  0  0  0  0  # atno 17321 bound_to 7965
  140.6335  143.2191  151.6444 LP  0  0  0  0  0  0  0  0  0  0  0  0  # atno 17342 bound_to 10162
  139.5186  144.3278  152.0853 LP  0  0  0  0  0  0  0  0  0  0  0  0  # atno 17343 bound_to 10162
  156.6652  130.8798  151.3554 LP  0  0  0  0  0  0  0  0  0  0  0  0  # atno 17370 bound_to 10713
  157.7083  130.9411  150.1004 LP  0  0  0  0  0  0  0  0  0  0  0  0  # atno 17371 bound_to 10713
  139.9890  135.0071  156.9930 LP  0  0  0  0  0  0  0  0  0  0  0  0  # atno 17394 bound_to 11000
  140.4972  134.1134  155.7243 LP  0  0  0  0  0  0  0  0  0  0  0  0  # atno 17395 bound_to 11000

$$$$
