AV-unprocessed.smi:240|AV-procd|sdf|1839|dock8
  -GOLD-   2262020453D 1   1.00000     0.00000
 Structure written by MMmdl.
 55 59  0  0  0  0  0  0  0  0  1 V2000
  149.5557  138.6102  153.5755 O   0  0  0  0  0  0  0  0  0  0  0  0
  149.7701  139.1784  154.8508 C   0  0  1  0  0  0  0  0  0  0  0  0
  149.6659  140.7021  154.8073 C   0  0  0  0  0  0  0  0  0  0  0  0
  149.4017  141.1005  156.2616 C   0  0  0  0  0  0  0  0  0  0  0  0
  148.6996  139.8983  156.9142 C   0  0  0  0  0  0  0  0  0  0  0  0
  148.6812  138.7763  155.8568 C   0  0  2  0  0  0  0  0  0  0  0  0
  148.7604  137.3177  156.4036 C   0  0  1  0  0  0  0  0  0  0  0  0
  149.4570  137.2080  157.7848 C   0  0  0  0  0  0  0  0  0  0  0  0
  149.5067  135.8503  158.2074 O   0  0  0  0  0  0  0  0  0  0  0  0
  148.2078  135.2969  158.3676 C   0  0  0  0  0  0  0  0  0  0  0  0
  147.4924  135.3088  157.0108 C   0  0  0  0  0  0  0  0  0  0  0  0
  147.4456  136.6638  156.4735 N   0  0  0  0  0  0  0  0  0  0  0  0
  146.6766  136.7090  155.3622 C   0  0  0  0  0  0  0  0  0  0  0  0
  145.7879  137.7284  155.2714 N   0  0  0  0  0  0  0  0  0  0  0  0
  145.0087  137.8405  154.1914 C   0  0  0  0  0  0  0  0  0  0  0  0
  144.9554  137.0535  153.1147 N   0  0  0  0  0  0  0  0  0  0  0  0
  145.8370  136.0170  153.2116 C   0  0  0  0  0  0  0  0  0  0  0  0
  146.7297  135.7705  154.2922 C   0  0  0  0  0  0  0  0  0  0  0  0
  147.4780  134.6278  154.0371 N   0  0  0  0  0  0  0  0  0  0  0  0
  147.0588  134.2278  152.8678 C   0  0  0  0  0  0  0  0  0  0  0  0
  146.0655  134.9967  152.3039 N   0  0  0  0  0  0  0  0  0  0  0  0
  145.4247  134.7875  151.0136 C   0  0  0  0  0  0  0  0  0  0  0  0
  144.2643  133.7597  151.0331 C   0  0  2  0  0  0  0  0  0  0  0  0
  143.1187  134.3553  151.6140 O   0  0  0  0  0  0  0  0  0  0  0  0
  144.5864  132.4625  151.7793 C   0  0  0  0  0  0  0  0  0  0  0  0
  144.9225  131.4917  150.6563 C   0  0  0  0  0  0  0  0  0  0  0  0
  143.9859  131.8491  149.6566 O   0  0  0  0  0  0  0  0  0  0  0  0
  143.9221  133.2687  149.6113 C   0  0  0  0  0  0  0  0  0  0  0  0
  149.7717  139.2551  152.9192 H   0  0  0  0  0  0  0  0  0  0  0  0
  150.7636  138.9079  155.2056 H   0  0  0  0  0  0  0  0  0  0  0  0
  150.5585  141.1748  154.3963 H   0  0  0  0  0  0  0  0  0  0  0  0
  148.8169  141.0028  154.1911 H   0  0  0  0  0  0  0  0  0  0  0  0
  150.3488  141.2886  156.7691 H   0  0  0  0  0  0  0  0  0  0  0  0
  148.8081  142.0126  156.3299 H   0  0  0  0  0  0  0  0  0  0  0  0
  149.2358  139.6082  157.8166 H   0  0  0  0  0  0  0  0  0  0  0  0
  147.6840  140.1519  157.2199 H   0  0  0  0  0  0  0  0  0  0  0  0
  147.7392  138.8878  155.3170 H   0  0  0  0  0  0  0  0  0  0  0  0
  149.3697  136.7429  155.7063 H   0  0  0  0  0  0  0  0  0  0  0  0
  150.4845  137.5641  157.7343 H   0  0  0  0  0  0  0  0  0  0  0  0
  148.9520  137.8026  158.5460 H   0  0  0  0  0  0  0  0  0  0  0  0
  148.2989  134.2752  158.7362 H   0  0  0  0  0  0  0  0  0  0  0  0
  147.6445  135.8588  159.1145 H   0  0  0  0  0  0  0  0  0  0  0  0
  148.0157  134.6548  156.3116 H   0  0  0  0  0  0  0  0  0  0  0  0
  146.4811  134.9151  157.1245 H   0  0  0  0  0  0  0  0  0  0  0  0
  144.3329  138.6828  154.1881 H   0  0  0  0  0  0  0  0  0  0  0  0
  147.4655  133.3526  152.3824 H   0  0  0  0  0  0  0  0  0  0  0  0
  145.0608  135.7527  150.6587 H   0  0  0  0  0  0  0  0  0  0  0  0
  146.1903  134.4731  150.3031 H   0  0  0  0  0  0  0  0  0  0  0  0
  142.3774  134.1912  151.0513 H   0  0  0  0  0  0  0  0  0  0  0  0
  145.3891  132.5479  152.5097 H   0  0  0  0  0  0  0  0  0  0  0  0
  143.7068  132.0912  152.3077 H   0  0  0  0  0  0  0  0  0  0  0  0
  145.9379  131.6494  150.2892 H   0  0  0  0  0  0  0  0  0  0  0  0
  144.8172  130.4482  150.9536 H   0  0  0  0  0  0  0  0  0  0  0  0
  142.9404  133.5947  149.2651 H   0  0  0  0  0  0  0  0  0  0  0  0
  144.6561  133.6205  148.8848 H   0  0  0  0  0  0  0  0  0  0  0  0
  1  2  1  0  0  0  0
  1 29  1  0  0  0  0
  2  6  1  0  0  0  0
  2  3  1  0  0  0  0
  2 30  1  0  0  0  0
  3  4  1  0  0  0  0
  3 31  1  0  0  0  0
  3 32  1  0  0  0  0
  4  5  1  0  0  0  0
  4 33  1  0  0  0  0
  4 34  1  0  0  0  0
  5  6  1  0  0  0  0
  5 35  1  0  0  0  0
  5 36  1  0  0  0  0
  6  7  1  0  0  0  0
  6 37  1  0  0  0  0
  7 12  1  0  0  0  0
  7  8  1  0  0  0  0
  7 38  1  0  0  0  0
  8  9  1  0  0  0  0
  8 39  1  0  0  0  0
  8 40  1  0  0  0  0
  9 10  1  0  0  0  0
 10 11  1  0  0  0  0
 10 41  1  0  0  0  0
 10 42  1  0  0  0  0
 11 12  1  0  0  0  0
 11 43  1  0  0  0  0
 11 44  1  0  0  0  0
 12 13  1  0  0  0  0
 13 18  1  0  0  0  0
 13 14  2  0  0  0  0
 14 15  1  0  0  0  0
 15 16  2  0  0  0  0
 15 45  1  0  0  0  0
 16 17  1  0  0  0  0
 17 21  1  0  0  0  0
 17 18  2  0  0  0  0
 18 19  1  0  0  0  0
 19 20  2  0  0  0  0
 20 21  1  0  0  0  0
 20 46  1  0  0  0  0
 21 22  1  0  0  0  0
 22 23  1  0  0  0  0
 22 47  1  0  0  0  0
 22 48  1  0  0  0  0
 23 28  1  0  0  0  0
 23 24  1  0  0  0  0
 23 25  1  0  0  0  0
 24 49  1  0  0  0  0
 25 26  1  0  0  0  0
 25 50  1  0  0  0  0
 25 51  1  0  0  0  0
 26 27  1  0  0  0  0
 26 52  1  0  0  0  0
 26 53  1  0  0  0  0
 27 28  1  0  0  0  0
 28 54  1  0  0  0  0
 28 55  1  0  0  0  0
M  END
> <s_m_source_file>
AV-unprocessed.smi

> <i_m_source_file_index>
240

> <i_lp_mmshare_version>
43012

> <i_f3d_flags>
0

> <s_epik_input>
W09IXVtDQEBIXTFbQ0gyXVtDSDJdW0NIMl1bQ0BIXTFbQ0BASF0yW0NIMl1PW0NIMl1bQ0gyXU4yYyhuW2NIXW4zKWMoYzM0KW5bY0hdbjRbQ0gyXVtDQEBdNShbT0hdKVtDSDJdW0NIMl1PW0NIMl01

> <s_epik_cmdline>
J2VwaWtfcHl0aG9uJywgJy1waCcsICc3LjAnLCAnLXRuJywgJzgnLCAnLW1hJywgJzIwMCcsICctbWV0YWxfYmluZGluZycsICctaW1hZScsICc8aW5maWxlLm1hZT4nLCAnLW9tYWUnLCAnPG91dGZpbGUubWFlPic=

> <r_lp_tautomer_probability>
1

> <r_epik_Ionization_Penalty>
0.000130618

> <r_epik_Ionization_Penalty_Charging>
0

> <r_epik_Ionization_Penalty_Neutral>
0.000130618

> <r_epik_State_Penalty>
-0

> <r_epik_Charging_Adjusted_Penalty>
0

> <i_epik_Tot_Q>
0

> <i_epik_Tot_abs_Q>
0

> <r_epik_Metal_State_Penalty>
-0

> <b_epik_Metal_Only>
0

> <s_lp_Force_Field>
OPLS_2005

> <r_lp_Energy>
62.6221

> <b_lp_Chiralities_Consistent>
1

> <s_lp_Variant>
AV-unprocessed.smi:240-16

> <Gold.Version>
5.8.1

> <Gold.Id.Protein>
6NUR|6NUR_protein|mol2

> <Gold.PLP.Fitness>
38.5973

> <Gold.PLP.PLP>
-28.9582

> <Gold.PLP.part.hbond>
-4.8582

> <Gold.PLP.part.metal>
0.0000

> <Gold.PLP.part.buried>
-1.0716

> <Gold.PLP.part.nonpolar>
-22.7294

> <Gold.PLP.part.repulsive>
0.7631

> <Gold.PLP.ligand.clash>
0.0000

> <Gold.PLP.ligand.torsion>
2.1120

> <Gold.PLP.Chemscore.Hbond>
3.5645

> <Gold.PLP.Chemscore.CHOScore>
0.9965

> <Gold.PLP.Chemscore.Metal>
0.0000

> <Gold.Chemscore.Hbonds>
donor molecule, donor type, donor heavy atom, donor atom, acceptor molecule, acceptor atom, score
      L1  H     1    29       P1  7957  1.00
      L1  H    24    49       P1 10186  0.89
      P1  H  6896  6908       L1     9  0.63
      P1  H 10785 10796       L1    27  0.66
      L1  C    15    45       P1 10175  0.95

> <Gold.PLP.Chemscore.Internal.Correction>
0.1800

> <Gold.Rescore>
     Score         DG    S(hbond)    S(metal)    S(lipo)     H(rot)  DE(clash)    DE(int)     intcor
     11.73     -14.13       2.56        0.00      66.67       3.00       0.13       2.27       ----

> <Gold.Chemscore.Fitness>
11.7337

> <Gold.Chemscore.DG>
-14.1289

> <Gold.Chemscore.ZeroCoef>
-5.4800

> <Gold.Chemscore.Hbond>
2.5564

> <Gold.Chemscore.Metal>
0.0000

> <Gold.Chemscore.Lipo>
66.6689

> <Gold.Chemscore.Internal_Hbond>
0.0000

> <Gold.Chemscore.DEClash>
0.1299

> <Gold.Chemscore.DEInternal>
2.2652

> <Gold.Chemscore.Rot>
3.0039

> <Gold.Chemscore.Internal.Correction>
   9.000000E+99

> <Gold.Chemscore.Hbonds>
donor molecule, donor type, donor heavy atom, donor atom, acceptor molecule, acceptor atom, score
      L1  H     1    29       P1  7957  0.95
      L1  H    24    49       P1 10186  0.17
      P1  H  6896  6908       L1     9  0.22
      P1  H 10785 10796       L1    27  0.47

> <Gold.Chemscore.Hbond.Weighted>
-8.5385

> <Gold.Chemscore.Metal.Weighted>
-0.0000

> <Gold.Chemscore.Lipo.Weighted>
-7.8003

> <Gold.Chemscore.Internal_Hbond.Weighted>
0.0000

> <Gold.Chemscore.DEClash.Weighted>
0.1299

> <Gold.Chemscore.DEInternal.Weighted>
2.2652

> <Gold.Chemscore.Rot.Weighted>
7.6899

> <Gold.Chemscore.Internal.Correction.Weighted>
   9.000000E+99

> <Gold.Protein.RotatedTorsions>
[ 6907 6896 6895 6894 ] final  170.91 input  -60.11 | X-H torsion
[ 7974 7965 7964 7962 ] final   88.00 input  175.53 | X-H torsion
[ 8008 7997 7996 7995 ] final  -46.23 input   59.86 | X-H torsion
[ 10167 10162 10161 10158 ] final -140.44 input  -65.29 | X-H torsion
[ 10718 10713 10712 10709 ] final  155.65 input   66.30 | X-H torsion
[ 10763 10752 10751 10750 ] final -156.54 input  -60.55 | X-H torsion
[ 11005 11000 10999 10996 ] final   69.59 input  -57.11 | X-H torsion

> <Gold.Protein.ActiveResidues>
 VAL166  LYS551  ARG553  GLY616  TRP617  ASP618  TYR619  PRO620  LYS621  CYS622 
 ASP623  PHE694  ASN695  SER759  ASP760  ASP761  ALA762  ILE779  LEU786  VAL792 
 PHE793  MET794  SER795  GLU796  ALA797  LYS798  CYS799  TRP800  GLU811  SER814 

> <Gold.Protein.RotatedAtoms>
  151.8086  133.3379  159.3548 H   0  0  0  0  0  0  0  0  0  0  0  0  # atno 6907 bound_to 6896
  150.7334  134.5686  159.5888 H   0  0  0  0  0  0  0  0  0  0  0  0  # atno 6908 bound_to 6896
  152.3091  134.7520  160.0391 H   0  0  0  0  0  0  0  0  0  0  0  0  # atno 6909 bound_to 6896
  145.5515  139.2296  143.2510 H   0  0  0  0  0  0  0  0  0  0  0  0  # atno 7974 bound_to 7965
  154.4006  140.1377  156.3977 H   0  0  0  0  0  0  0  0  0  0  0  0  # atno 8008 bound_to 7997
  155.7854  140.3480  155.5299 H   0  0  0  0  0  0  0  0  0  0  0  0  # atno 8009 bound_to 7997
  155.8632  140.0960  157.1590 H   0  0  0  0  0  0  0  0  0  0  0  0  # atno 8010 bound_to 7997
  139.8281  143.7483  152.2666 H   0  0  0  0  0  0  0  0  0  0  0  0  # atno 10167 bound_to 10162
  157.2155  131.0707  151.1944 H   0  0  0  0  0  0  0  0  0  0  0  0  # atno 10718 bound_to 10713
  154.7705  135.3144  154.8199 H   0  0  0  0  0  0  0  0  0  0  0  0  # atno 10763 bound_to 10752
  153.8936  135.6823  153.4763 H   0  0  0  0  0  0  0  0  0  0  0  0  # atno 10764 bound_to 10752
  153.1318  135.4777  154.9295 H   0  0  0  0  0  0  0  0  0  0  0  0  # atno 10765 bound_to 10752
  139.9645  134.7004  156.0574 H   0  0  0  0  0  0  0  0  0  0  0  0  # atno 11005 bound_to 11000
  146.1914  140.6338  142.9144 LP  0  0  0  0  0  0  0  0  0  0  0  0  # atno 17320 bound_to 7965
  144.7527  140.5231  143.6790 LP  0  0  0  0  0  0  0  0  0  0  0  0  # atno 17321 bound_to 7965
  139.7682  144.7485  151.0263 LP  0  0  0  0  0  0  0  0  0  0  0  0  # atno 17342 bound_to 10162
  140.7808  143.4674  151.0193 LP  0  0  0  0  0  0  0  0  0  0  0  0  # atno 17343 bound_to 10162
  157.3629  130.7140  149.6513 LP  0  0  0  0  0  0  0  0  0  0  0  0  # atno 17370 bound_to 10713
  155.9687  130.4220  150.4498 LP  0  0  0  0  0  0  0  0  0  0  0  0  # atno 17371 bound_to 10713
  141.1324  133.6583  156.3501 LP  0  0  0  0  0  0  0  0  0  0  0  0  # atno 17394 bound_to 11000
  140.5426  134.6105  157.5384 LP  0  0  0  0  0  0  0  0  0  0  0  0  # atno 17395 bound_to 11000

$$$$
