AV-unprocessed.smi:2528|AV-procd|sdf|9956|dock9
  -GOLD-   2272013593D 1   1.00000     0.00000
 Structure written by MMmdl.
 43 45  0  0  0  0  0  0  0  0  1 V2000
  144.5544  136.5731  152.1398 O   0  0  0  0  0  0  0  0  0  0  0  0
  145.7688  136.4767  151.9594 C   0  0  0  0  0  0  0  0  0  0  0  0
  146.6344  137.4649  152.2275 N   0  0  0  0  0  0  0  0  0  0  0  0
  146.2699  138.7674  152.7755 C   0  0  0  0  0  0  0  0  0  0  0  0
  147.4976  139.6064  153.1754 C   0  0  2  0  0  0  0  0  0  0  0  0
  148.5563  138.8010  153.9560 C   0  0  0  0  0  0  0  0  0  0  0  0
  149.6636  139.6404  154.3969 N   0  0  0  0  0  0  0  0  0  0  0  0
  150.6496  138.8672  155.1502 C   0  0  0  0  0  0  0  0  0  0  0  0
  151.8458  139.7208  155.6010 C   0  0  0  0  0  0  0  0  0  0  0  0
  151.3633  140.9193  156.4302 C   0  0  0  0  0  0  0  0  0  0  0  0
  150.2904  141.6986  155.6541 C   0  0  0  0  0  0  0  0  0  0  0  0
  149.1547  140.7624  155.1916 C   0  0  1  0  0  0  0  0  0  0  0  0
  148.0864  141.5511  154.4079 C   0  0  0  0  0  0  0  0  0  0  0  0
  147.0415  140.6751  153.9991 O   0  0  0  0  0  0  0  0  0  0  0  0
  146.4008  135.3905  151.4811 N   0  0  0  0  0  0  0  0  0  0  0  0
  145.8338  134.1483  151.0888 C   0  0  0  0  0  0  0  0  0  0  0  0
  144.4613  134.1942  150.7537 C   0  0  0  0  0  0  0  0  0  0  0  0
  143.8065  133.0139  150.3513 C   0  0  0  0  0  0  0  0  0  0  0  0
  144.5412  131.8161  150.2964 C   0  0  0  0  0  0  0  0  0  0  0  0
  145.9029  131.8567  150.6476 C   0  0  0  0  0  0  0  0  0  0  0  0
  146.5325  132.9867  151.0324 N   0  0  0  0  0  0  0  0  0  0  0  0
  147.6152  137.3033  152.0510 H   0  0  0  0  0  0  0  0  0  0  0  0
  145.6642  139.3119  152.0491 H   0  0  0  0  0  0  0  0  0  0  0  0
  145.6325  138.6048  153.6451 H   0  0  0  0  0  0  0  0  0  0  0  0
  147.9512  140.0317  152.2782 H   0  0  0  0  0  0  0  0  0  0  0  0
  148.0855  138.3277  154.8192 H   0  0  0  0  0  0  0  0  0  0  0  0
  148.9390  137.9949  153.3294 H   0  0  0  0  0  0  0  0  0  0  0  0
  150.1772  138.4177  156.0251 H   0  0  0  0  0  0  0  0  0  0  0  0
  151.0126  138.0416  154.5371 H   0  0  0  0  0  0  0  0  0  0  0  0
  152.5410  139.1164  156.1841 H   0  0  0  0  0  0  0  0  0  0  0  0
  152.3949  140.0741  154.7270 H   0  0  0  0  0  0  0  0  0  0  0  0
  150.9481  140.5671  157.3753 H   0  0  0  0  0  0  0  0  0  0  0  0
  152.2009  141.5713  156.6794 H   0  0  0  0  0  0  0  0  0  0  0  0
  149.8910  142.4971  156.2801 H   0  0  0  0  0  0  0  0  0  0  0  0
  150.7468  142.1810  154.7885 H   0  0  0  0  0  0  0  0  0  0  0  0
  148.6730  140.3613  156.0850 H   0  0  0  0  0  0  0  0  0  0  0  0
  147.6591  142.3376  155.0304 H   0  0  0  0  0  0  0  0  0  0  0  0
  148.5221  142.0375  153.5335 H   0  0  0  0  0  0  0  0  0  0  0  0
  147.4043  135.4560  151.3971 H   0  0  0  0  0  0  0  0  0  0  0  0
  143.9119  135.1233  150.8010 H   0  0  0  0  0  0  0  0  0  0  0  0
  142.7589  133.0282  150.0895 H   0  0  0  0  0  0  0  0  0  0  0  0
  144.0740  130.8908  149.9933 H   0  0  0  0  0  0  0  0  0  0  0  0
  146.5029  130.9592  150.6191 H   0  0  0  0  0  0  0  0  0  0  0  0
  1  2  2  0  0  0  0
  2  3  1  0  0  0  0
  2 15  1  0  0  0  0
  3  4  1  0  0  0  0
  3 22  1  0  0  0  0
  4  5  1  0  0  0  0
  4 23  1  0  0  0  0
  4 24  1  0  0  0  0
  5 14  1  0  0  0  0
  5  6  1  0  0  0  0
  5 25  1  0  0  0  0
  6  7  1  0  0  0  0
  6 26  1  0  0  0  0
  6 27  1  0  0  0  0
  7 12  1  0  0  0  0
  7  8  1  0  0  0  0
  8  9  1  0  0  0  0
  8 28  1  0  0  0  0
  8 29  1  0  0  0  0
  9 10  1  0  0  0  0
  9 30  1  0  0  0  0
  9 31  1  0  0  0  0
 10 11  1  0  0  0  0
 10 32  1  0  0  0  0
 10 33  1  0  0  0  0
 11 12  1  0  0  0  0
 11 34  1  0  0  0  0
 11 35  1  0  0  0  0
 12 13  1  0  0  0  0
 12 36  1  0  0  0  0
 13 14  1  0  0  0  0
 13 37  1  0  0  0  0
 13 38  1  0  0  0  0
 15 16  1  0  0  0  0
 15 39  1  0  0  0  0
 16 21  1  0  0  0  0
 16 17  2  0  0  0  0
 17 18  1  0  0  0  0
 17 40  1  0  0  0  0
 18 19  2  0  0  0  0
 18 41  1  0  0  0  0
 19 20  1  0  0  0  0
 19 42  1  0  0  0  0
 20 21  2  0  0  0  0
 20 43  1  0  0  0  0
M  END
> <s_m_source_file>
AV-unprocessed.smi

> <i_m_source_file_index>
2528

> <i_lp_mmshare_version>
43012

> <i_f3d_flags>
0

> <s_epik_input>
bjFbY0hdW2NIXVtjSF1bY0hdYzFbTkhdQyg9TylbTkhdW0NIMl1bQ0BIXShbQ0gyXTIpT1tDSDJdW0NAQEhdKE4yMylbQ0gyXVtDSDJdW0NIMl1bQ0gyXTM=

> <s_epik_cmdline>
J2VwaWtfcHl0aG9uJywgJy1waCcsICc3LjAnLCAnLXRuJywgJzgnLCAnLW1hJywgJzIwMCcsICctbWV0YWxfYmluZGluZycsICctaW1hZScsICc8aW5maWxlLm1hZT4nLCAnLW9tYWUnLCAnPG91dGZpbGUubWFlPic=

> <r_epik_Ionization_Penalty>
1.14192

> <r_epik_Ionization_Penalty_Charging>
0

> <r_epik_Ionization_Penalty_Neutral>
1.14192

> <r_epik_State_Penalty>
1.20248

> <r_epik_Charging_Adjusted_Penalty>
1.20248

> <i_epik_Tot_Q>
0

> <i_epik_Tot_abs_Q>
0

> <r_epik_Metal_State_Penalty>
1.20248

> <b_epik_Metal_Only>
0

> <s_lp_Force_Field>
OPLS_2005

> <r_lp_Energy>
34.3645

> <b_lp_Chiralities_Consistent>
1

> <s_lp_Variant>
AV-unprocessed.smi:2528-9

> <Gold.Version>
5.8.1

> <Gold.Id.Protein>
6NUR|6NUR_protein|mol2

> <Gold.PLP.Fitness>
45.2719

> <Gold.PLP.PLP>
-36.9932

> <Gold.PLP.part.hbond>
-2.0000

> <Gold.PLP.part.metal>
0.0000

> <Gold.PLP.part.buried>
-2.2153

> <Gold.PLP.part.nonpolar>
-33.6041

> <Gold.PLP.part.repulsive>
0.7951

> <Gold.PLP.ligand.clash>
0.0000

> <Gold.PLP.ligand.torsion>
0.2520

> <Gold.PLP.Chemscore.Hbond>
2.0000

> <Gold.PLP.Chemscore.CHOScore>
0.9275

> <Gold.PLP.Chemscore.Metal>
0.0000

> <Gold.Chemscore.Hbonds>
donor molecule, donor type, donor heavy atom, donor atom, acceptor molecule, acceptor atom, score
      L1  H     3    22       P1  7948  1.00
      L1  H    15    39       P1  7948  1.00
      L1  C    20    43       P1 10747  0.93

> <Gold.PLP.Chemscore.Internal.Correction>
0.0003

> <Gold.Rescore>
     Score         DG    S(hbond)    S(metal)    S(lipo)     H(rot)  DE(clash)    DE(int)     intcor
     17.52     -19.60       1.88        0.00      94.68       1.27       0.38       1.69       ----

> <Gold.Chemscore.Fitness>
17.5244

> <Gold.Chemscore.DG>
-19.5972

> <Gold.Chemscore.ZeroCoef>
-5.4800

> <Gold.Chemscore.Hbond>
1.8832

> <Gold.Chemscore.Metal>
0.0000

> <Gold.Chemscore.Lipo>
94.6796

> <Gold.Chemscore.Internal_Hbond>
0.0000

> <Gold.Chemscore.DEClash>
0.3833

> <Gold.Chemscore.DEInternal>
1.6895

> <Gold.Chemscore.Rot>
1.2696

> <Gold.Chemscore.Internal.Correction>
   9.000000E+99

> <Gold.Chemscore.Hbonds>
donor molecule, donor type, donor heavy atom, donor atom, acceptor molecule, acceptor atom, score
      L1  H     3    22       P1  7948  0.95
      L1  H    15    39       P1  7948  0.85

> <Gold.Chemscore.Hbond.Weighted>
-6.2899

> <Gold.Chemscore.Metal.Weighted>
-0.0000

> <Gold.Chemscore.Lipo.Weighted>
-11.0775

> <Gold.Chemscore.Internal_Hbond.Weighted>
0.0000

> <Gold.Chemscore.DEClash.Weighted>
0.3833

> <Gold.Chemscore.DEInternal.Weighted>
1.6895

> <Gold.Chemscore.Rot.Weighted>
3.2502

> <Gold.Chemscore.Internal.Correction.Weighted>
   9.000000E+99

> <Gold.Protein.RotatedTorsions>
[ 6907 6896 6895 6894 ] final  -58.81 input  -60.11 | X-H torsion
[ 7974 7965 7964 7962 ] final  -38.24 input  175.53 | X-H torsion
[ 8008 7997 7996 7995 ] final  116.42 input   59.86 | X-H torsion
[ 10167 10162 10161 10158 ] final  151.77 input  -65.29 | X-H torsion
[ 10718 10713 10712 10709 ] final -169.94 input   66.30 | X-H torsion
[ 10763 10752 10751 10750 ] final   83.78 input  -60.55 | X-H torsion
[ 11005 11000 10999 10996 ] final  -94.44 input  -57.11 | X-H torsion

> <Gold.Protein.ActiveResidues>
 VAL166  LYS551  ARG553  GLY616  TRP617  ASP618  TYR619  PRO620  LYS621  CYS622 
 ASP623  PHE694  ASN695  SER759  ASP760  ASP761  ALA762  ILE779  LEU786  VAL792 
 PHE793  MET794  SER795  GLU796  ALA797  LYS798  CYS799  TRP800  GLU811  SER814 

> <Gold.Protein.RotatedAtoms>
  150.7978  134.7050  159.6571 H   0  0  0  0  0  0  0  0  0  0  0  0  # atno 6907 bound_to 6896
  152.4092  134.6151  160.0045 H   0  0  0  0  0  0  0  0  0  0  0  0  # atno 6908 bound_to 6896
  151.6399  133.3289  159.3164 H   0  0  0  0  0  0  0  0  0  0  0  0  # atno 6909 bound_to 6896
  146.0504  140.6488  142.9044 H   0  0  0  0  0  0  0  0  0  0  0  0  # atno 7974 bound_to 7965
  156.2438  140.2918  156.0521 H   0  0  0  0  0  0  0  0  0  0  0  0  # atno 8008 bound_to 7997
  155.1870  140.0406  157.2910 H   0  0  0  0  0  0  0  0  0  0  0  0  # atno 8009 bound_to 7997
  154.6221  140.2478  155.7544 H   0  0  0  0  0  0  0  0  0  0  0  0  # atno 8010 bound_to 7997
  139.4838  144.5414  151.7558 H   0  0  0  0  0  0  0  0  0  0  0  0  # atno 10167 bound_to 10162
  156.7188  130.9262  151.3096 H   0  0  0  0  0  0  0  0  0  0  0  0  # atno 10718 bound_to 10713
  153.1322  135.4678  154.9366 H   0  0  0  0  0  0  0  0  0  0  0  0  # atno 10763 bound_to 10752
  154.7674  135.3149  154.8261 H   0  0  0  0  0  0  0  0  0  0  0  0  # atno 10764 bound_to 10752
  153.8801  135.6895  153.4821 H   0  0  0  0  0  0  0  0  0  0  0  0  # atno 10765 bound_to 10752
  141.1470  133.7956  157.0298 H   0  0  0  0  0  0  0  0  0  0  0  0  # atno 11005 bound_to 11000
  144.7120  140.4072  143.7073 LP  0  0  0  0  0  0  0  0  0  0  0  0  # atno 17320 bound_to 7965
  145.6734  139.1603  143.2742 LP  0  0  0  0  0  0  0  0  0  0  0  0  # atno 17321 bound_to 7965
  140.4954  144.1249  150.5959 LP  0  0  0  0  0  0  0  0  0  0  0  0  # atno 17342 bound_to 10162
  140.4124  143.2650  151.9817 LP  0  0  0  0  0  0  0  0  0  0  0  0  # atno 17343 bound_to 10162
  157.6906  130.9230  150.0504 LP  0  0  0  0  0  0  0  0  0  0  0  0  # atno 17370 bound_to 10713
  156.1609  130.3644  149.9301 LP  0  0  0  0  0  0  0  0  0  0  0  0  # atno 17371 bound_to 10713
  140.0761  134.9675  157.1548 LP  0  0  0  0  0  0  0  0  0  0  0  0  # atno 17394 bound_to 11000
  140.3642  134.2461  155.7184 LP  0  0  0  0  0  0  0  0  0  0  0  0  # atno 17395 bound_to 11000

$$$$
