AV-unprocessed.smi:1102|AV-procd|sdf|4769|dock4
  -GOLD-   22720 3303D 1   1.00000     0.00000
 Structure written by MMmdl.
 39 40  0  0  0  0  0  0  0  0  1 V2000
  152.2190  144.6396  157.9228 C   0  0  0  0  0  0  0  0  0  0  0  0
  152.0117  144.4131  159.3474 N   0  0  0  0  0  0  0  0  0  0  0  0
  151.2050  145.3496  160.1233 C   0  0  0  0  0  0  0  0  0  0  0  0
  152.6319  143.3185  159.9925 C   0  0  0  0  0  0  0  0  0  0  0  0
  153.0112  142.1555  159.2772 C   0  0  0  0  0  0  0  0  0  0  0  0
  153.6256  141.0935  159.9677 C   0  0  0  0  0  0  0  0  0  0  0  0
  153.8422  141.2044  161.3544 C   0  0  0  0  0  0  0  0  0  0  0  0
  154.4840  140.1256  162.0205 N   0  0  0  0  0  0  0  0  0  0  0  0
  154.7835  138.9062  161.5411 C   0  0  0  0  0  0  0  0  0  0  0  0
  154.5989  138.5319  160.3832 O   0  0  0  0  0  0  0  0  0  0  0  0
  155.3375  138.1365  162.4884 N   0  0  0  0  0  0  0  0  0  0  0  0
  155.7598  136.7524  162.3037 C   0  0  0  0  0  0  0  0  0  0  0  0
  154.7471  135.7674  162.9115 C   0  0  2  0  0  0  0  0  0  0  0  0
  154.4831  136.0019  164.3983 C   0  0  0  0  0  0  0  0  0  0  0  0
  154.0229  134.6345  164.8478 C   0  0  0  0  0  0  0  0  0  0  0  0
  154.9385  133.7217  164.0389 C   0  0  0  0  0  0  0  0  0  0  0  0
  155.2224  134.4247  162.8325 O   0  0  0  0  0  0  0  0  0  0  0  0
  153.4420  142.4061  161.9843 C   0  0  0  0  0  0  0  0  0  0  0  0
  152.8541  143.4267  161.3253 N   0  0  0  0  0  0  0  0  0  0  0  0
  153.2780  144.7862  157.7082 H   0  0  0  0  0  0  0  0  0  0  0  0
  151.6847  145.5256  157.5800 H   0  0  0  0  0  0  0  0  0  0  0  0
  151.8581  143.7901  157.3423 H   0  0  0  0  0  0  0  0  0  0  0  0
  151.8085  145.8244  160.8977 H   0  0  0  0  0  0  0  0  0  0  0  0
  150.3716  144.8332  160.6007 H   0  0  0  0  0  0  0  0  0  0  0  0
  150.7914  146.1370  159.4931 H   0  0  0  0  0  0  0  0  0  0  0  0
  152.8451  142.0566  158.2153 H   0  0  0  0  0  0  0  0  0  0  0  0
  153.9235  140.2026  159.4344 H   0  0  0  0  0  0  0  0  0  0  0  0
  154.7801  140.3161  162.9665 H   0  0  0  0  0  0  0  0  0  0  0  0
  155.4588  138.5293  163.4103 H   0  0  0  0  0  0  0  0  0  0  0  0
  155.9270  136.5328  161.2478 H   0  0  0  0  0  0  0  0  0  0  0  0
  156.7242  136.6347  162.7984 H   0  0  0  0  0  0  0  0  0  0  0  0
  153.7999  135.8185  162.3718 H   0  0  0  0  0  0  0  0  0  0  0  0
  155.4045  136.2719  164.9166 H   0  0  0  0  0  0  0  0  0  0  0  0
  153.7456  136.7839  164.5815 H   0  0  0  0  0  0  0  0  0  0  0  0
  154.1100  134.4820  165.9238 H   0  0  0  0  0  0  0  0  0  0  0  0
  152.9824  134.4760  164.5610 H   0  0  0  0  0  0  0  0  0  0  0  0
  155.8765  133.5546  164.5695 H   0  0  0  0  0  0  0  0  0  0  0  0
  154.4858  132.7507  163.8376 H   0  0  0  0  0  0  0  0  0  0  0  0
  153.6068  142.5855  163.0351 H   0  0  0  0  0  0  0  0  0  0  0  0
  1  2  1  0  0  0  0
  1 20  1  0  0  0  0
  1 21  1  0  0  0  0
  1 22  1  0  0  0  0
  2  3  1  0  0  0  0
  2  4  1  0  0  0  0
  3 23  1  0  0  0  0
  3 24  1  0  0  0  0
  3 25  1  0  0  0  0
  4 19  1  0  0  0  0
  4  5  2  0  0  0  0
  5  6  1  0  0  0  0
  5 26  1  0  0  0  0
  6  7  2  0  0  0  0
  6 27  1  0  0  0  0
  7  8  1  0  0  0  0
  7 18  1  0  0  0  0
  8  9  1  0  0  0  0
  8 28  1  0  0  0  0
  9 10  2  0  0  0  0
  9 11  1  0  0  0  0
 11 12  1  0  0  0  0
 11 29  1  0  0  0  0
 12 13  1  0  0  0  0
 12 30  1  0  0  0  0
 12 31  1  0  0  0  0
 13 17  1  0  0  0  0
 13 14  1  0  0  0  0
 13 32  1  0  0  0  0
 14 15  1  0  0  0  0
 14 33  1  0  0  0  0
 14 34  1  0  0  0  0
 15 16  1  0  0  0  0
 15 35  1  0  0  0  0
 15 36  1  0  0  0  0
 16 17  1  0  0  0  0
 16 37  1  0  0  0  0
 16 38  1  0  0  0  0
 18 19  2  0  0  0  0
 18 39  1  0  0  0  0
M  END
> <s_m_source_file>
AV-unprocessed.smi

> <i_m_source_file_index>
1102

> <i_lp_mmshare_version>
43012

> <i_f3d_flags>
0

> <s_epik_input>
W0NIM11OKFtDSDNdKWMxW2NIXVtjSF1jKFtjSF1uMSlbTkhdQyg9TylbTkhdW0NIMl1bQ0BASF0yW0NIMl1bQ0gyXVtDSDJdTzI=

> <s_epik_cmdline>
J2VwaWtfcHl0aG9uJywgJy1waCcsICc3LjAnLCAnLXRuJywgJzgnLCAnLW1hJywgJzIwMCcsICctbWV0YWxfYmluZGluZycsICctaW1hZScsICc8aW5maWxlLm1hZT4nLCAnLW9tYWUnLCAnPG91dGZpbGUubWFlPic=

> <r_lp_tautomer_probability>
1

> <r_epik_Ionization_Penalty>
0.605145

> <r_epik_Ionization_Penalty_Charging>
0

> <r_epik_Ionization_Penalty_Neutral>
0.605145

> <r_epik_State_Penalty>
0.618734

> <r_epik_Charging_Adjusted_Penalty>
0.618734

> <i_epik_Tot_Q>
0

> <i_epik_Tot_abs_Q>
0

> <r_epik_Metal_State_Penalty>
0.302184

> <b_epik_Metal_Only>
0

> <s_lp_Force_Field>
OPLS_2005

> <r_lp_Energy>
22.0104

> <b_lp_Chiralities_Consistent>
1

> <s_lp_Variant>
AV-unprocessed.smi:1102-3

> <Gold.Version>
5.8.1

> <Gold.Id.Protein>
6NUR|6NUR_protein|mol2

> <Gold.PLP.Fitness>
43.0549

> <Gold.PLP.PLP>
-43.8181

> <Gold.PLP.part.hbond>
0.0000

> <Gold.PLP.part.metal>
0.0000

> <Gold.PLP.part.buried>
-5.2261

> <Gold.PLP.part.nonpolar>
-38.3258

> <Gold.PLP.part.repulsive>
0.0875

> <Gold.PLP.ligand.clash>
0.0000

> <Gold.PLP.ligand.torsion>
0.3860

> <Gold.PLP.Chemscore.Hbond>
0.0000

> <Gold.PLP.Chemscore.CHOScore>
0.0000

> <Gold.PLP.Chemscore.Metal>
0.0000

> <Gold.PLP.Chemscore.Internal.Correction>
0.0089

> <Gold.Rescore>
     Score         DG    S(hbond)    S(metal)    S(lipo)     H(rot)  DE(clash)    DE(int)     intcor
     12.49     -14.28       0.00        0.00     101.80       1.21       0.00       1.79       ----

> <Gold.Chemscore.Fitness>
12.4915

> <Gold.Chemscore.DG>
-14.2816

> <Gold.Chemscore.ZeroCoef>
-5.4800

> <Gold.Chemscore.Hbond>
0.0000

> <Gold.Chemscore.Metal>
0.0000

> <Gold.Chemscore.Lipo>
101.8032

> <Gold.Chemscore.Internal_Hbond>
0.0000

> <Gold.Chemscore.DEClash>
0.0025

> <Gold.Chemscore.DEInternal>
1.7876

> <Gold.Chemscore.Rot>
1.2146

> <Gold.Chemscore.Internal.Correction>
   9.000000E+99

> <Gold.Chemscore.Hbond.Weighted>
-0.0000

> <Gold.Chemscore.Metal.Weighted>
-0.0000

> <Gold.Chemscore.Lipo.Weighted>
-11.9110

> <Gold.Chemscore.Internal_Hbond.Weighted>
0.0000

> <Gold.Chemscore.DEClash.Weighted>
0.0025

> <Gold.Chemscore.DEInternal.Weighted>
1.7876

> <Gold.Chemscore.Rot.Weighted>
3.1093

> <Gold.Chemscore.Internal.Correction.Weighted>
   9.000000E+99

> <Gold.Protein.RotatedTorsions>
[ 6907 6896 6895 6894 ] final -102.02 input  -60.11 | X-H torsion
[ 7974 7965 7964 7962 ] final    1.05 input  175.53 | X-H torsion
[ 8008 7997 7996 7995 ] final   37.51 input   59.86 | X-H torsion
[ 10167 10162 10161 10158 ] final   -9.46 input  -65.29 | X-H torsion
[ 10718 10713 10712 10709 ] final  164.79 input   66.30 | X-H torsion
[ 10763 10752 10751 10750 ] final  -67.72 input  -60.55 | X-H torsion
[ 11005 11000 10999 10996 ] final  136.27 input  -57.11 | X-H torsion

> <Gold.Protein.ActiveResidues>
 VAL166  LYS551  ARG553  GLY616  TRP617  ASP618  TYR619  PRO620  LYS621  CYS622 
 ASP623  PHE694  ASN695  SER759  ASP760  ASP761  ALA762  ILE779  LEU786  VAL792 
 PHE793  MET794  SER795  GLU796  ALA797  LYS798  CYS799  TRP800  GLU811  SER814 

> <Gold.Protein.RotatedAtoms>
  150.7178  134.0645  159.3842 H   0  0  0  0  0  0  0  0  0  0  0  0  # atno 6907 bound_to 6896
  151.8626  135.0516  160.0480 H   0  0  0  0  0  0  0  0  0  0  0  0  # atno 6908 bound_to 6896
  152.2705  133.5343  159.5473 H   0  0  0  0  0  0  0  0  0  0  0  0  # atno 6909 bound_to 6896
  146.2438  140.1046  142.8346 H   0  0  0  0  0  0  0  0  0  0  0  0  # atno 7974 bound_to 7965
  155.2049  140.3319  155.4337 H   0  0  0  0  0  0  0  0  0  0  0  0  # atno 8008 bound_to 7997
  156.2393  140.1887  156.7083 H   0  0  0  0  0  0  0  0  0  0  0  0  # atno 8009 bound_to 7997
  154.6116  140.0608  156.9487 H   0  0  0  0  0  0  0  0  0  0  0  0  # atno 8010 bound_to 7997
  140.7088  143.5855  150.8947 H   0  0  0  0  0  0  0  0  0  0  0  0  # atno 10167 bound_to 10162
  157.0893  131.0413  151.2543 H   0  0  0  0  0  0  0  0  0  0  0  0  # atno 10718 bound_to 10713
  154.3785  135.6079  153.5778 H   0  0  0  0  0  0  0  0  0  0  0  0  # atno 10763 bound_to 10752
  152.9788  135.5855  154.4438 H   0  0  0  0  0  0  0  0  0  0  0  0  # atno 10764 bound_to 10752
  154.4203  135.2846  155.1957 H   0  0  0  0  0  0  0  0  0  0  0  0  # atno 10765 bound_to 10752
  140.0035  134.9469  157.0124 H   0  0  0  0  0  0  0  0  0  0  0  0  # atno 11005 bound_to 11000
  145.0539  140.9038  143.4979 LP  0  0  0  0  0  0  0  0  0  0  0  0  # atno 17320 bound_to 7965
  145.1149  139.2732  143.5618 LP  0  0  0  0  0  0  0  0  0  0  0  0  # atno 17321 bound_to 7965
  139.9581  143.6195  152.3010 LP  0  0  0  0  0  0  0  0  0  0  0  0  # atno 17342 bound_to 10162
  139.6738  144.7659  151.1734 LP  0  0  0  0  0  0  0  0  0  0  0  0  # atno 17343 bound_to 10162
  157.4734  130.7722  149.7345 LP  0  0  0  0  0  0  0  0  0  0  0  0  # atno 17370 bound_to 10713
  155.9902  130.3946  150.3038 LP  0  0  0  0  0  0  0  0  0  0  0  0  # atno 17371 bound_to 10713
  140.4684  134.1412  155.7200 LP  0  0  0  0  0  0  0  0  0  0  0  0  # atno 17394 bound_to 11000
  141.1659  133.8703  157.1714 LP  0  0  0  0  0  0  0  0  0  0  0  0  # atno 17395 bound_to 11000

$$$$
