AV-unprocessed.smi:1697|AV-procd|sdf|6808|dock9
  -GOLD-   22720 7583D 1   1.00000     0.00000
 Structure written by MMmdl.
 55 57  0  0  0  0  0  0  0  0  3 V2000
  148.5011  132.6137  153.5280 C   0  0  0  0  0  0  0  0  0  0  0  0
  147.5141  133.6969  153.9835 C   0  0  0  0  0  0  0  0  0  0  0  0
  147.7454  134.0621  155.3384 O   0  0  0  0  0  0  0  0  0  0  0  0
  148.5974  135.1848  155.5282 C   0  0  2  0  0  0  0  0  0  0  0  0
  147.8512  136.4320  155.0352 C   0  0  0  0  0  0  0  0  0  0  0  0
  148.7496  137.6775  155.1059 C   0  0  0  0  0  0  0  0  0  0  0  0
  149.9985  137.4851  154.3235 N   0  3  1  0  0  0  0  0  0  0  0  0
  150.8215  138.7212  154.2739 C   0  0  0  0  0  0  0  0  0  0  0  0
  151.9582  138.7358  155.3209 C   0  0  1  0  0  0  0  0  0  0  0  0
  152.9935  139.5852  154.8702 O   0  0  0  0  0  0  0  0  0  0  0  0
  151.5071  139.2594  156.7003 C   0  0  0  0  0  0  0  0  0  0  0  0
  151.0893  140.6673  156.6789 N   0  0  0  0  0  0  0  0  0  0  0  0
  150.3292  141.3435  155.7744 C   0  0  0  0  0  0  0  0  0  0  0  0
  150.2289  142.6318  156.2046 N   0  3  0  0  0  0  0  0  0  0  0  0
  150.9463  142.7836  157.3933 C   0  0  0  0  0  0  0  0  0  0  0  0
  151.1446  143.8961  158.2022 C   0  0  0  0  0  0  0  0  0  0  0  0
  151.9433  143.7211  159.3549 C   0  0  0  0  0  0  0  0  0  0  0  0
  152.1835  144.9182  160.2590 C   0  0  0  0  0  0  0  0  0  0  0  0
  152.5145  142.4590  159.6629 C   0  0  0  0  0  0  0  0  0  0  0  0
  153.3770  142.2845  160.9015 C   0  0  0  0  0  0  0  0  0  0  0  0
  152.2980  141.3387  158.8292 C   0  0  0  0  0  0  0  0  0  0  0  0
  151.5067  141.5284  157.6993 C   0  0  0  0  0  0  0  0  0  0  0  0
  150.7563  136.2929  154.7915 C   0  0  0  0  0  0  0  0  0  0  0  0
  149.8954  135.0207  154.7186 C   0  0  0  0  0  0  0  0  0  0  0  0
  148.2780  132.2910  152.5108 H   0  0  0  0  0  0  0  0  0  0  0  0
  148.4430  131.7374  154.1741 H   0  0  0  0  0  0  0  0  0  0  0  0
  149.5308  132.9699  153.5398 H   0  0  0  0  0  0  0  0  0  0  0  0
  147.5482  134.5616  153.3203 H   0  0  0  0  0  0  0  0  0  0  0  0
  146.5016  133.2982  153.9185 H   0  0  0  0  0  0  0  0  0  0  0  0
  148.8338  135.3187  156.5847 H   0  0  0  0  0  0  0  0  0  0  0  0
  147.5162  136.2817  154.0078 H   0  0  0  0  0  0  0  0  0  0  0  0
  146.9527  136.5881  155.6336 H   0  0  0  0  0  0  0  0  0  0  0  0
  148.1986  138.5347  154.7171 H   0  0  0  0  0  0  0  0  0  0  0  0
  148.9992  137.9045  156.1437 H   0  0  0  0  0  0  0  0  0  0  0  0
  151.2685  138.8301  153.2841 H   0  0  0  0  0  0  0  0  0  0  0  0
  150.1601  139.5790  154.4009 H   0  0  0  0  0  0  0  0  0  0  0  0
  152.3771  137.7390  155.4490 H   0  0  0  0  0  0  0  0  0  0  0  0
  152.7456  139.9628  154.0401 H   0  0  0  0  0  0  0  0  0  0  0  0
  150.6809  138.6649  157.0938 H   0  0  0  0  0  0  0  0  0  0  0  0
  152.3207  139.1735  157.4222 H   0  0  0  0  0  0  0  0  0  0  0  0
  149.8827  140.9330  154.8800 H   0  0  0  0  0  0  0  0  0  0  0  0
  150.7101  144.8550  157.9594 H   0  0  0  0  0  0  0  0  0  0  0  0
  151.8618  144.7033  161.2783 H   0  0  0  0  0  0  0  0  0  0  0  0
  151.6337  145.7949  159.9152 H   0  0  0  0  0  0  0  0  0  0  0  0
  153.2432  145.1746  160.2768 H   0  0  0  0  0  0  0  0  0  0  0  0
  153.7621  141.2674  160.9796 H   0  0  0  0  0  0  0  0  0  0  0  0
  152.7994  142.4924  161.8025 H   0  0  0  0  0  0  0  0  0  0  0  0
  154.2310  142.9619  160.8724 H   0  0  0  0  0  0  0  0  0  0  0  0
  152.7352  140.3788  159.0617 H   0  0  0  0  0  0  0  0  0  0  0  0
  151.6493  136.1456  154.1854 H   0  0  0  0  0  0  0  0  0  0  0  0
  151.0956  136.4543  155.8159 H   0  0  0  0  0  0  0  0  0  0  0  0
  150.4712  134.1711  155.0853 H   0  0  0  0  0  0  0  0  0  0  0  0
  149.6541  134.8028  153.6773 H   0  0  0  0  0  0  0  0  0  0  0  0
  149.7052  137.2978  153.3752 H   0  0  0  0  0  0  0  0  0  0  0  0
  149.7147  143.3546  155.7170 H   0  0  0  0  0  0  0  0  0  0  0  0
  1  2  1  0  0  0  0
  1 25  1  0  0  0  0
  1 26  1  0  0  0  0
  1 27  1  0  0  0  0
  2  3  1  0  0  0  0
  2 28  1  0  0  0  0
  2 29  1  0  0  0  0
  3  4  1  0  0  0  0
  4 24  1  0  0  0  0
  4  5  1  0  0  0  0
  4 30  1  0  0  0  0
  5  6  1  0  0  0  0
  5 31  1  0  0  0  0
  5 32  1  0  0  0  0
  6  7  1  0  0  0  0
  6 33  1  0  0  0  0
  6 34  1  0  0  0  0
  7  8  1  0  0  0  0
  7 23  1  0  0  0  0
  7 54  1  0  0  0  0
  8  9  1  0  0  0  0
  8 35  1  0  0  0  0
  8 36  1  0  0  0  0
  9 10  1  0  0  0  0
  9 11  1  0  0  0  0
  9 37  1  0  0  0  0
 10 38  1  0  0  0  0
 11 12  1  0  0  0  0
 11 39  1  0  0  0  0
 11 40  1  0  0  0  0
 12 22  1  0  0  0  0
 12 13  1  0  0  0  0
 13 14  2  0  0  0  0
 13 41  1  0  0  0  0
 14 15  1  0  0  0  0
 14 55  1  0  0  0  0
 15 22  2  0  0  0  0
 15 16  1  0  0  0  0
 16 17  2  0  0  0  0
 16 42  1  0  0  0  0
 17 18  1  0  0  0  0
 17 19  1  0  0  0  0
 18 43  1  0  0  0  0
 18 44  1  0  0  0  0
 18 45  1  0  0  0  0
 19 20  1  0  0  0  0
 19 21  2  0  0  0  0
 20 46  1  0  0  0  0
 20 47  1  0  0  0  0
 20 48  1  0  0  0  0
 21 22  1  0  0  0  0
 21 49  1  0  0  0  0
 23 24  1  0  0  0  0
 23 50  1  0  0  0  0
 23 51  1  0  0  0  0
 24 52  1  0  0  0  0
 24 53  1  0  0  0  0
M  CHG  1   7   1
M  CHG  1  14   1
M  END
> <s_m_source_file>
AV-unprocessed.smi

> <i_m_source_file_index>
1697

> <i_lp_mmshare_version>
43012

> <i_f3d_flags>
0

> <s_epik_input>
W0NIM11bQ0gyXU9bQ0hdMVtDSDJdW0NIMl1OKFtDSDJdW0NIMl0xKVtDSDJdW0NASF0oW09IXSlbQ0gyXW4oW2NIXW4yKWMoYzIzKVtjSF1jKFtDSDNdKWMoW2NIXTMpW0NIM10=

> <s_epik_cmdline>
J2VwaWtfcHl0aG9uJywgJy1waCcsICc3LjAnLCAnLXRuJywgJzgnLCAnLW1hJywgJzIwMCcsICctbWV0YWxfYmluZGluZycsICctaW1hZScsICc8aW5maWxlLm1hZT4nLCAnLW9tYWUnLCAnPG91dGZpbGUubWFlPic=

> <r_epik_Ionization_Penalty>
1.20016

> <r_epik_Ionization_Penalty_Charging>
1.20016

> <r_epik_Ionization_Penalty_Neutral>
1.70998e-06

> <r_epik_State_Penalty>
1.27959

> <r_epik_Charging_Adjusted_Penalty>
2.47975

> <i_epik_Tot_Q>
2

> <i_epik_Tot_abs_Q>
2

> <r_epik_Metal_State_Penalty>
5.29682

> <b_epik_Metal_Only>
0

> <s_lp_Force_Field>
OPLS_2005

> <r_lp_Energy>
35.517

> <b_lp_Chiralities_Consistent>
1

> <s_lp_Variant>
AV-unprocessed.smi:1697-6

> <Gold.Version>
5.8.1

> <Gold.Id.Protein>
6NUR|6NUR_protein|mol2

> <Gold.PLP.Fitness>
63.7409

> <Gold.PLP.PLP>
-51.0812

> <Gold.PLP.part.hbond>
-4.0325

> <Gold.PLP.part.metal>
0.0000

> <Gold.PLP.part.buried>
-5.1360

> <Gold.PLP.part.nonpolar>
-41.9760

> <Gold.PLP.part.repulsive>
0.2015

> <Gold.PLP.ligand.clash>
0.0000

> <Gold.PLP.ligand.torsion>
1.2401

> <Gold.PLP.Chemscore.Hbond>
5.0000

> <Gold.PLP.Chemscore.CHOScore>
0.0000

> <Gold.PLP.Chemscore.Metal>
0.0000

> <Gold.Chemscore.Hbonds>
donor molecule, donor type, donor heavy atom, donor atom, acceptor molecule, acceptor atom, score
      L1  H     7    54       P1  7948  2.00
      L1  H    14    55       P1  8028  2.00
      P1  H  7997  8009       L1    10  1.00

> <Gold.PLP.Chemscore.Internal.Correction>
0.1398

> <Gold.Rescore>
     Score         DG    S(hbond)    S(metal)    S(lipo)     H(rot)  DE(clash)    DE(int)     intcor
     21.11     -23.71       2.72        0.00     129.50       2.35       0.37       2.23       ----

> <Gold.Chemscore.Fitness>
21.1068

> <Gold.Chemscore.DG>
-23.7060

> <Gold.Chemscore.ZeroCoef>
-5.4800

> <Gold.Chemscore.Hbond>
2.7193

> <Gold.Chemscore.Metal>
0.0000

> <Gold.Chemscore.Lipo>
129.4979

> <Gold.Chemscore.Internal_Hbond>
0.0000

> <Gold.Chemscore.DEClash>
0.3736

> <Gold.Chemscore.DEInternal>
2.2256

> <Gold.Chemscore.Rot>
2.3468

> <Gold.Chemscore.Internal.Correction>
   9.000000E+99

> <Gold.Chemscore.Hbonds>
donor molecule, donor type, donor heavy atom, donor atom, acceptor molecule, acceptor atom, score
      L1  H     7    54       P1  7948  0.68
      L1  H    14    55       P1  8028  0.95
      P1  H  7997  8009       L1    10  0.99

> <Gold.Chemscore.Hbond.Weighted>
-9.0825

> <Gold.Chemscore.Metal.Weighted>
-0.0000

> <Gold.Chemscore.Lipo.Weighted>
-15.1513

> <Gold.Chemscore.Internal_Hbond.Weighted>
0.0000

> <Gold.Chemscore.DEClash.Weighted>
0.3736

> <Gold.Chemscore.DEInternal.Weighted>
2.2256

> <Gold.Chemscore.Rot.Weighted>
6.0077

> <Gold.Chemscore.Internal.Correction.Weighted>
   9.000000E+99

> <Gold.Protein.RotatedTorsions>
[ 6907 6896 6895 6894 ] final   75.64 input  -60.11 | X-H torsion
[ 7974 7965 7964 7962 ] final  118.30 input  175.53 | X-H torsion
[ 8008 7997 7996 7995 ] final -144.84 input   59.86 | X-H torsion
[ 10167 10162 10161 10158 ] final   67.58 input  -65.29 | X-H torsion
[ 10718 10713 10712 10709 ] final  -21.18 input   66.30 | X-H torsion
[ 10763 10752 10751 10750 ] final   56.24 input  -60.55 | X-H torsion
[ 11005 11000 10999 10996 ] final   16.87 input  -57.11 | X-H torsion

> <Gold.Protein.ActiveResidues>
 VAL166  LYS551  ARG553  GLY616  TRP617  ASP618  TYR619  PRO620  LYS621  CYS622 
 ASP623  PHE694  ASN695  SER759  ASP760  ASP761  ALA762  ILE779  LEU786  VAL792 
 PHE793  MET794  SER795  GLU796  ALA797  LYS798  CYS799  TRP800  GLU811  SER814 

> <Gold.Protein.RotatedAtoms>
  152.5036  134.4089  159.9441 H   0  0  0  0  0  0  0  0  0  0  0  0  # atno 6907 bound_to 6896
  151.4056  133.3737  159.2745 H   0  0  0  0  0  0  0  0  0  0  0  0  # atno 6908 bound_to 6896
  150.9329  134.8765  159.7622 H   0  0  0  0  0  0  0  0  0  0  0  0  # atno 6909 bound_to 6896
  145.1569  139.3177  143.4537 H   0  0  0  0  0  0  0  0  0  0  0  0  # atno 7974 bound_to 7965
  155.5335  140.0602  157.2884 H   0  0  0  0  0  0  0  0  0  0  0  0  # atno 8008 bound_to 7997
  154.4476  140.1932  156.0563 H   0  0  0  0  0  0  0  0  0  0  0  0  # atno 8009 bound_to 7997
  156.0635  140.3269  155.7494 H   0  0  0  0  0  0  0  0  0  0  0  0  # atno 8010 bound_to 7997
  140.0879  144.5013  150.7118 H   0  0  0  0  0  0  0  0  0  0  0  0  # atno 10167 bound_to 10162
  156.5217  130.4634  149.6593 H   0  0  0  0  0  0  0  0  0  0  0  0  # atno 10718 bound_to 10713
  152.9829  135.5683  154.5197 H   0  0  0  0  0  0  0  0  0  0  0  0  # atno 10763 bound_to 10752
  154.4687  135.2784  155.1661 H   0  0  0  0  0  0  0  0  0  0  0  0  # atno 10764 bound_to 10752
  154.3218  135.6267  153.5564 H   0  0  0  0  0  0  0  0  0  0  0  0  # atno 10765 bound_to 10752
  140.4423  134.1309  155.7692 H   0  0  0  0  0  0  0  0  0  0  0  0  # atno 11005 bound_to 11000
  146.3487  140.1665  142.8590 LP  0  0  0  0  0  0  0  0  0  0  0  0  # atno 17320 bound_to 7965
  145.0372  140.8917  143.5074 LP  0  0  0  0  0  0  0  0  0  0  0  0  # atno 17321 bound_to 7965
  140.7044  143.2457  151.4771 LP  0  0  0  0  0  0  0  0  0  0  0  0  # atno 17342 bound_to 10162
  139.5741  144.1859  152.1879 LP  0  0  0  0  0  0  0  0  0  0  0  0  # atno 17343 bound_to 10162
  156.3143  130.7246  151.2145 LP  0  0  0  0  0  0  0  0  0  0  0  0  # atno 17370 bound_to 10713
  157.7436  131.0473  150.4936 LP  0  0  0  0  0  0  0  0  0  0  0  0  # atno 17371 bound_to 10713
  141.1700  133.8627  157.1599 LP  0  0  0  0  0  0  0  0  0  0  0  0  # atno 17394 bound_to 11000
  140.0062  135.0007  157.0297 LP  0  0  0  0  0  0  0  0  0  0  0  0  # atno 17395 bound_to 11000

$$$$
