AV-unprocessed.smi:50|AV-procd|sdf|491|dock9
  -GOLD-   2262016353D 1   1.00000     0.00000
 Structure written by MMmdl.
 44 45  0  0  0  0  0  0  0  0  2 V2000
  146.6950  133.9045  150.9491 C   0  0  0  0  0  0  0  0  0  0  0  0
  145.3693  133.1374  151.1123 C   0  0  0  0  0  0  0  0  0  0  0  0
  145.2537  132.0751  150.0014 C   0  0  0  0  0  0  0  0  0  0  0  0
  144.1510  134.1000  151.1671 C   0  0  2  0  0  0  0  0  0  0  0  0
  143.8998  134.7298  149.8560 N   0  3  0  0  0  0  0  0  0  0  0  0
  144.3242  135.2451  152.1801 C   0  0  0  0  0  0  0  0  0  0  0  0
  143.9448  135.2040  153.3521 O   0  0  0  0  0  0  0  0  0  0  0  0
  144.9241  136.2959  151.5974 O   0  0  0  0  0  0  0  0  0  0  0  0
  145.1347  137.4876  152.3374 C   0  0  0  0  0  0  0  0  0  0  0  0
  146.2935  138.2737  151.7182 C   0  0  0  0  0  0  0  0  0  0  0  0
  146.7227  139.2628  152.6403 O   0  0  0  0  0  0  0  0  0  0  0  0
  147.2478  138.7289  153.8110 C   0  0  0  0  0  0  0  0  0  0  0  0
  148.5669  139.3030  154.0083 N   0  0  0  0  0  0  0  0  0  0  0  0
  148.9566  140.6117  153.8647 C   0  0  0  0  0  0  0  0  0  0  0  0
  150.2205  140.8193  154.1084 N   0  0  0  0  0  0  0  0  0  0  0  0
  150.7169  139.5591  154.4288 C   0  0  0  0  0  0  0  0  0  0  0  0
  152.0472  139.1526  154.7838 C   0  0  0  0  0  0  0  0  0  0  0  0
  153.0546  139.8491  154.8880 O   0  0  0  0  0  0  0  0  0  0  0  0
  152.1314  137.7756  155.0264 N   0  0  0  0  0  0  0  0  0  0  0  0
  151.0534  136.8984  154.9365 C   0  0  0  0  0  0  0  0  0  0  0  0
  151.3016  135.6082  155.1969 N   0  0  0  0  0  0  0  0  0  0  0  0
  149.8287  137.2747  154.6133 N   0  0  0  0  0  0  0  0  0  0  0  0
  149.7081  138.6168  154.3682 C   0  0  0  0  0  0  0  0  0  0  0  0
  143.2599  133.5278  151.4281 H   0  0  0  0  0  0  0  0  0  0  0  0
  153.0383  137.4120  155.2801 H   0  0  0  0  0  0  0  0  0  0  0  0
  146.7042  134.4855  150.0263 H   0  0  0  0  0  0  0  0  0  0  0  0
  147.5431  133.2198  150.9156 H   0  0  0  0  0  0  0  0  0  0  0  0
  146.8752  134.5898  151.7773 H   0  0  0  0  0  0  0  0  0  0  0  0
  145.4228  132.6035  152.0626 H   0  0  0  0  0  0  0  0  0  0  0  0
  145.1249  132.5385  149.0227 H   0  0  0  0  0  0  0  0  0  0  0  0
  144.4134  131.4009  150.1666 H   0  0  0  0  0  0  0  0  0  0  0  0
  146.1497  131.4550  149.9572 H   0  0  0  0  0  0  0  0  0  0  0  0
  144.5982  134.4192  149.1960 H   0  0  0  0  0  0  0  0  0  0  0  0
  143.9428  135.7345  149.9487 H   0  0  0  0  0  0  0  0  0  0  0  0
  144.2275  138.0926  152.3057 H   0  0  0  0  0  0  0  0  0  0  0  0
  145.3407  137.2582  153.3838 H   0  0  0  0  0  0  0  0  0  0  0  0
  147.1125  137.6042  151.4501 H   0  0  0  0  0  0  0  0  0  0  0  0
  145.9508  138.7565  150.8018 H   0  0  0  0  0  0  0  0  0  0  0  0
  146.6074  138.9736  154.6601 H   0  0  0  0  0  0  0  0  0  0  0  0
  147.3534  137.6458  153.7321 H   0  0  0  0  0  0  0  0  0  0  0  0
  148.2785  141.4026  153.5787 H   0  0  0  0  0  0  0  0  0  0  0  0
  152.2370  135.3185  155.4438 H   0  0  0  0  0  0  0  0  0  0  0  0
  150.5588  134.9260  155.1483 H   0  0  0  0  0  0  0  0  0  0  0  0
  142.9841  134.4587  149.5265 H   0  0  0  0  0  0  0  0  0  0  0  0
  1  2  1  0  0  0  0
  1 26  1  0  0  0  0
  1 27  1  0  0  0  0
  1 28  1  0  0  0  0
  2  3  1  0  0  0  0
  2  4  1  0  0  0  0
  2 29  1  0  0  0  0
  3 30  1  0  0  0  0
  3 31  1  0  0  0  0
  3 32  1  0  0  0  0
  4 24  1  0  0  0  0
  4  5  1  0  0  0  0
  4  6  1  0  0  0  0
  5 33  1  0  0  0  0
  5 34  1  0  0  0  0
  5 44  1  0  0  0  0
  6  7  2  0  0  0  0
  6  8  1  0  0  0  0
  8  9  1  0  0  0  0
  9 10  1  0  0  0  0
  9 35  1  0  0  0  0
  9 36  1  0  0  0  0
 10 11  1  0  0  0  0
 10 37  1  0  0  0  0
 10 38  1  0  0  0  0
 11 12  1  0  0  0  0
 12 13  1  0  0  0  0
 12 39  1  0  0  0  0
 12 40  1  0  0  0  0
 13 23  1  0  0  0  0
 13 14  1  0  0  0  0
 14 15  2  0  0  0  0
 14 41  1  0  0  0  0
 15 16  1  0  0  0  0
 16 23  2  0  0  0  0
 16 17  1  0  0  0  0
 17 18  2  0  0  0  0
 17 19  1  0  0  0  0
 19 25  1  0  0  0  0
 19 20  1  0  0  0  0
 20 21  1  0  0  0  0
 20 22  2  0  0  0  0
 21 42  1  0  0  0  0
 21 43  1  0  0  0  0
 22 23  1  0  0  0  0
M  CHG  1   5   1
M  END
> <s_m_source_file>
AV-unprocessed.smi

> <i_m_source_file_index>
50

> <i_lp_mmshare_version>
43012

> <i_f3d_flags>
0

> <s_epik_input>
W0NIM11bQ0hdKFtDSDNdKVtDQEhdKFtOSDJdKUMoPU8pT1tDSDJdW0NIMl1PW0NIMl1uKFtjSF1uMSljKGMxMiluYyhbTkgyXSlbbkhdYzI9Tw==

> <s_epik_cmdline>
J2VwaWtfcHl0aG9uJywgJy1waCcsICc3LjAnLCAnLXRuJywgJzgnLCAnLW1hJywgJzIwMCcsICctbWV0YWxfYmluZGluZycsICctaW1hZScsICc8aW5maWxlLm1hZT4nLCAnLW9tYWUnLCAnPG91dGZpbGUubWFlPic=

> <r_lp_tautomer_probability>
0.99994

> <r_epik_Ionization_Penalty>
0.217551

> <r_epik_Ionization_Penalty_Charging>
0.217477

> <r_epik_Ionization_Penalty_Neutral>
7.42487e-05

> <r_epik_State_Penalty>
0.206211

> <r_epik_Charging_Adjusted_Penalty>
0.423688

> <i_epik_Tot_Q>
1

> <i_epik_Tot_abs_Q>
1

> <r_epik_Metal_State_Penalty>
0.526339

> <b_epik_Metal_Only>
0

> <s_epik_Chemistry_Notes>
This compound has an ester and may undergo hydrolysis at high or low pH. This compound contains an acetal/aminal-like group ( X-CH(R)-Y where X, Y are N, S, or O) that may be acid/base labile, releasing an aldehyde.

> <s_lp_Force_Field>
OPLS_2005

> <r_lp_Energy>
8.83135

> <b_lp_Chiralities_Consistent>
1

> <s_lp_Variant>
AV-unprocessed.smi:50-1

> <Gold.Version>
5.8.1

> <Gold.Id.Protein>
6NUR|6NUR_protein|mol2

> <Gold.PLP.Fitness>
44.9099

> <Gold.PLP.PLP>
-33.7037

> <Gold.PLP.part.hbond>
-3.9577

> <Gold.PLP.part.metal>
0.0000

> <Gold.PLP.part.buried>
-5.9824

> <Gold.PLP.part.nonpolar>
-27.5960

> <Gold.PLP.part.repulsive>
1.9971

> <Gold.PLP.ligand.clash>
0.0000

> <Gold.PLP.ligand.torsion>
1.5417

> <Gold.PLP.Chemscore.Hbond>
4.7383

> <Gold.PLP.Chemscore.CHOScore>
0.0000

> <Gold.PLP.Chemscore.Metal>
0.0000

> <Gold.Chemscore.Hbonds>
donor molecule, donor type, donor heavy atom, donor atom, acceptor molecule, acceptor atom, score
      L1  H     5    33       P1  7921  0.52
      L1  H     5    44       P1 10186  2.00
      P1  H  7997  8008       L1    18  1.00

> <Gold.PLP.Chemscore.Internal.Correction>
0.0748

> <Gold.Rescore>
     Score         DG    S(hbond)    S(metal)    S(lipo)     H(rot)  DE(clash)    DE(int)     intcor
      8.99     -10.85       3.48        0.00      52.93       4.86       0.29       1.58       ----

> <Gold.Chemscore.Fitness>
8.9865

> <Gold.Chemscore.DG>
-10.8493

> <Gold.Chemscore.ZeroCoef>
-5.4800

> <Gold.Chemscore.Hbond>
3.4764

> <Gold.Chemscore.Metal>
0.0000

> <Gold.Chemscore.Lipo>
52.9255

> <Gold.Chemscore.Internal_Hbond>
0.0000

> <Gold.Chemscore.DEClash>
0.2860

> <Gold.Chemscore.DEInternal>
1.5768

> <Gold.Chemscore.Rot>
4.8571

> <Gold.Chemscore.Internal.Correction>
   9.000000E+99

> <Gold.Chemscore.Hbonds>
donor molecule, donor type, donor heavy atom, donor atom, acceptor molecule, acceptor atom, score
      L1  H     5    33       P1  7921  0.50
      L1  H     5    44       P1 10186  0.95
      P1  H  7997  8008       L1    18  0.98

> <Gold.Chemscore.Hbond.Weighted>
-11.6113

> <Gold.Chemscore.Metal.Weighted>
-0.0000

> <Gold.Chemscore.Lipo.Weighted>
-6.1923

> <Gold.Chemscore.Internal_Hbond.Weighted>
0.0000

> <Gold.Chemscore.DEClash.Weighted>
0.2860

> <Gold.Chemscore.DEInternal.Weighted>
1.5768

> <Gold.Chemscore.Rot.Weighted>
12.4343

> <Gold.Chemscore.Internal.Correction.Weighted>
   9.000000E+99

> <Gold.Protein.RotatedTorsions>
[ 6907 6896 6895 6894 ] final  -35.40 input  -60.11 | X-H torsion
[ 7974 7965 7964 7962 ] final -179.14 input  175.53 | X-H torsion
[ 8008 7997 7996 7995 ] final  -28.97 input   59.86 | X-H torsion
[ 10167 10162 10161 10158 ] final  -41.10 input  -65.29 | X-H torsion
[ 10718 10713 10712 10709 ] final   35.29 input   66.30 | X-H torsion
[ 10763 10752 10751 10750 ] final   29.90 input  -60.55 | X-H torsion
[ 11005 11000 10999 10996 ] final   41.96 input  -57.11 | X-H torsion

> <Gold.Protein.ActiveResidues>
 VAL166  LYS551  ARG553  GLY616  TRP617  ASP618  TYR619  PRO620  LYS621  CYS622 
 ASP623  PHE694  ASN695  SER759  ASP760  ASP761  ALA762  ILE779  LEU786  VAL792 
 PHE793  MET794  SER795  GLU796  ALA797  LYS798  CYS799  TRP800  GLU811  SER814 

> <Gold.Protein.RotatedAtoms>
  151.0403  134.9602  159.8157 H   0  0  0  0  0  0  0  0  0  0  0  0  # atno 6907 bound_to 6896
  152.5363  134.2666  159.8966 H   0  0  0  0  0  0  0  0  0  0  0  0  # atno 6908 bound_to 6896
  151.2678  133.4227  159.2653 H   0  0  0  0  0  0  0  0  0  0  0  0  # atno 6909 bound_to 6896
  144.7135  140.0762  143.6427 H   0  0  0  0  0  0  0  0  0  0  0  0  # atno 7974 bound_to 7965
  154.4309  140.1831  156.1174 H   0  0  0  0  0  0  0  0  0  0  0  0  # atno 8008 bound_to 7997
  156.0170  140.3345  155.6974 H   0  0  0  0  0  0  0  0  0  0  0  0  # atno 8009 bound_to 7997
  155.6030  140.0642  157.2718 H   0  0  0  0  0  0  0  0  0  0  0  0  # atno 8010 bound_to 7997
  140.7013  143.3114  151.3019 H   0  0  0  0  0  0  0  0  0  0  0  0  # atno 10167 bound_to 10162
  157.3208  130.7447  149.6784 H   0  0  0  0  0  0  0  0  0  0  0  0  # atno 10718 bound_to 10713
  153.0403  135.6477  154.0962 H   0  0  0  0  0  0  0  0  0  0  0  0  # atno 10763 bound_to 10752
  154.0670  135.2883  155.3316 H   0  0  0  0  0  0  0  0  0  0  0  0  # atno 10764 bound_to 10752
  154.6619  135.5388  153.8094 H   0  0  0  0  0  0  0  0  0  0  0  0  # atno 10765 bound_to 10752
  140.1784  134.4134  155.8214 H   0  0  0  0  0  0  0  0  0  0  0  0  # atno 11005 bound_to 11000
  145.9741  139.2892  143.1081 LP  0  0  0  0  0  0  0  0  0  0  0  0  # atno 17320 bound_to 7965
  145.9084  140.9197  143.0467 LP  0  0  0  0  0  0  0  0  0  0  0  0  # atno 17321 bound_to 7965
  139.6538  144.0313  152.2645 LP  0  0  0  0  0  0  0  0  0  0  0  0  # atno 17342 bound_to 10162
  139.9858  144.6396  150.7859 LP  0  0  0  0  0  0  0  0  0  0  0  0  # atno 17343 bound_to 10162
  155.9686  130.4223  150.4512 LP  0  0  0  0  0  0  0  0  0  0  0  0  # atno 17370 bound_to 10713
  157.2527  131.0550  151.2369 LP  0  0  0  0  0  0  0  0  0  0  0  0  # atno 17371 bound_to 10713
  141.2222  133.6989  156.7888 LP  0  0  0  0  0  0  0  0  0  0  0  0  # atno 17394 bound_to 11000
  140.2295  134.8696  157.3462 LP  0  0  0  0  0  0  0  0  0  0  0  0  # atno 17395 bound_to 11000

$$$$
