AV-unprocessed.smi:111|AV-procd|sdf|1081|dock10
  -GOLD-   2262018173D 1   1.00000     0.00000
 Structure written by MMmdl.
 46 48  0  0  0  0  0  0  0  0  1 V2000
  154.7592  141.5129  162.7963 O   0  0  0  0  0  0  0  0  0  0  0  0
  154.0109  142.0799  161.9984 C   0  0  0  0  0  0  0  0  0  0  0  0
  153.1538  143.2011  162.3683 C   0  0  0  0  0  0  0  0  0  0  0  0
  153.1859  143.6751  163.6255 F   0  0  0  0  0  0  0  0  0  0  0  0
  152.3214  143.7702  161.4703 C   0  0  0  0  0  0  0  0  0  0  0  0
  152.2230  143.3446  160.1562 N   0  0  0  0  0  0  0  0  0  0  0  0
  151.2688  143.9993  159.1807 C   0  0  2  0  0  0  0  0  0  0  0  0
  150.6043  145.2195  159.8258 C   0  0  0  0  0  0  0  0  0  0  0  0
  149.3543  144.6093  160.4209 C   0  0  0  0  0  0  0  0  0  0  0  0
  149.0053  143.5472  159.3835 C   0  0  0  0  0  0  0  0  0  0  0  0
  150.2514  143.0963  158.8554 O   0  0  0  0  0  0  0  0  0  0  0  0
  153.0350  142.2833  159.7022 C   0  0  0  0  0  0  0  0  0  0  0  0
  152.9818  141.9052  158.5295 O   0  0  0  0  0  0  0  0  0  0  0  0
  153.9021  141.6779  160.6428 N   0  0  0  0  0  0  0  0  0  0  0  0
  154.6846  140.5363  160.1889 C   0  0  0  0  0  0  0  0  0  0  0  0
  153.8740  139.2241  160.0828 C   0  0  1  0  0  0  0  0  0  0  0  0
  153.5128  139.0363  158.7302 O   0  0  0  0  0  0  0  0  0  0  0  0
  154.6253  137.9695  160.5807 C   0  0  0  0  0  0  0  0  0  0  0  0
  154.5793  137.7768  162.1077 C   0  0  0  0  0  0  0  0  0  0  0  0
  154.9479  136.3649  162.5342 C   0  0  0  0  0  0  0  0  0  0  0  0
  154.7706  135.9617  163.8751 C   0  0  0  0  0  0  0  0  0  0  0  0
  155.0820  134.6454  164.2667 C   0  0  0  0  0  0  0  0  0  0  0  0
  155.5774  133.7278  163.3205 C   0  0  0  0  0  0  0  0  0  0  0  0
  155.7609  134.1272  161.9827 C   0  0  0  0  0  0  0  0  0  0  0  0
  155.4466  135.4428  161.5897 C   0  0  0  0  0  0  0  0  0  0  0  0
  151.7146  144.5969  161.8079 H   0  0  0  0  0  0  0  0  0  0  0  0
  151.8578  144.2290  158.2910 H   0  0  0  0  0  0  0  0  0  0  0  0
  151.2505  145.7129  160.5527 H   0  0  0  0  0  0  0  0  0  0  0  0
  150.3467  145.9312  159.0407 H   0  0  0  0  0  0  0  0  0  0  0  0
  149.5824  144.1435  161.3802 H   0  0  0  0  0  0  0  0  0  0  0  0
  148.5545  145.3339  160.5749 H   0  0  0  0  0  0  0  0  0  0  0  0
  148.4290  142.7237  159.8054 H   0  0  0  0  0  0  0  0  0  0  0  0
  148.4243  143.9876  158.5724 H   0  0  0  0  0  0  0  0  0  0  0  0
  155.0996  140.8223  159.2202 H   0  0  0  0  0  0  0  0  0  0  0  0
  155.5522  140.4173  160.8383 H   0  0  0  0  0  0  0  0  0  0  0  0
  152.9466  139.3434  160.6413 H   0  0  0  0  0  0  0  0  0  0  0  0
  152.5719  138.9658  158.6777 H   0  0  0  0  0  0  0  0  0  0  0  0
  154.2309  137.0833  160.0826 H   0  0  0  0  0  0  0  0  0  0  0  0
  155.6735  138.0240  160.2920 H   0  0  0  0  0  0  0  0  0  0  0  0
  155.2386  138.4961  162.5951 H   0  0  0  0  0  0  0  0  0  0  0  0
  153.5741  137.9915  162.4717 H   0  0  0  0  0  0  0  0  0  0  0  0
  154.3872  136.6590  164.6054 H   0  0  0  0  0  0  0  0  0  0  0  0
  154.9395  134.3394  165.2925 H   0  0  0  0  0  0  0  0  0  0  0  0
  155.8163  132.7181  163.6203 H   0  0  0  0  0  0  0  0  0  0  0  0
  156.1397  133.4229  161.2566 H   0  0  0  0  0  0  0  0  0  0  0  0
  155.5813  135.7380  160.5595 H   0  0  0  0  0  0  0  0  0  0  0  0
  1  2  2  0  0  0  0
  2 14  1  0  0  0  0
  2  3  1  0  0  0  0
  3  4  1  0  0  0  0
  3  5  2  0  0  0  0
  5  6  1  0  0  0  0
  5 26  1  0  0  0  0
  6  7  1  0  0  0  0
  6 12  1  0  0  0  0
  7 11  1  0  0  0  0
  7  8  1  0  0  0  0
  7 27  1  0  0  0  0
  8  9  1  0  0  0  0
  8 28  1  0  0  0  0
  8 29  1  0  0  0  0
  9 10  1  0  0  0  0
  9 30  1  0  0  0  0
  9 31  1  0  0  0  0
 10 11  1  0  0  0  0
 10 32  1  0  0  0  0
 10 33  1  0  0  0  0
 12 13  2  0  0  0  0
 12 14  1  0  0  0  0
 14 15  1  0  0  0  0
 15 16  1  0  0  0  0
 15 34  1  0  0  0  0
 15 35  1  0  0  0  0
 16 17  1  0  0  0  0
 16 18  1  0  0  0  0
 16 36  1  0  0  0  0
 17 37  1  0  0  0  0
 18 19  1  0  0  0  0
 18 38  1  0  0  0  0
 18 39  1  0  0  0  0
 19 20  1  0  0  0  0
 19 40  1  0  0  0  0
 19 41  1  0  0  0  0
 20 25  1  0  0  0  0
 20 21  2  0  0  0  0
 21 22  1  0  0  0  0
 21 42  1  0  0  0  0
 22 23  2  0  0  0  0
 22 43  1  0  0  0  0
 23 24  1  0  0  0  0
 23 44  1  0  0  0  0
 24 25  2  0  0  0  0
 24 45  1  0  0  0  0
 25 46  1  0  0  0  0
M  END
> <s_m_source_file>
AV-unprocessed.smi

> <i_m_source_file_index>
111

> <i_lp_mmshare_version>
43012

> <i_f3d_flags>
0

> <s_epik_input>
TzFbQ0gyXVtDSDJdW0NIMl1bQ0BIXTFuKFtjSF1jKEYpYzI9TyljKD1PKW4yW0NIMl1bQ0BIXShbT0hdKVtDSDJdW0NIMl1jM1tjSF1bY0hdW2NIXVtjSF1bY0hdMw==

> <s_epik_cmdline>
J2VwaWtfcHl0aG9uJywgJy1waCcsICc3LjAnLCAnLXRuJywgJzgnLCAnLW1hJywgJzIwMCcsICctbWV0YWxfYmluZGluZycsICctaW1hZScsICc8aW5maWxlLm1hZT4nLCAnLW9tYWUnLCAnPG91dGZpbGUubWFlPic=

> <r_lp_tautomer_probability>
1

> <r_epik_Ionization_Penalty>
1.88248e-07

> <r_epik_Ionization_Penalty_Charging>
4.03974e-08

> <r_epik_Ionization_Penalty_Neutral>
1.47851e-07

> <r_epik_State_Penalty>
-0

> <r_epik_Charging_Adjusted_Penalty>
4.03974e-08

> <i_epik_Tot_Q>
0

> <i_epik_Tot_abs_Q>
0

> <r_epik_Metal_State_Penalty>
-0

> <b_epik_Metal_Only>
0

> <s_epik_Chemistry_Notes>
This compound contains an acetal/aminal-like group ( X-CH(R)-Y where X, Y are N, S, or O) that may be acid/base labile, releasing an aldehyde.

> <s_lp_Force_Field>
OPLS_2005

> <r_lp_Energy>
35.2037

> <b_lp_Chiralities_Consistent>
1

> <s_lp_Variant>
AV-unprocessed.smi:111-3

> <Gold.Version>
5.8.1

> <Gold.Id.Protein>
6NUR|6NUR_protein|mol2

> <Gold.PLP.Fitness>
53.4940

> <Gold.PLP.PLP>
-55.9917

> <Gold.PLP.part.hbond>
-1.0000

> <Gold.PLP.part.metal>
0.0000

> <Gold.PLP.part.buried>
-3.1206

> <Gold.PLP.part.nonpolar>
-51.3734

> <Gold.PLP.part.repulsive>
0.1187

> <Gold.PLP.ligand.clash>
0.0000

> <Gold.PLP.ligand.torsion>
1.2827

> <Gold.PLP.Chemscore.Hbond>
0.0000

> <Gold.PLP.Chemscore.CHOScore>
0.0000

> <Gold.PLP.Chemscore.Metal>
0.0000

> <Gold.Chemscore.Hbonds>
donor molecule, donor type, donor heavy atom, donor atom, acceptor molecule, acceptor atom, score
      P1  H  7997  8009       L1    17  0.32

> <Gold.PLP.Chemscore.Internal.Correction>
0.0679

> <Gold.Rescore>
     Score         DG    S(hbond)    S(metal)    S(lipo)     H(rot)  DE(clash)    DE(int)     intcor
     10.43     -13.19       0.45        0.00     111.46       2.67       0.47       2.29       ----

> <Gold.Chemscore.Fitness>
10.4309

> <Gold.Chemscore.DG>
-13.1896

> <Gold.Chemscore.ZeroCoef>
-5.4800

> <Gold.Chemscore.Hbond>
0.4538

> <Gold.Chemscore.Metal>
0.0000

> <Gold.Chemscore.Lipo>
111.4557

> <Gold.Chemscore.Internal_Hbond>
0.0000

> <Gold.Chemscore.DEClash>
0.4680

> <Gold.Chemscore.DEInternal>
2.2908

> <Gold.Chemscore.Rot>
2.6743

> <Gold.Chemscore.Internal.Correction>
   9.000000E+99

> <Gold.Chemscore.Hbonds>
donor molecule, donor type, donor heavy atom, donor atom, acceptor molecule, acceptor atom, score
      P1  H  7997  8009       L1    17  0.29

> <Gold.Chemscore.Hbond.Weighted>
-1.5156

> <Gold.Chemscore.Metal.Weighted>
-0.0000

> <Gold.Chemscore.Lipo.Weighted>
-13.0403

> <Gold.Chemscore.Internal_Hbond.Weighted>
0.0000

> <Gold.Chemscore.DEClash.Weighted>
0.4680

> <Gold.Chemscore.DEInternal.Weighted>
2.2908

> <Gold.Chemscore.Rot.Weighted>
6.8463

> <Gold.Chemscore.Internal.Correction.Weighted>
   9.000000E+99

> <Gold.Protein.RotatedTorsions>
[ 6907 6896 6895 6894 ] final -136.81 input  -60.11 | X-H torsion
[ 7974 7965 7964 7962 ] final -174.12 input  175.53 | X-H torsion
[ 8008 7997 7996 7995 ] final  163.96 input   59.86 | X-H torsion
[ 10167 10162 10161 10158 ] final  102.68 input  -65.29 | X-H torsion
[ 10718 10713 10712 10709 ] final   -8.07 input   66.30 | X-H torsion
[ 10763 10752 10751 10750 ] final  -26.97 input  -60.55 | X-H torsion
[ 11005 11000 10999 10996 ] final  146.92 input  -57.11 | X-H torsion

> <Gold.Protein.ActiveResidues>
 VAL166  LYS551  ARG553  GLY616  TRP617  ASP618  TYR619  PRO620  LYS621  CYS622 
 ASP623  PHE694  ASN695  SER759  ASP760  ASP761  ALA762  ILE779  LEU786  VAL792 
 PHE793  MET794  SER795  GLU796  ALA797  LYS798  CYS799  TRP800  GLU811  SER814 

> <Gold.Protein.RotatedAtoms>
  151.0147  133.5932  159.2678 H   0  0  0  0  0  0  0  0  0  0  0  0  # atno 6907 bound_to 6896
  151.3071  135.0783  159.9269 H   0  0  0  0  0  0  0  0  0  0  0  0  # atno 6908 bound_to 6896
  152.5308  133.9818  159.7864 H   0  0  0  0  0  0  0  0  0  0  0  0  # atno 6909 bound_to 6896
  144.7133  140.1519  143.6383 H   0  0  0  0  0  0  0  0  0  0  0  0  # atno 7974 bound_to 7965
  156.1917  140.1709  156.8078 H   0  0  0  0  0  0  0  0  0  0  0  0  # atno 8008 bound_to 7997
  154.5479  140.0723  156.8652 H   0  0  0  0  0  0  0  0  0  0  0  0  # atno 8009 bound_to 7997
  155.3085  140.3366  155.4247 H   0  0  0  0  0  0  0  0  0  0  0  0  # atno 8010 bound_to 7997
  139.7329  144.7031  151.0694 H   0  0  0  0  0  0  0  0  0  0  0  0  # atno 10167 bound_to 10162
  156.7079  130.5113  149.5900 H   0  0  0  0  0  0  0  0  0  0  0  0  # atno 10718 bound_to 10713
  153.7245  135.6943  153.5004 H   0  0  0  0  0  0  0  0  0  0  0  0  # atno 10763 bound_to 10752
  153.2180  135.4380  155.0455 H   0  0  0  0  0  0  0  0  0  0  0  0  # atno 10764 bound_to 10752
  154.8273  135.3453  154.6778 H   0  0  0  0  0  0  0  0  0  0  0  0  # atno 10765 bound_to 10752
  140.0833  134.9084  157.1535 H   0  0  0  0  0  0  0  0  0  0  0  0  # atno 11005 bound_to 11000
  145.9108  139.2486  143.1438 LP  0  0  0  0  0  0  0  0  0  0  0  0  # atno 17320 bound_to 7965
  145.9718  140.8754  143.0159 LP  0  0  0  0  0  0  0  0  0  0  0  0  # atno 17321 bound_to 7965
  140.7774  143.5021  150.9759 LP  0  0  0  0  0  0  0  0  0  0  0  0  # atno 17342 bound_to 10162
  139.8709  143.7194  152.3166 LP  0  0  0  0  0  0  0  0  0  0  0  0  # atno 17343 bound_to 10162
  156.1682  130.6419  151.0804 LP  0  0  0  0  0  0  0  0  0  0  0  0  # atno 17370 bound_to 10713
  157.6947  131.0798  150.7003 LP  0  0  0  0  0  0  0  0  0  0  0  0  # atno 17371 bound_to 10713
  140.3457  134.2655  155.7205 LP  0  0  0  0  0  0  0  0  0  0  0  0  # atno 17394 bound_to 11000
  141.2054  133.7861  157.0235 LP  0  0  0  0  0  0  0  0  0  0  0  0  # atno 17395 bound_to 11000

$$$$
