AV-unprocessed.smi:2238|AV-procd|sdf|9055|dock5
  -GOLD-   2272012263D 1   1.00000     0.00000
 Structure written by MMmdl.
 38 39  0  0  0  0  0  0  0  0  1 V2000
  151.8537  145.4792  160.0953 C   0  0  0  0  0  0  0  0  0  0  0  0
  152.0188  144.0020  159.8027 C   0  0  0  0  0  0  0  0  0  0  0  0
  152.7917  143.1898  160.6553 C   0  0  0  0  0  0  0  0  0  0  0  0
  152.9418  141.8199  160.3737 C   0  0  0  0  0  0  0  0  0  0  0  0
  152.3214  141.2577  159.2411 C   0  0  0  0  0  0  0  0  0  0  0  0
  152.5225  139.5722  158.9190 Cl  0  0  0  0  0  0  0  0  0  0  0  0
  151.5427  142.0582  158.3758 C   0  0  0  0  0  0  0  0  0  0  0  0
  150.9650  141.4386  157.2869 O   0  0  0  0  0  0  0  0  0  0  0  0
  150.4898  142.2484  156.2202 C   0  0  0  0  0  0  0  0  0  0  0  0
  149.8872  141.3352  155.1380 C   0  0  1  0  0  0  0  0  0  0  0  0
  150.7931  140.2776  154.9006 O   0  0  0  0  0  0  0  0  0  0  0  0
  148.5387  140.6947  155.5421 C   0  0  0  0  0  0  0  0  0  0  0  0
  147.3980  141.6217  155.4303 N   0  0  0  0  0  0  0  0  0  0  0  0
  147.1240  142.1393  154.1481 C   0  0  0  0  0  0  0  0  0  0  0  0
  146.1463  142.9625  153.9383 N   0  0  0  0  0  0  0  0  0  0  0  0
  145.3355  143.3587  155.0062 C   0  0  0  0  0  0  0  0  0  0  0  0
  144.2004  144.3152  154.7044 C   0  0  0  0  0  0  0  0  0  0  0  0
  145.5612  142.8984  156.2581 C   0  0  0  0  0  0  0  0  0  0  0  0
  146.6628  141.9735  156.5259 C   0  0  0  0  0  0  0  0  0  0  0  0
  146.9079  141.5451  157.6538 O   0  0  0  0  0  0  0  0  0  0  0  0
  151.3984  143.4387  158.6688 C   0  0  0  0  0  0  0  0  0  0  0  0
  152.2389  145.7343  161.0830 H   0  0  0  0  0  0  0  0  0  0  0  0
  150.8003  145.7591  160.0599 H   0  0  0  0  0  0  0  0  0  0  0  0
  152.3918  146.0719  159.3551 H   0  0  0  0  0  0  0  0  0  0  0  0
  153.2717  143.6123  161.5260 H   0  0  0  0  0  0  0  0  0  0  0  0
  153.5350  141.1993  161.0292 H   0  0  0  0  0  0  0  0  0  0  0  0
  149.7551  142.9792  156.5626 H   0  0  0  0  0  0  0  0  0  0  0  0
  151.3406  142.7943  155.8125 H   0  0  0  0  0  0  0  0  0  0  0  0
  149.7659  141.8941  154.2096 H   0  0  0  0  0  0  0  0  0  0  0  0
  150.4457  139.4929  155.2973 H   0  0  0  0  0  0  0  0  0  0  0  0
  148.3422  139.8306  154.9043 H   0  0  0  0  0  0  0  0  0  0  0  0
  148.6210  140.2783  156.5483 H   0  0  0  0  0  0  0  0  0  0  0  0
  147.7848  141.7956  153.3507 H   0  0  0  0  0  0  0  0  0  0  0  0
  144.1897  145.1344  155.4240 H   0  0  0  0  0  0  0  0  0  0  0  0
  143.2442  143.7944  154.7617 H   0  0  0  0  0  0  0  0  0  0  0  0
  144.2981  144.7428  153.7059 H   0  0  0  0  0  0  0  0  0  0  0  0
  144.9243  143.2133  157.0722 H   0  0  0  0  0  0  0  0  0  0  0  0
  150.8146  144.0892  158.0352 H   0  0  0  0  0  0  0  0  0  0  0  0
  1  2  1  0  0  0  0
  1 22  1  0  0  0  0
  1 23  1  0  0  0  0
  1 24  1  0  0  0  0
  2 21  1  0  0  0  0
  2  3  2  0  0  0  0
  3  4  1  0  0  0  0
  3 25  1  0  0  0  0
  4  5  2  0  0  0  0
  4 26  1  0  0  0  0
  5  6  1  0  0  0  0
  5  7  1  0  0  0  0
  7  8  1  0  0  0  0
  7 21  2  0  0  0  0
  8  9  1  0  0  0  0
  9 10  1  0  0  0  0
  9 27  1  0  0  0  0
  9 28  1  0  0  0  0
 10 11  1  0  0  0  0
 10 12  1  0  0  0  0
 10 29  1  0  0  0  0
 11 30  1  0  0  0  0
 12 13  1  0  0  0  0
 12 31  1  0  0  0  0
 12 32  1  0  0  0  0
 13 19  1  0  0  0  0
 13 14  1  0  0  0  0
 14 15  2  0  0  0  0
 14 33  1  0  0  0  0
 15 16  1  0  0  0  0
 16 17  1  0  0  0  0
 16 18  2  0  0  0  0
 17 34  1  0  0  0  0
 17 35  1  0  0  0  0
 17 36  1  0  0  0  0
 18 19  1  0  0  0  0
 18 37  1  0  0  0  0
 19 20  2  0  0  0  0
 21 38  1  0  0  0  0
M  END
> <s_m_source_file>
AV-unprocessed.smi

> <i_m_source_file_index>
2238

> <i_lp_mmshare_version>
43012

> <i_f3d_flags>
0

> <s_epik_input>
W0NIM11jMVtjSF1bY0hdYyhDbCljKFtjSF0xKU9bQ0gyXVtDQEhdKFtPSF0pW0NIMl1uMltjSF1uYyhbQ0gzXSlbY0hdYzI9Tw==

> <s_epik_cmdline>
J2VwaWtfcHl0aG9uJywgJy1waCcsICc3LjAnLCAnLXRuJywgJzgnLCAnLW1hJywgJzIwMCcsICctbWV0YWxfYmluZGluZycsICctaW1hZScsICc8aW5maWxlLm1hZT4nLCAnLW9tYWUnLCAnPG91dGZpbGUubWFlPic=

> <r_lp_tautomer_probability>
1

> <r_epik_Ionization_Penalty>
1.78029e-05

> <r_epik_Ionization_Penalty_Charging>
3.78421e-08

> <r_epik_Ionization_Penalty_Neutral>
1.7765e-05

> <r_epik_State_Penalty>
-0

> <r_epik_Charging_Adjusted_Penalty>
3.78421e-08

> <i_epik_Tot_Q>
0

> <i_epik_Tot_abs_Q>
0

> <r_epik_Metal_State_Penalty>
-0

> <b_epik_Metal_Only>
0

> <s_lp_Force_Field>
OPLS_2005

> <r_lp_Energy>
22.1977

> <b_lp_Chiralities_Consistent>
1

> <s_lp_Variant>
AV-unprocessed.smi:2238-2

> <Gold.Version>
5.8.1

> <Gold.Id.Protein>
6NUR|6NUR_protein|mol2

> <Gold.PLP.Fitness>
46.2984

> <Gold.PLP.PLP>
-44.2747

> <Gold.PLP.part.hbond>
-1.0000

> <Gold.PLP.part.metal>
0.0000

> <Gold.PLP.part.buried>
-6.1339

> <Gold.PLP.part.nonpolar>
-37.4074

> <Gold.PLP.part.repulsive>
0.3180

> <Gold.PLP.ligand.clash>
0.0000

> <Gold.PLP.ligand.torsion>
0.4477

> <Gold.PLP.Chemscore.Hbond>
0.9500

> <Gold.PLP.Chemscore.CHOScore>
0.0000

> <Gold.PLP.Chemscore.Metal>
0.0000

> <Gold.Chemscore.Hbonds>
donor molecule, donor type, donor heavy atom, donor atom, acceptor molecule, acceptor atom, score
      P1  H  7989  7998       L1    11  1.00

> <Gold.PLP.Chemscore.Internal.Correction>
0.0690

> <Gold.Rescore>
     Score         DG    S(hbond)    S(metal)    S(lipo)     H(rot)  DE(clash)    DE(int)     intcor
     13.55     -15.45       0.79        0.00     116.78       2.47       1.37       0.53       ----

> <Gold.Chemscore.Fitness>
13.5497

> <Gold.Chemscore.DG>
-15.4540

> <Gold.Chemscore.ZeroCoef>
-5.4800

> <Gold.Chemscore.Hbond>
0.7901

> <Gold.Chemscore.Metal>
0.0000

> <Gold.Chemscore.Lipo>
116.7781

> <Gold.Chemscore.Internal_Hbond>
0.0000

> <Gold.Chemscore.DEClash>
1.3741

> <Gold.Chemscore.DEInternal>
0.5302

> <Gold.Chemscore.Rot>
2.4718

> <Gold.Chemscore.Internal.Correction>
   9.000000E+99

> <Gold.Chemscore.Hbonds>
donor molecule, donor type, donor heavy atom, donor atom, acceptor molecule, acceptor atom, score
      P1  H  7989  7998       L1    11  0.30

> <Gold.Chemscore.Hbond.Weighted>
-2.6388

> <Gold.Chemscore.Metal.Weighted>
-0.0000

> <Gold.Chemscore.Lipo.Weighted>
-13.6630

> <Gold.Chemscore.Internal_Hbond.Weighted>
0.0000

> <Gold.Chemscore.DEClash.Weighted>
1.3741

> <Gold.Chemscore.DEInternal.Weighted>
0.5302

> <Gold.Chemscore.Rot.Weighted>
6.3279

> <Gold.Chemscore.Internal.Correction.Weighted>
   9.000000E+99

> <Gold.Protein.RotatedTorsions>
[ 6907 6896 6895 6894 ] final  -27.08 input  -60.11 | X-H torsion
[ 7974 7965 7964 7962 ] final  -65.67 input  175.53 | X-H torsion
[ 8008 7997 7996 7995 ] final -133.60 input   59.86 | X-H torsion
[ 10167 10162 10161 10158 ] final   97.65 input  -65.29 | X-H torsion
[ 10718 10713 10712 10709 ] final   37.81 input   66.30 | X-H torsion
[ 10763 10752 10751 10750 ] final  100.43 input  -60.55 | X-H torsion
[ 11005 11000 10999 10996 ] final  177.05 input  -57.11 | X-H torsion

> <Gold.Protein.ActiveResidues>
 VAL166  LYS551  ARG553  GLY616  TRP617  ASP618  TYR619  PRO620  LYS621  CYS622 
 ASP623  PHE694  ASN695  SER759  ASP760  ASP761  ALA762  ILE779  LEU786  VAL792 
 PHE793  MET794  SER795  GLU796  ALA797  LYS798  CYS799  TRP800  GLU811  SER814 

> <Gold.Protein.RotatedAtoms>
  151.1520  135.0232  159.8672 H   0  0  0  0  0  0  0  0  0  0  0  0  # atno 6907 bound_to 6896
  152.5452  134.1378  159.8476 H   0  0  0  0  0  0  0  0  0  0  0  0  # atno 6908 bound_to 6896
  151.1464  133.4891  159.2628 H   0  0  0  0  0  0  0  0  0  0  0  0  # atno 6909 bound_to 6896
  145.7514  140.8906  143.0478 H   0  0  0  0  0  0  0  0  0  0  0  0  # atno 7974 bound_to 7965
  155.3482  140.0476  157.3046 H   0  0  0  0  0  0  0  0  0  0  0  0  # atno 8008 bound_to 7997
  154.5241  140.2235  155.8887 H   0  0  0  0  0  0  0  0  0  0  0  0  # atno 8009 bound_to 7997
  156.1720  140.3093  155.8998 H   0  0  0  0  0  0  0  0  0  0  0  0  # atno 8010 bound_to 7997
  139.7781  144.6898  151.0061 H   0  0  0  0  0  0  0  0  0  0  0  0  # atno 10167 bound_to 10162
  157.3514  130.7600  149.6981 H   0  0  0  0  0  0  0  0  0  0  0  0  # atno 10718 bound_to 10713
  153.3139  135.4079  155.1359 H   0  0  0  0  0  0  0  0  0  0  0  0  # atno 10763 bound_to 10752
  154.8583  135.3571  154.5687 H   0  0  0  0  0  0  0  0  0  0  0  0  # atno 10764 bound_to 10752
  153.6117  135.7067  153.5403 H   0  0  0  0  0  0  0  0  0  0  0  0  # atno 10765 bound_to 10752
  140.3798  134.6956  157.4444 H   0  0  0  0  0  0  0  0  0  0  0  0  # atno 11005 bound_to 11000
  144.6849  139.9596  143.7480 LP  0  0  0  0  0  0  0  0  0  0  0  0  # atno 17320 bound_to 7965
  146.0353  139.3372  143.0730 LP  0  0  0  0  0  0  0  0  0  0  0  0  # atno 17321 bound_to 7965
  140.7817  143.4513  151.0408 LP  0  0  0  0  0  0  0  0  0  0  0  0  # atno 17342 bound_to 10162
  139.8195  143.7840  152.3176 LP  0  0  0  0  0  0  0  0  0  0  0  0  # atno 17343 bound_to 10162
  155.9722  130.4139  150.4108 LP  0  0  0  0  0  0  0  0  0  0  0  0  # atno 17370 bound_to 10713
  157.2171  131.0474  151.2567 LP  0  0  0  0  0  0  0  0  0  0  0  0  # atno 17371 bound_to 10713
  140.0487  134.6162  155.8888 LP  0  0  0  0  0  0  0  0  0  0  0  0  # atno 17394 bound_to 11000
  141.1927  133.6576  156.5514 LP  0  0  0  0  0  0  0  0  0  0  0  0  # atno 17395 bound_to 11000

$$$$
