AV-unprocessed.smi:109|AV-procd|sdf|1038|dock8
  -GOLD-   2262018 63D 1   1.00000     0.00000
 Structure written by MMmdl.
 58 61  0  0  0  0  0  0  0  0  1 V2000
  148.9954  141.4006  153.2641 O   0  0  0  0  0  0  0  0  0  0  0  0
  148.8061  140.8143  154.5335 C   0  0  0  0  0  0  0  0  0  0  0  0
  149.3179  141.7644  155.6304 C   0  0  0  0  0  0  0  0  0  0  0  0
  150.2311  141.0832  156.6790 C   0  0  1  0  0  0  0  0  0  0  0  0
  151.3693  140.4611  155.9982 N   0  0  0  0  0  0  0  0  0  0  0  0
  151.6823  139.1560  156.1628 C   0  0  0  0  0  0  0  0  0  0  0  0
  152.9652  138.7510  156.3519 N   0  0  0  0  0  0  0  0  0  0  0  0
  153.2418  137.4539  156.5175 C   0  0  0  0  0  0  0  0  0  0  0  0
  152.4022  136.4160  156.5292 N   0  0  0  0  0  0  0  0  0  0  0  0
  151.1129  136.8196  156.3386 C   0  0  0  0  0  0  0  0  0  0  0  0
  150.6736  138.1586  156.1490 C   0  0  0  0  0  0  0  0  0  0  0  0
  149.2933  138.1820  155.9954 N   0  0  0  0  0  0  0  0  0  0  0  0
  148.9426  136.9269  156.0927 C   0  0  0  0  0  0  0  0  0  0  0  0
  149.9797  136.0393  156.2891 N   0  0  0  0  0  0  0  0  0  0  0  0
  149.9433  134.5519  156.4504 C   0  0  1  0  0  0  0  0  0  0  0  0
  148.9661  134.2222  157.3988 O   0  0  0  0  0  0  0  0  0  0  0  0
  147.9606  133.3709  156.8456 C   0  0  1  0  0  0  0  0  0  0  0  0
  146.7306  134.2209  156.4585 C   0  0  0  0  0  0  0  0  0  0  0  0
  145.6731  133.3763  156.0578 O   0  0  0  0  0  0  0  0  0  0  0  0
  148.6978  132.7077  155.6742 C   0  0  1  0  0  0  0  0  0  0  0  0
  147.8701  132.1100  154.6931 O   0  0  0  0  0  0  0  0  0  0  0  0
  149.5953  133.8131  155.1421 C   0  0  1  0  0  0  0  0  0  0  0  0
  148.9456  134.6250  154.1755 O   0  0  0  0  0  0  0  0  0  0  0  0
  150.7526  142.0500  157.7802 C   0  0  0  0  0  0  0  0  0  0  0  0
  151.3262  143.3466  157.1529 C   0  0  0  0  0  0  0  0  0  0  0  0
  151.8549  144.3293  158.2090 C   0  0  0  0  0  0  0  0  0  0  0  0
  152.9196  143.6713  159.0946 C   0  0  0  0  0  0  0  0  0  0  0  0
  152.3661  142.3985  159.7460 C   0  0  0  0  0  0  0  0  0  0  0  0
  151.8297  141.4134  158.6940 C   0  0  0  0  0  0  0  0  0  0  0  0
  150.9282  134.2921  156.8408 H   0  0  0  0  0  0  0  0  0  0  0  0
  147.6674  132.6117  157.5724 H   0  0  0  0  0  0  0  0  0  0  0  0
  149.3361  131.9224  156.0821 H   0  0  0  0  0  0  0  0  0  0  0  0
  150.5058  133.4130  154.6950 H   0  0  0  0  0  0  0  0  0  0  0  0
  149.0354  140.7122  152.6180 H   0  0  0  0  0  0  0  0  0  0  0  0
  147.7453  140.6034  154.6721 H   0  0  0  0  0  0  0  0  0  0  0  0
  149.3354  139.8617  154.5548 H   0  0  0  0  0  0  0  0  0  0  0  0
  149.8434  142.6048  155.1748 H   0  0  0  0  0  0  0  0  0  0  0  0
  148.4384  142.1793  156.1200 H   0  0  0  0  0  0  0  0  0  0  0  0
  149.6289  140.3335  157.1911 H   0  0  0  0  0  0  0  0  0  0  0  0
  151.8389  141.0466  155.3224 H   0  0  0  0  0  0  0  0  0  0  0  0
  154.2848  137.2141  156.6614 H   0  0  0  0  0  0  0  0  0  0  0  0
  147.9095  136.6189  156.0255 H   0  0  0  0  0  0  0  0  0  0  0  0
  146.4035  134.8701  157.2692 H   0  0  0  0  0  0  0  0  0  0  0  0
  146.9582  134.8638  155.6087 H   0  0  0  0  0  0  0  0  0  0  0  0
  145.3207  132.9517  156.8251 H   0  0  0  0  0  0  0  0  0  0  0  0
  148.1123  132.4540  153.8467 H   0  0  0  0  0  0  0  0  0  0  0  0
  148.2636  134.1125  153.7685 H   0  0  0  0  0  0  0  0  0  0  0  0
  149.9076  142.3276  158.4125 H   0  0  0  0  0  0  0  0  0  0  0  0
  152.1303  143.0926  156.4606 H   0  0  0  0  0  0  0  0  0  0  0  0
  150.5671  143.8579  156.5608 H   0  0  0  0  0  0  0  0  0  0  0  0
  152.2722  145.2101  157.7202 H   0  0  0  0  0  0  0  0  0  0  0  0
  151.0284  144.6806  158.8277 H   0  0  0  0  0  0  0  0  0  0  0  0
  153.7980  143.4270  158.4958 H   0  0  0  0  0  0  0  0  0  0  0  0
  153.2508  144.3703  159.8631 H   0  0  0  0  0  0  0  0  0  0  0  0
  153.1439  141.9185  160.3406 H   0  0  0  0  0  0  0  0  0  0  0  0
  151.5662  142.6619  160.4393 H   0  0  0  0  0  0  0  0  0  0  0  0
  151.4263  140.5554  159.2292 H   0  0  0  0  0  0  0  0  0  0  0  0
  152.6561  141.0420  158.0862 H   0  0  0  0  0  0  0  0  0  0  0  0
  1  2  1  0  0  0  0
  1 34  1  0  0  0  0
  2  3  1  0  0  0  0
  2 35  1  0  0  0  0
  2 36  1  0  0  0  0
  3  4  1  0  0  0  0
  3 37  1  0  0  0  0
  3 38  1  0  0  0  0
  4  5  1  0  0  0  0
  4 24  1  0  0  0  0
  4 39  1  0  0  0  0
  5  6  1  0  0  0  0
  5 40  1  0  0  0  0
  6 11  1  0  0  0  0
  6  7  2  0  0  0  0
  7  8  1  0  0  0  0
  8  9  2  0  0  0  0
  8 41  1  0  0  0  0
  9 10  1  0  0  0  0
 10 14  1  0  0  0  0
 10 11  2  0  0  0  0
 11 12  1  0  0  0  0
 12 13  2  0  0  0  0
 13 14  1  0  0  0  0
 13 42  1  0  0  0  0
 14 15  1  0  0  0  0
 15 30  1  0  0  0  0
 15 22  1  0  0  0  0
 15 16  1  0  0  0  0
 16 17  1  0  0  0  0
 17 31  1  0  0  0  0
 17 18  1  0  0  0  0
 17 20  1  0  0  0  0
 18 19  1  0  0  0  0
 18 43  1  0  0  0  0
 18 44  1  0  0  0  0
 19 45  1  0  0  0  0
 20 32  1  0  0  0  0
 20 21  1  0  0  0  0
 20 22  1  0  0  0  0
 21 46  1  0  0  0  0
 22 33  1  0  0  0  0
 22 23  1  0  0  0  0
 23 47  1  0  0  0  0
 24 29  1  0  0  0  0
 24 25  1  0  0  0  0
 24 48  1  0  0  0  0
 25 26  1  0  0  0  0
 25 49  1  0  0  0  0
 25 50  1  0  0  0  0
 26 27  1  0  0  0  0
 26 51  1  0  0  0  0
 26 52  1  0  0  0  0
 27 28  1  0  0  0  0
 27 53  1  0  0  0  0
 27 54  1  0  0  0  0
 28 29  1  0  0  0  0
 28 55  1  0  0  0  0
 28 56  1  0  0  0  0
 29 57  1  0  0  0  0
 29 58  1  0  0  0  0
M  END
> <s_m_source_file>
AV-unprocessed.smi

> <i_m_source_file_index>
109

> <i_lp_mmshare_version>
43012

> <i_f3d_flags>
0

> <s_epik_input>
W0NIMl0xW0NIMl1bQ0gyXVtDSDJdW0NIMl1bQ0hdMVtDQEhdKFtDSDJdW0NIMl1bT0hdKVtOSF1jKG5bY0hdbjIpYyhjMjMpbltjSF1uM1tDQEBIXTRPW0NASF0oW0NIMl1bT0hdKVtDQEBIXShbT0hdKVtDQEhdNFtPSF0=

> <s_epik_cmdline>
J2VwaWtfcHl0aG9uJywgJy1waCcsICc3LjAnLCAnLXRuJywgJzgnLCAnLW1hJywgJzIwMCcsICctbWV0YWxfYmluZGluZycsICctaW1hZScsICc8aW5maWxlLm1hZT4nLCAnLW9tYWUnLCAnPG91dGZpbGUubWFlPic=

> <r_lp_tautomer_probability>
1

> <r_epik_Ionization_Penalty>
0.000793976

> <r_epik_Ionization_Penalty_Charging>
0

> <r_epik_Ionization_Penalty_Neutral>
0.000793976

> <r_epik_State_Penalty>
-0

> <r_epik_Charging_Adjusted_Penalty>
0

> <i_epik_Tot_Q>
0

> <i_epik_Tot_abs_Q>
0

> <r_epik_Metal_State_Penalty>
-0

> <b_epik_Metal_Only>
0

> <s_epik_Chemistry_Notes>
This compound contains an acetal/aminal-like group ( X-CH(R)-Y where X, Y are N, S, or O) that may be acid/base labile, releasing an aldehyde.

> <s_lp_Force_Field>
OPLS_2005

> <r_lp_Energy>
62.3675

> <b_lp_Chiralities_Consistent>
1

> <s_lp_Variant>
AV-unprocessed.smi:109-8

> <Gold.Version>
5.8.1

> <Gold.Id.Protein>
6NUR|6NUR_protein|mol2

> <Gold.PLP.Fitness>
55.0677

> <Gold.PLP.PLP>
-42.6882

> <Gold.PLP.part.hbond>
-6.2112

> <Gold.PLP.part.metal>
0.0000

> <Gold.PLP.part.buried>
-4.6138

> <Gold.PLP.part.nonpolar>
-32.9892

> <Gold.PLP.part.repulsive>
0.1806

> <Gold.PLP.ligand.clash>
0.1428

> <Gold.PLP.ligand.torsion>
1.1643

> <Gold.PLP.Chemscore.Hbond>
4.9101

> <Gold.PLP.Chemscore.CHOScore>
0.0000

> <Gold.PLP.Chemscore.Metal>
0.0000

> <Gold.Chemscore.Hbonds>
donor molecule, donor type, donor heavy atom, donor atom, acceptor molecule, acceptor atom, score
      L1  H     1    34       P1  7957  1.00
      P1  H  7997  8010       L1     7  1.00
      P1  H  8011  8017       L1     1  0.58
      P1  H 10752 10763       L1     9  0.59

> <Gold.PLP.Chemscore.Internal.Correction>
0.1206

> <Gold.Rescore>
     Score         DG    S(hbond)    S(metal)    S(lipo)     H(rot)  DE(clash)    DE(int)     intcor
     12.07     -14.48       3.34        0.00     101.21       5.47       0.13       2.28       ----

> <Gold.Chemscore.Fitness>
12.0732

> <Gold.Chemscore.DG>
-14.4842

> <Gold.Chemscore.ZeroCoef>
-5.4800

> <Gold.Chemscore.Hbond>
3.3400

> <Gold.Chemscore.Metal>
0.0000

> <Gold.Chemscore.Lipo>
101.2129

> <Gold.Chemscore.Internal_Hbond>
0.0000

> <Gold.Chemscore.DEClash>
0.1318

> <Gold.Chemscore.DEInternal>
2.2792

> <Gold.Chemscore.Rot>
5.4662

> <Gold.Chemscore.Internal.Correction>
   9.000000E+99

> <Gold.Chemscore.Hbonds>
donor molecule, donor type, donor heavy atom, donor atom, acceptor molecule, acceptor atom, score
      L1  H     1    34       P1  7957  0.96
      P1  H  7997  8010       L1     7  0.92
      P1  H  8011  8017       L1     1  0.04
      P1  H 10752 10763       L1     9  0.04

> <Gold.Chemscore.Hbond.Weighted>
-11.1557

> <Gold.Chemscore.Metal.Weighted>
-0.0000

> <Gold.Chemscore.Lipo.Weighted>
-11.8419

> <Gold.Chemscore.Internal_Hbond.Weighted>
0.0000

> <Gold.Chemscore.DEClash.Weighted>
0.1318

> <Gold.Chemscore.DEInternal.Weighted>
2.2792

> <Gold.Chemscore.Rot.Weighted>
13.9935

> <Gold.Chemscore.Internal.Correction.Weighted>
   9.000000E+99

> <Gold.Protein.RotatedTorsions>
[ 6907 6896 6895 6894 ] final -114.55 input  -60.11 | X-H torsion
[ 7974 7965 7964 7962 ] final -176.85 input  175.53 | X-H torsion
[ 8008 7997 7996 7995 ] final   62.00 input   59.86 | X-H torsion
[ 10167 10162 10161 10158 ] final -164.11 input  -65.29 | X-H torsion
[ 10718 10713 10712 10709 ] final  135.73 input   66.30 | X-H torsion
[ 10763 10752 10751 10750 ] final  119.06 input  -60.55 | X-H torsion
[ 11005 11000 10999 10996 ] final -104.04 input  -57.11 | X-H torsion

> <Gold.Protein.ActiveResidues>
 VAL166  LYS551  ARG553  GLY616  TRP617  ASP618  TYR619  PRO620  LYS621  CYS622 
 ASP623  PHE694  ASN695  SER759  ASP760  ASP761  ALA762  ILE779  LEU786  VAL792 
 PHE793  MET794  SER795  GLU796  ALA797  LYS798  CYS799  TRP800  GLU811  SER814 

> <Gold.Protein.RotatedAtoms>
  150.7911  133.8784  159.3278 H   0  0  0  0  0  0  0  0  0  0  0  0  # atno 6907 bound_to 6896
  151.6622  135.0986  160.0191 H   0  0  0  0  0  0  0  0  0  0  0  0  # atno 6908 bound_to 6896
  152.3985  133.6743  159.6332 H   0  0  0  0  0  0  0  0  0  0  0  0  # atno 6909 bound_to 6896
  144.7127  140.1108  143.6411 H   0  0  0  0  0  0  0  0  0  0  0  0  # atno 7974 bound_to 7965
  155.6074  140.3494  155.4612 H   0  0  0  0  0  0  0  0  0  0  0  0  # atno 8008 bound_to 7997
  156.0181  140.1247  157.0410 H   0  0  0  0  0  0  0  0  0  0  0  0  # atno 8009 bound_to 7997
  154.4305  140.1068  156.5910 H   0  0  0  0  0  0  0  0  0  0  0  0  # atno 8010 bound_to 7997
  139.6274  144.0506  152.1986 H   0  0  0  0  0  0  0  0  0  0  0  0  # atno 10167 bound_to 10162
  157.4541  131.1068  150.9999 H   0  0  0  0  0  0  0  0  0  0  0  0  # atno 10718 bound_to 10713
  153.5773  135.3491  155.2861 H   0  0  0  0  0  0  0  0  0  0  0  0  # atno 10763 bound_to 10752
  154.8673  135.4173  154.2660 H   0  0  0  0  0  0  0  0  0  0  0  0  # atno 10764 bound_to 10752
  153.3438  135.7051  153.6915 H   0  0  0  0  0  0  0  0  0  0  0  0  # atno 10765 bound_to 10752
  141.1119  133.8690  157.1561 H   0  0  0  0  0  0  0  0  0  0  0  0  # atno 11005 bound_to 11000
  145.9456  139.2699  143.1242 LP  0  0  0  0  0  0  0  0  0  0  0  0  # atno 17320 bound_to 7965
  145.9377  140.9002  143.0324 LP  0  0  0  0  0  0  0  0  0  0  0  0  # atno 17321 bound_to 7965
  140.0163  144.6186  150.7604 LP  0  0  0  0  0  0  0  0  0  0  0  0  # atno 17342 bound_to 10162
  140.7419  143.2824  151.3560 LP  0  0  0  0  0  0  0  0  0  0  0  0  # atno 17343 bound_to 10162
  157.0819  130.5906  149.5422 LP  0  0  0  0  0  0  0  0  0  0  0  0  # atno 17370 bound_to 10713
  155.9999  130.5076  150.7625 LP  0  0  0  0  0  0  0  0  0  0  0  0  # atno 17371 bound_to 10713
  140.0017  135.0025  157.0204 LP  0  0  0  0  0  0  0  0  0  0  0  0  # atno 17394 bound_to 11000
  140.4753  134.1345  155.7209 LP  0  0  0  0  0  0  0  0  0  0  0  0  # atno 17395 bound_to 11000

$$$$
