AV-unprocessed.smi:1086|AV-procd|sdf|4724|dock9
  -GOLD-   22720 3253D 1   1.00000     0.00000
 Structure written by MMmdl.
 41 42  0  0  0  0  0  0  0  0  1 V2000
  152.2548  140.5498  158.1633 C   0  0  0  0  0  0  0  0  0  0  0  0
  152.3838  140.2463  156.7785 O   0  0  0  0  0  0  0  0  0  0  0  0
  151.4218  139.4506  156.1906 C   0  0  0  0  0  0  0  0  0  0  0  0
  150.5517  138.7181  157.0224 C   0  0  0  0  0  0  0  0  0  0  0  0
  149.5709  137.8991  156.4305 C   0  0  0  0  0  0  0  0  0  0  0  0
  149.4971  137.8326  155.0187 C   0  0  0  0  0  0  0  0  0  0  0  0
  148.5502  137.0534  154.3004 N   0  0  0  0  0  0  0  0  0  0  0  0
  147.3682  136.5731  154.7229 C   0  0  0  0  0  0  0  0  0  0  0  0
  146.8851  136.7489  155.8414 O   0  0  0  0  0  0  0  0  0  0  0  0
  146.7699  135.8482  153.7660 N   0  0  0  0  0  0  0  0  0  0  0  0
  145.4719  135.1883  153.8998 C   0  0  0  0  0  0  0  0  0  0  0  0
  144.6669  135.1479  152.5867 C   0  0  0  0  0  0  0  0  0  0  0  0
  143.6522  135.8408  152.4860 O   0  0  0  0  0  0  0  0  0  0  0  0
  145.1001  134.3536  151.5774 N   0  0  0  0  0  0  0  0  0  0  0  0
  146.2760  133.4738  151.6260 C   0  0  0  0  0  0  0  0  0  0  0  0
  145.7947  132.0125  151.6758 C   0  0  0  0  0  0  0  0  0  0  0  0
  144.8861  131.6940  150.4725 C   0  0  0  0  0  0  0  0  0  0  0  0
  143.7711  132.7445  150.3036 C   0  0  0  0  0  0  0  0  0  0  0  0
  144.3458  134.1734  150.3300 C   0  0  0  0  0  0  0  0  0  0  0  0
  150.4027  138.6189  154.2769 C   0  0  0  0  0  0  0  0  0  0  0  0
  151.3456  139.4049  154.8378 N   0  0  0  0  0  0  0  0  0  0  0  0
  153.0847  141.1848  158.4727 H   0  0  0  0  0  0  0  0  0  0  0  0
  152.2843  139.6463  158.7743 H   0  0  0  0  0  0  0  0  0  0  0  0
  151.3301  141.0913  158.3685 H   0  0  0  0  0  0  0  0  0  0  0  0
  150.6335  138.7854  158.0972 H   0  0  0  0  0  0  0  0  0  0  0  0
  148.8938  137.3532  157.0686 H   0  0  0  0  0  0  0  0  0  0  0  0
  148.8390  136.7671  153.3765 H   0  0  0  0  0  0  0  0  0  0  0  0
  147.2357  135.7576  152.8750 H   0  0  0  0  0  0  0  0  0  0  0  0
  145.6477  134.1668  154.2378 H   0  0  0  0  0  0  0  0  0  0  0  0
  144.8930  135.6892  154.6775 H   0  0  0  0  0  0  0  0  0  0  0  0
  146.8789  133.6343  150.7310 H   0  0  0  0  0  0  0  0  0  0  0  0
  146.9453  133.6780  152.4602 H   0  0  0  0  0  0  0  0  0  0  0  0
  146.6488  131.3350  151.6884 H   0  0  0  0  0  0  0  0  0  0  0  0
  145.2480  131.8408  152.6042 H   0  0  0  0  0  0  0  0  0  0  0  0
  145.4923  131.6704  149.5661 H   0  0  0  0  0  0  0  0  0  0  0  0
  144.4535  130.6987  150.5794 H   0  0  0  0  0  0  0  0  0  0  0  0
  143.2340  132.5724  149.3704 H   0  0  0  0  0  0  0  0  0  0  0  0
  143.0409  132.6331  151.1066 H   0  0  0  0  0  0  0  0  0  0  0  0
  143.5396  134.8985  150.2122 H   0  0  0  0  0  0  0  0  0  0  0  0
  145.0098  134.3288  149.4786 H   0  0  0  0  0  0  0  0  0  0  0  0
  150.3766  138.6132  153.1969 H   0  0  0  0  0  0  0  0  0  0  0  0
  1  2  1  0  0  0  0
  1 22  1  0  0  0  0
  1 23  1  0  0  0  0
  1 24  1  0  0  0  0
  2  3  1  0  0  0  0
  3 21  1  0  0  0  0
  3  4  2  0  0  0  0
  4  5  1  0  0  0  0
  4 25  1  0  0  0  0
  5  6  2  0  0  0  0
  5 26  1  0  0  0  0
  6  7  1  0  0  0  0
  6 20  1  0  0  0  0
  7  8  1  0  0  0  0
  7 27  1  0  0  0  0
  8  9  2  0  0  0  0
  8 10  1  0  0  0  0
 10 11  1  0  0  0  0
 10 28  1  0  0  0  0
 11 12  1  0  0  0  0
 11 29  1  0  0  0  0
 11 30  1  0  0  0  0
 12 13  2  0  0  0  0
 12 14  1  0  0  0  0
 14 19  1  0  0  0  0
 14 15  1  0  0  0  0
 15 16  1  0  0  0  0
 15 31  1  0  0  0  0
 15 32  1  0  0  0  0
 16 17  1  0  0  0  0
 16 33  1  0  0  0  0
 16 34  1  0  0  0  0
 17 18  1  0  0  0  0
 17 35  1  0  0  0  0
 17 36  1  0  0  0  0
 18 19  1  0  0  0  0
 18 37  1  0  0  0  0
 18 38  1  0  0  0  0
 19 39  1  0  0  0  0
 19 40  1  0  0  0  0
 20 21  2  0  0  0  0
 20 41  1  0  0  0  0
M  END
> <s_m_source_file>
AV-unprocessed.smi

> <i_m_source_file_index>
1086

> <i_lp_mmshare_version>
43012

> <i_f3d_flags>
0

> <s_epik_input>
W0NIM11PYzFbY0hdW2NIXWMoW2NIXW4xKVtOSF1DKD1PKVtOSF1bQ0gyXUMoPU8pTjJbQ0gyXVtDSDJdW0NIMl1bQ0gyXVtDSDJdMg==

> <s_epik_cmdline>
J2VwaWtfcHl0aG9uJywgJy1waCcsICc3LjAnLCAnLXRuJywgJzgnLCAnLW1hJywgJzIwMCcsICctbWV0YWxfYmluZGluZycsICctaW1hZScsICc8aW5maWxlLm1hZT4nLCAnLW9tYWUnLCAnPG91dGZpbGUubWFlPic=

> <r_lp_tautomer_probability>
1

> <r_epik_Ionization_Penalty>
0.0001417

> <r_epik_Ionization_Penalty_Charging>
0

> <r_epik_Ionization_Penalty_Neutral>
0.0001417

> <r_epik_State_Penalty>
-0

> <r_epik_Charging_Adjusted_Penalty>
0

> <i_epik_Tot_Q>
0

> <i_epik_Tot_abs_Q>
0

> <r_epik_Metal_State_Penalty>
-0

> <b_epik_Metal_Only>
0

> <s_lp_Force_Field>
OPLS_2005

> <r_lp_Energy>
23.1479

> <b_lp_Chiralities_Consistent>
1

> <s_lp_Variant>
AV-unprocessed.smi:1086-1

> <Gold.Version>
5.8.1

> <Gold.Id.Protein>
6NUR|6NUR_protein|mol2

> <Gold.PLP.Fitness>
42.4124

> <Gold.PLP.PLP>
-28.8847

> <Gold.PLP.part.hbond>
-4.0000

> <Gold.PLP.part.metal>
0.0000

> <Gold.PLP.part.buried>
-3.0518

> <Gold.PLP.part.nonpolar>
-21.6079

> <Gold.PLP.part.repulsive>
0.2203

> <Gold.PLP.ligand.clash>
0.0370

> <Gold.PLP.ligand.torsion>
0.5703

> <Gold.PLP.Chemscore.Hbond>
3.8960

> <Gold.PLP.Chemscore.CHOScore>
1.0000

> <Gold.PLP.Chemscore.Metal>
0.0000

> <Gold.Chemscore.Hbonds>
donor molecule, donor type, donor heavy atom, donor atom, acceptor molecule, acceptor atom, score
      L1  H     7    27       P1  7948  1.00
      L1  H    10    28       P1  7948  0.86
      P1  H  7989  7998       L1    21  1.00
      P1  H  7997  8008       L1     2  1.00
      L1  C    20    41       P1  7957  0.87

> <Gold.PLP.Chemscore.Internal.Correction>
0.0172

> <Gold.Rescore>
     Score         DG    S(hbond)    S(metal)    S(lipo)     H(rot)  DE(clash)    DE(int)     intcor
     16.72     -18.61       2.85        0.00      64.77       1.55       0.09       1.80       ----

> <Gold.Chemscore.Fitness>
16.7231

> <Gold.Chemscore.DG>
-18.6066

> <Gold.Chemscore.ZeroCoef>
-5.4800

> <Gold.Chemscore.Hbond>
2.8508

> <Gold.Chemscore.Metal>
0.0000

> <Gold.Chemscore.Lipo>
64.7714

> <Gold.Chemscore.Internal_Hbond>
0.0000

> <Gold.Chemscore.DEClash>
0.0862

> <Gold.Chemscore.DEInternal>
1.7973

> <Gold.Chemscore.Rot>
1.5521

> <Gold.Chemscore.Internal.Correction>
   9.000000E+99

> <Gold.Chemscore.Hbonds>
donor molecule, donor type, donor heavy atom, donor atom, acceptor molecule, acceptor atom, score
      L1  H     7    27       P1  7948  0.99
      L1  H    10    28       P1  7948  0.80
      P1  H  7989  7998       L1    21  0.43
      P1  H  7997  8008       L1     2  0.42

> <Gold.Chemscore.Hbond.Weighted>
-9.5218

> <Gold.Chemscore.Metal.Weighted>
-0.0000

> <Gold.Chemscore.Lipo.Weighted>
-7.5783

> <Gold.Chemscore.Internal_Hbond.Weighted>
0.0000

> <Gold.Chemscore.DEClash.Weighted>
0.0862

> <Gold.Chemscore.DEInternal.Weighted>
1.7973

> <Gold.Chemscore.Rot.Weighted>
3.9734

> <Gold.Chemscore.Internal.Correction.Weighted>
   9.000000E+99

> <Gold.Protein.RotatedTorsions>
[ 6907 6896 6895 6894 ] final  -74.24 input  -60.11 | X-H torsion
[ 7974 7965 7964 7962 ] final   94.14 input  175.53 | X-H torsion
[ 8008 7997 7996 7995 ] final  -51.07 input   59.86 | X-H torsion
[ 10167 10162 10161 10158 ] final  -22.69 input  -65.29 | X-H torsion
[ 10718 10713 10712 10709 ] final   99.68 input   66.30 | X-H torsion
[ 10763 10752 10751 10750 ] final  -84.07 input  -60.55 | X-H torsion
[ 11005 11000 10999 10996 ] final -155.54 input  -57.11 | X-H torsion

> <Gold.Protein.ActiveResidues>
 VAL166  LYS551  ARG553  GLY616  TRP617  ASP618  TYR619  PRO620  LYS621  CYS622 
 ASP623  PHE694  ASN695  SER759  ASP760  ASP761  ALA762  ILE779  LEU786  VAL792 
 PHE793  MET794  SER795  GLU796  ALA797  LYS798  CYS799  TRP800  GLU811  SER814 

> <Gold.Protein.RotatedAtoms>
  150.7100  134.4898  159.5509 H   0  0  0  0  0  0  0  0  0  0  0  0  # atno 6907 bound_to 6896
  152.2517  134.8122  160.0454 H   0  0  0  0  0  0  0  0  0  0  0  0  # atno 6908 bound_to 6896
  151.8867  133.3472  159.3821 H   0  0  0  0  0  0  0  0  0  0  0  0  # atno 6909 bound_to 6896
  145.4695  139.2282  143.2943 H   0  0  0  0  0  0  0  0  0  0  0  0  # atno 7974 bound_to 7965
  154.4075  140.1257  156.4769 H   0  0  0  0  0  0  0  0  0  0  0  0  # atno 8008 bound_to 7997
  155.7124  140.3493  155.4960 H   0  0  0  0  0  0  0  0  0  0  0  0  # atno 8009 bound_to 7997
  155.9288  140.1066  157.1138 H   0  0  0  0  0  0  0  0  0  0  0  0  # atno 8010 bound_to 7997
  140.7286  143.4512  151.0514 H   0  0  0  0  0  0  0  0  0  0  0  0  # atno 10167 bound_to 10162
  157.6871  131.0676  150.4985 H   0  0  0  0  0  0  0  0  0  0  0  0  # atno 10718 bound_to 10713
  154.5951  135.5534  153.7318 H   0  0  0  0  0  0  0  0  0  0  0  0  # atno 10763 bound_to 10752
  153.0132  135.6353  154.1793 H   0  0  0  0  0  0  0  0  0  0  0  0  # atno 10764 bound_to 10752
  154.1734  135.2891  155.3054 H   0  0  0  0  0  0  0  0  0  0  0  0  # atno 10765 bound_to 10752
  140.6853  134.4100  157.5223 H   0  0  0  0  0  0  0  0  0  0  0  0  # atno 11005 bound_to 11000
  146.2405  140.5472  142.8936 LP  0  0  0  0  0  0  0  0  0  0  0  0  # atno 17320 bound_to 7965
  144.7954  140.6112  143.6514 LP  0  0  0  0  0  0  0  0  0  0  0  0  # atno 17321 bound_to 7965
  139.8188  143.7849  152.3176 LP  0  0  0  0  0  0  0  0  0  0  0  0  # atno 17342 bound_to 10162
  139.7924  144.7405  150.9937 LP  0  0  0  0  0  0  0  0  0  0  0  0  # atno 17343 bound_to 10162
  156.5308  130.4184  149.6203 LP  0  0  0  0  0  0  0  0  0  0  0  0  # atno 17370 bound_to 10713
  156.3071  130.7209  151.2093 LP  0  0  0  0  0  0  0  0  0  0  0  0  # atno 17371 bound_to 10713
  139.8939  134.8719  156.2201 LP  0  0  0  0  0  0  0  0  0  0  0  0  # atno 17394 bound_to 11000
  141.0285  133.7002  156.1388 LP  0  0  0  0  0  0  0  0  0  0  0  0  # atno 17395 bound_to 11000

$$$$
