AV-unprocessed.smi:1401|AV-procd|sdf|5692|dock1
  -GOLD-   22720 5323D 1   1.00000     0.00000
 Structure written by MMmdl.
 48 50  0  0  0  0  0  0  0  0  1 V2000
  146.1891  133.0464  152.0853 C   0  0  0  0  0  0  0  0  0  0  0  0
  147.3041  132.6055  152.9952 C   0  0  0  0  0  0  0  0  0  0  0  0
  148.0758  133.5335  153.4572 N   0  0  0  0  0  0  0  0  0  0  0  0
  149.1283  133.2400  154.3027 N   0  0  0  0  0  0  0  0  0  0  0  0
  149.9113  134.4150  154.7134 C   0  0  0  0  0  0  0  0  0  0  0  0
  149.0755  135.4996  155.4097 C   0  0  0  0  0  0  0  0  0  0  0  0
  148.6519  135.3359  156.5549 O   0  0  0  0  0  0  0  0  0  0  0  0
  148.8598  136.6158  154.6964 N   0  0  0  0  0  0  0  0  0  0  0  0
  148.0966  137.7807  155.1427 C   0  0  2  0  0  0  0  0  0  0  0  0
  147.3845  138.3956  153.9247 C   0  0  0  0  0  0  0  0  0  0  0  0
  149.0421  138.7787  155.8567 C   0  0  2  0  0  0  0  0  0  0  0  0
  148.3049  139.9762  156.5089 C   0  0  0  0  0  0  0  0  0  0  0  0
  149.0286  141.2019  155.9251 C   0  0  1  0  0  0  0  0  0  0  0  0
  150.4552  141.2813  156.4979 C   0  0  0  0  0  0  0  0  0  0  0  0
  151.1703  140.1198  155.7831 C   0  0  0  0  0  0  0  0  0  0  0  0
  150.0474  139.5042  154.9257 C   0  0  2  0  0  0  0  0  0  0  0  0
  149.2821  140.7512  154.4935 C   0  0  0  0  0  0  0  0  0  0  0  0
  149.4476  131.9874  154.7393 C   0  0  0  0  0  0  0  0  0  0  0  0
  150.3883  131.7725  155.5053 O   0  0  0  0  0  0  0  0  0  0  0  0
  148.5713  130.9405  154.2092 C   0  0  0  0  0  0  0  0  0  0  0  0
  148.8713  129.6130  154.6397 C   0  0  0  0  0  0  0  0  0  0  0  0
  149.1319  128.5365  154.9767 N   0  0  0  0  0  0  0  0  0  0  0  0
  147.5434  131.2145  153.3675 C   0  0  0  0  0  0  0  0  0  0  0  0
  146.6060  130.1613  152.7930 C   0  0  0  0  0  0  0  0  0  0  0  0
  145.2301  132.6565  152.4272 H   0  0  0  0  0  0  0  0  0  0  0  0
  146.3573  132.6898  151.0687 H   0  0  0  0  0  0  0  0  0  0  0  0
  146.1041  134.1335  152.0442 H   0  0  0  0  0  0  0  0  0  0  0  0
  150.7103  134.1155  155.3942 H   0  0  0  0  0  0  0  0  0  0  0  0
  150.4146  134.8487  153.8472 H   0  0  0  0  0  0  0  0  0  0  0  0
  149.2511  136.6623  153.7668 H   0  0  0  0  0  0  0  0  0  0  0  0
  147.3349  137.4625  155.8563 H   0  0  0  0  0  0  0  0  0  0  0  0
  146.7293  139.2181  154.2084 H   0  0  0  0  0  0  0  0  0  0  0  0
  146.7633  137.6546  153.4202 H   0  0  0  0  0  0  0  0  0  0  0  0
  148.1013  138.7764  153.1965 H   0  0  0  0  0  0  0  0  0  0  0  0
  149.5904  138.2300  156.6245 H   0  0  0  0  0  0  0  0  0  0  0  0
  147.2521  140.0029  156.2240 H   0  0  0  0  0  0  0  0  0  0  0  0
  148.3496  139.9470  157.5982 H   0  0  0  0  0  0  0  0  0  0  0  0
  148.4650  142.1301  156.0229 H   0  0  0  0  0  0  0  0  0  0  0  0
  150.9246  142.2332  156.2464 H   0  0  0  0  0  0  0  0  0  0  0  0
  150.4700  141.1759  157.5832 H   0  0  0  0  0  0  0  0  0  0  0  0
  151.9743  140.4983  155.1506 H   0  0  0  0  0  0  0  0  0  0  0  0
  151.6058  139.4037  156.4807 H   0  0  0  0  0  0  0  0  0  0  0  0
  150.4305  138.8999  154.1047 H   0  0  0  0  0  0  0  0  0  0  0  0
  148.3681  140.5345  153.9384 H   0  0  0  0  0  0  0  0  0  0  0  0
  149.8887  141.4546  153.9203 H   0  0  0  0  0  0  0  0  0  0  0  0
  146.9727  129.1498  152.9655 H   0  0  0  0  0  0  0  0  0  0  0  0
  146.4947  130.2821  151.7151 H   0  0  0  0  0  0  0  0  0  0  0  0
  145.6208  130.2416  153.2532 H   0  0  0  0  0  0  0  0  0  0  0  0
  1  2  1  0  0  0  0
  1 25  1  0  0  0  0
  1 26  1  0  0  0  0
  1 27  1  0  0  0  0
  2 23  1  0  0  0  0
  2  3  2  0  0  0  0
  3  4  1  0  0  0  0
  4  5  1  0  0  0  0
  4 18  1  0  0  0  0
  5  6  1  0  0  0  0
  5 28  1  0  0  0  0
  5 29  1  0  0  0  0
  6  7  2  0  0  0  0
  6  8  1  0  0  0  0
  8  9  1  0  0  0  0
  8 30  1  0  0  0  0
  9 10  1  0  0  0  0
  9 11  1  0  0  0  0
  9 31  1  0  0  0  0
 10 32  1  0  0  0  0
 10 33  1  0  0  0  0
 10 34  1  0  0  0  0
 11 16  1  0  0  0  0
 11 12  1  0  0  0  0
 11 35  1  0  0  0  0
 12 13  1  0  0  0  0
 12 36  1  0  0  0  0
 12 37  1  0  0  0  0
 13 17  1  0  0  0  0
 13 14  1  0  0  0  0
 13 38  1  0  0  0  0
 14 15  1  0  0  0  0
 14 39  1  0  0  0  0
 14 40  1  0  0  0  0
 15 16  1  0  0  0  0
 15 41  1  0  0  0  0
 15 42  1  0  0  0  0
 16 17  1  0  0  0  0
 16 43  1  0  0  0  0
 17 44  1  0  0  0  0
 17 45  1  0  0  0  0
 18 19  2  0  0  0  0
 18 20  1  0  0  0  0
 20 21  1  0  0  0  0
 20 23  2  0  0  0  0
 21 22  3  0  0  0  0
 23 24  1  0  0  0  0
 24 46  1  0  0  0  0
 24 47  1  0  0  0  0
 24 48  1  0  0  0  0
M  END
> <s_m_source_file>
AV-unprocessed.smi

> <i_m_source_file_index>
1401

> <i_lp_mmshare_version>
43012

> <i_f3d_flags>
0

> <s_epik_input>
TiNDYyhjMVtDSDNdKWMoPU8pbihuYzFbQ0gzXSlbQ0gyXUMoPU8pW05IXVtDQEhdKFtDSDNdKVtDQEhdKFtDSDJdW0NASF0yMylbQ0BIXShbQ0gyXTMpW0NIMl1bQ0gyXTI=

> <s_epik_cmdline>
J2VwaWtfcHl0aG9uJywgJy1waCcsICc3LjAnLCAnLXRuJywgJzgnLCAnLW1hJywgJzIwMCcsICctbWV0YWxfYmluZGluZycsICctaW1hZScsICc8aW5maWxlLm1hZT4nLCAnLW9tYWUnLCAnPG91dGZpbGUubWFlPic=

> <r_lp_tautomer_probability>
1

> <r_epik_Ionization_Penalty>
2.16501e-08

> <r_epik_Ionization_Penalty_Charging>
2.29436e-11

> <r_epik_Ionization_Penalty_Neutral>
2.16271e-08

> <r_epik_State_Penalty>
-0

> <r_epik_Charging_Adjusted_Penalty>
2.29436e-11

> <i_epik_Tot_Q>
0

> <i_epik_Tot_abs_Q>
0

> <r_epik_Metal_State_Penalty>
-0

> <b_epik_Metal_Only>
0

> <s_lp_Force_Field>
OPLS_2005

> <r_lp_Energy>
66.5869

> <b_lp_Chiralities_Consistent>
1

> <s_lp_Variant>
AV-unprocessed.smi:1401-5

> <Gold.Version>
5.8.1

> <Gold.Id.Protein>
6NUR|6NUR_protein|mol2

> <Gold.PLP.Fitness>
37.1007

> <Gold.PLP.PLP>
-35.3636

> <Gold.PLP.part.hbond>
-1.0000

> <Gold.PLP.part.metal>
0.0000

> <Gold.PLP.part.buried>
-3.4027

> <Gold.PLP.part.nonpolar>
-31.6651

> <Gold.PLP.part.repulsive>
0.6037

> <Gold.PLP.ligand.clash>
0.0000

> <Gold.PLP.ligand.torsion>
0.5728

> <Gold.PLP.Chemscore.Hbond>
0.9440

> <Gold.PLP.Chemscore.CHOScore>
0.0000

> <Gold.PLP.Chemscore.Metal>
0.0000

> <Gold.Chemscore.Hbonds>
donor molecule, donor type, donor heavy atom, donor atom, acceptor molecule, acceptor atom, score
      L1  H     8    30       P1  7948  0.93

> <Gold.PLP.Chemscore.Internal.Correction>
0.0508

> <Gold.Rescore>
     Score         DG    S(hbond)    S(metal)    S(lipo)     H(rot)  DE(clash)    DE(int)     intcor
     12.18     -13.34       0.92        0.00      76.54       1.63       0.07       1.09       ----

> <Gold.Chemscore.Fitness>
12.1766

> <Gold.Chemscore.DG>
-13.3369

> <Gold.Chemscore.ZeroCoef>
-5.4800

> <Gold.Chemscore.Hbond>
0.9189

> <Gold.Chemscore.Metal>
0.0000

> <Gold.Chemscore.Lipo>
76.5446

> <Gold.Chemscore.Internal_Hbond>
0.0000

> <Gold.Chemscore.DEClash>
0.0701

> <Gold.Chemscore.DEInternal>
1.0902

> <Gold.Chemscore.Rot>
1.6281

> <Gold.Chemscore.Internal.Correction>
   9.000000E+99

> <Gold.Chemscore.Hbonds>
donor molecule, donor type, donor heavy atom, donor atom, acceptor molecule, acceptor atom, score
      L1  H     8    30       P1  7948  0.86

> <Gold.Chemscore.Hbond.Weighted>
-3.0690

> <Gold.Chemscore.Metal.Weighted>
-0.0000

> <Gold.Chemscore.Lipo.Weighted>
-8.9557

> <Gold.Chemscore.Internal_Hbond.Weighted>
0.0000

> <Gold.Chemscore.DEClash.Weighted>
0.0701

> <Gold.Chemscore.DEInternal.Weighted>
1.0902

> <Gold.Chemscore.Rot.Weighted>
4.1678

> <Gold.Chemscore.Internal.Correction.Weighted>
   9.000000E+99

> <Gold.Protein.RotatedTorsions>
[ 6907 6896 6895 6894 ] final  172.36 input  -60.11 | X-H torsion
[ 7974 7965 7964 7962 ] final  173.23 input  175.53 | X-H torsion
[ 8008 7997 7996 7995 ] final  167.76 input   59.86 | X-H torsion
[ 10167 10162 10161 10158 ] final -159.60 input  -65.29 | X-H torsion
[ 10718 10713 10712 10709 ] final -168.61 input   66.30 | X-H torsion
[ 10763 10752 10751 10750 ] final  -12.13 input  -60.55 | X-H torsion
[ 11005 11000 10999 10996 ] final   22.93 input  -57.11 | X-H torsion

> <Gold.Protein.ActiveResidues>
 VAL166  LYS551  ARG553  GLY616  TRP617  ASP618  TYR619  PRO620  LYS621  CYS622 
 ASP623  PHE694  ASN695  SER759  ASP760  ASP761  ALA762  ILE779  LEU786  VAL792 
 PHE793  MET794  SER795  GLU796  ALA797  LYS798  CYS799  TRP800  GLU811  SER814 

> <Gold.Protein.RotatedAtoms>
  151.7855  133.3354  159.3483 H   0  0  0  0  0  0  0  0  0  0  0  0  # atno 6907 bound_to 6896
  150.7411  134.5891  159.5988 H   0  0  0  0  0  0  0  0  0  0  0  0  # atno 6908 bound_to 6896
  152.3247  134.7338  160.0356 H   0  0  0  0  0  0  0  0  0  0  0  0  # atno 6909 bound_to 6896
  144.7248  139.9616  143.6435 H   0  0  0  0  0  0  0  0  0  0  0  0  # atno 7974 bound_to 7965
  156.1606  140.1608  156.8618 H   0  0  0  0  0  0  0  0  0  0  0  0  # atno 8008 bound_to 7997
  154.5157  140.0790  156.8112 H   0  0  0  0  0  0  0  0  0  0  0  0  # atno 8009 bound_to 7997
  155.3714  140.3400  155.4245 H   0  0  0  0  0  0  0  0  0  0  0  0  # atno 8010 bound_to 7997
  139.6603  143.9925  152.2221 H   0  0  0  0  0  0  0  0  0  0  0  0  # atno 10167 bound_to 10162
  156.6995  130.9191  151.3078 H   0  0  0  0  0  0  0  0  0  0  0  0  # atno 10718 bound_to 10713
  153.4939  135.7017  153.5869 H   0  0  0  0  0  0  0  0  0  0  0  0  # atno 10763 bound_to 10752
  153.4029  135.3867  155.2000 H   0  0  0  0  0  0  0  0  0  0  0  0  # atno 10764 bound_to 10752
  154.8715  135.3886  154.4403 H   0  0  0  0  0  0  0  0  0  0  0  0  # atno 10765 bound_to 10752
  140.3752  134.1980  155.7665 H   0  0  0  0  0  0  0  0  0  0  0  0  # atno 11005 bound_to 11000
  146.0632  139.3625  143.0568 LP  0  0  0  0  0  0  0  0  0  0  0  0  # atno 17320 bound_to 7965
  145.8065  140.9746  143.0971 LP  0  0  0  0  0  0  0  0  0  0  0  0  # atno 17321 bound_to 7965
  139.9662  144.6525  150.8032 LP  0  0  0  0  0  0  0  0  0  0  0  0  # atno 17342 bound_to 10162
  140.7577  143.3092  151.2887 LP  0  0  0  0  0  0  0  0  0  0  0  0  # atno 17343 bound_to 10162
  157.6978  130.9301  150.0696 LP  0  0  0  0  0  0  0  0  0  0  0  0  # atno 17370 bound_to 10713
  156.1739  130.3647  149.9127 LP  0  0  0  0  0  0  0  0  0  0  0  0  # atno 17371 bound_to 10713
  141.1942  133.8134  157.0768 LP  0  0  0  0  0  0  0  0  0  0  0  0  # atno 17394 bound_to 11000
  140.0521  134.9800  157.1155 LP  0  0  0  0  0  0  0  0  0  0  0  0  # atno 17395 bound_to 11000

$$$$
