AV-unprocessed.smi:95|AV-procd|sdf|858|dock2
  -GOLD-   2262017303D 1   1.00000     0.00000
 Structure written by MMmdl.
 42 45  0  0  0  0  0  0  0  0  2 V2000
  148.2403  139.3254  156.8129 O   0  0  0  0  0  0  0  0  0  0  0  0
  148.1917  138.5281  157.7516 C   0  0  0  0  0  0  0  0  0  0  0  0
  146.9468  138.0706  158.3566 C   0  0  0  0  0  0  0  0  0  0  0  0
  145.7727  138.5084  157.8716 F   0  0  0  0  0  0  0  0  0  0  0  0
  146.9517  137.1944  159.3845 C   0  0  0  0  0  0  0  0  0  0  0  0
  148.1132  136.6898  159.9489 N   0  0  0  0  0  0  0  0  0  0  0  0
  148.0798  135.6257  161.0278 C   0  0  1  0  0  0  0  0  0  0  0  0
  147.3856  136.0640  162.3293 C   0  0  0  0  0  0  0  0  0  0  0  0
  146.0511  135.3497  162.2404 C   0  0  0  0  0  0  0  0  0  0  0  0
  146.4293  134.0885  161.4737 C   0  0  0  0  0  0  0  0  0  0  0  0
  147.3789  134.5327  160.5131 O   0  0  0  0  0  0  0  0  0  0  0  0
  149.3614  137.0246  159.3753 C   0  0  0  0  0  0  0  0  0  0  0  0
  150.4042  136.5070  159.7819 O   0  0  0  0  0  0  0  0  0  0  0  0
  149.3603  137.9622  158.3145 N   0  0  0  0  0  0  0  0  0  0  0  0
  150.6299  138.3347  157.7122 C   0  0  0  0  0  0  0  0  0  0  0  0
  151.0423  139.7813  157.9436 C   0  0  0  0  0  0  0  0  0  0  0  0
  150.6541  140.8358  157.0874 C   0  0  0  0  0  0  0  0  0  0  0  0
  151.0693  142.1509  157.3792 C   0  0  0  0  0  0  0  0  0  0  0  0
  151.8657  142.3855  158.5202 C   0  0  0  0  0  0  0  0  0  0  0  0
  152.3018  143.6858  158.8469 C   0  0  0  0  0  0  0  0  0  0  0  0
  153.0976  143.8933  159.9915 C   0  0  0  0  0  0  0  0  0  0  0  0
  153.4593  142.8052  160.8111 C   0  0  0  0  0  0  0  0  0  0  0  0
  153.0262  141.5032  160.4909 C   0  0  0  0  0  0  0  0  0  0  0  0
  152.2304  141.2934  159.3473 C   0  0  0  0  0  0  0  0  0  0  0  0
  151.8063  140.0512  159.0262 N   0  3  0  0  0  0  0  0  0  0  0  0
  145.9919  136.8791  159.7614 H   0  0  0  0  0  0  0  0  0  0  0  0
  149.1204  135.3641  161.2260 H   0  0  0  0  0  0  0  0  0  0  0  0
  147.9591  135.6671  163.1681 H   0  0  0  0  0  0  0  0  0  0  0  0
  147.3256  137.1456  162.4496 H   0  0  0  0  0  0  0  0  0  0  0  0
  145.6142  135.1388  163.2169 H   0  0  0  0  0  0  0  0  0  0  0  0
  145.3341  135.9368  161.6664 H   0  0  0  0  0  0  0  0  0  0  0  0
  146.9042  133.3643  162.1374 H   0  0  0  0  0  0  0  0  0  0  0  0
  145.5727  133.6087  160.9998 H   0  0  0  0  0  0  0  0  0  0  0  0
  151.3768  137.6420  158.1059 H   0  0  0  0  0  0  0  0  0  0  0  0
  150.5931  138.1225  156.6435 H   0  0  0  0  0  0  0  0  0  0  0  0
  150.0450  140.6450  156.2160 H   0  0  0  0  0  0  0  0  0  0  0  0
  150.7777  142.9659  156.7326 H   0  0  0  0  0  0  0  0  0  0  0  0
  152.0299  144.5264  158.2248 H   0  0  0  0  0  0  0  0  0  0  0  0
  153.4320  144.8897  160.2414 H   0  0  0  0  0  0  0  0  0  0  0  0
  154.0698  142.9702  161.6869 H   0  0  0  0  0  0  0  0  0  0  0  0
  153.3071  140.6740  161.1242 H   0  0  0  0  0  0  0  0  0  0  0  0
  152.0736  139.2768  159.6338 H   0  0  0  0  0  0  0  0  0  0  0  0
  1  2  2  0  0  0  0
  2 14  1  0  0  0  0
  2  3  1  0  0  0  0
  3  4  1  0  0  0  0
  3  5  2  0  0  0  0
  5  6  1  0  0  0  0
  5 26  1  0  0  0  0
  6  7  1  0  0  0  0
  6 12  1  0  0  0  0
  7 11  1  0  0  0  0
  7  8  1  0  0  0  0
  7 27  1  0  0  0  0
  8  9  1  0  0  0  0
  8 28  1  0  0  0  0
  8 29  1  0  0  0  0
  9 10  1  0  0  0  0
  9 30  1  0  0  0  0
  9 31  1  0  0  0  0
 10 11  1  0  0  0  0
 10 32  1  0  0  0  0
 10 33  1  0  0  0  0
 12 13  2  0  0  0  0
 12 14  1  0  0  0  0
 14 15  1  0  0  0  0
 15 16  1  0  0  0  0
 15 34  1  0  0  0  0
 15 35  1  0  0  0  0
 16 25  1  0  0  0  0
 16 17  2  0  0  0  0
 17 18  1  0  0  0  0
 17 36  1  0  0  0  0
 18 19  2  0  0  0  0
 18 37  1  0  0  0  0
 19 24  1  0  0  0  0
 19 20  1  0  0  0  0
 20 21  2  0  0  0  0
 20 38  1  0  0  0  0
 21 22  1  0  0  0  0
 21 39  1  0  0  0  0
 22 23  2  0  0  0  0
 22 40  1  0  0  0  0
 23 24  1  0  0  0  0
 23 41  1  0  0  0  0
 24 25  2  0  0  0  0
 25 42  1  0  0  0  0
M  CHG  1  25   1
M  END
> <s_m_source_file>
AV-unprocessed.smi

> <i_m_source_file_index>
95

> <i_lp_mmshare_version>
43012

> <i_f3d_flags>
0

> <s_epik_input>
TzFbQ0gyXVtDSDJdW0NIMl1bQ0BIXTFuKFtjSF1jKEYpYzI9TyljKD1PKW4yW0NIMl1jKFtjSF1bY0hdMyluYyhjMzQpW2NIXVtjSF1bY0hdW2NIXTQ=

> <s_epik_cmdline>
J2VwaWtfcHl0aG9uJywgJy1waCcsICc3LjAnLCAnLXRuJywgJzgnLCAnLW1hJywgJzIwMCcsICctbWV0YWxfYmluZGluZycsICctaW1hZScsICc8aW5maWxlLm1hZT4nLCAnLW9tYWUnLCAnPG91dGZpbGUubWFlPic=

> <r_lp_tautomer_probability>
1

> <r_epik_Ionization_Penalty>
1.83445

> <r_epik_Ionization_Penalty_Charging>
1.83445

> <r_epik_Ionization_Penalty_Neutral>
6.33322e-12

> <r_epik_State_Penalty>
1.95069

> <r_epik_Charging_Adjusted_Penalty>
3.78513

> <i_epik_Tot_Q>
1

> <i_epik_Tot_abs_Q>
1

> <r_epik_Metal_State_Penalty>
6.02102

> <b_epik_Metal_Only>
0

> <s_epik_Chemistry_Notes>
This compound contains an acetal/aminal-like group ( X-CH(R)-Y where X, Y are N, S, or O) that may be acid/base labile, releasing an aldehyde.

> <s_lp_Force_Field>
OPLS_2005

> <r_lp_Energy>
36.6829

> <b_lp_Chiralities_Consistent>
1

> <s_lp_Variant>
AV-unprocessed.smi:95-4

> <Gold.Version>
5.8.1

> <Gold.Id.Protein>
6NUR|6NUR_protein|mol2

> <Gold.PLP.Fitness>
47.2027

> <Gold.PLP.PLP>
-45.0745

> <Gold.PLP.part.hbond>
-1.2949

> <Gold.PLP.part.metal>
0.0000

> <Gold.PLP.part.buried>
-5.1818

> <Gold.PLP.part.nonpolar>
-40.1609

> <Gold.PLP.part.repulsive>
0.1337

> <Gold.PLP.ligand.clash>
0.0000

> <Gold.PLP.ligand.torsion>
0.4853

> <Gold.PLP.Chemscore.Hbond>
1.0000

> <Gold.PLP.Chemscore.CHOScore>
0.0000

> <Gold.PLP.Chemscore.Metal>
0.0000

> <Gold.Chemscore.Hbonds>
donor molecule, donor type, donor heavy atom, donor atom, acceptor molecule, acceptor atom, score
      P1  H  6896  6909       L1    13  1.00

> <Gold.PLP.Chemscore.Internal.Correction>
0.0989

> <Gold.Rescore>
     Score         DG    S(hbond)    S(metal)    S(lipo)     H(rot)  DE(clash)    DE(int)     intcor
     17.13     -17.91       0.98        0.00     111.88       1.54       0.01       0.77       ----

> <Gold.Chemscore.Fitness>
17.1297

> <Gold.Chemscore.DG>
-17.9091

> <Gold.Chemscore.ZeroCoef>
-5.4800

> <Gold.Chemscore.Hbond>
0.9830

> <Gold.Chemscore.Metal>
0.0000

> <Gold.Chemscore.Lipo>
111.8831

> <Gold.Chemscore.Internal_Hbond>
0.0000

> <Gold.Chemscore.DEClash>
0.0106

> <Gold.Chemscore.DEInternal>
0.7689

> <Gold.Chemscore.Rot>
1.5407

> <Gold.Chemscore.Internal.Correction>
   9.000000E+99

> <Gold.Chemscore.Hbonds>
donor molecule, donor type, donor heavy atom, donor atom, acceptor molecule, acceptor atom, score
      P1  H  6896  6909       L1    13  0.99

> <Gold.Chemscore.Hbond.Weighted>
-3.2831

> <Gold.Chemscore.Metal.Weighted>
-0.0000

> <Gold.Chemscore.Lipo.Weighted>
-13.0903

> <Gold.Chemscore.Internal_Hbond.Weighted>
0.0000

> <Gold.Chemscore.DEClash.Weighted>
0.0106

> <Gold.Chemscore.DEInternal.Weighted>
0.7689

> <Gold.Chemscore.Rot.Weighted>
3.9443

> <Gold.Chemscore.Internal.Correction.Weighted>
   9.000000E+99

> <Gold.Protein.RotatedTorsions>
[ 6907 6896 6895 6894 ] final   80.30 input  -60.11 | X-H torsion
[ 7974 7965 7964 7962 ] final   27.39 input  175.53 | X-H torsion
[ 8008 7997 7996 7995 ] final   46.67 input   59.86 | X-H torsion
[ 10167 10162 10161 10158 ] final -168.55 input  -65.29 | X-H torsion
[ 10718 10713 10712 10709 ] final  -37.08 input   66.30 | X-H torsion
[ 10763 10752 10751 10750 ] final  167.37 input  -60.55 | X-H torsion
[ 11005 11000 10999 10996 ] final   30.59 input  -57.11 | X-H torsion

> <Gold.Protein.ActiveResidues>
 VAL166  LYS551  ARG553  GLY616  TRP617  ASP618  TYR619  PRO620  LYS621  CYS622 
 ASP623  PHE694  ASN695  SER759  ASP760  ASP761  ALA762  ILE779  LEU786  VAL792 
 PHE793  MET794  SER795  GLU796  ALA797  LYS798  CYS799  TRP800  GLU811  SER814 

> <Gold.Protein.RotatedAtoms>
  152.5230  134.3379  159.9206 H   0  0  0  0  0  0  0  0  0  0  0  0  # atno 6907 bound_to 6896
  151.3329  133.3987  159.2672 H   0  0  0  0  0  0  0  0  0  0  0  0  # atno 6908 bound_to 6896
  150.9866  134.9228  159.7933 H   0  0  0  0  0  0  0  0  0  0  0  0  # atno 6909 bound_to 6896
  146.1787  139.7199  142.8916 H   0  0  0  0  0  0  0  0  0  0  0  0  # atno 7974 bound_to 7965
  155.3563  140.3416  155.4240 H   0  0  0  0  0  0  0  0  0  0  0  0  # atno 8008 bound_to 7997
  156.1737  140.1640  156.8436 H   0  0  0  0  0  0  0  0  0  0  0  0  # atno 8009 bound_to 7997
  154.5260  140.0756  156.8241 H   0  0  0  0  0  0  0  0  0  0  0  0  # atno 8010 bound_to 7997
  139.5978  144.1075  152.1709 H   0  0  0  0  0  0  0  0  0  0  0  0  # atno 10167 bound_to 10162
  156.3194  130.4263  149.7975 H   0  0  0  0  0  0  0  0  0  0  0  0  # atno 10718 bound_to 10713
  154.3529  135.2753  155.2362 H   0  0  0  0  0  0  0  0  0  0  0  0  # atno 10763 bound_to 10752
  154.4584  135.5913  153.6242 H   0  0  0  0  0  0  0  0  0  0  0  0  # atno 10764 bound_to 10752
  152.9848  135.6059  154.3741 H   0  0  0  0  0  0  0  0  0  0  0  0  # atno 10765 bound_to 10752
  140.2928  134.2845  155.7772 H   0  0  0  0  0  0  0  0  0  0  0  0  # atno 11005 bound_to 11000
  145.4138  141.0399  143.3002 LP  0  0  0  0  0  0  0  0  0  0  0  0  # atno 17320 bound_to 7965
  144.8278  139.5679  143.6957 LP  0  0  0  0  0  0  0  0  0  0  0  0  # atno 17321 bound_to 7965
  140.0664  144.5815  150.7224 LP  0  0  0  0  0  0  0  0  0  0  0  0  # atno 17342 bound_to 10162
  140.7226  143.2603  151.4229 LP  0  0  0  0  0  0  0  0  0  0  0  0  # atno 17343 bound_to 10162
  156.5288  130.8248  151.3230 LP  0  0  0  0  0  0  0  0  0  0  0  0  # atno 17370 bound_to 10713
  157.7408  130.9858  150.2405 LP  0  0  0  0  0  0  0  0  0  0  0  0  # atno 17371 bound_to 10713
  141.2143  133.7596  156.9650 LP  0  0  0  0  0  0  0  0  0  0  0  0  # atno 17394 bound_to 11000
  140.1180  134.9435  157.2162 LP  0  0  0  0  0  0  0  0  0  0  0  0  # atno 17395 bound_to 11000

$$$$
