AV-unprocessed.smi:702|AV-procd|sdf|3423|dock10
  -GOLD-   22720 0403D 1   1.00000     0.00000
 Structure written by MMmdl.
 50 52  0  0  0  0  0  0  0  0  2 V2000
  145.3950  138.7929  154.0851 C   0  0  0  0  0  0  0  0  0  0  0  0
  146.6415  137.9356  154.3807 C   0  0  1  0  0  0  0  0  0  0  0  0
  146.7521  136.9047  153.3413 N   0  0  0  0  0  0  0  0  0  0  0  0
  145.8146  136.0102  152.9945 C   0  0  0  0  0  0  0  0  0  0  0  0
  144.6998  135.9497  153.5119 O   0  0  0  0  0  0  0  0  0  0  0  0
  146.2688  135.1853  152.0353 N   0  0  0  0  0  0  0  0  0  0  0  0
  145.6044  134.0864  151.4267 C   0  0  0  0  0  0  0  0  0  0  0  0
  146.3881  133.1848  150.6729 C   0  0  0  0  0  0  0  0  0  0  0  0
  145.7704  132.0875  150.0390 C   0  0  0  0  0  0  0  0  0  0  0  0
  144.4360  131.9121  150.1482 N   0  3  0  0  0  0  0  0  0  0  0  0
  143.6436  132.7546  150.8447 C   0  0  0  0  0  0  0  0  0  0  0  0
  144.2047  133.8695  151.5002 C   0  0  0  0  0  0  0  0  0  0  0  0
  147.9653  138.7759  154.5370 C   0  0  0  0  0  0  0  0  0  0  0  0
  149.1576  137.8854  154.6892 N   0  0  0  0  0  0  0  0  0  0  0  0
  149.0235  136.8105  155.6864 C   0  0  0  0  0  0  0  0  0  0  0  0
  150.2405  135.8711  155.6972 C   0  0  0  0  0  0  0  0  0  0  0  0
  151.4198  136.6246  155.9469 O   0  0  0  0  0  0  0  0  0  0  0  0
  151.6298  137.6347  154.9690 C   0  0  0  0  0  0  0  0  0  0  0  0
  150.4242  138.5898  154.9323 C   0  0  0  0  0  0  0  0  0  0  0  0
  148.0973  139.7549  153.3261 C   0  0  0  0  0  0  0  0  0  0  0  0
  147.7830  141.1627  153.8365 C   0  0  0  0  0  0  0  0  0  0  0  0
  148.2052  141.1331  155.2978 C   0  0  0  0  0  0  0  0  0  0  0  0
  147.8068  139.7325  155.7654 C   0  0  0  0  0  0  0  0  0  0  0  0
  145.2084  139.5178  154.8773 H   0  0  0  0  0  0  0  0  0  0  0  0
  144.5040  138.1691  154.0073 H   0  0  0  0  0  0  0  0  0  0  0  0
  145.4924  139.3433  153.1495 H   0  0  0  0  0  0  0  0  0  0  0  0
  146.4485  137.4167  155.3181 H   0  0  0  0  0  0  0  0  0  0  0  0
  147.6368  136.8636  152.8569 H   0  0  0  0  0  0  0  0  0  0  0  0
  147.2328  135.3136  151.7641 H   0  0  0  0  0  0  0  0  0  0  0  0
  147.4557  133.3259  150.5840 H   0  0  0  0  0  0  0  0  0  0  0  0
  146.2996  131.3515  149.4512 H   0  0  0  0  0  0  0  0  0  0  0  0
  142.5898  132.5169  150.8528 H   0  0  0  0  0  0  0  0  0  0  0  0
  143.5501  134.5408  152.0346 H   0  0  0  0  0  0  0  0  0  0  0  0
  148.9019  137.2232  156.6867 H   0  0  0  0  0  0  0  0  0  0  0  0
  148.1429  136.2012  155.4956 H   0  0  0  0  0  0  0  0  0  0  0  0
  150.1295  135.1168  156.4764 H   0  0  0  0  0  0  0  0  0  0  0  0
  150.3297  135.3410  154.7478 H   0  0  0  0  0  0  0  0  0  0  0  0
  152.5392  138.1835  155.2141 H   0  0  0  0  0  0  0  0  0  0  0  0
  151.7874  137.1769  153.9912 H   0  0  0  0  0  0  0  0  0  0  0  0
  150.6263  139.3189  154.1515 H   0  0  0  0  0  0  0  0  0  0  0  0
  150.3744  139.1401  155.8722 H   0  0  0  0  0  0  0  0  0  0  0  0
  149.1056  139.7646  152.9167 H   0  0  0  0  0  0  0  0  0  0  0  0
  147.4557  139.4846  152.4870 H   0  0  0  0  0  0  0  0  0  0  0  0
  148.2958  141.9386  153.2677 H   0  0  0  0  0  0  0  0  0  0  0  0
  146.7114  141.3531  153.7664 H   0  0  0  0  0  0  0  0  0  0  0  0
  149.2852  141.2634  155.3722 H   0  0  0  0  0  0  0  0  0  0  0  0
  147.7345  141.9215  155.8858 H   0  0  0  0  0  0  0  0  0  0  0  0
  146.7762  139.7908  156.1124 H   0  0  0  0  0  0  0  0  0  0  0  0
  148.3666  139.4137  156.6447 H   0  0  0  0  0  0  0  0  0  0  0  0
  144.0075  131.1124  149.6808 H   0  0  0  0  0  0  0  0  0  0  0  0
  1  2  1  0  0  0  0
  1 24  1  0  0  0  0
  1 25  1  0  0  0  0
  1 26  1  0  0  0  0
  2  3  1  0  0  0  0
  2 13  1  0  0  0  0
  2 27  1  0  0  0  0
  3  4  1  0  0  0  0
  3 28  1  0  0  0  0
  4  5  2  0  0  0  0
  4  6  1  0  0  0  0
  6  7  1  0  0  0  0
  6 29  1  0  0  0  0
  7 12  1  0  0  0  0
  7  8  2  0  0  0  0
  8  9  1  0  0  0  0
  8 30  1  0  0  0  0
  9 10  2  0  0  0  0
  9 31  1  0  0  0  0
 10 11  1  0  0  0  0
 10 50  1  0  0  0  0
 11 12  2  0  0  0  0
 11 32  1  0  0  0  0
 12 33  1  0  0  0  0
 13 23  1  0  0  0  0
 13 14  1  0  0  0  0
 13 20  1  0  0  0  0
 14 19  1  0  0  0  0
 14 15  1  0  0  0  0
 15 16  1  0  0  0  0
 15 34  1  0  0  0  0
 15 35  1  0  0  0  0
 16 17  1  0  0  0  0
 16 36  1  0  0  0  0
 16 37  1  0  0  0  0
 17 18  1  0  0  0  0
 18 19  1  0  0  0  0
 18 38  1  0  0  0  0
 18 39  1  0  0  0  0
 19 40  1  0  0  0  0
 19 41  1  0  0  0  0
 20 21  1  0  0  0  0
 20 42  1  0  0  0  0
 20 43  1  0  0  0  0
 21 22  1  0  0  0  0
 21 44  1  0  0  0  0
 21 45  1  0  0  0  0
 22 23  1  0  0  0  0
 22 46  1  0  0  0  0
 22 47  1  0  0  0  0
 23 48  1  0  0  0  0
 23 49  1  0  0  0  0
M  CHG  1  10   1
M  END
> <s_m_source_file>
AV-unprocessed.smi

> <i_m_source_file_index>
702

> <i_lp_mmshare_version>
43012

> <i_f3d_flags>
0

> <s_epik_input>
W0NIMl0xW0NIMl1PW0NIMl1bQ0gyXU4xQzIoW0NIMl1bQ0gyXVtDSDJdW0NIMl0yKVtDQEhdKFtDSDNdKVtOSF1DKD1PKVtOSF1jM1tjSF1bY0hdbltjSF1bY0hdMw==

> <s_epik_cmdline>
J2VwaWtfcHl0aG9uJywgJy1waCcsICc3LjAnLCAnLXRuJywgJzgnLCAnLW1hJywgJzIwMCcsICctbWV0YWxfYmluZGluZycsICctaW1hZScsICc8aW5maWxlLm1hZT4nLCAnLW9tYWUnLCAnPG91dGZpbGUubWFlPic=

> <r_epik_Ionization_Penalty>
1.54019

> <r_epik_Ionization_Penalty_Charging>
1.02845

> <r_epik_Ionization_Penalty_Neutral>
0.511739

> <r_epik_State_Penalty>
1.62583

> <r_epik_Charging_Adjusted_Penalty>
2.65428

> <i_epik_Tot_Q>
1

> <i_epik_Tot_abs_Q>
1

> <r_epik_Metal_State_Penalty>
1.71803

> <b_epik_Metal_Only>
0

> <s_lp_Force_Field>
OPLS_2005

> <r_lp_Energy>
72.2563

> <b_lp_Chiralities_Consistent>
1

> <s_lp_Variant>
AV-unprocessed.smi:702-8

> <Gold.Version>
5.8.1

> <Gold.Id.Protein>
6NUR|6NUR_protein|mol2

> <Gold.PLP.Fitness>
40.5840

> <Gold.PLP.PLP>
-32.3245

> <Gold.PLP.part.hbond>
-3.0000

> <Gold.PLP.part.metal>
0.0000

> <Gold.PLP.part.buried>
-2.6519

> <Gold.PLP.part.nonpolar>
-28.1578

> <Gold.PLP.part.repulsive>
0.7547

> <Gold.PLP.ligand.clash>
0.0000

> <Gold.PLP.ligand.torsion>
0.2814

> <Gold.PLP.Chemscore.Hbond>
2.9000

> <Gold.PLP.Chemscore.CHOScore>
0.0000

> <Gold.PLP.Chemscore.Metal>
0.0000

> <Gold.Chemscore.Hbonds>
donor molecule, donor type, donor heavy atom, donor atom, acceptor molecule, acceptor atom, score
      L1  H     3    28       P1  7948  1.00
      L1  H     6    29       P1  7948  1.00
      P1  H 10752 10765       L1    17  0.08

> <Gold.PLP.Chemscore.Internal.Correction>
0.1222

> <Gold.Rescore>
     Score         DG    S(hbond)    S(metal)    S(lipo)     H(rot)  DE(clash)    DE(int)     intcor
     15.05     -19.22       1.99        0.00      92.29       1.44       1.59       2.58       ----

> <Gold.Chemscore.Fitness>
15.0540

> <Gold.Chemscore.DG>
-19.2228

> <Gold.Chemscore.ZeroCoef>
-5.4800

> <Gold.Chemscore.Hbond>
1.9851

> <Gold.Chemscore.Metal>
0.0000

> <Gold.Chemscore.Lipo>
92.2866

> <Gold.Chemscore.Internal_Hbond>
0.0000

> <Gold.Chemscore.DEClash>
1.5920

> <Gold.Chemscore.DEInternal>
2.5768

> <Gold.Chemscore.Rot>
1.4394

> <Gold.Chemscore.Internal.Correction>
   9.000000E+99

> <Gold.Chemscore.Hbonds>
donor molecule, donor type, donor heavy atom, donor atom, acceptor molecule, acceptor atom, score
      L1  H     3    28       P1  7948  1.00
      L1  H     6    29       P1  7948  0.96

> <Gold.Chemscore.Hbond.Weighted>
-6.6301

> <Gold.Chemscore.Metal.Weighted>
-0.0000

> <Gold.Chemscore.Lipo.Weighted>
-10.7975

> <Gold.Chemscore.Internal_Hbond.Weighted>
0.0000

> <Gold.Chemscore.DEClash.Weighted>
1.5920

> <Gold.Chemscore.DEInternal.Weighted>
2.5768

> <Gold.Chemscore.Rot.Weighted>
3.6848

> <Gold.Chemscore.Internal.Correction.Weighted>
   9.000000E+99

> <Gold.Protein.RotatedTorsions>
[ 6907 6896 6895 6894 ] final  175.16 input  -60.11 | X-H torsion
[ 7974 7965 7964 7962 ] final  151.10 input  175.53 | X-H torsion
[ 8008 7997 7996 7995 ] final   20.90 input   59.86 | X-H torsion
[ 10167 10162 10161 10158 ] final  152.25 input  -65.29 | X-H torsion
[ 10718 10713 10712 10709 ] final  174.43 input   66.30 | X-H torsion
[ 10763 10752 10751 10750 ] final -169.36 input  -60.55 | X-H torsion
[ 11005 11000 10999 10996 ] final -140.57 input  -57.11 | X-H torsion

> <Gold.Protein.ActiveResidues>
 VAL166  LYS551  ARG553  GLY616  TRP617  ASP618  TYR619  PRO620  LYS621  CYS622 
 ASP623  PHE694  ASN695  SER759  ASP760  ASP761  ALA762  ILE779  LEU786  VAL792 
 PHE793  MET794  SER795  GLU796  ALA797  LYS798  CYS799  TRP800  GLU811  SER814 

> <Gold.Protein.RotatedAtoms>
  151.7406  133.3322  159.3364 H   0  0  0  0  0  0  0  0  0  0  0  0  # atno 6907 bound_to 6896
  150.7575  134.6281  159.6181 H   0  0  0  0  0  0  0  0  0  0  0  0  # atno 6908 bound_to 6896
  152.3533  134.6978  160.0281 H   0  0  0  0  0  0  0  0  0  0  0  0  # atno 6909 bound_to 6896
  144.8316  139.6494  143.6056 H   0  0  0  0  0  0  0  0  0  0  0  0  # atno 7974 bound_to 7965
  154.9425  140.3055  155.5114 H   0  0  0  0  0  0  0  0  0  0  0  0  # atno 8008 bound_to 7997
  156.2994  140.2334  156.4432 H   0  0  0  0  0  0  0  0  0  0  0  0  # atno 8009 bound_to 7997
  154.8132  140.0427  157.1346 H   0  0  0  0  0  0  0  0  0  0  0  0  # atno 8010 bound_to 7997
  139.4834  144.5373  151.7623 H   0  0  0  0  0  0  0  0  0  0  0  0  # atno 10167 bound_to 10162
  156.9497  131.0027  151.2951 H   0  0  0  0  0  0  0  0  0  0  0  0  # atno 10718 bound_to 10713
  154.6531  135.2914  154.9961 H   0  0  0  0  0  0  0  0  0  0  0  0  # atno 10763 bound_to 10752
  154.1047  135.6571  153.4878 H   0  0  0  0  0  0  0  0  0  0  0  0  # atno 10764 bound_to 10752
  153.0387  135.5251  154.7448 H   0  0  0  0  0  0  0  0  0  0  0  0  # atno 10765 bound_to 10752
  140.8410  134.2402  157.4810 H   0  0  0  0  0  0  0  0  0  0  0  0  # atno 11005 bound_to 11000
  146.2618  139.6429  142.9356 LP  0  0  0  0  0  0  0  0  0  0  0  0  # atno 17320 bound_to 7965
  145.4883  141.0438  143.2607 LP  0  0  0  0  0  0  0  0  0  0  0  0  # atno 17321 bound_to 7965
  140.4907  144.1314  150.5950 LP  0  0  0  0  0  0  0  0  0  0  0  0  # atno 17342 bound_to 10162
  140.4174  143.2628  151.9758 LP  0  0  0  0  0  0  0  0  0  0  0  0  # atno 17343 bound_to 10162
  157.5730  130.8324  149.8417 LP  0  0  0  0  0  0  0  0  0  0  0  0  # atno 17370 bound_to 10713
  156.0368  130.3749  150.1539 LP  0  0  0  0  0  0  0  0  0  0  0  0  # atno 17371 bound_to 10713
  139.8703  134.9635  156.4464 LP  0  0  0  0  0  0  0  0  0  0  0  0  # atno 17394 bound_to 11000
  140.8895  133.7858  155.9556 LP  0  0  0  0  0  0  0  0  0  0  0  0  # atno 17395 bound_to 11000

$$$$
