AV-unprocessed.smi:2482|AV-procd|sdf|9782|dock2
  -GOLD-   2272013423D 1   1.00000     0.00000
 Structure written by MMmdl.
 34 35  0  0  0  0  0  0  0  0  3 V2000
  151.8198  144.0629  160.9681 C   0  0  0  0  0  0  0  0  0  0  0  0
  152.4945  142.7710  160.5460 C   0  0  0  0  0  0  0  0  0  0  0  0
  153.2820  142.1935  161.4788 N   0  0  0  0  0  0  0  0  0  0  0  0
  153.9003  141.0415  161.1525 C   0  0  0  0  0  0  0  0  0  0  0  0
  153.7659  140.4213  159.8961 C   0  0  0  0  0  0  0  0  0  0  0  0
  152.9518  141.0177  158.9076 C   0  0  0  0  0  0  0  0  0  0  0  0
  152.8093  140.4336  157.7063 N   0  5  0  0  0  0  0  0  0  0  0  0
  151.9372  139.4080  157.5519 C   0  0  0  0  0  0  0  0  0  0  0  0
  151.3962  138.7244  158.4236 O   0  0  0  0  0  0  0  0  0  0  0  0
  151.6462  139.1330  156.0593 C   0  0  1  0  0  0  0  0  0  0  0  0
  150.6526  137.9748  155.8037 C   0  0  0  0  0  0  0  0  0  0  0  0
  149.2778  138.3511  156.2109 N   0  3  2  0  0  0  0  0  0  0  0  0
  148.3104  137.2459  156.0462 C   0  0  0  0  0  0  0  0  0  0  0  0
  148.8495  139.5952  155.5328 C   0  0  0  0  0  0  0  0  0  0  0  0
  149.8572  140.7243  155.8030 C   0  0  0  0  0  0  0  0  0  0  0  0
  151.1614  140.3091  155.3994 O   0  0  0  0  0  0  0  0  0  0  0  0
  152.2947  142.2269  159.2544 C   0  0  0  0  0  0  0  0  0  0  0  0
  151.2607  143.0334  158.1200 Cl  0  0  0  0  0  0  0  0  0  0  0  0
  152.1296  144.8819  160.3186 H   0  0  0  0  0  0  0  0  0  0  0  0
  152.0736  144.3319  161.9942 H   0  0  0  0  0  0  0  0  0  0  0  0
  150.7360  143.9627  160.9047 H   0  0  0  0  0  0  0  0  0  0  0  0
  154.5218  140.5984  161.9166 H   0  0  0  0  0  0  0  0  0  0  0  0
  154.2863  139.4963  159.6946 H   0  0  0  0  0  0  0  0  0  0  0  0
  152.5969  138.8682  155.5939 H   0  0  0  0  0  0  0  0  0  0  0  0
  150.6565  137.7172  154.7435 H   0  0  0  0  0  0  0  0  0  0  0  0
  150.9665  137.0786  156.3412 H   0  0  0  0  0  0  0  0  0  0  0  0
  148.2150  136.9613  154.9977 H   0  0  0  0  0  0  0  0  0  0  0  0
  147.3265  137.5392  156.4133 H   0  0  0  0  0  0  0  0  0  0  0  0
  148.6293  136.3697  156.6117 H   0  0  0  0  0  0  0  0  0  0  0  0
  148.7669  139.4174  154.4594 H   0  0  0  0  0  0  0  0  0  0  0  0
  147.8607  139.8887  155.8873 H   0  0  0  0  0  0  0  0  0  0  0  0
  149.5833  141.6118  155.2326 H   0  0  0  0  0  0  0  0  0  0  0  0
  149.8431  141.0164  156.8537 H   0  0  0  0  0  0  0  0  0  0  0  0
  149.3198  138.5579  157.1993 H   0  0  0  0  0  0  0  0  0  0  0  0
  1  2  1  0  0  0  0
  1 19  1  0  0  0  0
  1 20  1  0  0  0  0
  1 21  1  0  0  0  0
  2 17  1  0  0  0  0
  2  3  2  0  0  0  0
  3  4  1  0  0  0  0
  4  5  2  0  0  0  0
  4 22  1  0  0  0  0
  5  6  1  0  0  0  0
  5 23  1  0  0  0  0
  6  7  1  0  0  0  0
  6 17  2  0  0  0  0
  7  8  1  0  0  0  0
  8  9  2  0  0  0  0
  8 10  1  0  0  0  0
 10 16  1  0  0  0  0
 10 11  1  0  0  0  0
 10 24  1  0  0  0  0
 11 12  1  0  0  0  0
 11 25  1  0  0  0  0
 11 26  1  0  0  0  0
 12 13  1  0  0  0  0
 12 14  1  0  0  0  0
 12 34  1  0  0  0  0
 13 27  1  0  0  0  0
 13 28  1  0  0  0  0
 13 29  1  0  0  0  0
 14 15  1  0  0  0  0
 14 30  1  0  0  0  0
 14 31  1  0  0  0  0
 15 16  1  0  0  0  0
 15 32  1  0  0  0  0
 15 33  1  0  0  0  0
 17 18  1  0  0  0  0
M  CHG  1   7  -1
M  CHG  1  12   1
M  END
> <s_m_source_file>
AV-unprocessed.smi

> <i_m_source_file_index>
2482

> <i_lp_mmshare_version>
43012

> <i_f3d_flags>
0

> <s_epik_input>
W0NIM11jMW5bY0hdW2NIXWMoYzFDbClbTkhdQyg9TylbQ0BASF0yW0NIMl1OKFtDSDNdKVtDSDJdW0NIMl1PMg==

> <s_epik_cmdline>
J2VwaWtfcHl0aG9uJywgJy1waCcsICc3LjAnLCAnLXRuJywgJzgnLCAnLW1hJywgJzIwMCcsICctbWV0YWxfYmluZGluZycsICctaW1hZScsICc8aW5maWxlLm1hZT4nLCAnLW9tYWUnLCAnPG91dGZpbGUubWFlPic=

> <r_epik_Ionization_Penalty>
6.9249

> <r_epik_Ionization_Penalty_Charging>
6.74596

> <r_epik_Ionization_Penalty_Neutral>
0.178941

> <r_epik_State_Penalty>
6.78185

> <r_epik_Charging_Adjusted_Penalty>
13.5278

> <i_epik_Tot_Q>
0

> <i_epik_Tot_abs_Q>
2

> <r_epik_Metal_State_Penalty>
2.70608

> <b_epik_Metal_Only>
1

> <s_lp_Force_Field>
OPLS_2005

> <r_lp_Energy>
12.3896

> <b_lp_Chiralities_Consistent>
1

> <s_lp_Variant>
AV-unprocessed.smi:2482-8

> <Gold.Version>
5.8.1

> <Gold.Id.Protein>
6NUR|6NUR_protein|mol2

> <Gold.PLP.Fitness>
37.7606

> <Gold.PLP.PLP>
-30.5174

> <Gold.PLP.part.hbond>
-2.0000

> <Gold.PLP.part.metal>
0.0000

> <Gold.PLP.part.buried>
-3.6627

> <Gold.PLP.part.nonpolar>
-25.2552

> <Gold.PLP.part.repulsive>
0.0567

> <Gold.PLP.ligand.clash>
0.0000

> <Gold.PLP.ligand.torsion>
0.7992

> <Gold.PLP.Chemscore.Hbond>
2.7840

> <Gold.PLP.Chemscore.CHOScore>
0.0000

> <Gold.PLP.Chemscore.Metal>
0.0000

> <Gold.Chemscore.Hbonds>
donor molecule, donor type, donor heavy atom, donor atom, acceptor molecule, acceptor atom, score
      P1  H  7989  7998       L1    16  0.99
      P1  H  7997  8008       L1     7  1.73

> <Gold.PLP.Chemscore.Internal.Correction>
0.4896

> <Gold.Rescore>
     Score         DG    S(hbond)    S(metal)    S(lipo)     H(rot)  DE(clash)    DE(int)     intcor
     17.91     -18.83       1.60        0.00      90.25       1.00       0.04       0.87       ----

> <Gold.Chemscore.Fitness>
17.9145

> <Gold.Chemscore.DG>
-18.8286

> <Gold.Chemscore.ZeroCoef>
-5.4800

> <Gold.Chemscore.Hbond>
1.6016

> <Gold.Chemscore.Metal>
0.0000

> <Gold.Chemscore.Lipo>
90.2505

> <Gold.Chemscore.Internal_Hbond>
0.0000

> <Gold.Chemscore.DEClash>
0.0396

> <Gold.Chemscore.DEInternal>
0.8745

> <Gold.Chemscore.Rot>
1.0000

> <Gold.Chemscore.Internal.Correction>
   9.000000E+99

> <Gold.Chemscore.Hbonds>
donor molecule, donor type, donor heavy atom, donor atom, acceptor molecule, acceptor atom, score
      P1  H  7989  7998       L1    16  0.78
      P1  H  7997  8008       L1     7  0.59

> <Gold.Chemscore.Hbond.Weighted>
-5.3493

> <Gold.Chemscore.Metal.Weighted>
-0.0000

> <Gold.Chemscore.Lipo.Weighted>
-10.5593

> <Gold.Chemscore.Internal_Hbond.Weighted>
0.0000

> <Gold.Chemscore.DEClash.Weighted>
0.0396

> <Gold.Chemscore.DEInternal.Weighted>
0.8745

> <Gold.Chemscore.Rot.Weighted>
2.5600

> <Gold.Chemscore.Internal.Correction.Weighted>
   9.000000E+99

> <Gold.Protein.RotatedTorsions>
[ 6907 6896 6895 6894 ] final -168.99 input  -60.11 | X-H torsion
[ 7974 7965 7964 7962 ] final -170.96 input  175.53 | X-H torsion
[ 8008 7997 7996 7995 ] final  -69.67 input   59.86 | X-H torsion
[ 10167 10162 10161 10158 ] final   22.46 input  -65.29 | X-H torsion
[ 10718 10713 10712 10709 ] final    8.37 input   66.30 | X-H torsion
[ 10763 10752 10751 10750 ] final  -35.74 input  -60.55 | X-H torsion
[ 11005 11000 10999 10996 ] final -178.68 input  -57.11 | X-H torsion

> <Gold.Protein.ActiveResidues>
 VAL166  LYS551  ARG553  GLY616  TRP617  ASP618  TYR619  PRO620  LYS621  CYS622 
 ASP623  PHE694  ASN695  SER759  ASP760  ASP761  ALA762  ILE779  LEU786  VAL792 
 PHE793  MET794  SER795  GLU796  ALA797  LYS798  CYS799  TRP800  GLU811  SER814 

> <Gold.Protein.RotatedAtoms>
  151.4844  133.3539  159.2843 H   0  0  0  0  0  0  0  0  0  0  0  0  # atno 6907 bound_to 6896
  150.8876  134.8278  159.7281 H   0  0  0  0  0  0  0  0  0  0  0  0  # atno 6908 bound_to 6896
  152.4803  134.4749  159.9699 H   0  0  0  0  0  0  0  0  0  0  0  0  # atno 6909 bound_to 6896
  144.7163  140.1993  143.6340 H   0  0  0  0  0  0  0  0  0  0  0  0  # atno 7974 bound_to 7965
  154.4956  140.0849  156.7689 H   0  0  0  0  0  0  0  0  0  0  0  0  # atno 8008 bound_to 7997
  155.4125  140.3442  155.4246 H   0  0  0  0  0  0  0  0  0  0  0  0  # atno 8009 bound_to 7997
  156.1389  140.1523  156.8939 H   0  0  0  0  0  0  0  0  0  0  0  0  # atno 8010 bound_to 7997
  140.5346  143.9782  150.6484 H   0  0  0  0  0  0  0  0  0  0  0  0  # atno 10167 bound_to 10162
  156.9506  130.5895  149.5656 H   0  0  0  0  0  0  0  0  0  0  0  0  # atno 10718 bound_to 10713
  153.8682  135.6833  153.4776 H   0  0  0  0  0  0  0  0  0  0  0  0  # atno 10763 bound_to 10752
  153.1302  135.4701  154.9335 H   0  0  0  0  0  0  0  0  0  0  0  0  # atno 10764 bound_to 10752
  154.7727  135.3243  154.8107 H   0  0  0  0  0  0  0  0  0  0  0  0  # atno 10765 bound_to 10752
  140.4271  134.6553  157.4693 H   0  0  0  0  0  0  0  0  0  0  0  0  # atno 11005 bound_to 11000
  145.8695  139.2264  143.1669 LP  0  0  0  0  0  0  0  0  0  0  0  0  # atno 17320 bound_to 7965
  146.0098  140.8445  142.9976 LP  0  0  0  0  0  0  0  0  0  0  0  0  # atno 17321 bound_to 7965
  140.3166  143.3164  152.0826 LP  0  0  0  0  0  0  0  0  0  0  0  0  # atno 17342 bound_to 10162
  139.4966  144.6601  151.6483 LP  0  0  0  0  0  0  0  0  0  0  0  0  # atno 17343 bound_to 10162
  156.0364  130.5451  150.8665 LP  0  0  0  0  0  0  0  0  0  0  0  0  # atno 17370 bound_to 10713
  157.5724  131.0946  150.9397 LP  0  0  0  0  0  0  0  0  0  0  0  0  # atno 17371 bound_to 10713
  140.0160  134.6619  155.9310 LP  0  0  0  0  0  0  0  0  0  0  0  0  # atno 17394 bound_to 11000
  141.1761  133.6540  156.4833 LP  0  0  0  0  0  0  0  0  0  0  0  0  # atno 17395 bound_to 11000

$$$$
