AV-unprocessed.smi:950|AV-procd|sdf|4250|dock7
  -GOLD-   22720 2153D 1   1.00000     0.00000
 Structure written by MMmdl.
 34 35  0  0  0  0  0  0  0  0  1 V2000
  152.7489  143.4616  161.7931 C   0  0  0  0  0  0  0  0  0  0  0  0
  153.2713  142.4526  160.7648 C   0  0  0  0  0  0  0  0  0  0  0  0
  152.6409  142.6262  159.4242 C   0  0  0  0  0  0  0  0  0  0  0  0
  151.9378  141.6696  158.8136 N   0  0  0  0  0  0  0  0  0  0  0  0
  151.4918  142.0519  157.5439 C   0  0  0  0  0  0  0  0  0  0  0  0
  150.6925  141.0954  156.7051 C   0  0  0  0  0  0  0  0  0  0  0  0
  150.3410  141.6390  155.3046 C   0  0  0  0  0  0  0  0  0  0  0  0
  149.0171  142.2508  155.2439 N   0  0  0  0  0  0  0  0  0  0  0  0
  147.8596  141.5782  155.1697 C   0  0  0  0  0  0  0  0  0  0  0  0
  147.7910  140.3488  155.1999 O   0  0  0  0  0  0  0  0  0  0  0  0
  146.5953  142.4362  155.0351 C   0  0  0  0  0  0  0  0  0  0  0  0
  146.6101  143.4532  153.8789 C   0  0  0  0  0  0  0  0  0  0  0  0
  146.0446  144.4971  154.8465 C   0  0  0  0  0  0  0  0  0  0  0  0
  146.5473  143.6296  156.0040 C   0  0  0  0  0  0  0  0  0  0  0  0
  151.8740  143.3249  157.1999 C   0  0  0  0  0  0  0  0  0  0  0  0
  152.8141  144.0842  158.4551 S   0  0  0  0  0  0  0  0  0  0  0  0
  153.2325  143.3174  162.7592 H   0  0  0  0  0  0  0  0  0  0  0  0
  151.6736  143.3531  161.9385 H   0  0  0  0  0  0  0  0  0  0  0  0
  152.9416  144.4858  161.4729 H   0  0  0  0  0  0  0  0  0  0  0  0
  154.3525  142.5517  160.6620 H   0  0  0  0  0  0  0  0  0  0  0  0
  153.0824  141.4363  161.1111 H   0  0  0  0  0  0  0  0  0  0  0  0
  151.2380  140.1569  156.5995 H   0  0  0  0  0  0  0  0  0  0  0  0
  149.7686  140.8344  157.2223 H   0  0  0  0  0  0  0  0  0  0  0  0
  151.0973  142.3523  154.9740 H   0  0  0  0  0  0  0  0  0  0  0  0
  150.3556  140.8199  154.5851 H   0  0  0  0  0  0  0  0  0  0  0  0
  148.9817  143.2595  155.2137 H   0  0  0  0  0  0  0  0  0  0  0  0
  145.6714  141.8550  155.0555 H   0  0  0  0  0  0  0  0  0  0  0  0
  147.6053  143.7148  153.5153 H   0  0  0  0  0  0  0  0  0  0  0  0
  145.9403  143.2062  153.0548 H   0  0  0  0  0  0  0  0  0  0  0  0
  146.5106  145.4806  154.7794 H   0  0  0  0  0  0  0  0  0  0  0  0
  144.9560  144.5602  154.8095 H   0  0  0  0  0  0  0  0  0  0  0  0
  145.8315  143.5196  156.8188 H   0  0  0  0  0  0  0  0  0  0  0  0
  147.5255  143.9433  156.3736 H   0  0  0  0  0  0  0  0  0  0  0  0
  151.6664  143.8580  156.2842 H   0  0  0  0  0  0  0  0  0  0  0  0
  1  2  1  0  0  0  0
  1 17  1  0  0  0  0
  1 18  1  0  0  0  0
  1 19  1  0  0  0  0
  2  3  1  0  0  0  0
  2 20  1  0  0  0  0
  2 21  1  0  0  0  0
  3 16  1  0  0  0  0
  3  4  2  0  0  0  0
  4  5  1  0  0  0  0
  5  6  1  0  0  0  0
  5 15  2  0  0  0  0
  6  7  1  0  0  0  0
  6 22  1  0  0  0  0
  6 23  1  0  0  0  0
  7  8  1  0  0  0  0
  7 24  1  0  0  0  0
  7 25  1  0  0  0  0
  8  9  1  0  0  0  0
  8 26  1  0  0  0  0
  9 10  2  0  0  0  0
  9 11  1  0  0  0  0
 11 14  1  0  0  0  0
 11 12  1  0  0  0  0
 11 27  1  0  0  0  0
 12 13  1  0  0  0  0
 12 28  1  0  0  0  0
 12 29  1  0  0  0  0
 13 14  1  0  0  0  0
 13 30  1  0  0  0  0
 13 31  1  0  0  0  0
 14 32  1  0  0  0  0
 14 33  1  0  0  0  0
 15 16  1  0  0  0  0
 15 34  1  0  0  0  0
M  END
> <s_m_source_file>
AV-unprocessed.smi

> <i_m_source_file_index>
950

> <i_lp_mmshare_version>
43012

> <i_f3d_flags>
0

> <s_epik_input>
W0NIM11bQ0gyXWMxbmMoW2NIXXMxKVtDSDJdW0NIMl1bTkhdQyg9TylbQ0hdMltDSDJdW0NIMl1bQ0gyXTI=

> <s_epik_cmdline>
J2VwaWtfcHl0aG9uJywgJy1waCcsICc3LjAnLCAnLXRuJywgJzgnLCAnLW1hJywgJzIwMCcsICctbWV0YWxfYmluZGluZycsICctaW1hZScsICc8aW5maWxlLm1hZT4nLCAnLW9tYWUnLCAnPG91dGZpbGUubWFlPic=

> <r_epik_Ionization_Penalty>
0.00109666

> <r_epik_Ionization_Penalty_Charging>
0

> <r_epik_Ionization_Penalty_Neutral>
0.00109666

> <r_epik_State_Penalty>
0.000719322

> <r_epik_Charging_Adjusted_Penalty>
0.000719322

> <i_epik_Tot_Q>
0

> <i_epik_Tot_abs_Q>
0

> <r_epik_Metal_State_Penalty>
-0

> <b_epik_Metal_Only>
0

> <s_lp_Force_Field>
OPLS_2005

> <r_lp_Energy>
2.32113

> <b_lp_Chiralities_Consistent>
1

> <s_lp_Variant>
AV-unprocessed.smi:950-1

> <Gold.Version>
5.8.1

> <Gold.Id.Protein>
6NUR|6NUR_protein|mol2

> <Gold.PLP.Fitness>
41.6002

> <Gold.PLP.PLP>
-36.3699

> <Gold.PLP.part.hbond>
-1.0000

> <Gold.PLP.part.metal>
0.0000

> <Gold.PLP.part.buried>
-4.0482

> <Gold.PLP.part.nonpolar>
-31.3460

> <Gold.PLP.part.repulsive>
0.1631

> <Gold.PLP.ligand.clash>
0.0000

> <Gold.PLP.ligand.torsion>
0.5903

> <Gold.PLP.Chemscore.Hbond>
1.0000

> <Gold.PLP.Chemscore.CHOScore>
1.0000

> <Gold.PLP.Chemscore.Metal>
0.0000

> <Gold.Chemscore.Hbonds>
donor molecule, donor type, donor heavy atom, donor atom, acceptor molecule, acceptor atom, score
      L1  H     8    26       P1  8028  0.98

> <Gold.PLP.Chemscore.Internal.Correction>
0.4109

> <Gold.Rescore>
     Score         DG    S(hbond)    S(metal)    S(lipo)     H(rot)  DE(clash)    DE(int)     intcor
     15.40     -16.21       0.98        0.00      96.72       1.51       0.21       0.59       ----

> <Gold.Chemscore.Fitness>
15.4042

> <Gold.Chemscore.DG>
-16.2070

> <Gold.Chemscore.ZeroCoef>
-5.4800

> <Gold.Chemscore.Hbond>
0.9807

> <Gold.Chemscore.Metal>
0.0000

> <Gold.Chemscore.Lipo>
96.7186

> <Gold.Chemscore.Internal_Hbond>
0.0000

> <Gold.Chemscore.DEClash>
0.2133

> <Gold.Chemscore.DEInternal>
0.5895

> <Gold.Chemscore.Rot>
1.5096

> <Gold.Chemscore.Internal.Correction>
   9.000000E+99

> <Gold.Chemscore.Hbonds>
donor molecule, donor type, donor heavy atom, donor atom, acceptor molecule, acceptor atom, score
      L1  H     8    26       P1  8028  0.91

> <Gold.Chemscore.Hbond.Weighted>
-3.2755

> <Gold.Chemscore.Metal.Weighted>
-0.0000

> <Gold.Chemscore.Lipo.Weighted>
-11.3161

> <Gold.Chemscore.Internal_Hbond.Weighted>
0.0000

> <Gold.Chemscore.DEClash.Weighted>
0.2133

> <Gold.Chemscore.DEInternal.Weighted>
0.5895

> <Gold.Chemscore.Rot.Weighted>
3.8646

> <Gold.Chemscore.Internal.Correction.Weighted>
   9.000000E+99

> <Gold.Protein.RotatedTorsions>
[ 6907 6896 6895 6894 ] final  148.36 input  -60.11 | X-H torsion
[ 7974 7965 7964 7962 ] final  -38.34 input  175.53 | X-H torsion
[ 8008 7997 7996 7995 ] final  -94.97 input   59.86 | X-H torsion
[ 10167 10162 10161 10158 ] final  139.00 input  -65.29 | X-H torsion
[ 10718 10713 10712 10709 ] final -170.28 input   66.30 | X-H torsion
[ 10763 10752 10751 10750 ] final   55.80 input  -60.55 | X-H torsion
[ 11005 11000 10999 10996 ] final   42.88 input  -57.11 | X-H torsion

> <Gold.Protein.ActiveResidues>
 VAL166  LYS551  ARG553  GLY616  TRP617  ASP618  TYR619  PRO620  LYS621  CYS622 
 ASP623  PHE694  ASN695  SER759  ASP760  ASP761  ALA762  ILE779  LEU786  VAL792 
 PHE793  MET794  SER795  GLU796  ALA797  LYS798  CYS799  TRP800  GLU811  SER814 

> <Gold.Protein.RotatedAtoms>
  152.1425  133.4473  159.4773 H   0  0  0  0  0  0  0  0  0  0  0  0  # atno 6907 bound_to 6896
  150.6887  134.2287  159.4435 H   0  0  0  0  0  0  0  0  0  0  0  0  # atno 6908 bound_to 6896
  152.0179  134.9839  160.0620 H   0  0  0  0  0  0  0  0  0  0  0  0  # atno 6909 bound_to 6896
  146.0495  140.6500  142.9049 H   0  0  0  0  0  0  0  0  0  0  0  0  # atno 7974 bound_to 7965
  154.7553  140.0484  157.0928 H   0  0  0  0  0  0  0  0  0  0  0  0  # atno 8008 bound_to 7997
  155.0005  140.3124  155.4850 H   0  0  0  0  0  0  0  0  0  0  0  0  # atno 8009 bound_to 7997
  156.2893  140.2202  156.5115 H   0  0  0  0  0  0  0  0  0  0  0  0  # atno 8010 bound_to 7997
  139.5092  144.6320  151.5793 H   0  0  0  0  0  0  0  0  0  0  0  0  # atno 10167 bound_to 10162
  156.7238  130.9280  151.3099 H   0  0  0  0  0  0  0  0  0  0  0  0  # atno 10718 bound_to 10713
  152.9822  135.5698  154.5126 H   0  0  0  0  0  0  0  0  0  0  0  0  # atno 10763 bound_to 10752
  154.4627  135.2782  155.1703 H   0  0  0  0  0  0  0  0  0  0  0  0  # atno 10764 bound_to 10752
  154.3284  135.6254  153.5593 H   0  0  0  0  0  0  0  0  0  0  0  0  # atno 10765 bound_to 10752
  140.1698  134.4237  155.8264 H   0  0  0  0  0  0  0  0  0  0  0  0  # atno 11005 bound_to 11000
  144.7115  140.4056  143.7077 LP  0  0  0  0  0  0  0  0  0  0  0  0  # atno 17320 bound_to 7965
  145.6749  139.1606  143.2734 LP  0  0  0  0  0  0  0  0  0  0  0  0  # atno 17321 bound_to 7965
  140.6056  143.9530  150.6416 LP  0  0  0  0  0  0  0  0  0  0  0  0  # atno 17342 bound_to 10162
  140.2756  143.3425  152.1198 LP  0  0  0  0  0  0  0  0  0  0  0  0  # atno 17343 bound_to 10162
  157.6887  130.9211  150.0455 LP  0  0  0  0  0  0  0  0  0  0  0  0  # atno 17370 bound_to 10713
  156.1576  130.3643  149.9346 LP  0  0  0  0  0  0  0  0  0  0  0  0  # atno 17371 bound_to 10713
  141.2216  133.6951  156.7742 LP  0  0  0  0  0  0  0  0  0  0  0  0  # atno 17394 bound_to 11000
  140.2391  134.8627  157.3555 LP  0  0  0  0  0  0  0  0  0  0  0  0  # atno 17395 bound_to 11000

$$$$
