AV-unprocessed.smi:1019|AV-procd|sdf|4445|dock5
  -GOLD-   22720 2403D 1   1.00000     0.00000
 Structure written by MMmdl.
 44 46  0  0  0  0  0  0  0  0  2 V2000
  145.8225  139.4851  154.7572 C   0  0  0  0  0  0  0  0  0  0  0  0
  146.2079  140.8007  154.1953 N   0  3  1  0  0  0  0  0  0  0  0  0
  146.1158  141.8763  155.2143 C   0  0  0  0  0  0  0  0  0  0  0  0
  145.3226  143.0719  154.7151 C   0  0  0  0  0  0  0  0  0  0  0  0
  144.2456  143.5699  155.4788 C   0  0  0  0  0  0  0  0  0  0  0  0
  143.5051  144.6770  155.0208 C   0  0  0  0  0  0  0  0  0  0  0  0
  143.8398  145.2919  153.7989 C   0  0  0  0  0  0  0  0  0  0  0  0
  144.9158  144.7999  153.0351 C   0  0  0  0  0  0  0  0  0  0  0  0
  145.6571  143.6930  153.4925 C   0  0  0  0  0  0  0  0  0  0  0  0
  147.5205  140.7661  153.4974 C   0  0  0  0  0  0  0  0  0  0  0  0
  148.6975  140.4683  154.4530 C   0  0  1  0  0  0  0  0  0  0  0  0
  149.8084  140.0503  153.6857 O   0  0  0  0  0  0  0  0  0  0  0  0
  149.1352  141.6904  155.2846 C   0  0  0  0  0  0  0  0  0  0  0  0
  150.0745  141.3409  156.3344 N   0  0  0  0  0  0  0  0  0  0  0  0
  150.3922  140.1018  156.7561 C   0  0  0  0  0  0  0  0  0  0  0  0
  151.2729  140.0028  157.7473 N   0  0  0  0  0  0  0  0  0  0  0  0
  151.5673  141.3326  157.9944 C   0  0  0  0  0  0  0  0  0  0  0  0
  152.4392  141.9193  158.9394 C   0  0  0  0  0  0  0  0  0  0  0  0
  152.5747  143.3212  159.0123 C   0  0  0  0  0  0  0  0  0  0  0  0
  151.8427  144.1568  158.1438 C   0  0  0  0  0  0  0  0  0  0  0  0
  150.9685  143.5957  157.1934 C   0  0  0  0  0  0  0  0  0  0  0  0
  150.8359  142.1963  157.1241 C   0  0  0  0  0  0  0  0  0  0  0  0
  146.5205  139.1739  155.5355 H   0  0  0  0  0  0  0  0  0  0  0  0
  145.8006  138.7117  153.9906 H   0  0  0  0  0  0  0  0  0  0  0  0
  144.8249  139.5303  155.1950 H   0  0  0  0  0  0  0  0  0  0  0  0
  145.6112  141.5014  156.1060 H   0  0  0  0  0  0  0  0  0  0  0  0
  147.1159  142.1797  155.5289 H   0  0  0  0  0  0  0  0  0  0  0  0
  143.9829  143.1031  156.4170 H   0  0  0  0  0  0  0  0  0  0  0  0
  142.6807  145.0554  155.6071 H   0  0  0  0  0  0  0  0  0  0  0  0
  143.2716  146.1411  153.4482 H   0  0  0  0  0  0  0  0  0  0  0  0
  145.1730  145.2724  152.0984 H   0  0  0  0  0  0  0  0  0  0  0  0
  146.4804  143.3216  152.8998 H   0  0  0  0  0  0  0  0  0  0  0  0
  147.5203  140.0034  152.7189 H   0  0  0  0  0  0  0  0  0  0  0  0
  147.6608  141.7171  152.9827 H   0  0  0  0  0  0  0  0  0  0  0  0
  148.4377  139.6620  155.1384 H   0  0  0  0  0  0  0  0  0  0  0  0
  149.5250  139.9089  152.7946 H   0  0  0  0  0  0  0  0  0  0  0  0
  149.6048  142.4371  154.6424 H   0  0  0  0  0  0  0  0  0  0  0  0
  148.2701  142.1737  155.7408 H   0  0  0  0  0  0  0  0  0  0  0  0
  149.9465  139.2226  156.3142 H   0  0  0  0  0  0  0  0  0  0  0  0
  153.0045  141.2898  159.6105 H   0  0  0  0  0  0  0  0  0  0  0  0
  153.2444  143.7575  159.7388 H   0  0  0  0  0  0  0  0  0  0  0  0
  151.9533  145.2295  158.2073 H   0  0  0  0  0  0  0  0  0  0  0  0
  150.4066  144.2340  156.5279 H   0  0  0  0  0  0  0  0  0  0  0  0
  145.5188  141.0289  153.4924 H   0  0  0  0  0  0  0  0  0  0  0  0
  1  2  1  0  0  0  0
  1 23  1  0  0  0  0
  1 24  1  0  0  0  0
  1 25  1  0  0  0  0
  2  3  1  0  0  0  0
  2 10  1  0  0  0  0
  2 44  1  0  0  0  0
  3  4  1  0  0  0  0
  3 26  1  0  0  0  0
  3 27  1  0  0  0  0
  4  9  1  0  0  0  0
  4  5  2  0  0  0  0
  5  6  1  0  0  0  0
  5 28  1  0  0  0  0
  6  7  2  0  0  0  0
  6 29  1  0  0  0  0
  7  8  1  0  0  0  0
  7 30  1  0  0  0  0
  8  9  2  0  0  0  0
  8 31  1  0  0  0  0
  9 32  1  0  0  0  0
 10 11  1  0  0  0  0
 10 33  1  0  0  0  0
 10 34  1  0  0  0  0
 11 12  1  0  0  0  0
 11 13  1  0  0  0  0
 11 35  1  0  0  0  0
 12 36  1  0  0  0  0
 13 14  1  0  0  0  0
 13 37  1  0  0  0  0
 13 38  1  0  0  0  0
 14 22  1  0  0  0  0
 14 15  1  0  0  0  0
 15 16  2  0  0  0  0
 15 39  1  0  0  0  0
 16 17  1  0  0  0  0
 17 22  2  0  0  0  0
 17 18  1  0  0  0  0
 18 19  2  0  0  0  0
 18 40  1  0  0  0  0
 19 20  1  0  0  0  0
 19 41  1  0  0  0  0
 20 21  2  0  0  0  0
 20 42  1  0  0  0  0
 21 22  1  0  0  0  0
 21 43  1  0  0  0  0
M  CHG  1   2   1
M  END
> <s_m_source_file>
AV-unprocessed.smi

> <i_m_source_file_index>
1019

> <i_lp_mmshare_version>
43012

> <i_f3d_flags>
0

> <s_epik_input>
W2NIXTFbY0hdW2NIXVtjSF1bY0hdYzFbQ0gyXU4oW0NIM10pW0NIMl1bQ0BIXShbT0hdKVtDSDJdbihbY0hdbjIpYyhjMjMpW2NIXVtjSF1bY0hdW2NIXTM=

> <s_epik_cmdline>
J2VwaWtfcHl0aG9uJywgJy1waCcsICc3LjAnLCAnLXRuJywgJzgnLCAnLW1hJywgJzIwMCcsICctbWV0YWxfYmluZGluZycsICctaW1hZScsICc8aW5maWxlLm1hZT4nLCAnLW9tYWUnLCAnPG91dGZpbGUubWFlPic=

> <r_epik_Ionization_Penalty>
0.0996557

> <r_epik_Ionization_Penalty_Charging>
0.0475377

> <r_epik_Ionization_Penalty_Neutral>
0.0521179

> <r_epik_State_Penalty>
0.0851777

> <r_epik_Charging_Adjusted_Penalty>
0.132715

> <i_epik_Tot_Q>
1

> <i_epik_Tot_abs_Q>
1

> <r_epik_Metal_State_Penalty>
0.0423478

> <b_epik_Metal_Only>
0

> <s_lp_Force_Field>
OPLS_2005

> <r_lp_Energy>
16.033

> <b_lp_Chiralities_Consistent>
1

> <s_lp_Variant>
AV-unprocessed.smi:1019-3

> <Gold.Version>
5.8.1

> <Gold.Id.Protein>
6NUR|6NUR_protein|mol2

> <Gold.PLP.Fitness>
55.3374

> <Gold.PLP.PLP>
-48.6345

> <Gold.PLP.part.hbond>
-2.6876

> <Gold.PLP.part.metal>
0.0000

> <Gold.PLP.part.buried>
-3.0996

> <Gold.PLP.part.nonpolar>
-45.9811

> <Gold.PLP.part.repulsive>
0.0000

> <Gold.PLP.ligand.clash>
0.0000

> <Gold.PLP.ligand.torsion>
1.0304

> <Gold.PLP.Chemscore.Hbond>
2.8806

> <Gold.PLP.Chemscore.CHOScore>
0.0000

> <Gold.PLP.Chemscore.Metal>
0.0000

> <Gold.Chemscore.Hbonds>
donor molecule, donor type, donor heavy atom, donor atom, acceptor molecule, acceptor atom, score
      L1  H     2    44       P1 10175  1.33
      L1  H    12    36       P1  7957  1.00
      P1  H  7989  7998       L1    12  0.72

> <Gold.PLP.Chemscore.Internal.Correction>
0.1217

> <Gold.Rescore>
     Score         DG    S(hbond)    S(metal)    S(lipo)     H(rot)  DE(clash)    DE(int)     intcor
     17.03     -19.82       1.69        0.00     125.88       2.36       0.89       1.90       ----

> <Gold.Chemscore.Fitness>
17.0292

> <Gold.Chemscore.DG>
-19.8203

> <Gold.Chemscore.ZeroCoef>
-5.4800

> <Gold.Chemscore.Hbond>
1.6939

> <Gold.Chemscore.Metal>
0.0000

> <Gold.Chemscore.Lipo>
125.8840

> <Gold.Chemscore.Internal_Hbond>
0.0000

> <Gold.Chemscore.DEClash>
0.8871

> <Gold.Chemscore.DEInternal>
1.9040

> <Gold.Chemscore.Rot>
2.3616

> <Gold.Chemscore.Internal.Correction>
   9.000000E+99

> <Gold.Chemscore.Hbonds>
donor molecule, donor type, donor heavy atom, donor atom, acceptor molecule, acceptor atom, score
      L1  H     2    44       P1 10175  0.38
      L1  H    12    36       P1  7957  0.98
      P1  H  7989  7998       L1    12  0.28

> <Gold.Chemscore.Hbond.Weighted>
-5.6577

> <Gold.Chemscore.Metal.Weighted>
-0.0000

> <Gold.Chemscore.Lipo.Weighted>
-14.7284

> <Gold.Chemscore.Internal_Hbond.Weighted>
0.0000

> <Gold.Chemscore.DEClash.Weighted>
0.8871

> <Gold.Chemscore.DEInternal.Weighted>
1.9040

> <Gold.Chemscore.Rot.Weighted>
6.0457

> <Gold.Chemscore.Internal.Correction.Weighted>
   9.000000E+99

> <Gold.Protein.RotatedTorsions>
[ 6907 6896 6895 6894 ] final   87.88 input  -60.11 | X-H torsion
[ 7974 7965 7964 7962 ] final   89.18 input  175.53 | X-H torsion
[ 8008 7997 7996 7995 ] final  150.55 input   59.86 | X-H torsion
[ 10167 10162 10161 10158 ] final   12.53 input  -65.29 | X-H torsion
[ 10718 10713 10712 10709 ] final  -30.79 input   66.30 | X-H torsion
[ 10763 10752 10751 10750 ] final  117.13 input  -60.55 | X-H torsion
[ 11005 11000 10999 10996 ] final   19.27 input  -57.11 | X-H torsion

> <Gold.Protein.ActiveResidues>
 VAL166  LYS551  ARG553  GLY616  TRP617  ASP618  TYR619  PRO620  LYS621  CYS622 
 ASP623  PHE694  ASN695  SER759  ASP760  ASP761  ALA762  ILE779  LEU786  VAL792 
 PHE793  MET794  SER795  GLU796  ALA797  LYS798  CYS799  TRP800  GLU811  SER814 

> <Gold.Protein.RotatedAtoms>
  152.5417  134.2208  159.8786 H   0  0  0  0  0  0  0  0  0  0  0  0  # atno 6907 bound_to 6896
  151.2185  133.4509  159.2607 H   0  0  0  0  0  0  0  0  0  0  0  0  # atno 6908 bound_to 6896
  151.0828  134.9881  159.8420 H   0  0  0  0  0  0  0  0  0  0  0  0  # atno 6909 bound_to 6896
  145.5358  139.2285  143.2593 H   0  0  0  0  0  0  0  0  0  0  0  0  # atno 7974 bound_to 7965
  156.2711  140.2072  156.6035 H   0  0  0  0  0  0  0  0  0  0  0  0  # atno 8008 bound_to 7997
  154.6888  140.0532  157.0365 H   0  0  0  0  0  0  0  0  0  0  0  0  # atno 8009 bound_to 7997
  155.0896  140.3195  155.4580 H   0  0  0  0  0  0  0  0  0  0  0  0  # atno 8010 bound_to 7997
  140.6062  143.8503  150.7016 H   0  0  0  0  0  0  0  0  0  0  0  0  # atno 10167 bound_to 10162
  156.3954  130.4380  149.7362 H   0  0  0  0  0  0  0  0  0  0  0  0  # atno 10718 bound_to 10713
  153.5478  135.3546  155.2746 H   0  0  0  0  0  0  0  0  0  0  0  0  # atno 10763 bound_to 10752
  154.8710  135.4106  154.2971 H   0  0  0  0  0  0  0  0  0  0  0  0  # atno 10764 bound_to 10752
  153.3691  135.7063  153.6720 H   0  0  0  0  0  0  0  0  0  0  0  0  # atno 10765 bound_to 10752
  140.4155  134.1573  155.7669 H   0  0  0  0  0  0  0  0  0  0  0  0  # atno 11005 bound_to 11000
  146.2014  140.6176  142.9101 LP  0  0  0  0  0  0  0  0  0  0  0  0  # atno 17320 bound_to 7965
  144.7602  140.5404  143.6741 LP  0  0  0  0  0  0  0  0  0  0  0  0  # atno 17321 bound_to 7965
  140.2061  143.3921  152.1754 LP  0  0  0  0  0  0  0  0  0  0  0  0  # atno 17342 bound_to 10162
  139.5327  144.7176  151.5001 LP  0  0  0  0  0  0  0  0  0  0  0  0  # atno 17343 bound_to 10162
  156.4399  130.7856  151.2877 LP  0  0  0  0  0  0  0  0  0  0  0  0  # atno 17370 bound_to 10713
  157.7501  131.0128  150.3398 LP  0  0  0  0  0  0  0  0  0  0  0  0  # atno 17371 bound_to 10713
  141.1804  133.8425  157.1276 LP  0  0  0  0  0  0  0  0  0  0  0  0  # atno 17394 bound_to 11000
  140.0237  134.9934  157.0643 LP  0  0  0  0  0  0  0  0  0  0  0  0  # atno 17395 bound_to 11000

$$$$
