AV-unprocessed.smi:3253|AV-procd|sdf|12450|dock7
  -GOLD-   2272018343D 1   1.00000     0.00000
 Structure written by MMmdl.
 36 37  0  0  0  0  0  0  0  0  1 V2000
  148.0543  134.4635  155.3402 C   0  0  0  0  0  0  0  0  0  0  0  0
  149.4716  134.2765  154.7823 C   0  0  1  0  0  0  0  0  0  0  0  0
  149.4832  133.2897  153.5952 C   0  0  0  0  0  0  0  0  0  0  0  0
  149.5499  131.9029  154.0195 N   0  0  0  0  0  0  0  0  0  0  0  0
  148.9200  130.8138  153.4309 C   0  0  0  0  0  0  0  0  0  0  0  0
  149.2815  129.7068  154.1648 C   0  0  0  0  0  0  0  0  0  0  0  0
  150.1215  130.0898  155.2077 N   0  0  0  0  0  0  0  0  0  0  0  0
  150.2331  131.4034  155.0584 C   0  0  0  0  0  0  0  0  0  0  0  0
  149.9993  135.5792  154.3781 N   0  0  0  0  0  0  0  0  0  0  0  0
  151.0556  136.2006  154.9263 C   0  0  0  0  0  0  0  0  0  0  0  0
  151.6882  135.7477  155.8809 O   0  0  0  0  0  0  0  0  0  0  0  0
  151.4755  137.5306  154.2827 C   0  0  2  0  0  0  0  0  0  0  0  0
  152.6680  138.1594  155.0321 C   0  0  0  0  0  0  0  0  0  0  0  0
  152.0860  139.4121  155.6647 C   0  0  0  0  0  0  0  0  0  0  0  0
  152.7243  140.1320  156.4311 O   0  0  0  0  0  0  0  0  0  0  0  0
  150.8202  139.5977  155.2806 N   0  0  0  0  0  0  0  0  0  0  0  0
  149.9522  140.6885  155.7029 C   0  0  0  0  0  0  0  0  0  0  0  0
  150.3574  138.5948  154.3368 C   0  0  0  0  0  0  0  0  0  0  0  0
  147.6378  133.5144  155.6788 H   0  0  0  0  0  0  0  0  0  0  0  0
  147.3800  134.8723  154.5866 H   0  0  0  0  0  0  0  0  0  0  0  0
  148.0544  135.1440  156.1923 H   0  0  0  0  0  0  0  0  0  0  0  0
  150.0809  133.8619  155.5878 H   0  0  0  0  0  0  0  0  0  0  0  0
  148.5791  133.4118  152.9973 H   0  0  0  0  0  0  0  0  0  0  0  0
  150.3252  133.4957  152.9327 H   0  0  0  0  0  0  0  0  0  0  0  0
  148.2913  130.9122  152.5585 H   0  0  0  0  0  0  0  0  0  0  0  0
  149.0041  128.6726  154.0239 H   0  0  0  0  0  0  0  0  0  0  0  0
  150.8317  132.0162  155.7163 H   0  0  0  0  0  0  0  0  0  0  0  0
  149.5418  136.0300  153.5991 H   0  0  0  0  0  0  0  0  0  0  0  0
  151.7496  137.3501  153.2419 H   0  0  0  0  0  0  0  0  0  0  0  0
  153.0978  137.5111  155.7979 H   0  0  0  0  0  0  0  0  0  0  0  0
  153.4648  138.4368  154.3413 H   0  0  0  0  0  0  0  0  0  0  0  0
  150.4425  141.6516  155.5560 H   0  0  0  0  0  0  0  0  0  0  0  0
  149.7021  140.5868  156.7593 H   0  0  0  0  0  0  0  0  0  0  0  0
  149.0228  140.6934  155.1328 H   0  0  0  0  0  0  0  0  0  0  0  0
  150.2158  139.0573  153.3591 H   0  0  0  0  0  0  0  0  0  0  0  0
  149.3938  138.1897  154.6517 H   0  0  0  0  0  0  0  0  0  0  0  0
  1  2  1  0  0  0  0
  1 19  1  0  0  0  0
  1 20  1  0  0  0  0
  1 21  1  0  0  0  0
  2  3  1  0  0  0  0
  2  9  1  0  0  0  0
  2 22  1  0  0  0  0
  3  4  1  0  0  0  0
  3 23  1  0  0  0  0
  3 24  1  0  0  0  0
  4  8  1  0  0  0  0
  4  5  1  0  0  0  0
  5  6  2  0  0  0  0
  5 25  1  0  0  0  0
  6  7  1  0  0  0  0
  6 26  1  0  0  0  0
  7  8  2  0  0  0  0
  8 27  1  0  0  0  0
  9 10  1  0  0  0  0
  9 28  1  0  0  0  0
 10 11  2  0  0  0  0
 10 12  1  0  0  0  0
 12 18  1  0  0  0  0
 12 13  1  0  0  0  0
 12 29  1  0  0  0  0
 13 14  1  0  0  0  0
 13 30  1  0  0  0  0
 13 31  1  0  0  0  0
 14 15  2  0  0  0  0
 14 16  1  0  0  0  0
 16 17  1  0  0  0  0
 16 18  1  0  0  0  0
 17 32  1  0  0  0  0
 17 33  1  0  0  0  0
 17 34  1  0  0  0  0
 18 35  1  0  0  0  0
 18 36  1  0  0  0  0
M  END
> <s_m_source_file>
AV-unprocessed.smi

> <i_m_source_file_index>
3253

> <i_lp_mmshare_version>
43012

> <i_f3d_flags>
0

> <s_epik_input>
W2NIXTFuW2NIXVtjSF1uMVtDSDJdW0NAQEhdKFtDSDNdKVtOSF1DKD1PKVtDQEBIXTJbQ0gyXUMoPU8pTihbQ0gzXSlbQ0gyXTI=

> <s_epik_cmdline>
J2VwaWtfcHl0aG9uJywgJy1waCcsICc3LjAnLCAnLXRuJywgJzgnLCAnLW1hJywgJzIwMCcsICctbWV0YWxfYmluZGluZycsICctaW1hZScsICc8aW5maWxlLm1hZT4nLCAnLW9tYWUnLCAnPG91dGZpbGUubWFlPic=

> <r_lp_tautomer_probability>
1

> <r_epik_Ionization_Penalty>
0.628884

> <r_epik_Ionization_Penalty_Charging>
0.628884

> <r_epik_Ionization_Penalty_Neutral>
2.35084e-08

> <r_epik_State_Penalty>
0.64556

> <r_epik_Charging_Adjusted_Penalty>
1.27444

> <i_epik_Tot_Q>
0

> <i_epik_Tot_abs_Q>
0

> <r_epik_Metal_State_Penalty>
0.308736

> <b_epik_Metal_Only>
0

> <s_lp_Force_Field>
OPLS_2005

> <r_lp_Energy>
12.6473

> <b_lp_Chiralities_Consistent>
1

> <s_lp_Variant>
AV-unprocessed.smi:3253-6

> <Gold.Version>
5.8.1

> <Gold.Id.Protein>
6NUR|6NUR_protein|mol2

> <Gold.PLP.Fitness>
43.6047

> <Gold.PLP.PLP>
-32.8329

> <Gold.PLP.part.hbond>
-3.4647

> <Gold.PLP.part.metal>
0.0000

> <Gold.PLP.part.buried>
0.5769

> <Gold.PLP.part.nonpolar>
-29.9477

> <Gold.PLP.part.repulsive>
0.0902

> <Gold.PLP.ligand.clash>
0.0000

> <Gold.PLP.ligand.torsion>
0.6244

> <Gold.PLP.Chemscore.Hbond>
3.0000

> <Gold.PLP.Chemscore.CHOScore>
1.0000

> <Gold.PLP.Chemscore.Metal>
0.0000

> <Gold.Chemscore.Hbonds>
donor molecule, donor type, donor heavy atom, donor atom, acceptor molecule, acceptor atom, score
      L1  H     9    28       P1  7948  1.00
      P1  H  7997  8009       L1    15  1.00
      P1  H 10752 10764       L1    11  1.00
      L1  C     5    25       P1 10747  0.92

> <Gold.PLP.Chemscore.Internal.Correction>
0.0207

> <Gold.Rescore>
     Score         DG    S(hbond)    S(metal)    S(lipo)     H(rot)  DE(clash)    DE(int)     intcor
     14.10     -14.72       2.45        0.00      52.09       1.97       0.25       0.38       ----

> <Gold.Chemscore.Fitness>
14.1006

> <Gold.Chemscore.DG>
-14.7237

> <Gold.Chemscore.ZeroCoef>
-5.4800

> <Gold.Chemscore.Hbond>
2.4505

> <Gold.Chemscore.Metal>
0.0000

> <Gold.Chemscore.Lipo>
52.0876

> <Gold.Chemscore.Internal_Hbond>
0.0000

> <Gold.Chemscore.DEClash>
0.2463

> <Gold.Chemscore.DEInternal>
0.3768

> <Gold.Chemscore.Rot>
1.9669

> <Gold.Chemscore.Internal.Correction>
   9.000000E+99

> <Gold.Chemscore.Hbonds>
donor molecule, donor type, donor heavy atom, donor atom, acceptor molecule, acceptor atom, score
      L1  H     9    28       P1  7948  0.39
      P1  H  7997  8009       L1    15  0.91
      P1  H 10752 10764       L1    11  0.33

> <Gold.Chemscore.Hbond.Weighted>
-8.1847

> <Gold.Chemscore.Metal.Weighted>
-0.0000

> <Gold.Chemscore.Lipo.Weighted>
-6.0942

> <Gold.Chemscore.Internal_Hbond.Weighted>
0.0000

> <Gold.Chemscore.DEClash.Weighted>
0.2463

> <Gold.Chemscore.DEInternal.Weighted>
0.3768

> <Gold.Chemscore.Rot.Weighted>
5.0352

> <Gold.Chemscore.Internal.Correction.Weighted>
   9.000000E+99

> <Gold.Protein.RotatedTorsions>
[ 6907 6896 6895 6894 ] final  -32.16 input  -60.11 | X-H torsion
[ 7974 7965 7964 7962 ] final -171.34 input  175.53 | X-H torsion
[ 8008 7997 7996 7995 ] final -157.19 input   59.86 | X-H torsion
[ 10167 10162 10161 10158 ] final  -41.52 input  -65.29 | X-H torsion
[ 10718 10713 10712 10709 ] final  116.61 input   66.30 | X-H torsion
[ 10763 10752 10751 10750 ] final  -18.18 input  -60.55 | X-H torsion
[ 11005 11000 10999 10996 ] final    3.98 input  -57.11 | X-H torsion

> <Gold.Protein.ActiveResidues>
 VAL166  LYS551  ARG553  GLY616  TRP617  ASP618  TYR619  PRO620  LYS621  CYS622 
 ASP623  PHE694  ASN695  SER759  ASP760  ASP761  ALA762  ILE779  LEU786  VAL792 
 PHE793  MET794  SER795  GLU796  ALA797  LYS798  CYS799  TRP800  GLU811  SER814 

> <Gold.Protein.RotatedAtoms>
  151.0825  134.9867  159.8362 H   0  0  0  0  0  0  0  0  0  0  0  0  # atno 6907 bound_to 6896
  152.5421  134.2164  159.8780 H   0  0  0  0  0  0  0  0  0  0  0  0  # atno 6908 bound_to 6896
  151.2195  133.4466  159.2634 H   0  0  0  0  0  0  0  0  0  0  0  0  # atno 6909 bound_to 6896
  144.7158  140.1936  143.6346 H   0  0  0  0  0  0  0  0  0  0  0  0  # atno 7974 bound_to 7965
  155.7287  140.0799  157.2299 H   0  0  0  0  0  0  0  0  0  0  0  0  # atno 8008 bound_to 7997
  154.4036  140.1599  156.2538 H   0  0  0  0  0  0  0  0  0  0  0  0  # atno 8009 bound_to 7997
  155.9129  140.3402  155.6116 H   0  0  0  0  0  0  0  0  0  0  0  0  # atno 8010 bound_to 7997
  140.7000  143.3090  151.3078 H   0  0  0  0  0  0  0  0  0  0  0  0  # atno 10167 bound_to 10162
  157.6149  131.1027  150.7498 H   0  0  0  0  0  0  0  0  0  0  0  0  # atno 10718 bound_to 10713
  153.5854  135.7004  153.5446 H   0  0  0  0  0  0  0  0  0  0  0  0  # atno 10763 bound_to 10752
  153.3225  135.4070  155.1428 H   0  0  0  0  0  0  0  0  0  0  0  0  # atno 10764 bound_to 10752
  154.8610  135.3699  154.5383 H   0  0  0  0  0  0  0  0  0  0  0  0  # atno 10765 bound_to 10752
  140.5870  133.9959  155.8072 H   0  0  0  0  0  0  0  0  0  0  0  0  # atno 11005 bound_to 11000
  145.8745  139.2290  143.1641 LP  0  0  0  0  0  0  0  0  0  0  0  0  # atno 17320 bound_to 7965
  146.0053  140.8484  142.9998 LP  0  0  0  0  0  0  0  0  0  0  0  0  # atno 17321 bound_to 7965
  139.6506  144.0370  152.2623 LP  0  0  0  0  0  0  0  0  0  0  0  0  # atno 17342 bound_to 10162
  139.9905  144.6365  150.7818 LP  0  0  0  0  0  0  0  0  0  0  0  0  # atno 17343 bound_to 10162
  156.7867  130.4877  149.5391 LP  0  0  0  0  0  0  0  0  0  0  0  0  # atno 17370 bound_to 10713
  156.1267  130.6149  151.0274 LP  0  0  0  0  0  0  0  0  0  0  0  0  # atno 17371 bound_to 10713
  141.0959  133.9844  157.3160 LP  0  0  0  0  0  0  0  0  0  0  0  0  # atno 17394 bound_to 11000
  139.9291  135.0200  156.8338 LP  0  0  0  0  0  0  0  0  0  0  0  0  # atno 17395 bound_to 11000

$$$$
