AV-unprocessed.smi:3204|AV-procd|sdf|12252|dock2
  -GOLD-   2272018 83D 1   1.00000     0.00000
 Structure written by MMmdl.
 30 31  0  0  0  0  0  0  0  0  1 V2000
  153.1617  141.3598  159.9511 C   0  0  0  0  0  0  0  0  0  0  0  0
  152.7880  140.0100  159.3283 C   0  0  0  0  0  0  0  0  0  0  0  0
  152.1807  140.1637  157.9463 C   0  0  0  0  0  0  0  0  0  0  0  0
  152.7915  139.5032  156.9371 N   0  0  0  0  0  0  0  0  0  0  0  0
  152.2678  139.6504  155.7179 C   0  0  0  0  0  0  0  0  0  0  0  0
  151.2024  140.3861  155.3896 N   0  0  0  0  0  0  0  0  0  0  0  0
  150.5807  141.0565  156.3889 C   0  0  0  0  0  0  0  0  0  0  0  0
  149.4621  141.8507  156.0987 N   0  0  0  0  0  0  0  0  0  0  0  0
  148.2329  141.2729  155.5638 C   0  0  2  0  0  0  0  0  0  0  0  0
  148.2121  139.7502  155.5836 C   0  0  0  0  0  0  0  0  0  0  0  0
  147.1313  139.4330  154.7175 O   0  0  0  0  0  0  0  0  0  0  0  0
  147.0360  140.4181  153.6884 C   0  0  0  0  0  0  0  0  0  0  0  0
  147.9676  141.5697  154.0917 C   0  0  2  0  0  0  0  0  0  0  0  0
  149.1470  141.4999  153.3091 O   0  0  0  0  0  0  0  0  0  0  0  0
  151.0460  140.9732  157.7189 C   0  0  0  0  0  0  0  0  0  0  0  0
  150.4357  141.6436  158.7267 F   0  0  0  0  0  0  0  0  0  0  0  0
  153.5969  141.2237  160.9413 H   0  0  0  0  0  0  0  0  0  0  0  0
  152.2843  141.9983  160.0578 H   0  0  0  0  0  0  0  0  0  0  0  0
  153.8897  141.8899  159.3366 H   0  0  0  0  0  0  0  0  0  0  0  0
  153.6749  139.3784  159.2596 H   0  0  0  0  0  0  0  0  0  0  0  0
  152.0894  139.4830  159.9785 H   0  0  0  0  0  0  0  0  0  0  0  0
  152.7564  139.1203  154.9140 H   0  0  0  0  0  0  0  0  0  0  0  0
  149.4750  142.8323  156.3360 H   0  0  0  0  0  0  0  0  0  0  0  0
  147.3857  141.6237  156.1554 H   0  0  0  0  0  0  0  0  0  0  0  0
  149.1351  139.3341  155.1764 H   0  0  0  0  0  0  0  0  0  0  0  0
  148.0603  139.3406  156.5825 H   0  0  0  0  0  0  0  0  0  0  0  0
  147.2901  139.9909  152.7171 H   0  0  0  0  0  0  0  0  0  0  0  0
  146.0011  140.7578  153.6371 H   0  0  0  0  0  0  0  0  0  0  0  0
  147.5033  142.5451  153.9436 H   0  0  0  0  0  0  0  0  0  0  0  0
  149.0141  140.8580  152.6286 H   0  0  0  0  0  0  0  0  0  0  0  0
  1  2  1  0  0  0  0
  1 17  1  0  0  0  0
  1 18  1  0  0  0  0
  1 19  1  0  0  0  0
  2  3  1  0  0  0  0
  2 20  1  0  0  0  0
  2 21  1  0  0  0  0
  3 15  1  0  0  0  0
  3  4  2  0  0  0  0
  4  5  1  0  0  0  0
  5  6  2  0  0  0  0
  5 22  1  0  0  0  0
  6  7  1  0  0  0  0
  7  8  1  0  0  0  0
  7 15  2  0  0  0  0
  8  9  1  0  0  0  0
  8 23  1  0  0  0  0
  9 13  1  0  0  0  0
  9 10  1  0  0  0  0
  9 24  1  0  0  0  0
 10 11  1  0  0  0  0
 10 25  1  0  0  0  0
 10 26  1  0  0  0  0
 11 12  1  0  0  0  0
 12 13  1  0  0  0  0
 12 27  1  0  0  0  0
 12 28  1  0  0  0  0
 13 14  1  0  0  0  0
 13 29  1  0  0  0  0
 14 30  1  0  0  0  0
 15 16  1  0  0  0  0
M  END
> <s_m_source_file>
AV-unprocessed.smi

> <i_m_source_file_index>
3204

> <i_lp_mmshare_version>
43012

> <i_f3d_flags>
0

> <s_epik_input>
W0NIM11bQ0gyXWMxbltjSF1uYyhjMUYpW05IXVtDQEBIXTJbQ0gyXU9bQ0gyXVtDQEhdMltPSF0=

> <s_epik_cmdline>
J2VwaWtfcHl0aG9uJywgJy1waCcsICc3LjAnLCAnLXRuJywgJzgnLCAnLW1hJywgJzIwMCcsICctbWV0YWxfYmluZGluZycsICctaW1hZScsICc8aW5maWxlLm1hZT4nLCAnLW9tYWUnLCAnPG91dGZpbGUubWFlPic=

> <r_lp_tautomer_probability>
1

> <r_epik_Ionization_Penalty>
0.000484964

> <r_epik_Ionization_Penalty_Charging>
0

> <r_epik_Ionization_Penalty_Neutral>
0.000484964

> <r_epik_State_Penalty>
-0

> <r_epik_Charging_Adjusted_Penalty>
0

> <i_epik_Tot_Q>
0

> <i_epik_Tot_abs_Q>
0

> <r_epik_Metal_State_Penalty>
-0

> <b_epik_Metal_Only>
0

> <s_lp_Force_Field>
OPLS_2005

> <r_lp_Energy>
19.3266

> <b_lp_Chiralities_Consistent>
1

> <s_lp_Variant>
AV-unprocessed.smi:3204-3

> <Gold.Version>
5.8.1

> <Gold.Id.Protein>
6NUR|6NUR_protein|mol2

> <Gold.PLP.Fitness>
41.6298

> <Gold.PLP.PLP>
-29.5035

> <Gold.PLP.part.hbond>
-5.3702

> <Gold.PLP.part.metal>
0.0000

> <Gold.PLP.part.buried>
-4.3965

> <Gold.PLP.part.nonpolar>
-20.3699

> <Gold.PLP.part.repulsive>
0.2103

> <Gold.PLP.ligand.clash>
0.0000

> <Gold.PLP.ligand.torsion>
0.7238

> <Gold.PLP.Chemscore.Hbond>
4.5200

> <Gold.PLP.Chemscore.CHOScore>
0.0000

> <Gold.PLP.Chemscore.Metal>
0.0000

> <Gold.Chemscore.Hbonds>
donor molecule, donor type, donor heavy atom, donor atom, acceptor molecule, acceptor atom, score
      L1  H     8    23       P1  8028  0.73
      L1  H    14    30       P1  7957  0.98
      P1  H  7989  7998       L1     6  0.98
      P1  H  7997  8009       L1     4  0.60
      P1  H  8011  8017       L1    14  0.41

> <Gold.PLP.Chemscore.Internal.Correction>
0.0139

> <Gold.Rescore>
     Score         DG    S(hbond)    S(metal)    S(lipo)     H(rot)  DE(clash)    DE(int)     intcor
     15.71     -16.56       3.02        0.00      48.69       1.83       0.08       0.78       ----

> <Gold.Chemscore.Fitness>
15.7092

> <Gold.Chemscore.DG>
-16.5620

> <Gold.Chemscore.ZeroCoef>
-5.4800

> <Gold.Chemscore.Hbond>
3.0177

> <Gold.Chemscore.Metal>
0.0000

> <Gold.Chemscore.Lipo>
48.6938

> <Gold.Chemscore.Internal_Hbond>
0.0000

> <Gold.Chemscore.DEClash>
0.0766

> <Gold.Chemscore.DEInternal>
0.7763

> <Gold.Chemscore.Rot>
1.8337

> <Gold.Chemscore.Internal.Correction>
   9.000000E+99

> <Gold.Chemscore.Hbonds>
donor molecule, donor type, donor heavy atom, donor atom, acceptor molecule, acceptor atom, score
      L1  H     8    23       P1  8028  0.71
      L1  H    14    30       P1  7957  0.93
      P1  H  7989  7998       L1     6  0.27
      P1  H  7997  8009       L1     4  0.04
      P1  H  8011  8017       L1    14  0.02

> <Gold.Chemscore.Hbond.Weighted>
-10.0791

> <Gold.Chemscore.Metal.Weighted>
-0.0000

> <Gold.Chemscore.Lipo.Weighted>
-5.6972

> <Gold.Chemscore.Internal_Hbond.Weighted>
0.0000

> <Gold.Chemscore.DEClash.Weighted>
0.0766

> <Gold.Chemscore.DEInternal.Weighted>
0.7763

> <Gold.Chemscore.Rot.Weighted>
4.6942

> <Gold.Chemscore.Internal.Correction.Weighted>
   9.000000E+99

> <Gold.Protein.RotatedTorsions>
[ 6907 6896 6895 6894 ] final  -56.29 input  -60.11 | X-H torsion
[ 7974 7965 7964 7962 ] final  -50.78 input  175.53 | X-H torsion
[ 8008 7997 7996 7995 ] final -166.52 input   59.86 | X-H torsion
[ 10167 10162 10161 10158 ] final  179.20 input  -65.29 | X-H torsion
[ 10718 10713 10712 10709 ] final   36.17 input   66.30 | X-H torsion
[ 10763 10752 10751 10750 ] final   77.00 input  -60.55 | X-H torsion
[ 11005 11000 10999 10996 ] final  154.51 input  -57.11 | X-H torsion

> <Gold.Protein.ActiveResidues>
 VAL166  LYS551  ARG553  GLY616  TRP617  ASP618  TYR619  PRO620  LYS621  CYS622 
 ASP623  PHE694  ASN695  SER759  ASP760  ASP761  ALA762  ILE779  LEU786  VAL792 
 PHE793  MET794  SER795  GLU796  ALA797  LYS798  CYS799  TRP800  GLU811  SER814 

> <Gold.Protein.RotatedAtoms>
  150.8180  134.7373  159.6747 H   0  0  0  0  0  0  0  0  0  0  0  0  # atno 6907 bound_to 6896
  152.4298  134.5796  159.9954 H   0  0  0  0  0  0  0  0  0  0  0  0  # atno 6908 bound_to 6896
  151.5988  133.3321  159.3079 H   0  0  0  0  0  0  0  0  0  0  0  0  # atno 6909 bound_to 6896
  145.9261  140.7790  142.9623 H   0  0  0  0  0  0  0  0  0  0  0  0  # atno 7974 bound_to 7965
  155.8650  140.0984  157.1588 H   0  0  0  0  0  0  0  0  0  0  0  0  # atno 8008 bound_to 7997
  154.3993  140.1358  156.4070 H   0  0  0  0  0  0  0  0  0  0  0  0  # atno 8009 bound_to 7997
  155.7814  140.3458  155.5302 H   0  0  0  0  0  0  0  0  0  0  0  0  # atno 8010 bound_to 7997
  139.5326  144.2590  152.0723 H   0  0  0  0  0  0  0  0  0  0  0  0  # atno 10167 bound_to 10162
  157.3316  130.7500  149.6851 H   0  0  0  0  0  0  0  0  0  0  0  0  # atno 10718 bound_to 10713
  153.0766  135.4930  154.8417 H   0  0  0  0  0  0  0  0  0  0  0  0  # atno 10763 bound_to 10752
  154.7096  135.3017  154.9220 H   0  0  0  0  0  0  0  0  0  0  0  0  # atno 10764 bound_to 10752
  153.9918  135.6777  153.4807 H   0  0  0  0  0  0  0  0  0  0  0  0  # atno 10765 bound_to 10752
  140.1496  134.8684  157.2437 H   0  0  0  0  0  0  0  0  0  0  0  0  # atno 11005 bound_to 11000
  144.6759  140.2053  143.7383 LP  0  0  0  0  0  0  0  0  0  0  0  0  # atno 17320 bound_to 7965
  145.8486  139.2164  143.1785 LP  0  0  0  0  0  0  0  0  0  0  0  0  # atno 17321 bound_to 7965
  140.2055  144.4615  150.6410 LP  0  0  0  0  0  0  0  0  0  0  0  0  # atno 17342 bound_to 10162
  140.6514  143.2226  151.6069 LP  0  0  0  0  0  0  0  0  0  0  0  0  # atno 17343 bound_to 10162
  155.9696  130.4193  150.4371 LP  0  0  0  0  0  0  0  0  0  0  0  0  # atno 17370 bound_to 10713
  157.2404  131.0524  151.2440 LP  0  0  0  0  0  0  0  0  0  0  0  0  # atno 17371 bound_to 10713
  140.2621  134.3558  155.7403 LP  0  0  0  0  0  0  0  0  0  0  0  0  # atno 17394 bound_to 11000
  141.2197  133.7375  156.9096 LP  0  0  0  0  0  0  0  0  0  0  0  0  # atno 17395 bound_to 11000

$$$$
