AV-unprocessed.smi:2024|AV-procd|sdf|8192|dock7
  -GOLD-   2272010443D 1   1.00000     0.00000
 Structure written by MMmdl.
 44 45  0  0  0  0  0  0  0  0  2 V2000
  146.5972  142.5620  157.0729 C   0  0  0  0  0  0  0  0  0  0  0  0
  145.5540  142.5854  156.0533 N   0  0  0  0  0  0  0  0  0  0  0  0
  146.0479  142.9432  154.7243 C   0  0  0  0  0  0  0  0  0  0  0  0
  146.9034  141.8210  154.1021 C   0  0  0  0  0  0  0  0  0  0  0  0
  146.1261  140.5509  154.0009 N   0  3  0  0  0  0  0  0  0  0  0  0
  146.7884  139.4476  153.2096 C   0  0  0  0  0  0  0  0  0  0  0  0
  146.9801  139.8640  151.7302 C   0  0  0  0  0  0  0  0  0  0  0  0
  148.1873  139.1081  153.7902 C   0  0  0  0  0  0  0  0  0  0  0  0
  145.9086  138.1625  153.3173 C   0  0  0  0  0  0  0  0  0  0  0  0
  146.3642  137.0474  152.4864 N   0  0  0  0  0  0  0  0  0  0  0  0
  145.6192  135.9977  152.1097 C   0  0  0  0  0  0  0  0  0  0  0  0
  144.4362  135.8593  152.4217 O   0  0  0  0  0  0  0  0  0  0  0  0
  146.3306  135.1419  151.3554 N   0  0  0  0  0  0  0  0  0  0  0  0
  145.8938  133.9343  150.7506 C   0  0  0  0  0  0  0  0  0  0  0  0
  146.7129  133.0011  150.2517 N   0  0  0  0  0  0  0  0  0  0  0  0
  146.0098  131.9174  149.7195 C   0  0  0  0  0  0  0  0  0  0  0  0
  144.6469  132.0424  149.8237 C   0  0  0  0  0  0  0  0  0  0  0  0
  144.1889  133.5351  150.5992 S   0  0  0  0  0  0  0  0  0  0  0  0
  145.6242  140.1843  155.3574 C   0  0  0  0  0  0  0  0  0  0  0  0
  144.8005  141.3357  155.9736 C   0  0  0  0  0  0  0  0  0  0  0  0
  147.0910  143.5326  157.1294 H   0  0  0  0  0  0  0  0  0  0  0  0
  147.3583  141.8069  156.8797 H   0  0  0  0  0  0  0  0  0  0  0  0
  146.1620  142.3566  158.0516 H   0  0  0  0  0  0  0  0  0  0  0  0
  145.1941  143.1525  154.0782 H   0  0  0  0  0  0  0  0  0  0  0  0
  146.6221  143.8684  154.7865 H   0  0  0  0  0  0  0  0  0  0  0  0
  147.2295  142.1651  153.1237 H   0  0  0  0  0  0  0  0  0  0  0  0
  147.8093  141.6722  154.6897 H   0  0  0  0  0  0  0  0  0  0  0  0
  147.5759  139.1325  151.1837 H   0  0  0  0  0  0  0  0  0  0  0  0
  147.4998  140.8179  151.6414 H   0  0  0  0  0  0  0  0  0  0  0  0
  146.0303  139.9511  151.2019 H   0  0  0  0  0  0  0  0  0  0  0  0
  148.6356  138.2429  153.3022 H   0  0  0  0  0  0  0  0  0  0  0  0
  148.1347  138.8856  154.8566 H   0  0  0  0  0  0  0  0  0  0  0  0
  148.9020  139.9185  153.6461 H   0  0  0  0  0  0  0  0  0  0  0  0
  145.9053  137.8112  154.3497 H   0  0  0  0  0  0  0  0  0  0  0  0
  144.8656  138.3617  153.0765 H   0  0  0  0  0  0  0  0  0  0  0  0
  147.3263  137.0753  152.1811 H   0  0  0  0  0  0  0  0  0  0  0  0
  147.2961  135.3840  151.1886 H   0  0  0  0  0  0  0  0  0  0  0  0
  146.5611  131.0966  149.2850 H   0  0  0  0  0  0  0  0  0  0  0  0
  143.8878  131.3493  149.4930 H   0  0  0  0  0  0  0  0  0  0  0  0
  144.9530  139.3291  155.3118 H   0  0  0  0  0  0  0  0  0  0  0  0
  146.4518  139.9014  156.0083 H   0  0  0  0  0  0  0  0  0  0  0  0
  144.4467  141.0600  156.9677 H   0  0  0  0  0  0  0  0  0  0  0  0
  143.9097  141.5086  155.3681 H   0  0  0  0  0  0  0  0  0  0  0  0
  145.2956  140.7820  153.4746 H   0  0  0  0  0  0  0  0  0  0  0  0
  1  2  1  0  0  0  0
  1 21  1  0  0  0  0
  1 22  1  0  0  0  0
  1 23  1  0  0  0  0
  2 20  1  0  0  0  0
  2  3  1  0  0  0  0
  3  4  1  0  0  0  0
  3 24  1  0  0  0  0
  3 25  1  0  0  0  0
  4  5  1  0  0  0  0
  4 26  1  0  0  0  0
  4 27  1  0  0  0  0
  5  6  1  0  0  0  0
  5 19  1  0  0  0  0
  5 44  1  0  0  0  0
  6  7  1  0  0  0  0
  6  8  1  0  0  0  0
  6  9  1  0  0  0  0
  7 28  1  0  0  0  0
  7 29  1  0  0  0  0
  7 30  1  0  0  0  0
  8 31  1  0  0  0  0
  8 32  1  0  0  0  0
  8 33  1  0  0  0  0
  9 10  1  0  0  0  0
  9 34  1  0  0  0  0
  9 35  1  0  0  0  0
 10 11  1  0  0  0  0
 10 36  1  0  0  0  0
 11 12  2  0  0  0  0
 11 13  1  0  0  0  0
 13 14  1  0  0  0  0
 13 37  1  0  0  0  0
 14 18  1  0  0  0  0
 14 15  2  0  0  0  0
 15 16  1  0  0  0  0
 16 17  2  0  0  0  0
 16 38  1  0  0  0  0
 17 18  1  0  0  0  0
 17 39  1  0  0  0  0
 19 20  1  0  0  0  0
 19 40  1  0  0  0  0
 19 41  1  0  0  0  0
 20 42  1  0  0  0  0
 20 43  1  0  0  0  0
M  CHG  1   5   1
M  END
> <s_m_source_file>
AV-unprocessed.smi

> <i_m_source_file_index>
2024

> <i_lp_mmshare_version>
43012

> <i_f3d_flags>
0

> <s_epik_input>
W0NIM11OMVtDSDJdW0NIMl1OKFtDSDJdW0NIMl0xKUMoW0NIM10pKFtDSDNdKVtDSDJdW05IXUMoPU8pW05IXWMybltjSF1bY0hdczI=

> <s_epik_cmdline>
J2VwaWtfcHl0aG9uJywgJy1waCcsICc3LjAnLCAnLXRuJywgJzgnLCAnLW1hJywgJzIwMCcsICctbWV0YWxfYmluZGluZycsICctaW1hZScsICc8aW5maWxlLm1hZT4nLCAnLW9tYWUnLCAnPG91dGZpbGUubWFlPic=

> <r_epik_Ionization_Penalty>
0.100627

> <r_epik_Ionization_Penalty_Charging>
0.0985296

> <r_epik_Ionization_Penalty_Neutral>
0.00209722

> <r_epik_State_Penalty>
1.056

> <r_epik_Charging_Adjusted_Penalty>
1.15453

> <i_epik_Tot_Q>
1

> <i_epik_Tot_abs_Q>
1

> <r_epik_Metal_State_Penalty>
1.08856

> <b_epik_Metal_Only>
0

> <s_lp_Force_Field>
OPLS_2005

> <r_lp_Energy>
25.1468

> <b_lp_Chiralities_Consistent>
1

> <s_lp_Variant>
AV-unprocessed.smi:2024-2

> <Gold.Version>
5.8.1

> <Gold.Id.Protein>
6NUR|6NUR_protein|mol2

> <Gold.PLP.Fitness>
44.8937

> <Gold.PLP.PLP>
-31.8138

> <Gold.PLP.part.hbond>
-3.0414

> <Gold.PLP.part.metal>
0.0000

> <Gold.PLP.part.buried>
-1.2800

> <Gold.PLP.part.nonpolar>
-28.8886

> <Gold.PLP.part.repulsive>
0.6437

> <Gold.PLP.ligand.clash>
0.0000

> <Gold.PLP.ligand.torsion>
0.3561

> <Gold.PLP.Chemscore.Hbond>
4.0000

> <Gold.PLP.Chemscore.CHOScore>
0.5696

> <Gold.PLP.Chemscore.Metal>
0.0000

> <Gold.Chemscore.Hbonds>
donor molecule, donor type, donor heavy atom, donor atom, acceptor molecule, acceptor atom, score
      L1  H     5    44       P1 10175  2.00
      L1  H    10    36       P1  7948  1.00
      L1  H    13    37       P1  7948  0.99
      L1  C    16    38       P1 10747  0.57

> <Gold.PLP.Chemscore.Internal.Correction>
0.0833

> <Gold.Rescore>
     Score         DG    S(hbond)    S(metal)    S(lipo)     H(rot)  DE(clash)    DE(int)     intcor
     16.53     -19.50       2.81        0.00      74.61       1.60       1.49       1.47       ----

> <Gold.Chemscore.Fitness>
16.5326

> <Gold.Chemscore.DG>
-19.4963

> <Gold.Chemscore.ZeroCoef>
-5.4800

> <Gold.Chemscore.Hbond>
2.8085

> <Gold.Chemscore.Metal>
0.0000

> <Gold.Chemscore.Lipo>
74.6105

> <Gold.Chemscore.Internal_Hbond>
0.0000

> <Gold.Chemscore.DEClash>
1.4901

> <Gold.Chemscore.DEInternal>
1.4736

> <Gold.Chemscore.Rot>
1.5991

> <Gold.Chemscore.Internal.Correction>
   9.000000E+99

> <Gold.Chemscore.Hbonds>
donor molecule, donor type, donor heavy atom, donor atom, acceptor molecule, acceptor atom, score
      L1  H     5    44       P1 10175  0.85
      L1  H    10    36       P1  7948  0.95
      L1  H    13    37       P1  7948  0.70

> <Gold.Chemscore.Hbond.Weighted>
-9.3804

> <Gold.Chemscore.Metal.Weighted>
-0.0000

> <Gold.Chemscore.Lipo.Weighted>
-8.7294

> <Gold.Chemscore.Internal_Hbond.Weighted>
0.0000

> <Gold.Chemscore.DEClash.Weighted>
1.4901

> <Gold.Chemscore.DEInternal.Weighted>
1.4736

> <Gold.Chemscore.Rot.Weighted>
4.0936

> <Gold.Chemscore.Internal.Correction.Weighted>
   9.000000E+99

> <Gold.Protein.RotatedTorsions>
[ 6907 6896 6895 6894 ] final -149.23 input  -60.11 | X-H torsion
[ 7974 7965 7964 7962 ] final -107.59 input  175.53 | X-H torsion
[ 8008 7997 7996 7995 ] final   31.12 input   59.86 | X-H torsion
[ 10167 10162 10161 10158 ] final -131.69 input  -65.29 | X-H torsion
[ 10718 10713 10712 10709 ] final  166.25 input   66.30 | X-H torsion
[ 10763 10752 10751 10750 ] final -178.71 input  -60.55 | X-H torsion
[ 11005 11000 10999 10996 ] final  -52.49 input  -57.11 | X-H torsion

> <Gold.Protein.ActiveResidues>
 VAL166  LYS551  ARG553  GLY616  TRP617  ASP618  TYR619  PRO620  LYS621  CYS622 
 ASP623  PHE694  ASN695  SER759  ASP760  ASP761  ALA762  ILE779  LEU786  VAL792 
 PHE793  MET794  SER795  GLU796  ALA797  LYS798  CYS799  TRP800  GLU811  SER814 

> <Gold.Protein.RotatedAtoms>
  151.1811  133.4724  159.2593 H   0  0  0  0  0  0  0  0  0  0  0  0  # atno 6907 bound_to 6896
  151.1258  135.0104  159.8569 H   0  0  0  0  0  0  0  0  0  0  0  0  # atno 6908 bound_to 6896
  152.5458  134.1718  159.8653 H   0  0  0  0  0  0  0  0  0  0  0  0  # atno 6909 bound_to 6896
  145.2035  140.9066  143.3356 H   0  0  0  0  0  0  0  0  0  0  0  0  # atno 7974 bound_to 7965
  155.1013  140.3230  155.4546 H   0  0  0  0  0  0  0  0  0  0  0  0  # atno 8008 bound_to 7997
  156.2716  140.2060  156.6086 H   0  0  0  0  0  0  0  0  0  0  0  0  # atno 8009 bound_to 7997
  154.6827  140.0524  157.0269 H   0  0  0  0  0  0  0  0  0  0  0  0  # atno 8010 bound_to 7997
  139.9163  143.6435  152.2564 H   0  0  0  0  0  0  0  0  0  0  0  0  # atno 10167 bound_to 10162
  157.0686  131.0360  151.2620 H   0  0  0  0  0  0  0  0  0  0  0  0  # atno 10718 bound_to 10713
  154.5443  135.2808  155.1067 H   0  0  0  0  0  0  0  0  0  0  0  0  # atno 10763 bound_to 10752
  154.2537  135.6334  153.5253 H   0  0  0  0  0  0  0  0  0  0  0  0  # atno 10764 bound_to 10752
  152.9986  135.5589  154.5991 H   0  0  0  0  0  0  0  0  0  0  0  0  # atno 10765 bound_to 10752
  141.0927  133.6630  156.4032 H   0  0  0  0  0  0  0  0  0  0  0  0  # atno 11005 bound_to 11000
  144.9925  139.3676  143.6208 LP  0  0  0  0  0  0  0  0  0  0  0  0  # atno 17320 bound_to 7965
  146.3413  139.9113  142.8780 LP  0  0  0  0  0  0  0  0  0  0  0  0  # atno 17321 bound_to 7965
  139.6900  144.7648  151.1456 LP  0  0  0  0  0  0  0  0  0  0  0  0  # atno 17342 bound_to 10162
  140.7673  143.5603  150.9106 LP  0  0  0  0  0  0  0  0  0  0  0  0  # atno 17343 bound_to 10162
  157.4896  130.7814  149.7495 LP  0  0  0  0  0  0  0  0  0  0  0  0  # atno 17370 bound_to 10713
  155.9957  130.3910  150.2808 LP  0  0  0  0  0  0  0  0  0  0  0  0  # atno 17371 bound_to 10713
  140.5214  134.6300  157.5319 LP  0  0  0  0  0  0  0  0  0  0  0  0  # atno 17394 bound_to 11000
  139.9756  134.7221  155.9956 LP  0  0  0  0  0  0  0  0  0  0  0  0  # atno 17395 bound_to 11000

$$$$
