AV-unprocessed.smi:946|AV-procd|sdf|4234|dock9
  -GOLD-   22720 2143D 1   1.00000     0.00000
 Structure written by MMmdl.
 42 43  0  0  0  0  0  0  0  0  1 V2000
  151.9413  139.4397  156.7037 C   0  0  0  0  0  0  0  0  0  0  0  0
  150.5009  139.6737  157.1834 C   0  0  2  0  0  0  0  0  0  0  0  0
  150.5586  140.5601  158.2973 O   0  0  0  0  0  0  0  0  0  0  0  0
  149.9985  141.8502  158.0811 C   0  0  0  0  0  0  0  0  0  0  0  0
  150.9374  142.9010  158.6870 C   0  0  2  0  0  0  0  0  0  0  0  0
  151.6684  142.3695  159.9358 C   0  0  0  0  0  0  0  0  0  0  0  0
  152.5264  143.4715  160.5683 C   0  0  0  0  0  0  0  0  0  0  0  0
  151.6663  144.7134  160.8253 C   0  0  0  0  0  0  0  0  0  0  0  0
  150.9271  145.1244  159.5424 C   0  0  0  0  0  0  0  0  0  0  0  0
  150.1518  144.0310  159.0612 O   0  0  0  0  0  0  0  0  0  0  0  0
  149.8204  138.3551  157.5852 C   0  0  0  0  0  0  0  0  0  0  0  0
  149.6330  137.4819  156.7372 O   0  0  0  0  0  0  0  0  0  0  0  0
  149.4844  138.2432  158.8842 N   0  0  0  0  0  0  0  0  0  0  0  0
  148.8393  137.1586  159.5348 C   0  0  0  0  0  0  0  0  0  0  0  0
  148.9754  135.9075  158.8938 C   0  0  0  0  0  0  0  0  0  0  0  0
  148.3732  134.7698  159.4633 C   0  0  0  0  0  0  0  0  0  0  0  0
  147.6512  134.9103  160.6615 C   0  0  0  0  0  0  0  0  0  0  0  0
  147.5628  136.1933  161.2426 C   0  0  0  0  0  0  0  0  0  0  0  0
  146.8044  136.4321  162.5406 C   0  0  0  0  0  0  0  0  0  0  0  0
  146.3072  135.2988  163.0377 F   0  0  0  0  0  0  0  0  0  0  0  0
  147.6231  136.9663  163.4471 F   0  0  0  0  0  0  0  0  0  0  0  0
  145.7950  137.2754  162.3230 F   0  0  0  0  0  0  0  0  0  0  0  0
  148.1424  137.2832  160.6908 N   0  0  0  0  0  0  0  0  0  0  0  0
  151.9718  138.7461  155.8627 H   0  0  0  0  0  0  0  0  0  0  0  0
  152.5682  139.0327  157.4980 H   0  0  0  0  0  0  0  0  0  0  0  0
  152.3945  140.3753  156.3753 H   0  0  0  0  0  0  0  0  0  0  0  0
  149.9456  140.1456  156.3702 H   0  0  0  0  0  0  0  0  0  0  0  0
  149.8565  142.0376  157.0155 H   0  0  0  0  0  0  0  0  0  0  0  0
  149.0209  141.9178  158.5594 H   0  0  0  0  0  0  0  0  0  0  0  0
  151.6722  143.1953  157.9354 H   0  0  0  0  0  0  0  0  0  0  0  0
  150.9402  142.0111  160.6646 H   0  0  0  0  0  0  0  0  0  0  0  0
  152.2947  141.5159  159.6742 H   0  0  0  0  0  0  0  0  0  0  0  0
  152.9767  143.1201  161.4972 H   0  0  0  0  0  0  0  0  0  0  0  0
  153.3476  143.7262  159.8974 H   0  0  0  0  0  0  0  0  0  0  0  0
  150.9405  144.5015  161.6113 H   0  0  0  0  0  0  0  0  0  0  0  0
  152.2867  145.5348  161.1845 H   0  0  0  0  0  0  0  0  0  0  0  0
  150.2634  145.9648  159.7454 H   0  0  0  0  0  0  0  0  0  0  0  0
  151.6297  145.4521  158.7747 H   0  0  0  0  0  0  0  0  0  0  0  0
  149.7213  139.0267  159.4749 H   0  0  0  0  0  0  0  0  0  0  0  0
  149.5339  135.8158  157.9735 H   0  0  0  0  0  0  0  0  0  0  0  0
  148.4643  133.8046  158.9875 H   0  0  0  0  0  0  0  0  0  0  0  0
  147.1812  134.0510  161.1168 H   0  0  0  0  0  0  0  0  0  0  0  0
  1  2  1  0  0  0  0
  1 24  1  0  0  0  0
  1 25  1  0  0  0  0
  1 26  1  0  0  0  0
  2  3  1  0  0  0  0
  2 11  1  0  0  0  0
  2 27  1  0  0  0  0
  3  4  1  0  0  0  0
  4  5  1  0  0  0  0
  4 28  1  0  0  0  0
  4 29  1  0  0  0  0
  5 10  1  0  0  0  0
  5  6  1  0  0  0  0
  5 30  1  0  0  0  0
  6  7  1  0  0  0  0
  6 31  1  0  0  0  0
  6 32  1  0  0  0  0
  7  8  1  0  0  0  0
  7 33  1  0  0  0  0
  7 34  1  0  0  0  0
  8  9  1  0  0  0  0
  8 35  1  0  0  0  0
  8 36  1  0  0  0  0
  9 10  1  0  0  0  0
  9 37  1  0  0  0  0
  9 38  1  0  0  0  0
 11 12  2  0  0  0  0
 11 13  1  0  0  0  0
 13 14  1  0  0  0  0
 13 39  1  0  0  0  0
 14 23  1  0  0  0  0
 14 15  2  0  0  0  0
 15 16  1  0  0  0  0
 15 40  1  0  0  0  0
 16 17  2  0  0  0  0
 16 41  1  0  0  0  0
 17 18  1  0  0  0  0
 17 42  1  0  0  0  0
 18 19  1  0  0  0  0
 18 23  2  0  0  0  0
 19 20  1  0  0  0  0
 19 21  1  0  0  0  0
 19 22  1  0  0  0  0
M  END
> <s_m_source_file>
AV-unprocessed.smi

> <i_m_source_file_index>
946

> <i_lp_mmshare_version>
43012

> <i_f3d_flags>
0

> <s_epik_input>
TzFbQ0gyXVtDSDJdW0NIMl1bQ0gyXVtDQEhdMVtDSDJdT1tDQEBIXShbQ0gzXSlDKD1PKVtOSF1jMltjSF1bY0hdW2NIXWMobjIpQyhGKShGKUY=

> <s_epik_cmdline>
J2VwaWtfcHl0aG9uJywgJy1waCcsICc3LjAnLCAnLXRuJywgJzgnLCAnLW1hJywgJzIwMCcsICctbWV0YWxfYmluZGluZycsICctaW1hZScsICc8aW5maWxlLm1hZT4nLCAnLW9tYWUnLCAnPG91dGZpbGUubWFlPic=

> <r_lp_tautomer_probability>
1

> <r_epik_Ionization_Penalty>
1.32683e-06

> <r_epik_Ionization_Penalty_Charging>
0

> <r_epik_Ionization_Penalty_Neutral>
1.32683e-06

> <r_epik_State_Penalty>
-0

> <r_epik_Charging_Adjusted_Penalty>
0

> <i_epik_Tot_Q>
0

> <i_epik_Tot_abs_Q>
0

> <r_epik_Metal_State_Penalty>
-0

> <b_epik_Metal_Only>
0

> <s_lp_Force_Field>
OPLS_2005

> <r_lp_Energy>
15.1486

> <b_lp_Chiralities_Consistent>
1

> <s_lp_Variant>
AV-unprocessed.smi:946-1

> <Gold.Version>
5.8.1

> <Gold.Id.Protein>
6NUR|6NUR_protein|mol2

> <Gold.PLP.Fitness>
44.7457

> <Gold.PLP.PLP>
-44.4532

> <Gold.PLP.part.hbond>
-2.0000

> <Gold.PLP.part.metal>
0.0000

> <Gold.PLP.part.buried>
-5.6820

> <Gold.PLP.part.nonpolar>
-36.5939

> <Gold.PLP.part.repulsive>
0.3185

> <Gold.PLP.ligand.clash>
0.0005

> <Gold.PLP.ligand.torsion>
1.5244

> <Gold.PLP.Chemscore.Hbond>
1.1053

> <Gold.PLP.Chemscore.CHOScore>
0.0000

> <Gold.PLP.Chemscore.Metal>
0.0000

> <Gold.Chemscore.Hbonds>
donor molecule, donor type, donor heavy atom, donor atom, acceptor molecule, acceptor atom, score
      P1  H  6931  6943       L1    23  0.78
      P1  H  6934  6947       L1    23  0.67

> <Gold.PLP.Chemscore.Internal.Correction>
0.0259

> <Gold.Rescore>
     Score         DG    S(hbond)    S(metal)    S(lipo)     H(rot)  DE(clash)    DE(int)     intcor
     13.04     -15.79       1.14        0.00      94.05       1.76       0.05       2.70       ----

> <Gold.Chemscore.Fitness>
13.0433

> <Gold.Chemscore.DG>
-15.7877

> <Gold.Chemscore.ZeroCoef>
-5.4800

> <Gold.Chemscore.Hbond>
1.1372

> <Gold.Chemscore.Metal>
0.0000

> <Gold.Chemscore.Lipo>
94.0522

> <Gold.Chemscore.Internal_Hbond>
0.0000

> <Gold.Chemscore.DEClash>
0.0488

> <Gold.Chemscore.DEInternal>
2.6957

> <Gold.Chemscore.Rot>
1.7557

> <Gold.Chemscore.Internal.Correction>
   9.000000E+99

> <Gold.Chemscore.Hbonds>
donor molecule, donor type, donor heavy atom, donor atom, acceptor molecule, acceptor atom, score
      P1  H  6931  6943       L1    23  0.52
      P1  H  6934  6947       L1    23  0.55

> <Gold.Chemscore.Hbond.Weighted>
-3.7983

> <Gold.Chemscore.Metal.Weighted>
-0.0000

> <Gold.Chemscore.Lipo.Weighted>
-11.0041

> <Gold.Chemscore.Internal_Hbond.Weighted>
0.0000

> <Gold.Chemscore.DEClash.Weighted>
0.0488

> <Gold.Chemscore.DEInternal.Weighted>
2.6957

> <Gold.Chemscore.Rot.Weighted>
4.4946

> <Gold.Chemscore.Internal.Correction.Weighted>
   9.000000E+99

> <Gold.Protein.RotatedTorsions>
[ 6907 6896 6895 6894 ] final -112.29 input  -60.11 | X-H torsion
[ 7974 7965 7964 7962 ] final   31.29 input  175.53 | X-H torsion
[ 8008 7997 7996 7995 ] final   33.23 input   59.86 | X-H torsion
[ 10167 10162 10161 10158 ] final -170.52 input  -65.29 | X-H torsion
[ 10718 10713 10712 10709 ] final -126.72 input   66.30 | X-H torsion
[ 10763 10752 10751 10750 ] final  115.40 input  -60.55 | X-H torsion
[ 11005 11000 10999 10996 ] final   21.81 input  -57.11 | X-H torsion

> <Gold.Protein.ActiveResidues>
 VAL166  LYS551  ARG553  GLY616  TRP617  ASP618  TYR619  PRO620  LYS621  CYS622 
 ASP623  PHE694  ASN695  SER759  ASP760  ASP761  ALA762  ILE779  LEU786  VAL792 
 PHE793  MET794  SER795  GLU796  ALA797  LYS798  CYS799  TRP800  GLU811  SER814 

> <Gold.Protein.RotatedAtoms>
  150.7748  133.9111  159.3369 H   0  0  0  0  0  0  0  0  0  0  0  0  # atno 6907 bound_to 6896
  151.6988  135.0932  160.0256 H   0  0  0  0  0  0  0  0  0  0  0  0  # atno 6908 bound_to 6896
  152.3780  133.6469  159.6174 H   0  0  0  0  0  0  0  0  0  0  0  0  # atno 6909 bound_to 6896
  146.1559  139.6676  142.9067 H   0  0  0  0  0  0  0  0  0  0  0  0  # atno 7974 bound_to 7965
  155.1353  140.3261  155.4464 H   0  0  0  0  0  0  0  0  0  0  0  0  # atno 8008 bound_to 7997
  156.2621  140.2003  156.6420 H   0  0  0  0  0  0  0  0  0  0  0  0  # atno 8009 bound_to 7997
  154.6582  140.0550  157.0019 H   0  0  0  0  0  0  0  0  0  0  0  0  # atno 8010 bound_to 7997
  139.5857  144.1325  152.1572 H   0  0  0  0  0  0  0  0  0  0  0  0  # atno 10167 bound_to 10162
  156.1791  130.6720  151.0281 H   0  0  0  0  0  0  0  0  0  0  0  0  # atno 10718 bound_to 10713
  153.5217  135.3596  155.2635 H   0  0  0  0  0  0  0  0  0  0  0  0  # atno 10763 bound_to 10752
  154.8734  135.4047  154.3253 H   0  0  0  0  0  0  0  0  0  0  0  0  # atno 10764 bound_to 10752
  153.3924  135.7072  153.6552 H   0  0  0  0  0  0  0  0  0  0  0  0  # atno 10765 bound_to 10752
  140.3874  134.1855  155.7663 H   0  0  0  0  0  0  0  0  0  0  0  0  # atno 11005 bound_to 11000
  145.4709  141.0436  143.2699 LP  0  0  0  0  0  0  0  0  0  0  0  0  # atno 17320 bound_to 7965
  144.7963  139.6228  143.7091 LP  0  0  0  0  0  0  0  0  0  0  0  0  # atno 17321 bound_to 7965
  140.0888  144.5639  150.7070 LP  0  0  0  0  0  0  0  0  0  0  0  0  # atno 17342 bound_to 10162
  140.7129  143.2519  151.4526 LP  0  0  0  0  0  0  0  0  0  0  0  0  # atno 17343 bound_to 10162
  157.6856  131.0826  150.7252 LP  0  0  0  0  0  0  0  0  0  0  0  0  # atno 17370 bound_to 10713
  156.7310  130.4709  149.5500 LP  0  0  0  0  0  0  0  0  0  0  0  0  # atno 17371 bound_to 10713
  141.1902  133.8221  157.0926 LP  0  0  0  0  0  0  0  0  0  0  0  0  # atno 17394 bound_to 11000
  140.0432  134.9844  157.1000 LP  0  0  0  0  0  0  0  0  0  0  0  0  # atno 17395 bound_to 11000

$$$$
