AV-unprocessed.smi:2665|AV-procd|sdf|10330|dock7
  -GOLD-   2272014353D 1   1.00000     0.00000
 Structure written by MMmdl.
 29 30  0  0  0  0  0  0  0  0  2 V2000
  150.4587  145.2192  159.8009 C   0  0  0  0  0  0  0  0  0  0  0  0
  151.4175  144.1120  159.3504 C   0  0  2  0  0  0  0  0  0  0  0  0
  150.7706  143.1706  158.3160 C   0  0  0  0  0  0  0  0  0  0  0  0
  151.6859  142.0856  157.9856 N   0  0  0  0  0  0  0  0  0  0  0  0
  151.2194  141.2524  156.9590 C   0  0  0  0  0  0  0  0  0  0  0  0
  152.0938  140.2932  156.4078 C   0  0  0  0  0  0  0  0  0  0  0  0
  151.6278  139.4517  155.3718 C   0  0  0  0  0  0  0  0  0  0  0  0
  152.5237  138.4141  154.7532 C   0  0  0  0  0  0  0  0  0  0  0  0
  153.7616  138.5181  154.9050 O   0  0  0  0  0  0  0  0  0  0  0  0
  152.0054  137.4774  154.1052 O   0  5  0  0  0  0  0  0  0  0  0  0
  150.2939  139.6157  154.9353 C   0  0  0  0  0  0  0  0  0  0  0  0
  149.4979  140.6018  155.5485 C   0  0  0  0  0  0  0  0  0  0  0  0
  149.9416  141.4053  156.5374 N   0  0  0  0  0  0  0  0  0  0  0  0
  152.1374  141.3584  159.1647 C   0  0  0  0  0  0  0  0  0  0  0  0
  152.7472  142.3368  160.1826 C   0  0  0  0  0  0  0  0  0  0  0  0
  151.7988  143.3533  160.4966 O   0  0  0  0  0  0  0  0  0  0  0  0
  150.1471  145.8351  158.9569 H   0  0  0  0  0  0  0  0  0  0  0  0
  150.9344  145.8730  160.5322 H   0  0  0  0  0  0  0  0  0  0  0  0
  149.5620  144.8018  160.2599 H   0  0  0  0  0  0  0  0  0  0  0  0
  152.3061  144.5764  158.9186 H   0  0  0  0  0  0  0  0  0  0  0  0
  149.8416  142.7601  158.7147 H   0  0  0  0  0  0  0  0  0  0  0  0
  150.5173  143.7236  157.4107 H   0  0  0  0  0  0  0  0  0  0  0  0
  153.1056  140.2094  156.7779 H   0  0  0  0  0  0  0  0  0  0  0  0
  149.8805  139.0024  154.1478 H   0  0  0  0  0  0  0  0  0  0  0  0
  148.4748  140.7490  155.2362 H   0  0  0  0  0  0  0  0  0  0  0  0
  151.2975  140.8293  159.6173 H   0  0  0  0  0  0  0  0  0  0  0  0
  152.8753  140.6086  158.8764 H   0  0  0  0  0  0  0  0  0  0  0  0
  153.0178  141.8085  161.0967 H   0  0  0  0  0  0  0  0  0  0  0  0
  153.6612  142.7864  159.7912 H   0  0  0  0  0  0  0  0  0  0  0  0
  1  2  1  0  0  0  0
  1 17  1  0  0  0  0
  1 18  1  0  0  0  0
  1 19  1  0  0  0  0
  2 16  1  0  0  0  0
  2  3  1  0  0  0  0
  2 20  1  0  0  0  0
  3  4  1  0  0  0  0
  3 21  1  0  0  0  0
  3 22  1  0  0  0  0
  4  5  1  0  0  0  0
  4 14  1  0  0  0  0
  5 13  1  0  0  0  0
  5  6  2  0  0  0  0
  6  7  1  0  0  0  0
  6 23  1  0  0  0  0
  7  8  1  0  0  0  0
  7 11  2  0  0  0  0
  8  9  2  0  0  0  0
  8 10  1  0  0  0  0
 11 12  1  0  0  0  0
 11 24  1  0  0  0  0
 12 13  2  0  0  0  0
 12 25  1  0  0  0  0
 14 15  1  0  0  0  0
 14 26  1  0  0  0  0
 14 27  1  0  0  0  0
 15 16  1  0  0  0  0
 15 28  1  0  0  0  0
 15 29  1  0  0  0  0
M  CHG  1  10  -1
M  END
> <s_m_source_file>
AV-unprocessed.smi

> <i_m_source_file_index>
2665

> <i_lp_mmshare_version>
43012

> <i_f3d_flags>
0

> <s_epik_input>
W0NIM11bQ0BASF0xW0NIMl1OKFtDSDJdW0NIMl1PMSljMltjSF1jKEMoPU8pW09IXSlbY0hdW2NIXW4y

> <s_epik_cmdline>
J2VwaWtfcHl0aG9uJywgJy1waCcsICc3LjAnLCAnLXRuJywgJzgnLCAnLW1hJywgJzIwMCcsICctbWV0YWxfYmluZGluZycsICctaW1hZScsICc8aW5maWxlLm1hZT4nLCAnLW9tYWUnLCAnPG91dGZpbGUubWFlPic=

> <r_epik_Ionization_Penalty>
0.00511367

> <r_epik_Ionization_Penalty_Charging>
0.00135522

> <r_epik_Ionization_Penalty_Neutral>
0.00375844

> <r_epik_State_Penalty>
0.00357724

> <r_epik_Charging_Adjusted_Penalty>
0.00493246

> <i_epik_Tot_Q>
-1

> <i_epik_Tot_abs_Q>
1

> <r_epik_Metal_State_Penalty>
-0

> <b_epik_Metal_Only>
0

> <s_lp_Force_Field>
OPLS_2005

> <r_lp_Energy>
17.7567

> <b_lp_Chiralities_Consistent>
1

> <s_lp_Variant>
AV-unprocessed.smi:2665-1

> <Gold.Version>
5.8.1

> <Gold.Id.Protein>
6NUR|6NUR_protein|mol2

> <Gold.PLP.Fitness>
43.3918

> <Gold.PLP.PLP>
-33.1437

> <Gold.PLP.part.hbond>
-2.0000

> <Gold.PLP.part.metal>
0.0000

> <Gold.PLP.part.buried>
-5.8507

> <Gold.PLP.part.nonpolar>
-25.8454

> <Gold.PLP.part.repulsive>
0.4195

> <Gold.PLP.ligand.clash>
0.0000

> <Gold.PLP.ligand.torsion>
0.2339

> <Gold.PLP.Chemscore.Hbond>
3.5374

> <Gold.PLP.Chemscore.CHOScore>
0.0000

> <Gold.PLP.Chemscore.Metal>
0.0000

> <Gold.Chemscore.Hbonds>
donor molecule, donor type, donor heavy atom, donor atom, acceptor molecule, acceptor atom, score
      P1  H  7997  8008       L1     9  1.59
      P1  H 10752 10765       L1    10  1.89

> <Gold.PLP.Chemscore.Internal.Correction>
0.1037

> <Gold.Rescore>
     Score         DG    S(hbond)    S(metal)    S(lipo)     H(rot)  DE(clash)    DE(int)     intcor
     16.71     -16.99       1.64        0.00      73.38       1.00       0.03       0.25       ----

> <Gold.Chemscore.Fitness>
16.7143

> <Gold.Chemscore.DG>
-16.9927

> <Gold.Chemscore.ZeroCoef>
-5.4800

> <Gold.Chemscore.Hbond>
1.6428

> <Gold.Chemscore.Metal>
0.0000

> <Gold.Chemscore.Lipo>
73.3818

> <Gold.Chemscore.Internal_Hbond>
0.0000

> <Gold.Chemscore.DEClash>
0.0270

> <Gold.Chemscore.DEInternal>
0.2514

> <Gold.Chemscore.Rot>
1.0000

> <Gold.Chemscore.Internal.Correction>
   9.000000E+99

> <Gold.Chemscore.Hbonds>
donor molecule, donor type, donor heavy atom, donor atom, acceptor molecule, acceptor atom, score
      P1  H  7997  8008       L1     9  0.73
      P1  H 10752 10765       L1    10  0.79

> <Gold.Chemscore.Hbond.Weighted>
-5.4870

> <Gold.Chemscore.Metal.Weighted>
-0.0000

> <Gold.Chemscore.Lipo.Weighted>
-8.5857

> <Gold.Chemscore.Internal_Hbond.Weighted>
0.0000

> <Gold.Chemscore.DEClash.Weighted>
0.0270

> <Gold.Chemscore.DEInternal.Weighted>
0.2514

> <Gold.Chemscore.Rot.Weighted>
2.5600

> <Gold.Chemscore.Internal.Correction.Weighted>
   9.000000E+99

> <Gold.Protein.RotatedTorsions>
[ 6907 6896 6895 6894 ] final  -54.72 input  -60.11 | X-H torsion
[ 7974 7965 7964 7962 ] final  109.92 input  175.53 | X-H torsion
[ 8008 7997 7996 7995 ] final   -8.50 input   59.86 | X-H torsion
[ 10167 10162 10161 10158 ] final   98.92 input  -65.29 | X-H torsion
[ 10718 10713 10712 10709 ] final  169.49 input   66.30 | X-H torsion
[ 10763 10752 10751 10750 ] final  151.38 input  -60.55 | X-H torsion
[ 11005 11000 10999 10996 ] final    4.94 input  -57.11 | X-H torsion

> <Gold.Protein.ActiveResidues>
 VAL166  LYS551  ARG553  GLY616  TRP617  ASP618  TYR619  PRO620  LYS621  CYS622 
 ASP623  PHE694  ASN695  SER759  ASP760  ASP761  ALA762  ILE779  LEU786  VAL792 
 PHE793  MET794  SER795  GLU796  ALA797  LYS798  CYS799  TRP800  GLU811  SER814 

> <Gold.Protein.RotatedAtoms>
  150.8314  134.7568  159.6856 H   0  0  0  0  0  0  0  0  0  0  0  0  # atno 6907 bound_to 6896
  152.4417  134.5573  159.9894 H   0  0  0  0  0  0  0  0  0  0  0  0  # atno 6908 bound_to 6896
  151.5733  133.3349  159.3030 H   0  0  0  0  0  0  0  0  0  0  0  0  # atno 6909 bound_to 6896
  145.2616  139.2700  143.4014 H   0  0  0  0  0  0  0  0  0  0  0  0  # atno 7974 bound_to 7965
  154.5736  140.2379  155.8156 H   0  0  0  0  0  0  0  0  0  0  0  0  # atno 8008 bound_to 7997
  156.2126  140.3022  155.9723 H   0  0  0  0  0  0  0  0  0  0  0  0  # atno 8009 bound_to 7997
  155.2668  140.0416  157.2993 H   0  0  0  0  0  0  0  0  0  0  0  0  # atno 8010 bound_to 7997
  139.7664  144.6937  151.0218 H   0  0  0  0  0  0  0  0  0  0  0  0  # atno 10167 bound_to 10162
  157.0218  131.0234  151.2772 H   0  0  0  0  0  0  0  0  0  0  0  0  # atno 10718 bound_to 10713
  154.1029  135.2844  155.3248 H   0  0  0  0  0  0  0  0  0  0  0  0  # atno 10763 bound_to 10752
  154.6543  135.5357  153.7943 H   0  0  0  0  0  0  0  0  0  0  0  0  # atno 10764 bound_to 10752
  153.0373  135.6518  154.1191 H   0  0  0  0  0  0  0  0  0  0  0  0  # atno 10765 bound_to 10752
  140.5762  134.0055  155.8029 H   0  0  0  0  0  0  0  0  0  0  0  0  # atno 11005 bound_to 11000
  146.3273  140.3035  142.8622 LP  0  0  0  0  0  0  0  0  0  0  0  0  # atno 17320 bound_to 7965
  144.9413  140.8081  143.5629 LP  0  0  0  0  0  0  0  0  0  0  0  0  # atno 17321 bound_to 7965
  140.7811  143.4638  151.0241 LP  0  0  0  0  0  0  0  0  0  0  0  0  # atno 17342 bound_to 10162
  139.8323  143.7675  152.3180 LP  0  0  0  0  0  0  0  0  0  0  0  0  # atno 17343 bound_to 10162
  157.5243  130.8018  149.7845 LP  0  0  0  0  0  0  0  0  0  0  0  0  # atno 17370 bound_to 10713
  156.0099  130.3838  150.2299 LP  0  0  0  0  0  0  0  0  0  0  0  0  # atno 17371 bound_to 10713
  141.1025  133.9746  157.3054 LP  0  0  0  0  0  0  0  0  0  0  0  0  # atno 17394 bound_to 11000
  139.9338  135.0198  156.8489 LP  0  0  0  0  0  0  0  0  0  0  0  0  # atno 17395 bound_to 11000

$$$$
