AV-unprocessed.smi:438|AV-procd|sdf|2576|dock9
  -GOLD-   2262022563D 1   1.00000     0.00000
 Structure written by MMmdl.
 48 49  0  0  0  0  0  0  0  0  1 V2000
  146.9365  133.8938  153.7099 C   0  0  0  0  0  0  0  0  0  0  0  0
  146.3076  135.2587  153.9206 C   0  0  0  0  0  0  0  0  0  0  0  0
  146.3339  135.7295  155.1867 N   0  0  0  0  0  0  0  0  0  0  0  0
  145.7802  136.9240  155.3913 C   0  0  0  0  0  0  0  0  0  0  0  0
  145.8137  137.5038  157.0766 S   0  0  0  0  0  0  0  0  0  0  0  0
  146.8942  136.2752  157.8896 C   0  0  0  0  0  0  0  0  0  0  0  0
  147.1550  136.4957  159.3856 C   0  0  0  0  0  0  0  0  0  0  0  0
  147.7115  137.5295  159.7535 O   0  0  0  0  0  0  0  0  0  0  0  0
  146.7658  135.5327  160.2361 N   0  0  0  0  0  0  0  0  0  0  0  0
  146.9307  135.5395  161.6894 C   0  0  1  0  0  0  0  0  0  0  0  0
  146.1110  136.6711  162.3508 C   0  0  0  0  0  0  0  0  0  0  0  0
  144.5972  136.4201  162.2615 C   0  0  0  0  0  0  0  0  0  0  0  0
  144.2228  135.0522  162.8504 C   0  0  0  0  0  0  0  0  0  0  0  0
  145.0231  133.9187  162.1893 C   0  0  0  0  0  0  0  0  0  0  0  0
  146.5441  134.1637  162.2875 C   0  0  1  0  0  0  0  0  0  0  0  0
  147.3430  133.0000  161.6752 C   0  0  0  0  0  0  0  0  0  0  0  0
  145.2104  137.7166  154.4821 N   0  0  0  0  0  0  0  0  0  0  0  0
  145.1741  137.2604  153.2125 C   0  0  0  0  0  0  0  0  0  0  0  0
  144.5943  138.0539  152.2660 O   0  0  0  0  0  0  0  0  0  0  0  0
  145.7189  135.9994  152.8635 C   0  0  0  0  0  0  0  0  0  0  0  0
  145.6722  135.4822  151.4319 C   0  0  0  0  0  0  0  0  0  0  0  0
  144.2698  135.0001  151.0383 C   0  0  0  0  0  0  0  0  0  0  0  0
  144.1469  134.9880  149.6331 O   0  0  0  0  0  0  0  0  0  0  0  0
  147.6742  133.9308  152.9085 H   0  0  0  0  0  0  0  0  0  0  0  0
  146.1732  133.1623  153.4450 H   0  0  0  0  0  0  0  0  0  0  0  0
  147.4393  133.5431  154.6120 H   0  0  0  0  0  0  0  0  0  0  0  0
  146.4325  135.2951  157.7706 H   0  0  0  0  0  0  0  0  0  0  0  0
  147.8469  136.2305  157.3611 H   0  0  0  0  0  0  0  0  0  0  0  0
  146.3186  134.7176  159.8414 H   0  0  0  0  0  0  0  0  0  0  0  0
  147.9873  135.7152  161.9001 H   0  0  0  0  0  0  0  0  0  0  0  0
  146.3954  136.7487  163.4008 H   0  0  0  0  0  0  0  0  0  0  0  0
  146.3532  137.6365  161.9053 H   0  0  0  0  0  0  0  0  0  0  0  0
  144.0564  137.2101  162.7828 H   0  0  0  0  0  0  0  0  0  0  0  0
  144.2827  136.4703  161.2205 H   0  0  0  0  0  0  0  0  0  0  0  0
  144.4127  135.0537  163.9244 H   0  0  0  0  0  0  0  0  0  0  0  0
  143.1545  134.8741  162.7262 H   0  0  0  0  0  0  0  0  0  0  0  0
  144.7677  132.9711  162.6647 H   0  0  0  0  0  0  0  0  0  0  0  0
  144.7259  133.8249  161.1439 H   0  0  0  0  0  0  0  0  0  0  0  0
  146.7979  134.1928  163.3483 H   0  0  0  0  0  0  0  0  0  0  0  0
  147.1075  132.8574  160.6201 H   0  0  0  0  0  0  0  0  0  0  0  0
  147.1230  132.0640  162.1889 H   0  0  0  0  0  0  0  0  0  0  0  0
  148.4159  133.1753  161.7574 H   0  0  0  0  0  0  0  0  0  0  0  0
  144.2082  138.8341  152.6329 H   0  0  0  0  0  0  0  0  0  0  0  0
  146.0093  136.2570  150.7433 H   0  0  0  0  0  0  0  0  0  0  0  0
  146.3893  134.6676  151.3218 H   0  0  0  0  0  0  0  0  0  0  0  0
  144.0858  133.9950  151.4192 H   0  0  0  0  0  0  0  0  0  0  0  0
  143.5034  135.6534  151.4558 H   0  0  0  0  0  0  0  0  0  0  0  0
  144.9030  134.5534  149.2690 H   0  0  0  0  0  0  0  0  0  0  0  0
  1  2  1  0  0  0  0
  1 24  1  0  0  0  0
  1 25  1  0  0  0  0
  1 26  1  0  0  0  0
  2 20  1  0  0  0  0
  2  3  2  0  0  0  0
  3  4  1  0  0  0  0
  4  5  1  0  0  0  0
  4 17  2  0  0  0  0
  5  6  1  0  0  0  0
  6  7  1  0  0  0  0
  6 27  1  0  0  0  0
  6 28  1  0  0  0  0
  7  8  2  0  0  0  0
  7  9  1  0  0  0  0
  9 10  1  0  0  0  0
  9 29  1  0  0  0  0
 10 15  1  0  0  0  0
 10 11  1  0  0  0  0
 10 30  1  0  0  0  0
 11 12  1  0  0  0  0
 11 31  1  0  0  0  0
 11 32  1  0  0  0  0
 12 13  1  0  0  0  0
 12 33  1  0  0  0  0
 12 34  1  0  0  0  0
 13 14  1  0  0  0  0
 13 35  1  0  0  0  0
 13 36  1  0  0  0  0
 14 15  1  0  0  0  0
 14 37  1  0  0  0  0
 14 38  1  0  0  0  0
 15 16  1  0  0  0  0
 15 39  1  0  0  0  0
 16 40  1  0  0  0  0
 16 41  1  0  0  0  0
 16 42  1  0  0  0  0
 17 18  1  0  0  0  0
 18 19  1  0  0  0  0
 18 20  2  0  0  0  0
 19 43  1  0  0  0  0
 20 21  1  0  0  0  0
 21 22  1  0  0  0  0
 21 44  1  0  0  0  0
 21 45  1  0  0  0  0
 22 23  1  0  0  0  0
 22 46  1  0  0  0  0
 22 47  1  0  0  0  0
 23 48  1  0  0  0  0
M  END
> <s_m_source_file>
AV-unprocessed.smi

> <i_m_source_file_index>
438

> <i_lp_mmshare_version>
43012

> <i_f3d_flags>
0

> <s_epik_input>
W09IXVtDSDJdW0NIMl1jMWMoW09IXSluYyhuYzFbQ0gzXSlTW0NIMl1DKD1PKVtOSF1bQ0BASF0yW0NIMl1bQ0gyXVtDSDJdW0NIMl1bQ0BIXTJbQ0gzXQ==

> <s_epik_cmdline>
J2VwaWtfcHl0aG9uJywgJy1waCcsICc3LjAnLCAnLXRuJywgJzgnLCAnLW1hJywgJzIwMCcsICctbWV0YWxfYmluZGluZycsICctaW1hZScsICc8aW5maWxlLm1hZT4nLCAnLW9tYWUnLCAnPG91dGZpbGUubWFlPic=

> <r_lp_tautomer_probability>
0.0660145

> <r_epik_Ionization_Penalty>
2.91405

> <r_epik_Ionization_Penalty_Charging>
0

> <r_epik_Ionization_Penalty_Neutral>
2.91405

> <r_epik_State_Penalty>
2.44767

> <r_epik_Charging_Adjusted_Penalty>
2.44767

> <i_epik_Tot_Q>
0

> <i_epik_Tot_abs_Q>
0

> <r_epik_Metal_State_Penalty>
3.04288

> <b_epik_Metal_Only>
0

> <s_lp_Force_Field>
OPLS_2005

> <r_lp_Energy>
-3.37475

> <b_lp_Chiralities_Consistent>
1

> <s_lp_Variant>
AV-unprocessed.smi:438-14

> <Gold.Version>
5.8.1

> <Gold.Id.Protein>
6NUR|6NUR_protein|mol2

> <Gold.PLP.Fitness>
41.3617

> <Gold.PLP.PLP>
-34.8478

> <Gold.PLP.part.hbond>
-4.8546

> <Gold.PLP.part.metal>
0.0000

> <Gold.PLP.part.buried>
-6.2999

> <Gold.PLP.part.nonpolar>
-24.1197

> <Gold.PLP.part.repulsive>
0.1717

> <Gold.PLP.ligand.clash>
0.0000

> <Gold.PLP.ligand.torsion>
0.4098

> <Gold.PLP.Chemscore.Hbond>
2.4160

> <Gold.PLP.Chemscore.CHOScore>
0.0000

> <Gold.PLP.Chemscore.Metal>
0.0000

> <Gold.Chemscore.Hbonds>
donor molecule, donor type, donor heavy atom, donor atom, acceptor molecule, acceptor atom, score
      L1  H    19    43       P1 10175  1.00
      L1  H    23    48       P1  7921  0.67
      P1  H  6934  6947       L1     8  0.72

> <Gold.PLP.Chemscore.Internal.Correction>
0.0855

> <Gold.Rescore>
     Score         DG    S(hbond)    S(metal)    S(lipo)     H(rot)  DE(clash)    DE(int)     intcor
     13.31     -13.67       2.62        0.00      70.49       3.44       0.00       0.36       ----

> <Gold.Chemscore.Fitness>
13.3068

> <Gold.Chemscore.DG>
-13.6657

> <Gold.Chemscore.ZeroCoef>
-5.4800

> <Gold.Chemscore.Hbond>
2.6151

> <Gold.Chemscore.Metal>
0.0000

> <Gold.Chemscore.Lipo>
70.4904

> <Gold.Chemscore.Internal_Hbond>
0.0000

> <Gold.Chemscore.DEClash>
0.0000

> <Gold.Chemscore.DEInternal>
0.3590

> <Gold.Chemscore.Rot>
3.4359

> <Gold.Chemscore.Internal.Correction>
   9.000000E+99

> <Gold.Chemscore.Hbonds>
donor molecule, donor type, donor heavy atom, donor atom, acceptor molecule, acceptor atom, score
      L1  H    19    43       P1 10175  0.94
      L1  H    23    48       P1  7921  0.64
      P1  H  6934  6947       L1     8  0.71

> <Gold.Chemscore.Hbond.Weighted>
-8.7344

> <Gold.Chemscore.Metal.Weighted>
-0.0000

> <Gold.Chemscore.Lipo.Weighted>
-8.2474

> <Gold.Chemscore.Internal_Hbond.Weighted>
0.0000

> <Gold.Chemscore.DEClash.Weighted>
0.0000

> <Gold.Chemscore.DEInternal.Weighted>
0.3590

> <Gold.Chemscore.Rot.Weighted>
8.7960

> <Gold.Chemscore.Internal.Correction.Weighted>
   9.000000E+99

> <Gold.Protein.RotatedTorsions>
[ 6907 6896 6895 6894 ] final   -0.98 input  -60.11 | X-H torsion
[ 7974 7965 7964 7962 ] final  115.49 input  175.53 | X-H torsion
[ 8008 7997 7996 7995 ] final   32.04 input   59.86 | X-H torsion
[ 10167 10162 10161 10158 ] final  -53.43 input  -65.29 | X-H torsion
[ 10718 10713 10712 10709 ] final -153.37 input   66.30 | X-H torsion
[ 10763 10752 10751 10750 ] final  153.14 input  -60.55 | X-H torsion
[ 11005 11000 10999 10996 ] final -148.10 input  -57.11 | X-H torsion

> <Gold.Protein.ActiveResidues>
 VAL166  LYS551  ARG553  GLY616  TRP617  ASP618  TYR619  PRO620  LYS621  CYS622 
 ASP623  PHE694  ASN695  SER759  ASP760  ASP761  ALA762  ILE779  LEU786  VAL792 
 PHE793  MET794  SER795  GLU796  ALA797  LYS798  CYS799  TRP800  GLU811  SER814 

> <Gold.Protein.RotatedAtoms>
  151.5535  135.1067  159.9955 H   0  0  0  0  0  0  0  0  0  0  0  0  # atno 6907 bound_to 6896
  152.4480  133.7570  159.6736 H   0  0  0  0  0  0  0  0  0  0  0  0  # atno 6908 bound_to 6896
  150.8401  133.7882  159.3088 H   0  0  0  0  0  0  0  0  0  0  0  0  # atno 6909 bound_to 6896
  145.1914  139.2998  143.4366 H   0  0  0  0  0  0  0  0  0  0  0  0  # atno 7974 bound_to 7965
  155.1162  140.3244  155.4509 H   0  0  0  0  0  0  0  0  0  0  0  0  # atno 8008 bound_to 7997
  156.2676  140.2035  156.6233 H   0  0  0  0  0  0  0  0  0  0  0  0  # atno 8009 bound_to 7997
  154.6719  140.0535  157.0161 H   0  0  0  0  0  0  0  0  0  0  0  0  # atno 8010 bound_to 7997
  140.6485  143.2551  151.4790 H   0  0  0  0  0  0  0  0  0  0  0  0  # atno 10167 bound_to 10162
  156.4849  130.8320  151.2546 H   0  0  0  0  0  0  0  0  0  0  0  0  # atno 10718 bound_to 10713
  154.1313  135.2826  155.3184 H   0  0  0  0  0  0  0  0  0  0  0  0  # atno 10763 bound_to 10752
  154.6353  135.5421  153.7730 H   0  0  0  0  0  0  0  0  0  0  0  0  # atno 10764 bound_to 10752
  153.0280  135.6473  154.1463 H   0  0  0  0  0  0  0  0  0  0  0  0  # atno 10765 bound_to 10752
  140.7648  134.3257  157.5092 H   0  0  0  0  0  0  0  0  0  0  0  0  # atno 11005 bound_to 11000
  146.3435  140.2128  142.8590 LP  0  0  0  0  0  0  0  0  0  0  0  0  # atno 17320 bound_to 7965
  145.0038  140.8655  143.5266 LP  0  0  0  0  0  0  0  0  0  0  0  0  # atno 17321 bound_to 7965
  139.5698  144.1956  152.1819 LP  0  0  0  0  0  0  0  0  0  0  0  0  # atno 17342 bound_to 10162
  140.1249  144.5341  150.6839 LP  0  0  0  0  0  0  0  0  0  0  0  0  # atno 17343 bound_to 10162
  157.7479  131.0032  150.3031 LP  0  0  0  0  0  0  0  0  0  0  0  0  # atno 17370 bound_to 10713
  156.3484  130.3827  149.7350 LP  0  0  0  0  0  0  0  0  0  0  0  0  # atno 17371 bound_to 10713
  139.8765  134.9224  156.3300 LP  0  0  0  0  0  0  0  0  0  0  0  0  # atno 17394 bound_to 11000
  140.9629  133.7376  156.0427 LP  0  0  0  0  0  0  0  0  0  0  0  0  # atno 17395 bound_to 11000

$$$$
