AV-unprocessed.smi:1679|AV-procd|sdf|6729|dock4
  -GOLD-   22720 7473D 1   1.00000     0.00000
 Structure written by MMmdl.
 45 46  0  0  0  0  0  0  0  0  1 V2000
  150.9465  141.7071  156.3709 C   0  0  0  0  0  0  0  0  0  0  0  0
  150.9845  142.6849  157.5570 C   0  0  2  0  0  0  0  0  0  0  0  0
  151.8035  143.9412  157.1980 C   0  0  0  0  0  0  0  0  0  0  0  0
  151.8671  144.9344  158.3679 C   0  0  0  0  0  0  0  0  0  0  0  0
  152.4352  144.2653  159.6266 C   0  0  0  0  0  0  0  0  0  0  0  0
  151.6186  143.0203  160.0030 C   0  0  0  0  0  0  0  0  0  0  0  0
  151.5408  142.0147  158.8341 C   0  0  1  0  0  0  0  0  0  0  0  0
  150.6630  140.9542  159.1905 O   0  0  0  0  0  0  0  0  0  0  0  0
  151.2336  139.9871  160.0603 C   0  0  0  0  0  0  0  0  0  0  0  0
  150.1066  139.1733  160.7044 C   0  0  0  0  0  0  0  0  0  0  0  0
  150.6402  137.9760  161.3388 N   0  0  0  0  0  0  0  0  0  0  0  0
  150.7575  136.7841  160.7377 C   0  0  0  0  0  0  0  0  0  0  0  0
  150.4192  136.5849  159.5699 O   0  0  0  0  0  0  0  0  0  0  0  0
  151.3313  135.6525  161.6031 C   0  0  0  0  0  0  0  0  0  0  0  0
  152.0456  134.6275  160.8279 N   0  0  0  0  0  0  0  0  0  0  0  0
  151.6838  133.2923  160.9376 C   0  0  0  0  0  0  0  0  0  0  0  0
  152.2904  132.2963  160.2498 C   0  0  0  0  0  0  0  0  0  0  0  0
  153.3857  132.5925  159.3329 C   0  0  0  0  0  0  0  0  0  0  0  0
  153.9986  131.7605  158.6677 O   0  0  0  0  0  0  0  0  0  0  0  0
  153.7179  133.9472  159.2468 N   0  0  0  0  0  0  0  0  0  0  0  0
  153.0957  134.9790  159.9517 C   0  0  0  0  0  0  0  0  0  0  0  0
  153.4646  136.1428  159.7979 O   0  0  0  0  0  0  0  0  0  0  0  0
  154.4688  134.2011  158.6213 H   0  0  0  0  0  0  0  0  0  0  0  0
  151.9435  141.3376  156.1292 H   0  0  0  0  0  0  0  0  0  0  0  0
  150.5454  142.1884  155.4787 H   0  0  0  0  0  0  0  0  0  0  0  0
  150.3157  140.8444  156.5866 H   0  0  0  0  0  0  0  0  0  0  0  0
  149.9599  143.0010  157.7588 H   0  0  0  0  0  0  0  0  0  0  0  0
  152.8163  143.6528  156.9129 H   0  0  0  0  0  0  0  0  0  0  0  0
  151.3679  144.4335  156.3279 H   0  0  0  0  0  0  0  0  0  0  0  0
  152.4801  145.7936  158.0940 H   0  0  0  0  0  0  0  0  0  0  0  0
  150.8682  145.3198  158.5764 H   0  0  0  0  0  0  0  0  0  0  0  0
  153.4755  143.9850  159.4566 H   0  0  0  0  0  0  0  0  0  0  0  0
  152.4365  144.9737  160.4554 H   0  0  0  0  0  0  0  0  0  0  0  0
  152.0616  142.5536  160.8824 H   0  0  0  0  0  0  0  0  0  0  0  0
  150.6109  143.3231  160.2912 H   0  0  0  0  0  0  0  0  0  0  0  0
  152.5374  141.6261  158.6151 H   0  0  0  0  0  0  0  0  0  0  0  0
  151.8840  139.3250  159.4874 H   0  0  0  0  0  0  0  0  0  0  0  0
  151.8443  140.4559  160.8323 H   0  0  0  0  0  0  0  0  0  0  0  0
  149.5762  139.7795  161.4404 H   0  0  0  0  0  0  0  0  0  0  0  0
  149.3821  138.8820  159.9423 H   0  0  0  0  0  0  0  0  0  0  0  0
  150.9294  138.0577  162.3028 H   0  0  0  0  0  0  0  0  0  0  0  0
  151.9863  136.0790  162.3656 H   0  0  0  0  0  0  0  0  0  0  0  0
  150.5090  135.1957  162.1560 H   0  0  0  0  0  0  0  0  0  0  0  0
  150.8743  133.0268  161.6026 H   0  0  0  0  0  0  0  0  0  0  0  0
  151.9628  131.2749  160.3787 H   0  0  0  0  0  0  0  0  0  0  0  0
  1  2  1  0  0  0  0
  1 24  1  0  0  0  0
  1 25  1  0  0  0  0
  1 26  1  0  0  0  0
  2  7  1  0  0  0  0
  2  3  1  0  0  0  0
  2 27  1  0  0  0  0
  3  4  1  0  0  0  0
  3 28  1  0  0  0  0
  3 29  1  0  0  0  0
  4  5  1  0  0  0  0
  4 30  1  0  0  0  0
  4 31  1  0  0  0  0
  5  6  1  0  0  0  0
  5 32  1  0  0  0  0
  5 33  1  0  0  0  0
  6  7  1  0  0  0  0
  6 34  1  0  0  0  0
  6 35  1  0  0  0  0
  7  8  1  0  0  0  0
  7 36  1  0  0  0  0
  8  9  1  0  0  0  0
  9 10  1  0  0  0  0
  9 37  1  0  0  0  0
  9 38  1  0  0  0  0
 10 11  1  0  0  0  0
 10 39  1  0  0  0  0
 10 40  1  0  0  0  0
 11 12  1  0  0  0  0
 11 41  1  0  0  0  0
 12 13  2  0  0  0  0
 12 14  1  0  0  0  0
 14 15  1  0  0  0  0
 14 42  1  0  0  0  0
 14 43  1  0  0  0  0
 15 21  1  0  0  0  0
 15 16  1  0  0  0  0
 16 17  2  0  0  0  0
 16 44  1  0  0  0  0
 17 18  1  0  0  0  0
 17 45  1  0  0  0  0
 18 19  2  0  0  0  0
 18 20  1  0  0  0  0
 20 23  1  0  0  0  0
 20 21  1  0  0  0  0
 21 22  2  0  0  0  0
M  END
> <s_m_source_file>
AV-unprocessed.smi

> <i_m_source_file_index>
1679

> <i_lp_mmshare_version>
43012

> <i_f3d_flags>
0

> <s_epik_input>
W0NIM11bQ0BASF0xW0NIMl1bQ0gyXVtDSDJdW0NIMl1bQ0BIXTFPW0NIMl1bQ0gyXVtOSF1DKD1PKVtDSDJdbjJbY0hdW2NIXWMoPU8pW25IXWMyPU8=

> <s_epik_cmdline>
J2VwaWtfcHl0aG9uJywgJy1waCcsICc3LjAnLCAnLXRuJywgJzgnLCAnLW1hJywgJzIwMCcsICctbWV0YWxfYmluZGluZycsICctaW1hZScsICc8aW5maWxlLm1hZT4nLCAnLW9tYWUnLCAnPG91dGZpbGUubWFlPic=

> <r_lp_tautomer_probability>
0.999537

> <r_epik_Ionization_Penalty>
0.0033132

> <r_epik_Ionization_Penalty_Charging>
0.00331317

> <r_epik_Ionization_Penalty_Neutral>
2.78599e-08

> <r_epik_State_Penalty>
0.002342

> <r_epik_Charging_Adjusted_Penalty>
0.00565517

> <i_epik_Tot_Q>
0

> <i_epik_Tot_abs_Q>
0

> <r_epik_Metal_State_Penalty>
0.365595

> <b_epik_Metal_Only>
0

> <s_lp_Force_Field>
OPLS_2005

> <r_lp_Energy>
12.8009

> <b_lp_Chiralities_Consistent>
1

> <s_lp_Variant>
AV-unprocessed.smi:1679-1

> <Gold.Version>
5.8.1

> <Gold.Id.Protein>
6NUR|6NUR_protein|mol2

> <Gold.PLP.Fitness>
47.1435

> <Gold.PLP.PLP>
-41.1355

> <Gold.PLP.part.hbond>
-3.7184

> <Gold.PLP.part.metal>
0.0000

> <Gold.PLP.part.buried>
-3.5690

> <Gold.PLP.part.nonpolar>
-34.7792

> <Gold.PLP.part.repulsive>
0.1818

> <Gold.PLP.ligand.clash>
0.0000

> <Gold.PLP.ligand.torsion>
0.8742

> <Gold.PLP.Chemscore.Hbond>
2.5625

> <Gold.PLP.Chemscore.CHOScore>
0.0000

> <Gold.PLP.Chemscore.Metal>
0.0000

> <Gold.Chemscore.Hbonds>
donor molecule, donor type, donor heavy atom, donor atom, acceptor molecule, acceptor atom, score
      P1  H  6896  6908       L1    13  0.25

> <Gold.PLP.Chemscore.Internal.Correction>
0.0688

> <Gold.Rescore>
     Score         DG    S(hbond)    S(metal)    S(lipo)     H(rot)  DE(clash)    DE(int)     intcor
     16.44     -18.42       2.54        0.00      93.25       2.52       0.20       1.78       ----

> <Gold.Chemscore.Fitness>
16.4427

> <Gold.Chemscore.DG>
-18.4191

> <Gold.Chemscore.ZeroCoef>
-5.4800

> <Gold.Chemscore.Hbond>
2.5378

> <Gold.Chemscore.Metal>
0.0000

> <Gold.Chemscore.Lipo>
93.2478

> <Gold.Chemscore.Internal_Hbond>
0.0000

> <Gold.Chemscore.DEClash>
0.1969

> <Gold.Chemscore.DEInternal>
1.7795

> <Gold.Chemscore.Rot>
2.5185

> <Gold.Chemscore.Internal.Correction>
   9.000000E+99

> <Gold.Chemscore.Hbond.Weighted>
-8.4763

> <Gold.Chemscore.Metal.Weighted>
-0.0000

> <Gold.Chemscore.Lipo.Weighted>
-10.9100

> <Gold.Chemscore.Internal_Hbond.Weighted>
0.0000

> <Gold.Chemscore.DEClash.Weighted>
0.1969

> <Gold.Chemscore.DEInternal.Weighted>
1.7795

> <Gold.Chemscore.Rot.Weighted>
6.4472

> <Gold.Chemscore.Internal.Correction.Weighted>
   9.000000E+99

> <Gold.Protein.RotatedTorsions>
[ 6907 6896 6895 6894 ] final -155.49 input  -60.11 | X-H torsion
[ 7974 7965 7964 7962 ] final   67.43 input  175.53 | X-H torsion
[ 8008 7997 7996 7995 ] final  168.98 input   59.86 | X-H torsion
[ 10167 10162 10161 10158 ] final   28.45 input  -65.29 | X-H torsion
[ 10718 10713 10712 10709 ] final   74.91 input   66.30 | X-H torsion
[ 10763 10752 10751 10750 ] final  113.77 input  -60.55 | X-H torsion
[ 11005 11000 10999 10996 ] final  -23.97 input  -57.11 | X-H torsion

> <Gold.Protein.ActiveResidues>
 VAL166  LYS551  ARG553  GLY616  TRP617  ASP618  TYR619  PRO620  LYS621  CYS622 
 ASP623  PHE694  ASN695  SER759  ASP760  ASP761  ALA762  ILE779  LEU786  VAL792 
 PHE793  MET794  SER795  GLU796  ALA797  LYS798  CYS799  TRP800  GLU811  SER814 

> <Gold.Protein.RotatedAtoms>
  151.2734  133.4244  159.2622 H   0  0  0  0  0  0  0  0  0  0  0  0  # atno 6907 bound_to 6896
  151.0425  134.9617  159.8179 H   0  0  0  0  0  0  0  0  0  0  0  0  # atno 6908 bound_to 6896
  152.5368  134.2691  159.9017 H   0  0  0  0  0  0  0  0  0  0  0  0  # atno 6909 bound_to 6896
  145.8148  139.3052  143.1078 H   0  0  0  0  0  0  0  0  0  0  0  0  # atno 7974 bound_to 7965
  156.1499  140.1576  156.8787 H   0  0  0  0  0  0  0  0  0  0  0  0  # atno 8008 bound_to 7997
  154.5061  140.0812  156.7935 H   0  0  0  0  0  0  0  0  0  0  0  0  # atno 8009 bound_to 7997
  155.3916  140.3410  155.4254 H   0  0  0  0  0  0  0  0  0  0  0  0  # atno 8010 bound_to 7997
  140.4851  144.0555  150.6278 H   0  0  0  0  0  0  0  0  0  0  0  0  # atno 10167 bound_to 10162
  157.6612  130.9700  150.1277 H   0  0  0  0  0  0  0  0  0  0  0  0  # atno 10718 bound_to 10713
  153.4974  135.3645  155.2523 H   0  0  0  0  0  0  0  0  0  0  0  0  # atno 10763 bound_to 10752
  154.8749  135.3992  154.3518 H   0  0  0  0  0  0  0  0  0  0  0  0  # atno 10764 bound_to 10752
  153.4148  135.7079  153.6400 H   0  0  0  0  0  0  0  0  0  0  0  0  # atno 10765 bound_to 10752
  140.8801  133.7659  156.0292 H   0  0  0  0  0  0  0  0  0  0  0  0  # atno 11005 bound_to 11000
  145.9739  140.8738  143.0149 LP  0  0  0  0  0  0  0  0  0  0  0  0  # atno 17320 bound_to 7965
  144.6753  140.1984  143.7389 LP  0  0  0  0  0  0  0  0  0  0  0  0  # atno 17321 bound_to 7965
  140.3808  143.2804  152.0173 LP  0  0  0  0  0  0  0  0  0  0  0  0  # atno 17342 bound_to 10162
  139.4840  144.6156  151.7352 LP  0  0  0  0  0  0  0  0  0  0  0  0  # atno 17343 bound_to 10162
  156.2132  130.3668  149.8645 LP  0  0  0  0  0  0  0  0  0  0  0  0  # atno 17370 bound_to 10713
  156.6518  130.8746  151.3532 LP  0  0  0  0  0  0  0  0  0  0  0  0  # atno 17371 bound_to 10713
  140.8471  134.2998  157.5290 LP  0  0  0  0  0  0  0  0  0  0  0  0  # atno 17394 bound_to 11000
  139.8719  134.9447  156.3890 LP  0  0  0  0  0  0  0  0  0  0  0  0  # atno 17395 bound_to 11000

$$$$
