AV-unprocessed.smi:1205|AV-procd|sdf|5043|dock1
  -GOLD-   22720 4 63D 1   1.00000     0.00000
 Structure written by MMmdl.
 49 50  0  0  0  0  0  0  0  0  2 V2000
  143.6129  132.7089  149.2463 C   0  0  0  0  0  0  0  0  0  0  0  0
  144.6076  133.2974  150.2027 C   0  0  0  0  0  0  0  0  0  0  0  0
  144.7833  134.6674  150.5546 C   0  0  0  0  0  0  0  0  0  0  0  0
  145.8147  134.6179  151.4522 C   0  0  0  0  0  0  0  0  0  0  0  0
  146.4070  135.6365  152.1308 N   0  0  0  0  0  0  0  0  0  0  0  0
  145.8321  136.5865  152.8886 C   0  0  0  0  0  0  0  0  0  0  0  0
  144.6243  136.6989  153.0997 O   0  0  0  0  0  0  0  0  0  0  0  0
  146.7504  137.4169  153.4048 N   0  0  0  0  0  0  0  0  0  0  0  0
  146.4652  138.5706  154.2545 C   0  0  0  0  0  0  0  0  0  0  0  0
  147.3058  139.8139  153.8794 C   0  0  2  0  0  0  0  0  0  0  0  0
  147.3897  140.0692  152.3580 C   0  0  0  0  0  0  0  0  0  0  0  0
  148.6493  139.7475  154.5265 N   0  3  1  0  0  0  0  0  0  0  0  0
  149.5346  138.6519  154.0443 C   0  0  0  0  0  0  0  0  0  0  0  0
  150.7707  138.5156  154.9462 C   0  0  0  0  0  0  0  0  0  0  0  0
  151.5363  139.8442  155.0307 C   0  0  0  0  0  0  0  0  0  0  0  0
  150.6111  140.9992  155.4590 C   0  0  2  0  0  0  0  0  0  0  0  0
  150.2492  140.9483  156.9539 C   0  0  0  0  0  0  0  0  0  0  0  0
  149.3589  141.0554  154.5585 C   0  0  0  0  0  0  0  0  0  0  0  0
  146.2057  133.3066  151.6088 N   0  0  0  0  0  0  0  0  0  0  0  0
  147.2469  132.7482  152.4491 C   0  0  0  0  0  0  0  0  0  0  0  0
  145.4555  132.4934  150.8344 N   0  0  0  0  0  0  0  0  0  0  0  0
  143.0398  133.4884  148.7440 H   0  0  0  0  0  0  0  0  0  0  0  0
  142.9067  132.0602  149.7650 H   0  0  0  0  0  0  0  0  0  0  0  0
  144.1096  132.1158  148.4776 H   0  0  0  0  0  0  0  0  0  0  0  0
  144.2323  135.5243  150.1975 H   0  0  0  0  0  0  0  0  0  0  0  0
  147.4111  135.6852  152.0403 H   0  0  0  0  0  0  0  0  0  0  0  0
  147.7203  137.2479  153.1796 H   0  0  0  0  0  0  0  0  0  0  0  0
  145.4054  138.8021  154.1425 H   0  0  0  0  0  0  0  0  0  0  0  0
  146.6019  138.3035  155.3029 H   0  0  0  0  0  0  0  0  0  0  0  0
  146.7842  140.6668  154.3163 H   0  0  0  0  0  0  0  0  0  0  0  0
  146.4086  140.2962  151.9415 H   0  0  0  0  0  0  0  0  0  0  0  0
  147.7751  139.2010  151.8230 H   0  0  0  0  0  0  0  0  0  0  0  0
  148.0311  140.9189  152.1256 H   0  0  0  0  0  0  0  0  0  0  0  0
  149.0000  137.7031  154.0307 H   0  0  0  0  0  0  0  0  0  0  0  0
  149.8524  138.8511  153.0200 H   0  0  0  0  0  0  0  0  0  0  0  0
  150.4672  138.1939  155.9428 H   0  0  0  0  0  0  0  0  0  0  0  0
  151.4271  137.7349  154.5606 H   0  0  0  0  0  0  0  0  0  0  0  0
  152.3800  139.7534  155.7155 H   0  0  0  0  0  0  0  0  0  0  0  0
  151.9620  140.0708  154.0520 H   0  0  0  0  0  0  0  0  0  0  0  0
  151.1628  141.9281  155.3094 H   0  0  0  0  0  0  0  0  0  0  0  0
  149.6633  140.0633  157.2023 H   0  0  0  0  0  0  0  0  0  0  0  0
  149.6641  141.8216  157.2438 H   0  0  0  0  0  0  0  0  0  0  0  0
  151.1461  140.9366  157.5737 H   0  0  0  0  0  0  0  0  0  0  0  0
  149.6488  141.3348  153.5448 H   0  0  0  0  0  0  0  0  0  0  0  0
  148.6908  141.8393  154.9180 H   0  0  0  0  0  0  0  0  0  0  0  0
  148.1592  133.3368  152.3472 H   0  0  0  0  0  0  0  0  0  0  0  0
  147.4604  131.7181  152.1603 H   0  0  0  0  0  0  0  0  0  0  0  0
  146.9244  132.7661  153.4903 H   0  0  0  0  0  0  0  0  0  0  0  0
  148.4576  139.5366  155.4955 H   0  0  0  0  0  0  0  0  0  0  0  0
  1  2  1  0  0  0  0
  1 22  1  0  0  0  0
  1 23  1  0  0  0  0
  1 24  1  0  0  0  0
  2 21  2  0  0  0  0
  2  3  1  0  0  0  0
  3  4  2  0  0  0  0
  3 25  1  0  0  0  0
  4  5  1  0  0  0  0
  4 19  1  0  0  0  0
  5  6  1  0  0  0  0
  5 26  1  0  0  0  0
  6  7  2  0  0  0  0
  6  8  1  0  0  0  0
  8  9  1  0  0  0  0
  8 27  1  0  0  0  0
  9 10  1  0  0  0  0
  9 28  1  0  0  0  0
  9 29  1  0  0  0  0
 10 11  1  0  0  0  0
 10 12  1  0  0  0  0
 10 30  1  0  0  0  0
 11 31  1  0  0  0  0
 11 32  1  0  0  0  0
 11 33  1  0  0  0  0
 12 18  1  0  0  0  0
 12 13  1  0  0  0  0
 12 49  1  0  0  0  0
 13 14  1  0  0  0  0
 13 34  1  0  0  0  0
 13 35  1  0  0  0  0
 14 15  1  0  0  0  0
 14 36  1  0  0  0  0
 14 37  1  0  0  0  0
 15 16  1  0  0  0  0
 15 38  1  0  0  0  0
 15 39  1  0  0  0  0
 16 17  1  0  0  0  0
 16 18  1  0  0  0  0
 16 40  1  0  0  0  0
 17 41  1  0  0  0  0
 17 42  1  0  0  0  0
 17 43  1  0  0  0  0
 18 44  1  0  0  0  0
 18 45  1  0  0  0  0
 19 20  1  0  0  0  0
 19 21  1  0  0  0  0
 20 46  1  0  0  0  0
 20 47  1  0  0  0  0
 20 48  1  0  0  0  0
M  CHG  1  12   1
M  END
> <s_m_source_file>
AV-unprocessed.smi

> <i_m_source_file_index>
1205

> <i_lp_mmshare_version>
43012

> <i_f3d_flags>
0

> <s_epik_input>
W0NIM11jMVtjSF1jKG4objEpW0NIM10pW05IXUMoPU8pW05IXVtDSDJdW0NASF0oW0NIM10pTjJbQ0gyXVtDSDJdW0NIMl1bQ0BASF0oW0NIM10pW0NIMl0y

> <s_epik_cmdline>
J2VwaWtfcHl0aG9uJywgJy1waCcsICc3LjAnLCAnLXRuJywgJzgnLCAnLW1hJywgJzIwMCcsICctbWV0YWxfYmluZGluZycsICctaW1hZScsICc8aW5maWxlLm1hZT4nLCAnLW9tYWUnLCAnPG91dGZpbGUubWFlPic=

> <r_lp_tautomer_probability>
1

> <r_epik_Ionization_Penalty>
0.0020309

> <r_epik_Ionization_Penalty_Charging>
0.00195276

> <r_epik_Ionization_Penalty_Neutral>
7.81448e-05

> <r_epik_State_Penalty>
0.00133177

> <r_epik_Charging_Adjusted_Penalty>
0.00328452

> <i_epik_Tot_Q>
1

> <i_epik_Tot_abs_Q>
1

> <r_epik_Metal_State_Penalty>
-0

> <b_epik_Metal_Only>
0

> <s_lp_Force_Field>
OPLS_2005

> <r_lp_Energy>
25.0457

> <b_lp_Chiralities_Consistent>
1

> <s_lp_Variant>
AV-unprocessed.smi:1205-5

> <Gold.Version>
5.8.1

> <Gold.Id.Protein>
6NUR|6NUR_protein|mol2

> <Gold.PLP.Fitness>
38.4367

> <Gold.PLP.PLP>
-34.8526

> <Gold.PLP.part.hbond>
-2.0000

> <Gold.PLP.part.metal>
0.0000

> <Gold.PLP.part.buried>
3.5504

> <Gold.PLP.part.nonpolar>
-35.0177

> <Gold.PLP.part.repulsive>
0.3520

> <Gold.PLP.ligand.clash>
0.0000

> <Gold.PLP.ligand.torsion>
0.8826

> <Gold.PLP.Chemscore.Hbond>
1.7301

> <Gold.PLP.Chemscore.CHOScore>
0.0000

> <Gold.PLP.Chemscore.Metal>
0.0000

> <Gold.Chemscore.Hbonds>
donor molecule, donor type, donor heavy atom, donor atom, acceptor molecule, acceptor atom, score
      L1  H     5    26       P1  7948  1.00
      L1  H     8    27       P1  7948  0.79

> <Gold.PLP.Chemscore.Internal.Correction>
0.1590

> <Gold.Rescore>
     Score         DG    S(hbond)    S(metal)    S(lipo)     H(rot)  DE(clash)    DE(int)     intcor
     14.06     -18.01       1.71        0.00      90.26       1.47       3.20       0.75       ----

> <Gold.Chemscore.Fitness>
14.0623

> <Gold.Chemscore.DG>
-18.0138

> <Gold.Chemscore.ZeroCoef>
-5.4800

> <Gold.Chemscore.Hbond>
1.7144

> <Gold.Chemscore.Metal>
0.0000

> <Gold.Chemscore.Lipo>
90.2595

> <Gold.Chemscore.Internal_Hbond>
0.0000

> <Gold.Chemscore.DEClash>
3.2009

> <Gold.Chemscore.DEInternal>
0.7505

> <Gold.Chemscore.Rot>
1.4658

> <Gold.Chemscore.Internal.Correction>
   9.000000E+99

> <Gold.Chemscore.Hbonds>
donor molecule, donor type, donor heavy atom, donor atom, acceptor molecule, acceptor atom, score
      L1  H     5    26       P1  7948  0.99
      L1  H     8    27       P1  7948  0.74

> <Gold.Chemscore.Hbond.Weighted>
-5.7260

> <Gold.Chemscore.Metal.Weighted>
-0.0000

> <Gold.Chemscore.Lipo.Weighted>
-10.5604

> <Gold.Chemscore.Internal_Hbond.Weighted>
0.0000

> <Gold.Chemscore.DEClash.Weighted>
3.2009

> <Gold.Chemscore.DEInternal.Weighted>
0.7505

> <Gold.Chemscore.Rot.Weighted>
3.7526

> <Gold.Chemscore.Internal.Correction.Weighted>
   9.000000E+99

> <Gold.Protein.RotatedTorsions>
[ 6907 6896 6895 6894 ] final  -91.33 input  -60.11 | X-H torsion
[ 7974 7965 7964 7962 ] final  152.20 input  175.53 | X-H torsion
[ 8008 7997 7996 7995 ] final -147.43 input   59.86 | X-H torsion
[ 10167 10162 10161 10158 ] final  111.69 input  -65.29 | X-H torsion
[ 10718 10713 10712 10709 ] final  -12.30 input   66.30 | X-H torsion
[ 10763 10752 10751 10750 ] final  124.04 input  -60.55 | X-H torsion
[ 11005 11000 10999 10996 ] final   29.16 input  -57.11 | X-H torsion

> <Gold.Protein.ActiveResidues>
 VAL166  LYS551  ARG553  GLY616  TRP617  ASP618  TYR619  PRO620  LYS621  CYS622 
 ASP623  PHE694  ASN695  SER759  ASP760  ASP761  ALA762  ILE779  LEU786  VAL792 
 PHE793  MET794  SER795  GLU796  ALA797  LYS798  CYS799  TRP800  GLU811  SER814 

> <Gold.Protein.RotatedAtoms>
  150.6891  134.2294  159.4428 H   0  0  0  0  0  0  0  0  0  0  0  0  # atno 6907 bound_to 6896
  152.0246  134.9801  160.0580 H   0  0  0  0  0  0  0  0  0  0  0  0  # atno 6908 bound_to 6896
  152.1364  133.4403  159.4782 H   0  0  0  0  0  0  0  0  0  0  0  0  # atno 6909 bound_to 6896
  144.8239  139.6637  143.6088 H   0  0  0  0  0  0  0  0  0  0  0  0  # atno 7974 bound_to 7965
  155.5754  140.0638  157.2796 H   0  0  0  0  0  0  0  0  0  0  0  0  # atno 8008 bound_to 7997
  154.4348  140.1861  156.0968 H   0  0  0  0  0  0  0  0  0  0  0  0  # atno 8009 bound_to 7997
  156.0345  140.3302  155.7179 H   0  0  0  0  0  0  0  0  0  0  0  0  # atno 8010 bound_to 7997
  139.6592  144.7129  151.1898 H   0  0  0  0  0  0  0  0  0  0  0  0  # atno 10167 bound_to 10162
  156.6466  130.4943  149.6076 H   0  0  0  0  0  0  0  0  0  0  0  0  # atno 10718 bound_to 10713
  153.6550  135.3356  155.3111 H   0  0  0  0  0  0  0  0  0  0  0  0  # atno 10763 bound_to 10752
  154.8528  135.4350  154.1864 H   0  0  0  0  0  0  0  0  0  0  0  0  # atno 10764 bound_to 10752
  153.2816  135.7009  153.7455 H   0  0  0  0  0  0  0  0  0  0  0  0  # atno 10765 bound_to 10752
  140.3079  134.2682  155.7740 H   0  0  0  0  0  0  0  0  0  0  0  0  # atno 11005 bound_to 11000
  146.2544  139.6270  142.9405 LP  0  0  0  0  0  0  0  0  0  0  0  0  # atno 17320 bound_to 7965
  145.5044  141.0437  143.2523 LP  0  0  0  0  0  0  0  0  0  0  0  0  # atno 17321 bound_to 7965
  140.7572  143.6022  150.8688 LP  0  0  0  0  0  0  0  0  0  0  0  0  # atno 17342 bound_to 10162
  139.9678  143.6091  152.2983 LP  0  0  0  0  0  0  0  0  0  0  0  0  # atno 17343 bound_to 10162
  156.2117  130.6683  151.1276 LP  0  0  0  0  0  0  0  0  0  0  0  0  # atno 17370 bound_to 10713
  157.7154  131.0712  150.6345 LP  0  0  0  0  0  0  0  0  0  0  0  0  # atno 17371 bound_to 10713
  141.2114  133.7689  156.9864 LP  0  0  0  0  0  0  0  0  0  0  0  0  # atno 17394 bound_to 11000
  140.1050  134.9512  157.1981 LP  0  0  0  0  0  0  0  0  0  0  0  0  # atno 17395 bound_to 11000

$$$$
