AV-unprocessed.smi:561|AV-procd|sdf|2936|dock8
  -GOLD-   2262023433D 1   1.00000     0.00000
 Structure written by MMmdl.
 37 38  0  0  0  0  0  0  0  0  2 V2000
  146.2084  138.1958  151.9986 C   0  0  0  0  0  0  0  0  0  0  0  0
  145.3696  136.9323  152.2303 C   0  0  2  0  0  0  0  0  0  0  0  0
  145.3951  136.0071  150.9951 C   0  0  0  0  0  0  0  0  0  0  0  0
  144.8178  134.6848  151.2576 N   0  0  0  0  0  0  0  0  0  0  0  0
  144.7090  133.6363  150.3802 C   0  0  0  0  0  0  0  0  0  0  0  0
  144.0970  132.6174  151.0634 C   0  0  0  0  0  0  0  0  0  0  0  0
  143.8621  133.0850  152.3286 N   0  3  0  0  0  0  0  0  0  0  0  0
  144.3049  134.3410  152.4460 C   0  0  0  0  0  0  0  0  0  0  0  0
  144.0000  137.3245  152.5599 N   0  0  0  0  0  0  0  0  0  0  0  0
  143.3043  136.9245  153.6411 C   0  0  0  0  0  0  0  0  0  0  0  0
  143.7624  136.1620  154.4925 O   0  0  0  0  0  0  0  0  0  0  0  0
  141.9214  137.4549  153.7546 C   0  0  0  0  0  0  0  0  0  0  0  0
  141.7259  138.6826  154.1207 N   0  0  0  0  0  0  0  0  0  0  0  0
  140.4605  139.2233  154.2284 N   0  0  0  0  0  0  0  0  0  0  0  0
  140.4553  140.6799  154.3621 C   0  0  0  0  0  0  0  0  0  0  0  0
  139.3134  138.4956  154.2425 C   0  0  0  0  0  0  0  0  0  0  0  0
  138.1867  138.9827  154.3320 O   0  0  0  0  0  0  0  0  0  0  0  0
  139.4711  136.9735  154.1685 C   0  0  0  0  0  0  0  0  0  0  0  0
  140.7503  136.5554  153.4177 C   0  0  0  0  0  0  0  0  0  0  0  0
  147.2465  137.9424  151.7809 H   0  0  0  0  0  0  0  0  0  0  0  0
  146.2057  138.8369  152.8810 H   0  0  0  0  0  0  0  0  0  0  0  0
  145.8262  138.7798  151.1606 H   0  0  0  0  0  0  0  0  0  0  0  0
  145.8161  136.4034  153.0742 H   0  0  0  0  0  0  0  0  0  0  0  0
  144.8499  136.4559  150.1634 H   0  0  0  0  0  0  0  0  0  0  0  0
  146.4203  135.8539  150.6546 H   0  0  0  0  0  0  0  0  0  0  0  0
  145.0600  133.6945  149.3599 H   0  0  0  0  0  0  0  0  0  0  0  0
  143.8179  131.6214  150.7520 H   0  0  0  0  0  0  0  0  0  0  0  0
  144.2502  134.9590  153.3246 H   0  0  0  0  0  0  0  0  0  0  0  0
  143.5417  137.9545  151.9170 H   0  0  0  0  0  0  0  0  0  0  0  0
  139.4571  141.1143  154.4299 H   0  0  0  0  0  0  0  0  0  0  0  0
  140.9492  141.1356  153.5029 H   0  0  0  0  0  0  0  0  0  0  0  0
  141.0018  140.9758  155.2582 H   0  0  0  0  0  0  0  0  0  0  0  0
  139.5057  136.5973  155.1916 H   0  0  0  0  0  0  0  0  0  0  0  0
  138.5935  136.5275  153.6994 H   0  0  0  0  0  0  0  0  0  0  0  0
  140.5757  136.5783  152.3414 H   0  0  0  0  0  0  0  0  0  0  0  0
  140.9779  135.5192  153.6712 H   0  0  0  0  0  0  0  0  0  0  0  0
  143.4168  132.5588  153.0700 H   0  0  0  0  0  0  0  0  0  0  0  0
  1  2  1  0  0  0  0
  1 20  1  0  0  0  0
  1 21  1  0  0  0  0
  1 22  1  0  0  0  0
  2  3  1  0  0  0  0
  2  9  1  0  0  0  0
  2 23  1  0  0  0  0
  3  4  1  0  0  0  0
  3 24  1  0  0  0  0
  3 25  1  0  0  0  0
  4  8  1  0  0  0  0
  4  5  1  0  0  0  0
  5  6  2  0  0  0  0
  5 26  1  0  0  0  0
  6  7  1  0  0  0  0
  6 27  1  0  0  0  0
  7  8  2  0  0  0  0
  7 37  1  0  0  0  0
  8 28  1  0  0  0  0
  9 10  1  0  0  0  0
  9 29  1  0  0  0  0
 10 11  2  0  0  0  0
 10 12  1  0  0  0  0
 12 19  1  0  0  0  0
 12 13  2  0  0  0  0
 13 14  1  0  0  0  0
 14 15  1  0  0  0  0
 14 16  1  0  0  0  0
 15 30  1  0  0  0  0
 15 31  1  0  0  0  0
 15 32  1  0  0  0  0
 16 17  2  0  0  0  0
 16 18  1  0  0  0  0
 18 19  1  0  0  0  0
 18 33  1  0  0  0  0
 18 34  1  0  0  0  0
 19 35  1  0  0  0  0
 19 36  1  0  0  0  0
M  CHG  1   7   1
M  END
> <s_m_source_file>
AV-unprocessed.smi

> <i_m_source_file_index>
561

> <i_lp_mmshare_version>
43012

> <i_f3d_flags>
0

> <s_epik_input>
W2NIXTFuW2NIXVtjSF1uMVtDSDJdW0NAQEhdKFtDSDNdKVtOSF1DKD1PKUMyPU5OKFtDSDNdKUMoPU8pW0NIMl1bQ0gyXTI=

> <s_epik_cmdline>
J2VwaWtfcHl0aG9uJywgJy1waCcsICc3LjAnLCAnLXRuJywgJzgnLCAnLW1hJywgJzIwMCcsICctbWV0YWxfYmluZGluZycsICctaW1hZScsICc8aW5maWxlLm1hZT4nLCAnLW9tYWUnLCAnPG91dGZpbGUubWFlPic=

> <r_lp_tautomer_probability>
1

> <r_epik_Ionization_Penalty>
0.358595

> <r_epik_Ionization_Penalty_Charging>
0

> <r_epik_Ionization_Penalty_Neutral>
0.358595

> <r_epik_State_Penalty>
0.355181

> <r_epik_Charging_Adjusted_Penalty>
0.355181

> <i_epik_Tot_Q>
1

> <i_epik_Tot_abs_Q>
1

> <r_epik_Metal_State_Penalty>
0.718565

> <b_epik_Metal_Only>
0

> <s_epik_Chemistry_Notes>
This compound has an imine and may undergo hydrolysis.

> <s_lp_Force_Field>
OPLS_2005

> <r_lp_Energy>
20.1569

> <b_lp_Chiralities_Consistent>
1

> <s_lp_Variant>
AV-unprocessed.smi:561-1

> <Gold.Version>
5.8.1

> <Gold.Id.Protein>
6NUR|6NUR_protein|mol2

> <Gold.PLP.Fitness>
39.9066

> <Gold.PLP.PLP>
-31.9012

> <Gold.PLP.part.hbond>
-3.0000

> <Gold.PLP.part.metal>
0.0000

> <Gold.PLP.part.buried>
-3.4944

> <Gold.PLP.part.nonpolar>
-26.8745

> <Gold.PLP.part.repulsive>
2.1187

> <Gold.PLP.ligand.clash>
0.0000

> <Gold.PLP.ligand.torsion>
1.5274

> <Gold.PLP.Chemscore.Hbond>
2.6843

> <Gold.PLP.Chemscore.CHOScore>
1.0000

> <Gold.PLP.Chemscore.Metal>
0.0000

> <Gold.Chemscore.Hbonds>
donor molecule, donor type, donor heavy atom, donor atom, acceptor molecule, acceptor atom, score
      L1  H     7    37       P1 10957  1.70
      L1  H     9    29       P1 10171  0.41
      L1  C     5    26       P1  7921  1.00

> <Gold.PLP.Chemscore.Internal.Correction>
0.0072

> <Gold.Rescore>
     Score         DG    S(hbond)    S(metal)    S(lipo)     H(rot)  DE(clash)    DE(int)     intcor
      8.08     -12.55       1.50        0.00      56.06       1.76       1.28       3.19       ----

> <Gold.Chemscore.Fitness>
8.0823

> <Gold.Chemscore.DG>
-12.5529

> <Gold.Chemscore.ZeroCoef>
-5.4800

> <Gold.Chemscore.Hbond>
1.5021

> <Gold.Chemscore.Metal>
0.0000

> <Gold.Chemscore.Lipo>
56.0560

> <Gold.Chemscore.Internal_Hbond>
0.0000

> <Gold.Chemscore.DEClash>
1.2796

> <Gold.Chemscore.DEInternal>
3.1910

> <Gold.Chemscore.Rot>
1.7589

> <Gold.Chemscore.Internal.Correction>
   9.000000E+99

> <Gold.Chemscore.Hbonds>
donor molecule, donor type, donor heavy atom, donor atom, acceptor molecule, acceptor atom, score
      L1  H     7    37       P1 10957  0.14
      L1  H     9    29       P1 10171  0.38

> <Gold.Chemscore.Hbond.Weighted>
-5.0172

> <Gold.Chemscore.Metal.Weighted>
-0.0000

> <Gold.Chemscore.Lipo.Weighted>
-6.5586

> <Gold.Chemscore.Internal_Hbond.Weighted>
0.0000

> <Gold.Chemscore.DEClash.Weighted>
1.2796

> <Gold.Chemscore.DEInternal.Weighted>
3.1910

> <Gold.Chemscore.Rot.Weighted>
4.5028

> <Gold.Chemscore.Internal.Correction.Weighted>
   9.000000E+99

> <Gold.Protein.RotatedTorsions>
[ 6907 6896 6895 6894 ] final   90.74 input  -60.11 | X-H torsion
[ 7974 7965 7964 7962 ] final  131.47 input  175.53 | X-H torsion
[ 8008 7997 7996 7995 ] final  -47.73 input   59.86 | X-H torsion
[ 10167 10162 10161 10158 ] final -137.33 input  -65.29 | X-H torsion
[ 10718 10713 10712 10709 ] final  -37.20 input   66.30 | X-H torsion
[ 10763 10752 10751 10750 ] final -173.57 input  -60.55 | X-H torsion
[ 11005 11000 10999 10996 ] final   11.47 input  -57.11 | X-H torsion

> <Gold.Protein.ActiveResidues>
 VAL166  LYS551  ARG553  GLY616  TRP617  ASP618  TYR619  PRO620  LYS621  CYS622 
 ASP623  PHE694  ASN695  SER759  ASP760  ASP761  ALA762  ILE779  LEU786  VAL792 
 PHE793  MET794  SER795  GLU796  ALA797  LYS798  CYS799  TRP800  GLU811  SER814 

> <Gold.Protein.RotatedAtoms>
  152.5446  134.1765  159.8617 H   0  0  0  0  0  0  0  0  0  0  0  0  # atno 6907 bound_to 6896
  151.1770  133.4741  159.2601 H   0  0  0  0  0  0  0  0  0  0  0  0  # atno 6908 bound_to 6896
  151.1216  135.0094  159.8596 H   0  0  0  0  0  0  0  0  0  0  0  0  # atno 6909 bound_to 6896
  145.0069  139.4257  143.5264 H   0  0  0  0  0  0  0  0  0  0  0  0  # atno 7974 bound_to 7965
  154.4020  140.1339  156.4223 H   0  0  0  0  0  0  0  0  0  0  0  0  # atno 8008 bound_to 7997
  155.7631  140.3485  155.5188 H   0  0  0  0  0  0  0  0  0  0  0  0  # atno 8009 bound_to 7997
  155.8840  140.0992  157.1456 H   0  0  0  0  0  0  0  0  0  0  0  0  # atno 8010 bound_to 7997
  139.8588  143.7103  152.2652 H   0  0  0  0  0  0  0  0  0  0  0  0  # atno 10167 bound_to 10162
  156.3180  130.4261  149.7987 H   0  0  0  0  0  0  0  0  0  0  0  0  # atno 10718 bound_to 10713
  154.6063  135.2860  155.0481 H   0  0  0  0  0  0  0  0  0  0  0  0  # atno 10763 bound_to 10752
  154.1727  135.6470  153.5017 H   0  0  0  0  0  0  0  0  0  0  0  0  # atno 10764 bound_to 10752
  153.0177  135.5405  154.6800 H   0  0  0  0  0  0  0  0  0  0  0  0  # atno 10765 bound_to 10752
  140.5028  134.0728  155.7798 H   0  0  0  0  0  0  0  0  0  0  0  0  # atno 11005 bound_to 11000
  146.3463  139.9491  142.8731 LP  0  0  0  0  0  0  0  0  0  0  0  0  # atno 17320 bound_to 7965
  145.2076  140.9881  143.4119 LP  0  0  0  0  0  0  0  0  0  0  0  0  # atno 17321 bound_to 7965
  139.7393  144.7563  151.0677 LP  0  0  0  0  0  0  0  0  0  0  0  0  # atno 17342 bound_to 10162
  140.7778  143.4991  150.9794 LP  0  0  0  0  0  0  0  0  0  0  0  0  # atno 17343 bound_to 10162
  156.5306  130.8256  151.3236 LP  0  0  0  0  0  0  0  0  0  0  0  0  # atno 17370 bound_to 10713
  157.7405  130.9853  150.2386 LP  0  0  0  0  0  0  0  0  0  0  0  0  # atno 17371 bound_to 10713
  141.1426  133.9111  157.2290 LP  0  0  0  0  0  0  0  0  0  0  0  0  # atno 17394 bound_to 11000
  139.9703  135.0130  156.9495 LP  0  0  0  0  0  0  0  0  0  0  0  0  # atno 17395 bound_to 11000

$$$$
