AV-unprocessed.smi:1419|AV-procd|sdf|5783|dock9
  -GOLD-   22720 5433D 1   1.00000     0.00000
 Structure written by MMmdl.
 41 42  0  0  0  0  0  0  0  0  1 V2000
  150.2614  141.6491  158.0367 C   0  0  0  0  0  0  0  0  0  0  0  0
  151.7584  141.7153  157.6927 C   0  0  1  0  0  0  0  0  0  0  0  0
  152.6640  141.8090  158.9399 C   0  0  0  0  0  0  0  0  0  0  0  0
  152.4440  143.0232  159.7021 N   0  0  0  0  0  0  0  0  0  0  0  0
  152.0762  144.2695  159.2118 C   0  0  0  0  0  0  0  0  0  0  0  0
  151.9856  145.1083  160.2996 C   0  0  0  0  0  0  0  0  0  0  0  0
  152.2865  144.4026  161.4622 N   0  0  0  0  0  0  0  0  0  0  0  0
  152.5453  143.1751  161.0296 C   0  0  0  0  0  0  0  0  0  0  0  0
  152.1178  140.5429  156.9014 N   0  0  0  0  0  0  0  0  0  0  0  0
  151.6117  140.2230  155.6981 C   0  0  0  0  0  0  0  0  0  0  0  0
  150.7454  140.9043  155.1481 O   0  0  0  0  0  0  0  0  0  0  0  0
  152.1247  139.0922  155.1530 N   0  0  0  0  0  0  0  0  0  0  0  0
  151.5701  138.3255  154.0287 C   0  0  0  0  0  0  0  0  0  0  0  0
  150.9941  136.9972  154.5626 C   0  0  2  0  0  0  0  0  0  0  0  0
  149.7092  137.1629  155.3951 C   0  0  0  0  0  0  0  0  0  0  0  0
  152.0043  136.2929  155.2919 O   0  0  0  0  0  0  0  0  0  0  0  0
  152.6423  137.0283  156.3399 C   0  0  1  0  0  0  0  0  0  0  0  0
  153.7308  136.1367  156.9469 C   0  0  0  0  0  0  0  0  0  0  0  0
  153.2176  138.3416  155.7737 C   0  0  0  0  0  0  0  0  0  0  0  0
  149.9282  142.5514  158.5498 H   0  0  0  0  0  0  0  0  0  0  0  0
  150.0403  140.7978  158.6814 H   0  0  0  0  0  0  0  0  0  0  0  0
  149.6563  141.5495  157.1349 H   0  0  0  0  0  0  0  0  0  0  0  0
  151.9128  142.6066  157.0815 H   0  0  0  0  0  0  0  0  0  0  0  0
  152.4960  140.9534  159.5958 H   0  0  0  0  0  0  0  0  0  0  0  0
  153.7159  141.7783  158.6524 H   0  0  0  0  0  0  0  0  0  0  0  0
  151.9176  144.4524  158.1591 H   0  0  0  0  0  0  0  0  0  0  0  0
  151.7281  146.1565  160.3347 H   0  0  0  0  0  0  0  0  0  0  0  0
  152.8174  142.3674  161.6933 H   0  0  0  0  0  0  0  0  0  0  0  0
  152.8195  139.9308  157.2914 H   0  0  0  0  0  0  0  0  0  0  0  0
  150.8107  138.8572  153.4553 H   0  0  0  0  0  0  0  0  0  0  0  0
  152.3714  138.1173  153.3180 H   0  0  0  0  0  0  0  0  0  0  0  0
  150.7429  136.3721  153.7055 H   0  0  0  0  0  0  0  0  0  0  0  0
  148.9200  137.6227  154.7999 H   0  0  0  0  0  0  0  0  0  0  0  0
  149.8588  137.7904  156.2732 H   0  0  0  0  0  0  0  0  0  0  0  0
  149.3428  136.1952  155.7379 H   0  0  0  0  0  0  0  0  0  0  0  0
  151.9146  137.2543  157.1199 H   0  0  0  0  0  0  0  0  0  0  0  0
  154.2410  136.6431  157.7665 H   0  0  0  0  0  0  0  0  0  0  0  0
  154.4797  135.8658  156.2021 H   0  0  0  0  0  0  0  0  0  0  0  0
  153.3041  135.2137  157.3406 H   0  0  0  0  0  0  0  0  0  0  0  0
  153.9842  138.1313  155.0262 H   0  0  0  0  0  0  0  0  0  0  0  0
  153.7175  138.9042  156.5636 H   0  0  0  0  0  0  0  0  0  0  0  0
  1  2  1  0  0  0  0
  1 20  1  0  0  0  0
  1 21  1  0  0  0  0
  1 22  1  0  0  0  0
  2  3  1  0  0  0  0
  2  9  1  0  0  0  0
  2 23  1  0  0  0  0
  3  4  1  0  0  0  0
  3 24  1  0  0  0  0
  3 25  1  0  0  0  0
  4  8  1  0  0  0  0
  4  5  1  0  0  0  0
  5  6  2  0  0  0  0
  5 26  1  0  0  0  0
  6  7  1  0  0  0  0
  6 27  1  0  0  0  0
  7  8  2  0  0  0  0
  8 28  1  0  0  0  0
  9 10  1  0  0  0  0
  9 29  1  0  0  0  0
 10 11  2  0  0  0  0
 10 12  1  0  0  0  0
 12 19  1  0  0  0  0
 12 13  1  0  0  0  0
 13 14  1  0  0  0  0
 13 30  1  0  0  0  0
 13 31  1  0  0  0  0
 14 15  1  0  0  0  0
 14 16  1  0  0  0  0
 14 32  1  0  0  0  0
 15 33  1  0  0  0  0
 15 34  1  0  0  0  0
 15 35  1  0  0  0  0
 16 17  1  0  0  0  0
 17 18  1  0  0  0  0
 17 19  1  0  0  0  0
 17 36  1  0  0  0  0
 18 37  1  0  0  0  0
 18 38  1  0  0  0  0
 18 39  1  0  0  0  0
 19 40  1  0  0  0  0
 19 41  1  0  0  0  0
M  END
> <s_m_source_file>
AV-unprocessed.smi

> <i_m_source_file_index>
1419

> <i_lp_mmshare_version>
43012

> <i_f3d_flags>
0

> <s_epik_input>
W2NIXTFuW2NIXVtjSF1uMVtDSDJdW0NAQEhdKFtDSDNdKVtOSF1DKD1PKU4yW0NIMl1bQ0BASF0oW0NIM10pT1tDQEBIXShbQ0gzXSlbQ0gyXTI=

> <s_epik_cmdline>
J2VwaWtfcHl0aG9uJywgJy1waCcsICc3LjAnLCAnLXRuJywgJzgnLCAnLW1hJywgJzIwMCcsICctbWV0YWxfYmluZGluZycsICctaW1hZScsICc8aW5maWxlLm1hZT4nLCAnLW9tYWUnLCAnPG91dGZpbGUubWFlPic=

> <r_lp_tautomer_probability>
1

> <r_epik_Ionization_Penalty>
0.625124

> <r_epik_Ionization_Penalty_Charging>
0.625093

> <r_epik_Ionization_Penalty_Neutral>
3.17415e-05

> <r_epik_State_Penalty>
0.641455

> <r_epik_Charging_Adjusted_Penalty>
1.26655

> <i_epik_Tot_Q>
0

> <i_epik_Tot_abs_Q>
0

> <r_epik_Metal_State_Penalty>
0.307717

> <b_epik_Metal_Only>
0

> <s_lp_Force_Field>
OPLS_2005

> <r_lp_Energy>
30.8813

> <b_lp_Chiralities_Consistent>
1

> <s_lp_Variant>
AV-unprocessed.smi:1419-10

> <Gold.Version>
5.8.1

> <Gold.Id.Protein>
6NUR|6NUR_protein|mol2

> <Gold.PLP.Fitness>
41.6835

> <Gold.PLP.PLP>
-38.6024

> <Gold.PLP.part.hbond>
-2.0000

> <Gold.PLP.part.metal>
0.0000

> <Gold.PLP.part.buried>
-4.2724

> <Gold.PLP.part.nonpolar>
-33.4502

> <Gold.PLP.part.repulsive>
0.9968

> <Gold.PLP.ligand.clash>
1.5558

> <Gold.PLP.ligand.torsion>
0.4540

> <Gold.PLP.Chemscore.Hbond>
1.8320

> <Gold.PLP.Chemscore.CHOScore>
0.0000

> <Gold.PLP.Chemscore.Metal>
0.0000

> <Gold.Chemscore.Hbonds>
donor molecule, donor type, donor heavy atom, donor atom, acceptor molecule, acceptor atom, score
      P1  H  7989  7998       L1    11  0.50
      P1  H 10752 10763       L1    16  0.50

> <Gold.PLP.Chemscore.Internal.Correction>
0.0488

> <Gold.Rescore>
     Score         DG    S(hbond)    S(metal)    S(lipo)     H(rot)  DE(clash)    DE(int)     intcor
     13.32     -14.77       1.11        0.00      82.26       1.58       0.94       0.51       ----

> <Gold.Chemscore.Fitness>
13.3248

> <Gold.Chemscore.DG>
-14.7687

> <Gold.Chemscore.ZeroCoef>
-5.4800

> <Gold.Chemscore.Hbond>
1.1082

> <Gold.Chemscore.Metal>
0.0000

> <Gold.Chemscore.Lipo>
82.2594

> <Gold.Chemscore.Internal_Hbond>
0.0000

> <Gold.Chemscore.DEClash>
0.9351

> <Gold.Chemscore.DEInternal>
0.5088

> <Gold.Chemscore.Rot>
1.5769

> <Gold.Chemscore.Internal.Correction>
   9.000000E+99

> <Gold.Chemscore.Hbonds>
donor molecule, donor type, donor heavy atom, donor atom, acceptor molecule, acceptor atom, score
      P1  H  7989  7998       L1    11  0.04
      P1  H 10752 10763       L1    16  0.20

> <Gold.Chemscore.Hbond.Weighted>
-3.7013

> <Gold.Chemscore.Metal.Weighted>
-0.0000

> <Gold.Chemscore.Lipo.Weighted>
-9.6243

> <Gold.Chemscore.Internal_Hbond.Weighted>
0.0000

> <Gold.Chemscore.DEClash.Weighted>
0.9351

> <Gold.Chemscore.DEInternal.Weighted>
0.5088

> <Gold.Chemscore.Rot.Weighted>
4.0369

> <Gold.Chemscore.Internal.Correction.Weighted>
   9.000000E+99

> <Gold.Protein.RotatedTorsions>
[ 6907 6896 6895 6894 ] final -136.39 input  -60.11 | X-H torsion
[ 7974 7965 7964 7962 ] final  -98.45 input  175.53 | X-H torsion
[ 8008 7997 7996 7995 ] final  -94.58 input   59.86 | X-H torsion
[ 10167 10162 10161 10158 ] final  -86.28 input  -65.29 | X-H torsion
[ 10718 10713 10712 10709 ] final  -51.29 input   66.30 | X-H torsion
[ 10763 10752 10751 10750 ] final   71.69 input  -60.55 | X-H torsion
[ 11005 11000 10999 10996 ] final  -69.51 input  -57.11 | X-H torsion

> <Gold.Protein.ActiveResidues>
 VAL166  LYS551  ARG553  GLY616  TRP617  ASP618  TYR619  PRO620  LYS621  CYS622 
 ASP623  PHE694  ASN695  SER759  ASP760  ASP761  ALA762  ILE779  LEU786  VAL792 
 PHE793  MET794  SER795  GLU796  ALA797  LYS798  CYS799  TRP800  GLU811  SER814 

> <Gold.Protein.RotatedAtoms>
  151.0095  133.5978  159.2684 H   0  0  0  0  0  0  0  0  0  0  0  0  # atno 6907 bound_to 6896
  151.3135  135.0799  159.9290 H   0  0  0  0  0  0  0  0  0  0  0  0  # atno 6908 bound_to 6896
  152.5296  133.9756  159.7836 H   0  0  0  0  0  0  0  0  0  0  0  0  # atno 6909 bound_to 6896
  145.3204  140.9420  143.2718 H   0  0  0  0  0  0  0  0  0  0  0  0  # atno 7974 bound_to 7965
  154.7503  140.0488  157.0887 H   0  0  0  0  0  0  0  0  0  0  0  0  # atno 8008 bound_to 7997
  155.0066  140.3131  155.4827 H   0  0  0  0  0  0  0  0  0  0  0  0  # atno 8009 bound_to 7997
  156.2884  140.2192  156.5178 H   0  0  0  0  0  0  0  0  0  0  0  0  # atno 8010 bound_to 7997
  140.3956  143.2685  151.9208 H   0  0  0  0  0  0  0  0  0  0  0  0  # atno 10167 bound_to 10162
  156.1723  130.4149  149.9629 H   0  0  0  0  0  0  0  0  0  0  0  0  # atno 10718 bound_to 10713
  153.0414  135.5127  154.7632 H   0  0  0  0  0  0  0  0  0  0  0  0  # atno 10763 bound_to 10752
  154.6566  135.2932  154.9922 H   0  0  0  0  0  0  0  0  0  0  0  0  # atno 10764 bound_to 10752
  154.0787  135.6667  153.4887 H   0  0  0  0  0  0  0  0  0  0  0  0  # atno 10765 bound_to 10752
  141.1555  133.6766  156.6611 H   0  0  0  0  0  0  0  0  0  0  0  0  # atno 11005 bound_to 11000
  144.8943  139.4732  143.6663 LP  0  0  0  0  0  0  0  0  0  0  0  0  # atno 17320 bound_to 7965
  146.3084  139.7660  142.9038 LP  0  0  0  0  0  0  0  0  0  0  0  0  # atno 17321 bound_to 7965
  139.4787  144.5684  151.8127 LP  0  0  0  0  0  0  0  0  0  0  0  0  # atno 17342 bound_to 10162
  140.4794  144.1472  150.5930 LP  0  0  0  0  0  0  0  0  0  0  0  0  # atno 17343 bound_to 10162
  156.7425  130.9085  151.3633 LP  0  0  0  0  0  0  0  0  0  0  0  0  # atno 17370 bound_to 10713
  157.6811  130.9141  150.0270 LP  0  0  0  0  0  0  0  0  0  0  0  0  # atno 17371 bound_to 10713
  140.3247  134.7979  157.4280 LP  0  0  0  0  0  0  0  0  0  0  0  0  # atno 17394 bound_to 11000
  140.1067  134.5400  155.8303 LP  0  0  0  0  0  0  0  0  0  0  0  0  # atno 17395 bound_to 11000

$$$$
