AV-unprocessed.smi:1709|AV-procd|sdf|6896|dock5
  -GOLD-   22720 8103D 1   1.00000     0.00000
 Structure written by MMmdl.
 43 45  0  0  0  0  0  0  0  0  2 V2000
  151.0378  137.8280  154.5466 C   0  0  0  0  0  0  0  0  0  0  0  0
  150.2351  139.1012  154.7625 C   0  0  0  0  0  0  0  0  0  0  0  0
  150.8670  140.2207  155.3445 C   0  0  0  0  0  0  0  0  0  0  0  0
  150.1286  141.3989  155.5441 C   0  0  0  0  0  0  0  0  0  0  0  0
  148.7803  141.4074  155.1507 C   0  0  0  0  0  0  0  0  0  0  0  0
  148.1691  140.3422  154.5931 N   0  0  0  0  0  0  0  0  0  0  0  0
  148.8659  139.1938  154.3925 C   0  0  0  0  0  0  0  0  0  0  0  0
  148.3006  138.0188  153.8055 N   0  0  0  0  0  0  0  0  0  0  0  0
  147.0636  137.4818  153.8738 C   0  0  0  0  0  0  0  0  0  0  0  0
  146.1772  138.0138  154.5400 O   0  0  0  0  0  0  0  0  0  0  0  0
  146.8675  136.3457  153.1857 N   0  0  0  0  0  0  0  0  0  0  0  0
  145.6287  135.5768  153.1453 C   0  0  1  0  0  0  0  0  0  0  0  0
  144.3966  136.4461  152.8372 C   0  0  0  0  0  0  0  0  0  0  0  0
  143.5095  135.5866  151.9151 C   0  0  0  0  0  0  0  0  0  0  0  0
  144.1869  134.2789  151.8285 N   0  3  1  0  0  0  0  0  0  0  0  0
  143.9037  133.4510  150.6360 C   0  0  0  0  0  0  0  0  0  0  0  0
  144.6349  132.1001  150.7694 C   0  0  0  0  0  0  0  0  0  0  0  0
  146.1405  132.2890  151.0462 C   0  0  0  0  0  0  0  0  0  0  0  0
  146.3725  133.2344  152.2406 C   0  0  0  0  0  0  0  0  0  0  0  0
  145.6204  134.5553  152.0056 C   0  0  2  0  0  0  0  0  0  0  0  0
  152.0696  137.9478  154.8785 H   0  0  0  0  0  0  0  0  0  0  0  0
  151.0557  137.5612  153.4893 H   0  0  0  0  0  0  0  0  0  0  0  0
  150.5998  137.0010  155.1064 H   0  0  0  0  0  0  0  0  0  0  0  0
  151.9066  140.1807  155.6350 H   0  0  0  0  0  0  0  0  0  0  0  0
  150.5842  142.2723  155.9866 H   0  0  0  0  0  0  0  0  0  0  0  0
  148.1757  142.2921  155.2854 H   0  0  0  0  0  0  0  0  0  0  0  0
  148.9355  137.5152  153.2032 H   0  0  0  0  0  0  0  0  0  0  0  0
  147.6502  135.9795  152.6613 H   0  0  0  0  0  0  0  0  0  0  0  0
  145.4603  135.0659  154.0958 H   0  0  0  0  0  0  0  0  0  0  0  0
  143.8767  136.7276  153.7535 H   0  0  0  0  0  0  0  0  0  0  0  0
  144.6762  137.3679  152.3242 H   0  0  0  0  0  0  0  0  0  0  0  0
  142.4959  135.4725  152.3000 H   0  0  0  0  0  0  0  0  0  0  0  0
  143.4473  136.0431  150.9259 H   0  0  0  0  0  0  0  0  0  0  0  0
  142.8287  133.2903  150.5484 H   0  0  0  0  0  0  0  0  0  0  0  0
  144.2275  133.9736  149.7345 H   0  0  0  0  0  0  0  0  0  0  0  0
  144.1895  131.5287  151.5850 H   0  0  0  0  0  0  0  0  0  0  0  0
  144.4926  131.5068  149.8657 H   0  0  0  0  0  0  0  0  0  0  0  0
  146.6129  131.3241  151.2332 H   0  0  0  0  0  0  0  0  0  0  0  0
  146.6226  132.7014  150.1591 H   0  0  0  0  0  0  0  0  0  0  0  0
  146.0275  132.7631  153.1620 H   0  0  0  0  0  0  0  0  0  0  0  0
  147.4396  133.4202  152.3638 H   0  0  0  0  0  0  0  0  0  0  0  0
  145.9974  135.0305  151.0966 H   0  0  0  0  0  0  0  0  0  0  0  0
  143.8968  133.7509  152.6392 H   0  0  0  0  0  0  0  0  0  0  0  0
  1  2  1  0  0  0  0
  1 21  1  0  0  0  0
  1 22  1  0  0  0  0
  1 23  1  0  0  0  0
  2  7  1  0  0  0  0
  2  3  2  0  0  0  0
  3  4  1  0  0  0  0
  3 24  1  0  0  0  0
  4  5  2  0  0  0  0
  4 25  1  0  0  0  0
  5  6  1  0  0  0  0
  5 26  1  0  0  0  0
  6  7  2  0  0  0  0
  7  8  1  0  0  0  0
  8  9  1  0  0  0  0
  8 27  1  0  0  0  0
  9 10  2  0  0  0  0
  9 11  1  0  0  0  0
 11 12  1  0  0  0  0
 11 28  1  0  0  0  0
 12 20  1  0  0  0  0
 12 13  1  0  0  0  0
 12 29  1  0  0  0  0
 13 14  1  0  0  0  0
 13 30  1  0  0  0  0
 13 31  1  0  0  0  0
 14 15  1  0  0  0  0
 14 32  1  0  0  0  0
 14 33  1  0  0  0  0
 15 20  1  0  0  0  0
 15 16  1  0  0  0  0
 15 43  1  0  0  0  0
 16 17  1  0  0  0  0
 16 34  1  0  0  0  0
 16 35  1  0  0  0  0
 17 18  1  0  0  0  0
 17 36  1  0  0  0  0
 17 37  1  0  0  0  0
 18 19  1  0  0  0  0
 18 38  1  0  0  0  0
 18 39  1  0  0  0  0
 19 20  1  0  0  0  0
 19 40  1  0  0  0  0
 19 41  1  0  0  0  0
 20 42  1  0  0  0  0
M  CHG  1  15   1
M  END
> <s_m_source_file>
AV-unprocessed.smi

> <i_m_source_file_index>
1709

> <i_lp_mmshare_version>
43012

> <i_f3d_flags>
0

> <s_epik_input>
W0NIM11jMVtjSF1bY0hdW2NIXW5jMVtOSF1DKD1PKVtOSF1bQ0BIXShbQ0gyXVtDSDJdMilbQ0BASF0oTjIzKVtDSDJdW0NIMl1bQ0gyXVtDSDJdMw==

> <s_epik_cmdline>
J2VwaWtfcHl0aG9uJywgJy1waCcsICc3LjAnLCAnLXRuJywgJzgnLCAnLW1hJywgJzIwMCcsICctbWV0YWxfYmluZGluZycsICctaW1hZScsICc8aW5maWxlLm1hZT4nLCAnLW9tYWUnLCAnPG91dGZpbGUubWFlPic=

> <r_epik_Ionization_Penalty>
0.00101524

> <r_epik_Ionization_Penalty_Charging>
0.000974069

> <r_epik_Ionization_Penalty_Neutral>
4.11757e-05

> <r_epik_State_Penalty>
0.000633842

> <r_epik_Charging_Adjusted_Penalty>
0.00160791

> <i_epik_Tot_Q>
1

> <i_epik_Tot_abs_Q>
1

> <r_epik_Metal_State_Penalty>
-0

> <b_epik_Metal_Only>
0

> <s_lp_Force_Field>
OPLS_2005

> <r_lp_Energy>
38.4546

> <b_lp_Chiralities_Consistent>
1

> <s_lp_Variant>
AV-unprocessed.smi:1709-6

> <Gold.Version>
5.8.1

> <Gold.Id.Protein>
6NUR|6NUR_protein|mol2

> <Gold.PLP.Fitness>
39.1174

> <Gold.PLP.PLP>
-31.2739

> <Gold.PLP.part.hbond>
-1.7783

> <Gold.PLP.part.metal>
0.0000

> <Gold.PLP.part.buried>
-2.4446

> <Gold.PLP.part.nonpolar>
-28.1173

> <Gold.PLP.part.repulsive>
0.1986

> <Gold.PLP.ligand.clash>
0.0000

> <Gold.PLP.ligand.torsion>
0.3792

> <Gold.PLP.Chemscore.Hbond>
1.8640

> <Gold.PLP.Chemscore.CHOScore>
1.0000

> <Gold.PLP.Chemscore.Metal>
0.0000

> <Gold.Chemscore.Hbonds>
donor molecule, donor type, donor heavy atom, donor atom, acceptor molecule, acceptor atom, score
      L1  H     8    27       P1  7948  0.85
      L1  H    11    28       P1  7948  1.00
      L1  C     5    26       P1  8028  0.98

> <Gold.PLP.Chemscore.Internal.Correction>
0.0100

> <Gold.Rescore>
     Score         DG    S(hbond)    S(metal)    S(lipo)     H(rot)  DE(clash)    DE(int)     intcor
     16.36     -17.97       1.83        0.00      76.41       1.00       0.11       1.49       ----

> <Gold.Chemscore.Fitness>
16.3621

> <Gold.Chemscore.DG>
-17.9701

> <Gold.Chemscore.ZeroCoef>
-5.4800

> <Gold.Chemscore.Hbond>
1.8294

> <Gold.Chemscore.Metal>
0.0000

> <Gold.Chemscore.Lipo>
76.4109

> <Gold.Chemscore.Internal_Hbond>
0.0000

> <Gold.Chemscore.DEClash>
0.1135

> <Gold.Chemscore.DEInternal>
1.4945

> <Gold.Chemscore.Rot>
1.0000

> <Gold.Chemscore.Internal.Correction>
   9.000000E+99

> <Gold.Chemscore.Hbonds>
donor molecule, donor type, donor heavy atom, donor atom, acceptor molecule, acceptor atom, score
      L1  H     8    27       P1  7948  0.85
      L1  H    11    28       P1  7948  0.89

> <Gold.Chemscore.Hbond.Weighted>
-6.1100

> <Gold.Chemscore.Metal.Weighted>
-0.0000

> <Gold.Chemscore.Lipo.Weighted>
-8.9401

> <Gold.Chemscore.Internal_Hbond.Weighted>
0.0000

> <Gold.Chemscore.DEClash.Weighted>
0.1135

> <Gold.Chemscore.DEInternal.Weighted>
1.4945

> <Gold.Chemscore.Rot.Weighted>
2.5600

> <Gold.Chemscore.Internal.Correction.Weighted>
   9.000000E+99

> <Gold.Protein.RotatedTorsions>
[ 6907 6896 6895 6894 ] final  178.99 input  -60.11 | X-H torsion
[ 7974 7965 7964 7962 ] final -141.85 input  175.53 | X-H torsion
[ 8008 7997 7996 7995 ] final  134.46 input   59.86 | X-H torsion
[ 10167 10162 10161 10158 ] final  153.16 input  -65.29 | X-H torsion
[ 10718 10713 10712 10709 ] final  -11.06 input   66.30 | X-H torsion
[ 10763 10752 10751 10750 ] final -109.79 input  -60.55 | X-H torsion
[ 11005 11000 10999 10996 ] final   24.88 input  -57.11 | X-H torsion

> <Gold.Protein.ActiveResidues>
 VAL166  LYS551  ARG553  GLY616  TRP617  ASP618  TYR619  PRO620  LYS621  CYS622 
 ASP623  PHE694  ASN695  SER759  ASP760  ASP761  ALA762  ILE779  LEU786  VAL792 
 PHE793  MET794  SER795  GLU796  ALA797  LYS798  CYS799  TRP800  GLU811  SER814 

> <Gold.Protein.RotatedAtoms>
  151.6790  133.3312  159.3214 H   0  0  0  0  0  0  0  0  0  0  0  0  # atno 6907 bound_to 6896
  150.7832  134.6797  159.6447 H   0  0  0  0  0  0  0  0  0  0  0  0  # atno 6908 bound_to 6896
  152.3895  134.6468  160.0165 H   0  0  0  0  0  0  0  0  0  0  0  0  # atno 6909 bound_to 6896
  144.8488  140.6030  143.5404 H   0  0  0  0  0  0  0  0  0  0  0  0  # atno 7974 bound_to 7965
  156.2999  140.2495  156.3420 H   0  0  0  0  0  0  0  0  0  0  0  0  # atno 8008 bound_to 7997
  154.9046  140.0405  157.1931 H   0  0  0  0  0  0  0  0  0  0  0  0  # atno 8009 bound_to 7997
  154.8466  140.2899  155.5629 H   0  0  0  0  0  0  0  0  0  0  0  0  # atno 8010 bound_to 7997
  139.4828  144.5297  151.7743 H   0  0  0  0  0  0  0  0  0  0  0  0  # atno 10167 bound_to 10162
  156.6645  130.4991  149.6020 H   0  0  0  0  0  0  0  0  0  0  0  0  # atno 10718 bound_to 10713
  154.8213  135.4588  154.0786 H   0  0  0  0  0  0  0  0  0  0  0  0  # atno 10763 bound_to 10752
  153.2138  135.6885  153.8089 H   0  0  0  0  0  0  0  0  0  0  0  0  # atno 10764 bound_to 10752
  153.7530  135.3295  155.3301 H   0  0  0  0  0  0  0  0  0  0  0  0  # atno 10765 bound_to 10752
  140.3538  134.2199  155.7677 H   0  0  0  0  0  0  0  0  0  0  0  0  # atno 11005 bound_to 11000
  145.4542  139.1520  143.3901 LP  0  0  0  0  0  0  0  0  0  0  0  0  # atno 17320 bound_to 7965
  146.2767  140.4670  142.8792 LP  0  0  0  0  0  0  0  0  0  0  0  0  # atno 17321 bound_to 7965
  140.4821  144.1434  150.5934 LP  0  0  0  0  0  0  0  0  0  0  0  0  # atno 17342 bound_to 10162
  140.4266  143.2587  151.9649 LP  0  0  0  0  0  0  0  0  0  0  0  0  # atno 17343 bound_to 10162
  156.1986  130.6605  151.1141 LP  0  0  0  0  0  0  0  0  0  0  0  0  # atno 17370 bound_to 10713
  157.7098  131.0739  150.6540 LP  0  0  0  0  0  0  0  0  0  0  0  0  # atno 17371 bound_to 10713
  141.2004  133.7988  157.0490 LP  0  0  0  0  0  0  0  0  0  0  0  0  # atno 17394 bound_to 11000
  140.0681  134.9717  157.1421 LP  0  0  0  0  0  0  0  0  0  0  0  0  # atno 17395 bound_to 11000

$$$$
