AV-unprocessed.smi:912|AV-procd|sdf|4144|dock5
  -GOLD-   22720 2 53D 1   1.00000     0.00000
 Structure written by MMmdl.
 27 27  0  0  0  0  0  0  0  0  2 V2000
  148.7277  134.7621  154.7147 C   0  0  0  0  0  0  0  0  0  0  0  0
  147.6187  134.8129  153.7633 N   0  0  0  0  0  0  0  0  0  0  0  0
  147.1375  133.5404  153.1915 C   0  0  1  0  0  0  0  0  0  0  0  0
  148.3428  132.9721  152.3961 C   0  0  0  0  0  0  0  0  0  0  0  0
  146.6668  132.5426  154.2855 C   0  0  0  0  0  0  0  0  0  0  0  0
  145.6008  132.8861  155.0173 N   0  0  0  0  0  0  0  0  0  0  0  0
  147.2500  131.4752  154.4680 O   0  0  0  0  0  0  0  0  0  0  0  0
  145.9474  133.7625  152.2340 C   0  0  0  0  0  0  0  0  0  0  0  0
  145.2993  132.6862  151.5718 C   0  0  0  0  0  0  0  0  0  0  0  0
  144.2191  132.9441  150.7035 C   0  0  0  0  0  0  0  0  0  0  0  0
  143.8058  134.2120  150.4995 N   0  3  0  0  0  0  0  0  0  0  0  0
  144.3893  135.2719  151.0963 C   0  0  0  0  0  0  0  0  0  0  0  0
  145.4735  135.0741  151.9743 C   0  0  0  0  0  0  0  0  0  0  0  0
  149.0461  135.7796  154.9407 H   0  0  0  0  0  0  0  0  0  0  0  0
  149.5901  134.2319  154.3115 H   0  0  0  0  0  0  0  0  0  0  0  0
  148.4438  134.3017  155.6607 H   0  0  0  0  0  0  0  0  0  0  0  0
  147.9446  135.3770  152.9913 H   0  0  0  0  0  0  0  0  0  0  0  0
  148.1188  132.0134  151.9283 H   0  0  0  0  0  0  0  0  0  0  0  0
  149.2168  132.8069  153.0265 H   0  0  0  0  0  0  0  0  0  0  0  0
  148.6439  133.6528  151.5987 H   0  0  0  0  0  0  0  0  0  0  0  0
  145.2509  132.2553  155.7238 H   0  0  0  0  0  0  0  0  0  0  0  0
  145.1373  133.7666  154.8452 H   0  0  0  0  0  0  0  0  0  0  0  0
  145.6133  131.6627  151.7114 H   0  0  0  0  0  0  0  0  0  0  0  0
  143.6784  132.1775  150.1679 H   0  0  0  0  0  0  0  0  0  0  0  0
  143.9768  136.2402  150.8531 H   0  0  0  0  0  0  0  0  0  0  0  0
  145.9389  135.9318  152.4369 H   0  0  0  0  0  0  0  0  0  0  0  0
  143.0227  134.3762  149.8661 H   0  0  0  0  0  0  0  0  0  0  0  0
  1  2  1  0  0  0  0
  1 14  1  0  0  0  0
  1 15  1  0  0  0  0
  1 16  1  0  0  0  0
  2  3  1  0  0  0  0
  2 17  1  0  0  0  0
  3  4  1  0  0  0  0
  3  5  1  0  0  0  0
  3  8  1  0  0  0  0
  4 18  1  0  0  0  0
  4 19  1  0  0  0  0
  4 20  1  0  0  0  0
  5  6  1  0  0  0  0
  5  7  2  0  0  0  0
  6 21  1  0  0  0  0
  6 22  1  0  0  0  0
  8 13  1  0  0  0  0
  8  9  2  0  0  0  0
  9 10  1  0  0  0  0
  9 23  1  0  0  0  0
 10 11  2  0  0  0  0
 10 24  1  0  0  0  0
 11 12  1  0  0  0  0
 11 27  1  0  0  0  0
 12 13  2  0  0  0  0
 12 25  1  0  0  0  0
 13 26  1  0  0  0  0
M  CHG  1  11   1
M  END
> <s_m_source_file>
AV-unprocessed.smi

> <i_m_source_file_index>
912

> <i_lp_mmshare_version>
43012

> <i_f3d_flags>
0

> <s_epik_input>
W0NIM11bTkhdW0NAQF0oW0NIM10pKEMoPU8pW05IMl0pYzFbY0hdW2NIXW5bY0hdW2NIXTE=

> <s_epik_cmdline>
J2VwaWtfcHl0aG9uJywgJy1waCcsICc3LjAnLCAnLXRuJywgJzgnLCAnLW1hJywgJzIwMCcsICctbWV0YWxfYmluZGluZycsICctaW1hZScsICc8aW5maWxlLm1hZT4nLCAnLW9tYWUnLCAnPG91dGZpbGUubWFlPic=

> <r_epik_Ionization_Penalty>
0.562542

> <r_epik_Ionization_Penalty_Charging>
0.554844

> <r_epik_Ionization_Penalty_Neutral>
0.00769834

> <r_epik_State_Penalty>
1.39075

> <r_epik_Charging_Adjusted_Penalty>
1.94559

> <i_epik_Tot_Q>
1

> <i_epik_Tot_abs_Q>
1

> <r_epik_Metal_State_Penalty>
1.55563

> <b_epik_Metal_Only>
0

> <s_lp_Force_Field>
OPLS_2005

> <r_lp_Energy>
17.994

> <b_lp_Chiralities_Consistent>
1

> <s_lp_Variant>
AV-unprocessed.smi:912-5

> <Gold.Version>
5.8.1

> <Gold.Id.Protein>
6NUR|6NUR_protein|mol2

> <Gold.PLP.Fitness>
28.3069

> <Gold.PLP.PLP>
-19.4897

> <Gold.PLP.part.hbond>
-2.7160

> <Gold.PLP.part.metal>
0.0000

> <Gold.PLP.part.buried>
-2.0888

> <Gold.PLP.part.nonpolar>
-14.1641

> <Gold.PLP.part.repulsive>
0.0773

> <Gold.PLP.ligand.clash>
0.0000

> <Gold.PLP.ligand.torsion>
0.0831

> <Gold.PLP.Chemscore.Hbond>
2.9840

> <Gold.PLP.Chemscore.CHOScore>
0.0000

> <Gold.PLP.Chemscore.Metal>
0.0000

> <Gold.Chemscore.Hbonds>
donor molecule, donor type, donor heavy atom, donor atom, acceptor molecule, acceptor atom, score
      L1  H     2    17       P1  7948  1.00
      L1  H    11    27       P1 10186  1.97

> <Gold.PLP.Chemscore.Internal.Correction>
0.0313

> <Gold.Rescore>
     Score         DG    S(hbond)    S(metal)    S(lipo)     H(rot)  DE(clash)    DE(int)     intcor
     12.22     -12.25       1.96        0.00      41.84       1.82       0.00       0.03       ----

> <Gold.Chemscore.Fitness>
12.2208

> <Gold.Chemscore.DG>
-12.2511

> <Gold.Chemscore.ZeroCoef>
-5.4800

> <Gold.Chemscore.Hbond>
1.9585

> <Gold.Chemscore.Metal>
0.0000

> <Gold.Chemscore.Lipo>
41.8425

> <Gold.Chemscore.Internal_Hbond>
0.0000

> <Gold.Chemscore.DEClash>
0.0000

> <Gold.Chemscore.DEInternal>
0.0302

> <Gold.Chemscore.Rot>
1.8226

> <Gold.Chemscore.Internal.Correction>
   9.000000E+99

> <Gold.Chemscore.Hbonds>
donor molecule, donor type, donor heavy atom, donor atom, acceptor molecule, acceptor atom, score
      L1  H     2    17       P1  7948  1.00
      L1  H    11    27       P1 10186  0.84

> <Gold.Chemscore.Hbond.Weighted>
-6.5413

> <Gold.Chemscore.Metal.Weighted>
-0.0000

> <Gold.Chemscore.Lipo.Weighted>
-4.8956

> <Gold.Chemscore.Internal_Hbond.Weighted>
0.0000

> <Gold.Chemscore.DEClash.Weighted>
0.0000

> <Gold.Chemscore.DEInternal.Weighted>
0.0302

> <Gold.Chemscore.Rot.Weighted>
4.6659

> <Gold.Chemscore.Internal.Correction.Weighted>
   9.000000E+99

> <Gold.Protein.RotatedTorsions>
[ 6907 6896 6895 6894 ] final   41.24 input  -60.11 | X-H torsion
[ 7974 7965 7964 7962 ] final  162.17 input  175.53 | X-H torsion
[ 8008 7997 7996 7995 ] final  -87.54 input   59.86 | X-H torsion
[ 10167 10162 10161 10158 ] final -131.60 input  -65.29 | X-H torsion
[ 10718 10713 10712 10709 ] final   31.42 input   66.30 | X-H torsion
[ 10763 10752 10751 10750 ] final   62.93 input  -60.55 | X-H torsion
[ 11005 11000 10999 10996 ] final  146.17 input  -57.11 | X-H torsion

> <Gold.Protein.ActiveResidues>
 VAL166  LYS551  ARG553  GLY616  TRP617  ASP618  TYR619  PRO620  LYS621  CYS622 
 ASP623  PHE694  ASN695  SER759  ASP760  ASP761  ALA762  ILE779  LEU786  VAL792 
 PHE793  MET794  SER795  GLU796  ALA797  LYS798  CYS799  TRP800  GLU811  SER814 

> <Gold.Protein.RotatedAtoms>
  152.1927  134.8658  160.0515 H   0  0  0  0  0  0  0  0  0  0  0  0  # atno 6907 bound_to 6896
  151.9540  133.3670  159.4019 H   0  0  0  0  0  0  0  0  0  0  0  0  # atno 6908 bound_to 6896
  150.6938  134.4234  159.5259 H   0  0  0  0  0  0  0  0  0  0  0  0  # atno 6909 bound_to 6896
  144.7649  139.8002  143.6319 H   0  0  0  0  0  0  0  0  0  0  0  0  # atno 7974 bound_to 7965
  154.6645  140.0564  157.0098 H   0  0  0  0  0  0  0  0  0  0  0  0  # atno 8008 bound_to 7997
  155.1180  140.3245  155.4486 H   0  0  0  0  0  0  0  0  0  0  0  0  # atno 8009 bound_to 7997
  156.2632  140.2002  156.6303 H   0  0  0  0  0  0  0  0  0  0  0  0  # atno 8010 bound_to 7997
  139.9172  143.6424  152.2562 H   0  0  0  0  0  0  0  0  0  0  0  0  # atno 10167 bound_to 10162
  157.2722  130.7214  149.6510 H   0  0  0  0  0  0  0  0  0  0  0  0  # atno 10718 bound_to 10713
  153.0000  135.5447  154.6272 H   0  0  0  0  0  0  0  0  0  0  0  0  # atno 10763 bound_to 10752
  154.5558  135.2830  155.0968 H   0  0  0  0  0  0  0  0  0  0  0  0  # atno 10764 bound_to 10752
  154.2190  135.6454  153.5191 H   0  0  0  0  0  0  0  0  0  0  0  0  # atno 10765 bound_to 10752
  140.0771  134.9118  157.1441 H   0  0  0  0  0  0  0  0  0  0  0  0  # atno 11005 bound_to 11000
  146.1748  139.4914  142.9904 LP  0  0  0  0  0  0  0  0  0  0  0  0  # atno 17320 bound_to 7965
  145.6500  141.0265  143.1765 LP  0  0  0  0  0  0  0  0  0  0  0  0  # atno 17321 bound_to 7965
  139.6892  144.7648  151.1469 LP  0  0  0  0  0  0  0  0  0  0  0  0  # atno 17342 bound_to 10162
  140.7671  143.5614  150.9095 LP  0  0  0  0  0  0  0  0  0  0  0  0  # atno 17343 bound_to 10162
  155.9663  130.4364  150.5132 LP  0  0  0  0  0  0  0  0  0  0  0  0  # atno 17370 bound_to 10713
  157.3058  131.0654  151.2036 LP  0  0  0  0  0  0  0  0  0  0  0  0  # atno 17371 bound_to 10713
  140.3542  134.2566  155.7195 LP  0  0  0  0  0  0  0  0  0  0  0  0  # atno 17394 bound_to 11000
  141.2033  133.7915  157.0344 LP  0  0  0  0  0  0  0  0  0  0  0  0  # atno 17395 bound_to 11000

$$$$
