AV-unprocessed.smi:1244|AV-procd|sdf|5235|dock10
  -GOLD-   22720 4343D 1   1.00000     0.00000
 Structure written by MMmdl.
 55 57  0  0  0  0  0  0  0  0  4 V2000
  146.7628  134.3073  153.2943 C   0  0  0  0  0  0  0  0  0  0  0  0
  147.2403  134.2316  154.7554 C   0  0  2  0  0  0  0  0  0  0  0  0
  147.9791  135.4994  155.2272 C   0  0  0  0  0  0  0  0  0  0  0  0
  149.3383  135.5773  154.6396 N   0  3  1  0  0  0  0  0  0  0  0  0
  150.0540  136.8290  155.0038 C   0  0  0  0  0  0  0  0  0  0  0  0
  150.5211  136.8253  156.4737 C   0  0  0  0  0  0  0  0  0  0  0  0
  151.9001  137.3046  156.5603 N   0  5  0  0  0  0  0  0  0  0  0  0
  152.2729  138.5234  157.0347 C   0  0  0  0  0  0  0  0  0  0  0  0
  153.3568  138.8387  157.5385 O   0  0  0  0  0  0  0  0  0  0  0  0
  151.2865  139.4292  156.9177 N   0  0  0  0  0  0  0  0  0  0  0  0
  151.2623  140.7942  157.3215 C   0  0  0  0  0  0  0  0  0  0  0  0
  152.2480  141.3239  158.1930 C   0  0  0  0  0  0  0  0  0  0  0  0
  152.1855  142.6731  158.5885 C   0  0  0  0  0  0  0  0  0  0  0  0
  151.1413  143.4765  158.1005 C   0  0  0  0  0  0  0  0  0  0  0  0
  150.2330  142.9504  157.2532 N   0  3  0  0  0  0  0  0  0  0  0  0
  150.2476  141.6633  156.8238 C   0  0  0  0  0  0  0  0  0  0  0  0
  149.2373  141.2608  155.9197 N   0  0  0  0  0  0  0  0  0  0  0  0
  147.8436  141.2028  156.3451 C   0  0  0  0  0  0  0  0  0  0  0  0
  147.0398  141.0766  155.0537 C   0  0  0  0  0  0  0  0  0  0  0  0
  147.8556  141.9168  154.0758 C   0  0  0  0  0  0  0  0  0  0  0  0
  149.3030  141.6969  154.5283 C   0  0  0  0  0  0  0  0  0  0  0  0
  150.0971  134.3374  154.9457 C   0  0  0  0  0  0  0  0  0  0  0  0
  149.3384  133.1039  154.4268 C   0  0  1  0  0  0  0  0  0  0  0  0
  150.0484  131.7962  154.7941 C   0  0  0  0  0  0  0  0  0  0  0  0
  148.0357  133.0723  155.0044 O   0  0  0  0  0  0  0  0  0  0  0  0
  146.0501  135.1218  153.1632 H   0  0  0  0  0  0  0  0  0  0  0  0
  146.2639  133.3836  153.0007 H   0  0  0  0  0  0  0  0  0  0  0  0
  147.5831  134.4812  152.5983 H   0  0  0  0  0  0  0  0  0  0  0  0
  146.3474  134.1212  155.3714 H   0  0  0  0  0  0  0  0  0  0  0  0
  147.4010  136.3847  154.9588 H   0  0  0  0  0  0  0  0  0  0  0  0
  148.0636  135.4946  156.3152 H   0  0  0  0  0  0  0  0  0  0  0  0
  150.9368  136.9390  154.3716 H   0  0  0  0  0  0  0  0  0  0  0  0
  149.4244  137.6951  154.7934 H   0  0  0  0  0  0  0  0  0  0  0  0
  149.8534  137.4580  157.0581 H   0  0  0  0  0  0  0  0  0  0  0  0
  150.3992  135.8223  156.8853 H   0  0  0  0  0  0  0  0  0  0  0  0
  150.4067  139.0585  156.5906 H   0  0  0  0  0  0  0  0  0  0  0  0
  153.0590  140.7144  158.5616 H   0  0  0  0  0  0  0  0  0  0  0  0
  152.9281  143.0834  159.2570 H   0  0  0  0  0  0  0  0  0  0  0  0
  151.0107  144.5192  158.3510 H   0  0  0  0  0  0  0  0  0  0  0  0
  147.6665  140.3616  157.0162 H   0  0  0  0  0  0  0  0  0  0  0  0
  147.5644  142.1219  156.8620 H   0  0  0  0  0  0  0  0  0  0  0  0
  147.0216  140.0364  154.7251 H   0  0  0  0  0  0  0  0  0  0  0  0
  146.0100  141.4191  155.1579 H   0  0  0  0  0  0  0  0  0  0  0  0
  147.6912  141.6396  153.0341 H   0  0  0  0  0  0  0  0  0  0  0  0
  147.5913  142.9691  154.1890 H   0  0  0  0  0  0  0  0  0  0  0  0
  149.8976  142.6036  154.4076 H   0  0  0  0  0  0  0  0  0  0  0  0
  149.7632  140.9062  153.9344 H   0  0  0  0  0  0  0  0  0  0  0  0
  151.0854  134.3757  154.4865 H   0  0  0  0  0  0  0  0  0  0  0  0
  150.2509  134.2613  156.0235 H   0  0  0  0  0  0  0  0  0  0  0  0
  149.2602  133.1512  153.3405 H   0  0  0  0  0  0  0  0  0  0  0  0
  151.0517  131.7613  154.3690 H   0  0  0  0  0  0  0  0  0  0  0  0
  149.4980  130.9345  154.4157 H   0  0  0  0  0  0  0  0  0  0  0  0
  150.1387  131.6853  155.8750 H   0  0  0  0  0  0  0  0  0  0  0  0
  149.2113  135.6114  153.6379 H   0  0  0  0  0  0  0  0  0  0  0  0
  149.4940  143.5616  156.9066 H   0  0  0  0  0  0  0  0  0  0  0  0
  1  2  1  0  0  0  0
  1 26  1  0  0  0  0
  1 27  1  0  0  0  0
  1 28  1  0  0  0  0
  2 25  1  0  0  0  0
  2  3  1  0  0  0  0
  2 29  1  0  0  0  0
  3  4  1  0  0  0  0
  3 30  1  0  0  0  0
  3 31  1  0  0  0  0
  4  5  1  0  0  0  0
  4 22  1  0  0  0  0
  4 54  1  0  0  0  0
  5  6  1  0  0  0  0
  5 32  1  0  0  0  0
  5 33  1  0  0  0  0
  6  7  1  0  0  0  0
  6 34  1  0  0  0  0
  6 35  1  0  0  0  0
  7  8  1  0  0  0  0
  8  9  2  0  0  0  0
  8 10  1  0  0  0  0
 10 11  1  0  0  0  0
 10 36  1  0  0  0  0
 11 16  1  0  0  0  0
 11 12  2  0  0  0  0
 12 13  1  0  0  0  0
 12 37  1  0  0  0  0
 13 14  2  0  0  0  0
 13 38  1  0  0  0  0
 14 15  1  0  0  0  0
 14 39  1  0  0  0  0
 15 16  2  0  0  0  0
 15 55  1  0  0  0  0
 16 17  1  0  0  0  0
 17 21  1  0  0  0  0
 17 18  1  0  0  0  0
 18 19  1  0  0  0  0
 18 40  1  0  0  0  0
 18 41  1  0  0  0  0
 19 20  1  0  0  0  0
 19 42  1  0  0  0  0
 19 43  1  0  0  0  0
 20 21  1  0  0  0  0
 20 44  1  0  0  0  0
 20 45  1  0  0  0  0
 21 46  1  0  0  0  0
 21 47  1  0  0  0  0
 22 23  1  0  0  0  0
 22 48  1  0  0  0  0
 22 49  1  0  0  0  0
 23 24  1  0  0  0  0
 23 25  1  0  0  0  0
 23 50  1  0  0  0  0
 24 51  1  0  0  0  0
 24 52  1  0  0  0  0
 24 53  1  0  0  0  0
M  CHG  1   4   1
M  CHG  1   7  -1
M  CHG  1  15   1
M  END
> <s_m_source_file>
AV-unprocessed.smi

> <i_m_source_file_index>
1244

> <i_lp_mmshare_version>
43012

> <i_f3d_flags>
0

> <s_epik_input>
W0NIM11bQ0BASF0xW0NIMl1OKFtDSDJdW0NASF0oTzEpW0NIM10pW0NIMl1bQ0gyXVtOSF1DKD1PKVtOSF1jMltjSF1bY0hdW2NIXW5jMk4zW0NIMl1bQ0gyXVtDSDJdW0NIMl0z

> <s_epik_cmdline>
J2VwaWtfcHl0aG9uJywgJy1waCcsICc3LjAnLCAnLXRuJywgJzgnLCAnLW1hJywgJzIwMCcsICctbWV0YWxfYmluZGluZycsICctaW1hZScsICc8aW5maWxlLm1hZT4nLCAnLW9tYWUnLCAnPG91dGZpbGUubWFlPic=

> <r_lp_tautomer_probability>
0.999994

> <r_epik_Ionization_Penalty>
8.60539

> <r_epik_Ionization_Penalty_Charging>
8.60539

> <r_epik_Ionization_Penalty_Neutral>
3.60441e-06

> <r_epik_State_Penalty>
8.59967

> <r_epik_Charging_Adjusted_Penalty>
17.2051

> <i_epik_Tot_Q>
1

> <i_epik_Tot_abs_Q>
3

> <r_epik_Metal_State_Penalty>
4.59489

> <b_epik_Metal_Only>
1

> <s_lp_Force_Field>
OPLS_2005

> <r_lp_Energy>
46.9863

> <b_lp_Chiralities_Consistent>
1

> <s_lp_Variant>
AV-unprocessed.smi:1244-15

> <Gold.Version>
5.8.1

> <Gold.Id.Protein>
6NUR|6NUR_protein|mol2

> <Gold.PLP.Fitness>
47.4404

> <Gold.PLP.PLP>
-33.7472

> <Gold.PLP.part.hbond>
-3.0000

> <Gold.PLP.part.metal>
0.0000

> <Gold.PLP.part.buried>
-3.6009

> <Gold.PLP.part.nonpolar>
-26.7063

> <Gold.PLP.part.repulsive>
0.1884

> <Gold.PLP.ligand.clash>
0.0000

> <Gold.PLP.ligand.torsion>
0.8538

> <Gold.PLP.Chemscore.Hbond>
4.9840

> <Gold.PLP.Chemscore.CHOScore>
0.0000

> <Gold.PLP.Chemscore.Metal>
0.0000

> <Gold.Chemscore.Hbonds>
donor molecule, donor type, donor heavy atom, donor atom, acceptor molecule, acceptor atom, score
      L1  H     4    54       P1  7948  2.00
      L1  H    15    55       P1  8028  2.00
      P1  H  7997  8010       L1     9  1.00

> <Gold.PLP.Chemscore.Internal.Correction>
0.4488

> <Gold.Rescore>
     Score         DG    S(hbond)    S(metal)    S(lipo)     H(rot)  DE(clash)    DE(int)     intcor
     19.20     -21.63       2.94        0.00      89.10       1.60       0.14       2.29       ----

> <Gold.Chemscore.Fitness>
19.2042

> <Gold.Chemscore.DG>
-21.6343

> <Gold.Chemscore.ZeroCoef>
-5.4800

> <Gold.Chemscore.Hbond>
2.9402

> <Gold.Chemscore.Metal>
0.0000

> <Gold.Chemscore.Lipo>
89.0991

> <Gold.Chemscore.Internal_Hbond>
0.0000

> <Gold.Chemscore.DEClash>
0.1361

> <Gold.Chemscore.DEInternal>
2.2941

> <Gold.Chemscore.Rot>
1.5978

> <Gold.Chemscore.Internal.Correction>
   9.000000E+99

> <Gold.Chemscore.Hbonds>
donor molecule, donor type, donor heavy atom, donor atom, acceptor molecule, acceptor atom, score
      L1  H     4    54       P1  7948  0.60
      L1  H    15    55       P1  8028  0.90
      P1  H  7997  8010       L1     9  1.00

> <Gold.Chemscore.Hbond.Weighted>
-9.8202

> <Gold.Chemscore.Metal.Weighted>
-0.0000

> <Gold.Chemscore.Lipo.Weighted>
-10.4246

> <Gold.Chemscore.Internal_Hbond.Weighted>
0.0000

> <Gold.Chemscore.DEClash.Weighted>
0.1361

> <Gold.Chemscore.DEInternal.Weighted>
2.2941

> <Gold.Chemscore.Rot.Weighted>
4.0905

> <Gold.Chemscore.Internal.Correction.Weighted>
   9.000000E+99

> <Gold.Protein.RotatedTorsions>
[ 6907 6896 6895 6894 ] final  -36.12 input  -60.11 | X-H torsion
[ 7974 7965 7964 7962 ] final    9.63 input  175.53 | X-H torsion
[ 8008 7997 7996 7995 ] final   37.81 input   59.86 | X-H torsion
[ 10167 10162 10161 10158 ] final   69.62 input  -65.29 | X-H torsion
[ 10718 10713 10712 10709 ] final  179.19 input   66.30 | X-H torsion
[ 10763 10752 10751 10750 ] final -136.56 input  -60.55 | X-H torsion
[ 11005 11000 10999 10996 ] final  -34.15 input  -57.11 | X-H torsion

> <Gold.Protein.ActiveResidues>
 VAL166  LYS551  ARG553  GLY616  TRP617  ASP618  TYR619  PRO620  LYS621  CYS622 
 ASP623  PHE694  ASN695  SER759  ASP760  ASP761  ALA762  ILE779  LEU786  VAL792 
 PHE793  MET794  SER795  GLU796  ALA797  LYS798  CYS799  TRP800  GLU811  SER814 

> <Gold.Protein.RotatedAtoms>
  151.0312  134.9540  159.8111 H   0  0  0  0  0  0  0  0  0  0  0  0  # atno 6907 bound_to 6896
  152.5346  134.2778  159.9006 H   0  0  0  0  0  0  0  0  0  0  0  0  # atno 6908 bound_to 6896
  151.2787  133.4177  159.2659 H   0  0  0  0  0  0  0  0  0  0  0  0  # atno 6909 bound_to 6896
  146.2400  139.9754  142.8442 H   0  0  0  0  0  0  0  0  0  0  0  0  # atno 7974 bound_to 7965
  155.2098  140.3322  155.4330 H   0  0  0  0  0  0  0  0  0  0  0  0  # atno 8008 bound_to 7997
  156.2375  140.1879  156.7129 H   0  0  0  0  0  0  0  0  0  0  0  0  # atno 8009 bound_to 7997
  154.6085  140.0612  156.9449 H   0  0  0  0  0  0  0  0  0  0  0  0  # atno 8010 bound_to 7997
  140.0658  144.5194  150.7262 H   0  0  0  0  0  0  0  0  0  0  0  0  # atno 10167 bound_to 10162
  156.8794  130.9810  151.3064 H   0  0  0  0  0  0  0  0  0  0  0  0  # atno 10718 bound_to 10713
  154.8681  135.3669  154.5081 H   0  0  0  0  0  0  0  0  0  0  0  0  # atno 10763 bound_to 10752
  153.5717  135.7020  153.5506 H   0  0  0  0  0  0  0  0  0  0  0  0  # atno 10764 bound_to 10752
  153.3536  135.4065  155.1628 H   0  0  0  0  0  0  0  0  0  0  0  0  # atno 10765 bound_to 10752
  140.9692  133.7119  156.1496 H   0  0  0  0  0  0  0  0  0  0  0  0  # atno 11005 bound_to 11000
  145.1642  140.9688  143.4359 LP  0  0  0  0  0  0  0  0  0  0  0  0  # atno 17320 bound_to 7965
  145.0088  139.3529  143.6130 LP  0  0  0  0  0  0  0  0  0  0  0  0  # atno 17321 bound_to 7965
  140.7150  143.2536  151.4463 LP  0  0  0  0  0  0  0  0  0  0  0  0  # atno 17342 bound_to 10162
  139.5866  144.1591  152.2036 LP  0  0  0  0  0  0  0  0  0  0  0  0  # atno 17343 bound_to 10162
  157.6149  130.8611  149.9012 LP  0  0  0  0  0  0  0  0  0  0  0  0  # atno 17370 bound_to 10713
  156.0685  130.3688  150.0826 LP  0  0  0  0  0  0  0  0  0  0  0  0  # atno 17371 bound_to 10713
  140.7353  134.4209  157.5561 LP  0  0  0  0  0  0  0  0  0  0  0  0  # atno 17394 bound_to 11000
  139.8906  134.8801  156.2362 LP  0  0  0  0  0  0  0  0  0  0  0  0  # atno 17395 bound_to 11000

$$$$
