AV-unprocessed.smi:1045|AV-procd|sdf|4544|dock3
  -GOLD-   22720 2573D 1   1.00000     0.00000
 Structure written by MMmdl.
 42 43  0  0  0  0  0  0  0  0  1 V2000
  151.1194  130.3368  154.8534 C   0  0  0  0  0  0  0  0  0  0  0  0
  149.9666  131.1588  154.8068 O   0  0  0  0  0  0  0  0  0  0  0  0
  150.2833  132.5328  154.6543 C   0  0  0  0  0  0  0  0  0  0  0  0
  149.0239  133.3029  154.2183 C   0  0  2  0  0  0  0  0  0  0  0  0
  148.4605  132.7798  152.8891 C   0  0  0  0  0  0  0  0  0  0  0  0
  149.3207  134.7261  154.0807 N   0  0  0  0  0  0  0  0  0  0  0  0
  149.8144  135.5146  155.0463 C   0  0  0  0  0  0  0  0  0  0  0  0
  150.0932  135.1119  156.1752 O   0  0  0  0  0  0  0  0  0  0  0  0
  149.9748  136.7739  154.6052 N   0  0  0  0  0  0  0  0  0  0  0  0
  150.4397  137.9151  155.3138 C   0  0  0  0  0  0  0  0  0  0  0  0
  150.6658  139.1844  154.7322 C   0  0  0  0  0  0  0  0  0  0  0  0
  151.1488  140.2299  155.5425 C   0  0  0  0  0  0  0  0  0  0  0  0
  151.4043  139.9816  156.9118 C   0  0  0  0  0  0  0  0  0  0  0  0
  151.8840  141.0022  157.7568 N   0  0  0  0  0  0  0  0  0  0  0  0
  151.0613  142.1459  158.1194 C   0  0  0  0  0  0  0  0  0  0  0  0
  151.8946  142.9111  159.1458 C   0  0  0  0  0  0  0  0  0  0  0  0
  152.6646  141.8019  159.8618 C   0  0  0  0  0  0  0  0  0  0  0  0
  152.8902  140.7419  158.7772 C   0  0  0  0  0  0  0  0  0  0  0  0
  151.1905  138.7643  157.4651 N   0  0  0  0  0  0  0  0  0  0  0  0
  150.7285  137.7655  156.6847 C   0  0  0  0  0  0  0  0  0  0  0  0
  150.8213  129.2948  154.9683 H   0  0  0  0  0  0  0  0  0  0  0  0
  151.7578  130.5993  155.6978 H   0  0  0  0  0  0  0  0  0  0  0  0
  151.7010  130.4210  153.9345 H   0  0  0  0  0  0  0  0  0  0  0  0
  150.6542  132.9220  155.6040 H   0  0  0  0  0  0  0  0  0  0  0  0
  151.0790  132.6589  153.9178 H   0  0  0  0  0  0  0  0  0  0  0  0
  148.2543  133.1767  154.9823 H   0  0  0  0  0  0  0  0  0  0  0  0
  148.1854  131.7273  152.9641 H   0  0  0  0  0  0  0  0  0  0  0  0
  149.1887  132.8759  152.0830 H   0  0  0  0  0  0  0  0  0  0  0  0
  147.5654  133.3306  152.5982 H   0  0  0  0  0  0  0  0  0  0  0  0
  149.1293  135.1423  153.1812 H   0  0  0  0  0  0  0  0  0  0  0  0
  149.7739  136.9278  153.6280 H   0  0  0  0  0  0  0  0  0  0  0  0
  150.4928  139.3778  153.6853 H   0  0  0  0  0  0  0  0  0  0  0  0
  151.3131  141.2030  155.1042 H   0  0  0  0  0  0  0  0  0  0  0  0
  150.8227  142.7628  157.2524 H   0  0  0  0  0  0  0  0  0  0  0  0
  150.1286  141.7970  158.5644 H   0  0  0  0  0  0  0  0  0  0  0  0
  152.5943  143.5741  158.6347 H   0  0  0  0  0  0  0  0  0  0  0  0
  151.2874  143.5153  159.8203 H   0  0  0  0  0  0  0  0  0  0  0  0
  153.5941  142.1510  160.3120 H   0  0  0  0  0  0  0  0  0  0  0  0
  152.0442  141.3847  160.6562 H   0  0  0  0  0  0  0  0  0  0  0  0
  152.8067  139.7372  159.1932 H   0  0  0  0  0  0  0  0  0  0  0  0
  153.8797  140.8486  158.3317 H   0  0  0  0  0  0  0  0  0  0  0  0
  150.5822  136.8142  157.1753 H   0  0  0  0  0  0  0  0  0  0  0  0
  1  2  1  0  0  0  0
  1 21  1  0  0  0  0
  1 22  1  0  0  0  0
  1 23  1  0  0  0  0
  2  3  1  0  0  0  0
  3  4  1  0  0  0  0
  3 24  1  0  0  0  0
  3 25  1  0  0  0  0
  4  5  1  0  0  0  0
  4  6  1  0  0  0  0
  4 26  1  0  0  0  0
  5 27  1  0  0  0  0
  5 28  1  0  0  0  0
  5 29  1  0  0  0  0
  6  7  1  0  0  0  0
  6 30  1  0  0  0  0
  7  8  2  0  0  0  0
  7  9  1  0  0  0  0
  9 10  1  0  0  0  0
  9 31  1  0  0  0  0
 10 20  1  0  0  0  0
 10 11  2  0  0  0  0
 11 12  1  0  0  0  0
 11 32  1  0  0  0  0
 12 13  2  0  0  0  0
 12 33  1  0  0  0  0
 13 14  1  0  0  0  0
 13 19  1  0  0  0  0
 14 18  1  0  0  0  0
 14 15  1  0  0  0  0
 15 16  1  0  0  0  0
 15 34  1  0  0  0  0
 15 35  1  0  0  0  0
 16 17  1  0  0  0  0
 16 36  1  0  0  0  0
 16 37  1  0  0  0  0
 17 18  1  0  0  0  0
 17 38  1  0  0  0  0
 17 39  1  0  0  0  0
 18 40  1  0  0  0  0
 18 41  1  0  0  0  0
 19 20  2  0  0  0  0
 20 42  1  0  0  0  0
M  END
> <s_m_source_file>
AV-unprocessed.smi

> <i_m_source_file_index>
1045

> <i_lp_mmshare_version>
43012

> <i_f3d_flags>
0

> <s_epik_input>
W0NIM11PW0NIMl1bQ0BIXShbQ0gzXSlbTkhdQyg9TylbTkhdYzFbY0hdW2NIXWMobltjSF0xKU4yW0NIMl1bQ0gyXVtDSDJdW0NIMl0y

> <s_epik_cmdline>
J2VwaWtfcHl0aG9uJywgJy1waCcsICc3LjAnLCAnLXRuJywgJzgnLCAnLW1hJywgJzIwMCcsICctbWV0YWxfYmluZGluZycsICctaW1hZScsICc8aW5maWxlLm1hZT4nLCAnLW9tYWUnLCAnPG91dGZpbGUubWFlPic=

> <r_lp_tautomer_probability>
1

> <r_epik_Ionization_Penalty>
0.10064

> <r_epik_Ionization_Penalty_Charging>
0

> <r_epik_Ionization_Penalty_Neutral>
0.10064

> <r_epik_State_Penalty>
0.0900987

> <r_epik_Charging_Adjusted_Penalty>
0.0900987

> <i_epik_Tot_Q>
0

> <i_epik_Tot_abs_Q>
0

> <r_epik_Metal_State_Penalty>
0.076945

> <b_epik_Metal_Only>
0

> <s_lp_Force_Field>
OPLS_2005

> <r_lp_Energy>
28.0744

> <b_lp_Chiralities_Consistent>
1

> <s_lp_Variant>
AV-unprocessed.smi:1045-1

> <Gold.Version>
5.8.1

> <Gold.Id.Protein>
6NUR|6NUR_protein|mol2

> <Gold.PLP.Fitness>
38.8142

> <Gold.PLP.PLP>
-34.6754

> <Gold.PLP.part.hbond>
-2.0000

> <Gold.PLP.part.metal>
0.0000

> <Gold.PLP.part.buried>
-3.2289

> <Gold.PLP.part.nonpolar>
-28.9915

> <Gold.PLP.part.repulsive>
0.0900

> <Gold.PLP.ligand.clash>
0.0000

> <Gold.PLP.ligand.torsion>
1.0226

> <Gold.PLP.Chemscore.Hbond>
1.9920

> <Gold.PLP.Chemscore.CHOScore>
0.0000

> <Gold.PLP.Chemscore.Metal>
0.0000

> <Gold.Chemscore.Hbonds>
donor molecule, donor type, donor heavy atom, donor atom, acceptor molecule, acceptor atom, score
      L1  H     6    30       P1  7948  0.85
      L1  H     9    31       P1  7948  0.98

> <Gold.PLP.Chemscore.Internal.Correction>
0.2080

> <Gold.Rescore>
     Score         DG    S(hbond)    S(metal)    S(lipo)     H(rot)  DE(clash)    DE(int)     intcor
     14.33     -16.92       1.80        0.00      77.37       1.41       0.01       2.58       ----

> <Gold.Chemscore.Fitness>
14.3326

> <Gold.Chemscore.DG>
-16.9244

> <Gold.Chemscore.ZeroCoef>
-5.4800

> <Gold.Chemscore.Hbond>
1.7957

> <Gold.Chemscore.Metal>
0.0000

> <Gold.Chemscore.Lipo>
77.3748

> <Gold.Chemscore.Internal_Hbond>
0.0000

> <Gold.Chemscore.DEClash>
0.0106

> <Gold.Chemscore.DEInternal>
2.5812

> <Gold.Chemscore.Rot>
1.4086

> <Gold.Chemscore.Internal.Correction>
   9.000000E+99

> <Gold.Chemscore.Hbonds>
donor molecule, donor type, donor heavy atom, donor atom, acceptor molecule, acceptor atom, score
      L1  H     6    30       P1  7948  0.15
      L1  H     9    31       P1  7948  0.52

> <Gold.Chemscore.Hbond.Weighted>
-5.9976

> <Gold.Chemscore.Metal.Weighted>
-0.0000

> <Gold.Chemscore.Lipo.Weighted>
-9.0528

> <Gold.Chemscore.Internal_Hbond.Weighted>
0.0000

> <Gold.Chemscore.DEClash.Weighted>
0.0106

> <Gold.Chemscore.DEInternal.Weighted>
2.5812

> <Gold.Chemscore.Rot.Weighted>
3.6060

> <Gold.Chemscore.Internal.Correction.Weighted>
   9.000000E+99

> <Gold.Protein.RotatedTorsions>
[ 6907 6896 6895 6894 ] final  -50.01 input  -60.11 | X-H torsion
[ 7974 7965 7964 7962 ] final  123.68 input  175.53 | X-H torsion
[ 8008 7997 7996 7995 ] final  113.23 input   59.86 | X-H torsion
[ 10167 10162 10161 10158 ] final   35.36 input  -65.29 | X-H torsion
[ 10718 10713 10712 10709 ] final   50.49 input   66.30 | X-H torsion
[ 10763 10752 10751 10750 ] final   95.56 input  -60.55 | X-H torsion
[ 11005 11000 10999 10996 ] final  -44.06 input  -57.11 | X-H torsion

> <Gold.Protein.ActiveResidues>
 VAL166  LYS551  ARG553  GLY616  TRP617  ASP618  TYR619  PRO620  LYS621  CYS622 
 ASP623  PHE694  ASN695  SER759  ASP760  ASP761  ALA762  ILE779  LEU786  VAL792 
 PHE793  MET794  SER795  GLU796  ALA797  LYS798  CYS799  TRP800  GLU811  SER814 

> <Gold.Protein.RotatedAtoms>
  150.8749  134.8130  159.7181 H   0  0  0  0  0  0  0  0  0  0  0  0  # atno 6907 bound_to 6896
  152.4739  134.4888  159.9698 H   0  0  0  0  0  0  0  0  0  0  0  0  # atno 6908 bound_to 6896
  151.4971  133.3474  159.2898 H   0  0  0  0  0  0  0  0  0  0  0  0  # atno 6909 bound_to 6896
  145.0931  139.3572  143.4850 H   0  0  0  0  0  0  0  0  0  0  0  0  # atno 7974 bound_to 7965
  156.2244  140.2984  156.0031 H   0  0  0  0  0  0  0  0  0  0  0  0  # atno 8008 bound_to 7997
  155.2395  140.0422  157.2990 H   0  0  0  0  0  0  0  0  0  0  0  0  # atno 8009 bound_to 7997
  154.5892  140.2397  155.7952 H   0  0  0  0  0  0  0  0  0  0  0  0  # atno 8010 bound_to 7997
  140.4229  144.1434  150.6150 H   0  0  0  0  0  0  0  0  0  0  0  0  # atno 10167 bound_to 10162
  157.4890  130.8364  149.8180 H   0  0  0  0  0  0  0  0  0  0  0  0  # atno 10718 bound_to 10713
  153.2546  135.4250  155.0832 H   0  0  0  0  0  0  0  0  0  0  0  0  # atno 10763 bound_to 10752
  154.8395  135.3434  154.6464 H   0  0  0  0  0  0  0  0  0  0  0  0  # atno 10764 bound_to 10752
  153.6885  135.7035  153.5154 H   0  0  0  0  0  0  0  0  0  0  0  0  # atno 10765 bound_to 10752
  141.0425  133.6774  156.2820 H   0  0  0  0  0  0  0  0  0  0  0  0  # atno 11005 bound_to 11000
  146.3531  140.0775  142.8619 LP  0  0  0  0  0  0  0  0  0  0  0  0  # atno 17320 bound_to 7965
  145.1042  140.9365  143.4694 LP  0  0  0  0  0  0  0  0  0  0  0  0  # atno 17321 bound_to 7965
  140.4514  143.2485  151.9343 LP  0  0  0  0  0  0  0  0  0  0  0  0  # atno 17342 bound_to 10162
  139.4783  144.5559  151.8315 LP  0  0  0  0  0  0  0  0  0  0  0  0  # atno 17343 bound_to 10162
  156.0163  130.3812  150.2102 LP  0  0  0  0  0  0  0  0  0  0  0  0  # atno 17370 bound_to 10713
  157.0290  131.0001  151.3318 LP  0  0  0  0  0  0  0  0  0  0  0  0  # atno 17371 bound_to 10713
  140.6207  134.5364  157.5547 LP  0  0  0  0  0  0  0  0  0  0  0  0  # atno 17394 bound_to 11000
  139.9287  134.8006  156.0994 LP  0  0  0  0  0  0  0  0  0  0  0  0  # atno 17395 bound_to 11000

$$$$
