AV-unprocessed.smi:2412|AV-procd|sdf|9533|dock4
  -GOLD-   2272013163D 1   1.00000     0.00000
 Structure written by MMmdl.
 38 39  0  0  0  0  0  0  0  0  2 V2000
  150.2008  138.8336  154.4133 C   0  0  0  0  0  0  0  0  0  0  0  0
  149.1673  139.9420  154.3120 C   0  0  0  0  0  0  0  0  0  0  0  0
  149.4779  141.2287  154.8037 C   0  0  0  0  0  0  0  0  0  0  0  0
  148.5717  142.2249  154.7169 N   0  3  0  0  0  0  0  0  0  0  0  0
  147.3522  142.0556  154.1657 C   0  0  0  0  0  0  0  0  0  0  0  0
  146.9805  140.7964  153.6550 C   0  0  0  0  0  0  0  0  0  0  0  0
  147.8911  139.7117  153.7364 C   0  0  0  0  0  0  0  0  0  0  0  0
  147.5979  138.4163  153.2232 N   0  0  0  0  0  0  0  0  0  0  0  0
  146.4169  137.7754  153.1917 C   0  0  0  0  0  0  0  0  0  0  0  0
  145.3632  138.2032  153.6626 O   0  0  0  0  0  0  0  0  0  0  0  0
  146.5260  136.5832  152.5867 N   0  0  0  0  0  0  0  0  0  0  0  0
  145.4201  135.6565  152.3503 C   0  0  0  0  0  0  0  0  0  0  0  0
  145.7365  134.2088  152.7716 C   0  0  0  0  0  0  0  0  0  0  0  0
  145.9852  133.9514  153.9512 O   0  0  0  0  0  0  0  0  0  0  0  0
  145.7213  133.2522  151.8203 N   0  0  0  0  0  0  0  0  0  0  0  0
  145.4283  133.4595  150.4022 C   0  0  0  0  0  0  0  0  0  0  0  0
  145.7401  132.1290  149.7156 C   0  0  0  0  0  0  0  0  0  0  0  0
  145.5864  131.0925  150.8196 C   0  0  0  0  0  0  0  0  0  0  0  0
  145.9846  131.8403  152.0920 C   0  0  0  0  0  0  0  0  0  0  0  0
  151.1063  139.1809  154.9121 H   0  0  0  0  0  0  0  0  0  0  0  0
  150.4778  138.4793  153.4199 H   0  0  0  0  0  0  0  0  0  0  0  0
  149.8049  137.9927  154.9834 H   0  0  0  0  0  0  0  0  0  0  0  0
  150.4210  141.4920  155.2600 H   0  0  0  0  0  0  0  0  0  0  0  0
  146.7161  142.9287  154.1424 H   0  0  0  0  0  0  0  0  0  0  0  0
  146.0086  140.6917  153.1971 H   0  0  0  0  0  0  0  0  0  0  0  0
  148.3932  137.8960  152.8823 H   0  0  0  0  0  0  0  0  0  0  0  0
  147.4298  136.3077  152.2316 H   0  0  0  0  0  0  0  0  0  0  0  0
  144.5587  136.0087  152.9182 H   0  0  0  0  0  0  0  0  0  0  0  0
  145.1376  135.6847  151.2968 H   0  0  0  0  0  0  0  0  0  0  0  0
  144.3723  133.7091  150.2887 H   0  0  0  0  0  0  0  0  0  0  0  0
  146.0195  134.2665  149.9677 H   0  0  0  0  0  0  0  0  0  0  0  0
  145.0951  131.9333  148.8586 H   0  0  0  0  0  0  0  0  0  0  0  0
  146.7723  132.1334  149.3622 H   0  0  0  0  0  0  0  0  0  0  0  0
  144.5419  130.7854  150.8875 H   0  0  0  0  0  0  0  0  0  0  0  0
  146.1871  130.1987  150.6488 H   0  0  0  0  0  0  0  0  0  0  0  0
  147.0487  131.7119  152.2960 H   0  0  0  0  0  0  0  0  0  0  0  0
  145.4271  131.4753  152.9562 H   0  0  0  0  0  0  0  0  0  0  0  0
  148.8211  143.1460  155.0783 H   0  0  0  0  0  0  0  0  0  0  0  0
  1  2  1  0  0  0  0
  1 20  1  0  0  0  0
  1 21  1  0  0  0  0
  1 22  1  0  0  0  0
  2  7  1  0  0  0  0
  2  3  2  0  0  0  0
  3  4  1  0  0  0  0
  3 23  1  0  0  0  0
  4  5  2  0  0  0  0
  4 38  1  0  0  0  0
  5  6  1  0  0  0  0
  5 24  1  0  0  0  0
  6  7  2  0  0  0  0
  6 25  1  0  0  0  0
  7  8  1  0  0  0  0
  8  9  1  0  0  0  0
  8 26  1  0  0  0  0
  9 10  2  0  0  0  0
  9 11  1  0  0  0  0
 11 12  1  0  0  0  0
 11 27  1  0  0  0  0
 12 13  1  0  0  0  0
 12 28  1  0  0  0  0
 12 29  1  0  0  0  0
 13 14  2  0  0  0  0
 13 15  1  0  0  0  0
 15 19  1  0  0  0  0
 15 16  1  0  0  0  0
 16 17  1  0  0  0  0
 16 30  1  0  0  0  0
 16 31  1  0  0  0  0
 17 18  1  0  0  0  0
 17 32  1  0  0  0  0
 17 33  1  0  0  0  0
 18 19  1  0  0  0  0
 18 34  1  0  0  0  0
 18 35  1  0  0  0  0
 19 36  1  0  0  0  0
 19 37  1  0  0  0  0
M  CHG  1   4   1
M  END
> <s_m_source_file>
AV-unprocessed.smi

> <i_m_source_file_index>
2412

> <i_lp_mmshare_version>
43012

> <i_f3d_flags>
0

> <s_epik_input>
W0NIM11jMVtjSF1uW2NIXVtjSF1jMVtOSF1DKD1PKVtOSF1bQ0gyXUMoPU8pTjJbQ0gyXVtDSDJdW0NIMl1bQ0gyXTI=

> <s_epik_cmdline>
J2VwaWtfcHl0aG9uJywgJy1waCcsICc3LjAnLCAnLXRuJywgJzgnLCAnLW1hJywgJzIwMCcsICctbWV0YWxfYmluZGluZycsICctaW1hZScsICc8aW5maWxlLm1hZT4nLCAnLW9tYWUnLCAnPG91dGZpbGUubWFlPic=

> <r_epik_Ionization_Penalty>
0.861722

> <r_epik_Ionization_Penalty_Charging>
0.861704

> <r_epik_Ionization_Penalty_Neutral>
1.84974e-05

> <r_epik_State_Penalty>
0.898238

> <r_epik_Charging_Adjusted_Penalty>
1.75994

> <i_epik_Tot_Q>
1

> <i_epik_Tot_abs_Q>
1

> <r_epik_Metal_State_Penalty>
1.0245

> <b_epik_Metal_Only>
0

> <s_lp_Force_Field>
OPLS_2005

> <r_lp_Energy>
33.6381

> <b_lp_Chiralities_Consistent>
1

> <s_lp_Variant>
AV-unprocessed.smi:2412-2

> <Gold.Version>
5.8.1

> <Gold.Id.Protein>
6NUR|6NUR_protein|mol2

> <Gold.PLP.Fitness>
44.9758

> <Gold.PLP.PLP>
-33.8811

> <Gold.PLP.part.hbond>
-3.1026

> <Gold.PLP.part.metal>
0.0000

> <Gold.PLP.part.buried>
-3.9027

> <Gold.PLP.part.nonpolar>
-28.1575

> <Gold.PLP.part.repulsive>
0.7110

> <Gold.PLP.ligand.clash>
0.0000

> <Gold.PLP.ligand.torsion>
0.2973

> <Gold.PLP.Chemscore.Hbond>
3.8960

> <Gold.PLP.Chemscore.CHOScore>
0.0000

> <Gold.PLP.Chemscore.Metal>
0.0000

> <Gold.Chemscore.Hbonds>
donor molecule, donor type, donor heavy atom, donor atom, acceptor molecule, acceptor atom, score
      L1  H     4    38       P1  8028  2.00
      L1  H     8    26       P1  7948  0.90
      L1  H    11    27       P1  7948  1.00

> <Gold.PLP.Chemscore.Internal.Correction>
0.0013

> <Gold.Rescore>
     Score         DG    S(hbond)    S(metal)    S(lipo)     H(rot)  DE(clash)    DE(int)     intcor
     21.05     -21.46       2.87        0.00      82.72       1.28       0.04       0.37       ----

> <Gold.Chemscore.Fitness>
21.0493

> <Gold.Chemscore.DG>
-21.4587

> <Gold.Chemscore.ZeroCoef>
-5.4800

> <Gold.Chemscore.Hbond>
2.8664

> <Gold.Chemscore.Metal>
0.0000

> <Gold.Chemscore.Lipo>
82.7208

> <Gold.Chemscore.Internal_Hbond>
0.0000

> <Gold.Chemscore.DEClash>
0.0387

> <Gold.Chemscore.DEInternal>
0.3707

> <Gold.Chemscore.Rot>
1.2786

> <Gold.Chemscore.Internal.Correction>
   9.000000E+99

> <Gold.Chemscore.Hbonds>
donor molecule, donor type, donor heavy atom, donor atom, acceptor molecule, acceptor atom, score
      L1  H     4    38       P1  8028  1.00
      L1  H     8    26       P1  7948  0.84
      L1  H    11    27       P1  7948  0.96

> <Gold.Chemscore.Hbond.Weighted>
-9.5736

> <Gold.Chemscore.Metal.Weighted>
-0.0000

> <Gold.Chemscore.Lipo.Weighted>
-9.6783

> <Gold.Chemscore.Internal_Hbond.Weighted>
0.0000

> <Gold.Chemscore.DEClash.Weighted>
0.0387

> <Gold.Chemscore.DEInternal.Weighted>
0.3707

> <Gold.Chemscore.Rot.Weighted>
3.2733

> <Gold.Chemscore.Internal.Correction.Weighted>
   9.000000E+99

> <Gold.Protein.RotatedTorsions>
[ 6907 6896 6895 6894 ] final  110.45 input  -60.11 | X-H torsion
[ 7974 7965 7964 7962 ] final  -72.38 input  175.53 | X-H torsion
[ 8008 7997 7996 7995 ] final  130.12 input   59.86 | X-H torsion
[ 10167 10162 10161 10158 ] final  -59.09 input  -65.29 | X-H torsion
[ 10718 10713 10712 10709 ] final  -21.69 input   66.30 | X-H torsion
[ 10763 10752 10751 10750 ] final  -56.37 input  -60.55 | X-H torsion
[ 11005 11000 10999 10996 ] final  176.01 input  -57.11 | X-H torsion

> <Gold.Protein.ActiveResidues>
 VAL166  LYS551  ARG553  GLY616  TRP617  ASP618  TYR619  PRO620  LYS621  CYS622 
 ASP623  PHE694  ASN695  SER759  ASP760  ASP761  ALA762  ILE779  LEU786  VAL792 
 PHE793  MET794  SER795  GLU796  ALA797  LYS798  CYS799  TRP800  GLU811  SER814 

> <Gold.Protein.RotatedAtoms>
  152.5019  133.8799  159.7340 H   0  0  0  0  0  0  0  0  0  0  0  0  # atno 6907 bound_to 6896
  150.9264  133.6810  159.2827 H   0  0  0  0  0  0  0  0  0  0  0  0  # atno 6908 bound_to 6896
  151.4170  135.0997  159.9655 H   0  0  0  0  0  0  0  0  0  0  0  0  # atno 6909 bound_to 6896
  145.6659  140.9237  143.0909 H   0  0  0  0  0  0  0  0  0  0  0  0  # atno 7974 bound_to 7965
  156.2949  140.2604  156.2710 H   0  0  0  0  0  0  0  0  0  0  0  0  # atno 8008 bound_to 7997
  154.9695  140.0391  157.2246 H   0  0  0  0  0  0  0  0  0  0  0  0  # atno 8009 bound_to 7997
  154.7872  140.2805  155.6023 H   0  0  0  0  0  0  0  0  0  0  0  0  # atno 8010 bound_to 7997
  140.6157  143.2401  151.5603 H   0  0  0  0  0  0  0  0  0  0  0  0  # atno 10167 bound_to 10162
  156.5147  130.4618  149.6629 H   0  0  0  0  0  0  0  0  0  0  0  0  # atno 10718 bound_to 10713
  154.2055  135.6403  153.5099 H   0  0  0  0  0  0  0  0  0  0  0  0  # atno 10763 bound_to 10752
  153.0002  135.5461  154.6270 H   0  0  0  0  0  0  0  0  0  0  0  0  # atno 10764 bound_to 10752
  154.5694  135.2915  155.0816 H   0  0  0  0  0  0  0  0  0  0  0  0  # atno 10765 bound_to 10752
  140.3684  134.7051  157.4376 H   0  0  0  0  0  0  0  0  0  0  0  0  # atno 11005 bound_to 11000
  144.7073  139.8509  143.7426 LP  0  0  0  0  0  0  0  0  0  0  0  0  # atno 17320 bound_to 7965
  146.1086  139.4088  143.0302 LP  0  0  0  0  0  0  0  0  0  0  0  0  # atno 17321 bound_to 7965
  139.5397  144.2683  152.1324 LP  0  0  0  0  0  0  0  0  0  0  0  0  # atno 17342 bound_to 10162
  140.1892  144.4769  150.6488 LP  0  0  0  0  0  0  0  0  0  0  0  0  # atno 17343 bound_to 10162
  156.3206  130.7278  151.2190 LP  0  0  0  0  0  0  0  0  0  0  0  0  # atno 17370 bound_to 10713
  157.7445  131.0456  150.4854 LP  0  0  0  0  0  0  0  0  0  0  0  0  # atno 17371 bound_to 10713
  140.0571  134.6048  155.8792 LP  0  0  0  0  0  0  0  0  0  0  0  0  # atno 17394 bound_to 11000
  141.1962  133.6590  156.5681 LP  0  0  0  0  0  0  0  0  0  0  0  0  # atno 17395 bound_to 11000

$$$$
