AV-unprocessed.smi:3303|AV-procd|sdf|12676|dock4
  -GOLD-   2272019 13D 1   1.00000     0.00000
 Structure written by MMmdl.
 44 45  0  0  0  0  0  0  0  0  2 V2000
  151.5424  137.8581  154.6748 C   0  0  0  0  0  0  0  0  0  0  0  0
  150.6583  139.0932  154.4365 C   0  0  1  0  0  0  0  0  0  0  0  0
  149.2010  138.7118  154.1136 C   0  0  0  0  0  0  0  0  0  0  0  0
  148.4104  139.8950  153.7620 N   0  0  0  0  0  0  0  0  0  0  0  0
  147.0789  139.4279  153.3841 C   0  0  0  0  0  0  0  0  0  0  0  0
  148.3616  140.8501  154.8834 C   0  0  2  0  0  0  0  0  0  0  0  0
  147.5194  142.0963  154.5430 C   0  0  0  0  0  0  0  0  0  0  0  0
  149.7964  141.2902  155.2582 C   0  0  0  0  0  0  0  0  0  0  0  0
  150.7111  140.1046  155.5973 C   0  0  1  0  0  0  0  0  0  0  0  0
  150.3059  139.4915  156.8843 N   0  3  0  0  0  0  0  0  0  0  0  0
  150.2069  140.4322  158.0180 C   0  0  0  0  0  0  0  0  0  0  0  0
  151.5930  140.9479  158.4272 C   0  0  0  0  0  0  0  0  0  0  0  0
  151.5723  142.4198  158.7927 C   0  0  0  0  0  0  0  0  0  0  0  0
  152.7747  143.1300  158.9954 C   0  0  0  0  0  0  0  0  0  0  0  0
  152.6982  144.4967  159.3279 C   0  0  0  0  0  0  0  0  0  0  0  0
  151.4294  145.0965  159.4433 C   0  0  0  0  0  0  0  0  0  0  0  0
  150.2884  144.3005  159.2187 C   0  0  0  0  0  0  0  0  0  0  0  0
  150.3509  142.9897  158.8975 N   0  0  0  0  0  0  0  0  0  0  0  0
  151.1886  137.2628  155.5168 H   0  0  0  0  0  0  0  0  0  0  0  0
  152.5736  138.1474  154.8794 H   0  0  0  0  0  0  0  0  0  0  0  0
  151.5517  137.2109  153.7974 H   0  0  0  0  0  0  0  0  0  0  0  0
  151.0622  139.5931  153.5540 H   0  0  0  0  0  0  0  0  0  0  0  0
  149.1968  138.0175  153.2719 H   0  0  0  0  0  0  0  0  0  0  0  0
  148.7448  138.1892  154.9559 H   0  0  0  0  0  0  0  0  0  0  0  0
  146.4720  140.2363  152.9782 H   0  0  0  0  0  0  0  0  0  0  0  0
  146.5531  138.9944  154.2362 H   0  0  0  0  0  0  0  0  0  0  0  0
  147.1439  138.6685  152.6040 H   0  0  0  0  0  0  0  0  0  0  0  0
  147.9083  140.3560  155.7443 H   0  0  0  0  0  0  0  0  0  0  0  0
  147.6043  142.8482  155.3280 H   0  0  0  0  0  0  0  0  0  0  0  0
  146.4583  141.8653  154.4524 H   0  0  0  0  0  0  0  0  0  0  0  0
  147.8474  142.5574  153.6106 H   0  0  0  0  0  0  0  0  0  0  0  0
  150.2300  141.8459  154.4249 H   0  0  0  0  0  0  0  0  0  0  0  0
  149.7703  141.9849  156.0990 H   0  0  0  0  0  0  0  0  0  0  0  0
  151.7325  140.4789  155.6865 H   0  0  0  0  0  0  0  0  0  0  0  0
  149.4066  139.0501  156.7564 H   0  0  0  0  0  0  0  0  0  0  0  0
  149.5688  141.2708  157.7355 H   0  0  0  0  0  0  0  0  0  0  0  0
  149.7287  139.9278  158.8589 H   0  0  0  0  0  0  0  0  0  0  0  0
  151.9681  140.3786  159.2791 H   0  0  0  0  0  0  0  0  0  0  0  0
  152.3045  140.7900  157.6154 H   0  0  0  0  0  0  0  0  0  0  0  0
  153.7341  142.6429  158.8993 H   0  0  0  0  0  0  0  0  0  0  0  0
  153.5961  145.0740  159.4921 H   0  0  0  0  0  0  0  0  0  0  0  0
  151.3323  146.1416  159.6983 H   0  0  0  0  0  0  0  0  0  0  0  0
  149.2998  144.7277  159.2985 H   0  0  0  0  0  0  0  0  0  0  0  0
  150.9815  138.7785  157.1188 H   0  0  0  0  0  0  0  0  0  0  0  0
  1  2  1  0  0  0  0
  1 19  1  0  0  0  0
  1 20  1  0  0  0  0
  1 21  1  0  0  0  0
  2  9  1  0  0  0  0
  2  3  1  0  0  0  0
  2 22  1  0  0  0  0
  3  4  1  0  0  0  0
  3 23  1  0  0  0  0
  3 24  1  0  0  0  0
  4  5  1  0  0  0  0
  4  6  1  0  0  0  0
  5 25  1  0  0  0  0
  5 26  1  0  0  0  0
  5 27  1  0  0  0  0
  6  7  1  0  0  0  0
  6  8  1  0  0  0  0
  6 28  1  0  0  0  0
  7 29  1  0  0  0  0
  7 30  1  0  0  0  0
  7 31  1  0  0  0  0
  8  9  1  0  0  0  0
  8 32  1  0  0  0  0
  8 33  1  0  0  0  0
  9 10  1  0  0  0  0
  9 34  1  0  0  0  0
 10 11  1  0  0  0  0
 10 35  1  0  0  0  0
 10 44  1  0  0  0  0
 11 12  1  0  0  0  0
 11 36  1  0  0  0  0
 11 37  1  0  0  0  0
 12 13  1  0  0  0  0
 12 38  1  0  0  0  0
 12 39  1  0  0  0  0
 13 18  1  0  0  0  0
 13 14  2  0  0  0  0
 14 15  1  0  0  0  0
 14 40  1  0  0  0  0
 15 16  2  0  0  0  0
 15 41  1  0  0  0  0
 16 17  1  0  0  0  0
 16 42  1  0  0  0  0
 17 18  2  0  0  0  0
 17 43  1  0  0  0  0
M  CHG  1  10   1
M  END
> <s_m_source_file>
AV-unprocessed.smi

> <i_m_source_file_index>
3303

> <i_lp_mmshare_version>
43012

> <i_f3d_flags>
0

> <s_epik_input>
W0NIM11bQ0BASF0xW0NIMl1OKFtDSDNdKVtDQEBIXShbQ0gzXSlbQ0gyXVtDQEhdMVtOSF1bQ0gyXVtDSDJdYzJbY0hdW2NIXVtjSF1bY0hdbjI=

> <s_epik_cmdline>
J2VwaWtfcHl0aG9uJywgJy1waCcsICc3LjAnLCAnLXRuJywgJzgnLCAnLW1hJywgJzIwMCcsICctbWV0YWxfYmluZGluZycsICctaW1hZScsICc8aW5maWxlLm1hZT4nLCAnLW9tYWUnLCAnPG91dGZpbGUubWFlPic=

> <r_epik_Ionization_Penalty>
1.37325

> <r_epik_Ionization_Penalty_Charging>
0.000251572

> <r_epik_Ionization_Penalty_Neutral>
1.373

> <r_epik_State_Penalty>
1.46343

> <r_epik_Charging_Adjusted_Penalty>
1.46368

> <i_epik_Tot_Q>
1

> <i_epik_Tot_abs_Q>
1

> <r_epik_Metal_State_Penalty>
1.46331

> <b_epik_Metal_Only>
0

> <s_lp_Force_Field>
OPLS_2005

> <r_lp_Energy>
25.9316

> <b_lp_Chiralities_Consistent>
1

> <s_lp_Variant>
AV-unprocessed.smi:3303-20

> <Gold.Version>
5.8.1

> <Gold.Id.Protein>
6NUR|6NUR_protein|mol2

> <Gold.PLP.Fitness>
41.2173

> <Gold.PLP.PLP>
-39.4053

> <Gold.PLP.part.hbond>
0.0000

> <Gold.PLP.part.metal>
0.0000

> <Gold.PLP.part.buried>
-4.6823

> <Gold.PLP.part.nonpolar>
-36.1054

> <Gold.PLP.part.repulsive>
2.0691

> <Gold.PLP.ligand.clash>
0.0000

> <Gold.PLP.ligand.torsion>
0.4027

> <Gold.PLP.Chemscore.Hbond>
0.0000

> <Gold.PLP.Chemscore.CHOScore>
0.8693

> <Gold.PLP.Chemscore.Metal>
0.0000

> <Gold.Chemscore.Hbonds>
donor molecule, donor type, donor heavy atom, donor atom, acceptor molecule, acceptor atom, score
      L1  C    17    43       P1  8029  0.42

> <Gold.PLP.Chemscore.Internal.Correction>
0.0095

> <Gold.Rescore>
     Score         DG    S(hbond)    S(metal)    S(lipo)     H(rot)  DE(clash)    DE(int)     intcor
     15.40     -15.96       0.00        0.00     118.63       1.33       0.10       0.45       ----

> <Gold.Chemscore.Fitness>
15.4024

> <Gold.Chemscore.DG>
-15.9557

> <Gold.Chemscore.ZeroCoef>
-5.4800

> <Gold.Chemscore.Hbond>
0.0000

> <Gold.Chemscore.Metal>
0.0000

> <Gold.Chemscore.Lipo>
118.6328

> <Gold.Chemscore.Internal_Hbond>
0.0000

> <Gold.Chemscore.DEClash>
0.1019

> <Gold.Chemscore.DEInternal>
0.4514

> <Gold.Chemscore.Rot>
1.3298

> <Gold.Chemscore.Internal.Correction>
   9.000000E+99

> <Gold.Chemscore.Hbond.Weighted>
-0.0000

> <Gold.Chemscore.Metal.Weighted>
-0.0000

> <Gold.Chemscore.Lipo.Weighted>
-13.8800

> <Gold.Chemscore.Internal_Hbond.Weighted>
0.0000

> <Gold.Chemscore.DEClash.Weighted>
0.1019

> <Gold.Chemscore.DEInternal.Weighted>
0.4514

> <Gold.Chemscore.Rot.Weighted>
3.4043

> <Gold.Chemscore.Internal.Correction.Weighted>
   9.000000E+99

> <Gold.Protein.RotatedTorsions>
[ 6907 6896 6895 6894 ] final  120.33 input  -60.11 | X-H torsion
[ 7974 7965 7964 7962 ] final  169.82 input  175.53 | X-H torsion
[ 8008 7997 7996 7995 ] final  -17.06 input   59.86 | X-H torsion
[ 10167 10162 10161 10158 ] final   48.72 input  -65.29 | X-H torsion
[ 10718 10713 10712 10709 ] final -126.34 input   66.30 | X-H torsion
[ 10763 10752 10751 10750 ] final  -53.46 input  -60.55 | X-H torsion
[ 11005 11000 10999 10996 ] final   36.59 input  -57.11 | X-H torsion

> <Gold.Protein.ActiveResidues>
 VAL166  LYS551  ARG553  GLY616  TRP617  ASP618  TYR619  PRO620  LYS621  CYS622 
 ASP623  PHE694  ASN695  SER759  ASP760  ASP761  ALA762  ILE779  LEU786  VAL792 
 PHE793  MET794  SER795  GLU796  ALA797  LYS798  CYS799  TRP800  GLU811  SER814 

> <Gold.Protein.RotatedAtoms>
  152.4406  133.7441  159.6656 H   0  0  0  0  0  0  0  0  0  0  0  0  # atno 6907 bound_to 6896
  150.8296  133.8103  159.3110 H   0  0  0  0  0  0  0  0  0  0  0  0  # atno 6908 bound_to 6896
  151.5761  135.1063  160.0058 H   0  0  0  0  0  0  0  0  0  0  0  0  # atno 6909 bound_to 6896
  144.7343  139.9111  143.6415 H   0  0  0  0  0  0  0  0  0  0  0  0  # atno 7974 bound_to 7965
  154.5006  140.2153  155.9354 H   0  0  0  0  0  0  0  0  0  0  0  0  # atno 8008 bound_to 7997
  156.1429  140.3176  155.8491 H   0  0  0  0  0  0  0  0  0  0  0  0  # atno 8009 bound_to 7997
  155.4086  140.0489  157.3023 H   0  0  0  0  0  0  0  0  0  0  0  0  # atno 8010 bound_to 7997
  140.2903  144.3054  150.6242 H   0  0  0  0  0  0  0  0  0  0  0  0  # atno 10167 bound_to 10162
  156.1756  130.6697  151.0238 H   0  0  0  0  0  0  0  0  0  0  0  0  # atno 10718 bound_to 10713
  154.1591  135.6477  153.4981 H   0  0  0  0  0  0  0  0  0  0  0  0  # atno 10763 bound_to 10752
  153.0115  135.5356  154.6729 H   0  0  0  0  0  0  0  0  0  0  0  0  # atno 10764 bound_to 10752
  154.6038  135.2946  155.0479 H   0  0  0  0  0  0  0  0  0  0  0  0  # atno 10765 bound_to 10752
  140.2310  134.3527  155.7964 H   0  0  0  0  0  0  0  0  0  0  0  0  # atno 11005 bound_to 11000
  146.1000  139.3995  143.0352 LP  0  0  0  0  0  0  0  0  0  0  0  0  # atno 17320 bound_to 7965
  145.7591  140.9942  143.1209 LP  0  0  0  0  0  0  0  0  0  0  0  0  # atno 17321 bound_to 7965
  140.5738  143.2178  151.7552 LP  0  0  0  0  0  0  0  0  0  0  0  0  # atno 17342 bound_to 10162
  139.4939  144.4179  152.0009 LP  0  0  0  0  0  0  0  0  0  0  0  0  # atno 17343 bound_to 10162
  157.6833  131.0832  150.7310 LP  0  0  0  0  0  0  0  0  0  0  0  0  # atno 17370 bound_to 10713
  156.7368  130.4726  149.5486 LP  0  0  0  0  0  0  0  0  0  0  0  0  # atno 17371 bound_to 10713
  141.2217  133.7245  156.8731 LP  0  0  0  0  0  0  0  0  0  0  0  0  # atno 17394 bound_to 11000
  140.1750  134.9073  157.2880 LP  0  0  0  0  0  0  0  0  0  0  0  0  # atno 17395 bound_to 11000

$$$$
