AV-unprocessed.smi:220|AV-procd|sdf|1682|dock2
  -GOLD-   2262020113D 1   1.00000     0.00000
 Structure written by MMmdl.
 51 55  0  0  0  0  0  0  0  0  1 V2000
  149.9262  142.2656  155.7641 N   0  0  0  0  0  0  0  0  0  0  0  0
  150.8495  141.4951  156.3438 C   0  0  0  0  0  0  0  0  0  0  0  0
  151.3921  140.5653  155.7491 O   0  0  0  0  0  0  0  0  0  0  0  0
  151.2201  141.8358  157.7961 C   0  0  2  0  0  0  0  0  0  0  0  0
  151.8445  143.2413  157.9219 C   0  0  1  0  0  0  0  0  0  0  0  0
  150.8825  144.3724  158.3223 C   0  0  0  0  0  0  0  0  0  0  0  0
  151.6640  145.2010  159.3435 C   0  0  0  0  0  0  0  0  0  0  0  0
  152.4870  144.1658  160.1112 C   0  0  0  0  0  0  0  0  0  0  0  0
  152.8818  143.1329  159.0465 C   0  0  1  0  0  0  0  0  0  0  0  0
  152.8472  141.6642  159.4797 C   0  0  0  0  0  0  0  0  0  0  0  0
  152.2500  140.9606  158.3562 N   0  0  0  0  0  0  0  0  0  0  0  0
  151.9242  139.6731  158.6117 C   0  0  0  0  0  0  0  0  0  0  0  0
  152.9130  138.8826  159.0953 N   0  0  0  0  0  0  0  0  0  0  0  0
  152.6687  137.5983  159.3704 C   0  0  0  0  0  0  0  0  0  0  0  0
  151.5264  136.9201  159.2429 N   0  0  0  0  0  0  0  0  0  0  0  0
  150.5255  137.7166  158.7688 C   0  0  0  0  0  0  0  0  0  0  0  0
  150.6350  139.0950  158.4306 C   0  0  0  0  0  0  0  0  0  0  0  0
  149.4055  139.5710  157.9904 N   0  0  0  0  0  0  0  0  0  0  0  0
  148.6190  138.5319  158.0530 C   0  0  0  0  0  0  0  0  0  0  0  0
  149.2066  137.3776  158.5192 N   0  0  0  0  0  0  0  0  0  0  0  0
  148.5691  136.0810  158.6905 C   0  0  0  0  0  0  0  0  0  0  0  0
  147.5497  136.0356  159.8466 C   0  0  0  0  0  0  0  0  0  0  0  0
  146.9591  134.6219  159.9894 C   0  0  0  0  0  0  0  0  0  0  0  0
  146.0949  134.5348  161.1039 O   0  0  0  0  0  0  0  0  0  0  0  0
  148.0053  136.6677  161.1698 C   0  0  0  0  0  0  0  0  0  0  0  0
  146.8182  137.4833  161.2558 O   0  0  0  0  0  0  0  0  0  0  0  0
  146.5209  137.1741  159.8777 C   0  0  0  0  0  0  0  0  0  0  0  0
  149.6505  142.0841  154.8098 H   0  0  0  0  0  0  0  0  0  0  0  0
  149.5091  143.0275  156.2785 H   0  0  0  0  0  0  0  0  0  0  0  0
  150.3243  141.7769  158.4136 H   0  0  0  0  0  0  0  0  0  0  0  0
  152.3702  143.5187  157.0057 H   0  0  0  0  0  0  0  0  0  0  0  0
  150.5577  144.9645  157.4663 H   0  0  0  0  0  0  0  0  0  0  0  0
  149.9887  143.9708  158.8010 H   0  0  0  0  0  0  0  0  0  0  0  0
  152.3309  145.8917  158.8259 H   0  0  0  0  0  0  0  0  0  0  0  0
  151.0143  145.7874  159.9939 H   0  0  0  0  0  0  0  0  0  0  0  0
  153.3524  144.6038  160.6088 H   0  0  0  0  0  0  0  0  0  0  0  0
  151.8597  143.7109  160.8785 H   0  0  0  0  0  0  0  0  0  0  0  0
  153.8631  143.3778  158.6366 H   0  0  0  0  0  0  0  0  0  0  0  0
  153.8491  141.2883  159.6906 H   0  0  0  0  0  0  0  0  0  0  0  0
  152.2420  141.5263  160.3772 H   0  0  0  0  0  0  0  0  0  0  0  0
  153.5089  137.0333  159.7463 H   0  0  0  0  0  0  0  0  0  0  0  0
  147.5809  138.5825  157.7599 H   0  0  0  0  0  0  0  0  0  0  0  0
  148.0858  135.8263  157.7464 H   0  0  0  0  0  0  0  0  0  0  0  0
  149.3448  135.3273  158.8304 H   0  0  0  0  0  0  0  0  0  0  0  0
  146.4177  134.3176  159.0934 H   0  0  0  0  0  0  0  0  0  0  0  0
  147.7528  133.8866  160.1262 H   0  0  0  0  0  0  0  0  0  0  0  0
  146.1316  133.6542  161.4446 H   0  0  0  0  0  0  0  0  0  0  0  0
  148.0911  135.9604  161.9957 H   0  0  0  0  0  0  0  0  0  0  0  0
  148.9039  137.2806  161.0871 H   0  0  0  0  0  0  0  0  0  0  0  0
  146.7616  138.0068  159.2150 H   0  0  0  0  0  0  0  0  0  0  0  0
  145.4899  136.8491  159.7336 H   0  0  0  0  0  0  0  0  0  0  0  0
  1  2  1  0  0  0  0
  1 28  1  0  0  0  0
  1 29  1  0  0  0  0
  2  3  2  0  0  0  0
  2  4  1  0  0  0  0
  4 11  1  0  0  0  0
  4  5  1  0  0  0  0
  4 30  1  0  0  0  0
  5  9  1  0  0  0  0
  5  6  1  0  0  0  0
  5 31  1  0  0  0  0
  6  7  1  0  0  0  0
  6 32  1  0  0  0  0
  6 33  1  0  0  0  0
  7  8  1  0  0  0  0
  7 34  1  0  0  0  0
  7 35  1  0  0  0  0
  8  9  1  0  0  0  0
  8 36  1  0  0  0  0
  8 37  1  0  0  0  0
  9 10  1  0  0  0  0
  9 38  1  0  0  0  0
 10 11  1  0  0  0  0
 10 39  1  0  0  0  0
 10 40  1  0  0  0  0
 11 12  1  0  0  0  0
 12 17  1  0  0  0  0
 12 13  2  0  0  0  0
 13 14  1  0  0  0  0
 14 15  2  0  0  0  0
 14 41  1  0  0  0  0
 15 16  1  0  0  0  0
 16 20  1  0  0  0  0
 16 17  2  0  0  0  0
 17 18  1  0  0  0  0
 18 19  2  0  0  0  0
 19 20  1  0  0  0  0
 19 42  1  0  0  0  0
 20 21  1  0  0  0  0
 21 22  1  0  0  0  0
 21 43  1  0  0  0  0
 21 44  1  0  0  0  0
 22 27  1  0  0  0  0
 22 23  1  0  0  0  0
 22 25  1  0  0  0  0
 23 24  1  0  0  0  0
 23 45  1  0  0  0  0
 23 46  1  0  0  0  0
 24 47  1  0  0  0  0
 25 26  1  0  0  0  0
 25 48  1  0  0  0  0
 25 49  1  0  0  0  0
 26 27  1  0  0  0  0
 27 50  1  0  0  0  0
 27 51  1  0  0  0  0
M  END
> <s_m_source_file>
AV-unprocessed.smi

> <i_m_source_file_index>
220

> <i_lp_mmshare_version>
43012

> <i_f3d_flags>
0

> <s_epik_input>
W0NIMl0xW0NIMl1bQ0gyXVtDQEhdKFtDQEhdMTIpW0NIMl1OKFtDQEBIXTJDKD1PKVtOSDJdKWMobltjSF1uMyljKGMzNCluW2NIXW40W0NIMl1DNShbQ0gyXVtPSF0pW0NIMl1PW0NIMl01

> <s_epik_cmdline>
J2VwaWtfcHl0aG9uJywgJy1waCcsICc3LjAnLCAnLXRuJywgJzgnLCAnLW1hJywgJzIwMCcsICctbWV0YWxfYmluZGluZycsICctaW1hZScsICc8aW5maWxlLm1hZT4nLCAnLW9tYWUnLCAnPG91dGZpbGUubWFlPic=

> <r_lp_tautomer_probability>
1

> <r_epik_Ionization_Penalty>
0.00118987

> <r_epik_Ionization_Penalty_Charging>
0

> <r_epik_Ionization_Penalty_Neutral>
0.00118987

> <r_epik_State_Penalty>
0.000654261

> <r_epik_Charging_Adjusted_Penalty>
0.000654261

> <i_epik_Tot_Q>
0

> <i_epik_Tot_abs_Q>
0

> <r_epik_Metal_State_Penalty>
-0

> <b_epik_Metal_Only>
0

> <s_lp_Force_Field>
OPLS_2005

> <r_lp_Energy>
61.293

> <b_lp_Chiralities_Consistent>
1

> <s_lp_Variant>
AV-unprocessed.smi:220-1

> <Gold.Version>
5.8.1

> <Gold.Id.Protein>
6NUR|6NUR_protein|mol2

> <Gold.PLP.Fitness>
54.0027

> <Gold.PLP.PLP>
-44.9362

> <Gold.PLP.part.hbond>
-4.2037

> <Gold.PLP.part.metal>
0.0000

> <Gold.PLP.part.buried>
-5.6400

> <Gold.PLP.part.nonpolar>
-34.9920

> <Gold.PLP.part.repulsive>
0.1635

> <Gold.PLP.ligand.clash>
0.0000

> <Gold.PLP.ligand.torsion>
0.3170

> <Gold.PLP.Chemscore.Hbond>
3.0909

> <Gold.PLP.Chemscore.CHOScore>
0.0000

> <Gold.PLP.Chemscore.Metal>
0.0000

> <Gold.Chemscore.Hbonds>
donor molecule, donor type, donor heavy atom, donor atom, acceptor molecule, acceptor atom, score
      L1  H     1    29       P1  8028  0.59
      P1  H  6896  6909       L1    15  1.00
      P1  H  6934  6947       L1    26  0.70
      P1  H  7989  7998       L1     3  0.31

> <Gold.PLP.Chemscore.Internal.Correction>
0.4280

> <Gold.Rescore>
     Score         DG    S(hbond)    S(metal)    S(lipo)     H(rot)  DE(clash)    DE(int)     intcor
     13.12     -17.76       2.76        0.00      97.69       3.27       0.07       4.56       ----

> <Gold.Chemscore.Fitness>
13.1194

> <Gold.Chemscore.DG>
-17.7572

> <Gold.Chemscore.ZeroCoef>
-5.4800

> <Gold.Chemscore.Hbond>
2.7604

> <Gold.Chemscore.Metal>
0.0000

> <Gold.Chemscore.Lipo>
97.6895

> <Gold.Chemscore.Internal_Hbond>
0.0000

> <Gold.Chemscore.DEClash>
0.0747

> <Gold.Chemscore.DEInternal>
4.5631

> <Gold.Chemscore.Rot>
3.2703

> <Gold.Chemscore.Internal.Correction>
   9.000000E+99

> <Gold.Chemscore.Hbonds>
donor molecule, donor type, donor heavy atom, donor atom, acceptor molecule, acceptor atom, score
      L1  H     1    29       P1  8028  0.60
      P1  H  6896  6909       L1    15  0.95
      P1  H  6934  6947       L1    26  0.06
      P1  H  7989  7998       L1     3  0.28

> <Gold.Chemscore.Hbond.Weighted>
-9.2196

> <Gold.Chemscore.Metal.Weighted>
-0.0000

> <Gold.Chemscore.Lipo.Weighted>
-11.4297

> <Gold.Chemscore.Internal_Hbond.Weighted>
0.0000

> <Gold.Chemscore.DEClash.Weighted>
0.0747

> <Gold.Chemscore.DEInternal.Weighted>
4.5631

> <Gold.Chemscore.Rot.Weighted>
8.3721

> <Gold.Chemscore.Internal.Correction.Weighted>
   9.000000E+99

> <Gold.Protein.RotatedTorsions>
[ 6907 6896 6895 6894 ] final  110.63 input  -60.11 | X-H torsion
[ 7974 7965 7964 7962 ] final   -1.62 input  175.53 | X-H torsion
[ 8008 7997 7996 7995 ] final   35.19 input   59.86 | X-H torsion
[ 10167 10162 10161 10158 ] final    2.30 input  -65.29 | X-H torsion
[ 10718 10713 10712 10709 ] final   98.53 input   66.30 | X-H torsion
[ 10763 10752 10751 10750 ] final   -8.23 input  -60.55 | X-H torsion
[ 11005 11000 10999 10996 ] final   -2.24 input  -57.11 | X-H torsion

> <Gold.Protein.ActiveResidues>
 VAL166  LYS551  ARG553  GLY616  TRP617  ASP618  TYR619  PRO620  LYS621  CYS622 
 ASP623  PHE694  ASN695  SER759  ASP760  ASP761  ALA762  ILE779  LEU786  VAL792 
 PHE793  MET794  SER795  GLU796  ALA797  LYS798  CYS799  TRP800  GLU811  SER814 

> <Gold.Protein.RotatedAtoms>
  152.5010  133.8773  159.7328 H   0  0  0  0  0  0  0  0  0  0  0  0  # atno 6907 bound_to 6896
  150.9244  133.6832  159.2831 H   0  0  0  0  0  0  0  0  0  0  0  0  # atno 6908 bound_to 6896
  151.4198  135.1001  159.9663 H   0  0  0  0  0  0  0  0  0  0  0  0  # atno 6909 bound_to 6896
  146.2415  140.1447  142.8335 H   0  0  0  0  0  0  0  0  0  0  0  0  # atno 7974 bound_to 7965
  155.1670  140.3288  155.4400 H   0  0  0  0  0  0  0  0  0  0  0  0  # atno 8008 bound_to 7997
  156.2523  140.1950  156.6725 H   0  0  0  0  0  0  0  0  0  0  0  0  # atno 8009 bound_to 7997
  154.6364  140.0576  156.9780 H   0  0  0  0  0  0  0  0  0  0  0  0  # atno 8010 bound_to 7997
  140.6642  143.7225  150.7794 H   0  0  0  0  0  0  0  0  0  0  0  0  # atno 10167 bound_to 10162
  157.6894  131.0643  150.4811 H   0  0  0  0  0  0  0  0  0  0  0  0  # atno 10718 bound_to 10713
  153.4376  135.7013  153.6190 H   0  0  0  0  0  0  0  0  0  0  0  0  # atno 10763 bound_to 10752
  153.4579  135.3743  155.2321 H   0  0  0  0  0  0  0  0  0  0  0  0  # atno 10764 bound_to 10752
  154.8727  135.4012  154.3769 H   0  0  0  0  0  0  0  0  0  0  0  0  # atno 10765 bound_to 10752
  140.6562  133.9360  155.8409 H   0  0  0  0  0  0  0  0  0  0  0  0  # atno 11005 bound_to 11000
  145.0217  140.8799  143.5163 LP  0  0  0  0  0  0  0  0  0  0  0  0  # atno 17320 bound_to 7965
  145.1497  139.2522  143.5447 LP  0  0  0  0  0  0  0  0  0  0  0  0  # atno 17321 bound_to 7965
  140.0899  143.4888  152.2484 LP  0  0  0  0  0  0  0  0  0  0  0  0  # atno 17342 bound_to 10162
  139.5885  144.7540  151.3461 LP  0  0  0  0  0  0  0  0  0  0  0  0  # atno 17343 bound_to 10162
  156.5143  130.4146  149.6284 LP  0  0  0  0  0  0  0  0  0  0  0  0  # atno 17370 bound_to 10713
  156.3212  130.7281  151.2194 LP  0  0  0  0  0  0  0  0  0  0  0  0  # atno 17371 bound_to 10713
  141.0499  134.0499  157.3796 LP  0  0  0  0  0  0  0  0  0  0  0  0  # atno 17394 bound_to 11000
  139.9028  135.0170  156.7350 LP  0  0  0  0  0  0  0  0  0  0  0  0  # atno 17395 bound_to 11000

$$$$
