AV-unprocessed.smi:799|AV-procd|sdf|3786|dock10
  -GOLD-   22720 1223D 1   1.00000     0.00000
 Structure written by MMmdl.
 47 48  0  0  0  0  0  0  0  0  1 V2000
  143.4934  132.4226  150.3443 C   0  0  0  0  0  0  0  0  0  0  0  0
  144.6342  133.0234  151.1111 C   0  0  0  0  0  0  0  0  0  0  0  0
  144.8818  134.4007  151.3803 C   0  0  0  0  0  0  0  0  0  0  0  0
  146.0404  134.3627  152.1068 C   0  0  0  0  0  0  0  0  0  0  0  0
  146.7522  135.4003  152.6211 N   0  0  0  0  0  0  0  0  0  0  0  0
  146.3282  136.3852  153.4318 C   0  0  0  0  0  0  0  0  0  0  0  0
  145.1831  136.4995  153.8688 O   0  0  0  0  0  0  0  0  0  0  0  0
  147.3318  137.2326  153.7186 N   0  0  0  0  0  0  0  0  0  0  0  0
  147.3210  138.4055  154.6101 C   0  0  2  0  0  0  0  0  0  0  0  0
  146.9853  137.8718  156.0225 C   0  0  0  0  0  0  0  0  0  0  0  0
  146.1954  139.3844  154.1633 C   0  0  0  0  0  0  0  0  0  0  0  0
  146.3865  139.8602  152.8438 O   0  0  0  0  0  0  0  0  0  0  0  0
  148.7207  139.1226  154.5965 C   0  0  0  0  0  0  0  0  0  0  0  0
  149.9206  138.1883  154.9092 C   0  0  0  0  0  0  0  0  0  0  0  0
  151.2664  138.9161  154.7597 C   0  0  0  0  0  0  0  0  0  0  0  0
  151.3276  140.1635  155.6512 C   0  0  0  0  0  0  0  0  0  0  0  0
  150.1520  141.1040  155.3554 C   0  0  0  0  0  0  0  0  0  0  0  0
  148.8048  140.3781  155.5034 C   0  0  0  0  0  0  0  0  0  0  0  0
  146.4410  133.0500  152.2375 N   0  0  0  0  0  0  0  0  0  0  0  0
  147.5952  132.4842  152.9093 C   0  0  0  0  0  0  0  0  0  0  0  0
  145.5642  132.2261  151.6243 N   0  0  0  0  0  0  0  0  0  0  0  0
  142.8465  133.1963  149.9302 H   0  0  0  0  0  0  0  0  0  0  0  0
  142.8818  131.7867  150.9846 H   0  0  0  0  0  0  0  0  0  0  0  0
  143.8544  131.8140  149.5151 H   0  0  0  0  0  0  0  0  0  0  0  0
  144.2983  135.2573  151.0780 H   0  0  0  0  0  0  0  0  0  0  0  0
  147.7343  135.4071  152.3884 H   0  0  0  0  0  0  0  0  0  0  0  0
  148.2254  137.0276  153.2968 H   0  0  0  0  0  0  0  0  0  0  0  0
  146.8710  138.6781  156.7465 H   0  0  0  0  0  0  0  0  0  0  0  0
  147.7512  137.1945  156.3989 H   0  0  0  0  0  0  0  0  0  0  0  0
  146.0477  137.3147  156.0250 H   0  0  0  0  0  0  0  0  0  0  0  0
  145.2215  138.8968  154.1865 H   0  0  0  0  0  0  0  0  0  0  0  0
  146.1262  140.2419  154.8328 H   0  0  0  0  0  0  0  0  0  0  0  0
  145.5529  140.1496  152.5058 H   0  0  0  0  0  0  0  0  0  0  0  0
  148.8770  139.4867  153.5808 H   0  0  0  0  0  0  0  0  0  0  0  0
  149.8423  137.7993  155.9241 H   0  0  0  0  0  0  0  0  0  0  0  0
  149.9278  137.3220  154.2485 H   0  0  0  0  0  0  0  0  0  0  0  0
  152.0844  138.2407  155.0114 H   0  0  0  0  0  0  0  0  0  0  0  0
  151.4131  139.2029  153.7176 H   0  0  0  0  0  0  0  0  0  0  0  0
  151.3044  139.8661  156.7003 H   0  0  0  0  0  0  0  0  0  0  0  0
  152.2717  140.6866  155.4968 H   0  0  0  0  0  0  0  0  0  0  0  0
  150.1867  141.9617  156.0278 H   0  0  0  0  0  0  0  0  0  0  0  0
  150.2458  141.5014  154.3439 H   0  0  0  0  0  0  0  0  0  0  0  0
  148.0124  141.0859  155.2660 H   0  0  0  0  0  0  0  0  0  0  0  0
  148.6709  140.1007  156.5490 H   0  0  0  0  0  0  0  0  0  0  0  0
  148.2453  133.2719  153.2900 H   0  0  0  0  0  0  0  0  0  0  0  0
  148.1620  131.8677  152.2112 H   0  0  0  0  0  0  0  0  0  0  0  0
  147.2654  131.8655  153.7445 H   0  0  0  0  0  0  0  0  0  0  0  0
  1  2  1  0  0  0  0
  1 22  1  0  0  0  0
  1 23  1  0  0  0  0
  1 24  1  0  0  0  0
  2 21  2  0  0  0  0
  2  3  1  0  0  0  0
  3  4  2  0  0  0  0
  3 25  1  0  0  0  0
  4  5  1  0  0  0  0
  4 19  1  0  0  0  0
  5  6  1  0  0  0  0
  5 26  1  0  0  0  0
  6  7  2  0  0  0  0
  6  8  1  0  0  0  0
  8  9  1  0  0  0  0
  8 27  1  0  0  0  0
  9 10  1  0  0  0  0
  9 11  1  0  0  0  0
  9 13  1  0  0  0  0
 10 28  1  0  0  0  0
 10 29  1  0  0  0  0
 10 30  1  0  0  0  0
 11 12  1  0  0  0  0
 11 31  1  0  0  0  0
 11 32  1  0  0  0  0
 12 33  1  0  0  0  0
 13 18  1  0  0  0  0
 13 14  1  0  0  0  0
 13 34  1  0  0  0  0
 14 15  1  0  0  0  0
 14 35  1  0  0  0  0
 14 36  1  0  0  0  0
 15 16  1  0  0  0  0
 15 37  1  0  0  0  0
 15 38  1  0  0  0  0
 16 17  1  0  0  0  0
 16 39  1  0  0  0  0
 16 40  1  0  0  0  0
 17 18  1  0  0  0  0
 17 41  1  0  0  0  0
 17 42  1  0  0  0  0
 18 43  1  0  0  0  0
 18 44  1  0  0  0  0
 19 20  1  0  0  0  0
 19 21  1  0  0  0  0
 20 45  1  0  0  0  0
 20 46  1  0  0  0  0
 20 47  1  0  0  0  0
M  END
> <s_m_source_file>
AV-unprocessed.smi

> <i_m_source_file_index>
799

> <i_lp_mmshare_version>
43012

> <i_f3d_flags>
0

> <s_epik_input>
W0NIM11jMVtjSF1jKG4objEpW0NIM10pW05IXUMoPU8pW05IXVtDQEBdKFtDSDNdKShbQ0gyXVtPSF0pW0NIXTJbQ0gyXVtDSDJdW0NIMl1bQ0gyXVtDSDJdMg==

> <s_epik_cmdline>
J2VwaWtfcHl0aG9uJywgJy1waCcsICc3LjAnLCAnLXRuJywgJzgnLCAnLW1hJywgJzIwMCcsICctbWV0YWxfYmluZGluZycsICctaW1hZScsICc8aW5maWxlLm1hZT4nLCAnLW9tYWUnLCAnPG91dGZpbGUubWFlPic=

> <r_lp_tautomer_probability>
1

> <r_epik_Ionization_Penalty>
9.86025e-05

> <r_epik_Ionization_Penalty_Charging>
0

> <r_epik_Ionization_Penalty_Neutral>
9.86025e-05

> <r_epik_State_Penalty>
-0

> <r_epik_Charging_Adjusted_Penalty>
0

> <i_epik_Tot_Q>
0

> <i_epik_Tot_abs_Q>
0

> <r_epik_Metal_State_Penalty>
-0

> <b_epik_Metal_Only>
0

> <s_lp_Force_Field>
OPLS_2005

> <r_lp_Energy>
22.5502

> <b_lp_Chiralities_Consistent>
1

> <s_lp_Variant>
AV-unprocessed.smi:799-2

> <Gold.Version>
5.8.1

> <Gold.Id.Protein>
6NUR|6NUR_protein|mol2

> <Gold.PLP.Fitness>
38.5680

> <Gold.PLP.PLP>
-30.9863

> <Gold.PLP.part.hbond>
-2.7606

> <Gold.PLP.part.metal>
0.0000

> <Gold.PLP.part.buried>
-2.2869

> <Gold.PLP.part.nonpolar>
-25.4587

> <Gold.PLP.part.repulsive>
0.1846

> <Gold.PLP.ligand.clash>
0.0000

> <Gold.PLP.ligand.torsion>
0.5274

> <Gold.PLP.Chemscore.Hbond>
2.8560

> <Gold.PLP.Chemscore.CHOScore>
0.0000

> <Gold.PLP.Chemscore.Metal>
0.0000

> <Gold.Chemscore.Hbonds>
donor molecule, donor type, donor heavy atom, donor atom, acceptor molecule, acceptor atom, score
      L1  H     5    26       P1  7948  0.96
      L1  H     8    27       P1  7948  0.85
      L1  H    12    33       P1 10175  1.00

> <Gold.PLP.Chemscore.Internal.Correction>
0.0686

> <Gold.Rescore>
     Score         DG    S(hbond)    S(metal)    S(lipo)     H(rot)  DE(clash)    DE(int)     intcor
     16.64     -17.75       2.86        0.00      67.30       2.01       0.12       0.98       ----

> <Gold.Chemscore.Fitness>
16.6442

> <Gold.Chemscore.DG>
-17.7496

> <Gold.Chemscore.ZeroCoef>
-5.4800

> <Gold.Chemscore.Hbond>
2.8599

> <Gold.Chemscore.Metal>
0.0000

> <Gold.Chemscore.Lipo>
67.3020

> <Gold.Chemscore.Internal_Hbond>
0.0000

> <Gold.Chemscore.DEClash>
0.1207

> <Gold.Chemscore.DEInternal>
0.9847

> <Gold.Chemscore.Rot>
2.0144

> <Gold.Chemscore.Internal.Correction>
   9.000000E+99

> <Gold.Chemscore.Hbonds>
donor molecule, donor type, donor heavy atom, donor atom, acceptor molecule, acceptor atom, score
      L1  H     5    26       P1  7948  0.86
      L1  H     8    27       P1  7948  0.83
      L1  H    12    33       P1 10175  0.85

> <Gold.Chemscore.Hbond.Weighted>
-9.5520

> <Gold.Chemscore.Metal.Weighted>
-0.0000

> <Gold.Chemscore.Lipo.Weighted>
-7.8743

> <Gold.Chemscore.Internal_Hbond.Weighted>
0.0000

> <Gold.Chemscore.DEClash.Weighted>
0.1207

> <Gold.Chemscore.DEInternal.Weighted>
0.9847

> <Gold.Chemscore.Rot.Weighted>
5.1568

> <Gold.Chemscore.Internal.Correction.Weighted>
   9.000000E+99

> <Gold.Protein.RotatedTorsions>
[ 6907 6896 6895 6894 ] final   18.88 input  -60.11 | X-H torsion
[ 7974 7965 7964 7962 ] final  -18.81 input  175.53 | X-H torsion
[ 8008 7997 7996 7995 ] final -170.42 input   59.86 | X-H torsion
[ 10167 10162 10161 10158 ] final -135.66 input  -65.29 | X-H torsion
[ 10718 10713 10712 10709 ] final -110.74 input   66.30 | X-H torsion
[ 10763 10752 10751 10750 ] final   23.14 input  -60.55 | X-H torsion
[ 11005 11000 10999 10996 ] final  -60.70 input  -57.11 | X-H torsion

> <Gold.Protein.ActiveResidues>
 VAL166  LYS551  ARG553  GLY616  TRP617  ASP618  TYR619  PRO620  LYS621  CYS622 
 ASP623  PHE694  ASN695  SER759  ASP760  ASP761  ALA762  ILE779  LEU786  VAL792 
 PHE793  MET794  SER795  GLU796  ALA797  LYS798  CYS799  TRP800  GLU811  SER814 

> <Gold.Protein.RotatedAtoms>
  151.8722  135.0485  160.0480 H   0  0  0  0  0  0  0  0  0  0  0  0  # atno 6907 bound_to 6896
  152.2579  133.5267  159.5372 H   0  0  0  0  0  0  0  0  0  0  0  0  # atno 6908 bound_to 6896
  150.7106  134.0787  159.3932 H   0  0  0  0  0  0  0  0  0  0  0  0  # atno 6909 bound_to 6896
  146.1873  140.3974  142.8471 H   0  0  0  0  0  0  0  0  0  0  0  0  # atno 7974 bound_to 7965
  155.9181  140.1069  157.1228 H   0  0  0  0  0  0  0  0  0  0  0  0  # atno 8008 bound_to 7997
  154.4050  140.1261  156.4709 H   0  0  0  0  0  0  0  0  0  0  0  0  # atno 8009 bound_to 7997
  155.7229  140.3469  155.5026 H   0  0  0  0  0  0  0  0  0  0  0  0  # atno 8010 bound_to 7997
  139.8756  143.6903  152.2634 H   0  0  0  0  0  0  0  0  0  0  0  0  # atno 10167 bound_to 10162
  156.0608  130.5831  150.8279 H   0  0  0  0  0  0  0  0  0  0  0  0  # atno 10718 bound_to 10713
  153.0861  135.6633  153.9947 H   0  0  0  0  0  0  0  0  0  0  0  0  # atno 10763 bound_to 10752
  153.9556  135.2979  155.3438 H   0  0  0  0  0  0  0  0  0  0  0  0  # atno 10764 bound_to 10752
  154.7269  135.5140  153.8973 H   0  0  0  0  0  0  0  0  0  0  0  0  # atno 10765 bound_to 10752
  141.1297  133.6624  156.5263 H   0  0  0  0  0  0  0  0  0  0  0  0  # atno 11005 bound_to 11000
  144.8421  140.6873  143.6222 LP  0  0  0  0  0  0  0  0  0  0  0  0  # atno 17320 bound_to 7965
  145.3899  139.1619  143.4235 LP  0  0  0  0  0  0  0  0  0  0  0  0  # atno 17321 bound_to 7965
  139.7243  144.7596  151.0904 LP  0  0  0  0  0  0  0  0  0  0  0  0  # atno 17342 bound_to 10162
  140.7753  143.5168  150.9585 LP  0  0  0  0  0  0  0  0  0  0  0  0  # atno 17343 bound_to 10162
  157.5614  131.0946  150.9553 LP  0  0  0  0  0  0  0  0  0  0  0  0  # atno 17370 bound_to 10713
  156.9790  130.5519  149.5295 LP  0  0  0  0  0  0  0  0  0  0  0  0  # atno 17371 bound_to 10713
  140.4251  134.7152  157.4911 LP  0  0  0  0  0  0  0  0  0  0  0  0  # atno 17394 bound_to 11000
  140.0332  134.6375  155.9078 LP  0  0  0  0  0  0  0  0  0  0  0  0  # atno 17395 bound_to 11000

$$$$
