AV-unprocessed.smi:1049|AV-procd|sdf|4611|dock2
  -GOLD-   22720 3103D 1   1.00000     0.00000
 Structure written by MMmdl.
 41 42  0  0  0  0  0  0  0  0  2 V2000
  154.3313  140.6473  160.9647 C   0  0  0  0  0  0  0  0  0  0  0  0
  153.1301  141.5833  160.7709 C   0  0  1  0  0  0  0  0  0  0  0  0
  153.2528  142.8503  161.6455 C   0  0  0  0  0  0  0  0  0  0  0  0
  152.1187  143.8548  161.3675 C   0  0  0  0  0  0  0  0  0  0  0  0
  151.9875  144.1304  159.8593 C   0  0  0  0  0  0  0  0  0  0  0  0
  151.7741  142.8506  159.1619 N   0  0  0  0  0  0  0  0  0  0  0  0
  150.6120  142.4196  158.6079 C   0  0  0  0  0  0  0  0  0  0  0  0
  149.5157  142.9218  158.8599 O   0  0  0  0  0  0  0  0  0  0  0  0
  150.7390  141.3829  157.7617 N   0  0  0  0  0  0  0  0  0  0  0  0
  149.6417  140.7452  157.0440 C   0  0  0  0  0  0  0  0  0  0  0  0
  149.8366  140.8386  155.5204 C   0  0  0  0  0  0  0  0  0  0  0  0
  148.6091  141.2829  154.7808 C   0  0  0  0  0  0  0  0  0  0  0  0
  148.0583  142.5017  154.8471 N   0  3  0  0  0  0  0  0  0  0  0  0
  146.9342  142.5635  154.0704 C   0  0  0  0  0  0  0  0  0  0  0  0
  146.7801  141.3205  153.5157 C   0  0  0  0  0  0  0  0  0  0  0  0
  147.8149  140.5494  153.9804 N   0  0  0  0  0  0  0  0  0  0  0  0
  148.0530  139.1396  153.6541 C   0  0  0  0  0  0  0  0  0  0  0  0
  148.1390  138.4150  154.7696 F   0  0  0  0  0  0  0  0  0  0  0  0
  147.0840  138.6711  152.8670 F   0  0  0  0  0  0  0  0  0  0  0  0
  152.9473  141.9751  159.2888 C   0  0  0  0  0  0  0  0  0  0  0  0
  155.2624  141.1294  160.6647 H   0  0  0  0  0  0  0  0  0  0  0  0
  154.2203  139.7392  160.3717 H   0  0  0  0  0  0  0  0  0  0  0  0
  154.4317  140.3490  162.0086 H   0  0  0  0  0  0  0  0  0  0  0  0
  152.2371  141.0415  161.0868 H   0  0  0  0  0  0  0  0  0  0  0  0
  153.2596  142.5817  162.7024 H   0  0  0  0  0  0  0  0  0  0  0  0
  154.2096  143.3349  161.4455 H   0  0  0  0  0  0  0  0  0  0  0  0
  151.1767  143.4595  161.7499 H   0  0  0  0  0  0  0  0  0  0  0  0
  152.3058  144.7849  161.9048 H   0  0  0  0  0  0  0  0  0  0  0  0
  151.2046  144.8680  159.6847 H   0  0  0  0  0  0  0  0  0  0  0  0
  152.9029  144.5916  159.4854 H   0  0  0  0  0  0  0  0  0  0  0  0
  151.6662  141.0163  157.6011 H   0  0  0  0  0  0  0  0  0  0  0  0
  149.5488  139.7052  157.3619 H   0  0  0  0  0  0  0  0  0  0  0  0
  148.7151  141.2429  157.3313 H   0  0  0  0  0  0  0  0  0  0  0  0
  150.6378  141.5405  155.2915 H   0  0  0  0  0  0  0  0  0  0  0  0
  150.1156  139.8721  155.0991 H   0  0  0  0  0  0  0  0  0  0  0  0
  146.3422  143.4622  153.9766 H   0  0  0  0  0  0  0  0  0  0  0  0
  146.0252  140.9356  152.8453 H   0  0  0  0  0  0  0  0  0  0  0  0
  148.9971  139.0446  153.1166 H   0  0  0  0  0  0  0  0  0  0  0  0
  153.8312  142.5017  158.9254 H   0  0  0  0  0  0  0  0  0  0  0  0
  152.8672  141.0784  158.6724 H   0  0  0  0  0  0  0  0  0  0  0  0
  148.4253  143.2685  155.3969 H   0  0  0  0  0  0  0  0  0  0  0  0
  1  2  1  0  0  0  0
  1 21  1  0  0  0  0
  1 22  1  0  0  0  0
  1 23  1  0  0  0  0
  2 20  1  0  0  0  0
  2  3  1  0  0  0  0
  2 24  1  0  0  0  0
  3  4  1  0  0  0  0
  3 25  1  0  0  0  0
  3 26  1  0  0  0  0
  4  5  1  0  0  0  0
  4 27  1  0  0  0  0
  4 28  1  0  0  0  0
  5  6  1  0  0  0  0
  5 29  1  0  0  0  0
  5 30  1  0  0  0  0
  6  7  1  0  0  0  0
  6 20  1  0  0  0  0
  7  8  2  0  0  0  0
  7  9  1  0  0  0  0
  9 10  1  0  0  0  0
  9 31  1  0  0  0  0
 10 11  1  0  0  0  0
 10 32  1  0  0  0  0
 10 33  1  0  0  0  0
 11 12  1  0  0  0  0
 11 34  1  0  0  0  0
 11 35  1  0  0  0  0
 12 16  1  0  0  0  0
 12 13  2  0  0  0  0
 13 14  1  0  0  0  0
 13 41  1  0  0  0  0
 14 15  2  0  0  0  0
 14 36  1  0  0  0  0
 15 16  1  0  0  0  0
 15 37  1  0  0  0  0
 16 17  1  0  0  0  0
 17 18  1  0  0  0  0
 17 19  1  0  0  0  0
 17 38  1  0  0  0  0
 20 39  1  0  0  0  0
 20 40  1  0  0  0  0
M  CHG  1  13   1
M  END
> <s_m_source_file>
AV-unprocessed.smi

> <i_m_source_file_index>
1049

> <i_lp_mmshare_version>
43012

> <i_f3d_flags>
0

> <s_epik_input>
W0NIM11bQ0BASF0xW0NIMl1bQ0gyXVtDSDJdTihbQ0gyXTEpQyg9TylbTkhdW0NIMl1bQ0gyXWMybltjSF1bY0hdbjJbQ0hdKEYpRg==

> <s_epik_cmdline>
J2VwaWtfcHl0aG9uJywgJy1waCcsICc3LjAnLCAnLXRuJywgJzgnLCAnLW1hJywgJzIwMCcsICctbWV0YWxfYmluZGluZycsICctaW1hZScsICc8aW5maWxlLm1hZT4nLCAnLW9tYWUnLCAnPG91dGZpbGUubWFlPic=

> <r_lp_tautomer_probability>
1

> <r_epik_Ionization_Penalty>
1.09766

> <r_epik_Ionization_Penalty_Charging>
0

> <r_epik_Ionization_Penalty_Neutral>
1.09766

> <r_epik_State_Penalty>
1.15444

> <r_epik_Charging_Adjusted_Penalty>
1.15444

> <i_epik_Tot_Q>
1

> <i_epik_Tot_abs_Q>
1

> <r_epik_Metal_State_Penalty>
1.24204

> <b_epik_Metal_Only>
0

> <s_lp_Force_Field>
OPLS_2005

> <r_lp_Energy>
35.939

> <b_lp_Chiralities_Consistent>
1

> <s_lp_Variant>
AV-unprocessed.smi:1049-4

> <Gold.Version>
5.8.1

> <Gold.Id.Protein>
6NUR|6NUR_protein|mol2

> <Gold.PLP.Fitness>
51.6761

> <Gold.PLP.PLP>
-44.0819

> <Gold.PLP.part.hbond>
-1.3610

> <Gold.PLP.part.metal>
0.0000

> <Gold.PLP.part.buried>
-4.2897

> <Gold.PLP.part.nonpolar>
-38.9048

> <Gold.PLP.part.repulsive>
0.3573

> <Gold.PLP.ligand.clash>
0.2191

> <Gold.PLP.ligand.torsion>
0.6220

> <Gold.PLP.Chemscore.Hbond>
2.0000

> <Gold.PLP.Chemscore.CHOScore>
1.0000

> <Gold.PLP.Chemscore.Metal>
0.0000

> <Gold.Chemscore.Hbonds>
donor molecule, donor type, donor heavy atom, donor atom, acceptor molecule, acceptor atom, score
      L1  H    13    41       P1  8028  1.98
      L1  C    15    37       P1 10175  1.00

> <Gold.PLP.Chemscore.Internal.Correction>
0.0573

> <Gold.Rescore>
     Score         DG    S(hbond)    S(metal)    S(lipo)     H(rot)  DE(clash)    DE(int)     intcor
     15.11     -15.85       0.98        0.00      95.81       1.61       0.06       0.68       ----

> <Gold.Chemscore.Fitness>
15.1121

> <Gold.Chemscore.DG>
-15.8472

> <Gold.Chemscore.ZeroCoef>
-5.4800

> <Gold.Chemscore.Hbond>
0.9781

> <Gold.Chemscore.Metal>
0.0000

> <Gold.Chemscore.Lipo>
95.8084

> <Gold.Chemscore.Internal_Hbond>
0.0000

> <Gold.Chemscore.DEClash>
0.0576

> <Gold.Chemscore.DEInternal>
0.6775

> <Gold.Chemscore.Rot>
1.6051

> <Gold.Chemscore.Internal.Correction>
   9.000000E+99

> <Gold.Chemscore.Hbonds>
donor molecule, donor type, donor heavy atom, donor atom, acceptor molecule, acceptor atom, score
      L1  H    13    41       P1  8028  0.89

> <Gold.Chemscore.Hbond.Weighted>
-3.2668

> <Gold.Chemscore.Metal.Weighted>
-0.0000

> <Gold.Chemscore.Lipo.Weighted>
-11.2096

> <Gold.Chemscore.Internal_Hbond.Weighted>
0.0000

> <Gold.Chemscore.DEClash.Weighted>
0.0576

> <Gold.Chemscore.DEInternal.Weighted>
0.6775

> <Gold.Chemscore.Rot.Weighted>
4.1092

> <Gold.Chemscore.Internal.Correction.Weighted>
   9.000000E+99

> <Gold.Protein.RotatedTorsions>
[ 6907 6896 6895 6894 ] final  -13.93 input  -60.11 | X-H torsion
[ 7974 7965 7964 7962 ] final   24.17 input  175.53 | X-H torsion
[ 8008 7997 7996 7995 ] final -116.14 input   59.86 | X-H torsion
[ 10167 10162 10161 10158 ] final  -48.18 input  -65.29 | X-H torsion
[ 10718 10713 10712 10709 ] final  -57.33 input   66.30 | X-H torsion
[ 10763 10752 10751 10750 ] final  147.76 input  -60.55 | X-H torsion
[ 11005 11000 10999 10996 ] final -108.20 input  -57.11 | X-H torsion

> <Gold.Protein.ActiveResidues>
 VAL166  LYS551  ARG553  GLY616  TRP617  ASP618  TYR619  PRO620  LYS621  CYS622 
 ASP623  PHE694  ASN695  SER759  ASP760  ASP761  ALA762  ILE779  LEU786  VAL792 
 PHE793  MET794  SER795  GLU796  ALA797  LYS798  CYS799  TRP800  GLU811  SER814 

> <Gold.Protein.RotatedAtoms>
  151.3473  135.0877  159.9390 H   0  0  0  0  0  0  0  0  0  0  0  0  # atno 6907 bound_to 6896
  152.5196  133.9387  159.7626 H   0  0  0  0  0  0  0  0  0  0  0  0  # atno 6908 bound_to 6896
  150.9756  133.6245  159.2760 H   0  0  0  0  0  0  0  0  0  0  0  0  # atno 6909 bound_to 6896
  146.1950  139.7642  142.8804 H   0  0  0  0  0  0  0  0  0  0  0  0  # atno 7974 bound_to 7965
  155.0631  140.0393  157.2583 H   0  0  0  0  0  0  0  0  0  0  0  0  # atno 8008 bound_to 7997
  154.7043  140.2679  155.6665 H   0  0  0  0  0  0  0  0  0  0  0  0  # atno 8009 bound_to 7997
  156.2770  140.2734  156.1664 H   0  0  0  0  0  0  0  0  0  0  0  0  # atno 8010 bound_to 7997
  140.6742  143.2751  151.4034 H   0  0  0  0  0  0  0  0  0  0  0  0  # atno 10167 bound_to 10162
  156.1219  130.4165  150.0426 H   0  0  0  0  0  0  0  0  0  0  0  0  # atno 10718 bound_to 10713
  154.0437  135.2887  155.3351 H   0  0  0  0  0  0  0  0  0  0  0  0  # atno 10763 bound_to 10752
  154.6913  135.5225  153.8399 H   0  0  0  0  0  0  0  0  0  0  0  0  # atno 10764 bound_to 10752
  153.0589  135.6606  154.0639 H   0  0  0  0  0  0  0  0  0  0  0  0  # atno 10765 bound_to 10752
  141.0914  133.9048  157.2067 H   0  0  0  0  0  0  0  0  0  0  0  0  # atno 11005 bound_to 11000
  145.3672  141.0336  143.3251 LP  0  0  0  0  0  0  0  0  0  0  0  0  # atno 17320 bound_to 7965
  144.8562  139.5246  143.6833 LP  0  0  0  0  0  0  0  0  0  0  0  0  # atno 17321 bound_to 7965
  139.6026  144.1264  152.2214 LP  0  0  0  0  0  0  0  0  0  0  0  0  # atno 17342 bound_to 10162
  140.0653  144.5824  150.7232 LP  0  0  0  0  0  0  0  0  0  0  0  0  # atno 17343 bound_to 10162
  156.8362  130.9410  151.3634 LP  0  0  0  0  0  0  0  0  0  0  0  0  # atno 17370 bound_to 10713
  157.6402  130.8799  149.9434 LP  0  0  0  0  0  0  0  0  0  0  0  0  # atno 17371 bound_to 10713
  139.9741  135.0119  156.9586 LP  0  0  0  0  0  0  0  0  0  0  0  0  # atno 17394 bound_to 11000
  140.5243  134.0876  155.7300 LP  0  0  0  0  0  0  0  0  0  0  0  0  # atno 17395 bound_to 11000

$$$$
