AV-unprocessed.smi:1983|AV-procd|sdf|8035|dock7
  -GOLD-   2272010233D 1   1.00000     0.00000
 Structure written by MMmdl.
 50 51  0  0  0  0  0  0  0  0  2 V2000
  144.8395  134.3161  152.7696 C   0  0  0  0  0  0  0  0  0  0  0  0
  145.5807  134.6932  151.4772 C   0  0  1  0  0  0  0  0  0  0  0  0
  144.6432  134.8888  150.2672 C   0  0  0  0  0  0  0  0  0  0  0  0
  143.7572  133.7981  150.1159 O   0  0  0  0  0  0  0  0  0  0  0  0
  146.4152  135.8726  151.6952 N   0  0  0  0  0  0  0  0  0  0  0  0
  145.9725  137.0775  152.0801 C   0  0  0  0  0  0  0  0  0  0  0  0
  144.7902  137.3440  152.2979 O   0  0  0  0  0  0  0  0  0  0  0  0
  146.9743  137.9585  152.2096 N   0  0  0  0  0  0  0  0  0  0  0  0
  146.8074  139.3527  152.6074 C   0  0  0  0  0  0  0  0  0  0  0  0
  147.8418  139.8450  153.6099 C   0  0  0  0  0  0  0  0  0  0  0  0
  147.8466  141.1980  154.0130 C   0  0  0  0  0  0  0  0  0  0  0  0
  148.8065  141.6434  154.9448 C   0  0  0  0  0  0  0  0  0  0  0  0
  149.7517  140.7253  155.4585 C   0  0  0  0  0  0  0  0  0  0  0  0
  150.7413  141.0714  156.3878 N   0  0  0  0  0  0  0  0  0  0  0  0
  150.9303  140.0839  157.4425 C   0  0  0  0  0  0  0  0  0  0  0  0
  152.1143  140.4912  158.3389 C   0  0  2  0  0  0  0  0  0  0  0  0
  152.2984  139.5342  159.5212 C   0  0  0  0  0  0  0  0  0  0  0  0
  151.8732  141.7992  158.8529 O   0  0  0  0  0  0  0  0  0  0  0  0
  151.7610  142.7829  157.8264 C   0  0  2  0  0  0  0  0  0  0  0  0
  151.5791  144.1521  158.4893 C   0  0  0  0  0  0  0  0  0  0  0  0
  150.5769  142.4213  156.9092 C   0  0  0  0  0  0  0  0  0  0  0  0
  149.7212  139.4420  155.0368 N   0  3  0  0  0  0  0  0  0  0  0  0
  148.8179  138.9761  154.1472 C   0  0  0  0  0  0  0  0  0  0  0  0
  144.2311  133.4230  152.6249 H   0  0  0  0  0  0  0  0  0  0  0  0
  144.1800  135.1171  153.1059 H   0  0  0  0  0  0  0  0  0  0  0  0
  145.5426  134.1068  153.5763 H   0  0  0  0  0  0  0  0  0  0  0  0
  146.2444  133.8589  151.2420 H   0  0  0  0  0  0  0  0  0  0  0  0
  144.0686  135.8114  150.3565 H   0  0  0  0  0  0  0  0  0  0  0  0
  145.2323  134.9741  149.3537 H   0  0  0  0  0  0  0  0  0  0  0  0
  142.9935  134.0952  149.6451 H   0  0  0  0  0  0  0  0  0  0  0  0
  147.4070  135.7550  151.5475 H   0  0  0  0  0  0  0  0  0  0  0  0
  147.9134  137.6480  152.0063 H   0  0  0  0  0  0  0  0  0  0  0  0
  146.8757  139.9726  151.7133 H   0  0  0  0  0  0  0  0  0  0  0  0
  145.8019  139.4962  153.0072 H   0  0  0  0  0  0  0  0  0  0  0  0
  147.1185  141.8904  153.6164 H   0  0  0  0  0  0  0  0  0  0  0  0
  148.8132  142.6780  155.2554 H   0  0  0  0  0  0  0  0  0  0  0  0
  150.0235  140.0028  158.0433 H   0  0  0  0  0  0  0  0  0  0  0  0
  151.1137  139.1046  156.9983 H   0  0  0  0  0  0  0  0  0  0  0  0
  153.0352  140.5007  157.7528 H   0  0  0  0  0  0  0  0  0  0  0  0
  152.4959  138.5187  159.1772 H   0  0  0  0  0  0  0  0  0  0  0  0
  151.4088  139.5076  160.1511 H   0  0  0  0  0  0  0  0  0  0  0  0
  153.1384  139.8428  160.1442 H   0  0  0  0  0  0  0  0  0  0  0  0
  152.6849  142.7985  157.2452 H   0  0  0  0  0  0  0  0  0  0  0  0
  151.4953  144.9423  157.7427 H   0  0  0  0  0  0  0  0  0  0  0  0
  152.4285  144.3901  159.1301 H   0  0  0  0  0  0  0  0  0  0  0  0
  150.6799  144.1771  159.1057 H   0  0  0  0  0  0  0  0  0  0  0  0
  150.5136  143.1301  156.0824 H   0  0  0  0  0  0  0  0  0  0  0  0
  149.6395  142.4872  157.4637 H   0  0  0  0  0  0  0  0  0  0  0  0
  148.9030  137.9281  153.8987 H   0  0  0  0  0  0  0  0  0  0  0  0
  150.4117  138.7913  155.4118 H   0  0  0  0  0  0  0  0  0  0  0  0
  1  2  1  0  0  0  0
  1 24  1  0  0  0  0
  1 25  1  0  0  0  0
  1 26  1  0  0  0  0
  2  3  1  0  0  0  0
  2  5  1  0  0  0  0
  2 27  1  0  0  0  0
  3  4  1  0  0  0  0
  3 28  1  0  0  0  0
  3 29  1  0  0  0  0
  4 30  1  0  0  0  0
  5  6  1  0  0  0  0
  5 31  1  0  0  0  0
  6  7  2  0  0  0  0
  6  8  1  0  0  0  0
  8  9  1  0  0  0  0
  8 32  1  0  0  0  0
  9 10  1  0  0  0  0
  9 33  1  0  0  0  0
  9 34  1  0  0  0  0
 10 23  1  0  0  0  0
 10 11  2  0  0  0  0
 11 12  1  0  0  0  0
 11 35  1  0  0  0  0
 12 13  2  0  0  0  0
 12 36  1  0  0  0  0
 13 14  1  0  0  0  0
 13 22  1  0  0  0  0
 14 21  1  0  0  0  0
 14 15  1  0  0  0  0
 15 16  1  0  0  0  0
 15 37  1  0  0  0  0
 15 38  1  0  0  0  0
 16 17  1  0  0  0  0
 16 18  1  0  0  0  0
 16 39  1  0  0  0  0
 17 40  1  0  0  0  0
 17 41  1  0  0  0  0
 17 42  1  0  0  0  0
 18 19  1  0  0  0  0
 19 20  1  0  0  0  0
 19 21  1  0  0  0  0
 19 43  1  0  0  0  0
 20 44  1  0  0  0  0
 20 45  1  0  0  0  0
 20 46  1  0  0  0  0
 21 47  1  0  0  0  0
 21 48  1  0  0  0  0
 22 23  2  0  0  0  0
 22 50  1  0  0  0  0
 23 49  1  0  0  0  0
M  CHG  1  22   1
M  END
> <s_m_source_file>
AV-unprocessed.smi

> <i_m_source_file_index>
1983

> <i_lp_mmshare_version>
43012

> <i_f3d_flags>
0

> <s_epik_input>
W09IXVtDSDJdW0NAQEhdKFtDSDNdKVtOSF1DKD1PKVtOSF1bQ0gyXWMxW2NIXVtjSF1jKG5bY0hdMSlOMltDSDJdW0NAQEhdKFtDSDNdKU9bQ0BASF0oW0NIM10pW0NIMl0y

> <s_epik_cmdline>
J2VwaWtfcHl0aG9uJywgJy1waCcsICc3LjAnLCAnLXRuJywgJzgnLCAnLW1hJywgJzIwMCcsICctbWV0YWxfYmluZGluZycsICctaW1hZScsICc8aW5maWxlLm1hZT4nLCAnLW9tYWUnLCAnPG91dGZpbGUubWFlPic=

> <r_lp_tautomer_probability>
0.999994

> <r_epik_Ionization_Penalty>
2.55677

> <r_epik_Ionization_Penalty_Charging>
2.55673

> <r_epik_Ionization_Penalty_Neutral>
3.71772e-05

> <r_epik_State_Penalty>
2.72571

> <r_epik_Charging_Adjusted_Penalty>
5.28244

> <i_epik_Tot_Q>
1

> <i_epik_Tot_abs_Q>
1

> <r_epik_Metal_State_Penalty>
2.73364

> <b_epik_Metal_Only>
0

> <s_lp_Force_Field>
OPLS_2005

> <r_lp_Energy>
22.1941

> <b_lp_Chiralities_Consistent>
1

> <s_lp_Variant>
AV-unprocessed.smi:1983-8

> <Gold.Version>
5.8.1

> <Gold.Id.Protein>
6NUR|6NUR_protein|mol2

> <Gold.PLP.Fitness>
45.5988

> <Gold.PLP.PLP>
-37.4089

> <Gold.PLP.part.hbond>
-3.0000

> <Gold.PLP.part.metal>
0.0000

> <Gold.PLP.part.buried>
-1.9617

> <Gold.PLP.part.nonpolar>
-33.0196

> <Gold.PLP.part.repulsive>
1.1182

> <Gold.PLP.ligand.clash>
0.0000

> <Gold.PLP.ligand.torsion>
0.4826

> <Gold.PLP.Chemscore.Hbond>
3.0000

> <Gold.PLP.Chemscore.CHOScore>
0.0000

> <Gold.PLP.Chemscore.Metal>
0.0000

> <Gold.Chemscore.Hbonds>
donor molecule, donor type, donor heavy atom, donor atom, acceptor molecule, acceptor atom, score
      L1  H     4    30       P1 10186  1.00
      L1  H     5    31       P1  7948  1.00
      L1  H     8    32       P1  7948  0.91

> <Gold.PLP.Chemscore.Internal.Correction>
0.1551

> <Gold.Rescore>
     Score         DG    S(hbond)    S(metal)    S(lipo)     H(rot)  DE(clash)    DE(int)     intcor
     17.06     -19.86       2.87        0.00      99.30       2.66       2.26       0.53       ----

> <Gold.Chemscore.Fitness>
17.0613

> <Gold.Chemscore.DG>
-19.8557

> <Gold.Chemscore.ZeroCoef>
-5.4800

> <Gold.Chemscore.Hbond>
2.8674

> <Gold.Chemscore.Metal>
0.0000

> <Gold.Chemscore.Lipo>
99.2964

> <Gold.Chemscore.Internal_Hbond>
0.0000

> <Gold.Chemscore.DEClash>
2.2597

> <Gold.Chemscore.DEInternal>
0.5347

> <Gold.Chemscore.Rot>
2.6637

> <Gold.Chemscore.Internal.Correction>
   9.000000E+99

> <Gold.Chemscore.Hbonds>
donor molecule, donor type, donor heavy atom, donor atom, acceptor molecule, acceptor atom, score
      L1  H     4    30       P1 10186  0.91
      L1  H     5    31       P1  7948  0.94
      L1  H     8    32       P1  7948  0.88

> <Gold.Chemscore.Hbond.Weighted>
-9.5772

> <Gold.Chemscore.Metal.Weighted>
-0.0000

> <Gold.Chemscore.Lipo.Weighted>
-11.6177

> <Gold.Chemscore.Internal_Hbond.Weighted>
0.0000

> <Gold.Chemscore.DEClash.Weighted>
2.2597

> <Gold.Chemscore.DEInternal.Weighted>
0.5347

> <Gold.Chemscore.Rot.Weighted>
6.8191

> <Gold.Chemscore.Internal.Correction.Weighted>
   9.000000E+99

> <Gold.Protein.RotatedTorsions>
[ 6907 6896 6895 6894 ] final   88.10 input  -60.11 | X-H torsion
[ 7974 7965 7964 7962 ] final  -15.88 input  175.53 | X-H torsion
[ 8008 7997 7996 7995 ] final   50.74 input   59.86 | X-H torsion
[ 10167 10162 10161 10158 ] final  -69.02 input  -65.29 | X-H torsion
[ 10718 10713 10712 10709 ] final  122.66 input   66.30 | X-H torsion
[ 10763 10752 10751 10750 ] final  127.15 input  -60.55 | X-H torsion
[ 11005 11000 10999 10996 ] final  -36.70 input  -57.11 | X-H torsion

> <Gold.Protein.ActiveResidues>
 VAL166  LYS551  ARG553  GLY616  TRP617  ASP618  TYR619  PRO620  LYS621  CYS622 
 ASP623  PHE694  ASN695  SER759  ASP760  ASP761  ALA762  ILE779  LEU786  VAL792 
 PHE793  MET794  SER795  GLU796  ALA797  LYS798  CYS799  TRP800  GLU811  SER814 

> <Gold.Protein.RotatedAtoms>
  152.5420  134.2173  159.8773 H   0  0  0  0  0  0  0  0  0  0  0  0  # atno 6907 bound_to 6896
  151.2152  133.4526  159.2607 H   0  0  0  0  0  0  0  0  0  0  0  0  # atno 6908 bound_to 6896
  151.0858  134.9899  159.8434 H   0  0  0  0  0  0  0  0  0  0  0  0  # atno 6909 bound_to 6896
  146.2012  140.3557  142.8422 H   0  0  0  0  0  0  0  0  0  0  0  0  # atno 7974 bound_to 7965
  155.4238  140.3447  155.4273 H   0  0  0  0  0  0  0  0  0  0  0  0  # atno 8008 bound_to 7997
  156.1377  140.1533  156.8999 H   0  0  0  0  0  0  0  0  0  0  0  0  # atno 8009 bound_to 7997
  154.4945  140.0831  156.7648 H   0  0  0  0  0  0  0  0  0  0  0  0  # atno 8010 bound_to 7997
  140.5463  143.2313  151.6996 H   0  0  0  0  0  0  0  0  0  0  0  0  # atno 10167 bound_to 10162
  157.5725  131.1082  150.8340 H   0  0  0  0  0  0  0  0  0  0  0  0  # atno 10718 bound_to 10713
  153.7049  135.3277  155.3233 H   0  0  0  0  0  0  0  0  0  0  0  0  # atno 10763 bound_to 10752
  154.8402  135.4463  154.1373 H   0  0  0  0  0  0  0  0  0  0  0  0  # atno 10764 bound_to 10752
  153.2451  135.6975  153.7819 H   0  0  0  0  0  0  0  0  0  0  0  0  # atno 10765 bound_to 10752
  140.9895  133.7012  156.1825 H   0  0  0  0  0  0  0  0  0  0  0  0  # atno 11005 bound_to 11000
  144.8688  140.7244  143.6060 LP  0  0  0  0  0  0  0  0  0  0  0  0  # atno 17320 bound_to 7965
  145.3476  139.1715  143.4452 LP  0  0  0  0  0  0  0  0  0  0  0  0  # atno 17321 bound_to 7965
  139.5008  144.3890  152.0299 LP  0  0  0  0  0  0  0  0  0  0  0  0  # atno 17342 bound_to 10162
  140.3003  144.3654  150.6062 LP  0  0  0  0  0  0  0  0  0  0  0  0  # atno 17343 bound_to 10162
  156.8807  130.5178  149.5291 LP  0  0  0  0  0  0  0  0  0  0  0  0  # atno 17370 bound_to 10713
  156.0770  130.5790  150.9493 LP  0  0  0  0  0  0  0  0  0  0  0  0  # atno 17371 bound_to 10713
  140.7062  134.4511  157.5584 LP  0  0  0  0  0  0  0  0  0  0  0  0  # atno 17394 bound_to 11000
  139.8986  134.8611  156.1996 LP  0  0  0  0  0  0  0  0  0  0  0  0  # atno 17395 bound_to 11000

$$$$
