AV-unprocessed.smi:309|AV-procd|sdf|2291|dock3
  -GOLD-   2262022193D 1   1.00000     0.00000
 Structure written by MMmdl.
 36 38  0  0  0  0  0  0  0  0  1 V2000
  153.3564  139.2520  154.7758 O   0  0  0  0  0  0  0  0  0  0  0  0
  152.2268  138.4478  155.0422 C   0  0  0  0  0  0  0  0  0  0  0  0
  150.9297  139.1444  154.7415 C   0  0  0  0  0  0  0  0  0  0  0  0
  150.0634  138.6285  153.8678 N   0  0  0  0  0  0  0  0  0  0  0  0
  149.0230  139.5339  153.8929 C   0  0  0  0  0  0  0  0  0  0  0  0
  147.8004  139.5452  153.1839 C   0  0  0  0  0  0  0  0  0  0  0  0
  146.8709  140.5871  153.3802 C   0  0  0  0  0  0  0  0  0  0  0  0
  147.1495  141.6288  154.2881 C   0  0  0  0  0  0  0  0  0  0  0  0
  148.3614  141.6350  155.0052 C   0  0  0  0  0  0  0  0  0  0  0  0
  149.2892  140.5948  154.8028 C   0  0  0  0  0  0  0  0  0  0  0  0
  150.5465  140.3095  155.3319 N   0  0  0  0  0  0  0  0  0  0  0  0
  151.2542  141.1167  156.3236 C   0  0  0  0  0  0  0  0  0  0  0  0
  151.0108  140.6720  157.7857 C   0  0  2  0  0  0  0  0  0  0  0  0
  149.6225  140.5330  158.0211 O   0  0  0  0  0  0  0  0  0  0  0  0
  151.7018  141.5736  158.8087 C   0  0  0  0  0  0  0  0  0  0  0  0
  151.3927  142.9535  158.8545 C   0  0  0  0  0  0  0  0  0  0  0  0
  152.0285  143.8025  159.7795 C   0  0  0  0  0  0  0  0  0  0  0  0
  151.6448  145.4839  159.8112 Cl  0  0  0  0  0  0  0  0  0  0  0  0
  152.9813  143.2804  160.6726 C   0  0  0  0  0  0  0  0  0  0  0  0
  153.3007  141.9108  160.6336 C   0  0  0  0  0  0  0  0  0  0  0  0
  152.6699  141.0570  159.7067 C   0  0  0  0  0  0  0  0  0  0  0  0
  153.1217  139.3882  159.6865 Cl  0  0  0  0  0  0  0  0  0  0  0  0
  153.1216  139.8922  154.1219 H   0  0  0  0  0  0  0  0  0  0  0  0
  152.2871  137.5467  154.4317 H   0  0  0  0  0  0  0  0  0  0  0  0
  152.2845  138.1285  156.0792 H   0  0  0  0  0  0  0  0  0  0  0  0
  147.5771  138.7496  152.4885 H   0  0  0  0  0  0  0  0  0  0  0  0
  145.9398  140.5862  152.8325 H   0  0  0  0  0  0  0  0  0  0  0  0
  146.4326  142.4235  154.4339 H   0  0  0  0  0  0  0  0  0  0  0  0
  148.5763  142.4329  155.7003 H   0  0  0  0  0  0  0  0  0  0  0  0
  152.3206  141.0539  156.1034 H   0  0  0  0  0  0  0  0  0  0  0  0
  151.0041  142.1678  156.1901 H   0  0  0  0  0  0  0  0  0  0  0  0
  151.4077  139.6637  157.9002 H   0  0  0  0  0  0  0  0  0  0  0  0
  149.2006  140.3142  157.2044 H   0  0  0  0  0  0  0  0  0  0  0  0
  150.6730  143.3752  158.1681 H   0  0  0  0  0  0  0  0  0  0  0  0
  153.4721  143.9293  161.3830 H   0  0  0  0  0  0  0  0  0  0  0  0
  154.0385  141.5151  161.3159 H   0  0  0  0  0  0  0  0  0  0  0  0
  1  2  1  0  0  0  0
  1 23  1  0  0  0  0
  2  3  1  0  0  0  0
  2 24  1  0  0  0  0
  2 25  1  0  0  0  0
  3 11  1  0  0  0  0
  3  4  2  0  0  0  0
  4  5  1  0  0  0  0
  5 10  2  0  0  0  0
  5  6  1  0  0  0  0
  6  7  2  0  0  0  0
  6 26  1  0  0  0  0
  7  8  1  0  0  0  0
  7 27  1  0  0  0  0
  8  9  2  0  0  0  0
  8 28  1  0  0  0  0
  9 10  1  0  0  0  0
  9 29  1  0  0  0  0
 10 11  1  0  0  0  0
 11 12  1  0  0  0  0
 12 13  1  0  0  0  0
 12 30  1  0  0  0  0
 12 31  1  0  0  0  0
 13 14  1  0  0  0  0
 13 15  1  0  0  0  0
 13 32  1  0  0  0  0
 14 33  1  0  0  0  0
 15 21  1  0  0  0  0
 15 16  2  0  0  0  0
 16 17  1  0  0  0  0
 16 34  1  0  0  0  0
 17 18  1  0  0  0  0
 17 19  2  0  0  0  0
 19 20  1  0  0  0  0
 19 35  1  0  0  0  0
 20 21  2  0  0  0  0
 20 36  1  0  0  0  0
 21 22  1  0  0  0  0
M  END
> <s_m_source_file>
AV-unprocessed.smi

> <i_m_source_file_index>
309

> <i_lp_mmshare_version>
43012

> <i_f3d_flags>
0

> <s_epik_input>
W2NIXTFbY0hdW2NIXVtjSF1jKGMxMiluKGMobjIpW0NIMl1bT0hdKVtDSDJdW0NASF0oW09IXSljM1tjSF1jKENsKVtjSF1bY0hdYzNDbA==

> <s_epik_cmdline>
J2VwaWtfcHl0aG9uJywgJy1waCcsICc3LjAnLCAnLXRuJywgJzgnLCAnLW1hJywgJzIwMCcsICctbWV0YWxfYmluZGluZycsICctaW1hZScsICc8aW5maWxlLm1hZT4nLCAnLW9tYWUnLCAnPG91dGZpbGUubWFlPic=

> <r_epik_Ionization_Penalty>
0.0634742

> <r_epik_Ionization_Penalty_Charging>
0

> <r_epik_Ionization_Penalty_Neutral>
0.0634742

> <r_epik_State_Penalty>
0.0551572

> <r_epik_Charging_Adjusted_Penalty>
0.0551572

> <i_epik_Tot_Q>
0

> <i_epik_Tot_abs_Q>
0

> <r_epik_Metal_State_Penalty>
5.78034e-05

> <b_epik_Metal_Only>
0

> <s_lp_Force_Field>
OPLS_2005

> <r_lp_Energy>
12.4446

> <b_lp_Chiralities_Consistent>
1

> <s_lp_Variant>
AV-unprocessed.smi:309-1

> <Gold.Version>
5.8.1

> <Gold.Id.Protein>
6NUR|6NUR_protein|mol2

> <Gold.PLP.Fitness>
51.5788

> <Gold.PLP.PLP>
-49.3882

> <Gold.PLP.part.hbond>
-1.5821

> <Gold.PLP.part.metal>
0.0000

> <Gold.PLP.part.buried>
0.4634

> <Gold.PLP.part.nonpolar>
-48.7737

> <Gold.PLP.part.repulsive>
0.9892

> <Gold.PLP.ligand.clash>
0.0000

> <Gold.PLP.ligand.torsion>
0.4302

> <Gold.PLP.Chemscore.Hbond>
1.0000

> <Gold.PLP.Chemscore.CHOScore>
0.0000

> <Gold.PLP.Chemscore.Metal>
0.0000

> <Gold.Chemscore.Hbonds>
donor molecule, donor type, donor heavy atom, donor atom, acceptor molecule, acceptor atom, score
      P1  H  7997  8010       L1     1  1.00

> <Gold.PLP.Chemscore.Internal.Correction>
0.0509

> <Gold.Rescore>
     Score         DG    S(hbond)    S(metal)    S(lipo)     H(rot)  DE(clash)    DE(int)     intcor
     17.16     -17.52       0.97        0.00     132.72       2.62       0.02       0.34       ----

> <Gold.Chemscore.Fitness>
17.1635

> <Gold.Chemscore.DG>
-17.5229

> <Gold.Chemscore.ZeroCoef>
-5.4800

> <Gold.Chemscore.Hbond>
0.9671

> <Gold.Chemscore.Metal>
0.0000

> <Gold.Chemscore.Lipo>
132.7210

> <Gold.Chemscore.Internal_Hbond>
0.0000

> <Gold.Chemscore.DEClash>
0.0232

> <Gold.Chemscore.DEInternal>
0.3362

> <Gold.Chemscore.Rot>
2.6232

> <Gold.Chemscore.Internal.Correction>
   9.000000E+99

> <Gold.Chemscore.Hbonds>
donor molecule, donor type, donor heavy atom, donor atom, acceptor molecule, acceptor atom, score
      P1  H  7997  8010       L1     1  0.40

> <Gold.Chemscore.Hbond.Weighted>
-3.2300

> <Gold.Chemscore.Metal.Weighted>
-0.0000

> <Gold.Chemscore.Lipo.Weighted>
-15.5284

> <Gold.Chemscore.Internal_Hbond.Weighted>
0.0000

> <Gold.Chemscore.DEClash.Weighted>
0.0232

> <Gold.Chemscore.DEInternal.Weighted>
0.3362

> <Gold.Chemscore.Rot.Weighted>
6.7154

> <Gold.Chemscore.Internal.Correction.Weighted>
   9.000000E+99

> <Gold.Protein.RotatedTorsions>
[ 6907 6896 6895 6894 ] final  172.28 input  -60.11 | X-H torsion
[ 7974 7965 7964 7962 ] final  -90.73 input  175.53 | X-H torsion
[ 8008 7997 7996 7995 ] final  105.70 input   59.86 | X-H torsion
[ 10167 10162 10161 10158 ] final  -54.56 input  -65.29 | X-H torsion
[ 10718 10713 10712 10709 ] final -158.72 input   66.30 | X-H torsion
[ 10763 10752 10751 10750 ] final -164.97 input  -60.55 | X-H torsion
[ 11005 11000 10999 10996 ] final   57.79 input  -57.11 | X-H torsion

> <Gold.Protein.ActiveResidues>
 VAL166  LYS551  ARG553  GLY616  TRP617  ASP618  TYR619  PRO620  LYS621  CYS622 
 ASP623  PHE694  ASN695  SER759  ASP760  ASP761  ALA762  ILE779  LEU786  VAL792 
 PHE793  MET794  SER795  GLU796  ALA797  LYS798  CYS799  TRP800  GLU811  SER814 

> <Gold.Protein.RotatedAtoms>
  151.7867  133.3355  159.3486 H   0  0  0  0  0  0  0  0  0  0  0  0  # atno 6907 bound_to 6896
  150.7406  134.5880  159.5982 H   0  0  0  0  0  0  0  0  0  0  0  0  # atno 6908 bound_to 6896
  152.3238  134.7348  160.0358 H   0  0  0  0  0  0  0  0  0  0  0  0  # atno 6909 bound_to 6896
  145.4225  140.9552  143.2173 H   0  0  0  0  0  0  0  0  0  0  0  0  # atno 7974 bound_to 7965
  156.1681  140.3126  155.8924 H   0  0  0  0  0  0  0  0  0  0  0  0  # atno 8008 bound_to 7997
  155.3644  140.0478  157.3063 H   0  0  0  0  0  0  0  0  0  0  0  0  # atno 8009 bound_to 7997
  154.5213  140.2199  155.8982 H   0  0  0  0  0  0  0  0  0  0  0  0  # atno 8010 bound_to 7997
  140.6424  143.2515  151.4953 H   0  0  0  0  0  0  0  0  0  0  0  0  # atno 10167 bound_to 10162
  156.5581  130.8635  151.2801 H   0  0  0  0  0  0  0  0  0  0  0  0  # atno 10718 bound_to 10713
  154.6977  135.2982  154.9387 H   0  0  0  0  0  0  0  0  0  0  0  0  # atno 10763 bound_to 10752
  154.0329  135.6667  153.4786 H   0  0  0  0  0  0  0  0  0  0  0  0  # atno 10764 bound_to 10752
  153.0658  135.5089  154.8104 H   0  0  0  0  0  0  0  0  0  0  0  0  # atno 10765 bound_to 10752
  140.0426  134.5852  155.9363 H   0  0  0  0  0  0  0  0  0  0  0  0  # atno 11005 bound_to 11000
  144.8236  139.5749  143.6976 LP  0  0  0  0  0  0  0  0  0  0  0  0  # atno 17320 bound_to 7965
  146.2649  139.6496  142.9336 LP  0  0  0  0  0  0  0  0  0  0  0  0  # atno 17321 bound_to 7965
  139.5633  144.2103  152.1726 LP  0  0  0  0  0  0  0  0  0  0  0  0  # atno 17342 bound_to 10162
  140.1377  144.5231  150.6763 LP  0  0  0  0  0  0  0  0  0  0  0  0  # atno 17343 bound_to 10162
  157.7374  130.9795  150.2191 LP  0  0  0  0  0  0  0  0  0  0  0  0  # atno 17370 bound_to 10713
  156.2824  130.3735  149.7922 LP  0  0  0  0  0  0  0  0  0  0  0  0  # atno 17371 bound_to 10713
  141.1891  133.6564  156.5352 LP  0  0  0  0  0  0  0  0  0  0  0  0  # atno 17394 bound_to 11000
  140.4045  134.7327  157.4799 LP  0  0  0  0  0  0  0  0  0  0  0  0  # atno 17395 bound_to 11000

$$$$
