AV-unprocessed.smi:1488|AV-procd|sdf|6024|dock3
  -GOLD-   22720 6123D 1   1.00000     0.00000
 Structure written by MMmdl.
 36 37  0  0  0  0  0  0  0  0  1 V2000
  150.5610  141.7726  156.1072 C   0  0  0  0  0  0  0  0  0  0  0  0
  150.2019  140.5614  155.3165 C   0  0  0  0  0  0  0  0  0  0  0  0
  149.0066  139.9868  154.9869 C   0  0  0  0  0  0  0  0  0  0  0  0
  149.3959  138.8567  154.2201 C   0  0  0  0  0  0  0  0  0  0  0  0
  148.4256  137.9750  153.6800 N   0  0  0  0  0  0  0  0  0  0  0  0
  147.1598  137.7974  154.0943 C   0  0  0  0  0  0  0  0  0  0  0  0
  146.6320  138.3866  155.0381 O   0  0  0  0  0  0  0  0  0  0  0  0
  146.5290  136.8807  153.3467 N   0  0  0  0  0  0  0  0  0  0  0  0
  145.1475  136.4392  153.5319 C   0  0  2  0  0  0  0  0  0  0  0  0
  145.0846  135.0342  154.1666 C   0  0  0  0  0  0  0  0  0  0  0  0
  145.5777  133.9387  153.2050 C   0  0  0  0  0  0  0  0  0  0  0  0
  144.8054  133.9590  151.8686 C   0  0  2  0  0  0  0  0  0  0  0  0
  145.2899  132.8564  150.9046 C   0  0  0  0  0  0  0  0  0  0  0  0
  144.5290  132.8155  149.8102 F   0  0  0  0  0  0  0  0  0  0  0  0
  146.5522  133.0870  150.5434 F   0  0  0  0  0  0  0  0  0  0  0  0
  145.2404  131.6688  151.5080 F   0  0  0  0  0  0  0  0  0  0  0  0
  144.8876  135.3612  151.2282 C   0  0  0  0  0  0  0  0  0  0  0  0
  144.3972  136.4609  152.1871 C   0  0  0  0  0  0  0  0  0  0  0  0
  150.7097  138.7511  154.0924 N   0  0  0  0  0  0  0  0  0  0  0  0
  151.2331  139.8429  154.7950 O   0  0  0  0  0  0  0  0  0  0  0  0
  149.7077  142.4450  156.1975 H   0  0  0  0  0  0  0  0  0  0  0  0
  151.3734  142.3210  155.6302 H   0  0  0  0  0  0  0  0  0  0  0  0
  150.8825  141.4960  157.1112 H   0  0  0  0  0  0  0  0  0  0  0  0
  148.0157  140.3232  155.2538 H   0  0  0  0  0  0  0  0  0  0  0  0
  148.7279  137.4201  152.8931 H   0  0  0  0  0  0  0  0  0  0  0  0
  147.0433  136.4490  152.5929 H   0  0  0  0  0  0  0  0  0  0  0  0
  144.6537  137.1466  154.2008 H   0  0  0  0  0  0  0  0  0  0  0  0
  145.6621  135.0058  155.0915 H   0  0  0  0  0  0  0  0  0  0  0  0
  144.0542  134.8179  154.4513 H   0  0  0  0  0  0  0  0  0  0  0  0
  146.6445  134.0682  153.0196 H   0  0  0  0  0  0  0  0  0  0  0  0
  145.4681  132.9658  153.6849 H   0  0  0  0  0  0  0  0  0  0  0  0
  143.7562  133.7588  152.0912 H   0  0  0  0  0  0  0  0  0  0  0  0
  145.9144  135.5700  150.9266 H   0  0  0  0  0  0  0  0  0  0  0  0
  144.2914  135.3900  150.3160 H   0  0  0  0  0  0  0  0  0  0  0  0
  143.3310  136.3218  152.3709 H   0  0  0  0  0  0  0  0  0  0  0  0
  144.4965  137.4394  151.7151 H   0  0  0  0  0  0  0  0  0  0  0  0
  1  2  1  0  0  0  0
  1 21  1  0  0  0  0
  1 22  1  0  0  0  0
  1 23  1  0  0  0  0
  2 20  1  0  0  0  0
  2  3  2  0  0  0  0
  3  4  1  0  0  0  0
  3 24  1  0  0  0  0
  4  5  1  0  0  0  0
  4 19  2  0  0  0  0
  5  6  1  0  0  0  0
  5 25  1  0  0  0  0
  6  7  2  0  0  0  0
  6  8  1  0  0  0  0
  8  9  1  0  0  0  0
  8 26  1  0  0  0  0
  9 18  1  0  0  0  0
  9 10  1  0  0  0  0
  9 27  1  0  0  0  0
 10 11  1  0  0  0  0
 10 28  1  0  0  0  0
 10 29  1  0  0  0  0
 11 12  1  0  0  0  0
 11 30  1  0  0  0  0
 11 31  1  0  0  0  0
 12 13  1  0  0  0  0
 12 17  1  0  0  0  0
 12 32  1  0  0  0  0
 13 14  1  0  0  0  0
 13 15  1  0  0  0  0
 13 16  1  0  0  0  0
 17 18  1  0  0  0  0
 17 33  1  0  0  0  0
 17 34  1  0  0  0  0
 18 35  1  0  0  0  0
 18 36  1  0  0  0  0
 19 20  1  0  0  0  0
M  END
> <s_m_source_file>
AV-unprocessed.smi

> <i_m_source_file_index>
1488

> <i_lp_mmshare_version>
43012

> <i_f3d_flags>
0

> <s_epik_input>
W0NIM11jMVtjSF1jKG5vMSlbTkhdQyg9TylbTkhdW0NAQEhdMltDSDJdW0NIMl1bQ0BASF0oQyhGKShGKUYpW0NIMl1bQ0gyXTI=

> <s_epik_cmdline>
J2VwaWtfcHl0aG9uJywgJy1waCcsICc3LjAnLCAnLXRuJywgJzgnLCAnLW1hJywgJzIwMCcsICctbWV0YWxfYmluZGluZycsICctaW1hZScsICc8aW5maWxlLm1hZT4nLCAnLW9tYWUnLCAnPG91dGZpbGUubWFlPic=

> <r_lp_tautomer_probability>
1

> <r_epik_Ionization_Penalty>
2.30349e-05

> <r_epik_Ionization_Penalty_Charging>
0

> <r_epik_Ionization_Penalty_Neutral>
2.30349e-05

> <r_epik_State_Penalty>
-0

> <r_epik_Charging_Adjusted_Penalty>
0

> <i_epik_Tot_Q>
0

> <i_epik_Tot_abs_Q>
0

> <r_epik_Metal_State_Penalty>
-0

> <b_epik_Metal_Only>
0

> <s_lp_Force_Field>
OPLS_2005

> <r_lp_Energy>
6.9589

> <b_lp_Chiralities_Consistent>
1

> <s_lp_Variant>
AV-unprocessed.smi:1488-2

> <Gold.Version>
5.8.1

> <Gold.Id.Protein>
6NUR|6NUR_protein|mol2

> <Gold.PLP.Fitness>
39.4868

> <Gold.PLP.PLP>
-31.5858

> <Gold.PLP.part.hbond>
-3.0783

> <Gold.PLP.part.metal>
0.0000

> <Gold.PLP.part.buried>
-4.9559

> <Gold.PLP.part.nonpolar>
-23.8219

> <Gold.PLP.part.repulsive>
0.3488

> <Gold.PLP.ligand.clash>
0.0000

> <Gold.PLP.ligand.torsion>
0.2793

> <Gold.PLP.Chemscore.Hbond>
2.8130

> <Gold.PLP.Chemscore.CHOScore>
0.0000

> <Gold.PLP.Chemscore.Metal>
0.0000

> <Gold.Chemscore.Hbonds>
donor molecule, donor type, donor heavy atom, donor atom, acceptor molecule, acceptor atom, score
      L1  H     5    25       P1  7948  1.00
      L1  H     8    26       P1  7948  0.81
      P1  H  7989  7998       L1    20  0.95

> <Gold.PLP.Chemscore.Internal.Correction>
0.0205

> <Gold.Rescore>
     Score         DG    S(hbond)    S(metal)    S(lipo)     H(rot)  DE(clash)    DE(int)     intcor
     13.18     -14.75       1.88        0.00      47.38       1.00       0.00       1.56       ----

> <Gold.Chemscore.Fitness>
13.1849

> <Gold.Chemscore.DG>
-14.7460

> <Gold.Chemscore.ZeroCoef>
-5.4800

> <Gold.Chemscore.Hbond>
1.8809

> <Gold.Chemscore.Metal>
0.0000

> <Gold.Chemscore.Lipo>
47.3822

> <Gold.Chemscore.Internal_Hbond>
0.0000

> <Gold.Chemscore.DEClash>
0.0029

> <Gold.Chemscore.DEInternal>
1.5582

> <Gold.Chemscore.Rot>
1.0000

> <Gold.Chemscore.Internal.Correction>
   9.000000E+99

> <Gold.Chemscore.Hbonds>
donor molecule, donor type, donor heavy atom, donor atom, acceptor molecule, acceptor atom, score
      L1  H     5    25       P1  7948  0.97
      L1  H     8    26       P1  7948  0.77
      P1  H  7989  7998       L1    20  0.06

> <Gold.Chemscore.Hbond.Weighted>
-6.2823

> <Gold.Chemscore.Metal.Weighted>
-0.0000

> <Gold.Chemscore.Lipo.Weighted>
-5.5437

> <Gold.Chemscore.Internal_Hbond.Weighted>
0.0000

> <Gold.Chemscore.DEClash.Weighted>
0.0029

> <Gold.Chemscore.DEInternal.Weighted>
1.5582

> <Gold.Chemscore.Rot.Weighted>
2.5600

> <Gold.Chemscore.Internal.Correction.Weighted>
   9.000000E+99

> <Gold.Protein.RotatedTorsions>
[ 6907 6896 6895 6894 ] final -154.63 input  -60.11 | X-H torsion
[ 7974 7965 7964 7962 ] final   81.23 input  175.53 | X-H torsion
[ 8008 7997 7996 7995 ] final  158.53 input   59.86 | X-H torsion
[ 10167 10162 10161 10158 ] final    3.94 input  -65.29 | X-H torsion
[ 10718 10713 10712 10709 ] final  133.36 input   66.30 | X-H torsion
[ 10763 10752 10751 10750 ] final  -35.93 input  -60.55 | X-H torsion
[ 11005 11000 10999 10996 ] final  -16.96 input  -57.11 | X-H torsion

> <Gold.Protein.ActiveResidues>
 VAL166  LYS551  ARG553  GLY616  TRP617  ASP618  TYR619  PRO620  LYS621  CYS622 
 ASP623  PHE694  ASN695  SER759  ASP760  ASP761  ALA762  ILE779  LEU786  VAL792 
 PHE793  MET794  SER795  GLU796  ALA797  LYS798  CYS799  TRP800  GLU811  SER814 

> <Gold.Protein.RotatedAtoms>
  151.2603  133.4305  159.2615 H   0  0  0  0  0  0  0  0  0  0  0  0  # atno 6907 bound_to 6896
  151.0536  134.9690  159.8234 H   0  0  0  0  0  0  0  0  0  0  0  0  # atno 6908 bound_to 6896
  152.5387  134.2557  159.8968 H   0  0  0  0  0  0  0  0  0  0  0  0  # atno 6909 bound_to 6896
  145.6409  139.2425  143.2031 H   0  0  0  0  0  0  0  0  0  0  0  0  # atno 7974 bound_to 7965
  156.2297  140.1856  156.7274 H   0  0  0  0  0  0  0  0  0  0  0  0  # atno 8008 bound_to 7997
  154.6001  140.0637  156.9384 H   0  0  0  0  0  0  0  0  0  0  0  0  # atno 8009 bound_to 7997
  155.2189  140.3306  155.4321 H   0  0  0  0  0  0  0  0  0  0  0  0  # atno 8010 bound_to 7997
  140.6560  143.7425  150.7655 H   0  0  0  0  0  0  0  0  0  0  0  0  # atno 10167 bound_to 10162
  157.4780  131.1084  150.9718 H   0  0  0  0  0  0  0  0  0  0  0  0  # atno 10718 bound_to 10713
  153.8714  135.6830  153.4774 H   0  0  0  0  0  0  0  0  0  0  0  0  # atno 10763 bound_to 10752
  153.1285  135.4708  154.9309 H   0  0  0  0  0  0  0  0  0  0  0  0  # atno 10764 bound_to 10752
  154.7712  135.3239  154.8135 H   0  0  0  0  0  0  0  0  0  0  0  0  # atno 10765 bound_to 10752
  140.8120  133.8133  155.9573 H   0  0  0  0  0  0  0  0  0  0  0  0  # atno 11005 bound_to 11000
  146.1282  140.7221  142.9425 LP  0  0  0  0  0  0  0  0  0  0  0  0  # atno 17320 bound_to 7965
  144.7158  140.4203  143.7046 LP  0  0  0  0  0  0  0  0  0  0  0  0  # atno 17321 bound_to 7965
  140.1085  143.4721  152.2384 LP  0  0  0  0  0  0  0  0  0  0  0  0  # atno 17342 bound_to 10162
  139.5783  144.7498  151.3706 LP  0  0  0  0  0  0  0  0  0  0  0  0  # atno 17343 bound_to 10162
  157.0460  130.5768  149.5363 LP  0  0  0  0  0  0  0  0  0  0  0  0  # atno 17370 bound_to 10713
  156.0107  130.5198  150.7978 LP  0  0  0  0  0  0  0  0  0  0  0  0  # atno 17371 bound_to 10713
  140.9187  134.2168  157.4940 LP  0  0  0  0  0  0  0  0  0  0  0  0  # atno 17394 bound_to 11000
  139.8713  134.9783  156.4991 LP  0  0  0  0  0  0  0  0  0  0  0  0  # atno 17395 bound_to 11000

$$$$
