AV-unprocessed.smi:15|AV-procd|sdf|86|dock7
  -GOLD-   2262015223D 1   1.00000     0.00000
 Structure written by MMmdl.
 53 56  0  0  0  0  0  0  0  0  1 V2000
  148.9934  131.6280  154.4094 C   0  0  0  0  0  0  0  0  0  0  0  0
  148.2545  132.2290  153.2066 C   0  0  0  0  0  0  0  0  0  0  0  0
  147.8880  133.6307  153.4092 N   0  0  0  0  0  0  0  0  0  0  0  0
  147.0295  134.3160  152.4410 C   0  0  0  0  0  0  0  0  0  0  0  0
  145.5993  133.7457  152.3880 C   0  0  1  0  0  0  0  0  0  0  0  0
  144.7191  134.4006  151.3265 C   0  0  0  0  0  0  0  0  0  0  0  0
  143.6685  133.3404  151.0329 C   0  0  0  0  0  0  0  0  0  0  0  0
  144.2674  132.0537  151.6083 C   0  0  0  0  0  0  0  0  0  0  0  0
  145.6007  132.3925  151.9598 O   0  0  0  0  0  0  0  0  0  0  0  0
  148.8100  134.4302  153.9980 C   0  0  0  0  0  0  0  0  0  0  0  0
  150.1153  134.0827  153.8640 N   0  0  0  0  0  0  0  0  0  0  0  0
  151.0698  134.8182  154.4408 C   0  0  0  0  0  0  0  0  0  0  0  0
  150.9404  135.9152  155.1892 N   0  0  0  0  0  0  0  0  0  0  0  0
  149.6299  136.2635  155.3359 C   0  0  0  0  0  0  0  0  0  0  0  0
  148.5093  135.5851  154.7778 C   0  0  0  0  0  0  0  0  0  0  0  0
  147.3350  136.2226  155.1627 N   0  0  0  0  0  0  0  0  0  0  0  0
  147.7386  137.2226  155.8972 C   0  0  0  0  0  0  0  0  0  0  0  0
  149.1025  137.3252  156.0500 N   0  0  0  0  0  0  0  0  0  0  0  0
  149.8191  138.3325  156.8178 C   0  0  0  0  0  0  0  0  0  0  0  0
  150.6306  139.3179  155.9371 C   0  0  2  0  0  0  0  0  0  0  0  0
  149.7175  140.2380  155.3609 O   0  0  0  0  0  0  0  0  0  0  0  0
  151.3919  138.6410  154.8013 C   0  0  0  0  0  0  0  0  0  0  0  0
  152.5590  139.5865  154.5639 C   0  0  0  0  0  0  0  0  0  0  0  0
  152.9185  139.9683  155.8801 O   0  0  0  0  0  0  0  0  0  0  0  0
  151.7356  140.1416  156.6576 C   0  0  2  0  0  0  0  0  0  0  0  0
  152.0718  139.7325  158.1007 C   0  0  0  0  0  0  0  0  0  0  0  0
  149.3153  130.6099  154.1904 H   0  0  0  0  0  0  0  0  0  0  0  0
  148.3586  131.5834  155.2942 H   0  0  0  0  0  0  0  0  0  0  0  0
  149.8812  132.2106  154.6571 H   0  0  0  0  0  0  0  0  0  0  0  0
  148.9024  132.1478  152.3326 H   0  0  0  0  0  0  0  0  0  0  0  0
  147.3637  131.6397  152.9897 H   0  0  0  0  0  0  0  0  0  0  0  0
  146.9849  135.3713  152.7074 H   0  0  0  0  0  0  0  0  0  0  0  0
  147.4784  134.2875  151.4474 H   0  0  0  0  0  0  0  0  0  0  0  0
  145.1084  133.8192  153.3597 H   0  0  0  0  0  0  0  0  0  0  0  0
  144.2890  135.3450  151.6610 H   0  0  0  0  0  0  0  0  0  0  0  0
  145.3007  134.5963  150.4244 H   0  0  0  0  0  0  0  0  0  0  0  0
  142.7211  133.5719  151.5209 H   0  0  0  0  0  0  0  0  0  0  0  0
  143.4838  133.2593  149.9613 H   0  0  0  0  0  0  0  0  0  0  0  0
  143.7272  131.7455  152.5045 H   0  0  0  0  0  0  0  0  0  0  0  0
  144.2487  131.2268  150.8982 H   0  0  0  0  0  0  0  0  0  0  0  0
  152.0822  134.4760  154.2838 H   0  0  0  0  0  0  0  0  0  0  0  0
  147.0480  137.9186  156.3508 H   0  0  0  0  0  0  0  0  0  0  0  0
  149.0942  138.8747  157.4262 H   0  0  0  0  0  0  0  0  0  0  0  0
  150.4761  137.8104  157.5136 H   0  0  0  0  0  0  0  0  0  0  0  0
  149.0672  139.7508  154.8785 H   0  0  0  0  0  0  0  0  0  0  0  0
  151.7840  137.6790  155.1338 H   0  0  0  0  0  0  0  0  0  0  0  0
  150.7905  138.4646  153.9082 H   0  0  0  0  0  0  0  0  0  0  0  0
  153.3891  139.1117  154.0409 H   0  0  0  0  0  0  0  0  0  0  0  0
  152.2464  140.4643  153.9965 H   0  0  0  0  0  0  0  0  0  0  0  0
  151.4849  141.2041  156.6516 H   0  0  0  0  0  0  0  0  0  0  0  0
  151.2115  139.8480  158.7597 H   0  0  0  0  0  0  0  0  0  0  0  0
  152.8726  140.3556  158.4997 H   0  0  0  0  0  0  0  0  0  0  0  0
  152.4081  138.6970  158.1549 H   0  0  0  0  0  0  0  0  0  0  0  0
  1  2  1  0  0  0  0
  1 27  1  0  0  0  0
  1 28  1  0  0  0  0
  1 29  1  0  0  0  0
  2  3  1  0  0  0  0
  2 30  1  0  0  0  0
  2 31  1  0  0  0  0
  3  4  1  0  0  0  0
  3 10  1  0  0  0  0
  4  5  1  0  0  0  0
  4 32  1  0  0  0  0
  4 33  1  0  0  0  0
  5  9  1  0  0  0  0
  5  6  1  0  0  0  0
  5 34  1  0  0  0  0
  6  7  1  0  0  0  0
  6 35  1  0  0  0  0
  6 36  1  0  0  0  0
  7  8  1  0  0  0  0
  7 37  1  0  0  0  0
  7 38  1  0  0  0  0
  8  9  1  0  0  0  0
  8 39  1  0  0  0  0
  8 40  1  0  0  0  0
 10 15  1  0  0  0  0
 10 11  2  0  0  0  0
 11 12  1  0  0  0  0
 12 13  2  0  0  0  0
 12 41  1  0  0  0  0
 13 14  1  0  0  0  0
 14 18  1  0  0  0  0
 14 15  2  0  0  0  0
 15 16  1  0  0  0  0
 16 17  2  0  0  0  0
 17 18  1  0  0  0  0
 17 42  1  0  0  0  0
 18 19  1  0  0  0  0
 19 20  1  0  0  0  0
 19 43  1  0  0  0  0
 19 44  1  0  0  0  0
 20 25  1  0  0  0  0
 20 21  1  0  0  0  0
 20 22  1  0  0  0  0
 21 45  1  0  0  0  0
 22 23  1  0  0  0  0
 22 46  1  0  0  0  0
 22 47  1  0  0  0  0
 23 24  1  0  0  0  0
 23 48  1  0  0  0  0
 23 49  1  0  0  0  0
 24 25  1  0  0  0  0
 25 26  1  0  0  0  0
 25 50  1  0  0  0  0
 26 51  1  0  0  0  0
 26 52  1  0  0  0  0
 26 53  1  0  0  0  0
M  END
> <s_m_source_file>
AV-unprocessed.smi

> <i_m_source_file_index>
15

> <i_lp_mmshare_version>
43012

> <i_f3d_flags>
0

> <s_epik_input>
TzFbQ0gyXVtDSDJdW0NIMl1bQ0BIXTFbQ0gyXU4oW0NIMl1bQ0gzXSljKG5bY0hdbjIpYyhjMjMpbltjSF1uM1tDSDJdW0NAQF00KFtPSF0pW0NIMl1bQ0gyXU9bQ0BIXTRbQ0gzXQ==

> <s_epik_cmdline>
J2VwaWtfcHl0aG9uJywgJy1waCcsICc3LjAnLCAnLXRuJywgJzgnLCAnLW1hJywgJzIwMCcsICctbWV0YWxfYmluZGluZycsICctaW1hZScsICc8aW5maWxlLm1hZT4nLCAnLW9tYWUnLCAnPG91dGZpbGUubWFlPic=

> <r_lp_tautomer_probability>
1

> <r_epik_Ionization_Penalty>
0.00360814

> <r_epik_Ionization_Penalty_Charging>
0

> <r_epik_Ionization_Penalty_Neutral>
0.00360814

> <r_epik_State_Penalty>
0.00237482

> <r_epik_Charging_Adjusted_Penalty>
0.00237482

> <i_epik_Tot_Q>
0

> <i_epik_Tot_abs_Q>
0

> <r_epik_Metal_State_Penalty>
-0

> <b_epik_Metal_Only>
0

> <s_lp_Force_Field>
OPLS_2005

> <r_lp_Energy>
45.3604

> <b_lp_Chiralities_Consistent>
1

> <s_lp_Variant>
AV-unprocessed.smi:15-8

> <Gold.Version>
5.8.1

> <Gold.Id.Protein>
6NUR|6NUR_protein|mol2

> <Gold.PLP.Fitness>
43.9216

> <Gold.PLP.PLP>
-39.6603

> <Gold.PLP.part.hbond>
-3.0000

> <Gold.PLP.part.metal>
0.0000

> <Gold.PLP.part.buried>
-5.2982

> <Gold.PLP.part.nonpolar>
-33.2381

> <Gold.PLP.part.repulsive>
1.8691

> <Gold.PLP.ligand.clash>
0.0000

> <Gold.PLP.ligand.torsion>
1.3552

> <Gold.PLP.Chemscore.Hbond>
2.0000

> <Gold.PLP.Chemscore.CHOScore>
0.0000

> <Gold.PLP.Chemscore.Metal>
0.0000

> <Gold.Chemscore.Hbonds>
donor molecule, donor type, donor heavy atom, donor atom, acceptor molecule, acceptor atom, score
      P1  H  7997  8010       L1    24  0.88

> <Gold.PLP.Chemscore.Internal.Correction>
0.9716

> <Gold.Rescore>
     Score         DG    S(hbond)    S(metal)    S(lipo)     H(rot)  DE(clash)    DE(int)     intcor
      9.42     -13.49       1.72        0.00      72.75       2.44       0.22       3.85       ----

> <Gold.Chemscore.Fitness>
9.4167

> <Gold.Chemscore.DG>
-13.4907

> <Gold.Chemscore.ZeroCoef>
-5.4800

> <Gold.Chemscore.Hbond>
1.7225

> <Gold.Chemscore.Metal>
0.0000

> <Gold.Chemscore.Lipo>
72.7527

> <Gold.Chemscore.Internal_Hbond>
0.0000

> <Gold.Chemscore.DEClash>
0.2198

> <Gold.Chemscore.DEInternal>
3.8543

> <Gold.Chemscore.Rot>
2.4431

> <Gold.Chemscore.Internal.Correction>
   9.000000E+99

> <Gold.Chemscore.Hbonds>
donor molecule, donor type, donor heavy atom, donor atom, acceptor molecule, acceptor atom, score
      P1  H  7997  8010       L1    24  0.84

> <Gold.Chemscore.Hbond.Weighted>
-5.7531

> <Gold.Chemscore.Metal.Weighted>
-0.0000

> <Gold.Chemscore.Lipo.Weighted>
-8.5121

> <Gold.Chemscore.Internal_Hbond.Weighted>
0.0000

> <Gold.Chemscore.DEClash.Weighted>
0.2198

> <Gold.Chemscore.DEInternal.Weighted>
3.8543

> <Gold.Chemscore.Rot.Weighted>
6.2544

> <Gold.Chemscore.Internal.Correction.Weighted>
   9.000000E+99

> <Gold.Protein.RotatedTorsions>
[ 6907 6896 6895 6894 ] final -161.39 input  -60.11 | X-H torsion
[ 7974 7965 7964 7962 ] final -161.03 input  175.53 | X-H torsion
[ 8008 7997 7996 7995 ] final   81.01 input   59.86 | X-H torsion
[ 10167 10162 10161 10158 ] final  107.09 input  -65.29 | X-H torsion
[ 10718 10713 10712 10709 ] final  -62.29 input   66.30 | X-H torsion
[ 10763 10752 10751 10750 ] final  -22.97 input  -60.55 | X-H torsion
[ 11005 11000 10999 10996 ] final -167.20 input  -57.11 | X-H torsion

> <Gold.Protein.ActiveResidues>
 VAL166  LYS551  ARG553  GLY616  TRP617  ASP618  TYR619  PRO620  LYS621  CYS622 
 ASP623  PHE694  ASN695  SER759  ASP760  ASP761  ALA762  ILE779  LEU786  VAL792 
 PHE793  MET794  SER795  GLU796  ALA797  LYS798  CYS799  TRP800  GLU811  SER814 

> <Gold.Protein.RotatedAtoms>
  151.3639  133.3879  159.2692 H   0  0  0  0  0  0  0  0  0  0  0  0  # atno 6907 bound_to 6896
  150.9704  134.9078  159.7795 H   0  0  0  0  0  0  0  0  0  0  0  0  # atno 6908 bound_to 6896
  152.5182  134.3601  159.9334 H   0  0  0  0  0  0  0  0  0  0  0  0  # atno 6909 bound_to 6896
  144.7405  140.3456  143.6126 H   0  0  0  0  0  0  0  0  0  0  0  0  # atno 7974 bound_to 7965
  155.8913  140.3438  155.5958 H   0  0  0  0  0  0  0  0  0  0  0  0  # atno 8008 bound_to 7997
  155.7608  140.0832  157.2175 H   0  0  0  0  0  0  0  0  0  0  0  0  # atno 8009 bound_to 7997
  154.4033  140.1536  156.2817 H   0  0  0  0  0  0  0  0  0  0  0  0  # atno 8010 bound_to 7997
  139.6956  144.7102  151.1273 H   0  0  0  0  0  0  0  0  0  0  0  0  # atno 10167 bound_to 10162
  156.0865  130.4207  150.1114 H   0  0  0  0  0  0  0  0  0  0  0  0  # atno 10718 bound_to 10713
  153.6604  135.6976  153.5179 H   0  0  0  0  0  0  0  0  0  0  0  0  # atno 10763 bound_to 10752
  153.2636  135.4237  155.0917 H   0  0  0  0  0  0  0  0  0  0  0  0  # atno 10764 bound_to 10752
  154.8453  135.3561  154.6149 H   0  0  0  0  0  0  0  0  0  0  0  0  # atno 10765 bound_to 10752
  140.5559  134.5381  157.5133 H   0  0  0  0  0  0  0  0  0  0  0  0  # atno 11005 bound_to 11000
  145.7329  139.1741  143.2420 LP  0  0  0  0  0  0  0  0  0  0  0  0  # atno 17320 bound_to 7965
  146.1192  140.7330  142.9466 LP  0  0  0  0  0  0  0  0  0  0  0  0  # atno 17321 bound_to 7965
  140.7695  143.5497  150.9219 LP  0  0  0  0  0  0  0  0  0  0  0  0  # atno 17342 bound_to 10162
  139.9176  143.6644  152.3103 LP  0  0  0  0  0  0  0  0  0  0  0  0  # atno 17343 bound_to 10162
  156.9134  130.9659  151.3559 LP  0  0  0  0  0  0  0  0  0  0  0  0  # atno 17370 bound_to 10713
  157.6001  130.8506  149.8789 LP  0  0  0  0  0  0  0  0  0  0  0  0  # atno 17371 bound_to 10713
  139.9431  134.7750  156.0627 LP  0  0  0  0  0  0  0  0  0  0  0  0  # atno 17394 bound_to 11000
  141.1143  133.6633  156.3056 LP  0  0  0  0  0  0  0  0  0  0  0  0  # atno 17395 bound_to 11000

$$$$
