AV-unprocessed.smi:1196|AV-procd|sdf|5002|dock7
  -GOLD-   22720 4 13D 1   1.00000     0.00000
 Structure written by MMmdl.
 36 37  0  0  0  0  0  0  0  0  2 V2000
  152.2607  144.5825  157.8452 C   0  0  0  0  0  0  0  0  0  0  0  0
  151.9313  143.2926  158.6126 C   0  0  2  0  0  0  0  0  0  0  0  0
  153.1290  142.8200  159.4596 C   0  0  0  0  0  0  0  0  0  0  0  0
  152.8543  142.8739  160.8848 N   0  0  0  0  0  0  0  0  0  0  0  0
  152.1958  143.8560  161.5943 C   0  0  0  0  0  0  0  0  0  0  0  0
  152.1902  143.4755  162.9055 C   0  0  0  0  0  0  0  0  0  0  0  0
  152.8788  142.2303  162.8986 C   0  0  0  0  0  0  0  0  0  0  0  0
  153.2738  141.8722  161.6875 N   0  0  0  0  0  0  0  0  0  0  0  0
  151.5347  142.2410  157.6783 N   0  0  0  0  0  0  0  0  0  0  0  0
  151.2825  140.9641  158.0032 C   0  0  0  0  0  0  0  0  0  0  0  0
  151.3276  140.5413  159.1592 O   0  0  0  0  0  0  0  0  0  0  0  0
  150.9270  140.0406  156.8338 C   0  0  0  0  0  0  0  0  0  0  0  0
  151.7647  138.7472  156.7873 C   0  0  0  0  0  0  0  0  0  0  0  0
  151.5930  137.9644  155.4685 C   0  0  1  0  0  0  0  0  0  0  0  0
  151.1635  136.5982  155.7127 N   0  5  0  0  0  0  0  0  0  0  0  0
  149.9811  136.4006  155.0833 C   0  0  0  0  0  0  0  0  0  0  0  0
  149.3084  135.3727  155.0529 O   0  0  0  0  0  0  0  0  0  0  0  0
  149.5873  137.5137  154.4558 N   0  0  0  0  0  0  0  0  0  0  0  0
  150.4551  138.5061  154.6246 C   0  0  0  0  0  0  0  0  0  0  0  0
  150.3732  139.6535  154.1883 O   0  0  0  0  0  0  0  0  0  0  0  0
  152.5466  145.3816  158.5292 H   0  0  0  0  0  0  0  0  0  0  0  0
  151.4011  144.9346  157.2741 H   0  0  0  0  0  0  0  0  0  0  0  0
  153.0848  144.4304  157.1473 H   0  0  0  0  0  0  0  0  0  0  0  0
  151.1003  143.5030  159.2889 H   0  0  0  0  0  0  0  0  0  0  0  0
  153.4088  141.7991  159.1955 H   0  0  0  0  0  0  0  0  0  0  0  0
  154.0018  143.4427  159.2574 H   0  0  0  0  0  0  0  0  0  0  0  0
  151.7949  144.7356  161.1128 H   0  0  0  0  0  0  0  0  0  0  0  0
  151.7618  144.0070  163.7422 H   0  0  0  0  0  0  0  0  0  0  0  0
  153.1015  141.5806  163.7320 H   0  0  0  0  0  0  0  0  0  0  0  0
  151.4703  142.4985  156.7042 H   0  0  0  0  0  0  0  0  0  0  0  0
  149.8674  139.7915  156.8983 H   0  0  0  0  0  0  0  0  0  0  0  0
  151.0613  140.5997  155.9069 H   0  0  0  0  0  0  0  0  0  0  0  0
  152.8192  138.9809  156.9474 H   0  0  0  0  0  0  0  0  0  0  0  0
  151.4672  138.1080  157.6205 H   0  0  0  0  0  0  0  0  0  0  0  0
  152.5102  138.0152  154.8802 H   0  0  0  0  0  0  0  0  0  0  0  0
  148.7304  137.5932  153.9292 H   0  0  0  0  0  0  0  0  0  0  0  0
  1  2  1  0  0  0  0
  1 21  1  0  0  0  0
  1 22  1  0  0  0  0
  1 23  1  0  0  0  0
  2  3  1  0  0  0  0
  2  9  1  0  0  0  0
  2 24  1  0  0  0  0
  3  4  1  0  0  0  0
  3 25  1  0  0  0  0
  3 26  1  0  0  0  0
  4  8  1  0  0  0  0
  4  5  1  0  0  0  0
  5  6  2  0  0  0  0
  5 27  1  0  0  0  0
  6  7  1  0  0  0  0
  6 28  1  0  0  0  0
  7  8  2  0  0  0  0
  7 29  1  0  0  0  0
  9 10  1  0  0  0  0
  9 30  1  0  0  0  0
 10 11  2  0  0  0  0
 10 12  1  0  0  0  0
 12 13  1  0  0  0  0
 12 31  1  0  0  0  0
 12 32  1  0  0  0  0
 13 14  1  0  0  0  0
 13 33  1  0  0  0  0
 13 34  1  0  0  0  0
 14 19  1  0  0  0  0
 14 15  1  0  0  0  0
 14 35  1  0  0  0  0
 15 16  1  0  0  0  0
 16 17  2  0  0  0  0
 16 18  1  0  0  0  0
 18 19  1  0  0  0  0
 18 36  1  0  0  0  0
 19 20  2  0  0  0  0
M  CHG  1  15  -1
M  END
> <s_m_source_file>
AV-unprocessed.smi

> <i_m_source_file_index>
1196

> <i_lp_mmshare_version>
43012

> <i_f3d_flags>
0

> <s_epik_input>
bjFbY0hdW2NIXVtjSF1uMVtDSDJdW0NAQEhdKFtDSDNdKVtOSF1DKD1PKVtDSDJdW0NIMl1bQ0BASF0yW05IXUMoPU8pW05IXUMyPU8=

> <s_epik_cmdline>
J2VwaWtfcHl0aG9uJywgJy1waCcsICc3LjAnLCAnLXRuJywgJzgnLCAnLW1hJywgJzIwMCcsICctbWV0YWxfYmluZGluZycsICctaW1hZScsICc8aW5maWxlLm1hZT4nLCAnLW9tYWUnLCAnPG91dGZpbGUubWFlPic=

> <r_lp_tautomer_probability>
1

> <r_epik_Ionization_Penalty>
5.79547

> <r_epik_Ionization_Penalty_Charging>
5.79516

> <r_epik_Ionization_Penalty_Neutral>
0.000313087

> <r_epik_State_Penalty>
5.80096

> <r_epik_Charging_Adjusted_Penalty>
11.5961

> <i_epik_Tot_Q>
-1

> <i_epik_Tot_abs_Q>
1

> <r_epik_Metal_State_Penalty>
2.14443

> <b_epik_Metal_Only>
1

> <s_lp_Force_Field>
OPLS_2005

> <r_lp_Energy>
10.7967

> <b_lp_Chiralities_Consistent>
1

> <s_lp_Variant>
AV-unprocessed.smi:1196-7

> <Gold.Version>
5.8.1

> <Gold.Id.Protein>
6NUR|6NUR_protein|mol2

> <Gold.PLP.Fitness>
48.5048

> <Gold.PLP.PLP>
-44.3387

> <Gold.PLP.part.hbond>
-3.4758

> <Gold.PLP.part.metal>
0.0000

> <Gold.PLP.part.buried>
-4.3801

> <Gold.PLP.part.nonpolar>
-35.9661

> <Gold.PLP.part.repulsive>
1.0817

> <Gold.PLP.ligand.clash>
1.3985

> <Gold.PLP.ligand.torsion>
1.8682

> <Gold.PLP.Chemscore.Hbond>
3.0707

> <Gold.PLP.Chemscore.CHOScore>
0.0000

> <Gold.PLP.Chemscore.Metal>
0.0000

> <Gold.Chemscore.Hbonds>
donor molecule, donor type, donor heavy atom, donor atom, acceptor molecule, acceptor atom, score
      P1  H  7989  7998       L1    20  1.00
      P1  H 10752 10765       L1    15  0.24

> <Gold.PLP.Chemscore.Internal.Correction>
0.0889

> <Gold.Rescore>
     Score         DG    S(hbond)    S(metal)    S(lipo)     H(rot)  DE(clash)    DE(int)     intcor
      7.74     -14.50       1.52        0.00      96.96       2.89       1.69       5.07       ----

> <Gold.Chemscore.Fitness>
7.7359

> <Gold.Chemscore.DG>
-14.5012

> <Gold.Chemscore.ZeroCoef>
-5.4800

> <Gold.Chemscore.Hbond>
1.5231

> <Gold.Chemscore.Metal>
0.0000

> <Gold.Chemscore.Lipo>
96.9589

> <Gold.Chemscore.Internal_Hbond>
0.0000

> <Gold.Chemscore.DEClash>
1.6909

> <Gold.Chemscore.DEInternal>
5.0744

> <Gold.Chemscore.Rot>
2.8946

> <Gold.Chemscore.Internal.Correction>
   9.000000E+99

> <Gold.Chemscore.Hbonds>
donor molecule, donor type, donor heavy atom, donor atom, acceptor molecule, acceptor atom, score
      L1  H    18    36       P1  7948  0.01
      P1  H  7989  7998       L1    20  0.99
      P1  H 10752 10765       L1    15  0.01

> <Gold.Chemscore.Hbond.Weighted>
-5.0871

> <Gold.Chemscore.Metal.Weighted>
-0.0000

> <Gold.Chemscore.Lipo.Weighted>
-11.3442

> <Gold.Chemscore.Internal_Hbond.Weighted>
0.0000

> <Gold.Chemscore.DEClash.Weighted>
1.6909

> <Gold.Chemscore.DEInternal.Weighted>
5.0744

> <Gold.Chemscore.Rot.Weighted>
7.4101

> <Gold.Chemscore.Internal.Correction.Weighted>
   9.000000E+99

> <Gold.Protein.RotatedTorsions>
[ 6907 6896 6895 6894 ] final  -56.35 input  -60.11 | X-H torsion
[ 7974 7965 7964 7962 ] final  124.96 input  175.53 | X-H torsion
[ 8008 7997 7996 7995 ] final  -54.73 input   59.86 | X-H torsion
[ 10167 10162 10161 10158 ] final  -96.59 input  -65.29 | X-H torsion
[ 10718 10713 10712 10709 ] final -167.47 input   66.30 | X-H torsion
[ 10763 10752 10751 10750 ] final  172.11 input  -60.55 | X-H torsion
[ 11005 11000 10999 10996 ] final  -67.96 input  -57.11 | X-H torsion

> <Gold.Protein.ActiveResidues>
 VAL166  LYS551  ARG553  GLY616  TRP617  ASP618  TYR619  PRO620  LYS621  CYS622 
 ASP623  PHE694  ASN695  SER759  ASP760  ASP761  ALA762  ILE779  LEU786  VAL792 
 PHE793  MET794  SER795  GLU796  ALA797  LYS798  CYS799  TRP800  GLU811  SER814 

> <Gold.Protein.RotatedAtoms>
  150.8175  134.7364  159.6742 H   0  0  0  0  0  0  0  0  0  0  0  0  # atno 6907 bound_to 6896
  152.4292  134.5806  159.9956 H   0  0  0  0  0  0  0  0  0  0  0  0  # atno 6908 bound_to 6896
  151.5999  133.3320  159.3081 H   0  0  0  0  0  0  0  0  0  0  0  0  # atno 6909 bound_to 6896
  145.0784  139.3676  143.4922 H   0  0  0  0  0  0  0  0  0  0  0  0  # atno 7974 bound_to 7965
  154.4172  140.1169  156.5363 H   0  0  0  0  0  0  0  0  0  0  0  0  # atno 8008 bound_to 7997
  155.6554  140.3496  155.4744 H   0  0  0  0  0  0  0  0  0  0  0  0  # atno 8009 bound_to 7997
  155.9758  140.1150  157.0761 H   0  0  0  0  0  0  0  0  0  0  0  0  # atno 8010 bound_to 7997
  140.2923  143.3214  152.0333 H   0  0  0  0  0  0  0  0  0  0  0  0  # atno 10167 bound_to 10162
  156.6828  130.9128  151.3059 H   0  0  0  0  0  0  0  0  0  0  0  0  # atno 10718 bound_to 10713
  154.4214  135.2758  155.1973 H   0  0  0  0  0  0  0  0  0  0  0  0  # atno 10763 bound_to 10752
  154.3917  135.6064  153.5850 H   0  0  0  0  0  0  0  0  0  0  0  0  # atno 10764 bound_to 10752
  152.9833  135.5905  154.4510 H   0  0  0  0  0  0  0  0  0  0  0  0  # atno 10765 bound_to 10752
  141.1521  133.6730  156.6373 H   0  0  0  0  0  0  0  0  0  0  0  0  # atno 11005 bound_to 11000
  146.3530  140.0562  142.8632 LP  0  0  0  0  0  0  0  0  0  0  0  0  # atno 17320 bound_to 7965
  145.1208  140.9461  143.4601 LP  0  0  0  0  0  0  0  0  0  0  0  0  # atno 17321 bound_to 7965
  139.4935  144.6516  151.6663 LP  0  0  0  0  0  0  0  0  0  0  0  0  # atno 17342 bound_to 10162
  140.5722  144.0089  150.6222 LP  0  0  0  0  0  0  0  0  0  0  0  0  # atno 17343 bound_to 10162
  157.7037  130.9361  150.0865 LP  0  0  0  0  0  0  0  0  0  0  0  0  # atno 17370 bound_to 10713
  156.1855  130.3652  149.8978 LP  0  0  0  0  0  0  0  0  0  0  0  0  # atno 17371 bound_to 10713
  140.3420  134.7840  157.4405 LP  0  0  0  0  0  0  0  0  0  0  0  0  # atno 17394 bound_to 11000
  140.0930  134.5575  155.8426 LP  0  0  0  0  0  0  0  0  0  0  0  0  # atno 17395 bound_to 11000

$$$$
