AV-unprocessed.smi:3284|AV-procd|sdf|12574|dock3
  -GOLD-   2272018493D 1   1.00000     0.00000
 Structure written by MMmdl.
 44 45  0  0  0  0  0  0  0  0  2 V2000
  152.4804  140.7049  158.3524 C   0  0  0  0  0  0  0  0  0  0  0  0
  152.3913  141.6999  159.4978 C   0  0  0  0  0  0  0  0  0  0  0  0
  152.9161  141.3854  160.6975 C   0  0  0  0  0  0  0  0  0  0  0  0
  152.9528  142.3213  161.8830 C   0  0  0  0  0  0  0  0  0  0  0  0
  152.8088  143.7776  161.4358 C   0  0  0  0  0  0  0  0  0  0  0  0
  151.6106  143.9585  160.4899 C   0  0  1  0  0  0  0  0  0  0  0  0
  151.4551  145.4516  160.1419 C   0  0  0  0  0  0  0  0  0  0  0  0
  151.7124  143.0572  159.2203 C   0  0  2  0  0  0  0  0  0  0  0  0
  150.3138  142.9057  158.5649 C   0  0  0  0  0  0  0  0  0  0  0  0
  150.3689  142.8715  157.0890 N   0  3  0  0  0  0  0  0  0  0  0  0
  149.7985  141.6484  156.4930 C   0  0  0  0  0  0  0  0  0  0  0  0
  149.7012  141.7731  154.9675 C   0  0  0  0  0  0  0  0  0  0  0  0
  148.7502  140.7804  154.3752 C   0  0  0  0  0  0  0  0  0  0  0  0
  149.0276  139.4870  154.2451 N   0  0  0  0  0  0  0  0  0  0  0  0
  147.8834  138.9334  153.6808 C   0  0  0  0  0  0  0  0  0  0  0  0
  146.9439  139.9188  153.4964 C   0  0  0  0  0  0  0  0  0  0  0  0
  147.5117  141.1008  153.9530 N   0  0  0  0  0  0  0  0  0  0  0  0
  146.8746  142.4033  153.9620 C   0  0  0  0  0  0  0  0  0  0  0  0
  152.8892  141.1820  157.4614 H   0  0  0  0  0  0  0  0  0  0  0  0
  151.4996  140.2923  158.1177 H   0  0  0  0  0  0  0  0  0  0  0  0
  153.1317  139.8674  158.6052 H   0  0  0  0  0  0  0  0  0  0  0  0
  153.3618  140.4136  160.8532 H   0  0  0  0  0  0  0  0  0  0  0  0
  152.1550  142.0448  162.5729 H   0  0  0  0  0  0  0  0  0  0  0  0
  153.8964  142.1905  162.4133 H   0  0  0  0  0  0  0  0  0  0  0  0
  152.7034  144.4155  162.3142 H   0  0  0  0  0  0  0  0  0  0  0  0
  153.7230  144.0955  160.9321 H   0  0  0  0  0  0  0  0  0  0  0  0
  150.7228  143.6551  161.0478 H   0  0  0  0  0  0  0  0  0  0  0  0
  152.3088  145.8143  159.5686 H   0  0  0  0  0  0  0  0  0  0  0  0
  151.3882  146.0572  161.0462 H   0  0  0  0  0  0  0  0  0  0  0  0
  150.5567  145.6533  159.5607 H   0  0  0  0  0  0  0  0  0  0  0  0
  152.3680  143.5692  158.5141 H   0  0  0  0  0  0  0  0  0  0  0  0
  149.8315  142.0001  158.9358 H   0  0  0  0  0  0  0  0  0  0  0  0
  149.6599  143.7326  158.8371 H   0  0  0  0  0  0  0  0  0  0  0  0
  149.8704  143.6727  156.7292 H   0  0  0  0  0  0  0  0  0  0  0  0
  150.4258  140.7957  156.7563 H   0  0  0  0  0  0  0  0  0  0  0  0
  148.8105  141.4667  156.9175 H   0  0  0  0  0  0  0  0  0  0  0  0
  149.4008  142.7827  154.6860 H   0  0  0  0  0  0  0  0  0  0  0  0
  150.6835  141.6138  154.5208 H   0  0  0  0  0  0  0  0  0  0  0  0
  147.8245  137.8790  153.4545 H   0  0  0  0  0  0  0  0  0  0  0  0
  145.9436  139.8755  153.0909 H   0  0  0  0  0  0  0  0  0  0  0  0
  145.8348  142.3154  153.6455 H   0  0  0  0  0  0  0  0  0  0  0  0
  147.3956  143.0729  153.2776 H   0  0  0  0  0  0  0  0  0  0  0  0
  146.9016  142.8224  154.9678 H   0  0  0  0  0  0  0  0  0  0  0  0
  151.3367  142.9401  156.8076 H   0  0  0  0  0  0  0  0  0  0  0  0
  1  2  1  0  0  0  0
  1 19  1  0  0  0  0
  1 20  1  0  0  0  0
  1 21  1  0  0  0  0
  2  8  1  0  0  0  0
  2  3  2  0  0  0  0
  3  4  1  0  0  0  0
  3 22  1  0  0  0  0
  4  5  1  0  0  0  0
  4 23  1  0  0  0  0
  4 24  1  0  0  0  0
  5  6  1  0  0  0  0
  5 25  1  0  0  0  0
  5 26  1  0  0  0  0
  6  7  1  0  0  0  0
  6  8  1  0  0  0  0
  6 27  1  0  0  0  0
  7 28  1  0  0  0  0
  7 29  1  0  0  0  0
  7 30  1  0  0  0  0
  8  9  1  0  0  0  0
  8 31  1  0  0  0  0
  9 10  1  0  0  0  0
  9 32  1  0  0  0  0
  9 33  1  0  0  0  0
 10 11  1  0  0  0  0
 10 34  1  0  0  0  0
 10 44  1  0  0  0  0
 11 12  1  0  0  0  0
 11 35  1  0  0  0  0
 11 36  1  0  0  0  0
 12 13  1  0  0  0  0
 12 37  1  0  0  0  0
 12 38  1  0  0  0  0
 13 17  1  0  0  0  0
 13 14  2  0  0  0  0
 14 15  1  0  0  0  0
 15 16  2  0  0  0  0
 15 39  1  0  0  0  0
 16 17  1  0  0  0  0
 16 40  1  0  0  0  0
 17 18  1  0  0  0  0
 18 41  1  0  0  0  0
 18 42  1  0  0  0  0
 18 43  1  0  0  0  0
M  CHG  1  10   1
M  END
> <s_m_source_file>
AV-unprocessed.smi

> <i_m_source_file_index>
3284

> <i_lp_mmshare_version>
43012

> <i_f3d_flags>
0

> <s_epik_input>
W0NIM11DMT1bQ0hdW0NIMl1bQ0gyXVtDQEBIXShbQ0gzXSlbQ0BIXTFbQ0gyXVtOSF1bQ0gyXVtDSDJdYzJuW2NIXVtjSF1uMltDSDNd

> <s_epik_cmdline>
J2VwaWtfcHl0aG9uJywgJy1waCcsICc3LjAnLCAnLXRuJywgJzgnLCAnLW1hJywgJzIwMCcsICctbWV0YWxfYmluZGluZycsICctaW1hZScsICc8aW5maWxlLm1hZT4nLCAnLW9tYWUnLCAnPG91dGZpbGUubWFlPic=

> <r_lp_tautomer_probability>
1

> <r_epik_Ionization_Penalty>
0.150779

> <r_epik_Ionization_Penalty_Charging>
0.150779

> <r_epik_Ionization_Penalty_Neutral>
1.39452e-13

> <r_epik_State_Penalty>
0.349447

> <r_epik_Charging_Adjusted_Penalty>
0.500226

> <i_epik_Tot_Q>
1

> <i_epik_Tot_abs_Q>
1

> <r_epik_Metal_State_Penalty>
0.000470967

> <b_epik_Metal_Only>
0

> <s_lp_Force_Field>
OPLS_2005

> <r_lp_Energy>
12.7203

> <b_lp_Chiralities_Consistent>
1

> <s_lp_Variant>
AV-unprocessed.smi:3284-3

> <Gold.Version>
5.8.1

> <Gold.Id.Protein>
6NUR|6NUR_protein|mol2

> <Gold.PLP.Fitness>
51.7355

> <Gold.PLP.PLP>
-41.8529

> <Gold.PLP.part.hbond>
-1.0000

> <Gold.PLP.part.metal>
0.0000

> <Gold.PLP.part.buried>
-4.9709

> <Gold.PLP.part.nonpolar>
-35.4994

> <Gold.PLP.part.repulsive>
0.1607

> <Gold.PLP.ligand.clash>
0.0000

> <Gold.PLP.ligand.torsion>
1.1041

> <Gold.PLP.Chemscore.Hbond>
2.0000

> <Gold.PLP.Chemscore.CHOScore>
2.0000

> <Gold.PLP.Chemscore.Metal>
0.0000

> <Gold.Chemscore.Hbonds>
donor molecule, donor type, donor heavy atom, donor atom, acceptor molecule, acceptor atom, score
      L1  H    10    34       P1  8028  2.00
      L1  C    15    39       P1  7948  0.96
      L1  C    16    40       P1 10175  1.00

> <Gold.PLP.Chemscore.Internal.Correction>
0.0908

> <Gold.Rescore>
     Score         DG    S(hbond)    S(metal)    S(lipo)     H(rot)  DE(clash)    DE(int)     intcor
     17.69     -18.71       0.99        0.00     120.14       1.61       0.01       1.01       ----

> <Gold.Chemscore.Fitness>
17.6943

> <Gold.Chemscore.DG>
-18.7073

> <Gold.Chemscore.ZeroCoef>
-5.4800

> <Gold.Chemscore.Hbond>
0.9863

> <Gold.Chemscore.Metal>
0.0000

> <Gold.Chemscore.Lipo>
120.1364

> <Gold.Chemscore.Internal_Hbond>
0.0000

> <Gold.Chemscore.DEClash>
0.0056

> <Gold.Chemscore.DEInternal>
1.0074

> <Gold.Chemscore.Rot>
1.6105

> <Gold.Chemscore.Internal.Correction>
   9.000000E+99

> <Gold.Chemscore.Hbonds>
donor molecule, donor type, donor heavy atom, donor atom, acceptor molecule, acceptor atom, score
      L1  H    10    34       P1  8028  1.00

> <Gold.Chemscore.Hbond.Weighted>
-3.2944

> <Gold.Chemscore.Metal.Weighted>
-0.0000

> <Gold.Chemscore.Lipo.Weighted>
-14.0560

> <Gold.Chemscore.Internal_Hbond.Weighted>
0.0000

> <Gold.Chemscore.DEClash.Weighted>
0.0056

> <Gold.Chemscore.DEInternal.Weighted>
1.0074

> <Gold.Chemscore.Rot.Weighted>
4.1230

> <Gold.Chemscore.Internal.Correction.Weighted>
   9.000000E+99

> <Gold.Protein.RotatedTorsions>
[ 6907 6896 6895 6894 ] final -174.09 input  -60.11 | X-H torsion
[ 7974 7965 7964 7962 ] final  131.10 input  175.53 | X-H torsion
[ 8008 7997 7996 7995 ] final  -77.41 input   59.86 | X-H torsion
[ 10167 10162 10161 10158 ] final  147.64 input  -65.29 | X-H torsion
[ 10718 10713 10712 10709 ] final -140.25 input   66.30 | X-H torsion
[ 10763 10752 10751 10750 ] final   -0.65 input  -60.55 | X-H torsion
[ 11005 11000 10999 10996 ] final  -51.01 input  -57.11 | X-H torsion

> <Gold.Protein.ActiveResidues>
 VAL166  LYS551  ARG553  GLY616  TRP617  ASP618  TYR619  PRO620  LYS621  CYS622 
 ASP623  PHE694  ASN695  SER759  ASP760  ASP761  ALA762  ILE779  LEU786  VAL792 
 PHE793  MET794  SER795  GLU796  ALA797  LYS798  CYS799  TRP800  GLU811  SER814 

> <Gold.Protein.RotatedAtoms>
  151.5668  133.3395  159.2981 H   0  0  0  0  0  0  0  0  0  0  0  0  # atno 6907 bound_to 6896
  150.8391  134.7678  159.6928 H   0  0  0  0  0  0  0  0  0  0  0  0  # atno 6908 bound_to 6896
  152.4462  134.5497  159.9915 H   0  0  0  0  0  0  0  0  0  0  0  0  # atno 6909 bound_to 6896
  145.0108  139.4222  143.5246 H   0  0  0  0  0  0  0  0  0  0  0  0  # atno 7974 bound_to 7965
  154.5593  140.0711  156.8794 H   0  0  0  0  0  0  0  0  0  0  0  0  # atno 8008 bound_to 7997
  155.2841  140.3373  155.4238 H   0  0  0  0  0  0  0  0  0  0  0  0  # atno 8009 bound_to 7997
  156.2029  140.1728  156.7847 H   0  0  0  0  0  0  0  0  0  0  0  0  # atno 8010 bound_to 7997
  139.4887  144.5740  151.7001 H   0  0  0  0  0  0  0  0  0  0  0  0  # atno 10167 bound_to 10162
  156.3201  130.7529  151.1625 H   0  0  0  0  0  0  0  0  0  0  0  0  # atno 10718 bound_to 10713
  153.3347  135.6977  153.6918 H   0  0  0  0  0  0  0  0  0  0  0  0  # atno 10763 bound_to 10752
  153.5706  135.3517  155.2837 H   0  0  0  0  0  0  0  0  0  0  0  0  # atno 10764 bound_to 10752
  154.8625  135.4271  154.2544 H   0  0  0  0  0  0  0  0  0  0  0  0  # atno 10765 bound_to 10752
  141.0848  133.6645  156.3815 H   0  0  0  0  0  0  0  0  0  0  0  0  # atno 11005 bound_to 11000
  146.3469  139.9551  142.8724 LP  0  0  0  0  0  0  0  0  0  0  0  0  # atno 17320 bound_to 7965
  145.2025  140.9861  143.4147 LP  0  0  0  0  0  0  0  0  0  0  0  0  # atno 17321 bound_to 7965
  140.5332  144.0696  150.6061 LP  0  0  0  0  0  0  0  0  0  0  0  0  # atno 17342 bound_to 10162
  140.3694  143.2863  152.0295 LP  0  0  0  0  0  0  0  0  0  0  0  0  # atno 17343 bound_to 10162
  157.7410  131.0510  150.5128 LP  0  0  0  0  0  0  0  0  0  0  0  0  # atno 17370 bound_to 10713
  156.5279  130.4177  149.6216 LP  0  0  0  0  0  0  0  0  0  0  0  0  # atno 17371 bound_to 10713
  140.5388  134.6140  157.5373 LP  0  0  0  0  0  0  0  0  0  0  0  0  # atno 17394 bound_to 11000
  139.9665  134.7365  156.0129 LP  0  0  0  0  0  0  0  0  0  0  0  0  # atno 17395 bound_to 11000

$$$$
