AV-unprocessed.smi:1894|AV-procd|sdf|7679|dock10
  -GOLD-   22720 9423D 1   1.00000     0.00000
 Structure written by MMmdl.
 32 34  0  0  0  0  0  0  0  0  1 V2000
  150.7184  141.1852  158.8512 O   0  0  0  0  0  0  0  0  0  0  0  0
  151.7206  141.4275  158.1794 C   0  0  0  0  0  0  0  0  0  0  0  0
  151.9268  140.7257  156.8373 C   0  0  0  0  0  0  0  0  0  0  0  0
  150.7184  140.7774  156.0356 N   0  0  0  0  0  0  0  0  0  0  0  0
  149.5218  141.3030  156.3037 C   0  0  0  0  0  0  0  0  0  0  0  0
  148.6406  141.1553  155.3241 N   0  0  0  0  0  0  0  0  0  0  0  0
  149.4148  140.4840  154.4202 C   0  0  0  0  0  0  0  0  0  0  0  0
  150.6685  140.2319  154.7971 N   0  0  0  0  0  0  0  0  0  0  0  0
  152.6803  142.2869  158.5559 N   0  0  0  0  0  0  0  0  0  0  0  0
  152.7032  143.0490  159.7997 C   0  0  0  0  0  0  0  0  0  0  0  0
  152.7049  142.1584  161.0319 C   0  0  0  0  0  0  0  0  0  0  0  0
  153.3009  142.6264  162.3390 C   0  0  0  0  0  0  0  0  0  0  0  0
  153.9776  141.5298  161.5501 C   0  0  0  0  0  0  0  0  0  0  0  0
  151.5518  144.0361  159.8647 C   0  0  0  0  0  0  0  0  0  0  0  0
  151.5445  145.2822  159.0121 C   0  0  0  0  0  0  0  0  0  0  0  0
  151.7077  145.3922  160.5114 C   0  0  0  0  0  0  0  0  0  0  0  0
  152.7345  141.2079  156.2853 H   0  0  0  0  0  0  0  0  0  0  0  0
  152.2188  139.6857  156.9932 H   0  0  0  0  0  0  0  0  0  0  0  0
  149.2910  141.8006  157.2344 H   0  0  0  0  0  0  0  0  0  0  0  0
  149.0432  140.1719  153.4553 H   0  0  0  0  0  0  0  0  0  0  0  0
  153.4671  142.4121  157.9353 H   0  0  0  0  0  0  0  0  0  0  0  0
  153.6238  143.6365  159.8171 H   0  0  0  0  0  0  0  0  0  0  0  0
  151.8078  141.5485  161.1226 H   0  0  0  0  0  0  0  0  0  0  0  0
  153.7909  143.5975  162.3599 H   0  0  0  0  0  0  0  0  0  0  0  0
  152.7862  142.3439  163.2550 H   0  0  0  0  0  0  0  0  0  0  0  0
  153.9137  140.5155  161.9381 H   0  0  0  0  0  0  0  0  0  0  0  0
  154.9114  141.7797  161.0509 H   0  0  0  0  0  0  0  0  0  0  0  0
  150.5832  143.5596  160.0069 H   0  0  0  0  0  0  0  0  0  0  0  0
  152.4198  145.4811  158.3966 H   0  0  0  0  0  0  0  0  0  0  0  0
  150.5933  145.5920  158.5842 H   0  0  0  0  0  0  0  0  0  0  0  0
  150.8649  145.7743  161.0837 H   0  0  0  0  0  0  0  0  0  0  0  0
  152.6904  145.6720  160.8854 H   0  0  0  0  0  0  0  0  0  0  0  0
  1  2  2  0  0  0  0
  2  3  1  0  0  0  0
  2  9  1  0  0  0  0
  3  4  1  0  0  0  0
  3 17  1  0  0  0  0
  3 18  1  0  0  0  0
  4  8  1  0  0  0  0
  4  5  1  0  0  0  0
  5  6  2  0  0  0  0
  5 19  1  0  0  0  0
  6  7  1  0  0  0  0
  7  8  2  0  0  0  0
  7 20  1  0  0  0  0
  9 10  1  0  0  0  0
  9 21  1  0  0  0  0
 10 11  1  0  0  0  0
 10 14  1  0  0  0  0
 10 22  1  0  0  0  0
 11 13  1  0  0  0  0
 11 12  1  0  0  0  0
 11 23  1  0  0  0  0
 12 13  1  0  0  0  0
 12 24  1  0  0  0  0
 12 25  1  0  0  0  0
 13 26  1  0  0  0  0
 13 27  1  0  0  0  0
 14 16  1  0  0  0  0
 14 15  1  0  0  0  0
 14 28  1  0  0  0  0
 15 16  1  0  0  0  0
 15 29  1  0  0  0  0
 15 30  1  0  0  0  0
 16 31  1  0  0  0  0
 16 32  1  0  0  0  0
M  END
> <s_m_source_file>
AV-unprocessed.smi

> <i_m_source_file_index>
1894

> <i_lp_mmshare_version>
43012

> <i_f3d_flags>
0

> <s_epik_input>
W0NIMl0xW0NIMl1bQ0hdMVtDSF0oW0NIXTJbQ0gyXVtDSDJdMilbTkhdQyg9TylbQ0gyXW4zW2NIXW5bY0hdbjM=

> <s_epik_cmdline>
J2VwaWtfcHl0aG9uJywgJy1waCcsICc3LjAnLCAnLXRuJywgJzgnLCAnLW1hJywgJzIwMCcsICctbWV0YWxfYmluZGluZycsICctaW1hZScsICc8aW5maWxlLm1hZT4nLCAnLW9tYWUnLCAnPG91dGZpbGUubWFlPic=

> <r_lp_tautomer_probability>
1

> <r_epik_Ionization_Penalty>
9.18136e-06

> <r_epik_Ionization_Penalty_Charging>
0

> <r_epik_Ionization_Penalty_Neutral>
9.18136e-06

> <r_epik_State_Penalty>
-0

> <r_epik_Charging_Adjusted_Penalty>
0

> <i_epik_Tot_Q>
0

> <i_epik_Tot_abs_Q>
0

> <r_epik_Metal_State_Penalty>
-0

> <b_epik_Metal_Only>
0

> <s_lp_Force_Field>
OPLS_2005

> <r_lp_Energy>
25.0863

> <b_lp_Chiralities_Consistent>
1

> <s_lp_Variant>
AV-unprocessed.smi:1894-1

> <Gold.Version>
5.8.1

> <Gold.Id.Protein>
6NUR|6NUR_protein|mol2

> <Gold.PLP.Fitness>
45.9810

> <Gold.PLP.PLP>
-40.3050

> <Gold.PLP.part.hbond>
-1.3309

> <Gold.PLP.part.metal>
0.0000

> <Gold.PLP.part.buried>
-3.9189

> <Gold.PLP.part.nonpolar>
-34.6784

> <Gold.PLP.part.repulsive>
0.2519

> <Gold.PLP.ligand.clash>
0.0000

> <Gold.PLP.ligand.torsion>
1.2267

> <Gold.PLP.Chemscore.Hbond>
1.0000

> <Gold.PLP.Chemscore.CHOScore>
1.0000

> <Gold.PLP.Chemscore.Metal>
0.0000

> <Gold.Chemscore.Hbonds>
donor molecule, donor type, donor heavy atom, donor atom, acceptor molecule, acceptor atom, score
      P1  H  7989  7998       L1     8  1.00
      L1  C     7    20       P1  7957  1.00

> <Gold.PLP.Chemscore.Internal.Correction>
2.1293

> <Gold.Rescore>
     Score         DG    S(hbond)    S(metal)    S(lipo)     H(rot)  DE(clash)    DE(int)     intcor
      9.29     -12.08       0.85        0.00      86.88       2.50       0.10       2.69       ----

> <Gold.Chemscore.Fitness>
9.2893

> <Gold.Chemscore.DG>
-12.0756

> <Gold.Chemscore.ZeroCoef>
-5.4800

> <Gold.Chemscore.Hbond>
0.8456

> <Gold.Chemscore.Metal>
0.0000

> <Gold.Chemscore.Lipo>
86.8834

> <Gold.Chemscore.Internal_Hbond>
0.0000

> <Gold.Chemscore.DEClash>
0.0954

> <Gold.Chemscore.DEInternal>
2.6909

> <Gold.Chemscore.Rot>
2.4977

> <Gold.Chemscore.Internal.Correction>
   9.000000E+99

> <Gold.Chemscore.Hbonds>
donor molecule, donor type, donor heavy atom, donor atom, acceptor molecule, acceptor atom, score
      P1  H  7989  7998       L1     8  0.44

> <Gold.Chemscore.Hbond.Weighted>
-2.8243

> <Gold.Chemscore.Metal.Weighted>
-0.0000

> <Gold.Chemscore.Lipo.Weighted>
-10.1654

> <Gold.Chemscore.Internal_Hbond.Weighted>
0.0000

> <Gold.Chemscore.DEClash.Weighted>
0.0954

> <Gold.Chemscore.DEInternal.Weighted>
2.6909

> <Gold.Chemscore.Rot.Weighted>
6.3941

> <Gold.Chemscore.Internal.Correction.Weighted>
   9.000000E+99

> <Gold.Protein.RotatedTorsions>
[ 6907 6896 6895 6894 ] final  167.78 input  -60.11 | X-H torsion
[ 7974 7965 7964 7962 ] final  -32.13 input  175.53 | X-H torsion
[ 8008 7997 7996 7995 ] final   48.10 input   59.86 | X-H torsion
[ 10167 10162 10161 10158 ] final -110.96 input  -65.29 | X-H torsion
[ 10718 10713 10712 10709 ] final  -67.03 input   66.30 | X-H torsion
[ 10763 10752 10751 10750 ] final  139.28 input  -60.55 | X-H torsion
[ 11005 11000 10999 10996 ] final   99.15 input  -57.11 | X-H torsion

> <Gold.Protein.ActiveResidues>
 VAL166  LYS551  ARG553  GLY616  TRP617  ASP618  TYR619  PRO620  LYS621  CYS622 
 ASP623  PHE694  ASN695  SER759  ASP760  ASP761  ALA762  ILE779  LEU786  VAL792 
 PHE793  MET794  SER795  GLU796  ALA797  LYS798  CYS799  TRP800  GLU811  SER814 

> <Gold.Protein.RotatedAtoms>
  151.8579  133.3451  159.3693 H   0  0  0  0  0  0  0  0  0  0  0  0  # atno 6907 bound_to 6896
  150.7187  134.5235  159.5674 H   0  0  0  0  0  0  0  0  0  0  0  0  # atno 6908 bound_to 6896
  152.2742  134.7900  160.0459 H   0  0  0  0  0  0  0  0  0  0  0  0  # atno 6909 bound_to 6896
  146.1014  140.5754  142.8819 H   0  0  0  0  0  0  0  0  0  0  0  0  # atno 7974 bound_to 7965
  155.3801  140.3428  155.4246 H   0  0  0  0  0  0  0  0  0  0  0  0  # atno 8008 bound_to 7997
  156.1615  140.1602  156.8637 H   0  0  0  0  0  0  0  0  0  0  0  0  # atno 8009 bound_to 7997
  154.5144  140.0782  156.8034 H   0  0  0  0  0  0  0  0  0  0  0  0  # atno 8010 bound_to 7997
  140.1387  143.4297  152.1577 H   0  0  0  0  0  0  0  0  0  0  0  0  # atno 10167 bound_to 10162
  156.0580  130.4271  150.1795 H   0  0  0  0  0  0  0  0  0  0  0  0  # atno 10718 bound_to 10713
  153.9035  135.3019  155.3448 H   0  0  0  0  0  0  0  0  0  0  0  0  # atno 10763 bound_to 10752
  154.7659  135.4911  153.9556 H   0  0  0  0  0  0  0  0  0  0  0  0  # atno 10764 bound_to 10752
  153.1232  135.6787  153.9401 H   0  0  0  0  0  0  0  0  0  0  0  0  # atno 10765 bound_to 10752
  139.8771  134.9082  156.4563 H   0  0  0  0  0  0  0  0  0  0  0  0  # atno 11005 bound_to 11000
  144.7435  140.5007  143.6852 LP  0  0  0  0  0  0  0  0  0  0  0  0  # atno 17320 bound_to 7965
  145.5847  139.1491  143.3215 LP  0  0  0  0  0  0  0  0  0  0  0  0  # atno 17321 bound_to 7965
  139.5483  144.7316  151.4515 LP  0  0  0  0  0  0  0  0  0  0  0  0  # atno 17342 bound_to 10162
  140.6773  143.8161  150.7075 LP  0  0  0  0  0  0  0  0  0  0  0  0  # atno 17343 bound_to 10162
  156.9868  130.9881  151.3424 LP  0  0  0  0  0  0  0  0  0  0  0  0  # atno 17370 bound_to 10713
  157.5565  130.8217  149.8211 LP  0  0  0  0  0  0  0  0  0  0  0  0  # atno 17371 bound_to 10713
  140.8896  133.7858  155.9557 LP  0  0  0  0  0  0  0  0  0  0  0  0  # atno 17394 bound_to 11000
  140.8768  134.2660  157.5164 LP  0  0  0  0  0  0  0  0  0  0  0  0  # atno 17395 bound_to 11000

$$$$
