AV-unprocessed.smi:1251|AV-procd|sdf|5263|dock7
  -GOLD-   22720 4373D 1   1.00000     0.00000
 Structure written by MMmdl.
 38 39  0  0  0  0  0  0  0  0  2 V2000
  152.0664  143.8458  158.7094 C   0  0  0  0  0  0  0  0  0  0  0  0
  151.2020  142.8163  157.9732 C   0  0  0  0  0  0  0  0  0  0  0  0
  151.7834  141.3975  158.0501 C   0  0  0  0  0  0  0  0  0  0  0  0
  151.4360  140.5702  156.8576 C   0  0  0  0  0  0  0  0  0  0  0  0
  152.3350  140.2138  155.9366 N   0  0  0  0  0  0  0  0  0  0  0  0
  151.7667  139.4721  154.9112 N   0  0  0  0  0  0  0  0  0  0  0  0
  150.4455  139.2988  155.0575 C   0  0  0  0  0  0  0  0  0  0  0  0
  149.7078  138.6088  154.1720 N   0  5  0  0  0  0  0  0  0  0  0  0
  148.4167  138.9490  153.9571 C   0  0  0  0  0  0  0  0  0  0  0  0
  147.7615  139.7688  154.6046 O   0  0  0  0  0  0  0  0  0  0  0  0
  147.8516  138.2908  152.9339 N   0  0  0  0  0  0  0  0  0  0  0  0
  146.4753  138.4253  152.4567 C   0  0  1  0  0  0  0  0  0  0  0  0
  146.4966  139.0862  151.0708 C   0  0  0  0  0  0  0  0  0  0  0  0
  145.7821  137.0476  152.4224 C   0  0  1  0  0  0  0  0  0  0  0  0
  144.2606  137.0805  152.5798 C   0  0  0  0  0  0  0  0  0  0  0  0
  143.8045  135.7913  151.9153 C   0  0  0  0  0  0  0  0  0  0  0  0
  145.0148  135.3507  151.0869 C   0  0  0  0  0  0  0  0  0  0  0  0
  145.9278  136.4378  151.1488 O   0  0  0  0  0  0  0  0  0  0  0  0
  149.7966  140.0409  156.5197 S   0  0  0  0  0  0  0  0  0  0  0  0
  151.6299  144.8422  158.6371 H   0  0  0  0  0  0  0  0  0  0  0  0
  153.0707  143.8904  158.2868 H   0  0  0  0  0  0  0  0  0  0  0  0
  152.1576  143.5981  159.7673 H   0  0  0  0  0  0  0  0  0  0  0  0
  150.1970  142.8231  158.3968 H   0  0  0  0  0  0  0  0  0  0  0  0
  151.0989  143.1134  156.9287 H   0  0  0  0  0  0  0  0  0  0  0  0
  152.8694  141.4409  158.1423 H   0  0  0  0  0  0  0  0  0  0  0  0
  151.4149  140.8900  158.9422 H   0  0  0  0  0  0  0  0  0  0  0  0
  148.4347  137.6304  152.4413 H   0  0  0  0  0  0  0  0  0  0  0  0
  145.9121  139.0816  153.1222 H   0  0  0  0  0  0  0  0  0  0  0  0
  145.4860  139.2383  150.6910 H   0  0  0  0  0  0  0  0  0  0  0  0
  147.0360  138.4748  150.3466 H   0  0  0  0  0  0  0  0  0  0  0  0
  146.9816  140.0622  151.1102 H   0  0  0  0  0  0  0  0  0  0  0  0
  146.2146  136.3884  153.1779 H   0  0  0  0  0  0  0  0  0  0  0  0
  143.9455  137.1566  153.6210 H   0  0  0  0  0  0  0  0  0  0  0  0
  143.8459  137.9332  152.0406 H   0  0  0  0  0  0  0  0  0  0  0  0
  143.5492  135.0311  152.6544 H   0  0  0  0  0  0  0  0  0  0  0  0
  142.9263  135.9628  151.2920 H   0  0  0  0  0  0  0  0  0  0  0  0
  145.4789  134.4673  151.5276 H   0  0  0  0  0  0  0  0  0  0  0  0
  144.7532  135.1183  150.0544 H   0  0  0  0  0  0  0  0  0  0  0  0
  1  2  1  0  0  0  0
  1 20  1  0  0  0  0
  1 21  1  0  0  0  0
  1 22  1  0  0  0  0
  2  3  1  0  0  0  0
  2 23  1  0  0  0  0
  2 24  1  0  0  0  0
  3  4  1  0  0  0  0
  3 25  1  0  0  0  0
  3 26  1  0  0  0  0
  4 19  1  0  0  0  0
  4  5  2  0  0  0  0
  5  6  1  0  0  0  0
  6  7  2  0  0  0  0
  7  8  1  0  0  0  0
  7 19  1  0  0  0  0
  8  9  1  0  0  0  0
  9 10  2  0  0  0  0
  9 11  1  0  0  0  0
 11 12  1  0  0  0  0
 11 27  1  0  0  0  0
 12 13  1  0  0  0  0
 12 14  1  0  0  0  0
 12 28  1  0  0  0  0
 13 29  1  0  0  0  0
 13 30  1  0  0  0  0
 13 31  1  0  0  0  0
 14 18  1  0  0  0  0
 14 15  1  0  0  0  0
 14 32  1  0  0  0  0
 15 16  1  0  0  0  0
 15 33  1  0  0  0  0
 15 34  1  0  0  0  0
 16 17  1  0  0  0  0
 16 35  1  0  0  0  0
 16 36  1  0  0  0  0
 17 18  1  0  0  0  0
 17 37  1  0  0  0  0
 17 38  1  0  0  0  0
M  CHG  1   8  -1
M  END
> <s_m_source_file>
AV-unprocessed.smi

> <i_m_source_file_index>
1251

> <i_lp_mmshare_version>
43012

> <i_f3d_flags>
0

> <s_epik_input>
W0NIM11bQ0gyXVtDSDJdYzFubmMoczEpW05IXUMoPU8pW05IXVtDQEhdKFtDSDNdKVtDQEBIXTJbQ0gyXVtDSDJdW0NIMl1PMg==

> <s_epik_cmdline>
J2VwaWtfcHl0aG9uJywgJy1waCcsICc3LjAnLCAnLXRuJywgJzgnLCAnLW1hJywgJzIwMCcsICctbWV0YWxfYmluZGluZycsICctaW1hZScsICc8aW5maWxlLm1hZT4nLCAnLW9tYWUnLCAnPG91dGZpbGUubWFlPic=

> <r_lp_tautomer_probability>
1

> <r_epik_Ionization_Penalty>
4.22551

> <r_epik_Ionization_Penalty_Charging>
4.21437

> <r_epik_Ionization_Penalty_Neutral>
0.0111434

> <r_epik_State_Penalty>
4.21389

> <r_epik_Charging_Adjusted_Penalty>
8.42826

> <i_epik_Tot_Q>
-1

> <i_epik_Tot_abs_Q>
1

> <r_epik_Metal_State_Penalty>
0.69377

> <b_epik_Metal_Only>
1

> <s_lp_Force_Field>
OPLS_2005

> <r_lp_Energy>
11.5683

> <b_lp_Chiralities_Consistent>
1

> <s_lp_Variant>
AV-unprocessed.smi:1251-8

> <Gold.Version>
5.8.1

> <Gold.Id.Protein>
6NUR|6NUR_protein|mol2

> <Gold.PLP.Fitness>
38.5956

> <Gold.PLP.PLP>
-32.8207

> <Gold.PLP.part.hbond>
-4.5584

> <Gold.PLP.part.metal>
0.0000

> <Gold.PLP.part.buried>
1.0571

> <Gold.PLP.part.nonpolar>
-29.9757

> <Gold.PLP.part.repulsive>
0.9462

> <Gold.PLP.ligand.clash>
0.0000

> <Gold.PLP.ligand.torsion>
1.2550

> <Gold.PLP.Chemscore.Hbond>
2.7200

> <Gold.PLP.Chemscore.CHOScore>
0.0000

> <Gold.PLP.Chemscore.Metal>
0.0000

> <Gold.Chemscore.Hbonds>
donor molecule, donor type, donor heavy atom, donor atom, acceptor molecule, acceptor atom, score
      L1  H    11    27       P1  7948  1.00
      P1  H  7989  7998       L1     6  0.85
      P1  H  7997  8010       L1     5  0.98

> <Gold.PLP.Chemscore.Internal.Correction>
0.1249

> <Gold.Rescore>
     Score         DG    S(hbond)    S(metal)    S(lipo)     H(rot)  DE(clash)    DE(int)     intcor
     14.42     -17.41       1.98        0.00      79.36       1.55       0.62       2.38       ----

> <Gold.Chemscore.Fitness>
14.4167

> <Gold.Chemscore.DG>
-17.4141

> <Gold.Chemscore.ZeroCoef>
-5.4800

> <Gold.Chemscore.Hbond>
1.9786

> <Gold.Chemscore.Metal>
0.0000

> <Gold.Chemscore.Lipo>
79.3632

> <Gold.Chemscore.Internal_Hbond>
0.0000

> <Gold.Chemscore.DEClash>
0.6157

> <Gold.Chemscore.DEInternal>
2.3817

> <Gold.Chemscore.Rot>
1.5469

> <Gold.Chemscore.Internal.Correction>
   9.000000E+99

> <Gold.Chemscore.Hbonds>
donor molecule, donor type, donor heavy atom, donor atom, acceptor molecule, acceptor atom, score
      L1  H    11    27       P1  7948  0.97
      P1  H  7989  7998       L1     6  0.04
      P1  H  7997  8010       L1     5  0.85

> <Gold.Chemscore.Hbond.Weighted>
-6.6086

> <Gold.Chemscore.Metal.Weighted>
-0.0000

> <Gold.Chemscore.Lipo.Weighted>
-9.2855

> <Gold.Chemscore.Internal_Hbond.Weighted>
0.0000

> <Gold.Chemscore.DEClash.Weighted>
0.6157

> <Gold.Chemscore.DEInternal.Weighted>
2.3817

> <Gold.Chemscore.Rot.Weighted>
3.9600

> <Gold.Chemscore.Internal.Correction.Weighted>
   9.000000E+99

> <Gold.Protein.RotatedTorsions>
[ 6907 6896 6895 6894 ] final  -33.57 input  -60.11 | X-H torsion
[ 7974 7965 7964 7962 ] final -109.51 input  175.53 | X-H torsion
[ 8008 7997 7996 7995 ] final   92.48 input   59.86 | X-H torsion
[ 10167 10162 10161 10158 ] final   50.53 input  -65.29 | X-H torsion
[ 10718 10713 10712 10709 ] final  170.00 input   66.30 | X-H torsion
[ 10763 10752 10751 10750 ] final -152.47 input  -60.55 | X-H torsion
[ 11005 11000 10999 10996 ] final   60.68 input  -57.11 | X-H torsion

> <Gold.Protein.ActiveResidues>
 VAL166  LYS551  ARG553  GLY616  TRP617  ASP618  TYR619  PRO620  LYS621  CYS622 
 ASP623  PHE694  ASN695  SER759  ASP760  ASP761  ALA762  ILE779  LEU786  VAL792 
 PHE793  MET794  SER795  GLU796  ALA797  LYS798  CYS799  TRP800  GLU811  SER814 

> <Gold.Protein.RotatedAtoms>
  151.0639  134.9755  159.8274 H   0  0  0  0  0  0  0  0  0  0  0  0  # atno 6907 bound_to 6896
  152.5399  134.2383  159.8862 H   0  0  0  0  0  0  0  0  0  0  0  0  # atno 6908 bound_to 6896
  151.2404  133.4359  159.2641 H   0  0  0  0  0  0  0  0  0  0  0  0  # atno 6909 bound_to 6896
  145.1796  140.8965  143.3487 H   0  0  0  0  0  0  0  0  0  0  0  0  # atno 7974 bound_to 7965
  156.0358  140.3325  155.7189 H   0  0  0  0  0  0  0  0  0  0  0  0  # atno 8008 bound_to 7997
  155.5817  140.0637  157.2799 H   0  0  0  0  0  0  0  0  0  0  0  0  # atno 8009 bound_to 7997
  154.4372  140.1842  156.0972 H   0  0  0  0  0  0  0  0  0  0  0  0  # atno 8010 bound_to 7997
  140.2714  144.3261  150.6289 H   0  0  0  0  0  0  0  0  0  0  0  0  # atno 10167 bound_to 10162
  157.0145  131.0214  151.2793 H   0  0  0  0  0  0  0  0  0  0  0  0  # atno 10718 bound_to 10713
  154.7992  135.3235  154.7593 H   0  0  0  0  0  0  0  0  0  0  0  0  # atno 10763 bound_to 10752
  153.8265  135.6883  153.4824 H   0  0  0  0  0  0  0  0  0  0  0  0  # atno 10764 bound_to 10752
  153.1699  135.4627  154.9830 H   0  0  0  0  0  0  0  0  0  0  0  0  # atno 10765 bound_to 10752
  140.0215  134.6146  155.9633 H   0  0  0  0  0  0  0  0  0  0  0  0  # atno 11005 bound_to 11000
  145.0149  139.3476  143.6101 LP  0  0  0  0  0  0  0  0  0  0  0  0  # atno 17320 bound_to 7965
  146.3455  139.9427  142.8739 LP  0  0  0  0  0  0  0  0  0  0  0  0  # atno 17321 bound_to 7965
  140.5886  143.2169  151.7295 LP  0  0  0  0  0  0  0  0  0  0  0  0  # atno 17342 bound_to 10162
  139.4988  144.3973  152.0218 LP  0  0  0  0  0  0  0  0  0  0  0  0  # atno 17343 bound_to 10162
  157.5296  130.8050  149.7901 LP  0  0  0  0  0  0  0  0  0  0  0  0  # atno 17370 bound_to 10713
  156.0124  130.3827  150.2220 LP  0  0  0  0  0  0  0  0  0  0  0  0  # atno 17371 bound_to 10713
  141.1776  133.6542  156.4891 LP  0  0  0  0  0  0  0  0  0  0  0  0  # atno 17394 bound_to 11000
  140.4380  134.7042  157.4977 LP  0  0  0  0  0  0  0  0  0  0  0  0  # atno 17395 bound_to 11000

$$$$
