AV-unprocessed.smi:1106|AV-procd|sdf|4780|dock2
  -GOLD-   22720 3323D 1   1.00000     0.00000
 Structure written by MMmdl.
 48 49  0  0  0  0  0  0  0  0  2 V2000
  152.4545  142.5552  160.5358 C   0  0  0  0  0  0  0  0  0  0  0  0
  151.9301  142.7627  159.1072 C   0  0  0  0  0  0  0  0  0  0  0  0
  151.5667  141.5298  158.4583 N   0  0  0  0  0  0  0  0  0  0  0  0
  151.6169  140.3187  159.1207 C   0  0  0  0  0  0  0  0  0  0  0  0
  151.2845  139.1485  158.5340 C   0  0  0  0  0  0  0  0  0  0  0  0
  151.3377  137.9124  159.2420 C   0  0  0  0  0  0  0  0  0  0  0  0
  151.3785  136.9201  159.8363 N   0  0  0  0  0  0  0  0  0  0  0  0
  150.8506  139.0989  157.1394 C   0  0  0  0  0  0  0  0  0  0  0  0
  150.5075  138.0632  156.5656 O   0  0  0  0  0  0  0  0  0  0  0  0
  150.8357  140.3557  156.4830 N   0  0  0  0  0  0  0  0  0  0  0  0
  150.4079  140.3846  155.0932 C   0  0  0  0  0  0  0  0  0  0  0  0
  149.3042  141.4290  154.8174 C   0  0  1  0  0  0  0  0  0  0  0  0
  148.9008  141.3126  153.4669 O   0  0  0  0  0  0  0  0  0  0  0  0
  148.0563  141.1727  155.6855 C   0  0  0  0  0  0  0  0  0  0  0  0
  147.1761  142.3660  155.7668 N   0  3  2  0  0  0  0  0  0  0  0  0
  146.3015  142.3649  156.9692 C   0  0  0  0  0  0  0  0  0  0  0  0
  145.5167  143.6835  157.0864 C   0  0  0  0  0  0  0  0  0  0  0  0
  144.6966  143.9886  155.8194 C   0  0  2  0  0  0  0  0  0  0  0  0
  143.4471  143.1002  155.6889 C   0  0  0  0  0  0  0  0  0  0  0  0
  145.6131  143.9099  154.5845 C   0  0  0  0  0  0  0  0  0  0  0  0
  146.3964  142.5859  154.5224 C   0  0  0  0  0  0  0  0  0  0  0  0
  151.1691  141.5843  157.1020 C   0  0  0  0  0  0  0  0  0  0  0  0
  151.1101  142.6560  156.4931 O   0  0  0  0  0  0  0  0  0  0  0  0
  152.6845  143.5121  161.0041 H   0  0  0  0  0  0  0  0  0  0  0  0
  153.3647  141.9554  160.5474 H   0  0  0  0  0  0  0  0  0  0  0  0
  151.7133  142.0514  161.1568 H   0  0  0  0  0  0  0  0  0  0  0  0
  151.0275  143.3751  159.1138 H   0  0  0  0  0  0  0  0  0  0  0  0
  152.6496  143.2747  158.4655 H   0  0  0  0  0  0  0  0  0  0  0  0
  151.9335  140.3058  160.1539 H   0  0  0  0  0  0  0  0  0  0  0  0
  151.2813  140.5139  154.4516 H   0  0  0  0  0  0  0  0  0  0  0  0
  150.0604  139.3755  154.8642 H   0  0  0  0  0  0  0  0  0  0  0  0
  149.6883  142.4339  154.9916 H   0  0  0  0  0  0  0  0  0  0  0  0
  149.0883  140.4347  153.1691 H   0  0  0  0  0  0  0  0  0  0  0  0
  147.5089  140.3269  155.2654 H   0  0  0  0  0  0  0  0  0  0  0  0
  148.3422  140.8726  156.6949 H   0  0  0  0  0  0  0  0  0  0  0  0
  145.6155  141.5180  156.9235 H   0  0  0  0  0  0  0  0  0  0  0  0
  146.8989  142.2293  157.8702 H   0  0  0  0  0  0  0  0  0  0  0  0
  144.8657  143.6557  157.9610 H   0  0  0  0  0  0  0  0  0  0  0  0
  146.2209  144.4983  157.2609 H   0  0  0  0  0  0  0  0  0  0  0  0
  144.3375  145.0156  155.8992 H   0  0  0  0  0  0  0  0  0  0  0  0
  143.6996  142.0445  155.5933 H   0  0  0  0  0  0  0  0  0  0  0  0
  142.8613  143.3791  154.8127 H   0  0  0  0  0  0  0  0  0  0  0  0
  142.7999  143.2066  156.5600 H   0  0  0  0  0  0  0  0  0  0  0  0
  145.0314  144.0449  153.6719 H   0  0  0  0  0  0  0  0  0  0  0  0
  146.3227  144.7379  154.6150 H   0  0  0  0  0  0  0  0  0  0  0  0
  147.0735  142.6170  153.6679 H   0  0  0  0  0  0  0  0  0  0  0  0
  145.7215  141.7449  154.3578 H   0  0  0  0  0  0  0  0  0  0  0  0
  147.7943  143.1609  155.8500 H   0  0  0  0  0  0  0  0  0  0  0  0
  1  2  1  0  0  0  0
  1 24  1  0  0  0  0
  1 25  1  0  0  0  0
  1 26  1  0  0  0  0
  2  3  1  0  0  0  0
  2 27  1  0  0  0  0
  2 28  1  0  0  0  0
  3 22  1  0  0  0  0
  3  4  1  0  0  0  0
  4  5  2  0  0  0  0
  4 29  1  0  0  0  0
  5  6  1  0  0  0  0
  5  8  1  0  0  0  0
  6  7  3  0  0  0  0
  8  9  2  0  0  0  0
  8 10  1  0  0  0  0
 10 11  1  0  0  0  0
 10 22  1  0  0  0  0
 11 12  1  0  0  0  0
 11 30  1  0  0  0  0
 11 31  1  0  0  0  0
 12 13  1  0  0  0  0
 12 14  1  0  0  0  0
 12 32  1  0  0  0  0
 13 33  1  0  0  0  0
 14 15  1  0  0  0  0
 14 34  1  0  0  0  0
 14 35  1  0  0  0  0
 15 21  1  0  0  0  0
 15 16  1  0  0  0  0
 15 48  1  0  0  0  0
 16 17  1  0  0  0  0
 16 36  1  0  0  0  0
 16 37  1  0  0  0  0
 17 18  1  0  0  0  0
 17 38  1  0  0  0  0
 17 39  1  0  0  0  0
 18 19  1  0  0  0  0
 18 20  1  0  0  0  0
 18 40  1  0  0  0  0
 19 41  1  0  0  0  0
 19 42  1  0  0  0  0
 19 43  1  0  0  0  0
 20 21  1  0  0  0  0
 20 44  1  0  0  0  0
 20 45  1  0  0  0  0
 21 46  1  0  0  0  0
 21 47  1  0  0  0  0
 22 23  2  0  0  0  0
M  CHG  1  15   1
M  END
> <s_m_source_file>
AV-unprocessed.smi

> <i_m_source_file_index>
1106

> <i_lp_mmshare_version>
43012

> <i_f3d_flags>
0

> <s_epik_input>
W0NIM11bQ0gyXW4xW2NIXWMoQyNOKWMoPU8pbihjMT1PKVtDSDJdW0NASF0oW09IXSlbQ0gyXU4yW0NIMl1bQ0gyXVtDSF0oW0NIM10pW0NIMl1bQ0gyXTI=

> <s_epik_cmdline>
J2VwaWtfcHl0aG9uJywgJy1waCcsICc3LjAnLCAnLXRuJywgJzgnLCAnLW1hJywgJzIwMCcsICctbWV0YWxfYmluZGluZycsICctaW1hZScsICc8aW5maWxlLm1hZT4nLCAnLW9tYWUnLCAnPG91dGZpbGUubWFlPic=

> <r_epik_Ionization_Penalty>
0.00136816

> <r_epik_Ionization_Penalty_Charging>
0.00136813

> <r_epik_Ionization_Penalty_Neutral>
3.19882e-08

> <r_epik_State_Penalty>
0.000910892

> <r_epik_Charging_Adjusted_Penalty>
0.00227902

> <i_epik_Tot_Q>
1

> <i_epik_Tot_abs_Q>
1

> <r_epik_Metal_State_Penalty>
-0

> <b_epik_Metal_Only>
0

> <s_lp_Force_Field>
OPLS_2005

> <r_lp_Energy>
30.5318

> <b_lp_Chiralities_Consistent>
1

> <s_lp_Variant>
AV-unprocessed.smi:1106-4

> <Gold.Version>
5.8.1

> <Gold.Id.Protein>
6NUR|6NUR_protein|mol2

> <Gold.PLP.Fitness>
51.4215

> <Gold.PLP.PLP>
-39.0338

> <Gold.PLP.part.hbond>
-5.0000

> <Gold.PLP.part.metal>
0.0000

> <Gold.PLP.part.buried>
-2.2146

> <Gold.PLP.part.nonpolar>
-31.3037

> <Gold.PLP.part.repulsive>
0.4268

> <Gold.PLP.ligand.clash>
0.0000

> <Gold.PLP.ligand.torsion>
0.4575

> <Gold.PLP.Chemscore.Hbond>
4.3885

> <Gold.PLP.Chemscore.CHOScore>
0.0000

> <Gold.PLP.Chemscore.Metal>
0.0000

> <Gold.Chemscore.Hbonds>
donor molecule, donor type, donor heavy atom, donor atom, acceptor molecule, acceptor atom, score
      L1  H    13    33       P1  7957  0.33
      L1  H    15    48       P1  8028  2.00
      P1  H  6896  6907       L1     7  1.00
      P1  H  8011  8017       L1    13  0.91

> <Gold.PLP.Chemscore.Internal.Correction>
0.1372

> <Gold.Rescore>
     Score         DG    S(hbond)    S(metal)    S(lipo)     H(rot)  DE(clash)    DE(int)     intcor
     12.69     -17.26       2.89        0.00      72.52       2.48       2.74       1.83       ----

> <Gold.Chemscore.Fitness>
12.6891

> <Gold.Chemscore.DG>
-17.2588

> <Gold.Chemscore.ZeroCoef>
-5.4800

> <Gold.Chemscore.Hbond>
2.8899

> <Gold.Chemscore.Metal>
0.0000

> <Gold.Chemscore.Lipo>
72.5219

> <Gold.Chemscore.Internal_Hbond>
0.0000

> <Gold.Chemscore.DEClash>
2.7362

> <Gold.Chemscore.DEInternal>
1.8334

> <Gold.Chemscore.Rot>
2.4838

> <Gold.Chemscore.Internal.Correction>
   9.000000E+99

> <Gold.Chemscore.Hbonds>
donor molecule, donor type, donor heavy atom, donor atom, acceptor molecule, acceptor atom, score
      L1  H    13    33       P1  7957  0.33
      L1  H    15    48       P1  8028  0.30
      P1  H  6896  6907       L1     7  1.00
      P1  H  8011  8017       L1    13  0.44

> <Gold.Chemscore.Hbond.Weighted>
-9.6522

> <Gold.Chemscore.Metal.Weighted>
-0.0000

> <Gold.Chemscore.Lipo.Weighted>
-8.4851

> <Gold.Chemscore.Internal_Hbond.Weighted>
0.0000

> <Gold.Chemscore.DEClash.Weighted>
2.7362

> <Gold.Chemscore.DEInternal.Weighted>
1.8334

> <Gold.Chemscore.Rot.Weighted>
6.3585

> <Gold.Chemscore.Internal.Correction.Weighted>
   9.000000E+99

> <Gold.Protein.RotatedTorsions>
[ 6907 6896 6895 6894 ] final    4.15 input  -60.11 | X-H torsion
[ 7974 7965 7964 7962 ] final  165.69 input  175.53 | X-H torsion
[ 8008 7997 7996 7995 ] final   48.16 input   59.86 | X-H torsion
[ 10167 10162 10161 10158 ] final -136.13 input  -65.29 | X-H torsion
[ 10718 10713 10712 10709 ] final -151.84 input   66.30 | X-H torsion
[ 10763 10752 10751 10750 ] final -124.29 input  -60.55 | X-H torsion
[ 11005 11000 10999 10996 ] final -120.39 input  -57.11 | X-H torsion

> <Gold.Protein.ActiveResidues>
 VAL166  LYS551  ARG553  GLY616  TRP617  ASP618  TYR619  PRO620  LYS621  CYS622 
 ASP623  PHE694  ASN695  SER759  ASP760  ASP761  ALA762  ILE779  LEU786  VAL792 
 PHE793  MET794  SER795  GLU796  ALA797  LYS798  CYS799  TRP800  GLU811  SER814 

> <Gold.Protein.RotatedAtoms>
  151.6367  135.1017  160.0132 H   0  0  0  0  0  0  0  0  0  0  0  0  # atno 6907 bound_to 6896
  152.4077  133.6910  159.6379 H   0  0  0  0  0  0  0  0  0  0  0  0  # atno 6908 bound_to 6896
  150.7970  133.8597  159.3269 H   0  0  0  0  0  0  0  0  0  0  0  0  # atno 6909 bound_to 6896
  144.7492  139.8507  143.6372 H   0  0  0  0  0  0  0  0  0  0  0  0  # atno 7974 bound_to 7965
  155.3810  140.3428  155.4247 H   0  0  0  0  0  0  0  0  0  0  0  0  # atno 8008 bound_to 7997
  156.1610  140.1601  156.8645 H   0  0  0  0  0  0  0  0  0  0  0  0  # atno 8009 bound_to 7997
  154.5140  140.0783  156.8026 H   0  0  0  0  0  0  0  0  0  0  0  0  # atno 8010 bound_to 7997
  139.8709  143.6958  152.2640 H   0  0  0  0  0  0  0  0  0  0  0  0  # atno 10167 bound_to 10162
  156.4646  130.8229  151.2460 H   0  0  0  0  0  0  0  0  0  0  0  0  # atno 10718 bound_to 10713
  154.8721  135.4069  154.3081 H   0  0  0  0  0  0  0  0  0  0  0  0  # atno 10763 bound_to 10752
  153.3929  135.7015  153.6487 H   0  0  0  0  0  0  0  0  0  0  0  0  # atno 10764 bound_to 10752
  153.5262  135.3677  155.2626 H   0  0  0  0  0  0  0  0  0  0  0  0  # atno 10765 bound_to 10752
  141.0147  134.0213  157.3366 H   0  0  0  0  0  0  0  0  0  0  0  0  # atno 11005 bound_to 11000
  146.1417  139.4476  143.0104 LP  0  0  0  0  0  0  0  0  0  0  0  0  # atno 17320 bound_to 7965
  145.7007  141.0137  143.1506 LP  0  0  0  0  0  0  0  0  0  0  0  0  # atno 17321 bound_to 7965
  139.7284  144.7587  151.0841 LP  0  0  0  0  0  0  0  0  0  0  0  0  # atno 17342 bound_to 10162
  140.7761  143.5118  150.9643 LP  0  0  0  0  0  0  0  0  0  0  0  0  # atno 17343 bound_to 10162
  157.7495  131.0096  150.3273 LP  0  0  0  0  0  0  0  0  0  0  0  0  # atno 17370 bound_to 10713
  156.3681  130.3858  149.7197 LP  0  0  0  0  0  0  0  0  0  0  0  0  # atno 17371 bound_to 10713
  139.9110  135.0190  156.7691 LP  0  0  0  0  0  0  0  0  0  0  0  0  # atno 17394 bound_to 11000
  140.6675  133.9590  155.7838 LP  0  0  0  0  0  0  0  0  0  0  0  0  # atno 17395 bound_to 11000

$$$$
