AV-unprocessed.smi:2458|AV-procd|sdf|9711|dock1
  -GOLD-   2272013353D 1   1.00000     0.00000
 Structure written by MMmdl.
 47 48  0  0  0  0  0  0  0  0  1 V2000
  151.4923  139.9118  155.7091 C   0  0  0  0  0  0  0  0  0  0  0  0
  150.9439  141.2965  156.1048 C   0  0  0  0  0  0  0  0  0  0  0  0
  151.2791  141.5558  157.5867 C   0  0  0  0  0  0  0  0  0  0  0  0
  149.4260  141.4535  155.7939 C   0  0  1  0  0  0  0  0  0  0  0  0
  149.1114  141.2705  154.2900 C   0  0  0  0  0  0  0  0  0  0  0  0
  147.6150  141.4482  153.9844 C   0  0  0  0  0  0  0  0  0  0  0  0
  146.7201  140.4827  154.7854 C   0  0  1  0  0  0  0  0  0  0  0  0
  146.7807  139.0498  154.2244 C   0  0  0  0  0  0  0  0  0  0  0  0
  147.4890  138.1874  154.7435 O   0  0  0  0  0  0  0  0  0  0  0  0
  146.0236  138.8132  153.1424 N   0  0  0  0  0  0  0  0  0  0  0  0
  145.9815  137.5560  152.4010 C   0  0  0  0  0  0  0  0  0  0  0  0
  144.6842  136.7482  152.6402 C   0  0  1  0  0  0  0  0  0  0  0  0
  143.5918  137.5020  152.1564 O   0  0  0  0  0  0  0  0  0  0  0  0
  144.7231  135.3494  152.0388 C   0  0  0  0  0  0  0  0  0  0  0  0
  143.6382  134.4585  152.1830 C   0  0  0  0  0  0  0  0  0  0  0  0
  143.7172  133.1873  151.5828 C   0  0  0  0  0  0  0  0  0  0  0  0
  144.8816  132.8577  150.8612 C   0  0  0  0  0  0  0  0  0  0  0  0
  145.9271  133.6996  150.7163 N   0  0  0  0  0  0  0  0  0  0  0  0
  145.8442  134.9155  151.2977 C   0  0  0  0  0  0  0  0  0  0  0  0
  147.0486  140.5858  156.2917 C   0  0  0  0  0  0  0  0  0  0  0  0
  148.5526  140.4745  156.6169 C   0  0  0  0  0  0  0  0  0  0  0  0
  149.1333  142.4675  156.0706 H   0  0  0  0  0  0  0  0  0  0  0  0
  145.6868  140.8114  154.6624 H   0  0  0  0  0  0  0  0  0  0  0  0
  150.9272  139.1103  156.1863 H   0  0  0  0  0  0  0  0  0  0  0  0
  152.5352  139.8020  156.0075 H   0  0  0  0  0  0  0  0  0  0  0  0
  151.4630  139.7523  154.6319 H   0  0  0  0  0  0  0  0  0  0  0  0
  151.4874  142.0380  155.5176 H   0  0  0  0  0  0  0  0  0  0  0  0
  150.6897  140.9166  158.2446 H   0  0  0  0  0  0  0  0  0  0  0  0
  151.1012  142.5920  157.8721 H   0  0  0  0  0  0  0  0  0  0  0  0
  152.3316  141.3587  157.7924 H   0  0  0  0  0  0  0  0  0  0  0  0
  149.6543  141.9987  153.6895 H   0  0  0  0  0  0  0  0  0  0  0  0
  149.4480  140.2880  153.9582 H   0  0  0  0  0  0  0  0  0  0  0  0
  147.3252  142.4746  154.2122 H   0  0  0  0  0  0  0  0  0  0  0  0
  147.4443  141.3241  152.9140 H   0  0  0  0  0  0  0  0  0  0  0  0
  145.4657  139.5732  152.7808 H   0  0  0  0  0  0  0  0  0  0  0  0
  146.1363  137.7357  151.3359 H   0  0  0  0  0  0  0  0  0  0  0  0
  146.8393  136.9750  152.7416 H   0  0  0  0  0  0  0  0  0  0  0  0
  144.5362  136.6442  153.7160 H   0  0  0  0  0  0  0  0  0  0  0  0
  143.8756  137.9928  151.4006 H   0  0  0  0  0  0  0  0  0  0  0  0
  142.7573  134.7455  152.7379 H   0  0  0  0  0  0  0  0  0  0  0  0
  142.9045  132.4817  151.6719 H   0  0  0  0  0  0  0  0  0  0  0  0
  144.9754  131.8918  150.3873 H   0  0  0  0  0  0  0  0  0  0  0  0
  146.6956  135.5649  151.1558 H   0  0  0  0  0  0  0  0  0  0  0  0
  146.6855  141.5462  156.6598 H   0  0  0  0  0  0  0  0  0  0  0  0
  146.4964  139.8290  156.8506 H   0  0  0  0  0  0  0  0  0  0  0  0
  148.9001  139.4541  156.4591 H   0  0  0  0  0  0  0  0  0  0  0  0
  148.6689  140.6659  157.6828 H   0  0  0  0  0  0  0  0  0  0  0  0
  1  2  1  0  0  0  0
  1 24  1  0  0  0  0
  1 25  1  0  0  0  0
  1 26  1  0  0  0  0
  2  3  1  0  0  0  0
  2  4  1  0  0  0  0
  2 27  1  0  0  0  0
  3 28  1  0  0  0  0
  3 29  1  0  0  0  0
  3 30  1  0  0  0  0
  4 22  1  0  0  0  0
  4 21  1  0  0  0  0
  4  5  1  0  0  0  0
  5  6  1  0  0  0  0
  5 31  1  0  0  0  0
  5 32  1  0  0  0  0
  6  7  1  0  0  0  0
  6 33  1  0  0  0  0
  6 34  1  0  0  0  0
  7 23  1  0  0  0  0
  7  8  1  0  0  0  0
  7 20  1  0  0  0  0
  8  9  2  0  0  0  0
  8 10  1  0  0  0  0
 10 11  1  0  0  0  0
 10 35  1  0  0  0  0
 11 12  1  0  0  0  0
 11 36  1  0  0  0  0
 11 37  1  0  0  0  0
 12 13  1  0  0  0  0
 12 14  1  0  0  0  0
 12 38  1  0  0  0  0
 13 39  1  0  0  0  0
 14 19  1  0  0  0  0
 14 15  2  0  0  0  0
 15 16  1  0  0  0  0
 15 40  1  0  0  0  0
 16 17  2  0  0  0  0
 16 41  1  0  0  0  0
 17 18  1  0  0  0  0
 17 42  1  0  0  0  0
 18 19  2  0  0  0  0
 19 43  1  0  0  0  0
 20 21  1  0  0  0  0
 20 44  1  0  0  0  0
 20 45  1  0  0  0  0
 21 46  1  0  0  0  0
 21 47  1  0  0  0  0
M  END
> <s_m_source_file>
AV-unprocessed.smi

> <i_m_source_file_index>
2458

> <i_lp_mmshare_version>
43012

> <i_f3d_flags>
0

> <s_epik_input>
W0NIM11bQ0hdKFtDSDNdKVtDQEhdMVtDSDJdW0NIMl1bQ0BASF0oW0NIMl1bQ0gyXTEpQyg9TylbTkhdW0NIMl1bQ0BIXShbT0hdKWMyW2NIXVtjSF1bY0hdbltjSF0y

> <s_epik_cmdline>
J2VwaWtfcHl0aG9uJywgJy1waCcsICc3LjAnLCAnLXRuJywgJzgnLCAnLW1hJywgJzIwMCcsICctbWV0YWxfYmluZGluZycsICctaW1hZScsICc8aW5maWxlLm1hZT4nLCAnLW9tYWUnLCAnPG91dGZpbGUubWFlPic=

> <r_epik_Ionization_Penalty>
0.00169206

> <r_epik_Ionization_Penalty_Charging>
0

> <r_epik_Ionization_Penalty_Neutral>
0.00169206

> <r_epik_State_Penalty>
0.0011427

> <r_epik_Charging_Adjusted_Penalty>
0.0011427

> <i_epik_Tot_Q>
0

> <i_epik_Tot_abs_Q>
0

> <r_epik_Metal_State_Penalty>
-0

> <b_epik_Metal_Only>
0

> <s_lp_Force_Field>
OPLS_2005

> <r_lp_Energy>
12.4203

> <b_lp_Chiralities_Consistent>
1

> <s_lp_Variant>
AV-unprocessed.smi:2458-4

> <Gold.Version>
5.8.1

> <Gold.Id.Protein>
6NUR|6NUR_protein|mol2

> <Gold.PLP.Fitness>
45.0143

> <Gold.PLP.PLP>
-37.4098

> <Gold.PLP.part.hbond>
-2.8766

> <Gold.PLP.part.metal>
0.0000

> <Gold.PLP.part.buried>
-5.4737

> <Gold.PLP.part.nonpolar>
-30.3065

> <Gold.PLP.part.repulsive>
0.7544

> <Gold.PLP.ligand.clash>
0.0000

> <Gold.PLP.ligand.torsion>
0.7606

> <Gold.PLP.Chemscore.Hbond>
2.0000

> <Gold.PLP.Chemscore.CHOScore>
0.9999

> <Gold.PLP.Chemscore.Metal>
0.0000

> <Gold.Chemscore.Hbonds>
donor molecule, donor type, donor heavy atom, donor atom, acceptor molecule, acceptor atom, score
      L1  H    10    35       P1 10175  1.00
      L1  H    13    39       P1 10171  1.00
      L1  C    19    43       P1  7948  1.00

> <Gold.PLP.Chemscore.Internal.Correction>
0.1259

> <Gold.Rescore>
     Score         DG    S(hbond)    S(metal)    S(lipo)     H(rot)  DE(clash)    DE(int)     intcor
     16.41     -17.43       1.97        0.00      91.00       2.06       0.18       0.85       ----

> <Gold.Chemscore.Fitness>
16.4069

> <Gold.Chemscore.DG>
-17.4349

> <Gold.Chemscore.ZeroCoef>
-5.4800

> <Gold.Chemscore.Hbond>
1.9695

> <Gold.Chemscore.Metal>
0.0000

> <Gold.Chemscore.Lipo>
91.0028

> <Gold.Chemscore.Internal_Hbond>
0.0000

> <Gold.Chemscore.DEClash>
0.1804

> <Gold.Chemscore.DEInternal>
0.8476

> <Gold.Chemscore.Rot>
2.0588

> <Gold.Chemscore.Internal.Correction>
   9.000000E+99

> <Gold.Chemscore.Hbonds>
donor molecule, donor type, donor heavy atom, donor atom, acceptor molecule, acceptor atom, score
      L1  H    10    35       P1 10175  0.91
      L1  H    13    39       P1 10171  0.99

> <Gold.Chemscore.Hbond.Weighted>
-6.5781

> <Gold.Chemscore.Metal.Weighted>
-0.0000

> <Gold.Chemscore.Lipo.Weighted>
-10.6473

> <Gold.Chemscore.Internal_Hbond.Weighted>
0.0000

> <Gold.Chemscore.DEClash.Weighted>
0.1804

> <Gold.Chemscore.DEInternal.Weighted>
0.8476

> <Gold.Chemscore.Rot.Weighted>
5.2705

> <Gold.Chemscore.Internal.Correction.Weighted>
   9.000000E+99

> <Gold.Protein.RotatedTorsions>
[ 6907 6896 6895 6894 ] final  -90.39 input  -60.11 | X-H torsion
[ 7974 7965 7964 7962 ] final  148.80 input  175.53 | X-H torsion
[ 8008 7997 7996 7995 ] final  -13.84 input   59.86 | X-H torsion
[ 10167 10162 10161 10158 ] final  133.56 input  -65.29 | X-H torsion
[ 10718 10713 10712 10709 ] final  -81.32 input   66.30 | X-H torsion
[ 10763 10752 10751 10750 ] final -173.15 input  -60.55 | X-H torsion
[ 11005 11000 10999 10996 ] final   -5.58 input  -57.11 | X-H torsion

> <Gold.Protein.ActiveResidues>
 VAL166  LYS551  ARG553  GLY616  TRP617  ASP618  TYR619  PRO620  LYS621  CYS622 
 ASP623  PHE694  ASN695  SER759  ASP760  ASP761  ALA762  ILE779  LEU786  VAL792 
 PHE793  MET794  SER795  GLU796  ALA797  LYS798  CYS799  TRP800  GLU811  SER814 

> <Gold.Protein.RotatedAtoms>
  150.6881  134.2439  159.4483 H   0  0  0  0  0  0  0  0  0  0  0  0  # atno 6907 bound_to 6896
  152.0381  134.9725  160.0583 H   0  0  0  0  0  0  0  0  0  0  0  0  # atno 6908 bound_to 6896
  152.1237  133.4333  159.4725 H   0  0  0  0  0  0  0  0  0  0  0  0  # atno 6909 bound_to 6896
  144.8486  139.6199  143.5984 H   0  0  0  0  0  0  0  0  0  0  0  0  # atno 7974 bound_to 7965
  154.5259  140.2239  155.8891 H   0  0  0  0  0  0  0  0  0  0  0  0  # atno 8008 bound_to 7997
  156.1713  140.3121  155.8942 H   0  0  0  0  0  0  0  0  0  0  0  0  # atno 8009 bound_to 7997
  155.3553  140.0458  157.3037 H   0  0  0  0  0  0  0  0  0  0  0  0  # atno 8010 bound_to 7997
  139.5292  144.6610  151.5013 H   0  0  0  0  0  0  0  0  0  0  0  0  # atno 10167 bound_to 10162
  156.0052  130.4600  150.3935 H   0  0  0  0  0  0  0  0  0  0  0  0  # atno 10718 bound_to 10713
  154.6112  135.2865  155.0430 H   0  0  0  0  0  0  0  0  0  0  0  0  # atno 10763 bound_to 10752
  154.1660  135.6480  153.5001 H   0  0  0  0  0  0  0  0  0  0  0  0  # atno 10764 bound_to 10752
  153.0196  135.5389  154.6866 H   0  0  0  0  0  0  0  0  0  0  0  0  # atno 10765 bound_to 10752
  140.6926  133.9058  155.8629 H   0  0  0  0  0  0  0  0  0  0  0  0  # atno 11005 bound_to 11000
  146.2766  139.6768  142.9259 LP  0  0  0  0  0  0  0  0  0  0  0  0  # atno 17320 bound_to 7965
  145.4546  141.0430  143.2785 LP  0  0  0  0  0  0  0  0  0  0  0  0  # atno 17321 bound_to 7965
  140.6458  143.8797  150.6736 LP  0  0  0  0  0  0  0  0  0  0  0  0  # atno 17342 bound_to 10162
  140.2146  143.3856  152.1691 LP  0  0  0  0  0  0  0  0  0  0  0  0  # atno 17343 bound_to 10162
  157.2008  131.0437  151.2651 LP  0  0  0  0  0  0  0  0  0  0  0  0  # atno 17370 bound_to 10713
  157.3977  130.7316  149.6744 LP  0  0  0  0  0  0  0  0  0  0  0  0  # atno 17371 bound_to 10713
  141.0229  134.0864  157.4101 LP  0  0  0  0  0  0  0  0  0  0  0  0  # atno 17394 bound_to 11000
  139.8919  135.0121  156.6816 LP  0  0  0  0  0  0  0  0  0  0  0  0  # atno 17395 bound_to 11000

$$$$
