AV-unprocessed.smi:2088|AV-procd|sdf|8526|dock4
  -GOLD-   2272011243D 1   1.00000     0.00000
 Structure written by MMmdl.
 33 34  0  0  0  0  0  0  0  0  1 V2000
  150.3112  140.2902  154.7775 O   0  0  0  0  0  0  0  0  0  0  0  0
  149.6718  141.3036  155.0601 C   0  0  0  0  0  0  0  0  0  0  0  0
  148.4146  141.6610  154.2648 C   0  0  0  0  0  0  0  0  0  0  0  0
  147.4081  140.6208  154.3802 N   0  0  0  0  0  0  0  0  0  0  0  0
  146.9551  139.7548  153.4081 C   0  0  0  0  0  0  0  0  0  0  0  0
  146.0124  138.9541  153.9853 C   0  0  0  0  0  0  0  0  0  0  0  0
  145.9513  139.4075  155.3352 C   0  0  0  0  0  0  0  0  0  0  0  0
  145.0808  138.8963  156.4529 C   0  0  0  0  0  0  0  0  0  0  0  0
  145.3052  139.5911  157.5682 F   0  0  0  0  0  0  0  0  0  0  0  0
  143.7952  139.0195  156.1228 F   0  0  0  0  0  0  0  0  0  0  0  0
  145.3494  137.6118  156.6865 F   0  0  0  0  0  0  0  0  0  0  0  0
  146.7915  140.4089  155.5628 N   0  0  0  0  0  0  0  0  0  0  0  0
  150.0157  142.1408  156.0509 N   0  0  0  0  0  0  0  0  0  0  0  0
  151.1722  141.9749  156.9239 C   0  0  0  0  0  0  0  0  0  0  0  0
  151.2470  143.0810  157.9903 C   0  0  2  0  0  0  0  0  0  0  0  0
  151.8900  144.3722  157.4919 C   0  0  0  0  0  0  0  0  0  0  0  0
  152.3156  145.0164  158.7916 C   0  0  0  0  0  0  0  0  0  0  0  0
  152.7529  143.8112  159.6224 C   0  0  0  0  0  0  0  0  0  0  0  0
  152.0729  142.6806  159.0796 O   0  0  0  0  0  0  0  0  0  0  0  0
  147.9963  142.6114  154.6016 H   0  0  0  0  0  0  0  0  0  0  0  0
  148.6740  141.7808  153.2123 H   0  0  0  0  0  0  0  0  0  0  0  0
  147.3395  139.7789  152.3989 H   0  0  0  0  0  0  0  0  0  0  0  0
  145.4505  138.1614  153.5142 H   0  0  0  0  0  0  0  0  0  0  0  0
  149.4354  142.9512  156.2118 H   0  0  0  0  0  0  0  0  0  0  0  0
  151.1065  140.9974  157.4022 H   0  0  0  0  0  0  0  0  0  0  0  0
  152.0843  141.9655  156.3250 H   0  0  0  0  0  0  0  0  0  0  0  0
  150.2537  143.3093  158.3808 H   0  0  0  0  0  0  0  0  0  0  0  0
  152.7649  144.1557  156.8772 H   0  0  0  0  0  0  0  0  0  0  0  0
  151.2060  144.9916  156.9113 H   0  0  0  0  0  0  0  0  0  0  0  0
  153.1052  145.7575  158.6655 H   0  0  0  0  0  0  0  0  0  0  0  0
  151.4609  145.5052  159.2608 H   0  0  0  0  0  0  0  0  0  0  0  0
  153.8269  143.6475  159.5291 H   0  0  0  0  0  0  0  0  0  0  0  0
  152.5209  143.9400  160.6799 H   0  0  0  0  0  0  0  0  0  0  0  0
  1  2  2  0  0  0  0
  2  3  1  0  0  0  0
  2 13  1  0  0  0  0
  3  4  1  0  0  0  0
  3 20  1  0  0  0  0
  3 21  1  0  0  0  0
  4 12  1  0  0  0  0
  4  5  1  0  0  0  0
  5  6  2  0  0  0  0
  5 22  1  0  0  0  0
  6  7  1  0  0  0  0
  6 23  1  0  0  0  0
  7  8  1  0  0  0  0
  7 12  2  0  0  0  0
  8  9  1  0  0  0  0
  8 10  1  0  0  0  0
  8 11  1  0  0  0  0
 13 14  1  0  0  0  0
 13 24  1  0  0  0  0
 14 15  1  0  0  0  0
 14 25  1  0  0  0  0
 14 26  1  0  0  0  0
 15 19  1  0  0  0  0
 15 16  1  0  0  0  0
 15 27  1  0  0  0  0
 16 17  1  0  0  0  0
 16 28  1  0  0  0  0
 16 29  1  0  0  0  0
 17 18  1  0  0  0  0
 17 30  1  0  0  0  0
 17 31  1  0  0  0  0
 18 19  1  0  0  0  0
 18 32  1  0  0  0  0
 18 33  1  0  0  0  0
M  END
> <s_m_source_file>
AV-unprocessed.smi

> <i_m_source_file_index>
2088

> <i_lp_mmshare_version>
43012

> <i_f3d_flags>
0

> <s_epik_input>
TzFbQ0gyXVtDSDJdW0NIMl1bQ0BIXTFbQ0gyXVtOSF1DKD1PKVtDSDJdbjJbY0hdW2NIXWMobjIpQyhGKShGKUY=

> <s_epik_cmdline>
J2VwaWtfcHl0aG9uJywgJy1waCcsICc3LjAnLCAnLXRuJywgJzgnLCAnLW1hJywgJzIwMCcsICctbWV0YWxfYmluZGluZycsICctaW1hZScsICc8aW5maWxlLm1hZT4nLCAnLW9tYWUnLCAnPG91dGZpbGUubWFlPic=

> <r_lp_tautomer_probability>
1

> <r_epik_Ionization_Penalty>
2.25732e-07

> <r_epik_Ionization_Penalty_Charging>
0

> <r_epik_Ionization_Penalty_Neutral>
2.25732e-07

> <r_epik_State_Penalty>
-0

> <r_epik_Charging_Adjusted_Penalty>
0

> <i_epik_Tot_Q>
0

> <i_epik_Tot_abs_Q>
0

> <r_epik_Metal_State_Penalty>
-0

> <b_epik_Metal_Only>
0

> <s_lp_Force_Field>
OPLS_2005

> <r_lp_Energy>
20.6352

> <b_lp_Chiralities_Consistent>
1

> <s_lp_Variant>
AV-unprocessed.smi:2088-1

> <Gold.Version>
5.8.1

> <Gold.Id.Protein>
6NUR|6NUR_protein|mol2

> <Gold.PLP.Fitness>
41.1203

> <Gold.PLP.PLP>
-32.7000

> <Gold.PLP.part.hbond>
-2.0000

> <Gold.PLP.part.metal>
0.0000

> <Gold.PLP.part.buried>
-2.8385

> <Gold.PLP.part.nonpolar>
-27.0527

> <Gold.PLP.part.repulsive>
0.2335

> <Gold.PLP.ligand.clash>
0.0000

> <Gold.PLP.ligand.torsion>
0.2838

> <Gold.PLP.Chemscore.Hbond>
1.9920

> <Gold.PLP.Chemscore.CHOScore>
1.0000

> <Gold.PLP.Chemscore.Metal>
0.0000

> <Gold.Chemscore.Hbonds>
donor molecule, donor type, donor heavy atom, donor atom, acceptor molecule, acceptor atom, score
      L1  H    13    24       P1  8028  0.98
      P1  H  7989  7998       L1     1  1.00
      L1  C     5    22       P1  7957  0.89

> <Gold.PLP.Chemscore.Internal.Correction>
0.0118

> <Gold.Rescore>
     Score         DG    S(hbond)    S(metal)    S(lipo)     H(rot)  DE(clash)    DE(int)     intcor
     15.21     -15.44       1.65        0.00      79.43       1.89       0.07       0.16       ----

> <Gold.Chemscore.Fitness>
15.2141

> <Gold.Chemscore.DG>
-15.4359

> <Gold.Chemscore.ZeroCoef>
-5.4800

> <Gold.Chemscore.Hbond>
1.6491

> <Gold.Chemscore.Metal>
0.0000

> <Gold.Chemscore.Lipo>
79.4298

> <Gold.Chemscore.Internal_Hbond>
0.0000

> <Gold.Chemscore.DEClash>
0.0651

> <Gold.Chemscore.DEInternal>
0.1567

> <Gold.Chemscore.Rot>
1.8928

> <Gold.Chemscore.Internal.Correction>
   9.000000E+99

> <Gold.Chemscore.Hbonds>
donor molecule, donor type, donor heavy atom, donor atom, acceptor molecule, acceptor atom, score
      L1  H    13    24       P1  8028  0.93
      P1  H  7989  7998       L1     1  0.49

> <Gold.Chemscore.Hbond.Weighted>
-5.5081

> <Gold.Chemscore.Metal.Weighted>
-0.0000

> <Gold.Chemscore.Lipo.Weighted>
-9.2933

> <Gold.Chemscore.Internal_Hbond.Weighted>
0.0000

> <Gold.Chemscore.DEClash.Weighted>
0.0651

> <Gold.Chemscore.DEInternal.Weighted>
0.1567

> <Gold.Chemscore.Rot.Weighted>
4.8455

> <Gold.Chemscore.Internal.Correction.Weighted>
   9.000000E+99

> <Gold.Protein.RotatedTorsions>
[ 6907 6896 6895 6894 ] final  165.00 input  -60.11 | X-H torsion
[ 7974 7965 7964 7962 ] final -130.71 input  175.53 | X-H torsion
[ 8008 7997 7996 7995 ] final  128.53 input   59.86 | X-H torsion
[ 10167 10162 10161 10158 ] final   78.88 input  -65.29 | X-H torsion
[ 10718 10713 10712 10709 ] final   60.63 input   66.30 | X-H torsion
[ 10763 10752 10751 10750 ] final  -71.67 input  -60.55 | X-H torsion
[ 11005 11000 10999 10996 ] final -154.09 input  -57.11 | X-H torsion

> <Gold.Protein.ActiveResidues>
 VAL166  LYS551  ARG553  GLY616  TRP617  ASP618  TYR619  PRO620  LYS621  CYS622 
 ASP623  PHE694  ASN695  SER759  ASP760  ASP761  ALA762  ILE779  LEU786  VAL792 
 PHE793  MET794  SER795  GLU796  ALA797  LYS798  CYS799  TRP800  GLU811  SER814 

> <Gold.Protein.RotatedAtoms>
  151.9012  133.3538  159.3831 H   0  0  0  0  0  0  0  0  0  0  0  0  # atno 6907 bound_to 6896
  150.7080  134.4826  159.5487 H   0  0  0  0  0  0  0  0  0  0  0  0  # atno 6908 bound_to 6896
  152.2415  134.8224  160.0510 H   0  0  0  0  0  0  0  0  0  0  0  0  # atno 6909 bound_to 6896
  144.9448  140.7279  143.4824 H   0  0  0  0  0  0  0  0  0  0  0  0  # atno 7974 bound_to 7965
  156.2917  140.2642  156.2450 H   0  0  0  0  0  0  0  0  0  0  0  0  # atno 8008 bound_to 7997
  154.9939  140.0388  157.2349 H   0  0  0  0  0  0  0  0  0  0  0  0  # atno 8009 bound_to 7997
  154.7661  140.2769  155.6179 H   0  0  0  0  0  0  0  0  0  0  0  0  # atno 8010 bound_to 7997
  139.9662  144.5926  150.8027 H   0  0  0  0  0  0  0  0  0  0  0  0  # atno 10167 bound_to 10162
  157.5767  130.8950  149.9360 H   0  0  0  0  0  0  0  0  0  0  0  0  # atno 10718 bound_to 10713
  154.4350  135.5954  153.6093 H   0  0  0  0  0  0  0  0  0  0  0  0  # atno 10763 bound_to 10752
  152.9801  135.5984  154.3792 H   0  0  0  0  0  0  0  0  0  0  0  0  # atno 10764 bound_to 10752
  154.3635  135.2841  155.2285 H   0  0  0  0  0  0  0  0  0  0  0  0  # atno 10765 bound_to 10752
  140.7011  134.3936  157.5209 H   0  0  0  0  0  0  0  0  0  0  0  0  # atno 11005 bound_to 11000
  145.2934  139.1875  143.4728 LP  0  0  0  0  0  0  0  0  0  0  0  0  # atno 17320 bound_to 7965
  146.3299  140.2915  142.8615 LP  0  0  0  0  0  0  0  0  0  0  0  0  # atno 17321 bound_to 7965
  140.7537  143.3013  151.3073 LP  0  0  0  0  0  0  0  0  0  0  0  0  # atno 17342 bound_to 10162
  139.6516  144.0352  152.2630 LP  0  0  0  0  0  0  0  0  0  0  0  0  # atno 17343 bound_to 10162
  156.0812  130.3673  150.0576 LP  0  0  0  0  0  0  0  0  0  0  0  0  # atno 17370 bound_to 10713
  156.8722  130.9528  151.3608 LP  0  0  0  0  0  0  0  0  0  0  0  0  # atno 17371 bound_to 10713
  139.8896  134.8825  156.2411 LP  0  0  0  0  0  0  0  0  0  0  0  0  # atno 17394 bound_to 11000
  141.0162  133.7067  156.1193 LP  0  0  0  0  0  0  0  0  0  0  0  0  # atno 17395 bound_to 11000

$$$$
