AV-unprocessed.smi:1703|AV-procd|sdf|6877|dock6
  -GOLD-   22720 8 83D 1   1.00000     0.00000
 Structure written by MMmdl.
 50 52  0  0  0  0  0  0  0  0  3 V2000
  148.6210  140.8310  154.3636 C   0  0  0  0  0  0  0  0  0  0  0  0
  149.2886  139.4737  154.1167 C   0  0  2  0  0  0  0  0  0  0  0  0
  148.5704  138.3293  154.8563 C   0  0  0  0  0  0  0  0  0  0  0  0
  149.2860  137.0477  154.6520 N   0  3  2  0  0  0  0  0  0  0  0  0
  148.5902  135.9015  155.2916 C   0  0  0  0  0  0  0  0  0  0  0  0
  147.2341  135.5832  154.6297 C   0  0  2  0  0  0  0  0  0  0  0  0
  146.4884  134.7513  155.4965 O   0  0  0  0  0  0  0  0  0  0  0  0
  147.3904  134.8630  153.2712 C   0  0  0  0  0  0  0  0  0  0  0  0
  146.1358  134.8449  152.5053 N   0  0  0  0  0  0  0  0  0  0  0  0
  145.2241  135.8385  152.2981 C   0  0  0  0  0  0  0  0  0  0  0  0
  145.2865  137.2344  152.8233 C   0  0  0  0  0  0  0  0  0  0  0  0
  145.3319  138.1934  151.7907 O   0  0  0  0  0  0  0  0  0  0  0  0
  144.2312  135.3210  151.5220 N   0  3  0  0  0  0  0  0  0  0  0  0
  144.5114  133.9870  151.2237 C   0  0  0  0  0  0  0  0  0  0  0  0
  143.8029  133.0550  150.4720 C   0  0  0  0  0  0  0  0  0  0  0  0
  144.3687  131.7679  150.3636 C   0  0  0  0  0  0  0  0  0  0  0  0
  145.5929  131.4496  150.9861 C   0  0  0  0  0  0  0  0  0  0  0  0
  146.3035  132.4035  151.7446 C   0  0  0  0  0  0  0  0  0  0  0  0
  145.7359  133.6736  151.8504 C   0  0  0  0  0  0  0  0  0  0  0  0
  150.7086  137.1818  155.0525 C   0  0  0  0  0  0  0  0  0  0  0  0
  151.3688  138.3583  154.3084 C   0  0  2  0  0  0  0  0  0  0  0  0
  152.8192  138.5820  154.7506 C   0  0  0  0  0  0  0  0  0  0  0  0
  150.6341  139.5479  154.5752 O   0  0  0  0  0  0  0  0  0  0  0  0
  147.5866  140.8285  154.0183 H   0  0  0  0  0  0  0  0  0  0  0  0
  149.1458  141.6256  153.8328 H   0  0  0  0  0  0  0  0  0  0  0  0
  148.6195  141.0843  155.4240 H   0  0  0  0  0  0  0  0  0  0  0  0
  149.2851  139.2771  153.0430 H   0  0  0  0  0  0  0  0  0  0  0  0
  148.5105  138.5463  155.9242 H   0  0  0  0  0  0  0  0  0  0  0  0
  147.5472  138.2421  154.4883 H   0  0  0  0  0  0  0  0  0  0  0  0
  149.2442  135.0292  155.2658 H   0  0  0  0  0  0  0  0  0  0  0  0
  148.4165  136.1202  156.3465 H   0  0  0  0  0  0  0  0  0  0  0  0
  146.6565  136.4970  154.4904 H   0  0  0  0  0  0  0  0  0  0  0  0
  145.6517  135.1584  155.6648 H   0  0  0  0  0  0  0  0  0  0  0  0
  148.1822  135.3016  152.6637 H   0  0  0  0  0  0  0  0  0  0  0  0
  147.6819  133.8207  153.4111 H   0  0  0  0  0  0  0  0  0  0  0  0
  144.4205  137.4273  153.4565 H   0  0  0  0  0  0  0  0  0  0  0  0
  146.1723  137.3464  153.4491 H   0  0  0  0  0  0  0  0  0  0  0  0
  145.0329  139.0216  152.1341 H   0  0  0  0  0  0  0  0  0  0  0  0
  142.8649  133.2966  149.9933 H   0  0  0  0  0  0  0  0  0  0  0  0
  143.8530  131.0095  149.7921 H   0  0  0  0  0  0  0  0  0  0  0  0
  145.9940  130.4517  150.8808 H   0  0  0  0  0  0  0  0  0  0  0  0
  147.2376  132.1424  152.2180 H   0  0  0  0  0  0  0  0  0  0  0  0
  150.7707  137.3374  156.1308 H   0  0  0  0  0  0  0  0  0  0  0  0
  151.2543  136.2652  154.8316 H   0  0  0  0  0  0  0  0  0  0  0  0
  151.3609  138.1654  153.2342 H   0  0  0  0  0  0  0  0  0  0  0  0
  153.4303  137.7007  154.5543 H   0  0  0  0  0  0  0  0  0  0  0  0
  152.8786  138.8015  155.8171 H   0  0  0  0  0  0  0  0  0  0  0  0
  153.2646  139.4197  154.2135 H   0  0  0  0  0  0  0  0  0  0  0  0
  149.2718  136.8716  153.6570 H   0  0  0  0  0  0  0  0  0  0  0  0
  143.4190  135.8454  151.2225 H   0  0  0  0  0  0  0  0  0  0  0  0
  1  2  1  0  0  0  0
  1 24  1  0  0  0  0
  1 25  1  0  0  0  0
  1 26  1  0  0  0  0
  2 23  1  0  0  0  0
  2  3  1  0  0  0  0
  2 27  1  0  0  0  0
  3  4  1  0  0  0  0
  3 28  1  0  0  0  0
  3 29  1  0  0  0  0
  4  5  1  0  0  0  0
  4 20  1  0  0  0  0
  4 49  1  0  0  0  0
  5  6  1  0  0  0  0
  5 30  1  0  0  0  0
  5 31  1  0  0  0  0
  6  7  1  0  0  0  0
  6  8  1  0  0  0  0
  6 32  1  0  0  0  0
  7 33  1  0  0  0  0
  8  9  1  0  0  0  0
  8 34  1  0  0  0  0
  8 35  1  0  0  0  0
  9 19  1  0  0  0  0
  9 10  1  0  0  0  0
 10 11  1  0  0  0  0
 10 13  2  0  0  0  0
 11 12  1  0  0  0  0
 11 36  1  0  0  0  0
 11 37  1  0  0  0  0
 12 38  1  0  0  0  0
 13 14  1  0  0  0  0
 13 50  1  0  0  0  0
 14 19  2  0  0  0  0
 14 15  1  0  0  0  0
 15 16  2  0  0  0  0
 15 39  1  0  0  0  0
 16 17  1  0  0  0  0
 16 40  1  0  0  0  0
 17 18  2  0  0  0  0
 17 41  1  0  0  0  0
 18 19  1  0  0  0  0
 18 42  1  0  0  0  0
 20 21  1  0  0  0  0
 20 43  1  0  0  0  0
 20 44  1  0  0  0  0
 21 22  1  0  0  0  0
 21 23  1  0  0  0  0
 21 45  1  0  0  0  0
 22 46  1  0  0  0  0
 22 47  1  0  0  0  0
 22 48  1  0  0  0  0
M  CHG  1   4   1
M  CHG  1  13   1
M  END
> <s_m_source_file>
AV-unprocessed.smi

> <i_m_source_file_index>
1703

> <i_lp_mmshare_version>
43012

> <i_f3d_flags>
0

> <s_epik_input>
W0NIM11bQ0BASF0xW0NIMl1OKFtDSDJdW0NASF0oTzEpW0NIM10pW0NIMl1bQ0BIXShbT0hdKVtDSDJdbihjKG4yKVtDSDJdW09IXSljKGMyMylbY0hdW2NIXVtjSF1bY0hdMw==

> <s_epik_cmdline>
J2VwaWtfcHl0aG9uJywgJy1waCcsICc3LjAnLCAnLXRuJywgJzgnLCAnLW1hJywgJzIwMCcsICctbWV0YWxfYmluZGluZycsICctaW1hZScsICc8aW5maWxlLm1hZT4nLCAnLW9tYWUnLCAnPG91dGZpbGUubWFlPic=

> <r_epik_Ionization_Penalty>
2.22579

> <r_epik_Ionization_Penalty_Charging>
2.22492

> <r_epik_Ionization_Penalty_Neutral>
0.000870007

> <r_epik_State_Penalty>
2.3141

> <r_epik_Charging_Adjusted_Penalty>
4.53902

> <i_epik_Tot_Q>
2

> <i_epik_Tot_abs_Q>
2

> <r_epik_Metal_State_Penalty>
6.36517

> <b_epik_Metal_Only>
0

> <s_lp_Force_Field>
OPLS_2005

> <r_lp_Energy>
31.942

> <b_lp_Chiralities_Consistent>
1

> <s_lp_Variant>
AV-unprocessed.smi:1703-25

> <Gold.Version>
5.8.1

> <Gold.Id.Protein>
6NUR|6NUR_protein|mol2

> <Gold.PLP.Fitness>
46.6230

> <Gold.PLP.PLP>
-35.5156

> <Gold.PLP.part.hbond>
-3.9629

> <Gold.PLP.part.metal>
0.0000

> <Gold.PLP.part.buried>
-1.0280

> <Gold.PLP.part.nonpolar>
-30.9203

> <Gold.PLP.part.repulsive>
0.1124

> <Gold.PLP.ligand.clash>
0.0000

> <Gold.PLP.ligand.torsion>
0.4797

> <Gold.PLP.Chemscore.Hbond>
4.0000

> <Gold.PLP.Chemscore.CHOScore>
0.0000

> <Gold.PLP.Chemscore.Metal>
0.0000

> <Gold.Chemscore.Hbonds>
donor molecule, donor type, donor heavy atom, donor atom, acceptor molecule, acceptor atom, score
      L1  H     4    49       P1  7948  2.00
      L1  H    12    38       P1 10175  1.00
      P1  H  7989  7998       L1    23  1.00

> <Gold.PLP.Chemscore.Internal.Correction>
0.0668

> <Gold.Rescore>
     Score         DG    S(hbond)    S(metal)    S(lipo)     H(rot)  DE(clash)    DE(int)     intcor
     14.81     -18.09       2.58        0.00     100.63       3.04       2.84       0.45       ----

> <Gold.Chemscore.Fitness>
14.8071

> <Gold.Chemscore.DG>
-18.0891

> <Gold.Chemscore.ZeroCoef>
-5.4800

> <Gold.Chemscore.Hbond>
2.5786

> <Gold.Chemscore.Metal>
0.0000

> <Gold.Chemscore.Lipo>
100.6251

> <Gold.Chemscore.Internal_Hbond>
0.0000

> <Gold.Chemscore.DEClash>
2.8362

> <Gold.Chemscore.DEInternal>
0.4458

> <Gold.Chemscore.Rot>
3.0378

> <Gold.Chemscore.Internal.Correction>
   9.000000E+99

> <Gold.Chemscore.Hbonds>
donor molecule, donor type, donor heavy atom, donor atom, acceptor molecule, acceptor atom, score
      L1  H     4    49       P1  7948  0.97
      L1  H    12    38       P1 10175  0.94
      P1  H  7989  7998       L1    23  0.21

> <Gold.Chemscore.Hbond.Weighted>
-8.6127

> <Gold.Chemscore.Metal.Weighted>
-0.0000

> <Gold.Chemscore.Lipo.Weighted>
-11.7731

> <Gold.Chemscore.Internal_Hbond.Weighted>
0.0000

> <Gold.Chemscore.DEClash.Weighted>
2.8362

> <Gold.Chemscore.DEInternal.Weighted>
0.4458

> <Gold.Chemscore.Rot.Weighted>
7.7767

> <Gold.Chemscore.Internal.Correction.Weighted>
   9.000000E+99

> <Gold.Protein.RotatedTorsions>
[ 6907 6896 6895 6894 ] final  137.74 input  -60.11 | X-H torsion
[ 7974 7965 7964 7962 ] final  -20.06 input  175.53 | X-H torsion
[ 8008 7997 7996 7995 ] final  129.62 input   59.86 | X-H torsion
[ 10167 10162 10161 10158 ] final   79.44 input  -65.29 | X-H torsion
[ 10718 10713 10712 10709 ] final  -23.95 input   66.30 | X-H torsion
[ 10763 10752 10751 10750 ] final  -43.85 input  -60.55 | X-H torsion
[ 11005 11000 10999 10996 ] final  -39.74 input  -57.11 | X-H torsion

> <Gold.Protein.ActiveResidues>
 VAL166  LYS551  ARG553  GLY616  TRP617  ASP618  TYR619  PRO620  LYS621  CYS622 
 ASP623  PHE694  ASN695  SER759  ASP760  ASP761  ALA762  ILE779  LEU786  VAL792 
 PHE793  MET794  SER795  GLU796  ALA797  LYS798  CYS799  TRP800  GLU811  SER814 

> <Gold.Protein.RotatedAtoms>
  152.2747  133.5414  159.5460 H   0  0  0  0  0  0  0  0  0  0  0  0  # atno 6907 bound_to 6896
  150.7172  134.0649  159.3853 H   0  0  0  0  0  0  0  0  0  0  0  0  # atno 6908 bound_to 6896
  151.8562  135.0540  160.0515 H   0  0  0  0  0  0  0  0  0  0  0  0  # atno 6909 bound_to 6896
  146.1808  140.4150  142.8495 H   0  0  0  0  0  0  0  0  0  0  0  0  # atno 7974 bound_to 7965
  156.2939  140.2616  156.2628 H   0  0  0  0  0  0  0  0  0  0  0  0  # atno 8008 bound_to 7997
  154.9772  140.0390  157.2280 H   0  0  0  0  0  0  0  0  0  0  0  0  # atno 8009 bound_to 7997
  154.7805  140.2794  155.6072 H   0  0  0  0  0  0  0  0  0  0  0  0  # atno 8010 bound_to 7997
  139.9603  144.5966  150.8078 H   0  0  0  0  0  0  0  0  0  0  0  0  # atno 10167 bound_to 10162
  156.4841  130.4552  149.6794 H   0  0  0  0  0  0  0  0  0  0  0  0  # atno 10718 bound_to 10713
  154.0023  135.6692  153.4760 H   0  0  0  0  0  0  0  0  0  0  0  0  # atno 10763 bound_to 10752
  153.0657  135.5002  154.8190 H   0  0  0  0  0  0  0  0  0  0  0  0  # atno 10764 bound_to 10752
  154.7045  135.3085  154.9254 H   0  0  0  0  0  0  0  0  0  0  0  0  # atno 10765 bound_to 10752
  141.0124  133.6902  156.2227 H   0  0  0  0  0  0  0  0  0  0  0  0  # atno 11005 bound_to 11000
  144.8312  140.6710  143.6290 LP  0  0  0  0  0  0  0  0  0  0  0  0  # atno 17320 bound_to 7965
  145.4081  139.1585  143.4141 LP  0  0  0  0  0  0  0  0  0  0  0  0  # atno 17321 bound_to 7965
  140.7555  143.3048  151.2990 LP  0  0  0  0  0  0  0  0  0  0  0  0  # atno 17342 bound_to 10162
  139.6559  144.0277  152.2659 LP  0  0  0  0  0  0  0  0  0  0  0  0  # atno 17343 bound_to 10162
  156.3492  130.7423  151.2380 LP  0  0  0  0  0  0  0  0  0  0  0  0  # atno 17370 bound_to 10713
  157.7480  131.0382  150.4491 LP  0  0  0  0  0  0  0  0  0  0  0  0  # atno 17371 bound_to 10713
  140.6712  134.4866  157.5587 LP  0  0  0  0  0  0  0  0  0  0  0  0  # atno 17394 bound_to 11000
  139.9097  134.8371  156.1573 LP  0  0  0  0  0  0  0  0  0  0  0  0  # atno 17395 bound_to 11000

$$$$
