AV-unprocessed.smi:1278|AV-procd|sdf|5349|dock8
  -GOLD-   22720 4483D 1   1.00000     0.00000
 Structure written by MMmdl.
 39 40  0  0  0  0  0  0  0  0  2 V2000
  148.3102  133.0023  152.8933 C   0  0  0  0  0  0  0  0  0  0  0  0
  146.7797  132.8418  152.8986 C   0  0  2  0  0  0  0  0  0  0  0  0
  146.2285  132.3218  151.5580 C   0  0  0  0  0  0  0  0  0  0  0  0
  146.2555  133.4169  150.4826 C   0  0  0  0  0  0  0  0  0  0  0  0
  145.5427  134.6879  150.9712 C   0  0  0  0  0  0  0  0  0  0  0  0
  146.1306  135.1772  152.2451 N   0  3  1  0  0  0  0  0  0  0  0  0
  145.5651  136.4862  152.6584 C   0  0  0  0  0  0  0  0  0  0  0  0
  146.1655  137.6622  151.8640 C   0  0  0  0  0  0  0  0  0  0  0  0
  147.4312  138.1053  152.4374 N   0  0  0  0  0  0  0  0  0  0  0  0
  147.5542  139.0345  153.3965 C   0  0  0  0  0  0  0  0  0  0  0  0
  146.5921  139.6100  153.9061 O   0  0  0  0  0  0  0  0  0  0  0  0
  148.8440  139.2392  153.7168 N   0  0  0  0  0  0  0  0  0  0  0  0
  149.3776  140.1371  154.6784 C   0  0  0  0  0  0  0  0  0  0  0  0
  150.6547  140.1437  155.0779 N   0  0  0  0  0  0  0  0  0  0  0  0
  150.8997  141.1328  156.0342 C   0  0  0  0  0  0  0  0  0  0  0  0
  149.7904  141.8764  156.3515 C   0  0  0  0  0  0  0  0  0  0  0  0
  148.3851  141.3605  155.4578 S   0  0  0  0  0  0  0  0  0  0  0  0
  146.0595  134.1423  153.3123 C   0  0  0  0  0  0  0  0  0  0  0  0
  148.6394  133.7571  152.1792 H   0  0  0  0  0  0  0  0  0  0  0  0
  148.8015  132.0643  152.6338 H   0  0  0  0  0  0  0  0  0  0  0  0
  148.6742  133.2998  153.8770 H   0  0  0  0  0  0  0  0  0  0  0  0
  146.5537  132.0887  153.6549 H   0  0  0  0  0  0  0  0  0  0  0  0
  146.7896  131.4481  151.2241 H   0  0  0  0  0  0  0  0  0  0  0  0
  145.1994  131.9875  151.6987 H   0  0  0  0  0  0  0  0  0  0  0  0
  147.2860  133.6522  150.2145 H   0  0  0  0  0  0  0  0  0  0  0  0
  145.7801  133.0524  149.5716 H   0  0  0  0  0  0  0  0  0  0  0  0
  145.6270  135.4581  150.2035 H   0  0  0  0  0  0  0  0  0  0  0  0
  144.4781  134.4942  151.1113 H   0  0  0  0  0  0  0  0  0  0  0  0
  144.4875  136.4744  152.4894 H   0  0  0  0  0  0  0  0  0  0  0  0
  145.7056  136.6291  153.7310 H   0  0  0  0  0  0  0  0  0  0  0  0
  146.3630  137.3750  150.8320 H   0  0  0  0  0  0  0  0  0  0  0  0
  145.4623  138.4962  151.8252 H   0  0  0  0  0  0  0  0  0  0  0  0
  148.2723  137.6826  152.0723 H   0  0  0  0  0  0  0  0  0  0  0  0
  149.5258  138.6908  153.2135 H   0  0  0  0  0  0  0  0  0  0  0  0
  151.8961  141.2379  156.4376 H   0  0  0  0  0  0  0  0  0  0  0  0
  149.7153  142.6928  157.0542 H   0  0  0  0  0  0  0  0  0  0  0  0
  145.0117  133.9290  153.5303 H   0  0  0  0  0  0  0  0  0  0  0  0
  146.4967  134.5134  154.2386 H   0  0  0  0  0  0  0  0  0  0  0  0
  147.1096  135.3390  152.0557 H   0  0  0  0  0  0  0  0  0  0  0  0
  1  2  1  0  0  0  0
  1 19  1  0  0  0  0
  1 20  1  0  0  0  0
  1 21  1  0  0  0  0
  2 18  1  0  0  0  0
  2  3  1  0  0  0  0
  2 22  1  0  0  0  0
  3  4  1  0  0  0  0
  3 23  1  0  0  0  0
  3 24  1  0  0  0  0
  4  5  1  0  0  0  0
  4 25  1  0  0  0  0
  4 26  1  0  0  0  0
  5  6  1  0  0  0  0
  5 27  1  0  0  0  0
  5 28  1  0  0  0  0
  6  7  1  0  0  0  0
  6 18  1  0  0  0  0
  6 39  1  0  0  0  0
  7  8  1  0  0  0  0
  7 29  1  0  0  0  0
  7 30  1  0  0  0  0
  8  9  1  0  0  0  0
  8 31  1  0  0  0  0
  8 32  1  0  0  0  0
  9 10  1  0  0  0  0
  9 33  1  0  0  0  0
 10 11  2  0  0  0  0
 10 12  1  0  0  0  0
 12 13  1  0  0  0  0
 12 34  1  0  0  0  0
 13 17  1  0  0  0  0
 13 14  2  0  0  0  0
 14 15  1  0  0  0  0
 15 16  2  0  0  0  0
 15 35  1  0  0  0  0
 16 17  1  0  0  0  0
 16 36  1  0  0  0  0
 18 37  1  0  0  0  0
 18 38  1  0  0  0  0
M  CHG  1   6   1
M  END
> <s_m_source_file>
AV-unprocessed.smi

> <i_m_source_file_index>
1278

> <i_lp_mmshare_version>
43012

> <i_f3d_flags>
0

> <s_epik_input>
W0NIM11bQ0BASF0xW0NIMl1bQ0gyXVtDSDJdTihbQ0gyXTEpW0NIMl1bQ0gyXVtOSF1DKD1PKVtOSF1jMm5bY0hdW2NIXXMy

> <s_epik_cmdline>
J2VwaWtfcHl0aG9uJywgJy1waCcsICc3LjAnLCAnLXRuJywgJzgnLCAnLW1hJywgJzIwMCcsICctbWV0YWxfYmluZGluZycsICctaW1hZScsICc8aW5maWxlLm1hZT4nLCAnLW9tYWUnLCAnPG91dGZpbGUubWFlPic=

> <r_lp_tautomer_probability>
0.999

> <r_epik_Ionization_Penalty>
0.00222194

> <r_epik_Ionization_Penalty_Charging>
0.00208169

> <r_epik_Ionization_Penalty_Neutral>
0.000140251

> <r_epik_State_Penalty>
0.00142585

> <r_epik_Charging_Adjusted_Penalty>
0.00350754

> <i_epik_Tot_Q>
1

> <i_epik_Tot_abs_Q>
1

> <r_epik_Metal_State_Penalty>
0.0570424

> <b_epik_Metal_Only>
0

> <s_lp_Force_Field>
OPLS_2005

> <r_lp_Energy>
16.5942

> <b_lp_Chiralities_Consistent>
1

> <s_lp_Variant>
AV-unprocessed.smi:1278-3

> <Gold.Version>
5.8.1

> <Gold.Id.Protein>
6NUR|6NUR_protein|mol2

> <Gold.PLP.Fitness>
43.6829

> <Gold.PLP.PLP>
-31.6210

> <Gold.PLP.part.hbond>
-4.4717

> <Gold.PLP.part.metal>
0.0000

> <Gold.PLP.part.buried>
-0.8629

> <Gold.PLP.part.nonpolar>
-26.6786

> <Gold.PLP.part.repulsive>
0.3808

> <Gold.PLP.ligand.clash>
0.0000

> <Gold.PLP.ligand.torsion>
0.5544

> <Gold.PLP.Chemscore.Hbond>
3.8320

> <Gold.PLP.Chemscore.CHOScore>
0.5513

> <Gold.PLP.Chemscore.Metal>
0.0000

> <Gold.Chemscore.Hbonds>
donor molecule, donor type, donor heavy atom, donor atom, acceptor molecule, acceptor atom, score
      L1  H     6    39       P1  7948  2.00
      L1  H     9    33       P1  7948  0.85
      P1  H  7989  7998       L1    14  1.00
      L1  C    16    36       P1  8028  0.43

> <Gold.PLP.Chemscore.Internal.Correction>
0.0207

> <Gold.Rescore>
     Score         DG    S(hbond)    S(metal)    S(lipo)     H(rot)  DE(clash)    DE(int)     intcor
     15.44     -17.48       2.52        0.00      65.77       1.60       0.30       1.75       ----

> <Gold.Chemscore.Fitness>
15.4386

> <Gold.Chemscore.DG>
-17.4826

> <Gold.Chemscore.ZeroCoef>
-5.4800

> <Gold.Chemscore.Hbond>
2.5159

> <Gold.Chemscore.Metal>
0.0000

> <Gold.Chemscore.Lipo>
65.7743

> <Gold.Chemscore.Internal_Hbond>
0.0000

> <Gold.Chemscore.DEClash>
0.2967

> <Gold.Chemscore.DEInternal>
1.7473

> <Gold.Chemscore.Rot>
1.6001

> <Gold.Chemscore.Internal.Correction>
   9.000000E+99

> <Gold.Chemscore.Hbonds>
donor molecule, donor type, donor heavy atom, donor atom, acceptor molecule, acceptor atom, score
      L1  H     6    39       P1  7948  0.93
      L1  H     9    33       P1  7948  0.81
      P1  H  7989  7998       L1    14  0.11

> <Gold.Chemscore.Hbond.Weighted>
-8.4032

> <Gold.Chemscore.Metal.Weighted>
-0.0000

> <Gold.Chemscore.Lipo.Weighted>
-7.6956

> <Gold.Chemscore.Internal_Hbond.Weighted>
0.0000

> <Gold.Chemscore.DEClash.Weighted>
0.2967

> <Gold.Chemscore.DEInternal.Weighted>
1.7473

> <Gold.Chemscore.Rot.Weighted>
4.0963

> <Gold.Chemscore.Internal.Correction.Weighted>
   9.000000E+99

> <Gold.Protein.RotatedTorsions>
[ 6907 6896 6895 6894 ] final  169.76 input  -60.11 | X-H torsion
[ 7974 7965 7964 7962 ] final  120.80 input  175.53 | X-H torsion
[ 8008 7997 7996 7995 ] final   68.97 input   59.86 | X-H torsion
[ 10167 10162 10161 10158 ] final -157.50 input  -65.29 | X-H torsion
[ 10718 10713 10712 10709 ] final   44.32 input   66.30 | X-H torsion
[ 10763 10752 10751 10750 ] final -121.33 input  -60.55 | X-H torsion
[ 11005 11000 10999 10996 ] final  -51.08 input  -57.11 | X-H torsion

> <Gold.Protein.ActiveResidues>
 VAL166  LYS551  ARG553  GLY616  TRP617  ASP618  TYR619  PRO620  LYS621  CYS622 
 ASP623  PHE694  ASN695  SER759  ASP760  ASP761  ALA762  ILE779  LEU786  VAL792 
 PHE793  MET794  SER795  GLU796  ALA797  LYS798  CYS799  TRP800  GLU811  SER814 

> <Gold.Protein.RotatedAtoms>
  151.8269  133.3402  159.3600 H   0  0  0  0  0  0  0  0  0  0  0  0  # atno 6907 bound_to 6896
  150.7277  134.5520  159.5809 H   0  0  0  0  0  0  0  0  0  0  0  0  # atno 6908 bound_to 6896
  152.2965  134.7662  160.0418 H   0  0  0  0  0  0  0  0  0  0  0  0  # atno 6909 bound_to 6896
  145.1269  139.3353  143.4685 H   0  0  0  0  0  0  0  0  0  0  0  0  # atno 7974 bound_to 7965
  155.7165  140.3494  155.4997 H   0  0  0  0  0  0  0  0  0  0  0  0  # atno 8008 bound_to 7997
  155.9309  140.1084  157.1155 H   0  0  0  0  0  0  0  0  0  0  0  0  # atno 8009 bound_to 7997
  154.4085  140.1231  156.4788 H   0  0  0  0  0  0  0  0  0  0  0  0  # atno 8010 bound_to 7997
  139.6765  143.9654  152.2313 H   0  0  0  0  0  0  0  0  0  0  0  0  # atno 10167 bound_to 10162
  157.4255  130.7994  149.7554 H   0  0  0  0  0  0  0  0  0  0  0  0  # atno 10718 bound_to 10713
  154.8665  135.4171  154.2603 H   0  0  0  0  0  0  0  0  0  0  0  0  # atno 10763 bound_to 10752
  153.3532  135.7000  153.6777 H   0  0  0  0  0  0  0  0  0  0  0  0  # atno 10764 bound_to 10752
  153.5708  135.3591  155.2809 H   0  0  0  0  0  0  0  0  0  0  0  0  # atno 10765 bound_to 10752
  141.0851  133.6644  156.3825 H   0  0  0  0  0  0  0  0  0  0  0  0  # atno 11005 bound_to 11000
  146.3517  140.1251  142.8599 LP  0  0  0  0  0  0  0  0  0  0  0  0  # atno 17320 bound_to 7965
  145.0679  140.9134  143.4900 LP  0  0  0  0  0  0  0  0  0  0  0  0  # atno 17321 bound_to 7965
  139.9432  144.6668  150.8245 LP  0  0  0  0  0  0  0  0  0  0  0  0  # atno 17342 bound_to 10162
  140.7637  143.3230  151.2578 LP  0  0  0  0  0  0  0  0  0  0  0  0  # atno 17343 bound_to 10162
  155.9895  130.3951  150.3071 LP  0  0  0  0  0  0  0  0  0  0  0  0  # atno 17370 bound_to 10713
  157.1222  131.0250  151.3004 LP  0  0  0  0  0  0  0  0  0  0  0  0  # atno 17371 bound_to 10713
  140.5380  134.6148  157.5371 LP  0  0  0  0  0  0  0  0  0  0  0  0  # atno 17394 bound_to 11000
  139.9669  134.7358  156.0121 LP  0  0  0  0  0  0  0  0  0  0  0  0  # atno 17395 bound_to 11000

$$$$
