AV-unprocessed.smi:1899|AV-procd|sdf|7708|dock5
  -GOLD-   22720 9443D 1   1.00000     0.00000
 Structure written by MMmdl.
 33 34  0  0  0  0  0  0  0  0  1 V2000
  150.5364  141.0503  158.2654 O   0  0  0  0  0  0  0  0  0  0  0  0
  150.2235  142.0362  157.5974 C   0  0  0  0  0  0  0  0  0  0  0  0
  149.4454  141.9673  156.5067 N   0  0  0  0  0  0  0  0  0  0  0  0
  148.8316  140.7497  155.9858 C   0  0  0  0  0  0  0  0  0  0  0  0
  149.4137  140.3340  154.6208 C   0  0  0  0  0  0  0  0  0  0  0  0
  150.6650  139.6118  154.7527 N   0  0  0  0  0  0  0  0  0  0  0  0
  151.0015  138.4024  154.1596 C   0  0  0  0  0  0  0  0  0  0  0  0
  152.2796  138.1039  154.5749 C   0  0  0  0  0  0  0  0  0  0  0  0
  152.7460  139.1094  155.4188 N   0  0  0  0  0  0  0  0  0  0  0  0
  151.7365  139.9684  155.4747 C   0  0  0  0  0  0  0  0  0  0  0  0
  150.7148  143.4323  158.0011 C   0  0  1  0  0  0  0  0  0  0  0  0
  150.0375  143.8996  159.3100 C   0  0  0  0  0  0  0  0  0  0  0  0
  150.6893  145.1463  159.8816 C   0  0  0  0  0  0  0  0  0  0  0  0
  151.8975  145.5920  159.4969 C   0  0  0  0  0  0  0  0  0  0  0  0
  152.7496  144.8977  158.4493 C   0  0  0  0  0  0  0  0  0  0  0  0
  152.2499  143.4735  158.1416 C   0  0  0  0  0  0  0  0  0  0  0  0
  149.2409  142.8260  156.0160 H   0  0  0  0  0  0  0  0  0  0  0  0
  148.9823  139.9518  156.7134 H   0  0  0  0  0  0  0  0  0  0  0  0
  147.7527  140.8911  155.9043 H   0  0  0  0  0  0  0  0  0  0  0  0
  148.7046  139.6933  154.0956 H   0  0  0  0  0  0  0  0  0  0  0  0
  149.5745  141.2043  153.9830 H   0  0  0  0  0  0  0  0  0  0  0  0
  150.3223  137.8688  153.5111 H   0  0  0  0  0  0  0  0  0  0  0  0
  152.8942  137.2492  154.3336 H   0  0  0  0  0  0  0  0  0  0  0  0
  151.7742  140.8755  156.0603 H   0  0  0  0  0  0  0  0  0  0  0  0
  150.4391  144.1324  157.2099 H   0  0  0  0  0  0  0  0  0  0  0  0
  148.9844  144.1133  159.1234 H   0  0  0  0  0  0  0  0  0  0  0  0
  150.0720  143.1226  160.0750 H   0  0  0  0  0  0  0  0  0  0  0  0
  150.1391  145.6779  160.6441 H   0  0  0  0  0  0  0  0  0  0  0  0
  152.3015  146.4935  159.9337 H   0  0  0  0  0  0  0  0  0  0  0  0
  152.7342  145.5064  157.5450 H   0  0  0  0  0  0  0  0  0  0  0  0
  153.7843  144.8621  158.7913 H   0  0  0  0  0  0  0  0  0  0  0  0
  152.5600  142.8063  158.9476 H   0  0  0  0  0  0  0  0  0  0  0  0
  152.7321  143.1041  157.2353 H   0  0  0  0  0  0  0  0  0  0  0  0
  1  2  2  0  0  0  0
  2  3  1  0  0  0  0
  2 11  1  0  0  0  0
  3  4  1  0  0  0  0
  3 17  1  0  0  0  0
  4  5  1  0  0  0  0
  4 18  1  0  0  0  0
  4 19  1  0  0  0  0
  5  6  1  0  0  0  0
  5 20  1  0  0  0  0
  5 21  1  0  0  0  0
  6 10  1  0  0  0  0
  6  7  1  0  0  0  0
  7  8  2  0  0  0  0
  7 22  1  0  0  0  0
  8  9  1  0  0  0  0
  8 23  1  0  0  0  0
  9 10  2  0  0  0  0
 10 24  1  0  0  0  0
 11 16  1  0  0  0  0
 11 12  1  0  0  0  0
 11 25  1  0  0  0  0
 12 13  1  0  0  0  0
 12 26  1  0  0  0  0
 12 27  1  0  0  0  0
 13 14  2  0  0  0  0
 13 28  1  0  0  0  0
 14 15  1  0  0  0  0
 14 29  1  0  0  0  0
 15 16  1  0  0  0  0
 15 30  1  0  0  0  0
 15 31  1  0  0  0  0
 16 32  1  0  0  0  0
 16 33  1  0  0  0  0
M  END
> <s_m_source_file>
AV-unprocessed.smi

> <i_m_source_file_index>
1899

> <i_lp_mmshare_version>
43012

> <i_f3d_flags>
0

> <s_epik_input>
W0NIMl0xW0NIMl1bQ0hdPVtDSF1bQ0gyXVtDQEhdMUMoPU8pW05IXVtDSDJdW0NIMl1uMltjSF1bY0hdbltjSF0y

> <s_epik_cmdline>
J2VwaWtfcHl0aG9uJywgJy1waCcsICc3LjAnLCAnLXRuJywgJzgnLCAnLW1hJywgJzIwMCcsICctbWV0YWxfYmluZGluZycsICctaW1hZScsICc8aW5maWxlLm1hZT4nLCAnLW9tYWUnLCAnPG91dGZpbGUubWFlPic=

> <r_lp_tautomer_probability>
1

> <r_epik_Ionization_Penalty>
0.598506

> <r_epik_Ionization_Penalty_Charging>
0.598506

> <r_epik_Ionization_Penalty_Neutral>
1.57027e-08

> <r_epik_State_Penalty>
0.612686

> <r_epik_Charging_Adjusted_Penalty>
1.21119

> <i_epik_Tot_Q>
0

> <i_epik_Tot_abs_Q>
0

> <r_epik_Metal_State_Penalty>
0.300712

> <b_epik_Metal_Only>
0

> <s_lp_Force_Field>
OPLS_2005

> <r_lp_Energy>
10.0214

> <b_lp_Chiralities_Consistent>
1

> <s_lp_Variant>
AV-unprocessed.smi:1899-4

> <Gold.Version>
5.8.1

> <Gold.Id.Protein>
6NUR|6NUR_protein|mol2

> <Gold.PLP.Fitness>
44.7725

> <Gold.PLP.PLP>
-37.3066

> <Gold.PLP.part.hbond>
-1.9676

> <Gold.PLP.part.metal>
0.0000

> <Gold.PLP.part.buried>
-1.9872

> <Gold.PLP.part.nonpolar>
-32.1912

> <Gold.PLP.part.repulsive>
0.0477

> <Gold.PLP.ligand.clash>
0.0000

> <Gold.PLP.ligand.torsion>
0.3473

> <Gold.PLP.Chemscore.Hbond>
1.9750

> <Gold.PLP.Chemscore.CHOScore>
0.7368

> <Gold.PLP.Chemscore.Metal>
0.0000

> <Gold.Chemscore.Hbonds>
donor molecule, donor type, donor heavy atom, donor atom, acceptor molecule, acceptor atom, score
      L1  H     3    17       P1  8028  1.00
      P1  H  7997  8009       L1     9  0.96
      L1  C     7    22       P1  7948  0.69
      L1  C     7    22       P1  7949  0.05

> <Gold.PLP.Chemscore.Internal.Correction>
0.0251

> <Gold.Rescore>
     Score         DG    S(hbond)    S(metal)    S(lipo)     H(rot)  DE(clash)    DE(int)     intcor
     16.99     -17.52       1.75        0.00      92.39       1.80       0.21       0.32       ----

> <Gold.Chemscore.Fitness>
16.9917

> <Gold.Chemscore.DG>
-17.5164

> <Gold.Chemscore.ZeroCoef>
-5.4800

> <Gold.Chemscore.Hbond>
1.7506

> <Gold.Chemscore.Metal>
0.0000

> <Gold.Chemscore.Lipo>
92.3895

> <Gold.Chemscore.Internal_Hbond>
0.0000

> <Gold.Chemscore.DEClash>
0.2056

> <Gold.Chemscore.DEInternal>
0.3191

> <Gold.Chemscore.Rot>
1.8048

> <Gold.Chemscore.Internal.Correction>
   9.000000E+99

> <Gold.Chemscore.Hbonds>
donor molecule, donor type, donor heavy atom, donor atom, acceptor molecule, acceptor atom, score
      L1  H     3    17       P1  8028  0.98
      P1  H  7997  8009       L1     9  0.46

> <Gold.Chemscore.Hbond.Weighted>
-5.8472

> <Gold.Chemscore.Metal.Weighted>
-0.0000

> <Gold.Chemscore.Lipo.Weighted>
-10.8096

> <Gold.Chemscore.Internal_Hbond.Weighted>
0.0000

> <Gold.Chemscore.DEClash.Weighted>
0.2056

> <Gold.Chemscore.DEInternal.Weighted>
0.3191

> <Gold.Chemscore.Rot.Weighted>
4.6203

> <Gold.Chemscore.Internal.Correction.Weighted>
   9.000000E+99

> <Gold.Protein.RotatedTorsions>
[ 6907 6896 6895 6894 ] final   67.08 input  -60.11 | X-H torsion
[ 7974 7965 7964 7962 ] final  -97.30 input  175.53 | X-H torsion
[ 8008 7997 7996 7995 ] final -149.23 input   59.86 | X-H torsion
[ 10167 10162 10161 10158 ] final  -30.16 input  -65.29 | X-H torsion
[ 10718 10713 10712 10709 ] final -119.45 input   66.30 | X-H torsion
[ 10763 10752 10751 10750 ] final  172.91 input  -60.55 | X-H torsion
[ 11005 11000 10999 10996 ] final -154.28 input  -57.11 | X-H torsion

> <Gold.Protein.ActiveResidues>
 VAL166  LYS551  ARG553  GLY616  TRP617  ASP618  TYR619  PRO620  LYS621  CYS622 
 ASP623  PHE694  ASN695  SER759  ASP760  ASP761  ALA762  ILE779  LEU786  VAL792 
 PHE793  MET794  SER795  GLU796  ALA797  LYS798  CYS799  TRP800  GLU811  SER814 

> <Gold.Protein.RotatedAtoms>
  152.4527  134.5359  159.9824 H   0  0  0  0  0  0  0  0  0  0  0  0  # atno 6907 bound_to 6896
  151.5428  133.3424  159.2946 H   0  0  0  0  0  0  0  0  0  0  0  0  # atno 6908 bound_to 6896
  150.8461  134.7801  159.7034 H   0  0  0  0  0  0  0  0  0  0  0  0  # atno 6909 bound_to 6896
  145.3355  140.9450  143.2637 H   0  0  0  0  0  0  0  0  0  0  0  0  # atno 7974 bound_to 7965
  155.6043  140.0665  157.2724 H   0  0  0  0  0  0  0  0  0  0  0  0  # atno 8008 bound_to 7997
  154.4270  140.1813  156.1253 H   0  0  0  0  0  0  0  0  0  0  0  0  # atno 8009 bound_to 7997
  156.0135  140.3324  155.6968 H   0  0  0  0  0  0  0  0  0  0  0  0  # atno 8010 bound_to 7997
  140.7252  143.3870  151.1497 H   0  0  0  0  0  0  0  0  0  0  0  0  # atno 10167 bound_to 10162
  156.1182  130.6302  150.9418 H   0  0  0  0  0  0  0  0  0  0  0  0  # atno 10718 bound_to 10713
  154.4327  135.2760  155.1901 H   0  0  0  0  0  0  0  0  0  0  0  0  # atno 10763 bound_to 10752
  154.3800  135.6089  153.5789 H   0  0  0  0  0  0  0  0  0  0  0  0  # atno 10764 bound_to 10752
  152.9837  135.5878  154.4642 H   0  0  0  0  0  0  0  0  0  0  0  0  # atno 10765 bound_to 10752
  140.6990  134.3958  157.5211 H   0  0  0  0  0  0  0  0  0  0  0  0  # atno 11005 bound_to 11000
  144.8830  139.4877  143.6714 LP  0  0  0  0  0  0  0  0  0  0  0  0  # atno 17320 bound_to 7965
  146.3028  139.7482  142.9078 LP  0  0  0  0  0  0  0  0  0  0  0  0  # atno 17321 bound_to 7965
  139.7469  143.8838  152.3066 LP  0  0  0  0  0  0  0  0  0  0  0  0  # atno 17342 bound_to 10162
  139.8678  144.7084  150.9023 LP  0  0  0  0  0  0  0  0  0  0  0  0  # atno 17343 bound_to 10162
  157.6366  131.0915  150.8336 LP  0  0  0  0  0  0  0  0  0  0  0  0  # atno 17370 bound_to 10713
  156.8437  130.5056  149.5318 LP  0  0  0  0  0  0  0  0  0  0  0  0  # atno 17371 bound_to 10713
  139.8902  134.8811  156.2382 LP  0  0  0  0  0  0  0  0  0  0  0  0  # atno 17394 bound_to 11000
  141.0179  133.7058  156.1219 LP  0  0  0  0  0  0  0  0  0  0  0  0  # atno 17395 bound_to 11000

$$$$
