AV-unprocessed.smi:936|AV-procd|sdf|4208|dock8
  -GOLD-   22720 2113D 1   1.00000     0.00000
 Structure written by MMmdl.
 40 41  0  0  0  0  0  0  0  0  1 V2000
  148.8206  144.3805  159.4749 C   0  0  0  0  0  0  0  0  0  0  0  0
  150.1601  144.2264  160.2102 C   0  0  0  0  0  0  0  0  0  0  0  0
  151.2615  145.1402  159.6544 C   0  0  0  0  0  0  0  0  0  0  0  0
  150.6007  142.7983  160.2843 C   0  0  0  0  0  0  0  0  0  0  0  0
  150.0646  141.8175  159.5511 N   0  0  0  0  0  0  0  0  0  0  0  0
  150.6551  140.5742  159.7966 C   0  0  0  0  0  0  0  0  0  0  0  0
  150.1780  139.3598  159.0598 C   0  0  0  0  0  0  0  0  0  0  0  0
  150.2993  138.0816  159.9059 C   0  0  0  0  0  0  0  0  0  0  0  0
  149.0137  137.4068  160.0441 N   0  0  0  0  0  0  0  0  0  0  0  0
  148.7289  136.1791  159.5768 C   0  0  0  0  0  0  0  0  0  0  0  0
  149.5533  135.5098  158.9519 O   0  0  0  0  0  0  0  0  0  0  0  0
  147.4638  135.7544  159.8256 N   0  0  0  0  0  0  0  0  0  0  0  0
  146.5323  136.3418  160.8031 C   0  0  0  0  0  0  0  0  0  0  0  0
  146.6051  135.5402  162.1135 C   0  0  0  0  0  0  0  0  0  0  0  0
  146.0766  133.8180  161.8533 S   0  0  0  0  0  0  0  0  0  0  0  0
  147.0988  133.4007  160.4060 C   0  0  0  0  0  0  0  0  0  0  0  0
  146.9688  134.4722  159.3102 C   0  0  0  0  0  0  0  0  0  0  0  0
  151.6554  140.6263  160.7348 C   0  0  0  0  0  0  0  0  0  0  0  0
  151.8910  142.2410  161.3445 S   0  0  0  0  0  0  0  0  0  0  0  0
  148.0434  143.7773  159.9450 H   0  0  0  0  0  0  0  0  0  0  0  0
  148.9016  144.0668  158.4337 H   0  0  0  0  0  0  0  0  0  0  0  0
  148.4846  145.4175  159.4837 H   0  0  0  0  0  0  0  0  0  0  0  0
  149.9844  144.5472  161.2377 H   0  0  0  0  0  0  0  0  0  0  0  0
  152.1700  145.0666  160.2530 H   0  0  0  0  0  0  0  0  0  0  0  0
  150.9462  146.1839  159.6594 H   0  0  0  0  0  0  0  0  0  0  0  0
  151.5162  144.8746  158.6280 H   0  0  0  0  0  0  0  0  0  0  0  0
  149.1403  139.5010  158.7550 H   0  0  0  0  0  0  0  0  0  0  0  0
  150.7454  139.2398  158.1359 H   0  0  0  0  0  0  0  0  0  0  0  0
  150.9959  137.3882  159.4341 H   0  0  0  0  0  0  0  0  0  0  0  0
  150.7097  138.3118  160.8905 H   0  0  0  0  0  0  0  0  0  0  0  0
  148.2867  137.9061  160.5354 H   0  0  0  0  0  0  0  0  0  0  0  0
  146.7270  137.3957  161.0011 H   0  0  0  0  0  0  0  0  0  0  0  0
  145.5157  136.3153  160.4084 H   0  0  0  0  0  0  0  0  0  0  0  0
  147.6214  135.5462  162.5094 H   0  0  0  0  0  0  0  0  0  0  0  0
  145.9639  135.9906  162.8714 H   0  0  0  0  0  0  0  0  0  0  0  0
  148.1383  133.3031  160.7211 H   0  0  0  0  0  0  0  0  0  0  0  0
  146.7873  132.4278  160.0257 H   0  0  0  0  0  0  0  0  0  0  0  0
  145.9280  134.5681  158.9979 H   0  0  0  0  0  0  0  0  0  0  0  0
  147.5095  134.1576  158.4163 H   0  0  0  0  0  0  0  0  0  0  0  0
  152.2662  139.8150  161.1026 H   0  0  0  0  0  0  0  0  0  0  0  0
  1  2  1  0  0  0  0
  1 20  1  0  0  0  0
  1 21  1  0  0  0  0
  1 22  1  0  0  0  0
  2  3  1  0  0  0  0
  2  4  1  0  0  0  0
  2 23  1  0  0  0  0
  3 24  1  0  0  0  0
  3 25  1  0  0  0  0
  3 26  1  0  0  0  0
  4 19  1  0  0  0  0
  4  5  2  0  0  0  0
  5  6  1  0  0  0  0
  6  7  1  0  0  0  0
  6 18  2  0  0  0  0
  7  8  1  0  0  0  0
  7 27  1  0  0  0  0
  7 28  1  0  0  0  0
  8  9  1  0  0  0  0
  8 29  1  0  0  0  0
  8 30  1  0  0  0  0
  9 10  1  0  0  0  0
  9 31  1  0  0  0  0
 10 11  2  0  0  0  0
 10 12  1  0  0  0  0
 12 17  1  0  0  0  0
 12 13  1  0  0  0  0
 13 14  1  0  0  0  0
 13 32  1  0  0  0  0
 13 33  1  0  0  0  0
 14 15  1  0  0  0  0
 14 34  1  0  0  0  0
 14 35  1  0  0  0  0
 15 16  1  0  0  0  0
 16 17  1  0  0  0  0
 16 36  1  0  0  0  0
 16 37  1  0  0  0  0
 17 38  1  0  0  0  0
 17 39  1  0  0  0  0
 18 19  1  0  0  0  0
 18 40  1  0  0  0  0
M  END
> <s_m_source_file>
AV-unprocessed.smi

> <i_m_source_file_index>
936

> <i_lp_mmshare_version>
43012

> <i_f3d_flags>
0

> <s_epik_input>
W0NIM11bQ0hdKFtDSDNdKWMxbmMoW2NIXXMxKVtDSDJdW0NIMl1bTkhdQyg9TylOMltDSDJdW0NIMl1TW0NIMl1bQ0gyXTI=

> <s_epik_cmdline>
J2VwaWtfcHl0aG9uJywgJy1waCcsICc3LjAnLCAnLXRuJywgJzgnLCAnLW1hJywgJzIwMCcsICctbWV0YWxfYmluZGluZycsICctaW1hZScsICc8aW5maWxlLm1hZT4nLCAnLW9tYWUnLCAnPG91dGZpbGUubWFlPic=

> <r_epik_Ionization_Penalty>
0.00156596

> <r_epik_Ionization_Penalty_Charging>
0

> <r_epik_Ionization_Penalty_Neutral>
0.00156596

> <r_epik_State_Penalty>
0.00101864

> <r_epik_Charging_Adjusted_Penalty>
0.00101864

> <i_epik_Tot_Q>
0

> <i_epik_Tot_abs_Q>
0

> <r_epik_Metal_State_Penalty>
-0

> <b_epik_Metal_Only>
0

> <s_lp_Force_Field>
OPLS_2005

> <r_lp_Energy>
11.6004

> <b_lp_Chiralities_Consistent>
1

> <s_lp_Variant>
AV-unprocessed.smi:936-1

> <Gold.Version>
5.8.1

> <Gold.Id.Protein>
6NUR|6NUR_protein|mol2

> <Gold.PLP.Fitness>
41.9261

> <Gold.PLP.PLP>
-40.8152

> <Gold.PLP.part.hbond>
-1.0000

> <Gold.PLP.part.metal>
0.0000

> <Gold.PLP.part.buried>
-5.0867

> <Gold.PLP.part.nonpolar>
-36.7224

> <Gold.PLP.part.repulsive>
1.3974

> <Gold.PLP.ligand.clash>
0.0000

> <Gold.PLP.ligand.torsion>
1.0008

> <Gold.PLP.Chemscore.Hbond>
1.0000

> <Gold.PLP.Chemscore.CHOScore>
0.0000

> <Gold.PLP.Chemscore.Metal>
0.0000

> <Gold.Chemscore.Hbonds>
donor molecule, donor type, donor heavy atom, donor atom, acceptor molecule, acceptor atom, score
      P1  H  6896  6909       L1    11  1.00

> <Gold.PLP.Chemscore.Internal.Correction>
0.1126

> <Gold.Rescore>
     Score         DG    S(hbond)    S(metal)    S(lipo)     H(rot)  DE(clash)    DE(int)     intcor
     16.28     -17.08       0.88        0.00     104.75       1.41       0.18       0.62       ----

> <Gold.Chemscore.Fitness>
16.2785

> <Gold.Chemscore.DG>
-17.0753

> <Gold.Chemscore.ZeroCoef>
-5.4800

> <Gold.Chemscore.Hbond>
0.8804

> <Gold.Chemscore.Metal>
0.0000

> <Gold.Chemscore.Lipo>
104.7535

> <Gold.Chemscore.Internal_Hbond>
0.0000

> <Gold.Chemscore.DEClash>
0.1804

> <Gold.Chemscore.DEInternal>
0.6163

> <Gold.Chemscore.Rot>
1.4068

> <Gold.Chemscore.Internal.Correction>
   9.000000E+99

> <Gold.Chemscore.Hbonds>
donor molecule, donor type, donor heavy atom, donor atom, acceptor molecule, acceptor atom, score
      P1  H  6896  6909       L1    11  0.97

> <Gold.Chemscore.Hbond.Weighted>
-2.9405

> <Gold.Chemscore.Metal.Weighted>
-0.0000

> <Gold.Chemscore.Lipo.Weighted>
-12.2562

> <Gold.Chemscore.Internal_Hbond.Weighted>
0.0000

> <Gold.Chemscore.DEClash.Weighted>
0.1804

> <Gold.Chemscore.DEInternal.Weighted>
0.6163

> <Gold.Chemscore.Rot.Weighted>
3.6014

> <Gold.Chemscore.Internal.Correction.Weighted>
   9.000000E+99

> <Gold.Protein.RotatedTorsions>
[ 6907 6896 6895 6894 ] final   49.07 input  -60.11 | X-H torsion
[ 7974 7965 7964 7962 ] final   -8.17 input  175.53 | X-H torsion
[ 8008 7997 7996 7995 ] final  171.90 input   59.86 | X-H torsion
[ 10167 10162 10161 10158 ] final -125.15 input  -65.29 | X-H torsion
[ 10718 10713 10712 10709 ] final   99.84 input   66.30 | X-H torsion
[ 10763 10752 10751 10750 ] final -170.64 input  -60.55 | X-H torsion
[ 11005 11000 10999 10996 ] final -149.82 input  -57.11 | X-H torsion

> <Gold.Protein.ActiveResidues>
 VAL166  LYS551  ARG553  GLY616  TRP617  ASP618  TYR619  PRO620  LYS621  CYS622 
 ASP623  PHE694  ASN695  SER759  ASP760  ASP761  ALA762  ILE779  LEU786  VAL792 
 PHE793  MET794  SER795  GLU796  ALA797  LYS798  CYS799  TRP800  GLU811  SER814 

> <Gold.Protein.RotatedAtoms>
  152.2867  134.7768  160.0385 H   0  0  0  0  0  0  0  0  0  0  0  0  # atno 6907 bound_to 6896
  151.8328  133.3406  159.3627 H   0  0  0  0  0  0  0  0  0  0  0  0  # atno 6908 bound_to 6896
  150.7212  134.5395  159.5784 H   0  0  0  0  0  0  0  0  0  0  0  0  # atno 6909 bound_to 6896
  146.2287  140.2428  142.8344 H   0  0  0  0  0  0  0  0  0  0  0  0  # atno 7974 bound_to 7965
  156.1227  140.1500  156.9181 H   0  0  0  0  0  0  0  0  0  0  0  0  # atno 8008 bound_to 7997
  154.4848  140.0868  156.7502 H   0  0  0  0  0  0  0  0  0  0  0  0  # atno 8009 bound_to 7997
  155.4399  140.3430  155.4291 H   0  0  0  0  0  0  0  0  0  0  0  0  # atno 8010 bound_to 7997
  139.9852  143.5699  152.2363 H   0  0  0  0  0  0  0  0  0  0  0  0  # atno 10167 bound_to 10162
  157.6867  131.0681  150.5010 H   0  0  0  0  0  0  0  0  0  0  0  0  # atno 10718 bound_to 10713
  154.6393  135.2896  155.0123 H   0  0  0  0  0  0  0  0  0  0  0  0  # atno 10763 bound_to 10752
  154.1256  135.6541  153.4915 H   0  0  0  0  0  0  0  0  0  0  0  0  # atno 10764 bound_to 10752
  153.0318  135.5298  154.7253 H   0  0  0  0  0  0  0  0  0  0  0  0  # atno 10765 bound_to 10752
  140.7467  134.3453  157.5135 H   0  0  0  0  0  0  0  0  0  0  0  0  # atno 11005 bound_to 11000
  144.9471  140.8140  143.5595 LP  0  0  0  0  0  0  0  0  0  0  0  0  # atno 17320 bound_to 7965
  145.2385  139.2083  143.5005 LP  0  0  0  0  0  0  0  0  0  0  0  0  # atno 17321 bound_to 7965
  139.6380  144.7652  151.2397 LP  0  0  0  0  0  0  0  0  0  0  0  0  # atno 17342 bound_to 10162
  140.7475  143.6365  150.8374 LP  0  0  0  0  0  0  0  0  0  0  0  0  # atno 17343 bound_to 10162
  156.5331  130.4190  149.6191 LP  0  0  0  0  0  0  0  0  0  0  0  0  # atno 17370 bound_to 10713
  156.3051  130.7198  151.2079 LP  0  0  0  0  0  0  0  0  0  0  0  0  # atno 17371 bound_to 10713
  139.8795  134.9116  156.3040 LP  0  0  0  0  0  0  0  0  0  0  0  0  # atno 17394 bound_to 11000
  140.9788  133.7281  156.0641 LP  0  0  0  0  0  0  0  0  0  0  0  0  # atno 17395 bound_to 11000

$$$$
