AV-unprocessed.smi:2795|AV-procd|sdf|10781|dock3
  -GOLD-   2272015213D 1   1.00000     0.00000
 Structure written by MMmdl.
 36 37  0  0  0  0  0  0  0  0  1 V2000
  150.6442  135.8875  155.8238 C   0  0  0  0  0  0  0  0  0  0  0  0
  150.7971  137.3214  155.6787 N   0  0  0  0  0  0  0  0  0  0  0  0
  150.7807  138.0189  154.5349 C   0  0  0  0  0  0  0  0  0  0  0  0
  150.9503  139.3250  154.6855 N   0  0  0  0  0  0  0  0  0  0  0  0
  151.0899  139.4830  156.0614 C   0  0  0  0  0  0  0  0  0  0  0  0
  150.9901  138.2589  156.6901 C   0  0  0  0  0  0  0  0  0  0  0  0
  151.0741  137.8831  158.1416 C   0  0  0  0  0  0  0  0  0  0  0  0
  152.4547  138.0653  158.7950 C   0  0  0  0  0  0  0  0  0  0  0  0
  152.6048  139.3967  159.3687 N   0  0  0  0  0  0  0  0  0  0  0  0
  153.7593  140.0759  159.4261 C   0  0  0  0  0  0  0  0  0  0  0  0
  154.8288  139.6121  159.0284 O   0  0  0  0  0  0  0  0  0  0  0  0
  153.6834  141.4839  160.0331 C   0  0  1  0  0  0  0  0  0  0  0  0
  152.5367  142.3369  159.4435 C   0  0  0  0  0  0  0  0  0  0  0  0
  152.4603  143.6971  160.1456 C   0  0  0  0  0  0  0  0  0  0  0  0
  152.3781  143.4926  161.6616 C   0  0  0  0  0  0  0  0  0  0  0  0
  153.5286  142.5939  162.1405 C   0  0  0  0  0  0  0  0  0  0  0  0
  153.4993  141.3527  161.4431 O   0  0  0  0  0  0  0  0  0  0  0  0
  150.5621  135.4145  154.8445 H   0  0  0  0  0  0  0  0  0  0  0  0
  149.7433  135.6703  156.3981 H   0  0  0  0  0  0  0  0  0  0  0  0
  151.5095  135.4754  156.3435 H   0  0  0  0  0  0  0  0  0  0  0  0
  150.6436  137.5587  153.5672 H   0  0  0  0  0  0  0  0  0  0  0  0
  151.2478  140.4616  156.4908 H   0  0  0  0  0  0  0  0  0  0  0  0
  150.3434  138.4663  158.7035 H   0  0  0  0  0  0  0  0  0  0  0  0
  150.7710  136.8416  158.2527 H   0  0  0  0  0  0  0  0  0  0  0  0
  152.5914  137.3175  159.5775 H   0  0  0  0  0  0  0  0  0  0  0  0
  153.2413  137.9006  158.0568 H   0  0  0  0  0  0  0  0  0  0  0  0
  151.7696  139.8464  159.7160 H   0  0  0  0  0  0  0  0  0  0  0  0
  154.6397  141.9741  159.8426 H   0  0  0  0  0  0  0  0  0  0  0  0
  152.6816  142.4861  158.3727 H   0  0  0  0  0  0  0  0  0  0  0  0
  151.5850  141.8161  159.5618 H   0  0  0  0  0  0  0  0  0  0  0  0
  153.3446  144.2870  159.9016 H   0  0  0  0  0  0  0  0  0  0  0  0
  151.5978  144.2615  159.7900 H   0  0  0  0  0  0  0  0  0  0  0  0
  152.4100  144.4538  162.1749 H   0  0  0  0  0  0  0  0  0  0  0  0
  151.4239  143.0311  161.9186 H   0  0  0  0  0  0  0  0  0  0  0  0
  154.4925  143.0829  161.9925 H   0  0  0  0  0  0  0  0  0  0  0  0
  153.4316  142.3988  163.2086 H   0  0  0  0  0  0  0  0  0  0  0  0
  1  2  1  0  0  0  0
  1 18  1  0  0  0  0
  1 19  1  0  0  0  0
  1 20  1  0  0  0  0
  2  6  1  0  0  0  0
  2  3  1  0  0  0  0
  3  4  2  0  0  0  0
  3 21  1  0  0  0  0
  4  5  1  0  0  0  0
  5  6  2  0  0  0  0
  5 22  1  0  0  0  0
  6  7  1  0  0  0  0
  7  8  1  0  0  0  0
  7 23  1  0  0  0  0
  7 24  1  0  0  0  0
  8  9  1  0  0  0  0
  8 25  1  0  0  0  0
  8 26  1  0  0  0  0
  9 10  1  0  0  0  0
  9 27  1  0  0  0  0
 10 11  2  0  0  0  0
 10 12  1  0  0  0  0
 12 17  1  0  0  0  0
 12 13  1  0  0  0  0
 12 28  1  0  0  0  0
 13 14  1  0  0  0  0
 13 29  1  0  0  0  0
 13 30  1  0  0  0  0
 14 15  1  0  0  0  0
 14 31  1  0  0  0  0
 14 32  1  0  0  0  0
 15 16  1  0  0  0  0
 15 33  1  0  0  0  0
 15 34  1  0  0  0  0
 16 17  1  0  0  0  0
 16 35  1  0  0  0  0
 16 36  1  0  0  0  0
M  END
> <s_m_source_file>
AV-unprocessed.smi

> <i_m_source_file_index>
2795

> <i_lp_mmshare_version>
43012

> <i_f3d_flags>
0

> <s_epik_input>
W0NIM11uMVtjSF1uW2NIXWMxW0NIMl1bQ0gyXVtOSF1DKD1PKVtDQEBIXTJbQ0gyXVtDSDJdW0NIMl1bQ0gyXU8y

> <s_epik_cmdline>
J2VwaWtfcHl0aG9uJywgJy1waCcsICc3LjAnLCAnLXRuJywgJzgnLCAnLW1hJywgJzIwMCcsICctbWV0YWxfYmluZGluZycsICctaW1hZScsICc8aW5maWxlLm1hZT4nLCAnLW9tYWUnLCAnPG91dGZpbGUubWFlPic=

> <r_lp_tautomer_probability>
1

> <r_epik_Ionization_Penalty>
0.870864

> <r_epik_Ionization_Penalty_Charging>
0.870864

> <r_epik_Ionization_Penalty_Neutral>
4.06047e-08

> <r_epik_State_Penalty>
0.90819

> <r_epik_Charging_Adjusted_Penalty>
1.77905

> <i_epik_Tot_Q>
0

> <i_epik_Tot_abs_Q>
0

> <r_epik_Metal_State_Penalty>
0.360563

> <b_epik_Metal_Only>
0

> <s_lp_Force_Field>
OPLS_2005

> <r_lp_Energy>
10.035

> <b_lp_Chiralities_Consistent>
1

> <s_lp_Variant>
AV-unprocessed.smi:2795-4

> <Gold.Version>
5.8.1

> <Gold.Id.Protein>
6NUR|6NUR_protein|mol2

> <Gold.PLP.Fitness>
42.3901

> <Gold.PLP.PLP>
-34.5310

> <Gold.PLP.part.hbond>
-2.0000

> <Gold.PLP.part.metal>
0.0000

> <Gold.PLP.part.buried>
-4.9961

> <Gold.PLP.part.nonpolar>
-26.8187

> <Gold.PLP.part.repulsive>
0.2287

> <Gold.PLP.ligand.clash>
0.0000

> <Gold.PLP.ligand.torsion>
0.7030

> <Gold.PLP.Chemscore.Hbond>
2.0000

> <Gold.PLP.Chemscore.CHOScore>
1.0790

> <Gold.PLP.Chemscore.Metal>
0.0000

> <Gold.Chemscore.Hbonds>
donor molecule, donor type, donor heavy atom, donor atom, acceptor molecule, acceptor atom, score
      P1  H  7989  7998       L1     4  0.93
      P1  H  7997  8008       L1    11  1.00
      L1  C     3    21       P1  7948  0.38
      L1  C     3    21       P1  7949  0.49

> <Gold.PLP.Chemscore.Internal.Correction>
0.0281

> <Gold.Rescore>
     Score         DG    S(hbond)    S(metal)    S(lipo)     H(rot)  DE(clash)    DE(int)     intcor
     16.63     -17.06       1.97        0.00      81.27       1.76       0.00       0.43       ----

> <Gold.Chemscore.Fitness>
16.6301

> <Gold.Chemscore.DG>
-17.0617

> <Gold.Chemscore.ZeroCoef>
-5.4800

> <Gold.Chemscore.Hbond>
1.9685

> <Gold.Chemscore.Metal>
0.0000

> <Gold.Chemscore.Lipo>
81.2704

> <Gold.Chemscore.Internal_Hbond>
0.0000

> <Gold.Chemscore.DEClash>
0.0038

> <Gold.Chemscore.DEInternal>
0.4278

> <Gold.Chemscore.Rot>
1.7585

> <Gold.Chemscore.Internal.Correction>
   9.000000E+99

> <Gold.Chemscore.Hbonds>
donor molecule, donor type, donor heavy atom, donor atom, acceptor molecule, acceptor atom, score
      P1  H  7989  7998       L1     4  0.84
      P1  H  7997  8008       L1    11  0.88

> <Gold.Chemscore.Hbond.Weighted>
-6.5748

> <Gold.Chemscore.Metal.Weighted>
-0.0000

> <Gold.Chemscore.Lipo.Weighted>
-9.5086

> <Gold.Chemscore.Internal_Hbond.Weighted>
0.0000

> <Gold.Chemscore.DEClash.Weighted>
0.0038

> <Gold.Chemscore.DEInternal.Weighted>
0.4278

> <Gold.Chemscore.Rot.Weighted>
4.5018

> <Gold.Chemscore.Internal.Correction.Weighted>
   9.000000E+99

> <Gold.Protein.RotatedTorsions>
[ 6907 6896 6895 6894 ] final  -87.74 input  -60.11 | X-H torsion
[ 7974 7965 7964 7962 ] final -175.91 input  175.53 | X-H torsion
[ 8008 7997 7996 7995 ] final -127.37 input   59.86 | X-H torsion
[ 10167 10162 10161 10158 ] final  110.34 input  -65.29 | X-H torsion
[ 10718 10713 10712 10709 ] final -172.45 input   66.30 | X-H torsion
[ 10763 10752 10751 10750 ] final   65.76 input  -60.55 | X-H torsion
[ 11005 11000 10999 10996 ] final   66.48 input  -57.11 | X-H torsion

> <Gold.Protein.ActiveResidues>
 VAL166  LYS551  ARG553  GLY616  TRP617  ASP618  TYR619  PRO620  LYS621  CYS622 
 ASP623  PHE694  ASN695  SER759  ASP760  ASP761  ALA762  ILE779  LEU786  VAL792 
 PHE793  MET794  SER795  GLU796  ALA797  LYS798  CYS799  TRP800  GLU811  SER814 

> <Gold.Protein.RotatedAtoms>
  150.6867  134.2850  159.4642 H   0  0  0  0  0  0  0  0  0  0  0  0  # atno 6907 bound_to 6896
  152.0760  134.9499  160.0583 H   0  0  0  0  0  0  0  0  0  0  0  0  # atno 6908 bound_to 6896
  152.0871  133.4147  159.4564 H   0  0  0  0  0  0  0  0  0  0  0  0  # atno 6909 bound_to 6896
  144.7127  140.1249  143.6402 H   0  0  0  0  0  0  0  0  0  0  0  0  # atno 7974 bound_to 7965
  155.2450  140.0430  157.2980 H   0  0  0  0  0  0  0  0  0  0  0  0  # atno 8008 bound_to 7997
  154.5804  140.2399  155.8031 H   0  0  0  0  0  0  0  0  0  0  0  0  # atno 8009 bound_to 7997
  156.2189  140.2976  155.9913 H   0  0  0  0  0  0  0  0  0  0  0  0  # atno 8010 bound_to 7997
  139.6696  144.7126  151.1712 H   0  0  0  0  0  0  0  0  0  0  0  0  # atno 10167 bound_to 10162
  156.7557  130.9395  151.3116 H   0  0  0  0  0  0  0  0  0  0  0  0  # atno 10718 bound_to 10713
  153.0110  135.5345  154.6717 H   0  0  0  0  0  0  0  0  0  0  0  0  # atno 10763 bound_to 10752
  154.5900  135.2858  155.0647 H   0  0  0  0  0  0  0  0  0  0  0  0  # atno 10764 bound_to 10752
  154.1744  135.6526  153.5070 H   0  0  0  0  0  0  0  0  0  0  0  0  # atno 10765 bound_to 10752
  139.9829  134.6715  156.0229 H   0  0  0  0  0  0  0  0  0  0  0  0  # atno 11005 bound_to 11000
  145.9338  139.2623  143.1309 LP  0  0  0  0  0  0  0  0  0  0  0  0  # atno 17320 bound_to 7965
  145.9495  140.8919  143.0266 LP  0  0  0  0  0  0  0  0  0  0  0  0  # atno 17321 bound_to 7965
  140.7613  143.5865  150.8841 LP  0  0  0  0  0  0  0  0  0  0  0  0  # atno 17342 bound_to 10162
  139.9529  143.6251  152.3024 LP  0  0  0  0  0  0  0  0  0  0  0  0  # atno 17343 bound_to 10162
  157.6757  130.9092  150.0145 LP  0  0  0  0  0  0  0  0  0  0  0  0  # atno 17370 bound_to 10713
  156.1372  130.3642  149.9639 LP  0  0  0  0  0  0  0  0  0  0  0  0  # atno 17371 bound_to 10713
  141.1498  133.6550  156.3979 LP  0  0  0  0  0  0  0  0  0  0  0  0  # atno 17394 bound_to 11000
  140.5060  134.6440  157.5266 LP  0  0  0  0  0  0  0  0  0  0  0  0  # atno 17395 bound_to 11000

$$$$
