AV-unprocessed.smi:1855|AV-procd|sdf|7531|dock5
  -GOLD-   22720 9243D 1   1.00000     0.00000
 Structure written by MMmdl.
 43 45  0  0  0  0  0  0  0  0  1 V2000
  144.8473  143.0359  158.3916 C   0  0  0  0  0  0  0  0  0  0  0  0
  145.9403  142.2922  157.8747 O   0  0  0  0  0  0  0  0  0  0  0  0
  146.2037  142.3665  156.5222 C   0  0  0  0  0  0  0  0  0  0  0  0
  145.4551  143.1594  155.6159 C   0  0  0  0  0  0  0  0  0  0  0  0
  145.7845  143.1826  154.2482 C   0  0  0  0  0  0  0  0  0  0  0  0
  146.8619  142.4163  153.7714 C   0  0  0  0  0  0  0  0  0  0  0  0
  147.6108  141.6256  154.6616 C   0  0  0  0  0  0  0  0  0  0  0  0
  147.2866  141.5956  156.0410 C   0  0  0  0  0  0  0  0  0  0  0  0
  147.9738  140.8483  156.9722 O   0  0  0  0  0  0  0  0  0  0  0  0
  149.1959  140.2312  156.5943 C   0  0  0  0  0  0  0  0  0  0  0  0
  150.2461  141.3261  156.3585 C   0  0  0  0  0  0  0  0  0  0  0  0
  151.3211  141.2714  157.3403 N   0  0  0  0  0  0  0  0  0  0  0  0
  152.2018  140.2642  157.5681 C   0  0  0  0  0  0  0  0  0  0  0  0
  152.1860  138.9894  156.7757 C   0  0  0  0  0  0  0  0  0  0  0  0
  152.4771  139.2874  155.3768 N   0  0  0  0  0  0  0  0  0  0  0  0
  152.3049  138.4376  154.3541 C   0  0  0  0  0  0  0  0  0  0  0  0
  151.8682  137.2933  154.4646 O   0  0  0  0  0  0  0  0  0  0  0  0
  153.0835  140.4748  158.5461 N   0  0  0  0  0  0  0  0  0  0  0  0
  152.7438  141.7354  158.9961 C   0  0  0  0  0  0  0  0  0  0  0  0
  153.3038  142.5236  160.0269 C   0  0  0  0  0  0  0  0  0  0  0  0
  152.7750  143.7982  160.3182 C   0  0  0  0  0  0  0  0  0  0  0  0
  151.6827  144.3025  159.5834 C   0  0  0  0  0  0  0  0  0  0  0  0
  151.1141  143.5358  158.5484 C   0  0  0  0  0  0  0  0  0  0  0  0
  151.6439  142.2630  158.2628 C   0  0  0  0  0  0  0  0  0  0  0  0
  144.7726  142.8620  159.4649 H   0  0  0  0  0  0  0  0  0  0  0  0
  143.9041  142.7247  157.9412 H   0  0  0  0  0  0  0  0  0  0  0  0
  144.9864  144.1070  158.2396 H   0  0  0  0  0  0  0  0  0  0  0  0
  144.6219  143.7608  155.9460 H   0  0  0  0  0  0  0  0  0  0  0  0
  145.2100  143.7901  153.5646 H   0  0  0  0  0  0  0  0  0  0  0  0
  147.1155  142.4349  152.7217 H   0  0  0  0  0  0  0  0  0  0  0  0
  148.4327  141.0516  154.2620 H   0  0  0  0  0  0  0  0  0  0  0  0
  149.5392  139.5541  157.3778 H   0  0  0  0  0  0  0  0  0  0  0  0
  149.0585  139.6515  155.6806 H   0  0  0  0  0  0  0  0  0  0  0  0
  150.6606  141.2452  155.3542 H   0  0  0  0  0  0  0  0  0  0  0  0
  149.7776  142.3091  156.4148 H   0  0  0  0  0  0  0  0  0  0  0  0
  152.9142  138.2871  157.1855 H   0  0  0  0  0  0  0  0  0  0  0  0
  151.2094  138.5120  156.8546 H   0  0  0  0  0  0  0  0  0  0  0  0
  152.8442  140.2056  155.1733 H   0  0  0  0  0  0  0  0  0  0  0  0
  152.6070  138.9031  153.4033 H   0  0  0  0  0  0  0  0  0  0  0  0
  154.1393  142.1447  160.5968 H   0  0  0  0  0  0  0  0  0  0  0  0
  153.2085  144.3907  161.1103 H   0  0  0  0  0  0  0  0  0  0  0  0
  151.2800  145.2776  159.8154 H   0  0  0  0  0  0  0  0  0  0  0  0
  150.2739  143.9173  157.9875 H   0  0  0  0  0  0  0  0  0  0  0  0
  1  2  1  0  0  0  0
  1 25  1  0  0  0  0
  1 26  1  0  0  0  0
  1 27  1  0  0  0  0
  2  3  1  0  0  0  0
  3  8  1  0  0  0  0
  3  4  2  0  0  0  0
  4  5  1  0  0  0  0
  4 28  1  0  0  0  0
  5  6  2  0  0  0  0
  5 29  1  0  0  0  0
  6  7  1  0  0  0  0
  6 30  1  0  0  0  0
  7  8  2  0  0  0  0
  7 31  1  0  0  0  0
  8  9  1  0  0  0  0
  9 10  1  0  0  0  0
 10 11  1  0  0  0  0
 10 32  1  0  0  0  0
 10 33  1  0  0  0  0
 11 12  1  0  0  0  0
 11 34  1  0  0  0  0
 11 35  1  0  0  0  0
 12 24  1  0  0  0  0
 12 13  1  0  0  0  0
 13 14  1  0  0  0  0
 13 18  2  0  0  0  0
 14 15  1  0  0  0  0
 14 36  1  0  0  0  0
 14 37  1  0  0  0  0
 15 16  1  0  0  0  0
 15 38  1  0  0  0  0
 16 17  2  0  0  0  0
 16 39  1  0  0  0  0
 18 19  1  0  0  0  0
 19 24  2  0  0  0  0
 19 20  1  0  0  0  0
 20 21  2  0  0  0  0
 20 40  1  0  0  0  0
 21 22  1  0  0  0  0
 21 41  1  0  0  0  0
 22 23  2  0  0  0  0
 22 42  1  0  0  0  0
 23 24  1  0  0  0  0
 23 43  1  0  0  0  0
M  END
> <s_m_source_file>
AV-unprocessed.smi

> <i_m_source_file_index>
1855

> <i_lp_mmshare_version>
43012

> <i_f3d_flags>
0

> <s_epik_input>
W0NIM11PYzFbY0hdW2NIXVtjSF1bY0hdYzFPW0NIMl1bQ0gyXW4oYyhuMilbQ0gyXVtOSF1bQ0hdPU8pYyhjMjMpW2NIXVtjSF1bY0hdW2NIXTM=

> <s_epik_cmdline>
J2VwaWtfcHl0aG9uJywgJy1waCcsICc3LjAnLCAnLXRuJywgJzgnLCAnLW1hJywgJzIwMCcsICctbWV0YWxfYmluZGluZycsICctaW1hZScsICc8aW5maWxlLm1hZT4nLCAnLW9tYWUnLCAnPG91dGZpbGUubWFlPic=

> <r_lp_tautomer_probability>
1

> <r_epik_Ionization_Penalty>
0.0587233

> <r_epik_Ionization_Penalty_Charging>
0

> <r_epik_Ionization_Penalty_Neutral>
0.0587233

> <r_epik_State_Penalty>
0.0508012

> <r_epik_Charging_Adjusted_Penalty>
0.0508012

> <i_epik_Tot_Q>
0

> <i_epik_Tot_abs_Q>
0

> <r_epik_Metal_State_Penalty>
0.0461886

> <b_epik_Metal_Only>
0

> <s_lp_Force_Field>
OPLS_2005

> <r_lp_Energy>
14.9723

> <b_lp_Chiralities_Consistent>
1

> <s_lp_Variant>
AV-unprocessed.smi:1855-1

> <Gold.Version>
5.8.1

> <Gold.Id.Protein>
6NUR|6NUR_protein|mol2

> <Gold.PLP.Fitness>
47.2598

> <Gold.PLP.PLP>
-44.5236

> <Gold.PLP.part.hbond>
-1.9781

> <Gold.PLP.part.metal>
0.0000

> <Gold.PLP.part.buried>
-7.9278

> <Gold.PLP.part.nonpolar>
-34.2722

> <Gold.PLP.part.repulsive>
0.4762

> <Gold.PLP.ligand.clash>
0.0000

> <Gold.PLP.ligand.torsion>
0.5700

> <Gold.PLP.Chemscore.Hbond>
1.2358

> <Gold.PLP.Chemscore.CHOScore>
0.0000

> <Gold.PLP.Chemscore.Metal>
0.0000

> <Gold.Chemscore.Hbonds>
donor molecule, donor type, donor heavy atom, donor atom, acceptor molecule, acceptor atom, score
      P1  H  7997  8008       L1    18  0.24
      P1  H 10752 10765       L1    17  0.99

> <Gold.PLP.Chemscore.Internal.Correction>
0.1690

> <Gold.Rescore>
     Score         DG    S(hbond)    S(metal)    S(lipo)     H(rot)  DE(clash)    DE(int)     intcor
     13.85     -14.51       1.00        0.00     108.62       2.74       0.05       0.60       ----

> <Gold.Chemscore.Fitness>
13.8532

> <Gold.Chemscore.DG>
-14.5089

> <Gold.Chemscore.ZeroCoef>
-5.4800

> <Gold.Chemscore.Hbond>
0.9971

> <Gold.Chemscore.Metal>
0.0000

> <Gold.Chemscore.Lipo>
108.6212

> <Gold.Chemscore.Internal_Hbond>
0.0000

> <Gold.Chemscore.DEClash>
0.0511

> <Gold.Chemscore.DEInternal>
0.6046

> <Gold.Chemscore.Rot>
2.7383

> <Gold.Chemscore.Internal.Correction>
   9.000000E+99

> <Gold.Chemscore.Hbonds>
donor molecule, donor type, donor heavy atom, donor atom, acceptor molecule, acceptor atom, score
      P1  H  7997  8008       L1    18  0.02
      P1  H 10752 10765       L1    17  0.93

> <Gold.Chemscore.Hbond.Weighted>
-3.3304

> <Gold.Chemscore.Metal.Weighted>
-0.0000

> <Gold.Chemscore.Lipo.Weighted>
-12.7087

> <Gold.Chemscore.Internal_Hbond.Weighted>
0.0000

> <Gold.Chemscore.DEClash.Weighted>
0.0511

> <Gold.Chemscore.DEInternal.Weighted>
0.6046

> <Gold.Chemscore.Rot.Weighted>
7.0102

> <Gold.Chemscore.Internal.Correction.Weighted>
   9.000000E+99

> <Gold.Protein.RotatedTorsions>
[ 6907 6896 6895 6894 ] final   93.68 input  -60.11 | X-H torsion
[ 7974 7965 7964 7962 ] final  -37.04 input  175.53 | X-H torsion
[ 8008 7997 7996 7995 ] final -103.25 input   59.86 | X-H torsion
[ 10167 10162 10161 10158 ] final -151.69 input  -65.29 | X-H torsion
[ 10718 10713 10712 10709 ] final   84.37 input   66.30 | X-H torsion
[ 10763 10752 10751 10750 ] final  166.69 input  -60.55 | X-H torsion
[ 11005 11000 10999 10996 ] final -169.47 input  -57.11 | X-H torsion

> <Gold.Protein.ActiveResidues>
 VAL166  LYS551  ARG553  GLY616  TRP617  ASP618  TYR619  PRO620  LYS621  CYS622 
 ASP623  PHE694  ASN695  SER759  ASP760  ASP761  ALA762  ILE779  LEU786  VAL792 
 PHE793  MET794  SER795  GLU796  ALA797  LYS798  CYS799  TRP800  GLU811  SER814 

> <Gold.Protein.RotatedAtoms>
  152.5452  134.1310  159.8438 H   0  0  0  0  0  0  0  0  0  0  0  0  # atno 6907 bound_to 6896
  151.1356  133.4999  159.2605 H   0  0  0  0  0  0  0  0  0  0  0  0  # atno 6908 bound_to 6896
  151.1628  135.0291  159.8772 H   0  0  0  0  0  0  0  0  0  0  0  0  # atno 6909 bound_to 6896
  146.0610  140.6349  142.8997 H   0  0  0  0  0  0  0  0  0  0  0  0  # atno 7974 bound_to 7965
  154.8682  140.0424  157.1708 H   0  0  0  0  0  0  0  0  0  0  0  0  # atno 8008 bound_to 7997
  154.8767  140.2966  155.5428 H   0  0  0  0  0  0  0  0  0  0  0  0  # atno 8009 bound_to 7997
  156.2999  140.2419  156.3764 H   0  0  0  0  0  0  0  0  0  0  0  0  # atno 8010 bound_to 7997
  139.7245  143.8904  152.2515 H   0  0  0  0  0  0  0  0  0  0  0  0  # atno 10167 bound_to 10162
  157.6897  131.0130  150.2663 H   0  0  0  0  0  0  0  0  0  0  0  0  # atno 10718 bound_to 10713
  154.3428  135.2754  155.2414 H   0  0  0  0  0  0  0  0  0  0  0  0  # atno 10763 bound_to 10752
  154.4677  135.5891  153.6303 H   0  0  0  0  0  0  0  0  0  0  0  0  # atno 10764 bound_to 10752
  152.9856  135.6080  154.3630 H   0  0  0  0  0  0  0  0  0  0  0  0  # atno 10765 bound_to 10752
  140.5303  134.5622  157.5073 H   0  0  0  0  0  0  0  0  0  0  0  0  # atno 11005 bound_to 11000
  144.7175  140.4259  143.7033 LP  0  0  0  0  0  0  0  0  0  0  0  0  # atno 17320 bound_to 7965
  145.6561  139.1573  143.2835 LP  0  0  0  0  0  0  0  0  0  0  0  0  # atno 17321 bound_to 7965
  139.8810  144.7018  150.8878 LP  0  0  0  0  0  0  0  0  0  0  0  0  # atno 17342 bound_to 10162
  140.7760  143.3661  151.1736 LP  0  0  0  0  0  0  0  0  0  0  0  0  # atno 17343 bound_to 10162
  156.3234  130.3789  149.7555 LP  0  0  0  0  0  0  0  0  0  0  0  0  # atno 17370 bound_to 10713
  156.5118  130.8175  151.3171 LP  0  0  0  0  0  0  0  0  0  0  0  0  # atno 17371 bound_to 10713
  139.9557  134.7538  156.0346 LP  0  0  0  0  0  0  0  0  0  0  0  0  # atno 17394 bound_to 11000
  141.1285  133.6593  156.3400 LP  0  0  0  0  0  0  0  0  0  0  0  0  # atno 17395 bound_to 11000

$$$$
