AV-unprocessed.smi:1834|AV-procd|sdf|7471|dock3
  -GOLD-   22720 9163D 1   1.00000     0.00000
 Structure written by MMmdl.
 46 47  0  0  0  0  0  0  0  0  2 V2000
  142.8700  140.6110  156.1243 C   0  0  0  0  0  0  0  0  0  0  0  0
  144.0718  141.4912  155.7526 C   0  0  0  0  0  0  0  0  0  0  0  0
  145.0661  140.7794  154.9090 N   0  3  1  0  0  0  0  0  0  0  0  0
  146.1685  141.6763  154.4737 C   0  0  0  0  0  0  0  0  0  0  0  0
  147.1300  140.9625  153.5094 C   0  0  0  0  0  0  0  0  0  0  0  0
  147.6707  139.6625  154.1237 C   0  0  0  0  0  0  0  0  0  0  0  0
  146.5236  138.7518  154.6000 C   0  0  2  0  0  0  0  0  0  0  0  0
  145.7979  138.0697  153.4150 C   0  0  0  0  0  0  0  0  0  0  0  0
  146.4873  136.8699  152.9481 N   0  0  0  0  0  0  0  0  0  0  0  0
  145.9500  135.6422  152.8995 C   0  0  0  0  0  0  0  0  0  0  0  0
  144.7924  135.3985  153.2405 O   0  0  0  0  0  0  0  0  0  0  0  0
  146.8356  134.7383  152.4465 N   0  0  0  0  0  0  0  0  0  0  0  0
  146.6858  133.3921  152.3285 C   0  0  0  0  0  0  0  0  0  0  0  0
  145.6669  132.6881  151.7470 C   0  0  0  0  0  0  0  0  0  0  0  0
  146.0667  131.3348  151.9477 C   0  0  0  0  0  0  0  0  0  0  0  0
  145.3504  130.0868  151.5230 C   0  0  0  0  0  0  0  0  0  0  0  0
  147.2213  131.2325  152.5962 N   0  0  0  0  0  0  0  0  0  0  0  0
  147.6076  132.5041  152.8363 N   0  0  0  0  0  0  0  0  0  0  0  0
  148.8469  132.7658  153.5423 C   0  0  0  0  0  0  0  0  0  0  0  0
  145.5939  139.5443  155.5497 C   0  0  0  0  0  0  0  0  0  0  0  0
  142.1476  141.1790  156.7107 H   0  0  0  0  0  0  0  0  0  0  0  0
  143.1585  139.7449  156.7190 H   0  0  0  0  0  0  0  0  0  0  0  0
  142.3555  140.2524  155.2329 H   0  0  0  0  0  0  0  0  0  0  0  0
  143.6889  142.3556  155.2084 H   0  0  0  0  0  0  0  0  0  0  0  0
  144.5543  141.8823  156.6493 H   0  0  0  0  0  0  0  0  0  0  0  0
  145.7558  142.5558  153.9780 H   0  0  0  0  0  0  0  0  0  0  0  0
  146.7133  142.0326  155.3495 H   0  0  0  0  0  0  0  0  0  0  0  0
  146.6190  140.7507  152.5698 H   0  0  0  0  0  0  0  0  0  0  0  0
  147.9596  141.6243  153.2585 H   0  0  0  0  0  0  0  0  0  0  0  0
  148.3050  139.1396  153.4071 H   0  0  0  0  0  0  0  0  0  0  0  0
  148.3101  139.9092  154.9725 H   0  0  0  0  0  0  0  0  0  0  0  0
  146.9740  137.9506  155.1877 H   0  0  0  0  0  0  0  0  0  0  0  0
  144.7622  137.8422  153.6698 H   0  0  0  0  0  0  0  0  0  0  0  0
  145.7498  138.7617  152.5736 H   0  0  0  0  0  0  0  0  0  0  0  0
  147.4431  136.9840  152.6427 H   0  0  0  0  0  0  0  0  0  0  0  0
  147.7381  135.0959  152.1699 H   0  0  0  0  0  0  0  0  0  0  0  0
  144.7779  133.0559  151.2578 H   0  0  0  0  0  0  0  0  0  0  0  0
  144.4011  130.3217  151.0413 H   0  0  0  0  0  0  0  0  0  0  0  0
  145.1379  129.4447  152.3783 H   0  0  0  0  0  0  0  0  0  0  0  0
  145.9482  129.5132  150.8145 H   0  0  0  0  0  0  0  0  0  0  0  0
  148.6411  133.3515  154.4387 H   0  0  0  0  0  0  0  0  0  0  0  0
  149.5244  133.3261  152.8973 H   0  0  0  0  0  0  0  0  0  0  0  0
  149.3281  131.8312  153.8340 H   0  0  0  0  0  0  0  0  0  0  0  0
  146.1491  139.8263  156.4458 H   0  0  0  0  0  0  0  0  0  0  0  0
  144.7802  138.9099  155.8963 H   0  0  0  0  0  0  0  0  0  0  0  0
  144.5800  140.4947  154.0702 H   0  0  0  0  0  0  0  0  0  0  0  0
  1  2  1  0  0  0  0
  1 21  1  0  0  0  0
  1 22  1  0  0  0  0
  1 23  1  0  0  0  0
  2  3  1  0  0  0  0
  2 24  1  0  0  0  0
  2 25  1  0  0  0  0
  3 20  1  0  0  0  0
  3  4  1  0  0  0  0
  3 46  1  0  0  0  0
  4  5  1  0  0  0  0
  4 26  1  0  0  0  0
  4 27  1  0  0  0  0
  5  6  1  0  0  0  0
  5 28  1  0  0  0  0
  5 29  1  0  0  0  0
  6  7  1  0  0  0  0
  6 30  1  0  0  0  0
  6 31  1  0  0  0  0
  7  8  1  0  0  0  0
  7 20  1  0  0  0  0
  7 32  1  0  0  0  0
  8  9  1  0  0  0  0
  8 33  1  0  0  0  0
  8 34  1  0  0  0  0
  9 10  1  0  0  0  0
  9 35  1  0  0  0  0
 10 11  2  0  0  0  0
 10 12  1  0  0  0  0
 12 13  1  0  0  0  0
 12 36  1  0  0  0  0
 13 18  1  0  0  0  0
 13 14  2  0  0  0  0
 14 15  1  0  0  0  0
 14 37  1  0  0  0  0
 15 16  1  0  0  0  0
 15 17  2  0  0  0  0
 16 38  1  0  0  0  0
 16 39  1  0  0  0  0
 16 40  1  0  0  0  0
 17 18  1  0  0  0  0
 18 19  1  0  0  0  0
 19 41  1  0  0  0  0
 19 42  1  0  0  0  0
 19 43  1  0  0  0  0
 20 44  1  0  0  0  0
 20 45  1  0  0  0  0
M  CHG  1   3   1
M  END
> <s_m_source_file>
AV-unprocessed.smi

> <i_m_source_file_index>
1834

> <i_lp_mmshare_version>
43012

> <i_f3d_flags>
0

> <s_epik_input>
W0NIM11bQ0gyXU4xW0NIMl1bQ0gyXVtDSDJdW0NASF0oW0NIMl0xKVtDSDJdW05IXUMoPU8pW05IXWMyW2NIXWMoW0NIM10pbm4yW0NIM10=

> <s_epik_cmdline>
J2VwaWtfcHl0aG9uJywgJy1waCcsICc3LjAnLCAnLXRuJywgJzgnLCAnLW1hJywgJzIwMCcsICctbWV0YWxfYmluZGluZycsICctaW1hZScsICc8aW5maWxlLm1hZT4nLCAnLW9tYWUnLCAnPG91dGZpbGUubWFlPic=

> <r_lp_tautomer_probability>
1

> <r_epik_Ionization_Penalty>
0.000466842

> <r_epik_Ionization_Penalty_Charging>
0.000378984

> <r_epik_Ionization_Penalty_Neutral>
8.78572e-05

> <r_epik_State_Penalty>
0.000231434

> <r_epik_Charging_Adjusted_Penalty>
0.000610418

> <i_epik_Tot_Q>
1

> <i_epik_Tot_abs_Q>
1

> <r_epik_Metal_State_Penalty>
-0

> <b_epik_Metal_Only>
0

> <s_lp_Force_Field>
OPLS_2005

> <r_lp_Energy>
21.0152

> <b_lp_Chiralities_Consistent>
1

> <s_lp_Variant>
AV-unprocessed.smi:1834-3

> <Gold.Version>
5.8.1

> <Gold.Id.Protein>
6NUR|6NUR_protein|mol2

> <Gold.PLP.Fitness>
38.2109

> <Gold.PLP.PLP>
-27.6830

> <Gold.PLP.part.hbond>
-3.0000

> <Gold.PLP.part.metal>
0.0000

> <Gold.PLP.part.buried>
-4.7266

> <Gold.PLP.part.nonpolar>
-21.8514

> <Gold.PLP.part.repulsive>
0.8391

> <Gold.PLP.ligand.clash>
0.0000

> <Gold.PLP.ligand.torsion>
0.7390

> <Gold.PLP.Chemscore.Hbond>
3.9920

> <Gold.PLP.Chemscore.CHOScore>
0.0000

> <Gold.PLP.Chemscore.Metal>
0.0000

> <Gold.Chemscore.Hbonds>
donor molecule, donor type, donor heavy atom, donor atom, acceptor molecule, acceptor atom, score
      L1  H     3    46       P1 10175  2.00
      L1  H     9    35       P1  7948  0.96
      L1  H    12    36       P1  7948  1.00

> <Gold.PLP.Chemscore.Internal.Correction>
0.0299

> <Gold.Rescore>
     Score         DG    S(hbond)    S(metal)    S(lipo)     H(rot)  DE(clash)    DE(int)     intcor
     17.63     -18.41       2.86        0.00      60.11       1.43       0.05       0.73       ----

> <Gold.Chemscore.Fitness>
17.6317

> <Gold.Chemscore.DG>
-18.4090

> <Gold.Chemscore.ZeroCoef>
-5.4800

> <Gold.Chemscore.Hbond>
2.8608

> <Gold.Chemscore.Metal>
0.0000

> <Gold.Chemscore.Lipo>
60.1058

> <Gold.Chemscore.Internal_Hbond>
0.0000

> <Gold.Chemscore.DEClash>
0.0508

> <Gold.Chemscore.DEInternal>
0.7265

> <Gold.Chemscore.Rot>
1.4291

> <Gold.Chemscore.Internal.Correction>
   9.000000E+99

> <Gold.Chemscore.Hbonds>
donor molecule, donor type, donor heavy atom, donor atom, acceptor molecule, acceptor atom, score
      L1  H     3    46       P1 10175  1.00
      L1  H     9    35       P1  7948  0.92
      L1  H    12    36       P1  7948  0.92

> <Gold.Chemscore.Hbond.Weighted>
-9.5550

> <Gold.Chemscore.Metal.Weighted>
-0.0000

> <Gold.Chemscore.Lipo.Weighted>
-7.0324

> <Gold.Chemscore.Internal_Hbond.Weighted>
0.0000

> <Gold.Chemscore.DEClash.Weighted>
0.0508

> <Gold.Chemscore.DEInternal.Weighted>
0.7265

> <Gold.Chemscore.Rot.Weighted>
3.6584

> <Gold.Chemscore.Internal.Correction.Weighted>
   9.000000E+99

> <Gold.Protein.RotatedTorsions>
[ 6907 6896 6895 6894 ] final -115.82 input  -60.11 | X-H torsion
[ 7974 7965 7964 7962 ] final -132.60 input  175.53 | X-H torsion
[ 8008 7997 7996 7995 ] final   30.90 input   59.86 | X-H torsion
[ 10167 10162 10161 10158 ] final  121.63 input  -65.29 | X-H torsion
[ 10718 10713 10712 10709 ] final  -84.43 input   66.30 | X-H torsion
[ 10763 10752 10751 10750 ] final  132.92 input  -60.55 | X-H torsion
[ 11005 11000 10999 10996 ] final  174.46 input  -57.11 | X-H torsion

> <Gold.Protein.ActiveResidues>
 VAL166  LYS551  ARG553  GLY616  TRP617  ASP618  TYR619  PRO620  LYS621  CYS622 
 ASP623  PHE694  ASN695  SER759  ASP760  ASP761  ALA762  ILE779  LEU786  VAL792 
 PHE793  MET794  SER795  GLU796  ALA797  LYS798  CYS799  TRP800  GLU811  SER814 

> <Gold.Protein.RotatedAtoms>
  150.8007  133.8604  159.3230 H   0  0  0  0  0  0  0  0  0  0  0  0  # atno 6907 bound_to 6896
  151.6417  135.1010  160.0152 H   0  0  0  0  0  0  0  0  0  0  0  0  # atno 6908 bound_to 6896
  152.4094  133.6900  159.6420 H   0  0  0  0  0  0  0  0  0  0  0  0  # atno 6909 bound_to 6896
  144.9270  140.7084  143.4929 H   0  0  0  0  0  0  0  0  0  0  0  0  # atno 7974 bound_to 7965
  155.0978  140.3226  155.4555 H   0  0  0  0  0  0  0  0  0  0  0  0  # atno 8008 bound_to 7997
  156.2725  140.2066  156.6052 H   0  0  0  0  0  0  0  0  0  0  0  0  # atno 8009 bound_to 7997
  154.6852  140.0522  157.0294 H   0  0  0  0  0  0  0  0  0  0  0  0  # atno 8010 bound_to 7997
  139.5908  144.7024  151.3295 H   0  0  0  0  0  0  0  0  0  0  0  0  # atno 10167 bound_to 10162
  156.0006  130.4697  150.4408 H   0  0  0  0  0  0  0  0  0  0  0  0  # atno 10718 bound_to 10713
  153.7986  135.3145  155.3387 H   0  0  0  0  0  0  0  0  0  0  0  0  # atno 10763 bound_to 10752
  154.8098  135.4675  154.0488 H   0  0  0  0  0  0  0  0  0  0  0  0  # atno 10764 bound_to 10752
  153.1829  135.6896  153.8541 H   0  0  0  0  0  0  0  0  0  0  0  0  # atno 10765 bound_to 10752
  140.3516  134.7190  157.4271 H   0  0  0  0  0  0  0  0  0  0  0  0  # atno 11005 bound_to 11000
  145.3202  139.1790  143.4592 LP  0  0  0  0  0  0  0  0  0  0  0  0  # atno 17320 bound_to 7965
  146.3230  140.3219  142.8634 LP  0  0  0  0  0  0  0  0  0  0  0  0  # atno 17321 bound_to 7965
  140.7171  143.7237  150.7676 LP  0  0  0  0  0  0  0  0  0  0  0  0  # atno 17342 bound_to 10162
  140.0792  143.4985  152.2539 LP  0  0  0  0  0  0  0  0  0  0  0  0  # atno 17343 bound_to 10162
  157.2449  131.0533  151.2414 LP  0  0  0  0  0  0  0  0  0  0  0  0  # atno 17370 bound_to 10713
  157.3584  130.7118  149.6486 LP  0  0  0  0  0  0  0  0  0  0  0  0  # atno 17371 bound_to 10713
  140.0699  134.5878  155.8654 LP  0  0  0  0  0  0  0  0  0  0  0  0  # atno 17394 bound_to 11000
  141.2010  133.6616  156.5929 LP  0  0  0  0  0  0  0  0  0  0  0  0  # atno 17395 bound_to 11000

$$$$
