AV-unprocessed.smi:1512|AV-procd|sdf|6106|dock10
  -GOLD-   22720 6243D 1   1.00000     0.00000
 Structure written by MMmdl.
 44 46  0  0  0  0  0  0  0  0  3 V2000
  149.3780  141.3642  157.1158 C   0  0  0  0  0  0  0  0  0  0  0  0
  150.8298  141.2901  157.6185 C   0  0  2  0  0  0  0  0  0  0  0  0
  151.0350  139.9724  158.2195 N   0  0  0  0  0  0  0  0  0  0  0  0
  151.8657  139.0186  157.7710 C   0  0  0  0  0  0  0  0  0  0  0  0
  152.5923  139.1582  156.7865 O   0  0  0  0  0  0  0  0  0  0  0  0
  151.8840  137.7142  158.5810 C   0  0  0  0  0  0  0  0  0  0  0  0
  153.2081  137.3939  159.1419 N   0  0  0  0  0  0  0  0  0  0  0  0
  153.5889  138.0827  160.3087 C   0  0  0  0  0  0  0  0  0  0  0  0
  154.7725  137.8717  160.9017 C   0  0  0  0  0  0  0  0  0  0  0  0
  155.6721  136.9128  160.3085 C   0  0  0  0  0  0  0  0  0  0  0  0
  155.3301  136.2415  159.1846 C   0  0  0  0  0  0  0  0  0  0  0  0
  156.2837  135.3050  158.6353 N   0  3  0  0  0  0  0  0  0  0  0  0
  155.9891  134.6880  157.6164 O   0  0  0  0  0  0  0  0  0  0  0  0
  157.3642  135.1692  159.2016 O   0  5  0  0  0  0  0  0  0  0  0  0
  154.0181  136.4662  158.5427 C   0  0  0  0  0  0  0  0  0  0  0  0
  153.6542  135.8587  157.5337 O   0  0  0  0  0  0  0  0  0  0  0  0
  151.1699  142.3950  158.6506 C   0  0  1  0  0  0  0  0  0  0  0  0
  152.6704  142.4472  159.0365 C   0  0  0  0  0  0  0  0  0  0  0  0
  153.0537  143.9154  158.7834 C   0  0  2  0  0  0  0  0  0  0  0  0
  152.3671  144.8157  159.8260 C   0  0  0  0  0  0  0  0  0  0  0  0
  150.8945  144.7888  159.3764 C   0  0  0  0  0  0  0  0  0  0  0  0
  150.9270  143.8449  158.1586 C   0  0  1  0  0  0  0  0  0  0  0  0
  152.2602  144.2229  157.5212 C   0  0  0  0  0  0  0  0  0  0  0  0
  149.1831  142.2853  156.5682 H   0  0  0  0  0  0  0  0  0  0  0  0
  148.6681  141.3095  157.9419 H   0  0  0  0  0  0  0  0  0  0  0  0
  149.1589  140.5394  156.4365 H   0  0  0  0  0  0  0  0  0  0  0  0
  151.4850  141.4115  156.7547 H   0  0  0  0  0  0  0  0  0  0  0  0
  150.4862  139.7649  159.0411 H   0  0  0  0  0  0  0  0  0  0  0  0
  151.1397  137.7996  159.3739 H   0  0  0  0  0  0  0  0  0  0  0  0
  151.5360  136.8920  157.9528 H   0  0  0  0  0  0  0  0  0  0  0  0
  152.8646  138.7906  160.6851 H   0  0  0  0  0  0  0  0  0  0  0  0
  155.0483  138.4110  161.7960 H   0  0  0  0  0  0  0  0  0  0  0  0
  156.6346  136.7480  160.7709 H   0  0  0  0  0  0  0  0  0  0  0  0
  150.5730  142.2114  159.5456 H   0  0  0  0  0  0  0  0  0  0  0  0
  152.8439  142.1441  160.0696 H   0  0  0  0  0  0  0  0  0  0  0  0
  153.2723  141.7988  158.3986 H   0  0  0  0  0  0  0  0  0  0  0  0
  154.1289  144.0780  158.7031 H   0  0  0  0  0  0  0  0  0  0  0  0
  152.4996  144.4441  160.8428 H   0  0  0  0  0  0  0  0  0  0  0  0
  152.7624  145.8314  159.7853 H   0  0  0  0  0  0  0  0  0  0  0  0
  150.2239  144.4379  160.1613 H   0  0  0  0  0  0  0  0  0  0  0  0
  150.5674  145.7870  159.0825 H   0  0  0  0  0  0  0  0  0  0  0  0
  150.0618  143.9701  157.5089 H   0  0  0  0  0  0  0  0  0  0  0  0
  152.3146  145.2707  157.2205 H   0  0  0  0  0  0  0  0  0  0  0  0
  152.5339  143.5945  156.6723 H   0  0  0  0  0  0  0  0  0  0  0  0
  1  2  1  0  0  0  0
  1 24  1  0  0  0  0
  1 25  1  0  0  0  0
  1 26  1  0  0  0  0
  2  3  1  0  0  0  0
  2 17  1  0  0  0  0
  2 27  1  0  0  0  0
  3  4  1  0  0  0  0
  3 28  1  0  0  0  0
  4  5  2  0  0  0  0
  4  6  1  0  0  0  0
  6  7  1  0  0  0  0
  6 29  1  0  0  0  0
  6 30  1  0  0  0  0
  7 15  1  0  0  0  0
  7  8  1  0  0  0  0
  8  9  2  0  0  0  0
  8 31  1  0  0  0  0
  9 10  1  0  0  0  0
  9 32  1  0  0  0  0
 10 11  2  0  0  0  0
 10 33  1  0  0  0  0
 11 12  1  0  0  0  0
 11 15  1  0  0  0  0
 12 13  2  0  0  0  0
 12 14  1  0  0  0  0
 15 16  2  0  0  0  0
 17 22  1  0  0  0  0
 17 18  1  0  0  0  0
 17 34  1  0  0  0  0
 18 19  1  0  0  0  0
 18 35  1  0  0  0  0
 18 36  1  0  0  0  0
 19 23  1  0  0  0  0
 19 20  1  0  0  0  0
 19 37  1  0  0  0  0
 20 21  1  0  0  0  0
 20 38  1  0  0  0  0
 20 39  1  0  0  0  0
 21 22  1  0  0  0  0
 21 40  1  0  0  0  0
 21 41  1  0  0  0  0
 22 23  1  0  0  0  0
 22 42  1  0  0  0  0
 23 43  1  0  0  0  0
 23 44  1  0  0  0  0
M  CHG  1  12   1
M  CHG  1  14  -1
M  END
> <s_m_source_file>
AV-unprocessed.smi

> <i_m_source_file_index>
1512

> <i_lp_mmshare_version>
43012

> <i_f3d_flags>
0

> <s_epik_input>
W0NIMl0xW0NIMl1bQ0BIXShbQ0gyXTIpW0NAQEhdKFtDSDJdW0NAQEhdMTIpW0NASF0oW0NIM10pW05IXUMoPU8pW0NIMl1uM1tjSF1bY0hdW2NIXWMoW04rXSg9TylbTy1dKWMzPU8=

> <s_epik_cmdline>
J2VwaWtfcHl0aG9uJywgJy1waCcsICc3LjAnLCAnLXRuJywgJzgnLCAnLW1hJywgJzIwMCcsICctbWV0YWxfYmluZGluZycsICctaW1hZScsICc8aW5maWxlLm1hZT4nLCAnLW9tYWUnLCAnPG91dGZpbGUubWFlPic=

> <r_lp_tautomer_probability>
1

> <r_epik_Ionization_Penalty>
2.17697e-08

> <r_epik_Ionization_Penalty_Charging>
1.42735e-10

> <r_epik_Ionization_Penalty_Neutral>
2.16269e-08

> <r_epik_State_Penalty>
-0

> <r_epik_Charging_Adjusted_Penalty>
1.42735e-10

> <i_epik_Tot_Q>
0

> <i_epik_Tot_abs_Q>
2

> <r_epik_Metal_State_Penalty>
-0

> <b_epik_Metal_Only>
0

> <s_lp_Force_Field>
OPLS_2005

> <r_lp_Energy>
64.581

> <b_lp_Chiralities_Consistent>
1

> <s_lp_Variant>
AV-unprocessed.smi:1512-7

> <Gold.Version>
5.8.1

> <Gold.Id.Protein>
6NUR|6NUR_protein|mol2

> <Gold.PLP.Fitness>
44.7804

> <Gold.PLP.PLP>
-39.3614

> <Gold.PLP.part.hbond>
-1.7646

> <Gold.PLP.part.metal>
0.0000

> <Gold.PLP.part.buried>
-5.4232

> <Gold.PLP.part.nonpolar>
-32.6708

> <Gold.PLP.part.repulsive>
0.0677

> <Gold.PLP.ligand.clash>
0.0000

> <Gold.PLP.ligand.torsion>
0.3056

> <Gold.PLP.Chemscore.Hbond>
2.0000

> <Gold.PLP.Chemscore.CHOScore>
0.0000

> <Gold.PLP.Chemscore.Metal>
0.0000

> <Gold.Chemscore.Hbonds>
donor molecule, donor type, donor heavy atom, donor atom, acceptor molecule, acceptor atom, score
      P1  H  7997  8008       L1     5  0.89
      P1  H 10752 10764       L1    16  0.59

> <Gold.PLP.Chemscore.Internal.Correction>
0.0302

> <Gold.Rescore>
     Score         DG    S(hbond)    S(metal)    S(lipo)     H(rot)  DE(clash)    DE(int)     intcor
     19.13     -21.07       1.93        0.00     116.35       1.75       0.01       1.94       ----

> <Gold.Chemscore.Fitness>
19.1281

> <Gold.Chemscore.DG>
-21.0726

> <Gold.Chemscore.ZeroCoef>
-5.4800

> <Gold.Chemscore.Hbond>
1.9320

> <Gold.Chemscore.Metal>
0.0000

> <Gold.Chemscore.Lipo>
116.3508

> <Gold.Chemscore.Internal_Hbond>
0.0000

> <Gold.Chemscore.DEClash>
0.0086

> <Gold.Chemscore.DEInternal>
1.9359

> <Gold.Chemscore.Rot>
1.7474

> <Gold.Chemscore.Internal.Correction>
   9.000000E+99

> <Gold.Chemscore.Hbonds>
donor molecule, donor type, donor heavy atom, donor atom, acceptor molecule, acceptor atom, score
      P1  H  7997  8008       L1     5  0.85
      P1  H 10752 10764       L1    16  0.58

> <Gold.Chemscore.Hbond.Weighted>
-6.4529

> <Gold.Chemscore.Metal.Weighted>
-0.0000

> <Gold.Chemscore.Lipo.Weighted>
-13.6130

> <Gold.Chemscore.Internal_Hbond.Weighted>
0.0000

> <Gold.Chemscore.DEClash.Weighted>
0.0086

> <Gold.Chemscore.DEInternal.Weighted>
1.9359

> <Gold.Chemscore.Rot.Weighted>
4.4733

> <Gold.Chemscore.Internal.Correction.Weighted>
   9.000000E+99

> <Gold.Protein.RotatedTorsions>
[ 6907 6896 6895 6894 ] final  -79.98 input  -60.11 | X-H torsion
[ 7974 7965 7964 7962 ] final  -36.56 input  175.53 | X-H torsion
[ 8008 7997 7996 7995 ] final  -37.33 input   59.86 | X-H torsion
[ 10167 10162 10161 10158 ] final  -68.26 input  -65.29 | X-H torsion
[ 10718 10713 10712 10709 ] final   14.59 input   66.30 | X-H torsion
[ 10763 10752 10751 10750 ] final   17.90 input  -60.55 | X-H torsion
[ 11005 11000 10999 10996 ] final  118.16 input  -57.11 | X-H torsion

> <Gold.Protein.ActiveResidues>
 VAL166  LYS551  ARG553  GLY616  TRP617  ASP618  TYR619  PRO620  LYS621  CYS622 
 ASP623  PHE694  ASN695  SER759  ASP760  ASP761  ALA762  ILE779  LEU786  VAL792 
 PHE793  MET794  SER795  GLU796  ALA797  LYS798  CYS799  TRP800  GLU811  SER814 

> <Gold.Protein.RotatedAtoms>
  150.6938  134.4038  159.5130 H   0  0  0  0  0  0  0  0  0  0  0  0  # atno 6907 bound_to 6896
  152.1808  134.8753  160.0535 H   0  0  0  0  0  0  0  0  0  0  0  0  # atno 6908 bound_to 6896
  151.9745  133.3702  159.4120 H   0  0  0  0  0  0  0  0  0  0  0  0  # atno 6909 bound_to 6896
  146.0651  140.6293  142.8979 H   0  0  0  0  0  0  0  0  0  0  0  0  # atno 7974 bound_to 7965
  154.4055  140.1607  156.2520 H   0  0  0  0  0  0  0  0  0  0  0  0  # atno 8008 bound_to 7997
  155.9111  140.3427  155.6077 H   0  0  0  0  0  0  0  0  0  0  0  0  # atno 8009 bound_to 7997
  155.7335  140.0783  157.2269 H   0  0  0  0  0  0  0  0  0  0  0  0  # atno 8010 bound_to 7997
  140.5520  143.2312  151.6892 H   0  0  0  0  0  0  0  0  0  0  0  0  # atno 10167 bound_to 10162
  157.0414  130.6232  149.5751 H   0  0  0  0  0  0  0  0  0  0  0  0  # atno 10718 bound_to 10713
  153.1297  135.6737  153.9199 H   0  0  0  0  0  0  0  0  0  0  0  0  # atno 10763 bound_to 10752
  153.8689  135.3072  155.3442 H   0  0  0  0  0  0  0  0  0  0  0  0  # atno 10764 bound_to 10752
  154.7696  135.4946  153.9704 H   0  0  0  0  0  0  0  0  0  0  0  0  # atno 10765 bound_to 10752
  139.9099  134.9617  156.7461 H   0  0  0  0  0  0  0  0  0  0  0  0  # atno 11005 bound_to 11000
  144.7197  140.4332  143.7017 LP  0  0  0  0  0  0  0  0  0  0  0  0  # atno 17320 bound_to 7965
  145.6492  139.1562  143.2871 LP  0  0  0  0  0  0  0  0  0  0  0  0  # atno 17321 bound_to 7965
  139.5031  144.3802  152.0384 LP  0  0  0  0  0  0  0  0  0  0  0  0  # atno 17342 bound_to 10162
  140.2920  144.3743  150.6086 LP  0  0  0  0  0  0  0  0  0  0  0  0  # atno 17343 bound_to 10162
  156.0037  130.5120  150.7754 LP  0  0  0  0  0  0  0  0  0  0  0  0  # atno 17370 bound_to 10713
  157.5102  131.0925  151.0208 LP  0  0  0  0  0  0  0  0  0  0  0  0  # atno 17371 bound_to 10713
  140.6811  133.9474  155.7911 LP  0  0  0  0  0  0  0  0  0  0  0  0  # atno 17394 bound_to 11000
  141.0509  134.0485  157.3784 LP  0  0  0  0  0  0  0  0  0  0  0  0  # atno 17395 bound_to 11000

$$$$
