AV-unprocessed.smi:1504|AV-procd|sdf|6072|dock3
  -GOLD-   22720 6193D 1   1.00000     0.00000
 Structure written by MMmdl.
 39 40  0  0  0  0  0  0  0  0  1 V2000
  145.3369  138.2724  153.7972 O   0  0  0  0  0  0  0  0  0  0  0  0
  146.3916  137.9498  153.2501 C   0  0  0  0  0  0  0  0  0  0  0  0
  146.4743  137.0905  152.2251 N   0  0  0  0  0  0  0  0  0  0  0  0
  145.3364  136.4130  151.6103 C   0  0  0  0  0  0  0  0  0  0  0  0
  145.7426  135.5185  150.4226 C   0  0  0  0  0  0  0  0  0  0  0  0
  145.3519  134.0611  150.5995 C   0  0  0  0  0  0  0  0  0  0  0  0
  144.0213  133.6391  150.3901 C   0  0  0  0  0  0  0  0  0  0  0  0
  143.7135  132.2763  150.5668 C   0  0  0  0  0  0  0  0  0  0  0  0
  144.7426  131.3920  150.9444 C   0  0  0  0  0  0  0  0  0  0  0  0
  146.0394  131.9126  151.1272 C   0  0  0  0  0  0  0  0  0  0  0  0
  146.3454  133.2171  150.9588 N   0  0  0  0  0  0  0  0  0  0  0  0
  147.5941  138.4180  153.6064 N   0  0  0  0  0  0  0  0  0  0  0  0
  147.8206  139.3638  154.6917 C   0  0  0  0  0  0  0  0  0  0  0  0
  149.2884  139.8211  154.7290 C   0  0  1  0  0  0  0  0  0  0  0  0
  149.5204  140.9741  155.7249 C   0  0  0  0  0  0  0  0  0  0  0  0
  151.0291  141.1720  155.9001 C   0  0  0  0  0  0  0  0  0  0  0  0
  151.7610  139.4981  155.7778 S   0  0  0  0  0  0  0  0  0  0  0  0
  152.8305  139.5145  154.7684 O   0  0  0  0  0  0  0  0  0  0  0  0
  152.0024  138.9691  157.1287 O   0  0  0  0  0  0  0  0  0  0  0  0
  150.2705  138.6891  155.0810 C   0  0  0  0  0  0  0  0  0  0  0  0
  147.3858  136.8918  151.8395 H   0  0  0  0  0  0  0  0  0  0  0  0
  144.8596  135.8046  152.3792 H   0  0  0  0  0  0  0  0  0  0  0  0
  144.5928  137.1458  151.2936 H   0  0  0  0  0  0  0  0  0  0  0  0
  145.2843  135.8977  149.5084 H   0  0  0  0  0  0  0  0  0  0  0  0
  146.8196  135.5811  150.2623 H   0  0  0  0  0  0  0  0  0  0  0  0
  143.2543  134.3421  150.0992 H   0  0  0  0  0  0  0  0  0  0  0  0
  142.7068  131.9161  150.4157 H   0  0  0  0  0  0  0  0  0  0  0  0
  144.5437  130.3407  151.0906 H   0  0  0  0  0  0  0  0  0  0  0  0
  146.8527  131.2639  151.4169 H   0  0  0  0  0  0  0  0  0  0  0  0
  148.4055  138.0988  153.0978 H   0  0  0  0  0  0  0  0  0  0  0  0
  147.1632  140.2229  154.5521 H   0  0  0  0  0  0  0  0  0  0  0  0
  147.5489  138.9058  155.6446 H   0  0  0  0  0  0  0  0  0  0  0  0
  149.5594  140.1942  153.7402 H   0  0  0  0  0  0  0  0  0  0  0  0
  149.0342  141.8940  155.3988 H   0  0  0  0  0  0  0  0  0  0  0  0
  149.0857  140.7093  156.6900 H   0  0  0  0  0  0  0  0  0  0  0  0
  151.4356  141.7781  155.0901 H   0  0  0  0  0  0  0  0  0  0  0  0
  151.2946  141.6338  156.8512 H   0  0  0  0  0  0  0  0  0  0  0  0
  149.8579  138.0352  155.8500 H   0  0  0  0  0  0  0  0  0  0  0  0
  150.5443  138.0793  154.2199 H   0  0  0  0  0  0  0  0  0  0  0  0
  1  2  2  0  0  0  0
  2  3  1  0  0  0  0
  2 12  1  0  0  0  0
  3  4  1  0  0  0  0
  3 21  1  0  0  0  0
  4  5  1  0  0  0  0
  4 22  1  0  0  0  0
  4 23  1  0  0  0  0
  5  6  1  0  0  0  0
  5 24  1  0  0  0  0
  5 25  1  0  0  0  0
  6 11  1  0  0  0  0
  6  7  2  0  0  0  0
  7  8  1  0  0  0  0
  7 26  1  0  0  0  0
  8  9  2  0  0  0  0
  8 27  1  0  0  0  0
  9 10  1  0  0  0  0
  9 28  1  0  0  0  0
 10 11  2  0  0  0  0
 10 29  1  0  0  0  0
 12 13  1  0  0  0  0
 12 30  1  0  0  0  0
 13 14  1  0  0  0  0
 13 31  1  0  0  0  0
 13 32  1  0  0  0  0
 14 20  1  0  0  0  0
 14 15  1  0  0  0  0
 14 33  1  0  0  0  0
 15 16  1  0  0  0  0
 15 34  1  0  0  0  0
 15 35  1  0  0  0  0
 16 17  1  0  0  0  0
 16 36  1  0  0  0  0
 16 37  1  0  0  0  0
 17 18  2  0  0  0  0
 17 19  2  0  0  0  0
 17 20  1  0  0  0  0
 20 38  1  0  0  0  0
 20 39  1  0  0  0  0
M  END
> <s_m_source_file>
AV-unprocessed.smi

> <i_m_source_file_index>
1504

> <i_lp_mmshare_version>
43012

> <i_f3d_flags>
0

> <s_epik_input>
Tz1TMSg9TylbQ0gyXVtDSDJdW0NASF0oW0NIMl0xKVtDSDJdW05IXUMoPU8pW05IXVtDSDJdW0NIMl1jMltjSF1bY0hdW2NIXVtjSF1uMg==

> <s_epik_cmdline>
J2VwaWtfcHl0aG9uJywgJy1waCcsICc3LjAnLCAnLXRuJywgJzgnLCAnLW1hJywgJzIwMCcsICctbWV0YWxfYmluZGluZycsICctaW1hZScsICc8aW5maWxlLm1hZT4nLCAnLW9tYWUnLCAnPG91dGZpbGUubWFlPic=

> <r_epik_Ionization_Penalty>
0.0431785

> <r_epik_Ionization_Penalty_Charging>
0

> <r_epik_Ionization_Penalty_Neutral>
0.0431785

> <r_epik_State_Penalty>
0.0364691

> <r_epik_Charging_Adjusted_Penalty>
0.0364691

> <i_epik_Tot_Q>
0

> <i_epik_Tot_abs_Q>
0

> <r_epik_Metal_State_Penalty>
0.0339827

> <b_epik_Metal_Only>
0

> <s_lp_Force_Field>
OPLS_2005

> <r_lp_Energy>
0.935995

> <b_lp_Chiralities_Consistent>
1

> <s_lp_Variant>
AV-unprocessed.smi:1504-2

> <Gold.Version>
5.8.1

> <Gold.Id.Protein>
6NUR|6NUR_protein|mol2

> <Gold.PLP.Fitness>
42.2608

> <Gold.PLP.PLP>
-33.5139

> <Gold.PLP.part.hbond>
-3.5808

> <Gold.PLP.part.metal>
0.0000

> <Gold.PLP.part.buried>
-4.3027

> <Gold.PLP.part.nonpolar>
-25.5316

> <Gold.PLP.part.repulsive>
0.4169

> <Gold.PLP.ligand.clash>
0.0000

> <Gold.PLP.ligand.torsion>
0.6659

> <Gold.PLP.Chemscore.Hbond>
2.4016

> <Gold.PLP.Chemscore.CHOScore>
0.9419

> <Gold.PLP.Chemscore.Metal>
0.0000

> <Gold.Chemscore.Hbonds>
donor molecule, donor type, donor heavy atom, donor atom, acceptor molecule, acceptor atom, score
      L1  H     3    21       P1  7948  1.00
      L1  H    12    30       P1  7948  0.26
      P1  H  7989  7998       L1    18  0.19
      P1  H  7997  8009       L1    18  0.88
      L1  C    10    29       P1 10747  0.98

> <Gold.PLP.Chemscore.Internal.Correction>
0.0483

> <Gold.Rescore>
     Score         DG    S(hbond)    S(metal)    S(lipo)     H(rot)  DE(clash)    DE(int)     intcor
     16.33     -17.10       2.15        0.00      79.66       1.91       0.01       0.76       ----

> <Gold.Chemscore.Fitness>
16.3339

> <Gold.Chemscore.DG>
-17.1024

> <Gold.Chemscore.ZeroCoef>
-5.4800

> <Gold.Chemscore.Hbond>
2.1534

> <Gold.Chemscore.Metal>
0.0000

> <Gold.Chemscore.Lipo>
79.6642

> <Gold.Chemscore.Internal_Hbond>
0.0000

> <Gold.Chemscore.DEClash>
0.0126

> <Gold.Chemscore.DEInternal>
0.7559

> <Gold.Chemscore.Rot>
1.9105

> <Gold.Chemscore.Internal.Correction>
   9.000000E+99

> <Gold.Chemscore.Hbonds>
donor molecule, donor type, donor heavy atom, donor atom, acceptor molecule, acceptor atom, score
      L1  H     3    21       P1  7948  0.98
      L1  H    12    30       P1  7948  0.26
      P1  H  7989  7998       L1    18  0.01
      P1  H  7997  8009       L1    18  0.30

> <Gold.Chemscore.Hbond.Weighted>
-7.1925

> <Gold.Chemscore.Metal.Weighted>
-0.0000

> <Gold.Chemscore.Lipo.Weighted>
-9.3207

> <Gold.Chemscore.Internal_Hbond.Weighted>
0.0000

> <Gold.Chemscore.DEClash.Weighted>
0.0126

> <Gold.Chemscore.DEInternal.Weighted>
0.7559

> <Gold.Chemscore.Rot.Weighted>
4.8908

> <Gold.Chemscore.Internal.Correction.Weighted>
   9.000000E+99

> <Gold.Protein.RotatedTorsions>
[ 6907 6896 6895 6894 ] final  -10.11 input  -60.11 | X-H torsion
[ 7974 7965 7964 7962 ] final -107.86 input  175.53 | X-H torsion
[ 8008 7997 7996 7995 ] final -133.99 input   59.86 | X-H torsion
[ 10167 10162 10161 10158 ] final    7.47 input  -65.29 | X-H torsion
[ 10718 10713 10712 10709 ] final   28.59 input   66.30 | X-H torsion
[ 10763 10752 10751 10750 ] final -105.36 input  -60.55 | X-H torsion
[ 11005 11000 10999 10996 ] final   72.03 input  -57.11 | X-H torsion

> <Gold.Protein.ActiveResidues>
 VAL166  LYS551  ARG553  GLY616  TRP617  ASP618  TYR619  PRO620  LYS621  CYS622 
 ASP623  PHE694  ASN695  SER759  ASP760  ASP761  ALA762  ILE779  LEU786  VAL792 
 PHE793  MET794  SER795  GLU796  ALA797  LYS798  CYS799  TRP800  GLU811  SER814 

> <Gold.Protein.RotatedAtoms>
  151.4072  135.0980  159.9573 H   0  0  0  0  0  0  0  0  0  0  0  0  # atno 6907 bound_to 6896
  152.5031  133.8832  159.7367 H   0  0  0  0  0  0  0  0  0  0  0  0  # atno 6908 bound_to 6896
  150.9319  133.6700  159.2837 H   0  0  0  0  0  0  0  0  0  0  0  0  # atno 6909 bound_to 6896
  145.2001  140.9052  143.3374 H   0  0  0  0  0  0  0  0  0  0  0  0  # atno 7974 bound_to 7965
  155.3547  140.0479  157.3046 H   0  0  0  0  0  0  0  0  0  0  0  0  # atno 8008 bound_to 7997
  154.5209  140.2224  155.8942 H   0  0  0  0  0  0  0  0  0  0  0  0  # atno 8009 bound_to 7997
  156.1688  140.3100  155.8942 H   0  0  0  0  0  0  0  0  0  0  0  0  # atno 8010 bound_to 7997
  140.6369  143.7864  150.7373 H   0  0  0  0  0  0  0  0  0  0  0  0  # atno 10167 bound_to 10162
  157.2354  130.7044  149.6333 H   0  0  0  0  0  0  0  0  0  0  0  0  # atno 10718 bound_to 10713
  154.7941  135.4752  154.0120 H   0  0  0  0  0  0  0  0  0  0  0  0  # atno 10763 bound_to 10752
  153.1676  135.6819  153.8660 H   0  0  0  0  0  0  0  0  0  0  0  0  # atno 10764 bound_to 10752
  153.8253  135.3199  155.3392 H   0  0  0  0  0  0  0  0  0  0  0  0  # atno 10765 bound_to 10752
  139.9512  134.7224  156.0859 H   0  0  0  0  0  0  0  0  0  0  0  0  # atno 11005 bound_to 11000
  144.9956  139.3647  143.6193 LP  0  0  0  0  0  0  0  0  0  0  0  0  # atno 17320 bound_to 7965
  146.3419  139.9158  142.8774 LP  0  0  0  0  0  0  0  0  0  0  0  0  # atno 17321 bound_to 7965
  140.1487  143.4376  152.2145 LP  0  0  0  0  0  0  0  0  0  0  0  0  # atno 17342 bound_to 10162
  139.5580  144.7386  151.4239 LP  0  0  0  0  0  0  0  0  0  0  0  0  # atno 17343 bound_to 10162
  155.9673  130.4475  150.5583 LP  0  0  0  0  0  0  0  0  0  0  0  0  # atno 17370 bound_to 10713
  157.3434  131.0721  151.1770 LP  0  0  0  0  0  0  0  0  0  0  0  0  # atno 17371 bound_to 10713
  141.1175  133.6623  156.3130 LP  0  0  0  0  0  0  0  0  0  0  0  0  # atno 17394 bound_to 11000
  140.5715  134.5835  157.5458 LP  0  0  0  0  0  0  0  0  0  0  0  0  # atno 17395 bound_to 11000

$$$$
