AV-unprocessed.smi:1817|AV-procd|sdf|7379|dock1
  -GOLD-   22720 9 43D 1   1.00000     0.00000
 Structure written by MMmdl.
 41 42  0  0  0  0  0  0  0  0  2 V2000
  151.7270  144.7624  160.3826 C   0  0  0  0  0  0  0  0  0  0  0  0
  152.1022  144.5312  158.9120 C   0  0  0  0  0  0  0  0  0  0  0  0
  152.2593  143.1292  158.5301 N   0  0  0  0  0  0  0  0  0  0  0  0
  150.9926  142.5058  158.1495 C   0  0  0  0  0  0  0  0  0  0  0  0
  151.1805  141.0287  157.7549 C   0  0  0  0  0  0  0  0  0  0  0  0
  151.7648  140.2237  158.8393 N   0  0  0  0  0  0  0  0  0  0  0  0
  151.9524  138.8020  158.4619 C   0  0  1  0  0  0  0  0  0  0  0  0
  152.5892  137.9614  159.5980 C   0  0  0  0  0  0  0  0  0  0  0  0
  150.6365  138.1159  157.9950 C   0  0  0  0  0  0  0  0  0  0  0  0
  149.6104  138.0630  159.0360 N   0  0  0  0  0  0  0  0  0  0  0  0
  149.0134  136.9608  159.5139 C   0  0  0  0  0  0  0  0  0  0  0  0
  149.3039  135.8526  159.0578 O   0  0  0  0  0  0  0  0  0  0  0  0
  148.1084  137.2118  160.4876 N   0  5  0  0  0  0  0  0  0  0  0  0
  147.4927  136.1926  161.1092 C   0  0  0  0  0  0  0  0  0  0  0  0
  146.8392  135.2303  160.4383 N   0  0  0  0  0  0  0  0  0  0  0  0
  146.2765  134.2709  161.2692 N   0  0  0  0  0  0  0  0  0  0  0  0
  146.5299  134.5303  162.5516 C   0  0  0  0  0  0  0  0  0  0  0  0
  147.4787  135.9693  162.8610 S   0  0  0  0  0  0  0  0  0  0  0  0
  153.0233  140.8746  159.2350 C   0  0  0  0  0  0  0  0  0  0  0  0
  152.8247  142.3499  159.6270 C   0  0  0  0  0  0  0  0  0  0  0  0
  151.5140  145.8164  160.5615 H   0  0  0  0  0  0  0  0  0  0  0  0
  152.5323  144.4762  161.0583 H   0  0  0  0  0  0  0  0  0  0  0  0
  150.8375  144.1942  160.6554 H   0  0  0  0  0  0  0  0  0  0  0  0
  151.3148  144.9747  158.3011 H   0  0  0  0  0  0  0  0  0  0  0  0
  153.0120  145.0852  158.6765 H   0  0  0  0  0  0  0  0  0  0  0  0
  150.2770  142.5779  158.9702 H   0  0  0  0  0  0  0  0  0  0  0  0
  150.5525  143.0347  157.3048 H   0  0  0  0  0  0  0  0  0  0  0  0
  150.1962  140.6525  157.4842 H   0  0  0  0  0  0  0  0  0  0  0  0
  151.8031  140.9620  156.8613 H   0  0  0  0  0  0  0  0  0  0  0  0
  152.6439  138.7675  157.6185 H   0  0  0  0  0  0  0  0  0  0  0  0
  152.7080  136.9149  159.3220 H   0  0  0  0  0  0  0  0  0  0  0  0
  151.9801  137.9951  160.5020 H   0  0  0  0  0  0  0  0  0  0  0  0
  153.5933  138.2956  159.8530 H   0  0  0  0  0  0  0  0  0  0  0  0
  150.2646  138.5949  157.0879 H   0  0  0  0  0  0  0  0  0  0  0  0
  150.8082  137.0727  157.7376 H   0  0  0  0  0  0  0  0  0  0  0  0
  149.3316  138.9452  159.4397 H   0  0  0  0  0  0  0  0  0  0  0  0
  146.1572  133.8695  163.3199 H   0  0  0  0  0  0  0  0  0  0  0  0
  153.4563  140.3776  160.1008 H   0  0  0  0  0  0  0  0  0  0  0  0
  153.7538  140.8011  158.4278 H   0  0  0  0  0  0  0  0  0  0  0  0
  153.7862  142.7724  159.9211 H   0  0  0  0  0  0  0  0  0  0  0  0
  152.1774  142.4109  160.5035 H   0  0  0  0  0  0  0  0  0  0  0  0
  1  2  1  0  0  0  0
  1 21  1  0  0  0  0
  1 22  1  0  0  0  0
  1 23  1  0  0  0  0
  2  3  1  0  0  0  0
  2 24  1  0  0  0  0
  2 25  1  0  0  0  0
  3 20  1  0  0  0  0
  3  4  1  0  0  0  0
  4  5  1  0  0  0  0
  4 26  1  0  0  0  0
  4 27  1  0  0  0  0
  5  6  1  0  0  0  0
  5 28  1  0  0  0  0
  5 29  1  0  0  0  0
  6  7  1  0  0  0  0
  6 19  1  0  0  0  0
  7  8  1  0  0  0  0
  7  9  1  0  0  0  0
  7 30  1  0  0  0  0
  8 31  1  0  0  0  0
  8 32  1  0  0  0  0
  8 33  1  0  0  0  0
  9 10  1  0  0  0  0
  9 34  1  0  0  0  0
  9 35  1  0  0  0  0
 10 11  1  0  0  0  0
 10 36  1  0  0  0  0
 11 12  2  0  0  0  0
 11 13  1  0  0  0  0
 13 14  1  0  0  0  0
 14 18  1  0  0  0  0
 14 15  2  0  0  0  0
 15 16  1  0  0  0  0
 16 17  2  0  0  0  0
 17 18  1  0  0  0  0
 17 37  1  0  0  0  0
 19 20  1  0  0  0  0
 19 38  1  0  0  0  0
 19 39  1  0  0  0  0
 20 40  1  0  0  0  0
 20 41  1  0  0  0  0
M  CHG  1  13  -1
M  END
> <s_m_source_file>
AV-unprocessed.smi

> <i_m_source_file_index>
1817

> <i_lp_mmshare_version>
43012

> <i_f3d_flags>
0

> <s_epik_input>
W0NIM11bQ0gyXU4xW0NIMl1bQ0gyXU4oW0NIMl1bQ0gyXTEpW0NASF0oW0NIM10pW0NIMl1bTkhdQyg9TylbTkhdYzJubltjSF1zMg==

> <s_epik_cmdline>
J2VwaWtfcHl0aG9uJywgJy1waCcsICc3LjAnLCAnLXRuJywgJzgnLCAnLW1hJywgJzIwMCcsICctbWV0YWxfYmluZGluZycsICctaW1hZScsICc8aW5maWxlLm1hZT4nLCAnLW9tYWUnLCAnPG91dGZpbGUubWFlPic=

> <r_lp_tautomer_probability>
1

> <r_epik_Ionization_Penalty>
6.0391

> <r_epik_Ionization_Penalty_Charging>
3.54798

> <r_epik_Ionization_Penalty_Neutral>
2.49112

> <r_epik_State_Penalty>
5.3147

> <r_epik_Charging_Adjusted_Penalty>
8.86267

> <i_epik_Tot_Q>
-1

> <i_epik_Tot_abs_Q>
1

> <r_epik_Metal_State_Penalty>
2.29997

> <b_epik_Metal_Only>
1

> <s_lp_Force_Field>
OPLS_2005

> <r_lp_Energy>
40.1381

> <b_lp_Chiralities_Consistent>
1

> <s_lp_Variant>
AV-unprocessed.smi:1817-12

> <Gold.Version>
5.8.1

> <Gold.Id.Protein>
6NUR|6NUR_protein|mol2

> <Gold.PLP.Fitness>
50.1628

> <Gold.PLP.PLP>
-40.2275

> <Gold.PLP.part.hbond>
-3.0000

> <Gold.PLP.part.metal>
0.0000

> <Gold.PLP.part.buried>
-6.6657

> <Gold.PLP.part.nonpolar>
-32.2814

> <Gold.PLP.part.repulsive>
0.2495

> <Gold.PLP.ligand.clash>
0.0000

> <Gold.PLP.ligand.torsion>
0.7991

> <Gold.PLP.Chemscore.Hbond>
3.8058

> <Gold.PLP.Chemscore.CHOScore>
0.0000

> <Gold.PLP.Chemscore.Metal>
0.0000

> <Gold.Chemscore.Hbonds>
donor molecule, donor type, donor heavy atom, donor atom, acceptor molecule, acceptor atom, score
      P1  H  6896  6907       L1    12  1.00
      P1  H  6931  6943       L1    13  1.50
      P1  H  6934  6947       L1    13  1.26

> <Gold.PLP.Chemscore.Internal.Correction>
0.1160

> <Gold.Rescore>
     Score         DG    S(hbond)    S(metal)    S(lipo)     H(rot)  DE(clash)    DE(int)     intcor
     15.14     -17.74       1.93        0.00      89.83       1.84       0.65       1.95       ----

> <Gold.Chemscore.Fitness>
15.1364

> <Gold.Chemscore.DG>
-17.7363

> <Gold.Chemscore.ZeroCoef>
-5.4800

> <Gold.Chemscore.Hbond>
1.9298

> <Gold.Chemscore.Metal>
0.0000

> <Gold.Chemscore.Lipo>
89.8340

> <Gold.Chemscore.Internal_Hbond>
0.0000

> <Gold.Chemscore.DEClash>
0.6545

> <Gold.Chemscore.DEInternal>
1.9454

> <Gold.Chemscore.Rot>
1.8358

> <Gold.Chemscore.Internal.Correction>
   9.000000E+99

> <Gold.Chemscore.Hbonds>
donor molecule, donor type, donor heavy atom, donor atom, acceptor molecule, acceptor atom, score
      P1  H  6896  6907       L1    12  0.91
      P1  H  6931  6943       L1    13  0.26
      P1  H  6934  6947       L1    13  0.50

> <Gold.Chemscore.Hbond.Weighted>
-6.4454

> <Gold.Chemscore.Metal.Weighted>
-0.0000

> <Gold.Chemscore.Lipo.Weighted>
-10.5106

> <Gold.Chemscore.Internal_Hbond.Weighted>
0.0000

> <Gold.Chemscore.DEClash.Weighted>
0.6545

> <Gold.Chemscore.DEInternal.Weighted>
1.9454

> <Gold.Chemscore.Rot.Weighted>
4.6996

> <Gold.Chemscore.Internal.Correction.Weighted>
   9.000000E+99

> <Gold.Protein.RotatedTorsions>
[ 6907 6896 6895 6894 ] final  -80.98 input  -60.11 | X-H torsion
[ 7974 7965 7964 7962 ] final  -25.84 input  175.53 | X-H torsion
[ 8008 7997 7996 7995 ] final   17.35 input   59.86 | X-H torsion
[ 10167 10162 10161 10158 ] final  -72.69 input  -65.29 | X-H torsion
[ 10718 10713 10712 10709 ] final  -38.70 input   66.30 | X-H torsion
[ 10763 10752 10751 10750 ] final -164.92 input  -60.55 | X-H torsion
[ 11005 11000 10999 10996 ] final -173.77 input  -57.11 | X-H torsion

> <Gold.Protein.ActiveResidues>
 VAL166  LYS551  ARG553  GLY616  TRP617  ASP618  TYR619  PRO620  LYS621  CYS622 
 ASP623  PHE694  ASN695  SER759  ASP760  ASP761  ALA762  ILE779  LEU786  VAL792 
 PHE793  MET794  SER795  GLU796  ALA797  LYS798  CYS799  TRP800  GLU811  SER814 

> <Gold.Protein.RotatedAtoms>
  150.6920  134.3887  159.5066 H   0  0  0  0  0  0  0  0  0  0  0  0  # atno 6907 bound_to 6896
  152.1678  134.8856  160.0546 H   0  0  0  0  0  0  0  0  0  0  0  0  # atno 6908 bound_to 6896
  151.9894  133.3751  159.4175 H   0  0  0  0  0  0  0  0  0  0  0  0  # atno 6909 bound_to 6896
  146.1465  140.4940  142.8630 H   0  0  0  0  0  0  0  0  0  0  0  0  # atno 7974 bound_to 7965
  154.8902  140.2986  155.5375 H   0  0  0  0  0  0  0  0  0  0  0  0  # atno 8008 bound_to 7997
  156.3021  140.2426  156.3851 H   0  0  0  0  0  0  0  0  0  0  0  0  # atno 8009 bound_to 7997
  154.8626  140.0404  157.1664 H   0  0  0  0  0  0  0  0  0  0  0  0  # atno 8010 bound_to 7997
  140.5172  143.2336  151.7493 H   0  0  0  0  0  0  0  0  0  0  0  0  # atno 10167 bound_to 10162
  156.3008  130.4240  149.8145 H   0  0  0  0  0  0  0  0  0  0  0  0  # atno 10718 bound_to 10713
  154.6981  135.2983  154.9381 H   0  0  0  0  0  0  0  0  0  0  0  0  # atno 10763 bound_to 10752
  154.0322  135.6668  153.4786 H   0  0  0  0  0  0  0  0  0  0  0  0  # atno 10764 bound_to 10752
  153.0661  135.5087  154.8111 H   0  0  0  0  0  0  0  0  0  0  0  0  # atno 10765 bound_to 10752
  140.4820  134.6066  157.4923 H   0  0  0  0  0  0  0  0  0  0  0  0  # atno 11005 bound_to 11000
  144.7852  140.5922  143.6578 LP  0  0  0  0  0  0  0  0  0  0  0  0  # atno 17320 bound_to 7965
  145.4926  139.1488  143.3701 LP  0  0  0  0  0  0  0  0  0  0  0  0  # atno 17321 bound_to 7965
  139.4912  144.4307  151.9875 LP  0  0  0  0  0  0  0  0  0  0  0  0  # atno 17342 bound_to 10162
  140.3402  144.3213  150.5969 LP  0  0  0  0  0  0  0  0  0  0  0  0  # atno 17343 bound_to 10162
  156.5524  130.8347  151.3303 LP  0  0  0  0  0  0  0  0  0  0  0  0  # atno 17370 bound_to 10713
  157.7367  130.9784  150.2153 LP  0  0  0  0  0  0  0  0  0  0  0  0  # atno 17371 bound_to 10713
  139.9821  134.7121  155.9841 LP  0  0  0  0  0  0  0  0  0  0  0  0  # atno 17394 bound_to 11000
  141.1527  133.6546  156.4062 LP  0  0  0  0  0  0  0  0  0  0  0  0  # atno 17395 bound_to 11000

$$$$
