AV-unprocessed.smi:2760|AV-procd|sdf|10631|dock4
  -GOLD-   2272015 83D 1   1.00000     0.00000
 Structure written by MMmdl.
 32 33  0  0  0  0  0  0  0  0  1 V2000
  149.5059  141.9748  155.4966 O   0  0  0  0  0  0  0  0  0  0  0  0
  150.2129  141.5092  156.5654 C   0  0  0  0  0  0  0  0  0  0  0  0
  151.0280  142.3929  157.3042 C   0  0  0  0  0  0  0  0  0  0  0  0
  151.7302  141.8418  158.3988 C   0  0  0  0  0  0  0  0  0  0  0  0
  152.6279  142.6568  159.2756 C   0  0  0  0  0  0  0  0  0  0  0  0
  152.4514  142.6736  160.7779 C   0  0  0  0  0  0  0  0  0  0  0  0
  152.1147  143.8997  159.9658 C   0  0  0  0  0  0  0  0  0  0  0  0
  151.6136  140.5360  158.7263 N   0  0  0  0  0  0  0  0  0  0  0  0
  150.8117  139.7986  157.9548 C   0  0  0  0  0  0  0  0  0  0  0  0
  150.6441  138.0814  158.3856 S   0  0  0  0  0  0  0  0  0  0  0  0
  148.8361  137.8982  158.3821 C   0  0  0  0  0  0  0  0  0  0  0  0
  148.3794  136.6839  159.2004 C   0  0  0  0  0  0  0  0  0  0  0  0
  147.5901  137.1291  160.2900 O   0  0  0  0  0  0  0  0  0  0  0  0
  146.4044  136.3656  160.4517 C   0  0  0  0  0  0  0  0  0  0  0  0
  146.6242  135.2905  161.5226 C   0  0  0  0  0  0  0  0  0  0  0  0
  147.3481  134.2983  161.0057 F   0  0  0  0  0  0  0  0  0  0  0  0
  147.2820  135.8030  162.5621 F   0  0  0  0  0  0  0  0  0  0  0  0
  145.4545  134.7986  161.9305 F   0  0  0  0  0  0  0  0  0  0  0  0
  150.1102  140.2034  156.8948 N   0  0  0  0  0  0  0  0  0  0  0  0
  149.4264  142.9160  155.4888 H   0  0  0  0  0  0  0  0  0  0  0  0
  151.1120  143.4385  157.0464 H   0  0  0  0  0  0  0  0  0  0  0  0
  153.6440  142.6766  158.8858 H   0  0  0  0  0  0  0  0  0  0  0  0
  151.6185  142.1193  161.2059 H   0  0  0  0  0  0  0  0  0  0  0  0
  153.3465  142.7240  161.3944 H   0  0  0  0  0  0  0  0  0  0  0  0
  152.7901  144.7483  160.0534 H   0  0  0  0  0  0  0  0  0  0  0  0
  151.0616  144.1486  159.8498 H   0  0  0  0  0  0  0  0  0  0  0  0
  148.4039  138.8074  158.8002 H   0  0  0  0  0  0  0  0  0  0  0  0
  148.4782  137.8244  157.3550 H   0  0  0  0  0  0  0  0  0  0  0  0
  147.7966  136.0024  158.5793 H   0  0  0  0  0  0  0  0  0  0  0  0
  149.2474  136.1347  159.5686 H   0  0  0  0  0  0  0  0  0  0  0  0
  145.5784  137.0166  160.7434 H   0  0  0  0  0  0  0  0  0  0  0  0
  146.1308  135.8956  159.5055 H   0  0  0  0  0  0  0  0  0  0  0  0
  1  2  1  0  0  0  0
  1 20  1  0  0  0  0
  2 19  1  0  0  0  0
  2  3  2  0  0  0  0
  3  4  1  0  0  0  0
  3 21  1  0  0  0  0
  4  5  1  0  0  0  0
  4  8  2  0  0  0  0
  5  7  1  0  0  0  0
  5  6  1  0  0  0  0
  5 22  1  0  0  0  0
  6  7  1  0  0  0  0
  6 23  1  0  0  0  0
  6 24  1  0  0  0  0
  7 25  1  0  0  0  0
  7 26  1  0  0  0  0
  8  9  1  0  0  0  0
  9 10  1  0  0  0  0
  9 19  2  0  0  0  0
 10 11  1  0  0  0  0
 11 12  1  0  0  0  0
 11 27  1  0  0  0  0
 11 28  1  0  0  0  0
 12 13  1  0  0  0  0
 12 29  1  0  0  0  0
 12 30  1  0  0  0  0
 13 14  1  0  0  0  0
 14 15  1  0  0  0  0
 14 31  1  0  0  0  0
 14 32  1  0  0  0  0
 15 16  1  0  0  0  0
 15 17  1  0  0  0  0
 15 18  1  0  0  0  0
M  END
> <s_m_source_file>
AV-unprocessed.smi

> <i_m_source_file_index>
2760

> <i_lp_mmshare_version>
43012

> <i_f3d_flags>
0

> <s_epik_input>
W09IXWMxW2NIXWMoW0NIXTJbQ0gyXVtDSDJdMiluYyhuMSlTW0NIMl1bQ0gyXU9bQ0gyXUMoRikoRilG

> <s_epik_cmdline>
J2VwaWtfcHl0aG9uJywgJy1waCcsICc3LjAnLCAnLXRuJywgJzgnLCAnLW1hJywgJzIwMCcsICctbWV0YWxfYmluZGluZycsICctaW1hZScsICc8aW5maWxlLm1hZT4nLCAnLW9tYWUnLCAnPG91dGZpbGUubWFlPic=

> <r_lp_tautomer_probability>
0.0660145

> <r_epik_Ionization_Penalty>
3.02064

> <r_epik_Ionization_Penalty_Charging>
0

> <r_epik_Ionization_Penalty_Neutral>
3.02064

> <r_epik_State_Penalty>
2.51658

> <r_epik_Charging_Adjusted_Penalty>
2.51658

> <i_epik_Tot_Q>
0

> <i_epik_Tot_abs_Q>
0

> <r_epik_Metal_State_Penalty>
3.1674

> <b_epik_Metal_Only>
0

> <s_lp_Force_Field>
OPLS_2005

> <r_lp_Energy>
-0.868617

> <b_lp_Chiralities_Consistent>
1

> <s_lp_Variant>
AV-unprocessed.smi:2760-4

> <Gold.Version>
5.8.1

> <Gold.Id.Protein>
6NUR|6NUR_protein|mol2

> <Gold.PLP.Fitness>
48.3863

> <Gold.PLP.PLP>
-42.9714

> <Gold.PLP.part.hbond>
-3.0000

> <Gold.PLP.part.metal>
0.0000

> <Gold.PLP.part.buried>
-6.2845

> <Gold.PLP.part.nonpolar>
-34.5374

> <Gold.PLP.part.repulsive>
0.0000

> <Gold.PLP.ligand.clash>
0.0000

> <Gold.PLP.ligand.torsion>
1.4205

> <Gold.PLP.Chemscore.Hbond>
2.6640

> <Gold.PLP.Chemscore.CHOScore>
0.0000

> <Gold.PLP.Chemscore.Metal>
0.0000

> <Gold.Chemscore.Hbonds>
donor molecule, donor type, donor heavy atom, donor atom, acceptor molecule, acceptor atom, score
      L1  H     1    20       P1  8028  1.00
      P1  H  6934  6947       L1    13  0.95

> <Gold.PLP.Chemscore.Internal.Correction>
0.2638

> <Gold.Rescore>
     Score         DG    S(hbond)    S(metal)    S(lipo)     H(rot)  DE(clash)    DE(int)     intcor
     11.30     -12.71       1.93        0.00      75.62       3.16       0.00       1.40       ----

> <Gold.Chemscore.Fitness>
11.3037

> <Gold.Chemscore.DG>
-12.7094

> <Gold.Chemscore.ZeroCoef>
-5.4800

> <Gold.Chemscore.Hbond>
1.9342

> <Gold.Chemscore.Metal>
0.0000

> <Gold.Chemscore.Lipo>
75.6223

> <Gold.Chemscore.Internal_Hbond>
0.0000

> <Gold.Chemscore.DEClash>
0.0014

> <Gold.Chemscore.DEInternal>
1.4042

> <Gold.Chemscore.Rot>
3.1557

> <Gold.Chemscore.Internal.Correction>
   9.000000E+99

> <Gold.Chemscore.Hbonds>
donor molecule, donor type, donor heavy atom, donor atom, acceptor molecule, acceptor atom, score
      L1  H     1    20       P1  8028  1.00
      P1  H  6931  6943       L1    13  0.03
      P1  H  6934  6947       L1    13  0.56

> <Gold.Chemscore.Hbond.Weighted>
-6.4601

> <Gold.Chemscore.Metal.Weighted>
-0.0000

> <Gold.Chemscore.Lipo.Weighted>
-8.8478

> <Gold.Chemscore.Internal_Hbond.Weighted>
0.0000

> <Gold.Chemscore.DEClash.Weighted>
0.0014

> <Gold.Chemscore.DEInternal.Weighted>
1.4042

> <Gold.Chemscore.Rot.Weighted>
8.0785

> <Gold.Chemscore.Internal.Correction.Weighted>
   9.000000E+99

> <Gold.Protein.RotatedTorsions>
[ 6907 6896 6895 6894 ] final  -36.93 input  -60.11 | X-H torsion
[ 7974 7965 7964 7962 ] final -122.37 input  175.53 | X-H torsion
[ 8008 7997 7996 7995 ] final  -20.84 input   59.86 | X-H torsion
[ 10167 10162 10161 10158 ] final  -99.66 input  -65.29 | X-H torsion
[ 10718 10713 10712 10709 ] final   45.90 input   66.30 | X-H torsion
[ 10763 10752 10751 10750 ] final -154.08 input  -60.55 | X-H torsion
[ 11005 11000 10999 10996 ] final   52.13 input  -57.11 | X-H torsion

> <Gold.Protein.ActiveResidues>
 VAL166  LYS551  ARG553  GLY616  TRP617  ASP618  TYR619  PRO620  LYS621  CYS622 
 ASP623  PHE694  ASN695  SER759  ASP760  ASP761  ALA762  ILE779  LEU786  VAL792 
 PHE793  MET794  SER795  GLU796  ALA797  LYS798  CYS799  TRP800  GLU811  SER814 

> <Gold.Protein.RotatedAtoms>
  151.0210  134.9469  159.8059 H   0  0  0  0  0  0  0  0  0  0  0  0  # atno 6907 bound_to 6896
  152.5325  134.2903  159.9050 H   0  0  0  0  0  0  0  0  0  0  0  0  # atno 6908 bound_to 6896
  151.2911  133.4123  159.2667 H   0  0  0  0  0  0  0  0  0  0  0  0  # atno 6909 bound_to 6896
  145.0302  140.8061  143.4328 H   0  0  0  0  0  0  0  0  0  0  0  0  # atno 7974 bound_to 7965
  154.4744  140.2051  155.9915 H   0  0  0  0  0  0  0  0  0  0  0  0  # atno 8008 bound_to 7997
  156.1064  140.3236  155.7982 H   0  0  0  0  0  0  0  0  0  0  0  0  # atno 8009 bound_to 7997
  155.4710  140.0531  157.2970 H   0  0  0  0  0  0  0  0  0  0  0  0  # atno 8010 bound_to 7997
  140.2601  143.3413  152.0634 H   0  0  0  0  0  0  0  0  0  0  0  0  # atno 10167 bound_to 10162
  157.4424  130.8089  149.7707 H   0  0  0  0  0  0  0  0  0  0  0  0  # atno 10718 bound_to 10713
  154.7883  135.3198  154.7835 H   0  0  0  0  0  0  0  0  0  0  0  0  # atno 10763 bound_to 10752
  153.8530  135.6860  153.4794 H   0  0  0  0  0  0  0  0  0  0  0  0  # atno 10764 bound_to 10752
  153.1543  135.4686  154.9622 H   0  0  0  0  0  0  0  0  0  0  0  0  # atno 10765 bound_to 10752
  140.0875  134.5255  155.8885 H   0  0  0  0  0  0  0  0  0  0  0  0  # atno 11005 bound_to 11000
  145.1781  139.2367  143.5307 LP  0  0  0  0  0  0  0  0  0  0  0  0  # atno 17320 bound_to 7965
  146.3497  140.1548  142.8592 LP  0  0  0  0  0  0  0  0  0  0  0  0  # atno 17321 bound_to 7965
  139.5019  144.6724  151.6210 LP  0  0  0  0  0  0  0  0  0  0  0  0  # atno 17342 bound_to 10162
  140.5973  143.9674  150.6362 LP  0  0  0  0  0  0  0  0  0  0  0  0  # atno 17343 bound_to 10162
  155.9954  130.3912  150.2820 LP  0  0  0  0  0  0  0  0  0  0  0  0  # atno 17370 bound_to 10713
  157.0986  131.0189  151.3094 LP  0  0  0  0  0  0  0  0  0  0  0  0  # atno 17371 bound_to 10713
  141.2067  133.6657  156.6259 LP  0  0  0  0  0  0  0  0  0  0  0  0  # atno 17394 bound_to 11000
  140.3400  134.7857  157.4390 LP  0  0  0  0  0  0  0  0  0  0  0  0  # atno 17395 bound_to 11000

$$$$
