AV-unprocessed.smi:910|AV-procd|sdf|4131|dock6
  -GOLD-   22720 2 33D 1   1.00000     0.00000
 Structure written by MMmdl.
 47 48  0  0  0  0  0  0  0  0  2 V2000
  147.3537  134.3101  162.5892 C   0  0  0  0  0  0  0  0  0  0  0  0
  147.3867  135.4885  161.6674 C   0  0  0  0  0  0  0  0  0  0  0  0
  148.2470  135.7405  160.6244 N   0  3  0  0  0  0  0  0  0  0  0  0
  147.9344  136.9051  160.0611 C   0  0  0  0  0  0  0  0  0  0  0  0
  148.6207  137.4627  158.9579 N   0  0  0  0  0  0  0  0  0  0  0  0
  149.9532  137.5479  158.8283 C   0  0  0  0  0  0  0  0  0  0  0  0
  150.7637  137.1179  159.6496 O   0  0  0  0  0  0  0  0  0  0  0  0
  150.3008  138.1634  157.6882 N   0  0  0  0  0  0  0  0  0  0  0  0
  151.6703  138.4464  157.2707 C   0  0  0  0  0  0  0  0  0  0  0  0
  151.8991  139.9516  157.0723 C   0  0  0  0  0  0  0  0  0  0  0  0
  151.7063  140.6190  158.3102 O   0  0  0  0  0  0  0  0  0  0  0  0
  152.1822  141.9574  158.3407 C   0  0  1  0  0  0  0  0  0  0  0  0
  151.1384  142.8781  157.6741 C   0  0  0  0  0  0  0  0  0  0  0  0
  151.5267  144.3583  157.8015 C   0  0  0  0  0  0  0  0  0  0  0  0
  151.7391  144.7472  159.2713 C   0  0  0  0  0  0  0  0  0  0  0  0
  152.7838  143.8383  159.9367 C   0  0  0  0  0  0  0  0  0  0  0  0
  152.4045  142.3481  159.8191 C   0  0  2  0  0  0  0  0  0  0  0  0
  153.4687  141.4627  160.4880 C   0  0  0  0  0  0  0  0  0  0  0  0
  146.8694  137.4701  160.6907 O   0  0  0  0  0  0  0  0  0  0  0  0
  146.5382  136.5744  161.6869 C   0  0  0  0  0  0  0  0  0  0  0  0
  145.3829  136.9288  162.5611 C   0  0  0  0  0  0  0  0  0  0  0  0
  147.3118  134.6259  163.6319 H   0  0  0  0  0  0  0  0  0  0  0  0
  148.2399  133.6869  162.4694 H   0  0  0  0  0  0  0  0  0  0  0  0
  146.4813  133.6853  162.3973 H   0  0  0  0  0  0  0  0  0  0  0  0
  148.9923  135.1091  160.3590 H   0  0  0  0  0  0  0  0  0  0  0  0
  149.5675  138.4796  157.0704 H   0  0  0  0  0  0  0  0  0  0  0  0
  152.3916  138.0348  157.9789 H   0  0  0  0  0  0  0  0  0  0  0  0
  151.8374  137.9294  156.3256 H   0  0  0  0  0  0  0  0  0  0  0  0
  152.9197  140.1255  156.7295 H   0  0  0  0  0  0  0  0  0  0  0  0
  151.2287  140.3350  156.3026 H   0  0  0  0  0  0  0  0  0  0  0  0
  153.1353  142.0351  157.8134 H   0  0  0  0  0  0  0  0  0  0  0  0
  151.0214  142.6268  156.6203 H   0  0  0  0  0  0  0  0  0  0  0  0
  150.1640  142.7186  158.1378 H   0  0  0  0  0  0  0  0  0  0  0  0
  152.4403  144.5468  157.2362 H   0  0  0  0  0  0  0  0  0  0  0  0
  150.7530  144.9859  157.3585 H   0  0  0  0  0  0  0  0  0  0  0  0
  152.0555  145.7885  159.3384 H   0  0  0  0  0  0  0  0  0  0  0  0
  150.7935  144.6755  159.8102 H   0  0  0  0  0  0  0  0  0  0  0  0
  153.7571  144.0081  159.4740 H   0  0  0  0  0  0  0  0  0  0  0  0
  152.8899  144.1144  160.9863 H   0  0  0  0  0  0  0  0  0  0  0  0
  151.4654  142.1987  160.3546 H   0  0  0  0  0  0  0  0  0  0  0  0
  154.4336  141.5564  159.9888 H   0  0  0  0  0  0  0  0  0  0  0  0
  153.1829  140.4108  160.4633 H   0  0  0  0  0  0  0  0  0  0  0  0
  153.6070  141.7376  161.5339 H   0  0  0  0  0  0  0  0  0  0  0  0
  144.8850  136.0324  162.9316 H   0  0  0  0  0  0  0  0  0  0  0  0
  144.6474  137.5197  162.0150 H   0  0  0  0  0  0  0  0  0  0  0  0
  145.7147  137.5110  163.4207 H   0  0  0  0  0  0  0  0  0  0  0  0
  148.0519  137.8374  158.2133 H   0  0  0  0  0  0  0  0  0  0  0  0
  1 22  1  0  0  0  0
  1 23  1  0  0  0  0
  1 24  1  0  0  0  0
  1  2  1  0  0  0  0
  2  3  1  0  0  0  0
  2 20  2  0  0  0  0
  3 25  1  0  0  0  0
  3  4  2  0  0  0  0
  4 19  1  0  0  0  0
  4  5  1  0  0  0  0
  5  6  1  0  0  0  0
  5 47  1  0  0  0  0
  6  8  1  0  0  0  0
  6  7  2  0  0  0  0
  8  9  1  0  0  0  0
  8 26  1  0  0  0  0
  9 10  1  0  0  0  0
  9 27  1  0  0  0  0
  9 28  1  0  0  0  0
 10 11  1  0  0  0  0
 10 29  1  0  0  0  0
 10 30  1  0  0  0  0
 11 12  1  0  0  0  0
 12 17  1  0  0  0  0
 12 13  1  0  0  0  0
 12 31  1  0  0  0  0
 13 14  1  0  0  0  0
 13 32  1  0  0  0  0
 13 33  1  0  0  0  0
 14 15  1  0  0  0  0
 14 34  1  0  0  0  0
 14 35  1  0  0  0  0
 15 16  1  0  0  0  0
 15 36  1  0  0  0  0
 15 37  1  0  0  0  0
 16 17  1  0  0  0  0
 16 38  1  0  0  0  0
 16 39  1  0  0  0  0
 17 18  1  0  0  0  0
 17 40  1  0  0  0  0
 18 41  1  0  0  0  0
 18 42  1  0  0  0  0
 18 43  1  0  0  0  0
 19 20  1  0  0  0  0
 20 21  1  0  0  0  0
 21 44  1  0  0  0  0
 21 45  1  0  0  0  0
 21 46  1  0  0  0  0
M  CHG  1   3   1
M  END
> <s_m_source_file>
AV-unprocessed.smi

> <i_m_source_file_index>
910

> <i_lp_mmshare_version>
43012

> <i_f3d_flags>
0

> <s_epik_input>
W0NIM11jMW5jKG9jMVtDSDNdKVtOSF1DKD1PKVtOSF1bQ0gyXVtDSDJdT1tDQEBIXTJbQ0gyXVtDSDJdW0NIMl1bQ0gyXVtDQEhdMltDSDNd

> <s_epik_cmdline>
J2VwaWtfcHl0aG9uJywgJy1waCcsICc3LjAnLCAnLXRuJywgJzgnLCAnLW1hJywgJzIwMCcsICctbWV0YWxfYmluZGluZycsICctaW1hZScsICc8aW5maWxlLm1hZT4nLCAnLW9tYWUnLCAnPG91dGZpbGUubWFlPic=

> <r_epik_Ionization_Penalty>
7.32931

> <r_epik_Ionization_Penalty_Charging>
7.12214

> <r_epik_Ionization_Penalty_Neutral>
0.207166

> <r_epik_State_Penalty>
2.61278

> <r_epik_Charging_Adjusted_Penalty>
9.73492

> <i_epik_Tot_Q>
1

> <i_epik_Tot_abs_Q>
1

> <r_epik_Metal_State_Penalty>
2.64585

> <b_epik_Metal_Only>
0

> <s_lp_Force_Field>
OPLS_2005

> <r_lp_Energy>
16.7683

> <b_lp_Chiralities_Consistent>
1

> <s_lp_Variant>
AV-unprocessed.smi:910-16

> <Gold.Version>
5.8.1

> <Gold.Id.Protein>
6NUR|6NUR_protein|mol2

> <Gold.PLP.Fitness>
48.2473

> <Gold.PLP.PLP>
-43.4666

> <Gold.PLP.part.hbond>
-2.0554

> <Gold.PLP.part.metal>
0.0000

> <Gold.PLP.part.buried>
-6.3487

> <Gold.PLP.part.nonpolar>
-35.9930

> <Gold.PLP.part.repulsive>
0.4000

> <Gold.PLP.ligand.clash>
0.0000

> <Gold.PLP.ligand.torsion>
0.6434

> <Gold.PLP.Chemscore.Hbond>
2.0000

> <Gold.PLP.Chemscore.CHOScore>
0.0000

> <Gold.PLP.Chemscore.Metal>
0.0000

> <Gold.Chemscore.Hbonds>
donor molecule, donor type, donor heavy atom, donor atom, acceptor molecule, acceptor atom, score
      P1  H  6896  6908       L1     7  0.93
      P1  H  6934  6947       L1    19  1.00

> <Gold.PLP.Chemscore.Internal.Correction>
0.0676

> <Gold.Rescore>
     Score         DG    S(hbond)    S(metal)    S(lipo)     H(rot)  DE(clash)    DE(int)     intcor
     21.07     -21.86       1.97        0.00     120.92       1.69       0.01       0.78       ----

> <Gold.Chemscore.Fitness>
21.0722

> <Gold.Chemscore.DG>
-21.8642

> <Gold.Chemscore.ZeroCoef>
-5.4800

> <Gold.Chemscore.Hbond>
1.9688

> <Gold.Chemscore.Metal>
0.0000

> <Gold.Chemscore.Lipo>
120.9186

> <Gold.Chemscore.Internal_Hbond>
0.0000

> <Gold.Chemscore.DEClash>
0.0073

> <Gold.Chemscore.DEInternal>
0.7847

> <Gold.Chemscore.Rot>
1.6949

> <Gold.Chemscore.Internal.Correction>
   9.000000E+99

> <Gold.Chemscore.Hbonds>
donor molecule, donor type, donor heavy atom, donor atom, acceptor molecule, acceptor atom, score
      P1  H  6896  6908       L1     7  0.88
      P1  H  6934  6947       L1    19  0.69

> <Gold.Chemscore.Hbond.Weighted>
-6.5757

> <Gold.Chemscore.Metal.Weighted>
-0.0000

> <Gold.Chemscore.Lipo.Weighted>
-14.1475

> <Gold.Chemscore.Internal_Hbond.Weighted>
0.0000

> <Gold.Chemscore.DEClash.Weighted>
0.0073

> <Gold.Chemscore.DEInternal.Weighted>
0.7847

> <Gold.Chemscore.Rot.Weighted>
4.3390

> <Gold.Chemscore.Internal.Correction.Weighted>
   9.000000E+99

> <Gold.Protein.RotatedTorsions>
[ 6907 6896 6895 6894 ] final -139.51 input  -60.11 | X-H torsion
[ 7974 7965 7964 7962 ] final  -21.71 input  175.53 | X-H torsion
[ 8008 7997 7996 7995 ] final  152.00 input   59.86 | X-H torsion
[ 10167 10162 10161 10158 ] final  151.40 input  -65.29 | X-H torsion
[ 10718 10713 10712 10709 ] final   89.24 input   66.30 | X-H torsion
[ 10763 10752 10751 10750 ] final  179.06 input  -60.55 | X-H torsion
[ 11005 11000 10999 10996 ] final  -83.50 input  -57.11 | X-H torsion

> <Gold.Protein.ActiveResidues>
 VAL166  LYS551  ARG553  GLY616  TRP617  ASP618  TYR619  PRO620  LYS621  CYS622 
 ASP623  PHE694  ASN695  SER759  ASP760  ASP761  ALA762  ILE779  LEU786  VAL792 
 PHE793  MET794  SER795  GLU796  ALA797  LYS798  CYS799  TRP800  GLU811  SER814 

> <Gold.Protein.RotatedAtoms>
  151.0487  133.5643  159.2644 H   0  0  0  0  0  0  0  0  0  0  0  0  # atno 6907 bound_to 6896
  151.2662  135.0669  159.9126 H   0  0  0  0  0  0  0  0  0  0  0  0  # atno 6908 bound_to 6896
  152.5378  134.0225  159.8042 H   0  0  0  0  0  0  0  0  0  0  0  0  # atno 6909 bound_to 6896
  146.1717  140.4379  142.8529 H   0  0  0  0  0  0  0  0  0  0  0  0  # atno 7974 bound_to 7965
  156.2649  140.2032  156.6264 H   0  0  0  0  0  0  0  0  0  0  0  0  # atno 8008 bound_to 7997
  154.6716  140.0549  157.0196 H   0  0  0  0  0  0  0  0  0  0  0  0  # atno 8009 bound_to 7997
  155.1128  140.3217  155.4520 H   0  0  0  0  0  0  0  0  0  0  0  0  # atno 8010 bound_to 7997
  139.4841  144.5444  151.7510 H   0  0  0  0  0  0  0  0  0  0  0  0  # atno 10167 bound_to 10162
  157.6954  131.0325  150.3396 H   0  0  0  0  0  0  0  0  0  0  0  0  # atno 10718 bound_to 10713
  154.5157  135.2791  155.1305 H   0  0  0  0  0  0  0  0  0  0  0  0  # atno 10763 bound_to 10752
  154.2882  135.6272  153.5378 H   0  0  0  0  0  0  0  0  0  0  0  0  # atno 10764 bound_to 10752
  152.9927  135.5667  154.5634 H   0  0  0  0  0  0  0  0  0  0  0  0  # atno 10765 bound_to 10752
  141.1657  133.7297  156.8729 H   0  0  0  0  0  0  0  0  0  0  0  0  # atno 11005 bound_to 11000
  144.8174  140.6491  143.6375 LP  0  0  0  0  0  0  0  0  0  0  0  0  # atno 17320 bound_to 7965
  145.4321  139.1547  143.4016 LP  0  0  0  0  0  0  0  0  0  0  0  0  # atno 17321 bound_to 7965
  140.4988  144.1200  150.5966 LP  0  0  0  0  0  0  0  0  0  0  0  0  # atno 17342 bound_to 10162
  140.4086  143.2668  151.9860 LP  0  0  0  0  0  0  0  0  0  0  0  0  # atno 17343 bound_to 10162
  156.3858  130.3889  149.7067 LP  0  0  0  0  0  0  0  0  0  0  0  0  # atno 17370 bound_to 10713
  156.4433  130.7871  151.2893 LP  0  0  0  0  0  0  0  0  0  0  0  0  # atno 17371 bound_to 10713
  140.1769  134.9061  157.2901 LP  0  0  0  0  0  0  0  0  0  0  0  0  # atno 17394 bound_to 11000
  140.2439  134.3763  155.7469 LP  0  0  0  0  0  0  0  0  0  0  0  0  # atno 17395 bound_to 11000

$$$$
