AV-unprocessed.smi:1487|AV-procd|sdf|6012|dock3
  -GOLD-   22720 6113D 1   1.00000     0.00000
 Structure written by MMmdl.
 48 50  0  0  0  0  0  0  0  0  2 V2000
  152.9109  143.2695  160.8441 C   0  0  0  0  0  0  0  0  0  0  0  0
  152.4721  142.4219  159.6631 C   0  0  0  0  0  0  0  0  0  0  0  0
  151.3556  142.8324  158.9003 C   0  0  0  0  0  0  0  0  0  0  0  0
  150.9157  142.0732  157.7940 C   0  0  0  0  0  0  0  0  0  0  0  0
  149.8653  142.2860  156.9176 N   0  0  0  0  0  0  0  0  0  0  0  0
  149.9739  141.2366  156.1085 C   0  0  0  0  0  0  0  0  0  0  0  0
  150.9743  140.3691  156.3549 N   0  0  0  0  0  0  0  0  0  0  0  0
  151.2894  139.1639  155.6090 C   0  0  0  0  0  0  0  0  0  0  0  0
  150.2415  138.8512  154.5234 C   0  0  1  0  0  0  0  0  0  0  0  0
  150.7870  137.9370  153.5912 O   0  0  0  0  0  0  0  0  0  0  0  0
  148.9653  138.2320  155.1266 C   0  0  0  0  0  0  0  0  0  0  0  0
  147.9789  137.8317  154.0900 N   0  3  1  0  0  0  0  0  0  0  0  0
  146.9174  136.9453  154.6319 C   0  0  0  0  0  0  0  0  0  0  0  0
  146.0247  136.4020  153.5057 C   0  0  0  0  0  0  0  0  0  0  0  0
  145.4052  137.5471  152.6928 C   0  0  0  0  0  0  0  0  0  0  0  0
  146.4872  138.5195  152.1940 C   0  0  2  0  0  0  0  0  0  0  0  0
  147.2589  137.9180  151.1726 O   0  0  0  0  0  0  0  0  0  0  0  0
  147.4083  138.9841  153.3395 C   0  0  0  0  0  0  0  0  0  0  0  0
  151.6283  140.8819  157.4701 C   0  0  0  0  0  0  0  0  0  0  0  0
  152.7396  140.4621  158.2223 C   0  0  0  0  0  0  0  0  0  0  0  0
  153.1667  141.2331  159.3234 C   0  0  0  0  0  0  0  0  0  0  0  0
  154.3705  140.7740  160.1272 C   0  0  0  0  0  0  0  0  0  0  0  0
  152.2946  144.1637  160.9430 H   0  0  0  0  0  0  0  0  0  0  0  0
  153.9460  143.5895  160.7231 H   0  0  0  0  0  0  0  0  0  0  0  0
  152.8292  142.7020  161.7714 H   0  0  0  0  0  0  0  0  0  0  0  0
  150.8263  143.7377  159.1590 H   0  0  0  0  0  0  0  0  0  0  0  0
  149.2876  141.0907  155.2869 H   0  0  0  0  0  0  0  0  0  0  0  0
  152.2809  139.2767  155.1679 H   0  0  0  0  0  0  0  0  0  0  0  0
  151.3569  138.3352  156.3153 H   0  0  0  0  0  0  0  0  0  0  0  0
  150.0066  139.7751  153.9959 H   0  0  0  0  0  0  0  0  0  0  0  0
  150.0766  137.5225  153.1243 H   0  0  0  0  0  0  0  0  0  0  0  0
  149.2551  137.3604  155.7160 H   0  0  0  0  0  0  0  0  0  0  0  0
  148.4935  138.9254  155.8246 H   0  0  0  0  0  0  0  0  0  0  0  0
  147.3708  136.1047  155.1589 H   0  0  0  0  0  0  0  0  0  0  0  0
  146.3189  137.4931  155.3615 H   0  0  0  0  0  0  0  0  0  0  0  0
  146.6129  135.7585  152.8499 H   0  0  0  0  0  0  0  0  0  0  0  0
  145.2365  135.7754  153.9243 H   0  0  0  0  0  0  0  0  0  0  0  0
  144.8278  137.1519  151.8561 H   0  0  0  0  0  0  0  0  0  0  0  0
  144.6995  138.0896  153.3236 H   0  0  0  0  0  0  0  0  0  0  0  0
  146.0021  139.3897  151.7503 H   0  0  0  0  0  0  0  0  0  0  0  0
  147.6789  137.1465  151.5221 H   0  0  0  0  0  0  0  0  0  0  0  0
  146.8415  139.6092  154.0314 H   0  0  0  0  0  0  0  0  0  0  0  0
  148.2000  139.6128  152.9334 H   0  0  0  0  0  0  0  0  0  0  0  0
  153.2607  139.5556  157.9518 H   0  0  0  0  0  0  0  0  0  0  0  0
  154.7702  139.8348  159.7440 H   0  0  0  0  0  0  0  0  0  0  0  0
  154.0975  140.6202  161.1713 H   0  0  0  0  0  0  0  0  0  0  0  0
  155.1654  141.5187  160.0826 H   0  0  0  0  0  0  0  0  0  0  0  0
  148.4904  137.2729  153.4209 H   0  0  0  0  0  0  0  0  0  0  0  0
  1  2  1  0  0  0  0
  1 23  1  0  0  0  0
  1 24  1  0  0  0  0
  1 25  1  0  0  0  0
  2 21  1  0  0  0  0
  2  3  2  0  0  0  0
  3  4  1  0  0  0  0
  3 26  1  0  0  0  0
  4 19  2  0  0  0  0
  4  5  1  0  0  0  0
  5  6  2  0  0  0  0
  6  7  1  0  0  0  0
  6 27  1  0  0  0  0
  7  8  1  0  0  0  0
  7 19  1  0  0  0  0
  8  9  1  0  0  0  0
  8 28  1  0  0  0  0
  8 29  1  0  0  0  0
  9 10  1  0  0  0  0
  9 11  1  0  0  0  0
  9 30  1  0  0  0  0
 10 31  1  0  0  0  0
 11 12  1  0  0  0  0
 11 32  1  0  0  0  0
 11 33  1  0  0  0  0
 12 18  1  0  0  0  0
 12 13  1  0  0  0  0
 12 48  1  0  0  0  0
 13 14  1  0  0  0  0
 13 34  1  0  0  0  0
 13 35  1  0  0  0  0
 14 15  1  0  0  0  0
 14 36  1  0  0  0  0
 14 37  1  0  0  0  0
 15 16  1  0  0  0  0
 15 38  1  0  0  0  0
 15 39  1  0  0  0  0
 16 17  1  0  0  0  0
 16 18  1  0  0  0  0
 16 40  1  0  0  0  0
 17 41  1  0  0  0  0
 18 42  1  0  0  0  0
 18 43  1  0  0  0  0
 19 20  1  0  0  0  0
 20 21  2  0  0  0  0
 20 44  1  0  0  0  0
 21 22  1  0  0  0  0
 22 45  1  0  0  0  0
 22 46  1  0  0  0  0
 22 47  1  0  0  0  0
M  CHG  1  12   1
M  END
> <s_m_source_file>
AV-unprocessed.smi

> <i_m_source_file_index>
1487

> <i_lp_mmshare_version>
43012

> <i_f3d_flags>
0

> <s_epik_input>
W0NIM11jKFtjSF0xKWMoW0NIM10pW2NIXWMoYzEyKW4oW2NIXW4yKVtDSDJdW0NASF0oW09IXSlbQ0gyXU4zW0NIMl1bQ0gyXVtDSDJdW0NAQEhdKFtPSF0pW0NIMl0z

> <s_epik_cmdline>
J2VwaWtfcHl0aG9uJywgJy1waCcsICc3LjAnLCAnLXRuJywgJzgnLCAnLW1hJywgJzIwMCcsICctbWV0YWxfYmluZGluZycsICctaW1hZScsICc8aW5maWxlLm1hZT4nLCAnLW9tYWUnLCAnPG91dGZpbGUubWFlPic=

> <r_epik_Ionization_Penalty>
0.0940186

> <r_epik_Ionization_Penalty_Charging>
0.00679686

> <r_epik_Ionization_Penalty_Neutral>
0.0872218

> <r_epik_State_Penalty>
0.0799311

> <r_epik_Charging_Adjusted_Penalty>
0.086728

> <i_epik_Tot_Q>
1

> <i_epik_Tot_abs_Q>
1

> <r_epik_Metal_State_Penalty>
7.95545e-05

> <b_epik_Metal_Only>
0

> <s_lp_Force_Field>
OPLS_2005

> <r_lp_Energy>
22.2404

> <b_lp_Chiralities_Consistent>
1

> <s_lp_Variant>
AV-unprocessed.smi:1487-6

> <Gold.Version>
5.8.1

> <Gold.Id.Protein>
6NUR|6NUR_protein|mol2

> <Gold.PLP.Fitness>
54.4267

> <Gold.PLP.PLP>
-40.8912

> <Gold.PLP.part.hbond>
-5.4009

> <Gold.PLP.part.metal>
0.0000

> <Gold.PLP.part.buried>
-5.6008

> <Gold.PLP.part.nonpolar>
-33.6427

> <Gold.PLP.part.repulsive>
1.2179

> <Gold.PLP.ligand.clash>
0.0000

> <Gold.PLP.ligand.torsion>
0.2485

> <Gold.PLP.Chemscore.Hbond>
4.6658

> <Gold.PLP.Chemscore.CHOScore>
0.0000

> <Gold.PLP.Chemscore.Metal>
0.0000

> <Gold.Chemscore.Hbonds>
donor molecule, donor type, donor heavy atom, donor atom, acceptor molecule, acceptor atom, score
      L1  H    10    31       P1  7948  0.83
      L1  H    12    48       P1  7948  2.00
      L1  H    17    41       P1  7948  1.00
      P1  H  7954  7966       L1    17  0.55

> <Gold.PLP.Chemscore.Internal.Correction>
0.0352

> <Gold.Rescore>
     Score         DG    S(hbond)    S(metal)    S(lipo)     H(rot)  DE(clash)    DE(int)     intcor
     19.57     -19.73       2.66        0.00     104.27       2.67       0.04       0.12       ----

> <Gold.Chemscore.Fitness>
19.5664

> <Gold.Chemscore.DG>
-19.7271

> <Gold.Chemscore.ZeroCoef>
-5.4800

> <Gold.Chemscore.Hbond>
2.6603

> <Gold.Chemscore.Metal>
0.0000

> <Gold.Chemscore.Lipo>
104.2745

> <Gold.Chemscore.Internal_Hbond>
0.0000

> <Gold.Chemscore.DEClash>
0.0431

> <Gold.Chemscore.DEInternal>
0.1175

> <Gold.Chemscore.Rot>
2.6712

> <Gold.Chemscore.Internal.Correction>
   9.000000E+99

> <Gold.Chemscore.Hbonds>
donor molecule, donor type, donor heavy atom, donor atom, acceptor molecule, acceptor atom, score
      L1  H    10    31       P1  7948  0.18
      L1  H    12    48       P1  7948  0.99
      L1  H    17    41       P1  7948  0.93
      P1  H  7954  7966       L1    17  0.03

> <Gold.Chemscore.Hbond.Weighted>
-8.8853

> <Gold.Chemscore.Metal.Weighted>
-0.0000

> <Gold.Chemscore.Lipo.Weighted>
-12.2001

> <Gold.Chemscore.Internal_Hbond.Weighted>
0.0000

> <Gold.Chemscore.DEClash.Weighted>
0.0431

> <Gold.Chemscore.DEInternal.Weighted>
0.1175

> <Gold.Chemscore.Rot.Weighted>
6.8383

> <Gold.Chemscore.Internal.Correction.Weighted>
   9.000000E+99

> <Gold.Protein.RotatedTorsions>
[ 6907 6896 6895 6894 ] final   54.79 input  -60.11 | X-H torsion
[ 7974 7965 7964 7962 ] final  157.44 input  175.53 | X-H torsion
[ 8008 7997 7996 7995 ] final   44.22 input   59.86 | X-H torsion
[ 10167 10162 10161 10158 ] final -116.76 input  -65.29 | X-H torsion
[ 10718 10713 10712 10709 ] final -127.46 input   66.30 | X-H torsion
[ 10763 10752 10751 10750 ] final  168.28 input  -60.55 | X-H torsion
[ 11005 11000 10999 10996 ] final   43.51 input  -57.11 | X-H torsion

> <Gold.Protein.ActiveResidues>
 VAL166  LYS551  ARG553  GLY616  TRP617  ASP618  TYR619  PRO620  LYS621  CYS622 
 ASP623  PHE694  ASN695  SER759  ASP760  ASP761  ALA762  ILE779  LEU786  VAL792 
 PHE793  MET794  SER795  GLU796  ALA797  LYS798  CYS799  TRP800  GLU811  SER814 

> <Gold.Protein.RotatedAtoms>
  152.3475  134.7051  160.0245 H   0  0  0  0  0  0  0  0  0  0  0  0  # atno 6907 bound_to 6896
  151.7416  133.3317  159.3375 H   0  0  0  0  0  0  0  0  0  0  0  0  # atno 6908 bound_to 6896
  150.7518  134.6206  159.6178 H   0  0  0  0  0  0  0  0  0  0  0  0  # atno 6909 bound_to 6896
  144.7903  139.7341  143.6224 H   0  0  0  0  0  0  0  0  0  0  0  0  # atno 7974 bound_to 7965
  155.3157  140.3394  155.4242 H   0  0  0  0  0  0  0  0  0  0  0  0  # atno 8008 bound_to 7997
  156.1934  140.1706  156.8085 H   0  0  0  0  0  0  0  0  0  0  0  0  # atno 8009 bound_to 7997
  154.5469  140.0713  156.8587 H   0  0  0  0  0  0  0  0  0  0  0  0  # atno 8010 bound_to 7997
  140.0757  143.4835  152.1954 H   0  0  0  0  0  0  0  0  0  0  0  0  # atno 10167 bound_to 10162
  156.1859  130.6763  151.0364 H   0  0  0  0  0  0  0  0  0  0  0  0  # atno 10718 bound_to 10713
  154.3662  135.2753  155.2292 H   0  0  0  0  0  0  0  0  0  0  0  0  # atno 10763 bound_to 10752
  154.4459  135.5943  153.6163 H   0  0  0  0  0  0  0  0  0  0  0  0  # atno 10764 bound_to 10752
  152.9840  135.6030  154.3888 H   0  0  0  0  0  0  0  0  0  0  0  0  # atno 10765 bound_to 10752
  140.1638  134.4308  155.8300 H   0  0  0  0  0  0  0  0  0  0  0  0  # atno 11005 bound_to 11000
  146.2152  139.5537  142.9654 LP  0  0  0  0  0  0  0  0  0  0  0  0  # atno 17320 bound_to 7965
  145.5811  141.0382  143.2121 LP  0  0  0  0  0  0  0  0  0  0  0  0  # atno 17321 bound_to 7965
  139.5809  144.7510  151.3643 LP  0  0  0  0  0  0  0  0  0  0  0  0  # atno 17342 bound_to 10162
  140.7103  143.7408  150.7555 LP  0  0  0  0  0  0  0  0  0  0  0  0  # atno 17343 bound_to 10162
  157.6898  131.0813  150.7139 LP  0  0  0  0  0  0  0  0  0  0  0  0  # atno 17370 bound_to 10713
  156.7196  130.4676  149.5526 LP  0  0  0  0  0  0  0  0  0  0  0  0  # atno 17371 bound_to 10713
  141.2212  133.6925  156.7641 LP  0  0  0  0  0  0  0  0  0  0  0  0  # atno 17394 bound_to 11000
  140.2458  134.8578  157.3619 LP  0  0  0  0  0  0  0  0  0  0  0  0  # atno 17395 bound_to 11000

$$$$
