AV-unprocessed.smi:1207|AV-procd|sdf|5053|dock2
  -GOLD-   22720 4 83D 1   1.00000     0.00000
 Structure written by MMmdl.
 52 54  0  0  0  0  0  0  0  0  2 V2000
  152.1617  142.9281  160.8096 C   0  0  0  0  0  0  0  0  0  0  0  0
  151.7861  142.2611  159.4979 C   0  0  0  0  0  0  0  0  0  0  0  0
  152.5934  141.2111  159.0056 C   0  0  0  0  0  0  0  0  0  0  0  0
  152.2789  140.5640  157.7911 C   0  0  0  0  0  0  0  0  0  0  0  0
  152.9151  139.5238  157.1360 N   0  0  0  0  0  0  0  0  0  0  0  0
  152.1442  139.3697  156.0640 C   0  0  0  0  0  0  0  0  0  0  0  0
  151.0771  140.1835  155.9500 N   0  0  0  0  0  0  0  0  0  0  0  0
  150.0978  140.1877  154.8789 C   0  0  0  0  0  0  0  0  0  0  0  0
  149.6784  138.7644  154.4649 C   0  0  2  0  0  0  0  0  0  0  0  0
  150.5173  138.3561  153.4036 O   0  0  0  0  0  0  0  0  0  0  0  0
  148.2077  138.6621  154.0025 C   0  0  0  0  0  0  0  0  0  0  0  0
  147.8341  137.2710  153.6435 N   0  3  2  0  0  0  0  0  0  0  0  0
  146.4632  137.1864  153.0873 C   0  0  0  0  0  0  0  0  0  0  0  0
  148.0658  136.3066  154.7502 C   0  0  0  0  0  0  0  0  0  0  0  0
  148.5579  134.9826  154.2281 C   0  0  0  0  0  0  0  0  0  0  0  0
  147.8900  134.0706  153.3600 C   0  0  0  0  0  0  0  0  0  0  0  0
  146.5262  134.1868  152.7413 C   0  0  0  0  0  0  0  0  0  0  0  0
  148.6250  133.0003  153.1116 N   0  0  0  0  0  0  0  0  0  0  0  0
  149.8156  133.1771  153.8227 O   0  0  0  0  0  0  0  0  0  0  0  0
  149.7506  134.3617  154.4804 C   0  0  0  0  0  0  0  0  0  0  0  0
  150.9379  134.7309  155.3041 C   0  0  0  0  0  0  0  0  0  0  0  0
  151.1262  141.0007  157.0748 C   0  0  0  0  0  0  0  0  0  0  0  0
  150.3155  142.0454  157.5536 C   0  0  0  0  0  0  0  0  0  0  0  0
  150.6435  142.6801  158.7700 C   0  0  0  0  0  0  0  0  0  0  0  0
  149.7627  143.8071  159.2794 C   0  0  0  0  0  0  0  0  0  0  0  0
  153.0453  142.4671  161.2517 H   0  0  0  0  0  0  0  0  0  0  0  0
  151.3474  142.8453  161.5296 H   0  0  0  0  0  0  0  0  0  0  0  0
  152.3792  143.9844  160.6515 H   0  0  0  0  0  0  0  0  0  0  0  0
  153.4640  140.8921  159.5598 H   0  0  0  0  0  0  0  0  0  0  0  0
  152.3634  138.6172  155.3205 H   0  0  0  0  0  0  0  0  0  0  0  0
  149.2312  140.7685  155.1970 H   0  0  0  0  0  0  0  0  0  0  0  0
  150.5313  140.7157  154.0280 H   0  0  0  0  0  0  0  0  0  0  0  0
  149.8618  138.0949  155.3050 H   0  0  0  0  0  0  0  0  0  0  0  0
  150.1959  137.5356  153.0610 H   0  0  0  0  0  0  0  0  0  0  0  0
  147.5213  139.0145  154.7728 H   0  0  0  0  0  0  0  0  0  0  0  0
  148.0664  139.3271  153.1489 H   0  0  0  0  0  0  0  0  0  0  0  0
  145.7192  137.4575  153.8377 H   0  0  0  0  0  0  0  0  0  0  0  0
  146.2422  136.1796  152.7335 H   0  0  0  0  0  0  0  0  0  0  0  0
  146.3496  137.8573  152.2351 H   0  0  0  0  0  0  0  0  0  0  0  0
  148.7967  136.7128  155.4488 H   0  0  0  0  0  0  0  0  0  0  0  0
  147.1480  136.1960  155.3294 H   0  0  0  0  0  0  0  0  0  0  0  0
  146.2694  135.2262  152.5392 H   0  0  0  0  0  0  0  0  0  0  0  0
  145.7624  133.7788  153.4032 H   0  0  0  0  0  0  0  0  0  0  0  0
  146.4690  133.6469  151.7954 H   0  0  0  0  0  0  0  0  0  0  0  0
  150.8435  135.7413  155.7012 H   0  0  0  0  0  0  0  0  0  0  0  0
  151.8498  134.6886  154.7082 H   0  0  0  0  0  0  0  0  0  0  0  0
  151.0511  134.0471  156.1453 H   0  0  0  0  0  0  0  0  0  0  0  0
  149.4475  142.3554  156.9911 H   0  0  0  0  0  0  0  0  0  0  0  0
  148.9371  144.0081  158.5962 H   0  0  0  0  0  0  0  0  0  0  0  0
  150.3405  144.7254  159.3851 H   0  0  0  0  0  0  0  0  0  0  0  0
  149.3385  143.5510  160.2504 H   0  0  0  0  0  0  0  0  0  0  0  0
  148.4578  137.0089  152.8931 H   0  0  0  0  0  0  0  0  0  0  0  0
  1  2  1  0  0  0  0
  1 26  1  0  0  0  0
  1 27  1  0  0  0  0
  1 28  1  0  0  0  0
  2 24  1  0  0  0  0
  2  3  2  0  0  0  0
  3  4  1  0  0  0  0
  3 29  1  0  0  0  0
  4 22  2  0  0  0  0
  4  5  1  0  0  0  0
  5  6  2  0  0  0  0
  6  7  1  0  0  0  0
  6 30  1  0  0  0  0
  7  8  1  0  0  0  0
  7 22  1  0  0  0  0
  8  9  1  0  0  0  0
  8 31  1  0  0  0  0
  8 32  1  0  0  0  0
  9 10  1  0  0  0  0
  9 11  1  0  0  0  0
  9 33  1  0  0  0  0
 10 34  1  0  0  0  0
 11 12  1  0  0  0  0
 11 35  1  0  0  0  0
 11 36  1  0  0  0  0
 12 13  1  0  0  0  0
 12 14  1  0  0  0  0
 12 52  1  0  0  0  0
 13 37  1  0  0  0  0
 13 38  1  0  0  0  0
 13 39  1  0  0  0  0
 14 15  1  0  0  0  0
 14 40  1  0  0  0  0
 14 41  1  0  0  0  0
 15 20  2  0  0  0  0
 15 16  1  0  0  0  0
 16 17  1  0  0  0  0
 16 18  2  0  0  0  0
 17 42  1  0  0  0  0
 17 43  1  0  0  0  0
 17 44  1  0  0  0  0
 18 19  1  0  0  0  0
 19 20  1  0  0  0  0
 20 21  1  0  0  0  0
 21 45  1  0  0  0  0
 21 46  1  0  0  0  0
 21 47  1  0  0  0  0
 22 23  1  0  0  0  0
 23 24  2  0  0  0  0
 23 48  1  0  0  0  0
 24 25  1  0  0  0  0
 25 49  1  0  0  0  0
 25 50  1  0  0  0  0
 25 51  1  0  0  0  0
M  CHG  1  12   1
M  END
> <s_m_source_file>
AV-unprocessed.smi

> <i_m_source_file_index>
1207

> <i_lp_mmshare_version>
43012

> <i_f3d_flags>
0

> <s_epik_input>
W0NIM11jKFtjSF0xKWMoW0NIM10pW2NIXWMoYzEyKW4oW2NIXW4yKVtDSDJdW0NASF0oW09IXSlbQ0gyXU4oW0NIM10pW0NIMl1jM2MoW0NIM10pbm9jM1tDSDNd

> <s_epik_cmdline>
J2VwaWtfcHl0aG9uJywgJy1waCcsICc3LjAnLCAnLXRuJywgJzgnLCAnLW1hJywgJzIwMCcsICctbWV0YWxfYmluZGluZycsICctaW1hZScsICc8aW5maWxlLm1hZT4nLCAnLW9tYWUnLCAnPG91dGZpbGUubWFlPic=

> <r_epik_Ionization_Penalty>
0.646518

> <r_epik_Ionization_Penalty_Charging>
0.559419

> <r_epik_Ionization_Penalty_Neutral>
0.0870981

> <r_epik_State_Penalty>
0.661677

> <r_epik_Charging_Adjusted_Penalty>
1.2211

> <i_epik_Tot_Q>
1

> <i_epik_Tot_abs_Q>
1

> <r_epik_Metal_State_Penalty>
0.649158

> <b_epik_Metal_Only>
0

> <s_lp_Force_Field>
OPLS_2005

> <r_lp_Energy>
8.09653

> <b_lp_Chiralities_Consistent>
1

> <s_lp_Variant>
AV-unprocessed.smi:1207-5

> <Gold.Version>
5.8.1

> <Gold.Id.Protein>
6NUR|6NUR_protein|mol2

> <Gold.PLP.Fitness>
50.7576

> <Gold.PLP.PLP>
-40.2369

> <Gold.PLP.part.hbond>
-4.6282

> <Gold.PLP.part.metal>
0.0000

> <Gold.PLP.part.buried>
-1.9105

> <Gold.PLP.part.nonpolar>
-32.8113

> <Gold.PLP.part.repulsive>
0.2418

> <Gold.PLP.ligand.clash>
0.0000

> <Gold.PLP.ligand.torsion>
1.1065

> <Gold.PLP.Chemscore.Hbond>
4.0000

> <Gold.PLP.Chemscore.CHOScore>
0.0000

> <Gold.PLP.Chemscore.Metal>
0.0000

> <Gold.Chemscore.Hbonds>
donor molecule, donor type, donor heavy atom, donor atom, acceptor molecule, acceptor atom, score
      L1  H    10    34       P1  7948  0.60
      L1  H    12    52       P1  7948  1.24
      P1  H  7997  8009       L1     5  1.00

> <Gold.PLP.Chemscore.Internal.Correction>
0.7336

> <Gold.Rescore>
     Score         DG    S(hbond)    S(metal)    S(lipo)     H(rot)  DE(clash)    DE(int)     intcor
     18.81     -19.93       2.75        0.00      98.65       2.46       0.03       1.08       ----

> <Gold.Chemscore.Fitness>
18.8115

> <Gold.Chemscore.DG>
-19.9265

> <Gold.Chemscore.ZeroCoef>
-5.4800

> <Gold.Chemscore.Hbond>
2.7524

> <Gold.Chemscore.Metal>
0.0000

> <Gold.Chemscore.Lipo>
98.6503

> <Gold.Chemscore.Internal_Hbond>
0.0000

> <Gold.Chemscore.DEClash>
0.0332

> <Gold.Chemscore.DEInternal>
1.0819

> <Gold.Chemscore.Rot>
2.4565

> <Gold.Chemscore.Internal.Correction>
   9.000000E+99

> <Gold.Chemscore.Hbonds>
donor molecule, donor type, donor heavy atom, donor atom, acceptor molecule, acceptor atom, score
      L1  H    10    34       P1  7948  0.07
      L1  H    12    52       P1  7948  0.62
      P1  H  7997  8009       L1     5  0.29

> <Gold.Chemscore.Hbond.Weighted>
-9.1932

> <Gold.Chemscore.Metal.Weighted>
-0.0000

> <Gold.Chemscore.Lipo.Weighted>
-11.5421

> <Gold.Chemscore.Internal_Hbond.Weighted>
0.0000

> <Gold.Chemscore.DEClash.Weighted>
0.0332

> <Gold.Chemscore.DEInternal.Weighted>
1.0819

> <Gold.Chemscore.Rot.Weighted>
6.2887

> <Gold.Chemscore.Internal.Correction.Weighted>
   9.000000E+99

> <Gold.Protein.RotatedTorsions>
[ 6907 6896 6895 6894 ] final -114.73 input  -60.11 | X-H torsion
[ 7974 7965 7964 7962 ] final  -64.62 input  175.53 | X-H torsion
[ 8008 7997 7996 7995 ] final -171.68 input   59.86 | X-H torsion
[ 10167 10162 10161 10158 ] final   56.02 input  -65.29 | X-H torsion
[ 10718 10713 10712 10709 ] final   25.38 input   66.30 | X-H torsion
[ 10763 10752 10751 10750 ] final   -7.78 input  -60.55 | X-H torsion
[ 11005 11000 10999 10996 ] final  129.39 input  -57.11 | X-H torsion

> <Gold.Protein.ActiveResidues>
 VAL166  LYS551  ARG553  GLY616  TRP617  ASP618  TYR619  PRO620  LYS621  CYS622 
 ASP623  PHE694  ASN695  SER759  ASP760  ASP761  ALA762  ILE779  LEU786  VAL792 
 PHE793  MET794  SER795  GLU796  ALA797  LYS798  CYS799  TRP800  GLU811  SER814 

> <Gold.Protein.RotatedAtoms>
  150.7924  133.8760  159.3271 H   0  0  0  0  0  0  0  0  0  0  0  0  # atno 6907 bound_to 6896
  151.6594  135.0989  160.0186 H   0  0  0  0  0  0  0  0  0  0  0  0  # atno 6908 bound_to 6896
  152.4000  133.6765  159.6343 H   0  0  0  0  0  0  0  0  0  0  0  0  # atno 6909 bound_to 6896
  145.7644  140.8845  143.0413 H   0  0  0  0  0  0  0  0  0  0  0  0  # atno 7974 bound_to 7965
  155.9347  140.1097  157.1104 H   0  0  0  0  0  0  0  0  0  0  0  0  # atno 8008 bound_to 7997
  154.4077  140.1231  156.4914 H   0  0  0  0  0  0  0  0  0  0  0  0  # atno 8009 bound_to 7997
  155.7037  140.3471  155.4946 H   0  0  0  0  0  0  0  0  0  0  0  0  # atno 8010 bound_to 7997
  140.2133  144.3866  150.6480 H   0  0  0  0  0  0  0  0  0  0  0  0  # atno 10167 bound_to 10162
  157.1925  130.6853  149.6156 H   0  0  0  0  0  0  0  0  0  0  0  0  # atno 10718 bound_to 10713
  153.4312  135.7012  153.6230 H   0  0  0  0  0  0  0  0  0  0  0  0  # atno 10763 bound_to 10752
  153.4644  135.3729  155.2356 H   0  0  0  0  0  0  0  0  0  0  0  0  # atno 10764 bound_to 10752
  154.8725  135.4027  154.3696 H   0  0  0  0  0  0  0  0  0  0  0  0  # atno 10765 bound_to 10752
  139.9613  134.9601  156.9141 H   0  0  0  0  0  0  0  0  0  0  0  0  # atno 11005 bound_to 11000
  144.6824  139.9768  143.7483 LP  0  0  0  0  0  0  0  0  0  0  0  0  # atno 17320 bound_to 7965
  146.0232  139.3269  143.0800 LP  0  0  0  0  0  0  0  0  0  0  0  0  # atno 17321 bound_to 7965
  140.6308  143.2187  151.6499 LP  0  0  0  0  0  0  0  0  0  0  0  0  # atno 17342 bound_to 10162
  139.5172  144.3324  152.0814 LP  0  0  0  0  0  0  0  0  0  0  0  0  # atno 17343 bound_to 10162
  155.9710  130.4610  150.6092 LP  0  0  0  0  0  0  0  0  0  0  0  0  # atno 17370 bound_to 10713
  157.3846  131.0786  151.1447 LP  0  0  0  0  0  0  0  0  0  0  0  0  # atno 17371 bound_to 10713
  140.5494  134.0642  155.7365 LP  0  0  0  0  0  0  0  0  0  0  0  0  # atno 17394 bound_to 11000
  141.1290  133.9334  157.2575 LP  0  0  0  0  0  0  0  0  0  0  0  0  # atno 17395 bound_to 11000

$$$$
