AV-unprocessed.smi:1329|AV-procd|sdf|5483|dock6
  -GOLD-   22720 5 53D 1   1.00000     0.00000
 Structure written by MMmdl.
 42 43  0  0  0  0  0  0  0  0  1 V2000
  151.0889  144.5381  160.4417 C   0  0  0  0  0  0  0  0  0  0  0  0
  151.6026  143.1840  160.0324 C   0  0  0  0  0  0  0  0  0  0  0  0
  151.0236  142.6248  159.0210 N   0  0  0  0  0  0  0  0  0  0  0  0
  151.4179  141.3836  158.5634 N   0  0  0  0  0  0  0  0  0  0  0  0
  150.6508  140.9035  157.4084 C   0  0  0  0  0  0  0  0  0  0  0  0
  150.7981  141.8391  156.1878 C   0  0  2  0  0  0  0  0  0  0  0  0
  150.5139  143.1628  156.5941 O   0  0  0  0  0  0  0  0  0  0  0  0
  149.8144  141.4838  155.0634 C   0  0  0  0  0  0  0  0  0  0  0  0
  148.4946  141.5582  155.5762 O   0  0  0  0  0  0  0  0  0  0  0  0
  147.4997  141.4973  154.5674 C   0  0  0  0  0  0  0  0  0  0  0  0
  146.3629  142.4693  154.8258 C   0  0  0  0  0  0  0  0  0  0  0  0
  145.7053  142.4902  156.0750 C   0  0  0  0  0  0  0  0  0  0  0  0
  144.6404  143.3841  156.3003 C   0  0  0  0  0  0  0  0  0  0  0  0
  144.2228  144.2562  155.2765 C   0  0  0  0  0  0  0  0  0  0  0  0
  144.8695  144.2321  154.0258 C   0  0  0  0  0  0  0  0  0  0  0  0
  145.9352  143.3388  153.8003 C   0  0  0  0  0  0  0  0  0  0  0  0
  152.4294  140.6419  159.0994 C   0  0  0  0  0  0  0  0  0  0  0  0
  152.7578  139.5437  158.6478 O   0  0  0  0  0  0  0  0  0  0  0  0
  153.0789  141.2795  160.2470 C   0  0  0  0  0  0  0  0  0  0  0  0
  154.1420  140.5355  160.8417 C   0  0  0  0  0  0  0  0  0  0  0  0
  155.0079  139.9483  161.3371 N   0  0  0  0  0  0  0  0  0  0  0  0
  152.6961  142.4955  160.7111 C   0  0  0  0  0  0  0  0  0  0  0  0
  153.3389  143.2010  161.8975 C   0  0  0  0  0  0  0  0  0  0  0  0
  151.8940  145.2732  160.4504 H   0  0  0  0  0  0  0  0  0  0  0  0
  150.6544  144.4999  161.4408 H   0  0  0  0  0  0  0  0  0  0  0  0
  150.3184  144.9040  159.7613 H   0  0  0  0  0  0  0  0  0  0  0  0
  151.0025  139.9015  157.1556 H   0  0  0  0  0  0  0  0  0  0  0  0
  149.5978  140.7666  157.6635 H   0  0  0  0  0  0  0  0  0  0  0  0
  151.8121  141.8105  155.7872 H   0  0  0  0  0  0  0  0  0  0  0  0
  149.7534  143.4636  156.1206 H   0  0  0  0  0  0  0  0  0  0  0  0
  149.9374  142.1606  154.2159 H   0  0  0  0  0  0  0  0  0  0  0  0
  150.0031  140.4698  154.7059 H   0  0  0  0  0  0  0  0  0  0  0  0
  147.9494  141.7201  153.5984 H   0  0  0  0  0  0  0  0  0  0  0  0
  147.0854  140.4897  154.5123 H   0  0  0  0  0  0  0  0  0  0  0  0
  146.0133  141.8221  156.8661 H   0  0  0  0  0  0  0  0  0  0  0  0
  144.1424  143.3991  157.2586 H   0  0  0  0  0  0  0  0  0  0  0  0
  143.4055  144.9408  155.4495 H   0  0  0  0  0  0  0  0  0  0  0  0
  144.5472  144.8978  153.2387 H   0  0  0  0  0  0  0  0  0  0  0  0
  146.4238  143.3241  152.8370 H   0  0  0  0  0  0  0  0  0  0  0  0
  154.0782  142.5759  162.3975 H   0  0  0  0  0  0  0  0  0  0  0  0
  152.5873  143.4701  162.6403 H   0  0  0  0  0  0  0  0  0  0  0  0
  153.8421  144.1118  161.5711 H   0  0  0  0  0  0  0  0  0  0  0  0
  1  2  1  0  0  0  0
  1 24  1  0  0  0  0
  1 25  1  0  0  0  0
  1 26  1  0  0  0  0
  2 22  1  0  0  0  0
  2  3  2  0  0  0  0
  3  4  1  0  0  0  0
  4  5  1  0  0  0  0
  4 17  1  0  0  0  0
  5  6  1  0  0  0  0
  5 27  1  0  0  0  0
  5 28  1  0  0  0  0
  6  7  1  0  0  0  0
  6  8  1  0  0  0  0
  6 29  1  0  0  0  0
  7 30  1  0  0  0  0
  8  9  1  0  0  0  0
  8 31  1  0  0  0  0
  8 32  1  0  0  0  0
  9 10  1  0  0  0  0
 10 11  1  0  0  0  0
 10 33  1  0  0  0  0
 10 34  1  0  0  0  0
 11 16  1  0  0  0  0
 11 12  2  0  0  0  0
 12 13  1  0  0  0  0
 12 35  1  0  0  0  0
 13 14  2  0  0  0  0
 13 36  1  0  0  0  0
 14 15  1  0  0  0  0
 14 37  1  0  0  0  0
 15 16  2  0  0  0  0
 15 38  1  0  0  0  0
 16 39  1  0  0  0  0
 17 18  2  0  0  0  0
 17 19  1  0  0  0  0
 19 20  1  0  0  0  0
 19 22  2  0  0  0  0
 20 21  3  0  0  0  0
 22 23  1  0  0  0  0
 23 40  1  0  0  0  0
 23 41  1  0  0  0  0
 23 42  1  0  0  0  0
M  END
> <s_m_source_file>
AV-unprocessed.smi

> <i_m_source_file_index>
1329

> <i_lp_mmshare_version>
43012

> <i_f3d_flags>
0

> <s_epik_input>
TiNDYyhjMVtDSDNdKWMoPU8pbihuYzFbQ0gzXSlbQ0gyXVtDQEhdKFtPSF0pW0NIMl1PW0NIMl1jMltjSF1bY0hdW2NIXVtjSF1bY0hdMg==

> <s_epik_cmdline>
J2VwaWtfcHl0aG9uJywgJy1waCcsICc3LjAnLCAnLXRuJywgJzgnLCAnLW1hJywgJzIwMCcsICctbWV0YWxfYmluZGluZycsICctaW1hZScsICc8aW5maWxlLm1hZT4nLCAnLW9tYWUnLCAnPG91dGZpbGUubWFlPic=

> <r_lp_tautomer_probability>
1

> <r_epik_Ionization_Penalty>
6.13319e-08

> <r_epik_Ionization_Penalty_Charging>
2.19172e-10

> <r_epik_Ionization_Penalty_Neutral>
6.11128e-08

> <r_epik_State_Penalty>
-0

> <r_epik_Charging_Adjusted_Penalty>
2.19172e-10

> <i_epik_Tot_Q>
0

> <i_epik_Tot_abs_Q>
0

> <r_epik_Metal_State_Penalty>
-0

> <b_epik_Metal_Only>
0

> <s_lp_Force_Field>
OPLS_2005

> <r_lp_Energy>
29.8656

> <b_lp_Chiralities_Consistent>
1

> <s_lp_Variant>
AV-unprocessed.smi:1329-1

> <Gold.Version>
5.8.1

> <Gold.Id.Protein>
6NUR|6NUR_protein|mol2

> <Gold.PLP.Fitness>
48.7160

> <Gold.PLP.PLP>
-46.8414

> <Gold.PLP.part.hbond>
-0.4834

> <Gold.PLP.part.metal>
0.0000

> <Gold.PLP.part.buried>
-8.9466

> <Gold.PLP.part.nonpolar>
-37.0071

> <Gold.PLP.part.repulsive>
0.2775

> <Gold.PLP.ligand.clash>
0.0000

> <Gold.PLP.ligand.torsion>
0.4473

> <Gold.PLP.Chemscore.Hbond>
0.9120

> <Gold.PLP.Chemscore.CHOScore>
0.0000

> <Gold.PLP.Chemscore.Metal>
0.0000

> <Gold.Chemscore.Hbonds>
donor molecule, donor type, donor heavy atom, donor atom, acceptor molecule, acceptor atom, score
      L1  H     7    30       P1  8028  0.91

> <Gold.PLP.Chemscore.Internal.Correction>
0.0333

> <Gold.Rescore>
     Score         DG    S(hbond)    S(metal)    S(lipo)     H(rot)  DE(clash)    DE(int)     intcor
     14.25     -14.76       0.92        0.00     107.19       2.48       0.03       0.48       ----

> <Gold.Chemscore.Fitness>
14.2502

> <Gold.Chemscore.DG>
-14.7585

> <Gold.Chemscore.ZeroCoef>
-5.4800

> <Gold.Chemscore.Hbond>
0.9221

> <Gold.Chemscore.Metal>
0.0000

> <Gold.Chemscore.Lipo>
107.1934

> <Gold.Chemscore.Internal_Hbond>
0.0000

> <Gold.Chemscore.DEClash>
0.0294

> <Gold.Chemscore.DEInternal>
0.4788

> <Gold.Chemscore.Rot>
2.4777

> <Gold.Chemscore.Internal.Correction>
   9.000000E+99

> <Gold.Chemscore.Hbonds>
donor molecule, donor type, donor heavy atom, donor atom, acceptor molecule, acceptor atom, score
      L1  H     7    30       P1  8028  0.88

> <Gold.Chemscore.Hbond.Weighted>
-3.0797

> <Gold.Chemscore.Metal.Weighted>
-0.0000

> <Gold.Chemscore.Lipo.Weighted>
-12.5416

> <Gold.Chemscore.Internal_Hbond.Weighted>
0.0000

> <Gold.Chemscore.DEClash.Weighted>
0.0294

> <Gold.Chemscore.DEInternal.Weighted>
0.4788

> <Gold.Chemscore.Rot.Weighted>
6.3428

> <Gold.Chemscore.Internal.Correction.Weighted>
   9.000000E+99

> <Gold.Protein.RotatedTorsions>
[ 6907 6896 6895 6894 ] final   83.25 input  -60.11 | X-H torsion
[ 7974 7965 7964 7962 ] final  -15.19 input  175.53 | X-H torsion
[ 8008 7997 7996 7995 ] final   64.86 input   59.86 | X-H torsion
[ 10167 10162 10161 10158 ] final -124.44 input  -65.29 | X-H torsion
[ 10718 10713 10712 10709 ] final   21.79 input   66.30 | X-H torsion
[ 10763 10752 10751 10750 ] final  128.68 input  -60.55 | X-H torsion
[ 11005 11000 10999 10996 ] final   91.06 input  -57.11 | X-H torsion

> <Gold.Protein.ActiveResidues>
 VAL166  LYS551  ARG553  GLY616  TRP617  ASP618  TYR619  PRO620  LYS621  CYS622 
 ASP623  PHE694  ASN695  SER759  ASP760  ASP761  ALA762  ILE779  LEU786  VAL792 
 PHE793  MET794  SER795  GLU796  ALA797  LYS798  CYS799  TRP800  GLU811  SER814 

> <Gold.Protein.RotatedAtoms>
  152.5322  134.2925  159.9047 H   0  0  0  0  0  0  0  0  0  0  0  0  # atno 6907 bound_to 6896
  151.2876  133.4173  159.2638 H   0  0  0  0  0  0  0  0  0  0  0  0  # atno 6908 bound_to 6896
  151.0228  134.9498  159.8126 H   0  0  0  0  0  0  0  0  0  0  0  0  # atno 6909 bound_to 6896
  146.2042  140.3457  142.8412 H   0  0  0  0  0  0  0  0  0  0  0  0  # atno 7974 bound_to 7965
  155.6527  140.3497  155.4754 H   0  0  0  0  0  0  0  0  0  0  0  0  # atno 8008 bound_to 7997
  155.9834  140.1179  157.0729 H   0  0  0  0  0  0  0  0  0  0  0  0  # atno 8009 bound_to 7997
  154.4198  140.1134  156.5452 H   0  0  0  0  0  0  0  0  0  0  0  0  # atno 8010 bound_to 7997
  139.9928  143.5623  152.2335 H   0  0  0  0  0  0  0  0  0  0  0  0  # atno 10167 bound_to 10162
  157.1434  130.6642  149.5988 H   0  0  0  0  0  0  0  0  0  0  0  0  # atno 10718 bound_to 10713
  153.7295  135.3241  155.3283 H   0  0  0  0  0  0  0  0  0  0  0  0  # atno 10763 bound_to 10752
  154.8330  135.4518  154.1136 H   0  0  0  0  0  0  0  0  0  0  0  0  # atno 10764 bound_to 10752
  153.2279  135.6956  153.8004 H   0  0  0  0  0  0  0  0  0  0  0  0  # atno 10765 bound_to 10752
  139.8845  134.8652  156.3374 H   0  0  0  0  0  0  0  0  0  0  0  0  # atno 11005 bound_to 11000
  144.8754  140.7329  143.6020 LP  0  0  0  0  0  0  0  0  0  0  0  0  # atno 17320 bound_to 7965
  145.3377  139.1741  143.4503 LP  0  0  0  0  0  0  0  0  0  0  0  0  # atno 17321 bound_to 7965
  139.6328  144.7646  151.2501 LP  0  0  0  0  0  0  0  0  0  0  0  0  # atno 17342 bound_to 10162
  140.7448  143.6450  150.8300 LP  0  0  0  0  0  0  0  0  0  0  0  0  # atno 17343 bound_to 10162
  155.9784  130.4770  150.6654 LP  0  0  0  0  0  0  0  0  0  0  0  0  # atno 17370 bound_to 10713
  157.4287  131.0846  151.1060 LP  0  0  0  0  0  0  0  0  0  0  0  0  # atno 17371 bound_to 10713
  140.9681  133.7345  156.0496 LP  0  0  0  0  0  0  0  0  0  0  0  0  # atno 17394 bound_to 11000
  140.7905  134.3623  157.5466 LP  0  0  0  0  0  0  0  0  0  0  0  0  # atno 17395 bound_to 11000

$$$$
