AV-unprocessed.smi:2270|AV-procd|sdf|9154|dock10
  -GOLD-   2272012363D 1   1.00000     0.00000
 Structure written by MMmdl.
 53 54  0  0  0  0  0  0  0  0  2 V2000
  147.4398  137.4220  163.3560 C   0  0  0  0  0  0  0  0  0  0  0  0
  147.6054  136.3930  162.2575 C   0  0  0  0  0  0  0  0  0  0  0  0
  146.9794  135.1345  162.3437 C   0  0  0  0  0  0  0  0  0  0  0  0
  147.1687  134.2269  161.2867 C   0  0  0  0  0  0  0  0  0  0  0  0
  147.9761  134.6085  160.1981 C   0  0  0  0  0  0  0  0  0  0  0  0
  148.5855  135.8895  160.1994 C   0  0  0  0  0  0  0  0  0  0  0  0
  149.3803  136.3117  159.1011 N   0  0  0  0  0  0  0  0  0  0  0  0
  149.6392  137.5676  158.6971 C   0  0  0  0  0  0  0  0  0  0  0  0
  149.2104  138.5893  159.2339 O   0  0  0  0  0  0  0  0  0  0  0  0
  150.4261  137.5754  157.6119 N   0  0  0  0  0  0  0  0  0  0  0  0
  150.9198  138.7712  156.9399 C   0  0  0  0  0  0  0  0  0  0  0  0
  150.2754  138.9846  155.5357 C   0  0  2  0  0  0  0  0  0  0  0  0
  150.9084  138.0812  154.4198 C   0  0  0  0  0  0  0  0  0  0  0  0
  150.6388  136.5788  154.6221 C   0  0  0  0  0  0  0  0  0  0  0  0
  152.4047  138.3503  154.1732 C   0  0  0  0  0  0  0  0  0  0  0  0
  150.3169  140.4014  155.0972 N   0  0  0  0  0  0  0  0  0  0  0  0
  149.0958  140.8772  154.4218 C   0  0  0  0  0  0  0  0  0  0  0  0
  147.9243  141.1032  155.4028 C   0  0  0  0  0  0  0  0  0  0  0  0
  148.3081  142.0692  156.4565 N   0  3  0  0  0  0  0  0  0  0  0  0
  147.2070  142.3565  157.3997 C   0  0  0  0  0  0  0  0  0  0  0  0
  149.5462  141.6252  157.1341 C   0  0  0  0  0  0  0  0  0  0  0  0
  150.6700  141.4216  156.0963 C   0  0  0  0  0  0  0  0  0  0  0  0
  148.3783  136.7620  161.2127 N   0  0  0  0  0  0  0  0  0  0  0  0
  146.7876  137.0533  164.1483 H   0  0  0  0  0  0  0  0  0  0  0  0
  147.0046  138.3381  162.9557 H   0  0  0  0  0  0  0  0  0  0  0  0
  148.4070  137.6641  163.7971 H   0  0  0  0  0  0  0  0  0  0  0  0
  146.3659  134.8705  163.1927 H   0  0  0  0  0  0  0  0  0  0  0  0
  146.6986  133.2549  161.3072 H   0  0  0  0  0  0  0  0  0  0  0  0
  148.1051  133.9203  159.3764 H   0  0  0  0  0  0  0  0  0  0  0  0
  149.7104  135.5723  158.4989 H   0  0  0  0  0  0  0  0  0  0  0  0
  150.7246  136.6872  157.2361 H   0  0  0  0  0  0  0  0  0  0  0  0
  150.6772  139.5904  157.6148 H   0  0  0  0  0  0  0  0  0  0  0  0
  152.0077  138.7525  156.8558 H   0  0  0  0  0  0  0  0  0  0  0  0
  149.2269  138.7087  155.6382 H   0  0  0  0  0  0  0  0  0  0  0  0
  150.4287  138.2980  153.4693 H   0  0  0  0  0  0  0  0  0  0  0  0
  151.2051  136.1568  155.4504 H   0  0  0  0  0  0  0  0  0  0  0  0
  150.9190  136.0161  153.7312 H   0  0  0  0  0  0  0  0  0  0  0  0
  149.5811  136.3885  154.8051 H   0  0  0  0  0  0  0  0  0  0  0  0
  153.0227  138.0334  155.0129 H   0  0  0  0  0  0  0  0  0  0  0  0
  152.5910  139.4108  154.0013 H   0  0  0  0  0  0  0  0  0  0  0  0
  152.7564  137.8109  153.2933 H   0  0  0  0  0  0  0  0  0  0  0  0
  149.3279  141.8188  153.9223 H   0  0  0  0  0  0  0  0  0  0  0  0
  148.7736  140.2069  153.6288 H   0  0  0  0  0  0  0  0  0  0  0  0
  147.0683  141.4985  154.8547 H   0  0  0  0  0  0  0  0  0  0  0  0
  147.5966  140.1656  155.8527 H   0  0  0  0  0  0  0  0  0  0  0  0
  146.9169  141.4599  157.9494 H   0  0  0  0  0  0  0  0  0  0  0  0
  146.3319  142.7288  156.8661 H   0  0  0  0  0  0  0  0  0  0  0  0
  147.5069  143.1183  158.1199 H   0  0  0  0  0  0  0  0  0  0  0  0
  149.8519  142.3835  157.8558 H   0  0  0  0  0  0  0  0  0  0  0  0
  149.3543  140.7113  157.6975 H   0  0  0  0  0  0  0  0  0  0  0  0
  151.6175  141.1916  156.5818 H   0  0  0  0  0  0  0  0  0  0  0  0
  150.8477  142.3641  155.5760 H   0  0  0  0  0  0  0  0  0  0  0  0
  148.5289  142.9373  155.9897 H   0  0  0  0  0  0  0  0  0  0  0  0
  1  2  1  0  0  0  0
  1 24  1  0  0  0  0
  1 25  1  0  0  0  0
  1 26  1  0  0  0  0
  2 23  1  0  0  0  0
  2  3  2  0  0  0  0
  3  4  1  0  0  0  0
  3 27  1  0  0  0  0
  4  5  2  0  0  0  0
  4 28  1  0  0  0  0
  5  6  1  0  0  0  0
  5 29  1  0  0  0  0
  6  7  1  0  0  0  0
  6 23  2  0  0  0  0
  7  8  1  0  0  0  0
  7 30  1  0  0  0  0
  8  9  2  0  0  0  0
  8 10  1  0  0  0  0
 10 11  1  0  0  0  0
 10 31  1  0  0  0  0
 11 12  1  0  0  0  0
 11 32  1  0  0  0  0
 11 33  1  0  0  0  0
 12 13  1  0  0  0  0
 12 16  1  0  0  0  0
 12 34  1  0  0  0  0
 13 14  1  0  0  0  0
 13 15  1  0  0  0  0
 13 35  1  0  0  0  0
 14 36  1  0  0  0  0
 14 37  1  0  0  0  0
 14 38  1  0  0  0  0
 15 39  1  0  0  0  0
 15 40  1  0  0  0  0
 15 41  1  0  0  0  0
 16 22  1  0  0  0  0
 16 17  1  0  0  0  0
 17 18  1  0  0  0  0
 17 42  1  0  0  0  0
 17 43  1  0  0  0  0
 18 19  1  0  0  0  0
 18 44  1  0  0  0  0
 18 45  1  0  0  0  0
 19 20  1  0  0  0  0
 19 21  1  0  0  0  0
 19 53  1  0  0  0  0
 20 46  1  0  0  0  0
 20 47  1  0  0  0  0
 20 48  1  0  0  0  0
 21 22  1  0  0  0  0
 21 49  1  0  0  0  0
 21 50  1  0  0  0  0
 22 51  1  0  0  0  0
 22 52  1  0  0  0  0
M  CHG  1  19   1
M  END
> <s_m_source_file>
AV-unprocessed.smi

> <i_m_source_file_index>
2270

> <i_lp_mmshare_version>
43012

> <i_f3d_flags>
0

> <s_epik_input>
W0NIM11jMVtjSF1bY0hdW2NIXWMobjEpW05IXUMoPU8pW05IXVtDSDJdW0NASF0oW0NIXShbQ0gzXSlbQ0gzXSlOMltDSDJdW0NIMl1OKFtDSDNdKVtDSDJdW0NIMl0y

> <s_epik_cmdline>
J2VwaWtfcHl0aG9uJywgJy1waCcsICc3LjAnLCAnLXRuJywgJzgnLCAnLW1hJywgJzIwMCcsICctbWV0YWxfYmluZGluZycsICctaW1hZScsICc8aW5maWxlLm1hZT4nLCAnLW9tYWUnLCAnPG91dGZpbGUubWFlPic=

> <r_epik_Ionization_Penalty>
0.0278292

> <r_epik_Ionization_Penalty_Charging>
0.0272987

> <r_epik_Ionization_Penalty_Neutral>
0.000530468

> <r_epik_State_Penalty>
0.0776825

> <r_epik_Charging_Adjusted_Penalty>
0.104981

> <i_epik_Tot_Q>
1

> <i_epik_Tot_abs_Q>
1

> <r_epik_Metal_State_Penalty>
0.0776809

> <b_epik_Metal_Only>
0

> <s_lp_Force_Field>
OPLS_2005

> <r_lp_Energy>
34.9975

> <b_lp_Chiralities_Consistent>
1

> <s_lp_Variant>
AV-unprocessed.smi:2270-1

> <Gold.Version>
5.8.1

> <Gold.Id.Protein>
6NUR|6NUR_protein|mol2

> <Gold.PLP.Fitness>
46.3024

> <Gold.PLP.PLP>
-38.8787

> <Gold.PLP.part.hbond>
-5.0135

> <Gold.PLP.part.metal>
0.0000

> <Gold.PLP.part.buried>
-2.9626

> <Gold.PLP.part.nonpolar>
-32.9346

> <Gold.PLP.part.repulsive>
0.2964

> <Gold.PLP.ligand.clash>
0.0000

> <Gold.PLP.ligand.torsion>
1.5666

> <Gold.PLP.Chemscore.Hbond>
3.4485

> <Gold.PLP.Chemscore.CHOScore>
0.0000

> <Gold.PLP.Chemscore.Metal>
0.0000

> <Gold.Chemscore.Hbonds>
donor molecule, donor type, donor heavy atom, donor atom, acceptor molecule, acceptor atom, score
      L1  H    19    53       P1  8028  2.00
      P1  H  6931  6943       L1    23  0.90
      P1  H  7989  7998       L1    16  0.59

> <Gold.PLP.Chemscore.Internal.Correction>
0.2113

> <Gold.Rescore>
     Score         DG    S(hbond)    S(metal)    S(lipo)     H(rot)  DE(clash)    DE(int)     intcor
     13.94     -18.30       1.74        0.00      95.15       1.61       1.51       2.85       ----

> <Gold.Chemscore.Fitness>
13.9388

> <Gold.Chemscore.DG>
-18.2963

> <Gold.Chemscore.ZeroCoef>
-5.4800

> <Gold.Chemscore.Hbond>
1.7359

> <Gold.Chemscore.Metal>
0.0000

> <Gold.Chemscore.Lipo>
95.1472

> <Gold.Chemscore.Internal_Hbond>
0.0000

> <Gold.Chemscore.DEClash>
1.5122

> <Gold.Chemscore.DEInternal>
2.8453

> <Gold.Chemscore.Rot>
1.6070

> <Gold.Chemscore.Internal.Correction>
   9.000000E+99

> <Gold.Chemscore.Hbonds>
donor molecule, donor type, donor heavy atom, donor atom, acceptor molecule, acceptor atom, score
      L1  H    19    53       P1  8028  0.98
      P1  H  6931  6943       L1    23  0.18
      P1  H  7989  7998       L1    16  0.02

> <Gold.Chemscore.Hbond.Weighted>
-5.7980

> <Gold.Chemscore.Metal.Weighted>
-0.0000

> <Gold.Chemscore.Lipo.Weighted>
-11.1322

> <Gold.Chemscore.Internal_Hbond.Weighted>
0.0000

> <Gold.Chemscore.DEClash.Weighted>
1.5122

> <Gold.Chemscore.DEInternal.Weighted>
2.8453

> <Gold.Chemscore.Rot.Weighted>
4.1140

> <Gold.Chemscore.Internal.Correction.Weighted>
   9.000000E+99

> <Gold.Protein.RotatedTorsions>
[ 6907 6896 6895 6894 ] final  157.70 input  -60.11 | X-H torsion
[ 7974 7965 7964 7962 ] final -165.71 input  175.53 | X-H torsion
[ 8008 7997 7996 7995 ] final  -85.83 input   59.86 | X-H torsion
[ 10167 10162 10161 10158 ] final   97.70 input  -65.29 | X-H torsion
[ 10718 10713 10712 10709 ] final -119.41 input   66.30 | X-H torsion
[ 10763 10752 10751 10750 ] final  -43.76 input  -60.55 | X-H torsion
[ 11005 11000 10999 10996 ] final -158.36 input  -57.11 | X-H torsion

> <Gold.Protein.ActiveResidues>
 VAL166  LYS551  ARG553  GLY616  TRP617  ASP618  TYR619  PRO620  LYS621  CYS622 
 ASP623  PHE694  ASN695  SER759  ASP760  ASP761  ALA762  ILE779  LEU786  VAL792 
 PHE793  MET794  SER795  GLU796  ALA797  LYS798  CYS799  TRP800  GLU811  SER814 

> <Gold.Protein.RotatedAtoms>
  152.0112  133.3862  159.4220 H   0  0  0  0  0  0  0  0  0  0  0  0  # atno 6907 bound_to 6896
  150.6899  134.3728  159.5009 H   0  0  0  0  0  0  0  0  0  0  0  0  # atno 6908 bound_to 6896
  152.1489  134.9003  160.0600 H   0  0  0  0  0  0  0  0  0  0  0  0  # atno 6909 bound_to 6896
  144.7263  140.2774  143.6241 H   0  0  0  0  0  0  0  0  0  0  0  0  # atno 7974 bound_to 7965
  154.6451  140.0586  156.9891 H   0  0  0  0  0  0  0  0  0  0  0  0  # atno 8008 bound_to 7997
  155.1456  140.3269  155.4424 H   0  0  0  0  0  0  0  0  0  0  0  0  # atno 8009 bound_to 7997
  156.2550  140.1956  156.6570 H   0  0  0  0  0  0  0  0  0  0  0  0  # atno 8010 bound_to 7997
  139.7776  144.6900  151.0067 H   0  0  0  0  0  0  0  0  0  0  0  0  # atno 10167 bound_to 10162
  156.1179  130.6300  150.9413 H   0  0  0  0  0  0  0  0  0  0  0  0  # atno 10718 bound_to 10713
  154.0009  135.6693  153.4759 H   0  0  0  0  0  0  0  0  0  0  0  0  # atno 10763 bound_to 10752
  153.0663  135.4999  154.8203 H   0  0  0  0  0  0  0  0  0  0  0  0  # atno 10764 bound_to 10752
  154.7053  135.3086  154.9242 H   0  0  0  0  0  0  0  0  0  0  0  0  # atno 10765 bound_to 10752
  140.6545  134.4415  157.5235 H   0  0  0  0  0  0  0  0  0  0  0  0  # atno 11005 bound_to 11000
  145.7983  139.1954  143.2063 LP  0  0  0  0  0  0  0  0  0  0  0  0  # atno 17320 bound_to 7965
  146.0698  140.7881  142.9694 LP  0  0  0  0  0  0  0  0  0  0  0  0  # atno 17321 bound_to 7965
  140.7817  143.4518  151.0402 LP  0  0  0  0  0  0  0  0  0  0  0  0  # atno 17342 bound_to 10162
  139.8200  143.7833  152.3176 LP  0  0  0  0  0  0  0  0  0  0  0  0  # atno 17343 bound_to 10162
  157.6362  131.0915  150.8343 LP  0  0  0  0  0  0  0  0  0  0  0  0  # atno 17370 bound_to 10713
  156.8444  130.5059  149.5318 LP  0  0  0  0  0  0  0  0  0  0  0  0  # atno 17371 bound_to 10713
  139.9034  134.8503  156.1802 LP  0  0  0  0  0  0  0  0  0  0  0  0  # atno 17394 bound_to 11000
  141.0512  133.6888  156.1775 LP  0  0  0  0  0  0  0  0  0  0  0  0  # atno 17395 bound_to 11000

$$$$
