AV-unprocessed.smi:2044|AV-procd|sdf|8307|dock5
  -GOLD-   2272010573D 1   1.00000     0.00000
 Structure written by MMmdl.
 39 40  0  0  0  0  0  0  0  0  3 V2000
  148.9321  141.2818  154.1341 C   0  0  0  0  0  0  0  0  0  0  0  0
  149.5503  139.9405  154.3366 C   0  0  0  0  0  0  0  0  0  0  0  0
  149.0591  138.6689  154.2434 C   0  0  0  0  0  0  0  0  0  0  0  0
  150.1837  137.8651  154.5692 C   0  0  0  0  0  0  0  0  0  0  0  0
  150.0839  136.4489  154.5781 N   0  0  0  0  0  0  0  0  0  0  0  0
  150.7931  135.5612  155.2980 C   0  0  0  0  0  0  0  0  0  0  0  0
  151.6277  135.9503  156.1238 O   0  0  0  0  0  0  0  0  0  0  0  0
  150.4841  134.2727  154.9825 N   0  5  0  0  0  0  0  0  0  0  0  0
  149.2447  133.8391  154.3280 C   0  0  0  0  0  0  0  0  0  0  0  0
  149.3846  132.4247  153.6989 C   0  0  1  0  0  0  0  0  0  0  0  0
  149.8301  131.3257  154.6960 C   0  0  0  0  0  0  0  0  0  0  0  0
  148.1763  132.0742  152.8858 N   0  3  0  0  0  0  0  0  0  0  0  0
  147.1007  131.3990  153.6515 C   0  0  0  0  0  0  0  0  0  0  0  0
  146.0169  130.8804  152.6905 C   0  0  0  0  0  0  0  0  0  0  0  0
  145.5095  131.9536  151.9062 O   0  0  0  0  0  0  0  0  0  0  0  0
  146.5224  132.5597  151.1116 C   0  0  0  0  0  0  0  0  0  0  0  0
  147.6040  133.1480  152.0298 C   0  0  0  0  0  0  0  0  0  0  0  0
  151.2667  138.5827  154.8302 N   0  0  0  0  0  0  0  0  0  0  0  0
  150.8654  139.9160  154.6860 O   0  0  0  0  0  0  0  0  0  0  0  0
  148.2639  141.2736  153.2729 H   0  0  0  0  0  0  0  0  0  0  0  0
  149.6935  142.0431  153.9622 H   0  0  0  0  0  0  0  0  0  0  0  0
  148.3524  141.5746  155.0095 H   0  0  0  0  0  0  0  0  0  0  0  0
  148.0555  138.3645  153.9853 H   0  0  0  0  0  0  0  0  0  0  0  0
  149.4034  136.0558  153.9448 H   0  0  0  0  0  0  0  0  0  0  0  0
  148.4010  133.8296  155.0196 H   0  0  0  0  0  0  0  0  0  0  0  0
  148.9557  134.5400  153.5449 H   0  0  0  0  0  0  0  0  0  0  0  0
  150.2186  132.5206  153.0020 H   0  0  0  0  0  0  0  0  0  0  0  0
  150.7804  131.5746  155.1719 H   0  0  0  0  0  0  0  0  0  0  0  0
  149.9821  130.3762  154.1823 H   0  0  0  0  0  0  0  0  0  0  0  0
  149.1054  131.1569  155.4941 H   0  0  0  0  0  0  0  0  0  0  0  0
  147.5118  130.5604  154.2150 H   0  0  0  0  0  0  0  0  0  0  0  0
  146.6710  132.0959  154.3724 H   0  0  0  0  0  0  0  0  0  0  0  0
  146.4169  130.1000  152.0406 H   0  0  0  0  0  0  0  0  0  0  0  0
  145.1968  130.4356  153.2542 H   0  0  0  0  0  0  0  0  0  0  0  0
  146.9507  131.8311  150.4209 H   0  0  0  0  0  0  0  0  0  0  0  0
  146.0734  133.3473  150.5063 H   0  0  0  0  0  0  0  0  0  0  0  0
  147.1693  133.9345  152.6477 H   0  0  0  0  0  0  0  0  0  0  0  0
  148.3824  133.6064  151.4197 H   0  0  0  0  0  0  0  0  0  0  0  0
  148.5187  131.3762  152.2394 H   0  0  0  0  0  0  0  0  0  0  0  0
  1  2  1  0  0  0  0
  1 20  1  0  0  0  0
  1 21  1  0  0  0  0
  1 22  1  0  0  0  0
  2 19  1  0  0  0  0
  2  3  2  0  0  0  0
  3  4  1  0  0  0  0
  3 23  1  0  0  0  0
  4  5  1  0  0  0  0
  4 18  2  0  0  0  0
  5  6  1  0  0  0  0
  5 24  1  0  0  0  0
  6  7  2  0  0  0  0
  6  8  1  0  0  0  0
  8  9  1  0  0  0  0
  9 10  1  0  0  0  0
  9 25  1  0  0  0  0
  9 26  1  0  0  0  0
 10 11  1  0  0  0  0
 10 12  1  0  0  0  0
 10 27  1  0  0  0  0
 11 28  1  0  0  0  0
 11 29  1  0  0  0  0
 11 30  1  0  0  0  0
 12 17  1  0  0  0  0
 12 13  1  0  0  0  0
 12 39  1  0  0  0  0
 13 14  1  0  0  0  0
 13 31  1  0  0  0  0
 13 32  1  0  0  0  0
 14 15  1  0  0  0  0
 14 33  1  0  0  0  0
 14 34  1  0  0  0  0
 15 16  1  0  0  0  0
 16 17  1  0  0  0  0
 16 35  1  0  0  0  0
 16 36  1  0  0  0  0
 17 37  1  0  0  0  0
 17 38  1  0  0  0  0
 18 19  1  0  0  0  0
M  CHG  1   8  -1
M  CHG  1  12   1
M  END
> <s_m_source_file>
AV-unprocessed.smi

> <i_m_source_file_index>
2044

> <i_lp_mmshare_version>
43012

> <i_f3d_flags>
0

> <s_epik_input>
W0NIM11jMVtjSF1jKG5vMSlbTkhdQyg9TylbTkhdW0NIMl1bQ0BIXShbQ0gzXSlOMltDSDJdW0NIMl1PW0NIMl1bQ0gyXTI=

> <s_epik_cmdline>
J2VwaWtfcHl0aG9uJywgJy1waCcsICc3LjAnLCAnLXRuJywgJzgnLCAnLW1hJywgJzIwMCcsICctbWV0YWxfYmluZGluZycsICctaW1hZScsICc8aW5maWxlLm1hZT4nLCAnLW9tYWUnLCAnPG91dGZpbGUubWFlPic=

> <r_epik_Ionization_Penalty>
6.79272

> <r_epik_Ionization_Penalty_Charging>
6.79272

> <r_epik_Ionization_Penalty_Neutral>
5.6208e-06

> <r_epik_State_Penalty>
7.45901

> <r_epik_Charging_Adjusted_Penalty>
14.2517

> <i_epik_Tot_Q>
0

> <i_epik_Tot_abs_Q>
2

> <r_epik_Metal_State_Penalty>
3.38639

> <b_epik_Metal_Only>
1

> <s_lp_Force_Field>
OPLS_2005

> <r_lp_Energy>
15.3215

> <b_lp_Chiralities_Consistent>
1

> <s_lp_Variant>
AV-unprocessed.smi:2044-10

> <Gold.Version>
5.8.1

> <Gold.Id.Protein>
6NUR|6NUR_protein|mol2

> <Gold.PLP.Fitness>
42.6189

> <Gold.PLP.PLP>
-32.7981

> <Gold.PLP.part.hbond>
-4.2233

> <Gold.PLP.part.metal>
0.0000

> <Gold.PLP.part.buried>
-3.1577

> <Gold.PLP.part.nonpolar>
-24.6289

> <Gold.PLP.part.repulsive>
0.5158

> <Gold.PLP.ligand.clash>
0.0000

> <Gold.PLP.ligand.torsion>
0.7566

> <Gold.PLP.Chemscore.Hbond>
3.6880

> <Gold.PLP.Chemscore.CHOScore>
0.0000

> <Gold.PLP.Chemscore.Metal>
0.0000

> <Gold.Chemscore.Hbonds>
donor molecule, donor type, donor heavy atom, donor atom, acceptor molecule, acceptor atom, score
      L1  H     5    24       P1  7948  0.56
      L1  H    12    39       P1 10747  0.89
      P1  H  7989  7998       L1    19  1.00
      P1  H 10752 10765       L1     7  0.70

> <Gold.PLP.Chemscore.Internal.Correction>
0.2699

> <Gold.Rescore>
     Score         DG    S(hbond)    S(metal)    S(lipo)     H(rot)  DE(clash)    DE(int)     intcor
     16.84     -19.17       3.07        0.00      64.30       1.59       0.23       2.10       ----

> <Gold.Chemscore.Fitness>
16.8366

> <Gold.Chemscore.DG>
-19.1691

> <Gold.Chemscore.ZeroCoef>
-5.4800

> <Gold.Chemscore.Hbond>
3.0671

> <Gold.Chemscore.Metal>
0.0000

> <Gold.Chemscore.Lipo>
64.3000

> <Gold.Chemscore.Internal_Hbond>
0.0000

> <Gold.Chemscore.DEClash>
0.2277

> <Gold.Chemscore.DEInternal>
2.1048

> <Gold.Chemscore.Rot>
1.5930

> <Gold.Chemscore.Internal.Correction>
   9.000000E+99

> <Gold.Chemscore.Hbonds>
donor molecule, donor type, donor heavy atom, donor atom, acceptor molecule, acceptor atom, score
      L1  H     5    24       P1  7948  0.41
      L1  H    12    39       P1 10747  0.80
      P1  H  7989  7998       L1    19  0.43
      P1  H 10752 10765       L1     7  0.07

> <Gold.Chemscore.Hbond.Weighted>
-10.2441

> <Gold.Chemscore.Metal.Weighted>
-0.0000

> <Gold.Chemscore.Lipo.Weighted>
-7.5231

> <Gold.Chemscore.Internal_Hbond.Weighted>
0.0000

> <Gold.Chemscore.DEClash.Weighted>
0.2277

> <Gold.Chemscore.DEInternal.Weighted>
2.1048

> <Gold.Chemscore.Rot.Weighted>
4.0781

> <Gold.Chemscore.Internal.Correction.Weighted>
   9.000000E+99

> <Gold.Protein.RotatedTorsions>
[ 6907 6896 6895 6894 ] final -133.86 input  -60.11 | X-H torsion
[ 7974 7965 7964 7962 ] final  -23.98 input  175.53 | X-H torsion
[ 8008 7997 7996 7995 ] final   43.18 input   59.86 | X-H torsion
[ 10167 10162 10161 10158 ] final -103.60 input  -65.29 | X-H torsion
[ 10718 10713 10712 10709 ] final  -43.63 input   66.30 | X-H torsion
[ 10763 10752 10751 10750 ] final -152.59 input  -60.55 | X-H torsion
[ 11005 11000 10999 10996 ] final   37.09 input  -57.11 | X-H torsion

> <Gold.Protein.ActiveResidues>
 VAL166  LYS551  ARG553  GLY616  TRP617  ASP618  TYR619  PRO620  LYS621  CYS622 
 ASP623  PHE694  ASN695  SER759  ASP760  ASP761  ALA762  ILE779  LEU786  VAL792 
 PHE793  MET794  SER795  GLU796  ALA797  LYS798  CYS799  TRP800  GLU811  SER814 

> <Gold.Protein.RotatedAtoms>
  150.9790  133.6265  159.2725 H   0  0  0  0  0  0  0  0  0  0  0  0  # atno 6907 bound_to 6896
  151.3527  135.0886  159.9418 H   0  0  0  0  0  0  0  0  0  0  0  0  # atno 6908 bound_to 6896
  152.5209  133.9379  159.7667 H   0  0  0  0  0  0  0  0  0  0  0  0  # atno 6909 bound_to 6896
  146.1583  140.4689  142.8582 H   0  0  0  0  0  0  0  0  0  0  0  0  # atno 7974 bound_to 7965
  155.2984  140.3383  155.4249 H   0  0  0  0  0  0  0  0  0  0  0  0  # atno 8008 bound_to 7997
  156.2013  140.1734  156.7933 H   0  0  0  0  0  0  0  0  0  0  0  0  # atno 8009 bound_to 7997
  154.5562  140.0696  156.8732 H   0  0  0  0  0  0  0  0  0  0  0  0  # atno 8010 bound_to 7997
  140.2183  143.3695  152.0992 H   0  0  0  0  0  0  0  0  0  0  0  0  # atno 10167 bound_to 10162
  156.2470  130.4184  149.8694 H   0  0  0  0  0  0  0  0  0  0  0  0  # atno 10718 bound_to 10713
  154.7984  135.3232  154.7610 H   0  0  0  0  0  0  0  0  0  0  0  0  # atno 10763 bound_to 10752
  153.8284  135.6881  153.4822 H   0  0  0  0  0  0  0  0  0  0  0  0  # atno 10764 bound_to 10752
  153.1687  135.4631  154.9816 H   0  0  0  0  0  0  0  0  0  0  0  0  # atno 10765 bound_to 10752
  140.2260  134.3583  155.7984 H   0  0  0  0  0  0  0  0  0  0  0  0  # atno 11005 bound_to 11000
  144.7993  140.6182  143.6489 LP  0  0  0  0  0  0  0  0  0  0  0  0  # atno 17320 bound_to 7965
  145.4653  139.1508  143.3844 LP  0  0  0  0  0  0  0  0  0  0  0  0  # atno 17321 bound_to 7965
  139.5154  144.6962  151.5624 LP  0  0  0  0  0  0  0  0  0  0  0  0  # atno 17342 bound_to 10162
  140.6274  143.9142  150.6576 LP  0  0  0  0  0  0  0  0  0  0  0  0  # atno 17343 bound_to 10162
  156.6255  130.8644  151.3484 LP  0  0  0  0  0  0  0  0  0  0  0  0  # atno 17370 bound_to 10713
  157.7199  130.9545  150.1398 LP  0  0  0  0  0  0  0  0  0  0  0  0  # atno 17371 bound_to 10713
  141.2220  133.7219  156.8654 LP  0  0  0  0  0  0  0  0  0  0  0  0  # atno 17394 bound_to 11000
  140.1799  134.9040  157.2936 LP  0  0  0  0  0  0  0  0  0  0  0  0  # atno 17395 bound_to 11000

$$$$
