AV-unprocessed.smi:1399|AV-procd|sdf|5681|dock9
  -GOLD-   22720 5303D 1   1.00000     0.00000
 Structure written by MMmdl.
 37 38  0  0  0  0  0  0  0  0  1 V2000
  148.4652  142.2806  155.9613 N   0  0  0  0  0  0  0  0  0  0  0  0
  148.6525  141.8834  154.7001 C   0  0  0  0  0  0  0  0  0  0  0  0
  149.7719  141.7602  154.2080 O   0  0  0  0  0  0  0  0  0  0  0  0
  147.3991  141.5894  153.8676 C   0  0  0  0  0  0  0  0  0  0  0  0
  147.3572  140.2359  153.2667 N   0  0  0  0  0  0  0  0  0  0  0  0
  146.5878  140.2015  152.0137 C   0  0  0  0  0  0  0  0  0  0  0  0
  146.6280  138.7945  151.3908 C   0  0  0  0  0  0  0  0  0  0  0  0
  146.0879  137.7363  152.3667 C   0  0  0  0  0  0  0  0  0  0  0  0
  146.2503  136.3912  151.8230 N   0  0  0  0  0  0  0  0  0  0  0  0
  145.2540  135.5215  151.6033 C   0  0  0  0  0  0  0  0  0  0  0  0
  144.0704  135.7683  151.8354 O   0  0  0  0  0  0  0  0  0  0  0  0
  145.7179  134.3647  151.1026 N   0  0  0  0  0  0  0  0  0  0  0  0
  144.9657  133.2159  150.7502 C   0  0  0  0  0  0  0  0  0  0  0  0
  145.5263  131.9771  150.3360 C   0  0  0  0  0  0  0  0  0  0  0  0
  144.5835  131.0837  150.0721 N   0  0  0  0  0  0  0  0  0  0  0  0
  143.4264  131.7405  150.3133 N   0  0  0  0  0  0  0  0  0  0  0  0
  143.6102  133.0409  150.7284 C   0  0  0  0  0  0  0  0  0  0  0  0
  146.8425  137.8570  153.6977 C   0  0  0  0  0  0  0  0  0  0  0  0
  146.7856  139.2967  154.2375 C   0  0  0  0  0  0  0  0  0  0  0  0
  142.5289  131.2929  150.1918 H   0  0  0  0  0  0  0  0  0  0  0  0
  149.2618  142.4789  156.5490 H   0  0  0  0  0  0  0  0  0  0  0  0
  147.5274  142.3742  156.3234 H   0  0  0  0  0  0  0  0  0  0  0  0
  146.5380  141.7231  154.5241 H   0  0  0  0  0  0  0  0  0  0  0  0
  147.3091  142.3434  153.0832 H   0  0  0  0  0  0  0  0  0  0  0  0
  145.5554  140.5039  152.1975 H   0  0  0  0  0  0  0  0  0  0  0  0
  146.9960  140.9028  151.2860 H   0  0  0  0  0  0  0  0  0  0  0  0
  146.0463  138.7870  150.4685 H   0  0  0  0  0  0  0  0  0  0  0  0
  147.6544  138.5531  151.1098 H   0  0  0  0  0  0  0  0  0  0  0  0
  145.0287  137.9262  152.5523 H   0  0  0  0  0  0  0  0  0  0  0  0
  147.1915  136.1021  151.6003 H   0  0  0  0  0  0  0  0  0  0  0  0
  146.7150  134.2975  150.9602 H   0  0  0  0  0  0  0  0  0  0  0  0
  146.5645  131.7022  150.2211 H   0  0  0  0  0  0  0  0  0  0  0  0
  142.7837  133.6959  150.9611 H   0  0  0  0  0  0  0  0  0  0  0  0
  146.4170  137.1715  154.4317 H   0  0  0  0  0  0  0  0  0  0  0  0
  147.8846  137.5612  153.5659 H   0  0  0  0  0  0  0  0  0  0  0  0
  147.3474  139.3429  155.1715 H   0  0  0  0  0  0  0  0  0  0  0  0
  145.7558  139.5719  154.4732 H   0  0  0  0  0  0  0  0  0  0  0  0
  1  2  1  0  0  0  0
  1 21  1  0  0  0  0
  1 22  1  0  0  0  0
  2  3  2  0  0  0  0
  2  4  1  0  0  0  0
  4  5  1  0  0  0  0
  4 23  1  0  0  0  0
  4 24  1  0  0  0  0
  5 19  1  0  0  0  0
  5  6  1  0  0  0  0
  6  7  1  0  0  0  0
  6 25  1  0  0  0  0
  6 26  1  0  0  0  0
  7  8  1  0  0  0  0
  7 27  1  0  0  0  0
  7 28  1  0  0  0  0
  8  9  1  0  0  0  0
  8 18  1  0  0  0  0
  8 29  1  0  0  0  0
  9 10  1  0  0  0  0
  9 30  1  0  0  0  0
 10 11  2  0  0  0  0
 10 12  1  0  0  0  0
 12 13  1  0  0  0  0
 12 31  1  0  0  0  0
 13 17  2  0  0  0  0
 13 14  1  0  0  0  0
 14 15  2  0  0  0  0
 14 32  1  0  0  0  0
 15 16  1  0  0  0  0
 16 20  1  0  0  0  0
 16 17  1  0  0  0  0
 17 33  1  0  0  0  0
 18 19  1  0  0  0  0
 18 34  1  0  0  0  0
 18 35  1  0  0  0  0
 19 36  1  0  0  0  0
 19 37  1  0  0  0  0
M  END
> <s_m_source_file>
AV-unprocessed.smi

> <i_m_source_file_index>
1399

> <i_lp_mmshare_version>
43012

> <i_f3d_flags>
0

> <s_epik_input>
W05IMl1DKD1PKVtDSDJdTjFbQ0gyXVtDSDJdW0NIXShbQ0gyXVtDSDJdMSlbTkhdQyg9TylbTkhdYzJbY0hdbltuSF1bY0hdMg==

> <s_epik_cmdline>
J2VwaWtfcHl0aG9uJywgJy1waCcsICc3LjAnLCAnLXRuJywgJzgnLCAnLW1hJywgJzIwMCcsICctbWV0YWxfYmluZGluZycsICctaW1hZScsICc8aW5maWxlLm1hZT4nLCAnLW9tYWUnLCAnPG91dGZpbGUubWFlPic=

> <r_lp_tautomer_probability>
0.5

> <r_epik_Ionization_Penalty>
0.164786

> <r_epik_Ionization_Penalty_Charging>
0

> <r_epik_Ionization_Penalty_Neutral>
0.164786

> <r_epik_State_Penalty>
0.154069

> <r_epik_Charging_Adjusted_Penalty>
0.154069

> <i_epik_Tot_Q>
0

> <i_epik_Tot_abs_Q>
0

> <r_epik_Metal_State_Penalty>
0.171367

> <b_epik_Metal_Only>
0

> <s_lp_Force_Field>
OPLS_2005

> <r_lp_Energy>
13.9175

> <b_lp_Chiralities_Consistent>
1

> <s_lp_Variant>
AV-unprocessed.smi:1399-1

> <Gold.Version>
5.8.1

> <Gold.Id.Protein>
6NUR|6NUR_protein|mol2

> <Gold.PLP.Fitness>
39.5289

> <Gold.PLP.PLP>
-26.9080

> <Gold.PLP.part.hbond>
-5.9018

> <Gold.PLP.part.metal>
0.0000

> <Gold.PLP.part.buried>
7.5878

> <Gold.PLP.part.nonpolar>
-27.8543

> <Gold.PLP.part.repulsive>
1.4346

> <Gold.PLP.ligand.clash>
0.0000

> <Gold.PLP.ligand.torsion>
0.3601

> <Gold.PLP.Chemscore.Hbond>
2.4442

> <Gold.PLP.Chemscore.CHOScore>
1.9996

> <Gold.PLP.Chemscore.Metal>
0.0000

> <Gold.Chemscore.Hbonds>
donor molecule, donor type, donor heavy atom, donor atom, acceptor molecule, acceptor atom, score
      L1  H     9    30       P1  7948  1.00
      L1  H    16    20       P1 10952  0.96
      P1  H  7989  7998       L1     3  0.11
      P1  H  8011  8017       L1     3  0.46
      L1  C    14    32       P1 10747  0.96
      L1  C    17    33       P1 10186  0.99

> <Gold.PLP.Chemscore.Internal.Correction>
0.0097

> <Gold.Rescore>
     Score         DG    S(hbond)    S(metal)    S(lipo)     H(rot)  DE(clash)    DE(int)     intcor
     13.51     -17.75       2.96        0.00      65.48       2.06       2.73       1.50       ----

> <Gold.Chemscore.Fitness>
13.5129

> <Gold.Chemscore.DG>
-17.7480

> <Gold.Chemscore.ZeroCoef>
-5.4800

> <Gold.Chemscore.Hbond>
2.9597

> <Gold.Chemscore.Metal>
0.0000

> <Gold.Chemscore.Lipo>
65.4828

> <Gold.Chemscore.Internal_Hbond>
0.0000

> <Gold.Chemscore.DEClash>
2.7310

> <Gold.Chemscore.DEInternal>
1.5041

> <Gold.Chemscore.Rot>
2.0620

> <Gold.Chemscore.Internal.Correction>
   9.000000E+99

> <Gold.Chemscore.Hbonds>
donor molecule, donor type, donor heavy atom, donor atom, acceptor molecule, acceptor atom, score
      L1  H     9    30       P1  7948  0.96
      L1  H    16    20       P1 10952  0.72
      P1  H  7989  7998       L1     3  0.12
      P1  H  8011  8017       L1     3  0.35

> <Gold.Chemscore.Hbond.Weighted>
-9.8853

> <Gold.Chemscore.Metal.Weighted>
-0.0000

> <Gold.Chemscore.Lipo.Weighted>
-7.6615

> <Gold.Chemscore.Internal_Hbond.Weighted>
0.0000

> <Gold.Chemscore.DEClash.Weighted>
2.7310

> <Gold.Chemscore.DEInternal.Weighted>
1.5041

> <Gold.Chemscore.Rot.Weighted>
5.2788

> <Gold.Chemscore.Internal.Correction.Weighted>
   9.000000E+99

> <Gold.Protein.RotatedTorsions>
[ 6907 6896 6895 6894 ] final -151.86 input  -60.11 | X-H torsion
[ 7974 7965 7964 7962 ] final  153.90 input  175.53 | X-H torsion
[ 8008 7997 7996 7995 ] final  173.91 input   59.86 | X-H torsion
[ 10167 10162 10161 10158 ] final  124.70 input  -65.29 | X-H torsion
[ 10718 10713 10712 10709 ] final  -27.34 input   66.30 | X-H torsion
[ 10763 10752 10751 10750 ] final  -34.47 input  -60.55 | X-H torsion
[ 11005 11000 10999 10996 ] final  -44.05 input  -57.11 | X-H torsion

> <Gold.Protein.ActiveResidues>
 VAL166  LYS551  ARG553  GLY616  TRP617  ASP618  TYR619  PRO620  LYS621  CYS622 
 ASP623  PHE694  ASN695  SER759  ASP760  ASP761  ALA762  ILE779  LEU786  VAL792 
 PHE793  MET794  SER795  GLU796  ALA797  LYS798  CYS799  TRP800  GLU811  SER814 

> <Gold.Protein.RotatedAtoms>
  151.2192  133.4512  159.2600 H   0  0  0  0  0  0  0  0  0  0  0  0  # atno 6907 bound_to 6896
  151.0901  134.9911  159.8408 H   0  0  0  0  0  0  0  0  0  0  0  0  # atno 6908 bound_to 6896
  152.5433  134.2126  159.8809 H   0  0  0  0  0  0  0  0  0  0  0  0  # atno 6909 bound_to 6896
  144.8124  139.6862  143.6136 H   0  0  0  0  0  0  0  0  0  0  0  0  # atno 7974 bound_to 7965
  156.1027  140.1448  156.9445 H   0  0  0  0  0  0  0  0  0  0  0  0  # atno 8008 bound_to 7997
  154.4713  140.0909  156.7197 H   0  0  0  0  0  0  0  0  0  0  0  0  # atno 8009 bound_to 7997
  155.4732  140.3442  155.4331 H   0  0  0  0  0  0  0  0  0  0  0  0  # atno 8010 bound_to 7997
  139.5727  144.6947  151.3736 H   0  0  0  0  0  0  0  0  0  0  0  0  # atno 10167 bound_to 10162
  156.4395  130.4461  149.7062 H   0  0  0  0  0  0  0  0  0  0  0  0  # atno 10718 bound_to 10713
  153.8472  135.6852  153.4796 H   0  0  0  0  0  0  0  0  0  0  0  0  # atno 10763 bound_to 10752
  153.1419  135.4654  154.9506 H   0  0  0  0  0  0  0  0  0  0  0  0  # atno 10764 bound_to 10752
  154.7819  135.3271  154.7919 H   0  0  0  0  0  0  0  0  0  0  0  0  # atno 10765 bound_to 10752
  141.0425  133.6774  156.2819 H   0  0  0  0  0  0  0  0  0  0  0  0  # atno 11005 bound_to 11000
  146.2424  139.6028  142.9483 LP  0  0  0  0  0  0  0  0  0  0  0  0  # atno 17320 bound_to 7965
  145.5293  141.0428  143.2392 LP  0  0  0  0  0  0  0  0  0  0  0  0  # atno 17321 bound_to 7965
  140.7010  143.7630  150.7404 LP  0  0  0  0  0  0  0  0  0  0  0  0  # atno 17342 bound_to 10162
  140.1141  143.4672  152.2352 LP  0  0  0  0  0  0  0  0  0  0  0  0  # atno 17343 bound_to 10162
  156.3933  130.7638  151.2641 LP  0  0  0  0  0  0  0  0  0  0  0  0  # atno 17370 bound_to 10713
  157.7506  131.0261  150.3949 LP  0  0  0  0  0  0  0  0  0  0  0  0  # atno 17371 bound_to 10713
  140.6208  134.5363  157.5547 LP  0  0  0  0  0  0  0  0  0  0  0  0  # atno 17394 bound_to 11000
  139.9286  134.8007  156.0995 LP  0  0  0  0  0  0  0  0  0  0  0  0  # atno 17395 bound_to 11000

$$$$
