AV-unprocessed.smi:666|AV-procd|sdf|3254|dock5
  -GOLD-   22720 0203D 1   1.00000     0.00000
 Structure written by MMmdl.
 34 35  0  0  0  0  0  0  0  0  2 V2000
  152.0166  137.9490  159.1091 O   0  0  0  0  0  0  0  0  0  0  0  0
  152.1236  138.8440  158.2700 C   0  0  0  0  0  0  0  0  0  0  0  0
  151.1810  140.0519  158.3363 C   0  0  0  0  0  0  0  0  0  0  0  0
  151.8208  141.3546  158.7868 C   0  0  0  0  0  0  0  0  0  0  0  0
  152.7629  141.3968  159.7494 C   0  0  0  0  0  0  0  0  0  0  0  0
  153.4204  142.6737  160.2423 C   0  0  0  0  0  0  0  0  0  0  0  0
  152.6606  143.9332  159.7929 C   0  0  0  0  0  0  0  0  0  0  0  0
  152.2414  143.8308  158.3208 C   0  0  0  0  0  0  0  0  0  0  0  0
  151.3340  142.6115  158.0760 C   0  0  0  0  0  0  0  0  0  0  0  0
  153.0013  138.9469  157.2451 N   0  5  0  0  0  0  0  0  0  0  0  0
  153.3936  137.7006  156.2827 S   0  0  0  0  0  0  0  0  0  0  0  0
  154.8444  137.6090  156.0539 O   0  0  0  0  0  0  0  0  0  0  0  0
  152.7069  136.4675  156.6978 O   0  0  0  0  0  0  0  0  0  0  0  0
  152.6449  138.1900  154.6584 C   0  0  0  0  0  0  0  0  0  0  0  0
  151.2450  138.7099  154.8454 C   0  0  0  0  0  0  0  0  0  0  0  0
  150.0185  137.9886  154.8200 C   0  0  0  0  0  0  0  0  0  0  0  0
  149.0770  138.9480  155.0551 C   0  0  0  0  0  0  0  0  0  0  0  0
  149.6648  140.1590  155.2233 O   0  0  0  0  0  0  0  0  0  0  0  0
  151.0487  139.9966  155.0914 N   0  0  0  0  0  0  0  0  0  0  0  0
  150.6801  140.2268  157.3818 H   0  0  0  0  0  0  0  0  0  0  0  0
  150.3889  139.7953  159.0411 H   0  0  0  0  0  0  0  0  0  0  0  0
  153.0989  140.4789  160.2096 H   0  0  0  0  0  0  0  0  0  0  0  0
  153.4855  142.6484  161.3302 H   0  0  0  0  0  0  0  0  0  0  0  0
  154.4423  142.6941  159.8625 H   0  0  0  0  0  0  0  0  0  0  0  0
  151.7706  144.0617  160.4102 H   0  0  0  0  0  0  0  0  0  0  0  0
  153.2773  144.8180  159.9530 H   0  0  0  0  0  0  0  0  0  0  0  0
  151.7320  144.7420  158.0062 H   0  0  0  0  0  0  0  0  0  0  0  0
  153.1349  143.7478  157.7006 H   0  0  0  0  0  0  0  0  0  0  0  0
  151.2679  142.4207  157.0046 H   0  0  0  0  0  0  0  0  0  0  0  0
  150.3216  142.8233  158.4217 H   0  0  0  0  0  0  0  0  0  0  0  0
  153.2822  138.9224  154.1653 H   0  0  0  0  0  0  0  0  0  0  0  0
  152.6398  137.3008  154.0276 H   0  0  0  0  0  0  0  0  0  0  0  0
  149.8563  136.9352  154.6479 H   0  0  0  0  0  0  0  0  0  0  0  0
  148.0000  138.9276  155.1320 H   0  0  0  0  0  0  0  0  0  0  0  0
  1  2  2  0  0  0  0
  2  3  1  0  0  0  0
  2 10  1  0  0  0  0
  3  4  1  0  0  0  0
  3 20  1  0  0  0  0
  3 21  1  0  0  0  0
  4  9  1  0  0  0  0
  4  5  2  0  0  0  0
  5  6  1  0  0  0  0
  5 22  1  0  0  0  0
  6  7  1  0  0  0  0
  6 23  1  0  0  0  0
  6 24  1  0  0  0  0
  7  8  1  0  0  0  0
  7 25  1  0  0  0  0
  7 26  1  0  0  0  0
  8  9  1  0  0  0  0
  8 27  1  0  0  0  0
  8 28  1  0  0  0  0
  9 29  1  0  0  0  0
  9 30  1  0  0  0  0
 10 11  1  0  0  0  0
 11 12  2  0  0  0  0
 11 13  2  0  0  0  0
 11 14  1  0  0  0  0
 14 15  1  0  0  0  0
 14 31  1  0  0  0  0
 14 32  1  0  0  0  0
 15 19  2  0  0  0  0
 15 16  1  0  0  0  0
 16 17  2  0  0  0  0
 16 33  1  0  0  0  0
 17 18  1  0  0  0  0
 17 34  1  0  0  0  0
 18 19  1  0  0  0  0
M  CHG  1  10  -1
M  END
> <s_m_source_file>
AV-unprocessed.smi

> <i_m_source_file_index>
666

> <i_lp_mmshare_version>
43012

> <i_f3d_flags>
0

> <s_epik_input>
W0NIMl0xW0NIMl1bQ0gyXVtDSDJdW0NIXT1DMVtDSDJdQyg9TylbTkhdUyg9TykoPU8pW0NIMl1jMltjSF1bY0hdb24y

> <s_epik_cmdline>
J2VwaWtfcHl0aG9uJywgJy1waCcsICc3LjAnLCAnLXRuJywgJzgnLCAnLW1hJywgJzIwMCcsICctbWV0YWxfYmluZGluZycsICctaW1hZScsICc8aW5maWxlLm1hZT4nLCAnLW9tYWUnLCAnPG91dGZpbGUubWFlPic=

> <r_epik_Ionization_Penalty>
0.000833246

> <r_epik_Ionization_Penalty_Charging>
0.000833246

> <r_epik_Ionization_Penalty_Neutral>
1.62659e-10

> <r_epik_State_Penalty>
0.000536532

> <r_epik_Charging_Adjusted_Penalty>
0.00136978

> <i_epik_Tot_Q>
-1

> <i_epik_Tot_abs_Q>
1

> <r_epik_Metal_State_Penalty>
-0

> <b_epik_Metal_Only>
0

> <s_lp_Force_Field>
OPLS_2005

> <r_lp_Energy>
4.18867

> <b_lp_Chiralities_Consistent>
1

> <s_lp_Variant>
AV-unprocessed.smi:666-1

> <Gold.Version>
5.8.1

> <Gold.Id.Protein>
6NUR|6NUR_protein|mol2

> <Gold.PLP.Fitness>
47.0170

> <Gold.PLP.PLP>
-38.7283

> <Gold.PLP.part.hbond>
-5.1751

> <Gold.PLP.part.metal>
0.0000

> <Gold.PLP.part.buried>
-4.3974

> <Gold.PLP.part.nonpolar>
-30.0801

> <Gold.PLP.part.repulsive>
0.1554

> <Gold.PLP.ligand.clash>
0.0000

> <Gold.PLP.ligand.torsion>
1.9226

> <Gold.PLP.Chemscore.Hbond>
3.7000

> <Gold.PLP.Chemscore.CHOScore>
0.0000

> <Gold.PLP.Chemscore.Metal>
0.0000

> <Gold.Chemscore.Hbonds>
donor molecule, donor type, donor heavy atom, donor atom, acceptor molecule, acceptor atom, score
      P1  H  7989  7998       L1    19  1.00
      P1  H  7997  8008       L1    10  1.70
      P1  H 10752 10763       L1    13  0.75

> <Gold.PLP.Chemscore.Internal.Correction>
1.0340

> <Gold.Rescore>
     Score         DG    S(hbond)    S(metal)    S(lipo)     H(rot)  DE(clash)    DE(int)     intcor
     14.32     -17.66       1.83        0.00      89.09       1.70       0.06       3.29       ----

> <Gold.Chemscore.Fitness>
14.3152

> <Gold.Chemscore.DG>
-17.6638

> <Gold.Chemscore.ZeroCoef>
-5.4800

> <Gold.Chemscore.Hbond>
1.8336

> <Gold.Chemscore.Metal>
0.0000

> <Gold.Chemscore.Lipo>
89.0895

> <Gold.Chemscore.Internal_Hbond>
0.0000

> <Gold.Chemscore.DEClash>
0.0571

> <Gold.Chemscore.DEInternal>
3.2915

> <Gold.Chemscore.Rot>
1.7046

> <Gold.Chemscore.Internal.Correction>
   9.000000E+99

> <Gold.Chemscore.Hbonds>
donor molecule, donor type, donor heavy atom, donor atom, acceptor molecule, acceptor atom, score
      P1  H  7989  7998       L1    19  0.31
      P1  H  7997  8008       L1    10  0.15
      P1  H 10752 10763       L1    13  0.09

> <Gold.Chemscore.Hbond.Weighted>
-6.1242

> <Gold.Chemscore.Metal.Weighted>
-0.0000

> <Gold.Chemscore.Lipo.Weighted>
-10.4235

> <Gold.Chemscore.Internal_Hbond.Weighted>
0.0000

> <Gold.Chemscore.DEClash.Weighted>
0.0571

> <Gold.Chemscore.DEInternal.Weighted>
3.2915

> <Gold.Chemscore.Rot.Weighted>
4.3638

> <Gold.Chemscore.Internal.Correction.Weighted>
   9.000000E+99

> <Gold.Protein.RotatedTorsions>
[ 6907 6896 6895 6894 ] final   -2.26 input  -60.11 | X-H torsion
[ 7974 7965 7964 7962 ] final  144.39 input  175.53 | X-H torsion
[ 8008 7997 7996 7995 ] final  -68.93 input   59.86 | X-H torsion
[ 10167 10162 10161 10158 ] final -137.75 input  -65.29 | X-H torsion
[ 10718 10713 10712 10709 ] final -105.73 input   66.30 | X-H torsion
[ 10763 10752 10751 10750 ] final  105.20 input  -60.55 | X-H torsion
[ 11005 11000 10999 10996 ] final  175.63 input  -57.11 | X-H torsion

> <Gold.Protein.ActiveResidues>
 VAL166  LYS551  ARG553  GLY616  TRP617  ASP618  TYR619  PRO620  LYS621  CYS622 
 ASP623  PHE694  ASN695  SER759  ASP760  ASP761  ALA762  ILE779  LEU786  VAL792 
 PHE793  MET794  SER795  GLU796  ALA797  LYS798  CYS799  TRP800  GLU811  SER814 

> <Gold.Protein.RotatedAtoms>
  151.5328  135.1068  159.9906 H   0  0  0  0  0  0  0  0  0  0  0  0  # atno 6907 bound_to 6896
  152.4571  133.7741  159.6825 H   0  0  0  0  0  0  0  0  0  0  0  0  # atno 6908 bound_to 6896
  150.8518  133.7709  159.3047 H   0  0  0  0  0  0  0  0  0  0  0  0  # atno 6909 bound_to 6896
  144.8840  139.5657  143.5830 H   0  0  0  0  0  0  0  0  0  0  0  0  # atno 7974 bound_to 7965
  154.4902  140.0863  156.7577 H   0  0  0  0  0  0  0  0  0  0  0  0  # atno 8008 bound_to 7997
  155.4249  140.3447  155.4256 H   0  0  0  0  0  0  0  0  0  0  0  0  # atno 8009 bound_to 7997
  156.1319  140.1504  156.9040 H   0  0  0  0  0  0  0  0  0  0  0  0  # atno 8010 bound_to 7997
  139.8546  143.7154  152.2655 H   0  0  0  0  0  0  0  0  0  0  0  0  # atno 10167 bound_to 10162
  156.0359  130.5578  150.7580 H   0  0  0  0  0  0  0  0  0  0  0  0  # atno 10718 bound_to 10713
  153.3761  135.3918  155.1823 H   0  0  0  0  0  0  0  0  0  0  0  0  # atno 10763 bound_to 10752
  154.8701  135.3714  154.4916 H   0  0  0  0  0  0  0  0  0  0  0  0  # atno 10764 bound_to 10752
  153.5388  135.7085  153.5707 H   0  0  0  0  0  0  0  0  0  0  0  0  # atno 10765 bound_to 10752
  140.3643  134.7085  157.4352 H   0  0  0  0  0  0  0  0  0  0  0  0  # atno 11005 bound_to 11000
  146.3012  139.7434  142.9090 LP  0  0  0  0  0  0  0  0  0  0  0  0  # atno 17320 bound_to 7965
  145.3903  141.0371  143.3127 LP  0  0  0  0  0  0  0  0  0  0  0  0  # atno 17321 bound_to 7965
  139.7432  144.7554  151.0620 LP  0  0  0  0  0  0  0  0  0  0  0  0  # atno 17342 bound_to 10162
  140.7783  143.4948  150.9847 LP  0  0  0  0  0  0  0  0  0  0  0  0  # atno 17343 bound_to 10162
  157.5107  131.0925  151.0201 LP  0  0  0  0  0  0  0  0  0  0  0  0  # atno 17370 bound_to 10713
  157.0557  130.5805  149.5377 LP  0  0  0  0  0  0  0  0  0  0  0  0  # atno 17371 bound_to 10713
  140.0601  134.6007  155.8758 LP  0  0  0  0  0  0  0  0  0  0  0  0  # atno 17394 bound_to 11000
  141.1974  133.6596  156.5741 LP  0  0  0  0  0  0  0  0  0  0  0  0  # atno 17395 bound_to 11000

$$$$
