AV-unprocessed.smi:1840|AV-procd|sdf|7494|dock4
  -GOLD-   22720 9193D 1   1.00000     0.00000
 Structure written by MMmdl.
 43 44  0  0  0  0  0  0  0  0  1 V2000
  150.9446  133.8161  155.7607 C   0  0  0  0  0  0  0  0  0  0  0  0
  149.6269  134.0695  155.0158 C   0  0  2  0  0  0  0  0  0  0  0  0
  149.3417  132.9596  153.9824 C   0  0  0  0  0  0  0  0  0  0  0  0
  147.9641  132.9672  153.5210 N   0  0  0  0  0  0  0  0  0  0  0  0
  147.4954  132.9643  152.2242 C   0  0  0  0  0  0  0  0  0  0  0  0
  146.1314  132.9576  152.2851 C   0  0  0  0  0  0  0  0  0  0  0  0
  145.8561  132.9649  153.6810 C   0  0  0  0  0  0  0  0  0  0  0  0
  146.9546  132.9720  154.4183 N   0  0  0  0  0  0  0  0  0  0  0  0
  149.6886  135.3786  154.3661 N   0  0  0  0  0  0  0  0  0  0  0  0
  150.0613  136.5251  154.9538 C   0  0  0  0  0  0  0  0  0  0  0  0
  150.4363  136.6124  156.1234 O   0  0  0  0  0  0  0  0  0  0  0  0
  149.9573  137.5669  154.1158 N   0  0  0  0  0  0  0  0  0  0  0  0
  150.2789  138.9575  154.4357 C   0  0  1  0  0  0  0  0  0  0  0  0
  149.0721  139.5908  155.1562 C   0  0  0  0  0  0  0  0  0  0  0  0
  149.3540  141.0436  155.5656 C   0  0  0  0  0  0  0  0  0  0  0  0
  150.6154  141.1345  156.4349 C   0  0  0  0  0  0  0  0  0  0  0  0
  151.8246  140.5151  155.7179 C   0  0  0  0  0  0  0  0  0  0  0  0
  151.5615  139.0528  155.3033 C   0  0  2  0  0  0  0  0  0  0  0  0
  152.8007  138.4591  154.6099 C   0  0  0  0  0  0  0  0  0  0  0  0
  150.9227  132.8583  156.2815 H   0  0  0  0  0  0  0  0  0  0  0  0
  151.1300  134.5908  156.5055 H   0  0  0  0  0  0  0  0  0  0  0  0
  151.7929  133.8025  155.0754 H   0  0  0  0  0  0  0  0  0  0  0  0
  148.8300  134.0605  155.7619 H   0  0  0  0  0  0  0  0  0  0  0  0
  150.0096  133.0540  153.1245 H   0  0  0  0  0  0  0  0  0  0  0  0
  149.5384  131.9811  154.4220 H   0  0  0  0  0  0  0  0  0  0  0  0
  148.1646  132.9592  151.3764 H   0  0  0  0  0  0  0  0  0  0  0  0
  145.4368  132.9475  151.4586 H   0  0  0  0  0  0  0  0  0  0  0  0
  144.8969  132.9621  154.1778 H   0  0  0  0  0  0  0  0  0  0  0  0
  149.3945  135.4175  153.4012 H   0  0  0  0  0  0  0  0  0  0  0  0
  149.6271  137.3862  153.1792 H   0  0  0  0  0  0  0  0  0  0  0  0
  150.4446  139.5205  153.5149 H   0  0  0  0  0  0  0  0  0  0  0  0
  148.1927  139.5583  154.5117 H   0  0  0  0  0  0  0  0  0  0  0  0
  148.8240  139.0085  156.0450 H   0  0  0  0  0  0  0  0  0  0  0  0
  149.4776  141.6587  154.6734 H   0  0  0  0  0  0  0  0  0  0  0  0
  148.4991  141.4503  156.1066 H   0  0  0  0  0  0  0  0  0  0  0  0
  150.8224  142.1761  156.6816 H   0  0  0  0  0  0  0  0  0  0  0  0
  150.4473  140.6194  157.3816 H   0  0  0  0  0  0  0  0  0  0  0  0
  152.0661  141.1095  154.8356 H   0  0  0  0  0  0  0  0  0  0  0  0
  152.6967  140.5668  156.3705 H   0  0  0  0  0  0  0  0  0  0  0  0
  151.3957  138.4780  156.2161 H   0  0  0  0  0  0  0  0  0  0  0  0
  152.9893  138.9438  153.6514 H   0  0  0  0  0  0  0  0  0  0  0  0
  152.6822  137.3919  154.4262 H   0  0  0  0  0  0  0  0  0  0  0  0
  153.6921  138.5801  155.2257 H   0  0  0  0  0  0  0  0  0  0  0  0
  1  2  1  0  0  0  0
  1 20  1  0  0  0  0
  1 21  1  0  0  0  0
  1 22  1  0  0  0  0
  2  3  1  0  0  0  0
  2  9  1  0  0  0  0
  2 23  1  0  0  0  0
  3  4  1  0  0  0  0
  3 24  1  0  0  0  0
  3 25  1  0  0  0  0
  4  8  1  0  0  0  0
  4  5  1  0  0  0  0
  5  6  2  0  0  0  0
  5 26  1  0  0  0  0
  6  7  1  0  0  0  0
  6 27  1  0  0  0  0
  7  8  2  0  0  0  0
  7 28  1  0  0  0  0
  9 10  1  0  0  0  0
  9 29  1  0  0  0  0
 10 11  2  0  0  0  0
 10 12  1  0  0  0  0
 12 13  1  0  0  0  0
 12 30  1  0  0  0  0
 13 18  1  0  0  0  0
 13 14  1  0  0  0  0
 13 31  1  0  0  0  0
 14 15  1  0  0  0  0
 14 32  1  0  0  0  0
 14 33  1  0  0  0  0
 15 16  1  0  0  0  0
 15 34  1  0  0  0  0
 15 35  1  0  0  0  0
 16 17  1  0  0  0  0
 16 36  1  0  0  0  0
 16 37  1  0  0  0  0
 17 18  1  0  0  0  0
 17 38  1  0  0  0  0
 17 39  1  0  0  0  0
 18 19  1  0  0  0  0
 18 40  1  0  0  0  0
 19 41  1  0  0  0  0
 19 42  1  0  0  0  0
 19 43  1  0  0  0  0
M  END
> <s_m_source_file>
AV-unprocessed.smi

> <i_m_source_file_index>
1840

> <i_lp_mmshare_version>
43012

> <i_f3d_flags>
0

> <s_epik_input>
bjFbY0hdW2NIXVtjSF1uMVtDSDJdW0NAQEhdKFtDSDNdKVtOSF1DKD1PKVtOSF1bQ0BASF0yW0NIMl1bQ0gyXVtDSDJdW0NIMl1bQ0BIXTJbQ0gzXQ==

> <s_epik_cmdline>
J2VwaWtfcHl0aG9uJywgJy1waCcsICc3LjAnLCAnLXRuJywgJzgnLCAnLW1hJywgJzIwMCcsICctbWV0YWxfYmluZGluZycsICctaW1hZScsICc8aW5maWxlLm1hZT4nLCAnLW9tYWUnLCAnPG91dGZpbGUubWFlPic=

> <r_lp_tautomer_probability>
1

> <r_epik_Ionization_Penalty>
7.38659e-05

> <r_epik_Ionization_Penalty_Charging>
0

> <r_epik_Ionization_Penalty_Neutral>
7.38659e-05

> <r_epik_State_Penalty>
-0

> <r_epik_Charging_Adjusted_Penalty>
0

> <i_epik_Tot_Q>
0

> <i_epik_Tot_abs_Q>
0

> <r_epik_Metal_State_Penalty>
-0

> <b_epik_Metal_Only>
0

> <s_lp_Force_Field>
OPLS_2005

> <r_lp_Energy>
7.66905

> <b_lp_Chiralities_Consistent>
1

> <s_lp_Variant>
AV-unprocessed.smi:1840-7

> <Gold.Version>
5.8.1

> <Gold.Id.Protein>
6NUR|6NUR_protein|mol2

> <Gold.PLP.Fitness>
43.9633

> <Gold.PLP.PLP>
-33.4095

> <Gold.PLP.part.hbond>
-2.0171

> <Gold.PLP.part.metal>
0.0000

> <Gold.PLP.part.buried>
-3.4829

> <Gold.PLP.part.nonpolar>
-29.0773

> <Gold.PLP.part.repulsive>
0.1558

> <Gold.PLP.ligand.clash>
0.0000

> <Gold.PLP.ligand.torsion>
0.5616

> <Gold.PLP.Chemscore.Hbond>
2.0000

> <Gold.PLP.Chemscore.CHOScore>
1.8850

> <Gold.PLP.Chemscore.Metal>
0.0000

> <Gold.Chemscore.Hbonds>
donor molecule, donor type, donor heavy atom, donor atom, acceptor molecule, acceptor atom, score
      L1  H     9    29       P1  7948  0.85
      L1  H    12    30       P1  7948  1.00
      L1  C     5    26       P1 10747  0.88
      L1  C     7    28       P1 10957  0.84

> <Gold.PLP.Chemscore.Internal.Correction>
0.0220

> <Gold.Rescore>
     Score         DG    S(hbond)    S(metal)    S(lipo)     H(rot)  DE(clash)    DE(int)     intcor
     12.64     -15.22       1.60        0.00      71.63       1.56       0.00       2.58       ----

> <Gold.Chemscore.Fitness>
12.6354

> <Gold.Chemscore.DG>
-15.2182

> <Gold.Chemscore.ZeroCoef>
-5.4800

> <Gold.Chemscore.Hbond>
1.6004

> <Gold.Chemscore.Metal>
0.0000

> <Gold.Chemscore.Lipo>
71.6258

> <Gold.Chemscore.Internal_Hbond>
0.0000

> <Gold.Chemscore.DEClash>
0.0034

> <Gold.Chemscore.DEInternal>
2.5793

> <Gold.Chemscore.Rot>
1.5576

> <Gold.Chemscore.Internal.Correction>
   9.000000E+99

> <Gold.Chemscore.Hbonds>
donor molecule, donor type, donor heavy atom, donor atom, acceptor molecule, acceptor atom, score
      L1  H     9    29       P1  7948  0.14
      L1  H    12    30       P1  7948  0.72

> <Gold.Chemscore.Hbond.Weighted>
-5.3454

> <Gold.Chemscore.Metal.Weighted>
-0.0000

> <Gold.Chemscore.Lipo.Weighted>
-8.3802

> <Gold.Chemscore.Internal_Hbond.Weighted>
0.0000

> <Gold.Chemscore.DEClash.Weighted>
0.0034

> <Gold.Chemscore.DEInternal.Weighted>
2.5793

> <Gold.Chemscore.Rot.Weighted>
3.9875

> <Gold.Chemscore.Internal.Correction.Weighted>
   9.000000E+99

> <Gold.Protein.RotatedTorsions>
[ 6907 6896 6895 6894 ] final  114.42 input  -60.11 | X-H torsion
[ 7974 7965 7964 7962 ] final  162.08 input  175.53 | X-H torsion
[ 8008 7997 7996 7995 ] final    7.09 input   59.86 | X-H torsion
[ 10167 10162 10161 10158 ] final -151.86 input  -65.29 | X-H torsion
[ 10718 10713 10712 10709 ] final -132.04 input   66.30 | X-H torsion
[ 10763 10752 10751 10750 ] final   56.26 input  -60.55 | X-H torsion
[ 11005 11000 10999 10996 ] final -105.52 input  -57.11 | X-H torsion

> <Gold.Protein.ActiveResidues>
 VAL166  LYS551  ARG553  GLY616  TRP617  ASP618  TYR619  PRO620  LYS621  CYS622 
 ASP623  PHE694  ASN695  SER759  ASP760  ASP761  ALA762  ILE779  LEU786  VAL792 
 PHE793  MET794  SER795  GLU796  ALA797  LYS798  CYS799  TRP800  GLU811  SER814 

> <Gold.Protein.RotatedAtoms>
  152.4803  133.8238  159.7067 H   0  0  0  0  0  0  0  0  0  0  0  0  # atno 6907 bound_to 6896
  150.8848  133.7313  159.2928 H   0  0  0  0  0  0  0  0  0  0  0  0  # atno 6908 bound_to 6896
  151.4805  135.1055  159.9828 H   0  0  0  0  0  0  0  0  0  0  0  0  # atno 6909 bound_to 6896
  144.7654  139.7989  143.6317 H   0  0  0  0  0  0  0  0  0  0  0  0  # atno 7974 bound_to 7965
  154.7493  140.2764  155.6306 H   0  0  0  0  0  0  0  0  0  0  0  0  # atno 8008 bound_to 7997
  156.2892  140.2681  156.2169 H   0  0  0  0  0  0  0  0  0  0  0  0  # atno 8009 bound_to 7997
  155.0157  140.0372  157.2407 H   0  0  0  0  0  0  0  0  0  0  0  0  # atno 8010 bound_to 7997
  139.7231  143.8926  152.2510 H   0  0  0  0  0  0  0  0  0  0  0  0  # atno 10167 bound_to 10162
  156.2305  130.7034  151.0853 H   0  0  0  0  0  0  0  0  0  0  0  0  # atno 10718 bound_to 10713
  152.9829  135.5682  154.5199 H   0  0  0  0  0  0  0  0  0  0  0  0  # atno 10763 bound_to 10752
  154.4689  135.2784  155.1659 H   0  0  0  0  0  0  0  0  0  0  0  0  # atno 10764 bound_to 10752
  154.3216  135.6268  153.5563 H   0  0  0  0  0  0  0  0  0  0  0  0  # atno 10765 bound_to 10752
  141.1049  133.8815  157.1744 H   0  0  0  0  0  0  0  0  0  0  0  0  # atno 11005 bound_to 11000
  146.1756  139.4925  142.9899 LP  0  0  0  0  0  0  0  0  0  0  0  0  # atno 17320 bound_to 7965
  145.6487  141.0268  143.1772 LP  0  0  0  0  0  0  0  0  0  0  0  0  # atno 17321 bound_to 7965
  139.8828  144.7008  150.8859 LP  0  0  0  0  0  0  0  0  0  0  0  0  # atno 17342 bound_to 10162
  140.7757  143.3648  151.1760 LP  0  0  0  0  0  0  0  0  0  0  0  0  # atno 17343 bound_to 10162
  157.7131  131.0724  150.6429 LP  0  0  0  0  0  0  0  0  0  0  0  0  # atno 17370 bound_to 10713
  156.6496  130.4481  149.5724 LP  0  0  0  0  0  0  0  0  0  0  0  0  # atno 17371 bound_to 10713
  139.9915  135.0062  156.9986 LP  0  0  0  0  0  0  0  0  0  0  0  0  # atno 17394 bound_to 11000
  140.4927  134.1177  155.7235 LP  0  0  0  0  0  0  0  0  0  0  0  0  # atno 17395 bound_to 11000

$$$$
