AV-unprocessed.smi:2471|AV-procd|sdf|9740|dock6
  -GOLD-   2272013383D 1   1.00000     0.00000
 Structure written by MMmdl.
 40 41  0  0  0  0  0  0  0  0  1 V2000
  153.2429  142.3305  162.2019 C   0  0  0  0  0  0  0  0  0  0  0  0
  152.5753  143.0103  161.0249 C   0  0  0  0  0  0  0  0  0  0  0  0
  152.1997  144.3663  161.0891 C   0  0  0  0  0  0  0  0  0  0  0  0
  151.5883  144.9386  159.9593 C   0  0  0  0  0  0  0  0  0  0  0  0
  151.3787  144.1372  158.8203 C   0  0  0  0  0  0  0  0  0  0  0  0
  151.7855  142.7840  158.8380 C   0  0  0  0  0  0  0  0  0  0  0  0
  151.5307  142.0616  157.6416 N   0  0  0  0  0  0  0  0  0  0  0  0
  152.0643  140.8913  157.2488 C   0  0  0  0  0  0  0  0  0  0  0  0
  152.8810  140.2291  157.8901 O   0  0  0  0  0  0  0  0  0  0  0  0
  151.5915  140.5183  156.0507 N   0  0  0  0  0  0  0  0  0  0  0  0
  151.9656  139.2927  155.3509 C   0  0  0  0  0  0  0  0  0  0  0  0
  150.7415  138.5251  154.7963 C   0  0  1  0  0  0  0  0  0  0  0  0
  150.3341  137.3656  155.7361 C   0  0  0  0  0  0  0  0  0  0  0  0
  149.0977  136.6099  155.2255 C   0  0  0  0  0  0  0  0  0  0  0  0
  147.9141  137.5635  155.0161 C   0  0  0  0  0  0  0  0  0  0  0  0
  148.2955  138.7003  154.0587 C   0  0  0  0  0  0  0  0  0  0  0  0
  149.5349  139.4669  154.5576 C   0  0  2  0  0  0  0  0  0  0  0  0
  149.8559  140.4402  153.5834 O   0  0  0  0  0  0  0  0  0  0  0  0
  152.3755  142.2420  159.9325 N   0  0  0  0  0  0  0  0  0  0  0  0
  153.1757  142.9430  163.1015 H   0  0  0  0  0  0  0  0  0  0  0  0
  154.2969  142.1538  161.9865 H   0  0  0  0  0  0  0  0  0  0  0  0
  152.7683  141.3707  162.4097 H   0  0  0  0  0  0  0  0  0  0  0  0
  152.3751  144.9543  161.9780 H   0  0  0  0  0  0  0  0  0  0  0  0
  151.2848  145.9750  159.9651 H   0  0  0  0  0  0  0  0  0  0  0  0
  150.9097  144.5619  157.9443 H   0  0  0  0  0  0  0  0  0  0  0  0
  150.8683  142.4874  157.0108 H   0  0  0  0  0  0  0  0  0  0  0  0
  150.9236  141.1201  155.5912 H   0  0  0  0  0  0  0  0  0  0  0  0
  152.6366  139.5613  154.5346 H   0  0  0  0  0  0  0  0  0  0  0  0
  152.5479  138.6634  156.0257 H   0  0  0  0  0  0  0  0  0  0  0  0
  151.0171  138.0901  153.8339 H   0  0  0  0  0  0  0  0  0  0  0  0
  151.1569  136.6590  155.8471 H   0  0  0  0  0  0  0  0  0  0  0  0
  150.1297  137.7574  156.7336 H   0  0  0  0  0  0  0  0  0  0  0  0
  149.3367  136.1090  154.2864 H   0  0  0  0  0  0  0  0  0  0  0  0
  148.8226  135.8271  155.9329 H   0  0  0  0  0  0  0  0  0  0  0  0
  147.0588  137.0147  154.6212 H   0  0  0  0  0  0  0  0  0  0  0  0
  147.6012  137.9791  155.9749 H   0  0  0  0  0  0  0  0  0  0  0  0
  148.4911  138.2846  153.0687 H   0  0  0  0  0  0  0  0  0  0  0  0
  147.4528  139.3833  153.9451 H   0  0  0  0  0  0  0  0  0  0  0  0
  149.2876  139.9847  155.4855 H   0  0  0  0  0  0  0  0  0  0  0  0
  149.5373  140.1440  152.7445 H   0  0  0  0  0  0  0  0  0  0  0  0
  1  2  1  0  0  0  0
  1 20  1  0  0  0  0
  1 21  1  0  0  0  0
  1 22  1  0  0  0  0
  2 19  1  0  0  0  0
  2  3  2  0  0  0  0
  3  4  1  0  0  0  0
  3 23  1  0  0  0  0
  4  5  2  0  0  0  0
  4 24  1  0  0  0  0
  5  6  1  0  0  0  0
  5 25  1  0  0  0  0
  6  7  1  0  0  0  0
  6 19  2  0  0  0  0
  7  8  1  0  0  0  0
  7 26  1  0  0  0  0
  8  9  2  0  0  0  0
  8 10  1  0  0  0  0
 10 11  1  0  0  0  0
 10 27  1  0  0  0  0
 11 12  1  0  0  0  0
 11 28  1  0  0  0  0
 11 29  1  0  0  0  0
 12 17  1  0  0  0  0
 12 13  1  0  0  0  0
 12 30  1  0  0  0  0
 13 14  1  0  0  0  0
 13 31  1  0  0  0  0
 13 32  1  0  0  0  0
 14 15  1  0  0  0  0
 14 33  1  0  0  0  0
 14 34  1  0  0  0  0
 15 16  1  0  0  0  0
 15 35  1  0  0  0  0
 15 36  1  0  0  0  0
 16 17  1  0  0  0  0
 16 37  1  0  0  0  0
 16 38  1  0  0  0  0
 17 18  1  0  0  0  0
 17 39  1  0  0  0  0
 18 40  1  0  0  0  0
M  END
> <s_m_source_file>
AV-unprocessed.smi

> <i_m_source_file_index>
2471

> <i_lp_mmshare_version>
43012

> <i_f3d_flags>
0

> <s_epik_input>
W0NIM11jMVtjSF1bY0hdW2NIXWMobjEpW05IXUMoPU8pW05IXVtDSDJdW0NAQEhdMltDSDJdW0NIMl1bQ0gyXVtDSDJdW0NASF0yW09IXQ==

> <s_epik_cmdline>
J2VwaWtfcHl0aG9uJywgJy1waCcsICc3LjAnLCAnLXRuJywgJzgnLCAnLW1hJywgJzIwMCcsICctbWV0YWxfYmluZGluZycsICctaW1hZScsICc8aW5maWxlLm1hZT4nLCAnLW9tYWUnLCAnPG91dGZpbGUubWFlPic=

> <r_lp_tautomer_probability>
1

> <r_epik_Ionization_Penalty>
8.52237e-05

> <r_epik_Ionization_Penalty_Charging>
0

> <r_epik_Ionization_Penalty_Neutral>
8.52237e-05

> <r_epik_State_Penalty>
-0

> <r_epik_Charging_Adjusted_Penalty>
0

> <i_epik_Tot_Q>
0

> <i_epik_Tot_abs_Q>
0

> <r_epik_Metal_State_Penalty>
-0

> <b_epik_Metal_Only>
0

> <s_lp_Force_Field>
OPLS_2005

> <r_lp_Energy>
14.0215

> <b_lp_Chiralities_Consistent>
1

> <s_lp_Variant>
AV-unprocessed.smi:2471-4

> <Gold.Version>
5.8.1

> <Gold.Id.Protein>
6NUR|6NUR_protein|mol2

> <Gold.PLP.Fitness>
45.3430

> <Gold.PLP.PLP>
-38.9503

> <Gold.PLP.part.hbond>
-2.9364

> <Gold.PLP.part.metal>
0.0000

> <Gold.PLP.part.buried>
-7.4204

> <Gold.PLP.part.nonpolar>
-28.9064

> <Gold.PLP.part.repulsive>
0.2036

> <Gold.PLP.ligand.clash>
0.0000

> <Gold.PLP.ligand.torsion>
0.6461

> <Gold.PLP.Chemscore.Hbond>
2.5600

> <Gold.PLP.Chemscore.CHOScore>
0.0000

> <Gold.PLP.Chemscore.Metal>
0.0000

> <Gold.Chemscore.Hbonds>
donor molecule, donor type, donor heavy atom, donor atom, acceptor molecule, acceptor atom, score
      L1  H    18    40       P1  7957  1.00
      P1  H  7989  7998       L1    18  0.54
      P1  H  7997  8008       L1     9  0.98

> <Gold.PLP.Chemscore.Internal.Correction>
0.0048

> <Gold.Rescore>
     Score         DG    S(hbond)    S(metal)    S(lipo)     H(rot)  DE(clash)    DE(int)     intcor
     16.85     -18.96       2.16        0.00      91.61       1.73       0.30       1.81       ----

> <Gold.Chemscore.Fitness>
16.8506

> <Gold.Chemscore.DG>
-18.9601

> <Gold.Chemscore.ZeroCoef>
-5.4800

> <Gold.Chemscore.Hbond>
2.1558

> <Gold.Chemscore.Metal>
0.0000

> <Gold.Chemscore.Lipo>
91.6108

> <Gold.Chemscore.Internal_Hbond>
0.0000

> <Gold.Chemscore.DEClash>
0.3041

> <Gold.Chemscore.DEInternal>
1.8054

> <Gold.Chemscore.Rot>
1.7339

> <Gold.Chemscore.Internal.Correction>
   9.000000E+99

> <Gold.Chemscore.Hbonds>
donor molecule, donor type, donor heavy atom, donor atom, acceptor molecule, acceptor atom, score
      L1  H    18    40       P1  7957  0.94
      P1  H  7989  7998       L1    18  0.37
      P1  H  7997  8008       L1     9  0.69

> <Gold.Chemscore.Hbond.Weighted>
-7.2003

> <Gold.Chemscore.Metal.Weighted>
-0.0000

> <Gold.Chemscore.Lipo.Weighted>
-10.7185

> <Gold.Chemscore.Internal_Hbond.Weighted>
0.0000

> <Gold.Chemscore.DEClash.Weighted>
0.3041

> <Gold.Chemscore.DEInternal.Weighted>
1.8054

> <Gold.Chemscore.Rot.Weighted>
4.4387

> <Gold.Chemscore.Internal.Correction.Weighted>
   9.000000E+99

> <Gold.Protein.RotatedTorsions>
[ 6907 6896 6895 6894 ] final  124.42 input  -60.11 | X-H torsion
[ 7974 7965 7964 7962 ] final  -48.79 input  175.53 | X-H torsion
[ 8008 7997 7996 7995 ] final  -76.34 input   59.86 | X-H torsion
[ 10167 10162 10161 10158 ] final   56.27 input  -65.29 | X-H torsion
[ 10718 10713 10712 10709 ] final  -63.65 input   66.30 | X-H torsion
[ 10763 10752 10751 10750 ] final  -56.94 input  -60.55 | X-H torsion
[ 11005 11000 10999 10996 ] final  -43.91 input  -57.11 | X-H torsion

> <Gold.Protein.ActiveResidues>
 VAL166  LYS551  ARG553  GLY616  TRP617  ASP618  TYR619  PRO620  LYS621  CYS622 
 ASP623  PHE694  ASN695  SER759  ASP760  ASP761  ALA762  ILE779  LEU786  VAL792 
 PHE793  MET794  SER795  GLU796  ALA797  LYS798  CYS799  TRP800  GLU811  SER814 

> <Gold.Protein.RotatedAtoms>
  152.4079  133.6918  159.6372 H   0  0  0  0  0  0  0  0  0  0  0  0  # atno 6907 bound_to 6896
  150.7962  133.8676  159.3258 H   0  0  0  0  0  0  0  0  0  0  0  0  # atno 6908 bound_to 6896
  151.6425  135.1013  160.0196 H   0  0  0  0  0  0  0  0  0  0  0  0  # atno 6909 bound_to 6896
  145.9474  140.7605  142.9522 H   0  0  0  0  0  0  0  0  0  0  0  0  # atno 7974 bound_to 7965
  154.5497  140.0729  156.8647 H   0  0  0  0  0  0  0  0  0  0  0  0  # atno 8008 bound_to 7997
  155.3018  140.3384  155.4229 H   0  0  0  0  0  0  0  0  0  0  0  0  # atno 8009 bound_to 7997
  156.1950  140.1700  156.8003 H   0  0  0  0  0  0  0  0  0  0  0  0  # atno 8010 bound_to 7997
  140.2106  144.3893  150.6490 H   0  0  0  0  0  0  0  0  0  0  0  0  # atno 10167 bound_to 10162
  156.0778  130.4223  150.1307 H   0  0  0  0  0  0  0  0  0  0  0  0  # atno 10718 bound_to 10713
  154.2145  135.6388  153.5125 H   0  0  0  0  0  0  0  0  0  0  0  0  # atno 10763 bound_to 10752
  152.9982  135.5482  154.6179 H   0  0  0  0  0  0  0  0  0  0  0  0  # atno 10764 bound_to 10752
  154.5624  135.2910  155.0880 H   0  0  0  0  0  0  0  0  0  0  0  0  # atno 10765 bound_to 10752
  141.0415  133.6778  156.2798 H   0  0  0  0  0  0  0  0  0  0  0  0  # atno 11005 bound_to 11000
  144.6789  140.2379  143.7347 LP  0  0  0  0  0  0  0  0  0  0  0  0  # atno 17320 bound_to 7965
  145.8218  139.2047  143.1933 LP  0  0  0  0  0  0  0  0  0  0  0  0  # atno 17321 bound_to 7965
  140.6326  143.2190  151.6463 LP  0  0  0  0  0  0  0  0  0  0  0  0  # atno 17342 bound_to 10162
  139.5181  144.3293  152.0840 LP  0  0  0  0  0  0  0  0  0  0  0  0  # atno 17343 bound_to 10162
  156.9345  130.9724  151.3527 LP  0  0  0  0  0  0  0  0  0  0  0  0  # atno 17370 bound_to 10713
  157.5881  130.8424  149.8619 LP  0  0  0  0  0  0  0  0  0  0  0  0  # atno 17371 bound_to 10713
  140.6225  134.5347  157.5549 LP  0  0  0  0  0  0  0  0  0  0  0  0  # atno 17394 bound_to 11000
  139.9279  134.8019  156.1014 LP  0  0  0  0  0  0  0  0  0  0  0  0  # atno 17395 bound_to 11000

$$$$
