AV-unprocessed.smi:836|AV-procd|sdf|3891|dock6
  -GOLD-   22720 1343D 1   1.00000     0.00000
 Structure written by MMmdl.
 38 39  0  0  0  0  0  0  0  0  1 V2000
  154.0802  138.0365  160.0299 C   0  0  0  0  0  0  0  0  0  0  0  0
  153.1609  137.6133  158.8755 C   0  0  2  0  0  0  0  0  0  0  0  0
  153.5164  138.3533  157.5718 C   0  0  0  0  0  0  0  0  0  0  0  0
  152.5960  137.9339  156.4116 C   0  0  0  0  0  0  0  0  0  0  0  0
  151.1035  138.1199  156.7546 C   0  0  2  0  0  0  0  0  0  0  0  0
  150.7536  139.5353  156.8411 N   0  0  0  0  0  0  0  0  0  0  0  0
  150.6881  140.3947  155.8119 C   0  0  0  0  0  0  0  0  0  0  0  0
  150.9417  140.0821  154.6489 O   0  0  0  0  0  0  0  0  0  0  0  0
  150.2835  141.8327  156.1465 C   0  0  0  0  0  0  0  0  0  0  0  0
  151.2749  142.4855  156.9852 N   0  0  0  0  0  0  0  0  0  0  0  0
  151.7038  143.7947  156.9445 C   0  0  0  0  0  0  0  0  0  0  0  0
  152.6298  143.9487  157.9359 C   0  0  0  0  0  0  0  0  0  0  0  0
  152.7061  142.6615  158.5430 C   0  0  0  0  0  0  0  0  0  0  0  0
  153.5639  142.2225  159.7005 C   0  0  0  0  0  0  0  0  0  0  0  0
  153.3297  140.9428  159.9909 F   0  0  0  0  0  0  0  0  0  0  0  0
  154.8527  142.3633  159.3905 F   0  0  0  0  0  0  0  0  0  0  0  0
  153.2910  142.9634  160.7744 F   0  0  0  0  0  0  0  0  0  0  0  0
  151.8922  141.7890  157.9640 N   0  0  0  0  0  0  0  0  0  0  0  0
  150.7508  137.4071  158.0740 C   0  0  0  0  0  0  0  0  0  0  0  0
  151.6768  137.8280  159.2294 C   0  0  0  0  0  0  0  0  0  0  0  0
  153.9753  139.0991  160.2512 H   0  0  0  0  0  0  0  0  0  0  0  0
  155.1265  137.8478  159.7884 H   0  0  0  0  0  0  0  0  0  0  0  0
  153.8482  137.4822  160.9399 H   0  0  0  0  0  0  0  0  0  0  0  0
  153.3148  136.5462  158.7082 H   0  0  0  0  0  0  0  0  0  0  0  0
  153.4441  139.4310  157.7264 H   0  0  0  0  0  0  0  0  0  0  0  0
  154.5536  138.1530  157.3015 H   0  0  0  0  0  0  0  0  0  0  0  0
  152.8524  138.4924  155.5106 H   0  0  0  0  0  0  0  0  0  0  0  0
  152.7782  136.8844  156.1769 H   0  0  0  0  0  0  0  0  0  0  0  0
  150.5050  137.6671  155.9619 H   0  0  0  0  0  0  0  0  0  0  0  0
  150.5314  139.8900  157.7604 H   0  0  0  0  0  0  0  0  0  0  0  0
  150.1515  142.4001  155.2240 H   0  0  0  0  0  0  0  0  0  0  0  0
  149.3262  141.8405  156.6693 H   0  0  0  0  0  0  0  0  0  0  0  0
  151.3148  144.4999  156.2247 H   0  0  0  0  0  0  0  0  0  0  0  0
  153.1706  144.8478  158.1917 H   0  0  0  0  0  0  0  0  0  0  0  0
  149.7107  137.5994  158.3403 H   0  0  0  0  0  0  0  0  0  0  0  0
  150.8309  136.3289  157.9294 H   0  0  0  0  0  0  0  0  0  0  0  0
  151.4218  137.2591  160.1242 H   0  0  0  0  0  0  0  0  0  0  0  0
  151.5035  138.8766  159.4753 H   0  0  0  0  0  0  0  0  0  0  0  0
  1  2  1  0  0  0  0
  1 21  1  0  0  0  0
  1 22  1  0  0  0  0
  1 23  1  0  0  0  0
  2 20  1  0  0  0  0
  2  3  1  0  0  0  0
  2 24  1  0  0  0  0
  3  4  1  0  0  0  0
  3 25  1  0  0  0  0
  3 26  1  0  0  0  0
  4  5  1  0  0  0  0
  4 27  1  0  0  0  0
  4 28  1  0  0  0  0
  5  6  1  0  0  0  0
  5 19  1  0  0  0  0
  5 29  1  0  0  0  0
  6  7  1  0  0  0  0
  6 30  1  0  0  0  0
  7  8  2  0  0  0  0
  7  9  1  0  0  0  0
  9 10  1  0  0  0  0
  9 31  1  0  0  0  0
  9 32  1  0  0  0  0
 10 18  1  0  0  0  0
 10 11  1  0  0  0  0
 11 12  2  0  0  0  0
 11 33  1  0  0  0  0
 12 13  1  0  0  0  0
 12 34  1  0  0  0  0
 13 14  1  0  0  0  0
 13 18  2  0  0  0  0
 14 15  1  0  0  0  0
 14 16  1  0  0  0  0
 14 17  1  0  0  0  0
 19 20  1  0  0  0  0
 19 35  1  0  0  0  0
 19 36  1  0  0  0  0
 20 37  1  0  0  0  0
 20 38  1  0  0  0  0
M  END
> <s_m_source_file>
AV-unprocessed.smi

> <i_m_source_file_index>
836

> <i_lp_mmshare_version>
43012

> <i_f3d_flags>
0

> <s_epik_input>
W0NIM11bQ0BASF0xW0NIMl1bQ0gyXVtDQEhdKFtDSDJdW0NIMl0xKVtOSF1DKD1PKVtDSDJdbjJbY0hdW2NIXWMobjIpQyhGKShGKUY=

> <s_epik_cmdline>
J2VwaWtfcHl0aG9uJywgJy1waCcsICc3LjAnLCAnLXRuJywgJzgnLCAnLW1hJywgJzIwMCcsICctbWV0YWxfYmluZGluZycsICctaW1hZScsICc8aW5maWxlLm1hZT4nLCAnLW9tYWUnLCAnPG91dGZpbGUubWFlPic=

> <r_lp_tautomer_probability>
1

> <r_epik_Ionization_Penalty>
8.28749e-08

> <r_epik_Ionization_Penalty_Charging>
0

> <r_epik_Ionization_Penalty_Neutral>
8.28749e-08

> <r_epik_State_Penalty>
-0

> <r_epik_Charging_Adjusted_Penalty>
0

> <i_epik_Tot_Q>
0

> <i_epik_Tot_abs_Q>
0

> <r_epik_Metal_State_Penalty>
-0

> <b_epik_Metal_Only>
0

> <s_lp_Force_Field>
OPLS_2005

> <r_lp_Energy>
10.0253

> <b_lp_Chiralities_Consistent>
1

> <s_lp_Variant>
AV-unprocessed.smi:836-2

> <Gold.Version>
5.8.1

> <Gold.Id.Protein>
6NUR|6NUR_protein|mol2

> <Gold.PLP.Fitness>
40.6813

> <Gold.PLP.PLP>
-35.7376

> <Gold.PLP.part.hbond>
-0.9759

> <Gold.PLP.part.metal>
0.0000

> <Gold.PLP.part.buried>
-4.5182

> <Gold.PLP.part.nonpolar>
-31.0951

> <Gold.PLP.part.repulsive>
0.1033

> <Gold.PLP.ligand.clash>
0.0000

> <Gold.PLP.ligand.torsion>
0.4634

> <Gold.PLP.Chemscore.Hbond>
1.0000

> <Gold.PLP.Chemscore.CHOScore>
0.9497

> <Gold.PLP.Chemscore.Metal>
0.0000

> <Gold.Chemscore.Hbonds>
donor molecule, donor type, donor heavy atom, donor atom, acceptor molecule, acceptor atom, score
      P1  H  7989  7998       L1     8  1.00
      L1  C    11    33       P1  8028  0.90

> <Gold.PLP.Chemscore.Internal.Correction>
0.0212

> <Gold.Rescore>
     Score         DG    S(hbond)    S(metal)    S(lipo)     H(rot)  DE(clash)    DE(int)     intcor
     12.96     -14.95       1.00        0.00      86.16       1.54       0.55       1.43       ----

> <Gold.Chemscore.Fitness>
12.9582

> <Gold.Chemscore.DG>
-14.9458

> <Gold.Chemscore.ZeroCoef>
-5.4800

> <Gold.Chemscore.Hbond>
0.9978

> <Gold.Chemscore.Metal>
0.0000

> <Gold.Chemscore.Lipo>
86.1625

> <Gold.Chemscore.Internal_Hbond>
0.0000

> <Gold.Chemscore.DEClash>
0.5547

> <Gold.Chemscore.DEInternal>
1.4329

> <Gold.Chemscore.Rot>
1.5422

> <Gold.Chemscore.Internal.Correction>
   9.000000E+99

> <Gold.Chemscore.Hbonds>
donor molecule, donor type, donor heavy atom, donor atom, acceptor molecule, acceptor atom, score
      P1  H  7989  7998       L1     8  0.96

> <Gold.Chemscore.Hbond.Weighted>
-3.3327

> <Gold.Chemscore.Metal.Weighted>
-0.0000

> <Gold.Chemscore.Lipo.Weighted>
-10.0810

> <Gold.Chemscore.Internal_Hbond.Weighted>
0.0000

> <Gold.Chemscore.DEClash.Weighted>
0.5547

> <Gold.Chemscore.DEInternal.Weighted>
1.4329

> <Gold.Chemscore.Rot.Weighted>
3.9479

> <Gold.Chemscore.Internal.Correction.Weighted>
   9.000000E+99

> <Gold.Protein.RotatedTorsions>
[ 6907 6896 6895 6894 ] final  -21.88 input  -60.11 | X-H torsion
[ 7974 7965 7964 7962 ] final -141.52 input  175.53 | X-H torsion
[ 8008 7997 7996 7995 ] final   -6.41 input   59.86 | X-H torsion
[ 10167 10162 10161 10158 ] final -144.35 input  -65.29 | X-H torsion
[ 10718 10713 10712 10709 ] final  111.80 input   66.30 | X-H torsion
[ 10763 10752 10751 10750 ] final  112.62 input  -60.55 | X-H torsion
[ 11005 11000 10999 10996 ] final -170.47 input  -57.11 | X-H torsion

> <Gold.Protein.ActiveResidues>
 VAL166  LYS551  ARG553  GLY616  TRP617  ASP618  TYR619  PRO620  LYS621  CYS622 
 ASP623  PHE694  ASN695  SER759  ASP760  ASP761  ALA762  ILE779  LEU786  VAL792 
 PHE793  MET794  SER795  GLU796  ALA797  LYS798  CYS799  TRP800  GLU811  SER814 

> <Gold.Protein.RotatedAtoms>
  151.2268  135.0539  159.8971 H   0  0  0  0  0  0  0  0  0  0  0  0  # atno 6907 bound_to 6896
  152.5409  134.0580  159.8150 H   0  0  0  0  0  0  0  0  0  0  0  0  # atno 6908 bound_to 6896
  151.0754  133.5384  159.2656 H   0  0  0  0  0  0  0  0  0  0  0  0  # atno 6909 bound_to 6896
  144.8513  140.6070  143.5388 H   0  0  0  0  0  0  0  0  0  0  0  0  # atno 7974 bound_to 7965
  154.5940  140.2433  155.7881 H   0  0  0  0  0  0  0  0  0  0  0  0  # atno 8008 bound_to 7997
  156.2267  140.2980  156.0038 H   0  0  0  0  0  0  0  0  0  0  0  0  # atno 8009 bound_to 7997
  155.2324  140.0404  157.2954 H   0  0  0  0  0  0  0  0  0  0  0  0  # atno 8010 bound_to 7997
  139.7908  143.7969  152.2649 H   0  0  0  0  0  0  0  0  0  0  0  0  # atno 10167 bound_to 10162
  157.6426  131.0957  150.6801 H   0  0  0  0  0  0  0  0  0  0  0  0  # atno 10718 bound_to 10713
  153.4805  135.3680  155.2439 H   0  0  0  0  0  0  0  0  0  0  0  0  # atno 10763 bound_to 10752
  154.8755  135.3953  154.3705 H   0  0  0  0  0  0  0  0  0  0  0  0  # atno 10764 bound_to 10752
  153.4308  135.7082  153.6297 H   0  0  0  0  0  0  0  0  0  0  0  0  # atno 10765 bound_to 10752
  140.5191  134.5727  157.5042 H   0  0  0  0  0  0  0  0  0  0  0  0  # atno 11005 bound_to 11000
  145.4494  139.1525  143.3926 LP  0  0  0  0  0  0  0  0  0  0  0  0  # atno 17320 bound_to 7965
  146.2787  140.4619  142.8785 LP  0  0  0  0  0  0  0  0  0  0  0  0  # atno 17321 bound_to 7965
  139.8060  144.7355  150.9761 LP  0  0  0  0  0  0  0  0  0  0  0  0  # atno 17342 bound_to 10162
  140.7820  143.4298  151.0713 LP  0  0  0  0  0  0  0  0  0  0  0  0  # atno 17343 bound_to 10162
  156.7123  130.4655  149.5544 LP  0  0  0  0  0  0  0  0  0  0  0  0  # atno 17370 bound_to 10713
  156.1721  130.6444  151.0850 LP  0  0  0  0  0  0  0  0  0  0  0  0  # atno 17371 bound_to 10713
  139.9616  134.7443  156.0226 LP  0  0  0  0  0  0  0  0  0  0  0  0  # atno 17394 bound_to 11000
  141.1344  133.6578  156.3553 LP  0  0  0  0  0  0  0  0  0  0  0  0  # atno 17395 bound_to 11000

$$$$
