AV-unprocessed.smi:1252|AV-procd|sdf|5266|dock2
  -GOLD-   22720 4383D 1   1.00000     0.00000
 Structure written by MMmdl.
 44 45  0  0  0  0  0  0  0  0  2 V2000
  145.8877  137.4653  159.0473 C   0  0  0  0  0  0  0  0  0  0  0  0
  147.2836  136.8977  159.3660 C   0  0  2  0  0  0  0  0  0  0  0  0
  147.7316  135.8051  158.3838 C   0  0  0  0  0  0  0  0  0  0  0  0
  147.2115  134.6894  158.3909 O   0  0  0  0  0  0  0  0  0  0  0  0
  148.7423  136.1404  157.5677 N   0  0  0  0  0  0  0  0  0  0  0  0
  149.4754  135.2339  156.6870 C   0  0  0  0  0  0  0  0  0  0  0  0
  149.1173  135.4264  155.1816 C   0  0  0  0  0  0  0  0  0  0  0  0
  149.7509  134.2535  154.3923 C   0  0  0  0  0  0  0  0  0  0  0  0
  147.5827  135.3211  155.0275 C   0  0  0  0  0  0  0  0  0  0  0  0
  149.6420  136.7458  154.6713 N   0  3  0  0  0  0  0  0  0  0  0  0
  148.9015  137.9610  155.1133 C   0  0  0  0  0  0  0  0  0  0  0  0
  149.4341  139.2134  154.3957 C   0  0  0  0  0  0  0  0  0  0  0  0
  150.8295  139.3487  154.6243 O   0  0  0  0  0  0  0  0  0  0  0  0
  151.5550  138.2367  154.1203 C   0  0  0  0  0  0  0  0  0  0  0  0
  151.1054  136.9608  154.8491 C   0  0  0  0  0  0  0  0  0  0  0  0
  147.3434  136.3802  160.7275 N   0  0  0  0  0  0  0  0  0  0  0  0
  147.5045  135.1348  161.1835 C   0  0  0  0  0  0  0  0  0  0  0  0
  147.5623  135.0507  162.5049 N   0  0  0  0  0  0  0  0  0  0  0  0
  147.4094  136.3696  162.8248 C   0  0  0  0  0  0  0  0  0  0  0  0
  147.2937  137.2102  161.7970 N   0  0  0  0  0  0  0  0  0  0  0  0
  145.8581  137.8986  158.0468 H   0  0  0  0  0  0  0  0  0  0  0  0
  145.6193  138.2536  159.7512 H   0  0  0  0  0  0  0  0  0  0  0  0
  145.1143  136.6981  159.1015 H   0  0  0  0  0  0  0  0  0  0  0  0
  147.9992  137.7178  159.2837 H   0  0  0  0  0  0  0  0  0  0  0  0
  149.0806  137.0907  157.6177 H   0  0  0  0  0  0  0  0  0  0  0  0
  150.5510  135.3280  156.8474 H   0  0  0  0  0  0  0  0  0  0  0  0
  149.2370  134.2197  157.0072 H   0  0  0  0  0  0  0  0  0  0  0  0
  149.5416  133.2950  154.8685 H   0  0  0  0  0  0  0  0  0  0  0  0
  150.8344  134.3513  154.3197 H   0  0  0  0  0  0  0  0  0  0  0  0
  149.3580  134.1783  153.3783 H   0  0  0  0  0  0  0  0  0  0  0  0
  147.2256  134.3485  155.3684 H   0  0  0  0  0  0  0  0  0  0  0  0
  147.2654  135.4292  153.9907 H   0  0  0  0  0  0  0  0  0  0  0  0
  147.0554  136.0716  155.6158 H   0  0  0  0  0  0  0  0  0  0  0  0
  147.8390  137.8861  154.8898 H   0  0  0  0  0  0  0  0  0  0  0  0
  148.9980  138.0879  156.1918 H   0  0  0  0  0  0  0  0  0  0  0  0
  149.2329  139.1639  153.3252 H   0  0  0  0  0  0  0  0  0  0  0  0
  148.9287  140.1033  154.7711 H   0  0  0  0  0  0  0  0  0  0  0  0
  151.4100  138.1442  153.0428 H   0  0  0  0  0  0  0  0  0  0  0  0
  152.6190  138.4076  154.2847 H   0  0  0  0  0  0  0  0  0  0  0  0
  151.3472  137.0490  155.9086 H   0  0  0  0  0  0  0  0  0  0  0  0
  151.6819  136.1246  154.4577 H   0  0  0  0  0  0  0  0  0  0  0  0
  147.5960  134.2754  160.5353 H   0  0  0  0  0  0  0  0  0  0  0  0
  147.4028  136.7236  163.8452 H   0  0  0  0  0  0  0  0  0  0  0  0
  149.4987  136.7046  153.6723 H   0  0  0  0  0  0  0  0  0  0  0  0
  1  2  1  0  0  0  0
  1 21  1  0  0  0  0
  1 22  1  0  0  0  0
  1 23  1  0  0  0  0
  2  3  1  0  0  0  0
  2 16  1  0  0  0  0
  2 24  1  0  0  0  0
  3  4  2  0  0  0  0
  3  5  1  0  0  0  0
  5  6  1  0  0  0  0
  5 25  1  0  0  0  0
  6  7  1  0  0  0  0
  6 26  1  0  0  0  0
  6 27  1  0  0  0  0
  7  8  1  0  0  0  0
  7  9  1  0  0  0  0
  7 10  1  0  0  0  0
  8 28  1  0  0  0  0
  8 29  1  0  0  0  0
  8 30  1  0  0  0  0
  9 31  1  0  0  0  0
  9 32  1  0  0  0  0
  9 33  1  0  0  0  0
 10 15  1  0  0  0  0
 10 11  1  0  0  0  0
 10 44  1  0  0  0  0
 11 12  1  0  0  0  0
 11 34  1  0  0  0  0
 11 35  1  0  0  0  0
 12 13  1  0  0  0  0
 12 36  1  0  0  0  0
 12 37  1  0  0  0  0
 13 14  1  0  0  0  0
 14 15  1  0  0  0  0
 14 38  1  0  0  0  0
 14 39  1  0  0  0  0
 15 40  1  0  0  0  0
 15 41  1  0  0  0  0
 16 20  1  0  0  0  0
 16 17  1  0  0  0  0
 17 18  2  0  0  0  0
 17 42  1  0  0  0  0
 18 19  1  0  0  0  0
 19 20  2  0  0  0  0
 19 43  1  0  0  0  0
M  CHG  1  10   1
M  END
> <s_m_source_file>
AV-unprocessed.smi

> <i_m_source_file_index>
1252

> <i_lp_mmshare_version>
43012

> <i_f3d_flags>
0

> <s_epik_input>
bjFbY0hdbltjSF1uMVtDQEhdKFtDSDNdKUMoPU8pW05IXVtDSDJdQyhbQ0gzXSkoW0NIM10pTjJbQ0gyXVtDSDJdT1tDSDJdW0NIMl0y

> <s_epik_cmdline>
J2VwaWtfcHl0aG9uJywgJy1waCcsICc3LjAnLCAnLXRuJywgJzgnLCAnLW1hJywgJzIwMCcsICctbWV0YWxfYmluZGluZycsICctaW1hZScsICc8aW5maWxlLm1hZT4nLCAnLW9tYWUnLCAnPG91dGZpbGUubWFlPic=

> <r_lp_tautomer_probability>
1

> <r_epik_Ionization_Penalty>
0.71326

> <r_epik_Ionization_Penalty_Charging>
0.713252

> <r_epik_Ionization_Penalty_Neutral>
8.22342e-06

> <r_epik_State_Penalty>
0.737017

> <r_epik_Charging_Adjusted_Penalty>
1.45027

> <i_epik_Tot_Q>
1

> <i_epik_Tot_abs_Q>
1

> <r_epik_Metal_State_Penalty>
0.73702

> <b_epik_Metal_Only>
0

> <s_lp_Force_Field>
OPLS_2005

> <r_lp_Energy>
34.1677

> <b_lp_Chiralities_Consistent>
1

> <s_lp_Variant>
AV-unprocessed.smi:1252-3

> <Gold.Version>
5.8.1

> <Gold.Id.Protein>
6NUR|6NUR_protein|mol2

> <Gold.PLP.Fitness>
41.0732

> <Gold.PLP.PLP>
-28.0709

> <Gold.PLP.part.hbond>
-3.9584

> <Gold.PLP.part.metal>
0.0000

> <Gold.PLP.part.buried>
-5.1103

> <Gold.PLP.part.nonpolar>
-19.1065

> <Gold.PLP.part.repulsive>
0.1798

> <Gold.PLP.ligand.clash>
0.0000

> <Gold.PLP.ligand.torsion>
0.6285

> <Gold.PLP.Chemscore.Hbond>
4.6873

> <Gold.PLP.Chemscore.CHOScore>
0.0000

> <Gold.PLP.Chemscore.Metal>
0.0000

> <Gold.Chemscore.Hbonds>
donor molecule, donor type, donor heavy atom, donor atom, acceptor molecule, acceptor atom, score
      L1  H    10    44       P1  7948  2.00
      P1  H  6931  6943       L1    20  0.88
      P1  H  6934  6947       L1    20  0.82
      P1  H  7989  7998       L1    13  0.94

> <Gold.PLP.Chemscore.Internal.Correction>
0.1975

> <Gold.Rescore>
     Score         DG    S(hbond)    S(metal)    S(lipo)     H(rot)  DE(clash)    DE(int)     intcor
      6.92     -10.05       1.86        0.00      42.59       2.59       0.14       2.99       ----

> <Gold.Chemscore.Fitness>
6.9200

> <Gold.Chemscore.DG>
-10.0502

> <Gold.Chemscore.ZeroCoef>
-5.4800

> <Gold.Chemscore.Hbond>
1.8587

> <Gold.Chemscore.Metal>
0.0000

> <Gold.Chemscore.Lipo>
42.5922

> <Gold.Chemscore.Internal_Hbond>
0.0000

> <Gold.Chemscore.DEClash>
0.1386

> <Gold.Chemscore.DEInternal>
2.9917

> <Gold.Chemscore.Rot>
2.5864

> <Gold.Chemscore.Internal.Correction>
   9.000000E+99

> <Gold.Chemscore.Hbonds>
donor molecule, donor type, donor heavy atom, donor atom, acceptor molecule, acceptor atom, score
      L1  H    10    44       P1  7948  0.82
      P1  H  6931  6943       L1    20  0.21
      P1  H  6934  6947       L1    20  0.31
      P1  H  7989  7998       L1    13  0.19

> <Gold.Chemscore.Hbond.Weighted>
-6.2080

> <Gold.Chemscore.Metal.Weighted>
-0.0000

> <Gold.Chemscore.Lipo.Weighted>
-4.9833

> <Gold.Chemscore.Internal_Hbond.Weighted>
0.0000

> <Gold.Chemscore.DEClash.Weighted>
0.1386

> <Gold.Chemscore.DEInternal.Weighted>
2.9917

> <Gold.Chemscore.Rot.Weighted>
6.6211

> <Gold.Chemscore.Internal.Correction.Weighted>
   9.000000E+99

> <Gold.Protein.RotatedTorsions>
[ 6907 6896 6895 6894 ] final  -35.46 input  -60.11 | X-H torsion
[ 7974 7965 7964 7962 ] final  104.51 input  175.53 | X-H torsion
[ 8008 7997 7996 7995 ] final  -65.82 input   59.86 | X-H torsion
[ 10167 10162 10161 10158 ] final   19.95 input  -65.29 | X-H torsion
[ 10718 10713 10712 10709 ] final -146.36 input   66.30 | X-H torsion
[ 10763 10752 10751 10750 ] final   61.59 input  -60.55 | X-H torsion
[ 11005 11000 10999 10996 ] final -159.99 input  -57.11 | X-H torsion

> <Gold.Protein.ActiveResidues>
 VAL166  LYS551  ARG553  GLY616  TRP617  ASP618  TYR619  PRO620  LYS621  CYS622 
 ASP623  PHE694  ASN695  SER759  ASP760  ASP761  ALA762  ILE779  LEU786  VAL792 
 PHE793  MET794  SER795  GLU796  ALA797  LYS798  CYS799  TRP800  GLU811  SER814 

> <Gold.Protein.RotatedAtoms>
  151.0395  134.9597  159.8153 H   0  0  0  0  0  0  0  0  0  0  0  0  # atno 6907 bound_to 6896
  152.5361  134.2676  159.8969 H   0  0  0  0  0  0  0  0  0  0  0  0  # atno 6908 bound_to 6896
  151.2688  133.4223  159.2654 H   0  0  0  0  0  0  0  0  0  0  0  0  # atno 6909 bound_to 6896
  145.3319  139.2484  143.3656 H   0  0  0  0  0  0  0  0  0  0  0  0  # atno 7974 bound_to 7965
  154.4696  140.0925  156.7109 H   0  0  0  0  0  0  0  0  0  0  0  0  # atno 8008 bound_to 7997
  155.4762  140.3466  155.4314 H   0  0  0  0  0  0  0  0  0  0  0  0  # atno 8009 bound_to 7997
  156.1016  140.1423  156.9449 H   0  0  0  0  0  0  0  0  0  0  0  0  # atno 8010 bound_to 7997
  140.5541  143.9457  150.6597 H   0  0  0  0  0  0  0  0  0  0  0  0  # atno 10167 bound_to 10162
  156.3940  130.7900  151.2104 H   0  0  0  0  0  0  0  0  0  0  0  0  # atno 10718 bound_to 10713
  152.9955  135.5495  154.6058 H   0  0  0  0  0  0  0  0  0  0  0  0  # atno 10763 bound_to 10752
  154.5389  135.2818  155.1115 H   0  0  0  0  0  0  0  0  0  0  0  0  # atno 10764 bound_to 10752
  154.2400  135.6418  153.5257 H   0  0  0  0  0  0  0  0  0  0  0  0  # atno 10765 bound_to 10752
  140.6364  134.4597  157.5232 H   0  0  0  0  0  0  0  0  0  0  0  0  # atno 11005 bound_to 11000
  146.3042  140.3898  142.8693 LP  0  0  0  0  0  0  0  0  0  0  0  0  # atno 17320 bound_to 7965
  144.8858  140.7460  143.5958 LP  0  0  0  0  0  0  0  0  0  0  0  0  # atno 17321 bound_to 7965
  140.2890  143.3337  152.1080 LP  0  0  0  0  0  0  0  0  0  0  0  0  # atno 17342 bound_to 10162
  139.5040  144.6766  151.6112 LP  0  0  0  0  0  0  0  0  0  0  0  0  # atno 17343 bound_to 10162
  157.7500  131.0307  150.4149 LP  0  0  0  0  0  0  0  0  0  0  0  0  # atno 17370 bound_to 10713
  156.4416  130.3992  149.6694 LP  0  0  0  0  0  0  0  0  0  0  0  0  # atno 17371 bound_to 10713
  139.9096  134.8373  156.1576 LP  0  0  0  0  0  0  0  0  0  0  0  0  # atno 17394 bound_to 11000
  141.0638  133.6829  156.2005 LP  0  0  0  0  0  0  0  0  0  0  0  0  # atno 17395 bound_to 11000

$$$$
