AV-unprocessed.smi:38|AV-procd|sdf|335|dock3
  -GOLD-   2262016173D 1   1.00000     0.00000
 Structure written by MMmdl.
 28 29  0  0  0  0  0  0  0  0  1 V2000
  152.1953  137.0654  159.9041 O   0  0  0  0  0  0  0  0  0  0  0  0
  151.8989  137.5643  158.8203 C   0  0  0  0  0  0  0  0  0  0  0  0
  152.9009  137.9259  157.9148 N   0  0  0  0  0  0  0  0  0  0  0  0
  152.6928  138.4951  156.6567 C   0  0  0  0  0  0  0  0  0  0  0  0
  153.6566  138.7600  155.9398 O   0  0  0  0  0  0  0  0  0  0  0  0
  151.3537  138.7293  156.2698 N   0  0  0  0  0  0  0  0  0  0  0  0
  151.0503  139.3540  154.9271 C   0  0  1  0  0  0  0  0  0  0  0  0
  150.1362  138.4493  154.0946 C   0  0  0  0  0  0  0  0  0  0  0  0
  148.8089  139.1827  154.1523 C   0  0  2  0  0  0  0  0  0  0  0  0
  148.0597  138.9561  152.9759 O   0  0  0  0  0  0  0  0  0  0  0  0
  149.2441  140.6437  154.2954 C   0  0  1  0  0  0  0  0  0  0  0  0
  148.1786  141.5415  154.9427 C   0  0  0  0  0  0  0  0  0  0  0  0
  148.7658  142.3460  155.9428 O   0  0  0  0  0  0  0  0  0  0  0  0
  150.3839  140.5605  155.1453 O   0  0  0  0  0  0  0  0  0  0  0  0
  150.3262  138.3848  157.1375 C   0  0  0  0  0  0  0  0  0  0  0  0
  150.5414  137.8309  158.3539 C   0  0  0  0  0  0  0  0  0  0  0  0
  149.4941  137.5254  159.1388 F   0  0  0  0  0  0  0  0  0  0  0  0
  153.8569  137.7602  158.1937 H   0  0  0  0  0  0  0  0  0  0  0  0
  151.9981  139.5680  154.4319 H   0  0  0  0  0  0  0  0  0  0  0  0
  148.2387  138.8608  155.0244 H   0  0  0  0  0  0  0  0  0  0  0  0
  149.5550  141.0308  153.3227 H   0  0  0  0  0  0  0  0  0  0  0  0
  150.5267  138.4189  153.0760 H   0  0  0  0  0  0  0  0  0  0  0  0
  150.0928  137.4309  154.4830 H   0  0  0  0  0  0  0  0  0  0  0  0
  148.4008  139.5085  152.2889 H   0  0  0  0  0  0  0  0  0  0  0  0
  147.7480  142.2109  154.1978 H   0  0  0  0  0  0  0  0  0  0  0  0
  147.3617  140.9511  155.3590 H   0  0  0  0  0  0  0  0  0  0  0  0
  148.4628  143.2342  155.8316 H   0  0  0  0  0  0  0  0  0  0  0  0
  149.3037  138.5644  156.8403 H   0  0  0  0  0  0  0  0  0  0  0  0
  1  2  2  0  0  0  0
  2 16  1  0  0  0  0
  2  3  1  0  0  0  0
  3 18  1  0  0  0  0
  3  4  1  0  0  0  0
  4  5  2  0  0  0  0
  4  6  1  0  0  0  0
  6  7  1  0  0  0  0
  6 15  1  0  0  0  0
  7 19  1  0  0  0  0
  7 14  1  0  0  0  0
  7  8  1  0  0  0  0
  8  9  1  0  0  0  0
  8 22  1  0  0  0  0
  8 23  1  0  0  0  0
  9 20  1  0  0  0  0
  9 10  1  0  0  0  0
  9 11  1  0  0  0  0
 10 24  1  0  0  0  0
 11 21  1  0  0  0  0
 11 12  1  0  0  0  0
 11 14  1  0  0  0  0
 12 13  1  0  0  0  0
 12 25  1  0  0  0  0
 12 26  1  0  0  0  0
 13 27  1  0  0  0  0
 15 16  2  0  0  0  0
 15 28  1  0  0  0  0
 16 17  1  0  0  0  0
M  END
> <s_m_source_file>
AV-unprocessed.smi

> <i_m_source_file_index>
38

> <i_lp_mmshare_version>
43012

> <i_f3d_flags>
0

> <s_epik_input>
Tz1jMVtuSF1jKD1PKW4oW2NIXWMxRilbQ0BIXTJbQ0gyXVtDQEhdKFtPSF0pW0NASF0oTzIpW0NIMl1bT0hd

> <s_epik_cmdline>
J2VwaWtfcHl0aG9uJywgJy1waCcsICc3LjAnLCAnLXRuJywgJzgnLCAnLW1hJywgJzIwMCcsICctbWV0YWxfYmluZGluZycsICctaW1hZScsICc8aW5maWxlLm1hZT4nLCAnLW9tYWUnLCAnPG91dGZpbGUubWFlPic=

> <r_lp_tautomer_probability>
0.999537

> <r_epik_Ionization_Penalty>
0.0357432

> <r_epik_Ionization_Penalty_Charging>
0.0357431

> <r_epik_Ionization_Penalty_Neutral>
1.19946e-07

> <r_epik_State_Penalty>
0.0298169

> <r_epik_Charging_Adjusted_Penalty>
0.06556

> <i_epik_Tot_Q>
0

> <i_epik_Tot_abs_Q>
0

> <r_epik_Metal_State_Penalty>
2.348

> <b_epik_Metal_Only>
0

> <s_epik_Chemistry_Notes>
This compound contains an acetal/aminal-like group ( X-CH(R)-Y where X, Y are N, S, or O) that may be acid/base labile, releasing an aldehyde.

> <s_lp_Force_Field>
OPLS_2005

> <r_lp_Energy>
27.0042

> <b_lp_Chiralities_Consistent>
1

> <s_lp_Variant>
AV-unprocessed.smi:38-1

> <Gold.Version>
5.8.1

> <Gold.Id.Protein>
6NUR|6NUR_protein|mol2

> <Gold.PLP.Fitness>
36.3209

> <Gold.PLP.PLP>
-26.3226

> <Gold.PLP.part.hbond>
-5.3176

> <Gold.PLP.part.metal>
0.0000

> <Gold.PLP.part.buried>
-2.2710

> <Gold.PLP.part.nonpolar>
-19.0336

> <Gold.PLP.part.repulsive>
0.1880

> <Gold.PLP.ligand.clash>
0.0000

> <Gold.PLP.ligand.torsion>
0.6335

> <Gold.PLP.Chemscore.Hbond>
3.7520

> <Gold.PLP.Chemscore.CHOScore>
0.0000

> <Gold.PLP.Chemscore.Metal>
0.0000

> <Gold.Chemscore.Hbonds>
donor molecule, donor type, donor heavy atom, donor atom, acceptor molecule, acceptor atom, score
      L1  H    10    24       P1  7957  1.00
      L1  H    13    27       P1  8028  0.94
      P1  H  6896  6908       L1     1  0.98
      P1  H  7997  8010       L1     5  0.80

> <Gold.PLP.Chemscore.Internal.Correction>
0.0092

> <Gold.Rescore>
     Score         DG    S(hbond)    S(metal)    S(lipo)     H(rot)  DE(clash)    DE(int)     intcor
     13.62     -14.39       3.69        0.00      34.65       2.91       0.02       0.75       ----

> <Gold.Chemscore.Fitness>
13.6226

> <Gold.Chemscore.DG>
-14.3880

> <Gold.Chemscore.ZeroCoef>
-5.4800

> <Gold.Chemscore.Hbond>
3.6868

> <Gold.Chemscore.Metal>
0.0000

> <Gold.Chemscore.Lipo>
34.6514

> <Gold.Chemscore.Internal_Hbond>
0.0000

> <Gold.Chemscore.DEClash>
0.0156

> <Gold.Chemscore.DEInternal>
0.7498

> <Gold.Chemscore.Rot>
2.9141

> <Gold.Chemscore.Internal.Correction>
   9.000000E+99

> <Gold.Chemscore.Hbonds>
donor molecule, donor type, donor heavy atom, donor atom, acceptor molecule, acceptor atom, score
      L1  H    10    24       P1  7957  0.98
      L1  H    13    27       P1  8028  0.83
      P1  H  6896  6908       L1     1  0.85
      P1  H  7997  8010       L1     5  0.72

> <Gold.Chemscore.Hbond.Weighted>
-12.3138

> <Gold.Chemscore.Metal.Weighted>
-0.0000

> <Gold.Chemscore.Lipo.Weighted>
-4.0542

> <Gold.Chemscore.Internal_Hbond.Weighted>
0.0000

> <Gold.Chemscore.DEClash.Weighted>
0.0156

> <Gold.Chemscore.DEInternal.Weighted>
0.7498

> <Gold.Chemscore.Rot.Weighted>
7.4601

> <Gold.Chemscore.Internal.Correction.Weighted>
   9.000000E+99

> <Gold.Protein.RotatedTorsions>
[ 6907 6896 6895 6894 ] final  -89.98 input  -60.11 | X-H torsion
[ 7974 7965 7964 7962 ] final  -67.57 input  175.53 | X-H torsion
[ 8008 7997 7996 7995 ] final   85.61 input   59.86 | X-H torsion
[ 10167 10162 10161 10158 ] final  -16.61 input  -65.29 | X-H torsion
[ 10718 10713 10712 10709 ] final  114.69 input   66.30 | X-H torsion
[ 10763 10752 10751 10750 ] final  -57.15 input  -60.55 | X-H torsion
[ 11005 11000 10999 10996 ] final  -24.84 input  -57.11 | X-H torsion

> <Gold.Protein.ActiveResidues>
 VAL166  LYS551  ARG553  GLY616  TRP617  ASP618  TYR619  PRO620  LYS621  CYS622 
 ASP623  PHE694  ASN695  SER759  ASP760  ASP761  ALA762  ILE779  LEU786  VAL792 
 PHE793  MET794  SER795  GLU796  ALA797  LYS798  CYS799  TRP800  GLU811  SER814 

> <Gold.Protein.RotatedAtoms>
  150.6878  134.2502  159.4507 H   0  0  0  0  0  0  0  0  0  0  0  0  # atno 6907 bound_to 6896
  152.0440  134.9691  160.0583 H   0  0  0  0  0  0  0  0  0  0  0  0  # atno 6908 bound_to 6896
  152.1182  133.4304  159.4700 H   0  0  0  0  0  0  0  0  0  0  0  0  # atno 6909 bound_to 6896
  145.7275  140.9012  143.0598 H   0  0  0  0  0  0  0  0  0  0  0  0  # atno 7974 bound_to 7965
  155.9523  140.3400  155.6418 H   0  0  0  0  0  0  0  0  0  0  0  0  # atno 8008 bound_to 7997
  155.6905  140.0748  157.2468 H   0  0  0  0  0  0  0  0  0  0  0  0  # atno 8009 bound_to 7997
  154.4124  140.1658  156.2068 H   0  0  0  0  0  0  0  0  0  0  0  0  # atno 8010 bound_to 7997
  140.7236  143.5099  150.9763 H   0  0  0  0  0  0  0  0  0  0  0  0  # atno 10167 bound_to 10162
  157.6266  131.1002  150.7223 H   0  0  0  0  0  0  0  0  0  0  0  0  # atno 10718 bound_to 10713
  154.2178  135.6383  153.5135 H   0  0  0  0  0  0  0  0  0  0  0  0  # atno 10763 bound_to 10752
  152.9975  135.5489  154.6146 H   0  0  0  0  0  0  0  0  0  0  0  0  # atno 10764 bound_to 10752
  154.5599  135.2908  155.0903 H   0  0  0  0  0  0  0  0  0  0  0  0  # atno 10765 bound_to 10752
  140.8882  133.7606  156.0388 H   0  0  0  0  0  0  0  0  0  0  0  0  # atno 11005 bound_to 11000
  144.6901  139.9285  143.7471 LP  0  0  0  0  0  0  0  0  0  0  0  0  # atno 17320 bound_to 7965
  146.0569  139.3565  143.0605 LP  0  0  0  0  0  0  0  0  0  0  0  0  # atno 17321 bound_to 7965
  139.8812  143.7070  152.3156 LP  0  0  0  0  0  0  0  0  0  0  0  0  # atno 17342 bound_to 10162
  139.7353  144.7573  151.0738 LP  0  0  0  0  0  0  0  0  0  0  0  0  # atno 17343 bound_to 10162
  156.7570  130.4786  149.5445 LP  0  0  0  0  0  0  0  0  0  0  0  0  # atno 17370 bound_to 10713
  156.1442  130.6265  151.0509 LP  0  0  0  0  0  0  0  0  0  0  0  0  # atno 17371 bound_to 10713
  140.8378  134.3102  157.5325 LP  0  0  0  0  0  0  0  0  0  0  0  0  # atno 17394 bound_to 11000
  139.8727  134.9399  156.3756 LP  0  0  0  0  0  0  0  0  0  0  0  0  # atno 17395 bound_to 11000

$$$$
