AV-unprocessed.smi:1688|AV-procd|sdf|6770|dock4
  -GOLD-   22720 7533D 1   1.00000     0.00000
 Structure written by MMmdl.
 35 37  0  0  0  0  0  0  0  0  1 V2000
  149.5644  140.8947  153.6599 O   0  0  0  0  0  0  0  0  0  0  0  0
  149.9410  140.5068  154.9692 C   0  0  0  0  0  0  0  0  0  0  0  0
  150.3575  141.7861  155.7396 C   0  0  0  0  0  0  0  0  0  0  0  0
  150.9000  141.5367  157.0670 N   0  0  0  0  0  0  0  0  0  0  0  0
  150.9221  140.3617  157.7260 C   0  0  0  0  0  0  0  0  0  0  0  0
  151.4647  140.3514  158.9399 N   0  0  0  0  0  0  0  0  0  0  0  0
  151.8321  141.6771  159.0918 C   0  0  0  0  0  0  0  0  0  0  0  0
  152.4634  142.3346  160.1721 C   0  0  0  0  0  0  0  0  0  0  0  0
  152.7402  143.7157  160.1044 C   0  0  0  0  0  0  0  0  0  0  0  0
  152.3902  144.4597  158.9588 C   0  0  0  0  0  0  0  0  0  0  0  0
  151.7604  143.8265  157.8702 C   0  0  0  0  0  0  0  0  0  0  0  0
  151.4884  142.4472  157.9397 C   0  0  0  0  0  0  0  0  0  0  0  0
  148.7116  139.8599  155.6503 C   0  0  0  0  0  0  0  0  0  0  0  0
  148.2957  138.5254  155.0059 C   0  0  0  0  0  0  0  0  0  0  0  0
  149.4705  137.5391  154.9624 C   0  0  0  0  0  0  0  0  0  0  0  0
  150.6692  138.1495  154.2234 C   0  0  0  0  0  0  0  0  0  0  0  0
  151.1011  139.4853  154.8551 C   0  0  0  0  0  0  0  0  0  0  0  0
  149.6625  140.1503  153.0862 H   0  0  0  0  0  0  0  0  0  0  0  0
  151.0982  142.3489  155.1696 H   0  0  0  0  0  0  0  0  0  0  0  0
  149.4967  142.4474  155.8493 H   0  0  0  0  0  0  0  0  0  0  0  0
  150.5210  139.4602  157.2860 H   0  0  0  0  0  0  0  0  0  0  0  0
  152.7345  141.7748  161.0548 H   0  0  0  0  0  0  0  0  0  0  0  0
  153.2233  144.2072  160.9360 H   0  0  0  0  0  0  0  0  0  0  0  0
  152.6073  145.5170  158.9160 H   0  0  0  0  0  0  0  0  0  0  0  0
  151.4935  144.3936  156.9910 H   0  0  0  0  0  0  0  0  0  0  0  0
  148.9391  139.6786  156.7017 H   0  0  0  0  0  0  0  0  0  0  0  0
  147.8669  140.5499  155.6408 H   0  0  0  0  0  0  0  0  0  0  0  0
  147.4660  138.0885  155.5625 H   0  0  0  0  0  0  0  0  0  0  0  0
  147.9271  138.7010  153.9948 H   0  0  0  0  0  0  0  0  0  0  0  0
  149.7626  137.2701  155.9784 H   0  0  0  0  0  0  0  0  0  0  0  0
  149.1629  136.6149  154.4725 H   0  0  0  0  0  0  0  0  0  0  0  0
  151.5052  137.4495  154.2326 H   0  0  0  0  0  0  0  0  0  0  0  0
  150.4116  138.3045  153.1750 H   0  0  0  0  0  0  0  0  0  0  0  0
  151.9247  139.9015  154.2739 H   0  0  0  0  0  0  0  0  0  0  0  0
  151.5018  139.2876  155.8500 H   0  0  0  0  0  0  0  0  0  0  0  0
  1  2  1  0  0  0  0
  1 18  1  0  0  0  0
  2 17  1  0  0  0  0
  2  3  1  0  0  0  0
  2 13  1  0  0  0  0
  3  4  1  0  0  0  0
  3 19  1  0  0  0  0
  3 20  1  0  0  0  0
  4 12  1  0  0  0  0
  4  5  1  0  0  0  0
  5  6  2  0  0  0  0
  5 21  1  0  0  0  0
  6  7  1  0  0  0  0
  7 12  2  0  0  0  0
  7  8  1  0  0  0  0
  8  9  2  0  0  0  0
  8 22  1  0  0  0  0
  9 10  1  0  0  0  0
  9 23  1  0  0  0  0
 10 11  2  0  0  0  0
 10 24  1  0  0  0  0
 11 12  1  0  0  0  0
 11 25  1  0  0  0  0
 13 14  1  0  0  0  0
 13 26  1  0  0  0  0
 13 27  1  0  0  0  0
 14 15  1  0  0  0  0
 14 28  1  0  0  0  0
 14 29  1  0  0  0  0
 15 16  1  0  0  0  0
 15 30  1  0  0  0  0
 15 31  1  0  0  0  0
 16 17  1  0  0  0  0
 16 32  1  0  0  0  0
 16 33  1  0  0  0  0
 17 34  1  0  0  0  0
 17 35  1  0  0  0  0
M  END
> <s_m_source_file>
AV-unprocessed.smi

> <i_m_source_file_index>
1688

> <i_lp_mmshare_version>
43012

> <i_f3d_flags>
0

> <s_epik_input>
W0NIMl0xW0NIMl1bQ0gyXVtDSDJdW0NIMl1DMShbT0hdKVtDSDJdbihbY0hdbjIpYyhjMjMpW2NIXVtjSF1bY0hdW2NIXTM=

> <s_epik_cmdline>
J2VwaWtfcHl0aG9uJywgJy1waCcsICc3LjAnLCAnLXRuJywgJzgnLCAnLW1hJywgJzIwMCcsICctbWV0YWxfYmluZGluZycsICctaW1hZScsICc8aW5maWxlLm1hZT4nLCAnLW9tYWUnLCAnPG91dGZpbGUubWFlPic=

> <r_epik_Ionization_Penalty>
0.118875

> <r_epik_Ionization_Penalty_Charging>
0

> <r_epik_Ionization_Penalty_Neutral>
0.118875

> <r_epik_State_Penalty>
0.108446

> <r_epik_Charging_Adjusted_Penalty>
0.108446

> <i_epik_Tot_Q>
0

> <i_epik_Tot_abs_Q>
0

> <r_epik_Metal_State_Penalty>
0.000118993

> <b_epik_Metal_Only>
0

> <s_lp_Force_Field>
OPLS_2005

> <r_lp_Energy>
14.7103

> <b_lp_Chiralities_Consistent>
1

> <s_lp_Variant>
AV-unprocessed.smi:1688-1

> <Gold.Version>
5.8.1

> <Gold.Id.Protein>
6NUR|6NUR_protein|mol2

> <Gold.PLP.Fitness>
43.9203

> <Gold.PLP.PLP>
-39.2321

> <Gold.PLP.part.hbond>
-3.0000

> <Gold.PLP.part.metal>
0.0000

> <Gold.PLP.part.buried>
-2.4213

> <Gold.PLP.part.nonpolar>
-33.9998

> <Gold.PLP.part.repulsive>
0.0000

> <Gold.PLP.ligand.clash>
0.0000

> <Gold.PLP.ligand.torsion>
0.0939

> <Gold.PLP.Chemscore.Hbond>
1.6240

> <Gold.PLP.Chemscore.CHOScore>
0.0000

> <Gold.PLP.Chemscore.Metal>
0.0000

> <Gold.Chemscore.Hbonds>
donor molecule, donor type, donor heavy atom, donor atom, acceptor molecule, acceptor atom, score
      L1  H     1    18       P1  7957  0.61
      P1  H  8011  8017       L1     1  1.00

> <Gold.PLP.Chemscore.Internal.Correction>
0.0040

> <Gold.Rescore>
     Score         DG    S(hbond)    S(metal)    S(lipo)     H(rot)  DE(clash)    DE(int)     intcor
     15.98     -17.46       1.07        0.00     107.31       1.62       0.22       1.26       ----

> <Gold.Chemscore.Fitness>
15.9822

> <Gold.Chemscore.DG>
-17.4596

> <Gold.Chemscore.ZeroCoef>
-5.4800

> <Gold.Chemscore.Hbond>
1.0664

> <Gold.Chemscore.Metal>
0.0000

> <Gold.Chemscore.Lipo>
107.3110

> <Gold.Chemscore.Internal_Hbond>
0.0000

> <Gold.Chemscore.DEClash>
0.2184

> <Gold.Chemscore.DEInternal>
1.2590

> <Gold.Chemscore.Rot>
1.6162

> <Gold.Chemscore.Internal.Correction>
   9.000000E+99

> <Gold.Chemscore.Hbonds>
donor molecule, donor type, donor heavy atom, donor atom, acceptor molecule, acceptor atom, score
      L1  H     1    18       P1  7957  0.60
      P1  H  8011  8017       L1     1  0.23

> <Gold.Chemscore.Hbond.Weighted>
-3.5617

> <Gold.Chemscore.Metal.Weighted>
-0.0000

> <Gold.Chemscore.Lipo.Weighted>
-12.5554

> <Gold.Chemscore.Internal_Hbond.Weighted>
0.0000

> <Gold.Chemscore.DEClash.Weighted>
0.2184

> <Gold.Chemscore.DEInternal.Weighted>
1.2590

> <Gold.Chemscore.Rot.Weighted>
4.1374

> <Gold.Chemscore.Internal.Correction.Weighted>
   9.000000E+99

> <Gold.Protein.RotatedTorsions>
[ 6907 6896 6895 6894 ] final   99.19 input  -60.11 | X-H torsion
[ 7974 7965 7964 7962 ] final   41.77 input  175.53 | X-H torsion
[ 8008 7997 7996 7995 ] final  160.35 input   59.86 | X-H torsion
[ 10167 10162 10161 10158 ] final   65.05 input  -65.29 | X-H torsion
[ 10718 10713 10712 10709 ] final -109.29 input   66.30 | X-H torsion
[ 10763 10752 10751 10750 ] final   45.01 input  -60.55 | X-H torsion
[ 11005 11000 10999 10996 ] final  156.21 input  -57.11 | X-H torsion

> <Gold.Protein.ActiveResidues>
 VAL166  LYS551  ARG553  GLY616  TRP617  ASP618  TYR619  PRO620  LYS621  CYS622 
 ASP623  PHE694  ASN695  SER759  ASP760  ASP761  ALA762  ILE779  LEU786  VAL792 
 PHE793  MET794  SER795  GLU796  ALA797  LYS798  CYS799  TRP800  GLU811  SER814 

> <Gold.Protein.RotatedAtoms>
  152.5396  134.0466  159.8090 H   0  0  0  0  0  0  0  0  0  0  0  0  # atno 6907 bound_to 6896
  151.0614  133.5534  159.2641 H   0  0  0  0  0  0  0  0  0  0  0  0  # atno 6908 bound_to 6896
  151.2431  135.0604  159.9087 H   0  0  0  0  0  0  0  0  0  0  0  0  # atno 6909 bound_to 6896
  146.0796  139.5377  142.9546 H   0  0  0  0  0  0  0  0  0  0  0  0  # atno 7974 bound_to 7965
  156.2178  140.1806  156.7549 H   0  0  0  0  0  0  0  0  0  0  0  0  # atno 8008 bound_to 7997
  154.5818  140.0665  156.9143 H   0  0  0  0  0  0  0  0  0  0  0  0  # atno 8009 bound_to 7997
  155.2489  140.3327  155.4286 H   0  0  0  0  0  0  0  0  0  0  0  0  # atno 8010 bound_to 7997
  140.1155  144.4779  150.6952 H   0  0  0  0  0  0  0  0  0  0  0  0  # atno 10167 bound_to 10162
  156.0529  130.5756  150.8079 H   0  0  0  0  0  0  0  0  0  0  0  0  # atno 10718 bound_to 10713
  152.9831  135.6053  154.3367 H   0  0  0  0  0  0  0  0  0  0  0  0  # atno 10763 bound_to 10752
  154.3067  135.2772  155.2587 H   0  0  0  0  0  0  0  0  0  0  0  0  # atno 10764 bound_to 10752
  154.4815  135.5916  153.6449 H   0  0  0  0  0  0  0  0  0  0  0  0  # atno 10765 bound_to 10752
  140.1653  134.8581  157.2625 H   0  0  0  0  0  0  0  0  0  0  0  0  # atno 11005 bound_to 11000
  145.6243  141.0316  143.1898 LP  0  0  0  0  0  0  0  0  0  0  0  0  # atno 17320 bound_to 7965
  144.7284  139.7802  143.7356 LP  0  0  0  0  0  0  0  0  0  0  0  0  # atno 17321 bound_to 7965
  140.6902  143.2371  151.5152 LP  0  0  0  0  0  0  0  0  0  0  0  0  # atno 17342 bound_to 10162
  139.5596  144.2188  152.1670 LP  0  0  0  0  0  0  0  0  0  0  0  0  # atno 17343 bound_to 10162
  157.5473  131.0943  150.9745 LP  0  0  0  0  0  0  0  0  0  0  0  0  # atno 17370 bound_to 10713
  157.0013  130.5601  149.5312 LP  0  0  0  0  0  0  0  0  0  0  0  0  # atno 17371 bound_to 10713
  140.2441  134.3761  155.7468 LP  0  0  0  0  0  0  0  0  0  0  0  0  # atno 17394 bound_to 11000
  141.2213  133.7281  156.8834 LP  0  0  0  0  0  0  0  0  0  0  0  0  # atno 17395 bound_to 11000

$$$$
