AV-unprocessed.smi:1711|AV-procd|sdf|6900|dock2
  -GOLD-   22720 8103D 1   1.00000     0.00000
 Structure written by MMmdl.
 37 38  0  0  0  0  0  0  0  0  2 V2000
  147.3474  137.9362  153.1444 O   0  0  0  0  0  0  0  0  0  0  0  0
  146.3156  138.5634  152.9037 C   0  0  0  0  0  0  0  0  0  0  0  0
  145.1953  137.9903  152.4407 N   0  0  0  0  0  0  0  0  0  0  0  0
  145.0395  136.5650  152.1740 C   0  0  0  0  0  0  0  0  0  0  0  0
  145.6816  136.1664  150.8309 C   0  0  0  0  0  0  0  0  0  0  0  0
  145.3944  134.7564  150.4653 N   0  3  0  0  0  0  0  0  0  0  0  0
  146.4861  133.8351  150.8765 C   0  0  0  0  0  0  0  0  0  0  0  0
  146.2313  132.4067  150.3656 C   0  0  0  0  0  0  0  0  0  0  0  0
  144.8722  131.8843  150.8481 C   0  0  0  0  0  0  0  0  0  0  0  0
  143.7631  132.8653  150.4468 C   0  0  0  0  0  0  0  0  0  0  0  0
  144.0704  134.2847  150.9537 C   0  0  0  0  0  0  0  0  0  0  0  0
  146.1604  139.8882  153.0606 N   0  0  0  0  0  0  0  0  0  0  0  0
  147.1190  140.8159  153.5415 C   0  0  0  0  0  0  0  0  0  0  0  0
  148.5256  140.6114  153.5179 C   0  0  0  0  0  0  0  0  0  0  0  0
  149.1737  141.6481  154.0293 N   0  0  0  0  0  0  0  0  0  0  0  0
  148.1946  142.5130  154.3780 N   0  0  0  0  0  0  0  0  0  0  0  0
  146.9279  142.0487  154.1002 C   0  0  0  0  0  0  0  0  0  0  0  0
  148.4047  143.4069  154.7992 H   0  0  0  0  0  0  0  0  0  0  0  0
  144.3921  138.5788  152.2731 H   0  0  0  0  0  0  0  0  0  0  0  0
  145.4614  135.9990  153.0049 H   0  0  0  0  0  0  0  0  0  0  0  0
  143.9730  136.3389  152.1565 H   0  0  0  0  0  0  0  0  0  0  0  0
  145.2833  136.8282  150.0603 H   0  0  0  0  0  0  0  0  0  0  0  0
  146.7608  136.3268  150.8444 H   0  0  0  0  0  0  0  0  0  0  0  0
  147.4384  134.1893  150.4797 H   0  0  0  0  0  0  0  0  0  0  0  0
  146.5747  133.8368  151.9641 H   0  0  0  0  0  0  0  0  0  0  0  0
  146.2623  132.3964  149.2751 H   0  0  0  0  0  0  0  0  0  0  0  0
  147.0267  131.7419  150.7036 H   0  0  0  0  0  0  0  0  0  0  0  0
  144.6752  130.8980  150.4267 H   0  0  0  0  0  0  0  0  0  0  0  0
  144.8859  131.7651  151.9323 H   0  0  0  0  0  0  0  0  0  0  0  0
  143.6605  132.8785  149.3608 H   0  0  0  0  0  0  0  0  0  0  0  0
  142.8057  132.5267  150.8440 H   0  0  0  0  0  0  0  0  0  0  0  0
  144.0562  134.3030  152.0447 H   0  0  0  0  0  0  0  0  0  0  0  0
  143.2801  134.9557  150.6190 H   0  0  0  0  0  0  0  0  0  0  0  0
  145.2607  140.2750  152.8158 H   0  0  0  0  0  0  0  0  0  0  0  0
  149.0861  139.7631  153.1534 H   0  0  0  0  0  0  0  0  0  0  0  0
  146.0405  142.6241  154.3189 H   0  0  0  0  0  0  0  0  0  0  0  0
  145.3666  134.7231  149.4562 H   0  0  0  0  0  0  0  0  0  0  0  0
  1  2  2  0  0  0  0
  2  3  1  0  0  0  0
  2 12  1  0  0  0  0
  3  4  1  0  0  0  0
  3 19  1  0  0  0  0
  4  5  1  0  0  0  0
  4 20  1  0  0  0  0
  4 21  1  0  0  0  0
  5  6  1  0  0  0  0
  5 22  1  0  0  0  0
  5 23  1  0  0  0  0
  6 11  1  0  0  0  0
  6  7  1  0  0  0  0
  6 37  1  0  0  0  0
  7  8  1  0  0  0  0
  7 24  1  0  0  0  0
  7 25  1  0  0  0  0
  8  9  1  0  0  0  0
  8 26  1  0  0  0  0
  8 27  1  0  0  0  0
  9 10  1  0  0  0  0
  9 28  1  0  0  0  0
  9 29  1  0  0  0  0
 10 11  1  0  0  0  0
 10 30  1  0  0  0  0
 10 31  1  0  0  0  0
 11 32  1  0  0  0  0
 11 33  1  0  0  0  0
 12 13  1  0  0  0  0
 12 34  1  0  0  0  0
 13 17  2  0  0  0  0
 13 14  1  0  0  0  0
 14 15  2  0  0  0  0
 14 35  1  0  0  0  0
 15 16  1  0  0  0  0
 16 18  1  0  0  0  0
 16 17  1  0  0  0  0
 17 36  1  0  0  0  0
M  CHG  1   6   1
M  END
> <s_m_source_file>
AV-unprocessed.smi

> <i_m_source_file_index>
1711

> <i_lp_mmshare_version>
43012

> <i_f3d_flags>
0

> <s_epik_input>
W2NIXTFbbkhdbltjSF1jMVtOSF1DKD1PKVtOSF1bQ0gyXVtDSDJdTjJbQ0gyXVtDSDJdW0NIMl1bQ0gyXVtDSDJdMg==

> <s_epik_cmdline>
J2VwaWtfcHl0aG9uJywgJy1waCcsICc3LjAnLCAnLXRuJywgJzgnLCAnLW1hJywgJzIwMCcsICctbWV0YWxfYmluZGluZycsICctaW1hZScsICc8aW5maWxlLm1hZT4nLCAnLW9tYWUnLCAnPG91dGZpbGUubWFlPic=

> <r_lp_tautomer_probability>
0.5

> <r_epik_Ionization_Penalty>
0.00236021

> <r_epik_Ionization_Penalty_Charging>
0.00232067

> <r_epik_Ionization_Penalty_Neutral>
3.95492e-05

> <r_epik_State_Penalty>
0.00160128

> <r_epik_Charging_Adjusted_Penalty>
0.00392194

> <i_epik_Tot_Q>
1

> <i_epik_Tot_abs_Q>
1

> <r_epik_Metal_State_Penalty>
-0

> <b_epik_Metal_Only>
0

> <s_lp_Force_Field>
OPLS_2005

> <r_lp_Energy>
18.9048

> <b_lp_Chiralities_Consistent>
1

> <s_lp_Variant>
AV-unprocessed.smi:1711-1

> <Gold.Version>
5.8.1

> <Gold.Id.Protein>
6NUR|6NUR_protein|mol2

> <Gold.PLP.Fitness>
44.9109

> <Gold.PLP.PLP>
-31.0405

> <Gold.PLP.part.hbond>
-6.7967

> <Gold.PLP.part.metal>
0.0000

> <Gold.PLP.part.buried>
-2.0507

> <Gold.PLP.part.nonpolar>
-26.4637

> <Gold.PLP.part.repulsive>
4.1489

> <Gold.PLP.ligand.clash>
0.0000

> <Gold.PLP.ligand.torsion>
0.6631

> <Gold.PLP.Chemscore.Hbond>
4.4432

> <Gold.PLP.Chemscore.CHOScore>
0.6114

> <Gold.PLP.Chemscore.Metal>
0.0000

> <Gold.Chemscore.Hbonds>
donor molecule, donor type, donor heavy atom, donor atom, acceptor molecule, acceptor atom, score
      L1  H     3    19       P1 10175  0.90
      L1  H     6    37       P1  7921  1.00
      L1  H    12    34       P1 10175  1.00
      L1  H    16    18       P1  8028  1.00
      P1  H  8011  8017       L1    15  0.55
      L1  C    14    35       P1  7957  0.61

> <Gold.PLP.Chemscore.Internal.Correction>
0.0327

> <Gold.Rescore>
     Score         DG    S(hbond)    S(metal)    S(lipo)     H(rot)  DE(clash)    DE(int)     intcor
     19.67     -22.72       3.80        0.00      74.96       1.64       1.23       1.82       ----

> <Gold.Chemscore.Fitness>
19.6722

> <Gold.Chemscore.DG>
-22.7220

> <Gold.Chemscore.ZeroCoef>
-5.4800

> <Gold.Chemscore.Hbond>
3.7951

> <Gold.Chemscore.Metal>
0.0000

> <Gold.Chemscore.Lipo>
74.9623

> <Gold.Chemscore.Internal_Hbond>
0.0000

> <Gold.Chemscore.DEClash>
1.2326

> <Gold.Chemscore.DEInternal>
1.8172

> <Gold.Chemscore.Rot>
1.6423

> <Gold.Chemscore.Internal.Correction>
   9.000000E+99

> <Gold.Chemscore.Hbonds>
donor molecule, donor type, donor heavy atom, donor atom, acceptor molecule, acceptor atom, score
      L1  H     3    19       P1 10175  0.84
      L1  H     6    37       P1  7921  0.96
      L1  H    12    34       P1 10175  0.95
      L1  H    16    18       P1  8028  0.98
      P1  H  8011  8017       L1    15  0.03

> <Gold.Chemscore.Hbond.Weighted>
-12.6757

> <Gold.Chemscore.Metal.Weighted>
-0.0000

> <Gold.Chemscore.Lipo.Weighted>
-8.7706

> <Gold.Chemscore.Internal_Hbond.Weighted>
0.0000

> <Gold.Chemscore.DEClash.Weighted>
1.2326

> <Gold.Chemscore.DEInternal.Weighted>
1.8172

> <Gold.Chemscore.Rot.Weighted>
4.2043

> <Gold.Chemscore.Internal.Correction.Weighted>
   9.000000E+99

> <Gold.Protein.RotatedTorsions>
[ 6907 6896 6895 6894 ] final   78.81 input  -60.11 | X-H torsion
[ 7974 7965 7964 7962 ] final   52.68 input  175.53 | X-H torsion
[ 8008 7997 7996 7995 ] final   66.73 input   59.86 | X-H torsion
[ 10167 10162 10161 10158 ] final   27.16 input  -65.29 | X-H torsion
[ 10718 10713 10712 10709 ] final  178.61 input   66.30 | X-H torsion
[ 10763 10752 10751 10750 ] final   13.79 input  -60.55 | X-H torsion
[ 11005 11000 10999 10996 ] final   55.83 input  -57.11 | X-H torsion

> <Gold.Protein.ActiveResidues>
 VAL166  LYS551  ARG553  GLY616  TRP617  ASP618  TYR619  PRO620  LYS621  CYS622 
 ASP623  PHE694  ASN695  SER759  ASP760  ASP761  ALA762  ILE779  LEU786  VAL792 
 PHE793  MET794  SER795  GLU796  ALA797  LYS798  CYS799  TRP800  GLU811  SER814 

> <Gold.Protein.RotatedAtoms>
  152.5174  134.3608  159.9283 H   0  0  0  0  0  0  0  0  0  0  0  0  # atno 6907 bound_to 6896
  151.3560  133.3901  159.2692 H   0  0  0  0  0  0  0  0  0  0  0  0  # atno 6908 bound_to 6896
  150.9689  134.9084  159.7834 H   0  0  0  0  0  0  0  0  0  0  0  0  # atno 6909 bound_to 6896
  145.9789  139.4222  143.0144 H   0  0  0  0  0  0  0  0  0  0  0  0  # atno 7974 bound_to 7965
  155.6819  140.3496  155.4859 H   0  0  0  0  0  0  0  0  0  0  0  0  # atno 8008 bound_to 7997
  155.9599  140.1135  157.0927 H   0  0  0  0  0  0  0  0  0  0  0  0  # atno 8009 bound_to 7997
  154.4141  140.1177  156.5151 H   0  0  0  0  0  0  0  0  0  0  0  0  # atno 8010 bound_to 7997
  140.4962  144.0388  150.6315 H   0  0  0  0  0  0  0  0  0  0  0  0  # atno 10167 bound_to 10162
  156.8880  130.9838  151.3053 H   0  0  0  0  0  0  0  0  0  0  0  0  # atno 10718 bound_to 10713
  153.1686  135.6808  153.8640 H   0  0  0  0  0  0  0  0  0  0  0  0  # atno 10763 bound_to 10752
  153.8012  135.3155  155.3391 H   0  0  0  0  0  0  0  0  0  0  0  0  # atno 10764 bound_to 10752
  154.7982  135.4794  154.0304 H   0  0  0  0  0  0  0  0  0  0  0  0  # atno 10765 bound_to 10752
  140.0576  134.5648  155.9189 H   0  0  0  0  0  0  0  0  0  0  0  0  # atno 11005 bound_to 11000
  145.7799  140.9861  143.1105 LP  0  0  0  0  0  0  0  0  0  0  0  0  # atno 17320 bound_to 7965
  144.6856  139.9551  143.7479 LP  0  0  0  0  0  0  0  0  0  0  0  0  # atno 17321 bound_to 7965
  140.3671  143.2875  152.0319 LP  0  0  0  0  0  0  0  0  0  0  0  0  # atno 17342 bound_to 10162
  139.4862  144.6258  151.7166 LP  0  0  0  0  0  0  0  0  0  0  0  0  # atno 17343 bound_to 10162
  157.6100  130.8576  149.8937 LP  0  0  0  0  0  0  0  0  0  0  0  0  # atno 17370 bound_to 10713
  156.0643  130.3694  150.0913 LP  0  0  0  0  0  0  0  0  0  0  0  0  # atno 17371 bound_to 10713
  141.1959  133.6589  156.5665 LP  0  0  0  0  0  0  0  0  0  0  0  0  # atno 17394 bound_to 11000
  140.3820  134.7515  157.4667 LP  0  0  0  0  0  0  0  0  0  0  0  0  # atno 17395 bound_to 11000

$$$$
