AV-unprocessed.smi:1739|AV-procd|sdf|7005|dock6
  -GOLD-   22720 8213D 1   1.00000     0.00000
 Structure written by MMmdl.
 41 42  0  0  0  0  0  0  0  0  1 V2000
  143.8071  132.7512  149.8087 C   0  0  0  0  0  0  0  0  0  0  0  0
  144.9796  133.7269  149.9693 C   0  0  0  0  0  0  0  0  0  0  0  0
  144.6498  134.8324  150.8484 N   0  0  0  0  0  0  0  0  0  0  0  0
  145.4004  135.9589  151.1218 C   0  0  0  0  0  0  0  0  0  0  0  0
  144.6559  136.6955  151.9993 C   0  0  0  0  0  0  0  0  0  0  0  0
  144.9549  137.9400  152.6098 N   0  0  0  0  0  0  0  0  0  0  0  0
  146.0021  138.2298  153.3993 C   0  0  0  0  0  0  0  0  0  0  0  0
  146.9053  137.4461  153.6924 O   0  0  0  0  0  0  0  0  0  0  0  0
  145.9489  139.4972  153.8337 N   0  0  0  0  0  0  0  0  0  0  0  0
  146.9323  140.1297  154.7077 C   0  0  0  0  0  0  0  0  0  0  0  0
  148.2093  140.4568  153.9041 C   0  0  0  0  0  0  0  0  0  0  0  0
  149.3378  140.9519  154.8266 C   0  0  0  0  0  0  0  0  0  0  0  0
  149.5830  139.9380  155.8589 N   0  0  0  0  0  0  0  0  0  0  0  0
  150.6994  139.1706  155.8808 C   0  0  0  0  0  0  0  0  0  0  0  0
  150.8333  138.0738  156.9396 C   0  0  0  0  0  0  0  0  0  0  0  0
  151.6203  139.3127  155.0761 O   0  0  0  0  0  0  0  0  0  0  0  0
  148.4219  139.7755  156.7426 C   0  0  0  0  0  0  0  0  0  0  0  0
  147.2448  139.2223  155.9197 C   0  0  0  0  0  0  0  0  0  0  0  0
  143.4651  135.9541  152.2138 C   0  0  0  0  0  0  0  0  0  0  0  0
  143.4670  134.8307  151.5124 N   0  0  0  0  0  0  0  0  0  0  0  0
  144.0826  131.9188  149.1610 H   0  0  0  0  0  0  0  0  0  0  0  0
  142.9401  133.2424  149.3655 H   0  0  0  0  0  0  0  0  0  0  0  0
  143.5041  132.3383  150.7712 H   0  0  0  0  0  0  0  0  0  0  0  0
  145.8471  133.2053  150.3751 H   0  0  0  0  0  0  0  0  0  0  0  0
  145.2757  134.1280  148.9993 H   0  0  0  0  0  0  0  0  0  0  0  0
  146.3708  136.1234  150.6775 H   0  0  0  0  0  0  0  0  0  0  0  0
  144.2971  138.6852  152.4338 H   0  0  0  0  0  0  0  0  0  0  0  0
  145.1700  140.0682  153.5395 H   0  0  0  0  0  0  0  0  0  0  0  0
  146.5295  141.0737  155.0804 H   0  0  0  0  0  0  0  0  0  0  0  0
  148.5504  139.5676  153.3710 H   0  0  0  0  0  0  0  0  0  0  0  0
  147.9923  141.2089  153.1447 H   0  0  0  0  0  0  0  0  0  0  0  0
  150.2268  141.1797  154.2371 H   0  0  0  0  0  0  0  0  0  0  0  0
  149.0498  141.8906  155.3020 H   0  0  0  0  0  0  0  0  0  0  0  0
  150.0124  137.3599  156.8640 H   0  0  0  0  0  0  0  0  0  0  0  0
  150.8409  138.5029  157.9419 H   0  0  0  0  0  0  0  0  0  0  0  0
  151.7656  137.5239  156.8065 H   0  0  0  0  0  0  0  0  0  0  0  0
  148.6113  139.1305  157.5993 H   0  0  0  0  0  0  0  0  0  0  0  0
  148.1552  140.7457  157.1645 H   0  0  0  0  0  0  0  0  0  0  0  0
  146.3629  139.1247  156.5540 H   0  0  0  0  0  0  0  0  0  0  0  0
  147.4914  138.2163  155.5762 H   0  0  0  0  0  0  0  0  0  0  0  0
  142.6170  136.1879  152.8404 H   0  0  0  0  0  0  0  0  0  0  0  0
  1  2  1  0  0  0  0
  1 21  1  0  0  0  0
  1 22  1  0  0  0  0
  1 23  1  0  0  0  0
  2  3  1  0  0  0  0
  2 24  1  0  0  0  0
  2 25  1  0  0  0  0
  3 20  1  0  0  0  0
  3  4  1  0  0  0  0
  4  5  2  0  0  0  0
  4 26  1  0  0  0  0
  5  6  1  0  0  0  0
  5 19  1  0  0  0  0
  6  7  1  0  0  0  0
  6 27  1  0  0  0  0
  7  8  2  0  0  0  0
  7  9  1  0  0  0  0
  9 10  1  0  0  0  0
  9 28  1  0  0  0  0
 10 18  1  0  0  0  0
 10 11  1  0  0  0  0
 10 29  1  0  0  0  0
 11 12  1  0  0  0  0
 11 30  1  0  0  0  0
 11 31  1  0  0  0  0
 12 13  1  0  0  0  0
 12 32  1  0  0  0  0
 12 33  1  0  0  0  0
 13 14  1  0  0  0  0
 13 17  1  0  0  0  0
 14 15  1  0  0  0  0
 14 16  2  0  0  0  0
 15 34  1  0  0  0  0
 15 35  1  0  0  0  0
 15 36  1  0  0  0  0
 17 18  1  0  0  0  0
 17 37  1  0  0  0  0
 17 38  1  0  0  0  0
 18 39  1  0  0  0  0
 18 40  1  0  0  0  0
 19 20  2  0  0  0  0
 19 41  1  0  0  0  0
M  END
> <s_m_source_file>
AV-unprocessed.smi

> <i_m_source_file_index>
1739

> <i_lp_mmshare_version>
43012

> <i_f3d_flags>
0

> <s_epik_input>
W0NIM11bQ0gyXW4xW2NIXWMoW2NIXW4xKVtOSF1DKD1PKVtOSF1bQ0hdMltDSDJdW0NIMl1OKEMoPU8pW0NIM10pW0NIMl1bQ0gyXTI=

> <s_epik_cmdline>
J2VwaWtfcHl0aG9uJywgJy1waCcsICc3LjAnLCAnLXRuJywgJzgnLCAnLW1hJywgJzIwMCcsICctbWV0YWxfYmluZGluZycsICctaW1hZScsICc8aW5maWxlLm1hZT4nLCAnLW9tYWUnLCAnPG91dGZpbGUubWFlPic=

> <r_lp_tautomer_probability>
1

> <r_epik_Ionization_Penalty>
0.000185887

> <r_epik_Ionization_Penalty_Charging>
0

> <r_epik_Ionization_Penalty_Neutral>
0.000185887

> <r_epik_State_Penalty>
-0

> <r_epik_Charging_Adjusted_Penalty>
0

> <i_epik_Tot_Q>
0

> <i_epik_Tot_abs_Q>
0

> <r_epik_Metal_State_Penalty>
-0

> <b_epik_Metal_Only>
0

> <s_lp_Force_Field>
OPLS_2005

> <r_lp_Energy>
25.6807

> <b_lp_Chiralities_Consistent>
1

> <s_lp_Variant>
AV-unprocessed.smi:1739-1

> <Gold.Version>
5.8.1

> <Gold.Id.Protein>
6NUR|6NUR_protein|mol2

> <Gold.PLP.Fitness>
40.8052

> <Gold.PLP.PLP>
-30.3088

> <Gold.PLP.part.hbond>
-3.6428

> <Gold.PLP.part.metal>
0.0000

> <Gold.PLP.part.buried>
-1.3340

> <Gold.PLP.part.nonpolar>
-24.7607

> <Gold.PLP.part.repulsive>
0.3649

> <Gold.PLP.ligand.clash>
0.0000

> <Gold.PLP.ligand.torsion>
0.7622

> <Gold.PLP.Chemscore.Hbond>
3.0000

> <Gold.PLP.Chemscore.CHOScore>
1.0000

> <Gold.PLP.Chemscore.Metal>
0.0000

> <Gold.Chemscore.Hbonds>
donor molecule, donor type, donor heavy atom, donor atom, acceptor molecule, acceptor atom, score
      L1  H     6    27       P1 10175  1.00
      L1  H     9    28       P1 10175  1.00
      P1  H  7989  7998       L1    16  0.55
      L1  C     4    26       P1  7948  0.35

> <Gold.PLP.Chemscore.Internal.Correction>
0.0208

> <Gold.Rescore>
     Score         DG    S(hbond)    S(metal)    S(lipo)     H(rot)  DE(clash)    DE(int)     intcor
     16.89     -18.86       2.87        0.00      59.17       1.22       0.09       1.87       ----

> <Gold.Chemscore.Fitness>
16.8930

> <Gold.Chemscore.DG>
-18.8609

> <Gold.Chemscore.ZeroCoef>
-5.4800

> <Gold.Chemscore.Hbond>
2.8659

> <Gold.Chemscore.Metal>
0.0000

> <Gold.Chemscore.Lipo>
59.1727

> <Gold.Chemscore.Internal_Hbond>
0.0000

> <Gold.Chemscore.DEClash>
0.0942

> <Gold.Chemscore.DEInternal>
1.8737

> <Gold.Chemscore.Rot>
1.2166

> <Gold.Chemscore.Internal.Correction>
   9.000000E+99

> <Gold.Chemscore.Hbonds>
donor molecule, donor type, donor heavy atom, donor atom, acceptor molecule, acceptor atom, score
      L1  H     6    27       P1 10175  0.99
      L1  H     9    28       P1 10175  0.98
      P1  H  7989  7998       L1    16  0.55

> <Gold.Chemscore.Hbond.Weighted>
-9.5722

> <Gold.Chemscore.Metal.Weighted>
-0.0000

> <Gold.Chemscore.Lipo.Weighted>
-6.9232

> <Gold.Chemscore.Internal_Hbond.Weighted>
0.0000

> <Gold.Chemscore.DEClash.Weighted>
0.0942

> <Gold.Chemscore.DEInternal.Weighted>
1.8737

> <Gold.Chemscore.Rot.Weighted>
3.1145

> <Gold.Chemscore.Internal.Correction.Weighted>
   9.000000E+99

> <Gold.Protein.RotatedTorsions>
[ 6907 6896 6895 6894 ] final    6.96 input  -60.11 | X-H torsion
[ 7974 7965 7964 7962 ] final -175.29 input  175.53 | X-H torsion
[ 8008 7997 7996 7995 ] final -120.93 input   59.86 | X-H torsion
[ 10167 10162 10161 10158 ] final  158.86 input  -65.29 | X-H torsion
[ 10718 10713 10712 10709 ] final  150.79 input   66.30 | X-H torsion
[ 10763 10752 10751 10750 ] final  -54.64 input  -60.55 | X-H torsion
[ 11005 11000 10999 10996 ] final  174.44 input  -57.11 | X-H torsion

> <Gold.Protein.ActiveResidues>
 VAL166  LYS551  ARG553  GLY616  TRP617  ASP618  TYR619  PRO620  LYS621  CYS622 
 ASP623  PHE694  ASN695  SER759  ASP760  ASP761  ALA762  ILE779  LEU786  VAL792 
 PHE793  MET794  SER795  GLU796  ALA797  LYS798  CYS799  TRP800  GLU811  SER814 

> <Gold.Protein.RotatedAtoms>
  151.6822  135.0960  160.0217 H   0  0  0  0  0  0  0  0  0  0  0  0  # atno 6907 bound_to 6896
  152.3828  133.6566  159.6183 H   0  0  0  0  0  0  0  0  0  0  0  0  # atno 6908 bound_to 6896
  150.7761  133.9001  159.3380 H   0  0  0  0  0  0  0  0  0  0  0  0  # atno 6909 bound_to 6896
  144.7128  140.1343  143.6396 H   0  0  0  0  0  0  0  0  0  0  0  0  # atno 7974 bound_to 7965
  155.1398  140.0401  157.2796 H   0  0  0  0  0  0  0  0  0  0  0  0  # atno 8008 bound_to 7997
  154.6481  140.2563  155.7218 H   0  0  0  0  0  0  0  0  0  0  0  0  # atno 8009 bound_to 7997
  156.2564  140.2842  156.0903 H   0  0  0  0  0  0  0  0  0  0  0  0  # atno 8010 bound_to 7997
  139.4829  144.4785  151.8477 H   0  0  0  0  0  0  0  0  0  0  0  0  # atno 10167 bound_to 10162
  157.2790  131.0831  151.1545 H   0  0  0  0  0  0  0  0  0  0  0  0  # atno 10718 bound_to 10713
  154.1781  135.6448  153.5027 H   0  0  0  0  0  0  0  0  0  0  0  0  # atno 10763 bound_to 10752
  153.0066  135.5399  154.6542 H   0  0  0  0  0  0  0  0  0  0  0  0  # atno 10764 bound_to 10752
  154.5899  135.2933  155.0618 H   0  0  0  0  0  0  0  0  0  0  0  0  # atno 10765 bound_to 10752
  140.3514  134.7192  157.4270 H   0  0  0  0  0  0  0  0  0  0  0  0  # atno 11005 bound_to 11000
  145.9258  139.2575  143.1354 LP  0  0  0  0  0  0  0  0  0  0  0  0  # atno 17320 bound_to 7965
  145.9573  140.8862  143.0228 LP  0  0  0  0  0  0  0  0  0  0  0  0  # atno 17321 bound_to 7965
  140.4259  144.2181  150.5887 LP  0  0  0  0  0  0  0  0  0  0  0  0  # atno 17342 bound_to 10162
  140.4827  143.2373  151.8931 LP  0  0  0  0  0  0  0  0  0  0  0  0  # atno 17343 bound_to 10162
  157.2987  130.6832  149.6152 LP  0  0  0  0  0  0  0  0  0  0  0  0  # atno 17370 bound_to 10713
  155.9664  130.4398  150.5276 LP  0  0  0  0  0  0  0  0  0  0  0  0  # atno 17371 bound_to 10713
  140.0700  134.5876  155.8652 LP  0  0  0  0  0  0  0  0  0  0  0  0  # atno 17394 bound_to 11000
  141.2011  133.6616  156.5932 LP  0  0  0  0  0  0  0  0  0  0  0  0  # atno 17395 bound_to 11000

$$$$
