AV-unprocessed.smi:1056|AV-procd|sdf|4642|dock3
  -GOLD-   22720 3143D 1   1.00000     0.00000
 Structure written by MMmdl.
 44 46  0  0  0  0  0  0  0  0  3 V2000
  153.3276  142.3612  161.5898 C   0  0  0  0  0  0  0  0  0  0  0  0
  152.6831  142.1694  160.2282 C   0  0  0  0  0  0  0  0  0  0  0  0
  152.9945  141.0135  159.4776 C   0  0  0  0  0  0  0  0  0  0  0  0
  152.4169  140.7970  158.2077 C   0  0  0  0  0  0  0  0  0  0  0  0
  152.5779  139.7524  157.3140 N   0  0  0  0  0  0  0  0  0  0  0  0
  151.7826  140.1277  156.3169 C   0  0  0  0  0  0  0  0  0  0  0  0
  151.1293  141.2978  156.4551 N   0  0  0  0  0  0  0  0  0  0  0  0
  150.2214  141.9116  155.4993 C   0  0  0  0  0  0  0  0  0  0  0  0
  149.2398  140.9130  154.8472 C   0  0  2  0  0  0  0  0  0  0  0  0
  149.9531  140.1009  153.9340 O   0  0  0  0  0  0  0  0  0  0  0  0
  148.0748  141.6031  154.1020 C   0  0  0  0  0  0  0  0  0  0  0  0
  147.1806  142.3761  155.0015 N   0  3  2  0  0  0  0  0  0  0  0  0
  146.8245  141.6228  156.2320 C   0  0  0  0  0  0  0  0  0  0  0  0
  146.1651  142.5585  157.2633 C   0  0  0  0  0  0  0  0  0  0  0  0
  145.1235  143.3700  156.6232 N   0  5  0  0  0  0  0  0  0  0  0  0
  145.0333  143.6737  155.2909 C   0  0  0  0  0  0  0  0  0  0  0  0
  144.2417  144.4711  154.7934 O   0  0  0  0  0  0  0  0  0  0  0  0
  145.9708  142.9139  154.3143 C   0  0  0  0  0  0  0  0  0  0  0  0
  151.5135  141.7776  157.7033 C   0  0  0  0  0  0  0  0  0  0  0  0
  151.1946  142.9313  158.4416 C   0  0  0  0  0  0  0  0  0  0  0  0
  151.7800  143.1314  159.7092 C   0  0  0  0  0  0  0  0  0  0  0  0
  151.4293  144.3805  160.4984 C   0  0  0  0  0  0  0  0  0  0  0  0
  153.9618  141.5142  161.8533 H   0  0  0  0  0  0  0  0  0  0  0  0
  152.5665  142.4611  162.3639 H   0  0  0  0  0  0  0  0  0  0  0  0
  153.9477  143.2579  161.5952 H   0  0  0  0  0  0  0  0  0  0  0  0
  153.6819  140.2800  159.8730 H   0  0  0  0  0  0  0  0  0  0  0  0
  151.6725  139.5210  155.4297 H   0  0  0  0  0  0  0  0  0  0  0  0
  149.6718  142.7062  156.0064 H   0  0  0  0  0  0  0  0  0  0  0  0
  150.8169  142.4004  154.7274 H   0  0  0  0  0  0  0  0  0  0  0  0
  148.8607  140.2678  155.6383 H   0  0  0  0  0  0  0  0  0  0  0  0
  149.5190  140.1279  153.0949 H   0  0  0  0  0  0  0  0  0  0  0  0
  148.4597  142.2705  153.3300 H   0  0  0  0  0  0  0  0  0  0  0  0
  147.4923  140.8410  153.5822 H   0  0  0  0  0  0  0  0  0  0  0  0
  146.1542  140.8007  155.9749 H   0  0  0  0  0  0  0  0  0  0  0  0
  147.7138  141.1780  156.6802 H   0  0  0  0  0  0  0  0  0  0  0  0
  145.7716  141.9661  158.0888 H   0  0  0  0  0  0  0  0  0  0  0  0
  146.9366  143.1956  157.6963 H   0  0  0  0  0  0  0  0  0  0  0  0
  146.2578  143.5957  153.5144 H   0  0  0  0  0  0  0  0  0  0  0  0
  145.4072  142.0984  153.8587 H   0  0  0  0  0  0  0  0  0  0  0  0
  150.5054  143.6567  158.0359 H   0  0  0  0  0  0  0  0  0  0  0  0
  150.7431  145.0219  159.9449 H   0  0  0  0  0  0  0  0  0  0  0  0
  152.3267  144.9598  160.7163 H   0  0  0  0  0  0  0  0  0  0  0  0
  150.9512  144.1141  161.4413 H   0  0  0  0  0  0  0  0  0  0  0  0
  147.7086  143.1735  155.3249 H   0  0  0  0  0  0  0  0  0  0  0  0
  1  2  1  0  0  0  0
  1 23  1  0  0  0  0
  1 24  1  0  0  0  0
  1 25  1  0  0  0  0
  2 21  1  0  0  0  0
  2  3  2  0  0  0  0
  3  4  1  0  0  0  0
  3 26  1  0  0  0  0
  4 19  2  0  0  0  0
  4  5  1  0  0  0  0
  5  6  2  0  0  0  0
  6  7  1  0  0  0  0
  6 27  1  0  0  0  0
  7  8  1  0  0  0  0
  7 19  1  0  0  0  0
  8  9  1  0  0  0  0
  8 28  1  0  0  0  0
  8 29  1  0  0  0  0
  9 10  1  0  0  0  0
  9 11  1  0  0  0  0
  9 30  1  0  0  0  0
 10 31  1  0  0  0  0
 11 12  1  0  0  0  0
 11 32  1  0  0  0  0
 11 33  1  0  0  0  0
 12 18  1  0  0  0  0
 12 13  1  0  0  0  0
 12 44  1  0  0  0  0
 13 14  1  0  0  0  0
 13 34  1  0  0  0  0
 13 35  1  0  0  0  0
 14 15  1  0  0  0  0
 14 36  1  0  0  0  0
 14 37  1  0  0  0  0
 15 16  1  0  0  0  0
 16 17  2  0  0  0  0
 16 18  1  0  0  0  0
 18 38  1  0  0  0  0
 18 39  1  0  0  0  0
 19 20  1  0  0  0  0
 20 21  2  0  0  0  0
 20 40  1  0  0  0  0
 21 22  1  0  0  0  0
 22 41  1  0  0  0  0
 22 42  1  0  0  0  0
 22 43  1  0  0  0  0
M  CHG  1  12   1
M  CHG  1  15  -1
M  END
> <s_m_source_file>
AV-unprocessed.smi

> <i_m_source_file_index>
1056

> <i_lp_mmshare_version>
43012

> <i_f3d_flags>
0

> <s_epik_input>
W0NIM11jKFtjSF0xKWMoW0NIM10pW2NIXWMoYzEyKW4oW2NIXW4yKVtDSDJdW0NASF0oW09IXSlbQ0gyXU4zW0NIMl1bQ0gyXVtOSF1DKD1PKVtDSDJdMw==

> <s_epik_cmdline>
J2VwaWtfcHl0aG9uJywgJy1waCcsICc3LjAnLCAnLXRuJywgJzgnLCAnLW1hJywgJzIwMCcsICctbWV0YWxfYmluZGluZycsICctaW1hZScsICc8aW5maWxlLm1hZT4nLCAnLW9tYWUnLCAnPG91dGZpbGUubWFlPic=

> <r_epik_Ionization_Penalty>
5.13411

> <r_epik_Ionization_Penalty_Charging>
5.04792

> <r_epik_Ionization_Penalty_Neutral>
0.0861879

> <r_epik_State_Penalty>
5.18224

> <r_epik_Charging_Adjusted_Penalty>
10.2302

> <i_epik_Tot_Q>
0

> <i_epik_Tot_abs_Q>
2

> <r_epik_Metal_State_Penalty>
1.33873

> <b_epik_Metal_Only>
1

> <s_lp_Force_Field>
OPLS_2005

> <r_lp_Energy>
16.2404

> <b_lp_Chiralities_Consistent>
1

> <s_lp_Variant>
AV-unprocessed.smi:1056-13

> <Gold.Version>
5.8.1

> <Gold.Id.Protein>
6NUR|6NUR_protein|mol2

> <Gold.PLP.Fitness>
60.2175

> <Gold.PLP.PLP>
-46.4856

> <Gold.PLP.part.hbond>
-4.0000

> <Gold.PLP.part.metal>
0.0000

> <Gold.PLP.part.buried>
-6.1405

> <Gold.PLP.part.nonpolar>
-36.0691

> <Gold.PLP.part.repulsive>
0.3515

> <Gold.PLP.ligand.clash>
0.0000

> <Gold.PLP.ligand.torsion>
0.3916

> <Gold.PLP.Chemscore.Hbond>
4.8240

> <Gold.PLP.Chemscore.CHOScore>
0.0000

> <Gold.PLP.Chemscore.Metal>
0.0000

> <Gold.Chemscore.Hbonds>
donor molecule, donor type, donor heavy atom, donor atom, acceptor molecule, acceptor atom, score
      L1  H    10    31       P1  7957  0.99
      L1  H    12    44       P1  8028  2.00
      P1  H  7989  7998       L1    10  0.83
      P1  H  7997  8008       L1     5  1.00

> <Gold.PLP.Chemscore.Internal.Correction>
0.0430

> <Gold.Rescore>
     Score         DG    S(hbond)    S(metal)    S(lipo)     H(rot)  DE(clash)    DE(int)     intcor
     17.76     -18.30       1.71        0.00     111.42       2.31       0.05       0.49       ----

> <Gold.Chemscore.Fitness>
17.7567

> <Gold.Chemscore.DG>
-18.2975

> <Gold.Chemscore.ZeroCoef>
-5.4800

> <Gold.Chemscore.Hbond>
1.7087

> <Gold.Chemscore.Metal>
0.0000

> <Gold.Chemscore.Lipo>
111.4192

> <Gold.Chemscore.Internal_Hbond>
0.0000

> <Gold.Chemscore.DEClash>
0.0485

> <Gold.Chemscore.DEInternal>
0.4923

> <Gold.Chemscore.Rot>
2.3147

> <Gold.Chemscore.Internal.Correction>
   9.000000E+99

> <Gold.Chemscore.Hbonds>
donor molecule, donor type, donor heavy atom, donor atom, acceptor molecule, acceptor atom, score
      L1  H    10    31       P1  7957  0.93
      L1  H    12    44       P1  8028  0.45
      P1  H  7989  7998       L1    10  0.17
      P1  H  7997  8008       L1     5  0.11

> <Gold.Chemscore.Hbond.Weighted>
-5.7070

> <Gold.Chemscore.Metal.Weighted>
-0.0000

> <Gold.Chemscore.Lipo.Weighted>
-13.0360

> <Gold.Chemscore.Internal_Hbond.Weighted>
0.0000

> <Gold.Chemscore.DEClash.Weighted>
0.0485

> <Gold.Chemscore.DEInternal.Weighted>
0.4923

> <Gold.Chemscore.Rot.Weighted>
5.9256

> <Gold.Chemscore.Internal.Correction.Weighted>
   9.000000E+99

> <Gold.Protein.RotatedTorsions>
[ 6907 6896 6895 6894 ] final  112.75 input  -60.11 | X-H torsion
[ 7974 7965 7964 7962 ] final   13.85 input  175.53 | X-H torsion
[ 8008 7997 7996 7995 ] final  -49.76 input   59.86 | X-H torsion
[ 10167 10162 10161 10158 ] final  141.24 input  -65.29 | X-H torsion
[ 10718 10713 10712 10709 ] final  145.23 input   66.30 | X-H torsion
[ 10763 10752 10751 10750 ] final    4.49 input  -60.55 | X-H torsion
[ 11005 11000 10999 10996 ] final -120.23 input  -57.11 | X-H torsion

> <Gold.Protein.ActiveResidues>
 VAL166  LYS551  ARG553  GLY616  TRP617  ASP618  TYR619  PRO620  LYS621  CYS622 
 ASP623  PHE694  ASN695  SER759  ASP760  ASP761  ALA762  ILE779  LEU786  VAL792 
 PHE793  MET794  SER795  GLU796  ALA797  LYS798  CYS799  TRP800  GLU811  SER814 

> <Gold.Protein.RotatedAtoms>
  152.4899  133.8472  159.7182 H   0  0  0  0  0  0  0  0  0  0  0  0  # atno 6907 bound_to 6896
  150.9019  133.7099  159.2883 H   0  0  0  0  0  0  0  0  0  0  0  0  # atno 6908 bound_to 6896
  151.4537  135.1036  159.9757 H   0  0  0  0  0  0  0  0  0  0  0  0  # atno 6909 bound_to 6896
  146.2319  139.9127  142.8522 H   0  0  0  0  0  0  0  0  0  0  0  0  # atno 7974 bound_to 7965
  154.4049  140.1289  156.4555 H   0  0  0  0  0  0  0  0  0  0  0  0  # atno 8008 bound_to 7997
  155.7324  140.3491  155.5046 H   0  0  0  0  0  0  0  0  0  0  0  0  # atno 8009 bound_to 7997
  155.9115  140.1036  157.1266 H   0  0  0  0  0  0  0  0  0  0  0  0  # atno 8010 bound_to 7997
  139.5026  144.6184  151.6109 H   0  0  0  0  0  0  0  0  0  0  0  0  # atno 10167 bound_to 10162
  157.3477  131.0946  151.1027 H   0  0  0  0  0  0  0  0  0  0  0  0  # atno 10718 bound_to 10713
  153.2706  135.6932  153.7484 H   0  0  0  0  0  0  0  0  0  0  0  0  # atno 10763 bound_to 10752
  153.6509  135.3377  155.3100 H   0  0  0  0  0  0  0  0  0  0  0  0  # atno 10764 bound_to 10752
  154.8462  135.4454  154.1728 H   0  0  0  0  0  0  0  0  0  0  0  0  # atno 10765 bound_to 10752
  141.0158  134.0197  157.3351 H   0  0  0  0  0  0  0  0  0  0  0  0  # atno 11005 bound_to 11000
  145.2214  140.9936  143.4043 LP  0  0  0  0  0  0  0  0  0  0  0  0  # atno 17320 bound_to 7965
  144.9607  139.3983  143.6357 LP  0  0  0  0  0  0  0  0  0  0  0  0  # atno 17321 bound_to 7965
  140.5879  143.9832  150.6306 LP  0  0  0  0  0  0  0  0  0  0  0  0  # atno 17342 bound_to 10162
  140.3002  143.3265  152.0978 LP  0  0  0  0  0  0  0  0  0  0  0  0  # atno 17343 bound_to 10162
  157.2215  130.6483  149.5813 LP  0  0  0  0  0  0  0  0  0  0  0  0  # atno 17370 bound_to 10713
  155.9717  130.4628  150.6158 LP  0  0  0  0  0  0  0  0  0  0  0  0  # atno 17371 bound_to 10713
  139.9116  135.0191  156.7716 LP  0  0  0  0  0  0  0  0  0  0  0  0  # atno 17394 bound_to 11000
  140.6656  133.9605  155.7828 LP  0  0  0  0  0  0  0  0  0  0  0  0  # atno 17395 bound_to 11000

$$$$
