AV-unprocessed.smi:1282|AV-procd|sdf|5360|dock4
  -GOLD-   22720 4503D 1   1.00000     0.00000
 Structure written by MMmdl.
 36 37  0  0  0  0  0  0  0  0  1 V2000
  150.0704  132.6836  155.0653 C   0  0  0  0  0  0  0  0  0  0  0  0
  150.2863  133.9366  155.6904 O   0  0  0  0  0  0  0  0  0  0  0  0
  149.9337  135.0267  154.8555 C   0  0  0  0  0  0  0  0  0  0  0  0
  150.2867  136.3374  155.5640 C   0  0  0  0  0  0  0  0  0  0  0  0
  149.9042  137.4229  154.7253 O   0  0  0  0  0  0  0  0  0  0  0  0
  150.0283  138.7083  155.2112 C   0  0  0  0  0  0  0  0  0  0  0  0
  149.5471  139.7736  154.4249 C   0  0  0  0  0  0  0  0  0  0  0  0
  149.6712  141.0894  154.9106 C   0  0  0  0  0  0  0  0  0  0  0  0
  150.2841  141.2993  156.1690 C   0  0  0  0  0  0  0  0  0  0  0  0
  150.4525  142.5731  156.7765 N   0  0  0  0  0  0  0  0  0  0  0  0
  151.1706  142.8978  157.8670 C   0  0  0  0  0  0  0  0  0  0  0  0
  151.7992  142.0930  158.5546 O   0  0  0  0  0  0  0  0  0  0  0  0
  151.1458  144.3844  158.2483 C   0  0  0  0  0  0  0  0  0  0  0  0
  152.5092  144.9593  158.6719 C   0  0  0  0  0  0  0  0  0  0  0  0
  151.8004  145.6765  159.8248 C   0  0  0  0  0  0  0  0  0  0  0  0
  150.6502  144.6760  159.6763 C   0  0  0  0  0  0  0  0  0  0  0  0
  150.7189  140.1637  156.8838 C   0  0  0  0  0  0  0  0  0  0  0  0
  150.6024  138.8999  156.4244 N   0  0  0  0  0  0  0  0  0  0  0  0
  150.3487  131.8804  155.7475 H   0  0  0  0  0  0  0  0  0  0  0  0
  150.6760  132.5838  154.1635 H   0  0  0  0  0  0  0  0  0  0  0  0
  149.0211  132.5504  154.7987 H   0  0  0  0  0  0  0  0  0  0  0  0
  150.4695  134.9614  153.9072 H   0  0  0  0  0  0  0  0  0  0  0  0
  148.8655  134.9978  154.6348 H   0  0  0  0  0  0  0  0  0  0  0  0
  149.7612  136.3940  156.5189 H   0  0  0  0  0  0  0  0  0  0  0  0
  151.3590  136.3682  155.7646 H   0  0  0  0  0  0  0  0  0  0  0  0
  149.0862  139.5847  153.4666 H   0  0  0  0  0  0  0  0  0  0  0  0
  149.2831  141.9021  154.3170 H   0  0  0  0  0  0  0  0  0  0  0  0
  149.9181  143.3231  156.3625 H   0  0  0  0  0  0  0  0  0  0  0  0
  150.6498  145.0164  157.5088 H   0  0  0  0  0  0  0  0  0  0  0  0
  153.2250  144.2113  159.0180 H   0  0  0  0  0  0  0  0  0  0  0  0
  152.9599  145.6323  157.9420 H   0  0  0  0  0  0  0  0  0  0  0  0
  152.3235  145.6315  160.7804 H   0  0  0  0  0  0  0  0  0  0  0  0
  151.5078  146.6963  159.5699 H   0  0  0  0  0  0  0  0  0  0  0  0
  149.6597  145.1293  159.7247 H   0  0  0  0  0  0  0  0  0  0  0  0
  150.7348  143.8331  160.3647 H   0  0  0  0  0  0  0  0  0  0  0  0
  151.1800  140.2710  157.8548 H   0  0  0  0  0  0  0  0  0  0  0  0
  1  2  1  0  0  0  0
  1 19  1  0  0  0  0
  1 20  1  0  0  0  0
  1 21  1  0  0  0  0
  2  3  1  0  0  0  0
  3  4  1  0  0  0  0
  3 22  1  0  0  0  0
  3 23  1  0  0  0  0
  4  5  1  0  0  0  0
  4 24  1  0  0  0  0
  4 25  1  0  0  0  0
  5  6  1  0  0  0  0
  6 18  1  0  0  0  0
  6  7  2  0  0  0  0
  7  8  1  0  0  0  0
  7 26  1  0  0  0  0
  8  9  2  0  0  0  0
  8 27  1  0  0  0  0
  9 10  1  0  0  0  0
  9 17  1  0  0  0  0
 10 11  1  0  0  0  0
 10 28  1  0  0  0  0
 11 12  2  0  0  0  0
 11 13  1  0  0  0  0
 13 16  1  0  0  0  0
 13 14  1  0  0  0  0
 13 29  1  0  0  0  0
 14 15  1  0  0  0  0
 14 30  1  0  0  0  0
 14 31  1  0  0  0  0
 15 16  1  0  0  0  0
 15 32  1  0  0  0  0
 15 33  1  0  0  0  0
 16 34  1  0  0  0  0
 16 35  1  0  0  0  0
 17 18  2  0  0  0  0
 17 36  1  0  0  0  0
M  END
> <s_m_source_file>
AV-unprocessed.smi

> <i_m_source_file_index>
1282

> <i_lp_mmshare_version>
43012

> <i_f3d_flags>
0

> <s_epik_input>
W0NIM11PW0NIMl1bQ0gyXU9jMVtjSF1bY0hdYyhbY0hdbjEpW05IXUMoPU8pW0NIXTJbQ0gyXVtDSDJdW0NIMl0y

> <s_epik_cmdline>
J2VwaWtfcHl0aG9uJywgJy1waCcsICc3LjAnLCAnLXRuJywgJzgnLCAnLW1hJywgJzIwMCcsICctbWV0YWxfYmluZGluZycsICctaW1hZScsICc8aW5maWxlLm1hZT4nLCAnLW9tYWUnLCAnPG91dGZpbGUubWFlPic=

> <r_lp_tautomer_probability>
1

> <r_epik_Ionization_Penalty>
2.67646e-05

> <r_epik_Ionization_Penalty_Charging>
0

> <r_epik_Ionization_Penalty_Neutral>
2.67646e-05

> <r_epik_State_Penalty>
-0

> <r_epik_Charging_Adjusted_Penalty>
0

> <i_epik_Tot_Q>
0

> <i_epik_Tot_abs_Q>
0

> <r_epik_Metal_State_Penalty>
-0

> <b_epik_Metal_Only>
0

> <s_lp_Force_Field>
OPLS_2005

> <r_lp_Energy>
17.3297

> <b_lp_Chiralities_Consistent>
1

> <s_lp_Variant>
AV-unprocessed.smi:1282-1

> <Gold.Version>
5.8.1

> <Gold.Id.Protein>
6NUR|6NUR_protein|mol2

> <Gold.PLP.Fitness>
39.4119

> <Gold.PLP.PLP>
-36.6073

> <Gold.PLP.part.hbond>
-1.0000

> <Gold.PLP.part.metal>
0.0000

> <Gold.PLP.part.buried>
-4.5844

> <Gold.PLP.part.nonpolar>
-31.4265

> <Gold.PLP.part.repulsive>
0.2789

> <Gold.PLP.ligand.clash>
0.0000

> <Gold.PLP.ligand.torsion>
0.3072

> <Gold.PLP.Chemscore.Hbond>
1.0000

> <Gold.PLP.Chemscore.CHOScore>
0.0000

> <Gold.PLP.Chemscore.Metal>
0.0000

> <Gold.Chemscore.Hbonds>
donor molecule, donor type, donor heavy atom, donor atom, acceptor molecule, acceptor atom, score
      L1  H    10    28       P1  8028  1.00

> <Gold.PLP.Chemscore.Internal.Correction>
0.4191

> <Gold.Rescore>
     Score         DG    S(hbond)    S(metal)    S(lipo)     H(rot)  DE(clash)    DE(int)     intcor
     13.16     -14.97       1.00        0.00      91.11       1.76       0.00       1.81       ----

> <Gold.Chemscore.Fitness>
13.1584

> <Gold.Chemscore.DG>
-14.9658

> <Gold.Chemscore.ZeroCoef>
-5.4800

> <Gold.Chemscore.Hbond>
0.9999

> <Gold.Chemscore.Metal>
0.0000

> <Gold.Chemscore.Lipo>
91.1125

> <Gold.Chemscore.Internal_Hbond>
0.0000

> <Gold.Chemscore.DEClash>
0.0000

> <Gold.Chemscore.DEInternal>
1.8073

> <Gold.Chemscore.Rot>
1.7634

> <Gold.Chemscore.Internal.Correction>
   9.000000E+99

> <Gold.Chemscore.Hbonds>
donor molecule, donor type, donor heavy atom, donor atom, acceptor molecule, acceptor atom, score
      L1  H    10    28       P1  8028  1.00

> <Gold.Chemscore.Hbond.Weighted>
-3.3398

> <Gold.Chemscore.Metal.Weighted>
-0.0000

> <Gold.Chemscore.Lipo.Weighted>
-10.6602

> <Gold.Chemscore.Internal_Hbond.Weighted>
0.0000

> <Gold.Chemscore.DEClash.Weighted>
0.0000

> <Gold.Chemscore.DEInternal.Weighted>
1.8073

> <Gold.Chemscore.Rot.Weighted>
4.5142

> <Gold.Chemscore.Internal.Correction.Weighted>
   9.000000E+99

> <Gold.Protein.RotatedTorsions>
[ 6907 6896 6895 6894 ] final -149.95 input  -60.11 | X-H torsion
[ 7974 7965 7964 7962 ] final   79.09 input  175.53 | X-H torsion
[ 8008 7997 7996 7995 ] final -157.19 input   59.86 | X-H torsion
[ 10167 10162 10161 10158 ] final   50.97 input  -65.29 | X-H torsion
[ 10718 10713 10712 10709 ] final    8.51 input   66.30 | X-H torsion
[ 10763 10752 10751 10750 ] final   20.97 input  -60.55 | X-H torsion
[ 11005 11000 10999 10996 ] final -163.18 input  -57.11 | X-H torsion

> <Gold.Protein.ActiveResidues>
 VAL166  LYS551  ARG553  GLY616  TRP617  ASP618  TYR619  PRO620  LYS621  CYS622 
 ASP623  PHE694  ASN695  SER759  ASP760  ASP761  ALA762  ILE779  LEU786  VAL792 
 PHE793  MET794  SER795  GLU796  ALA797  LYS798  CYS799  TRP800  GLU811  SER814 

> <Gold.Protein.RotatedAtoms>
  151.1915  133.4664  159.2594 H   0  0  0  0  0  0  0  0  0  0  0  0  # atno 6907 bound_to 6896
  151.1159  135.0052  159.8526 H   0  0  0  0  0  0  0  0  0  0  0  0  # atno 6908 bound_to 6896
  152.5453  134.1830  159.8696 H   0  0  0  0  0  0  0  0  0  0  0  0  # atno 6909 bound_to 6896
  145.6687  139.2491  143.1881 H   0  0  0  0  0  0  0  0  0  0  0  0  # atno 7974 bound_to 7965
  155.7286  140.0799  157.2299 H   0  0  0  0  0  0  0  0  0  0  0  0  # atno 8008 bound_to 7997
  154.4036  140.1599  156.2538 H   0  0  0  0  0  0  0  0  0  0  0  0  # atno 8009 bound_to 7997
  155.9130  140.3402  155.6116 H   0  0  0  0  0  0  0  0  0  0  0  0  # atno 8010 bound_to 7997
  140.2668  144.3310  150.6301 H   0  0  0  0  0  0  0  0  0  0  0  0  # atno 10167 bound_to 10162
  156.9527  130.5903  149.5657 H   0  0  0  0  0  0  0  0  0  0  0  0  # atno 10718 bound_to 10713
  153.1033  135.6678  153.9633 H   0  0  0  0  0  0  0  0  0  0  0  0  # atno 10763 bound_to 10752
  153.9197  135.3016  155.3449 H   0  0  0  0  0  0  0  0  0  0  0  0  # atno 10764 bound_to 10752
  154.7454  135.5060  153.9270 H   0  0  0  0  0  0  0  0  0  0  0  0  # atno 10765 bound_to 10752
  140.6010  134.4947  157.5205 H   0  0  0  0  0  0  0  0  0  0  0  0  # atno 11005 bound_to 11000
  146.1064  140.7482  142.9524 LP  0  0  0  0  0  0  0  0  0  0  0  0  # atno 17320 bound_to 7965
  144.7064  140.3868  143.7115 LP  0  0  0  0  0  0  0  0  0  0  0  0  # atno 17321 bound_to 7965
  140.5921  143.2168  151.7232 LP  0  0  0  0  0  0  0  0  0  0  0  0  # atno 17342 bound_to 10162
  139.5000  144.3922  152.0268 LP  0  0  0  0  0  0  0  0  0  0  0  0  # atno 17343 bound_to 10162
  156.0355  130.5443  150.8644 LP  0  0  0  0  0  0  0  0  0  0  0  0  # atno 17370 bound_to 10713
  157.5711  131.0946  150.9417 LP  0  0  0  0  0  0  0  0  0  0  0  0  # atno 17371 bound_to 10713
  139.9232  134.8106  156.1146 LP  0  0  0  0  0  0  0  0  0  0  0  0  # atno 17394 bound_to 11000
  141.0872  133.6729  156.2462 LP  0  0  0  0  0  0  0  0  0  0  0  0  # atno 17395 bound_to 11000

$$$$
