AV-unprocessed.smi:1406|AV-procd|sdf|5718|dock1
  -GOLD-   22720 5353D 1   1.00000     0.00000
 Structure written by MMmdl.
 41 43  0  0  0  0  0  0  0  0  2 V2000
  153.1125  128.6538  154.7123 C   0  0  0  0  0  0  0  0  0  0  0  0
  152.0147  129.7327  154.8076 C   0  0  1  0  0  0  0  0  0  0  0  0
  150.5955  129.1487  154.7260 C   0  0  0  0  0  0  0  0  0  0  0  0
  149.8117  129.2587  155.6693 O   0  0  0  0  0  0  0  0  0  0  0  0
  150.2749  128.5282  153.5797 N   0  0  0  0  0  0  0  0  0  0  0  0
  148.9702  127.9446  153.2800 C   0  0  2  0  0  0  0  0  0  0  0  0
  148.8975  127.2276  151.9152 C   0  0  0  0  0  0  0  0  0  0  0  0
  147.5422  127.6388  151.3311 C   0  0  0  0  0  0  0  0  0  0  0  0
  147.3607  128.9995  151.8498 N   0  3  1  0  0  0  0  0  0  0  0  0
  146.0396  129.6430  151.7003 C   0  0  0  0  0  0  0  0  0  0  0  0
  146.1583  131.1128  152.1589 C   0  0  0  0  0  0  0  0  0  0  0  0
  146.7747  131.2391  153.5714 C   0  0  0  0  0  0  0  0  0  0  0  0
  148.0899  130.4394  153.6974 C   0  0  0  0  0  0  0  0  0  0  0  0
  147.8353  128.9910  153.2440 C   0  0  2  0  0  0  0  0  0  0  0  0
  152.1511  130.5530  156.0051 N   0  0  0  0  0  0  0  0  0  0  0  0
  151.4288  131.5974  156.4166 C   0  0  0  0  0  0  0  0  0  0  0  0
  151.8007  132.0798  157.5939 N   0  0  0  0  0  0  0  0  0  0  0  0
  152.8255  131.2222  157.8781 C   0  0  0  0  0  0  0  0  0  0  0  0
  153.0696  130.2819  156.9658 N   0  0  0  0  0  0  0  0  0  0  0  0
  153.0230  128.0820  153.7879 H   0  0  0  0  0  0  0  0  0  0  0  0
  153.0680  127.9478  155.5426 H   0  0  0  0  0  0  0  0  0  0  0  0
  154.1038  129.1077  154.7189 H   0  0  0  0  0  0  0  0  0  0  0  0
  152.1408  130.3955  153.9499 H   0  0  0  0  0  0  0  0  0  0  0  0
  150.9761  128.4816  152.8546 H   0  0  0  0  0  0  0  0  0  0  0  0
  148.7372  127.2282  154.0706 H   0  0  0  0  0  0  0  0  0  0  0  0
  149.6936  127.5820  151.2583 H   0  0  0  0  0  0  0  0  0  0  0  0
  149.0022  126.1457  152.0039 H   0  0  0  0  0  0  0  0  0  0  0  0
  147.5264  127.6111  150.2413 H   0  0  0  0  0  0  0  0  0  0  0  0
  146.7489  126.9910  151.7076 H   0  0  0  0  0  0  0  0  0  0  0  0
  145.7233  129.5981  150.6576 H   0  0  0  0  0  0  0  0  0  0  0  0
  145.2918  129.1099  152.2893 H   0  0  0  0  0  0  0  0  0  0  0  0
  146.7828  131.6575  151.4497 H   0  0  0  0  0  0  0  0  0  0  0  0
  145.1791  131.5921  152.1336 H   0  0  0  0  0  0  0  0  0  0  0  0
  146.9498  132.2882  153.8115 H   0  0  0  0  0  0  0  0  0  0  0  0
  146.0587  130.8720  154.3081 H   0  0  0  0  0  0  0  0  0  0  0  0
  148.8658  130.9012  153.0850 H   0  0  0  0  0  0  0  0  0  0  0  0
  148.4425  130.4611  154.7293 H   0  0  0  0  0  0  0  0  0  0  0  0
  147.0287  128.5866  153.8597 H   0  0  0  0  0  0  0  0  0  0  0  0
  150.6092  132.0101  155.8469 H   0  0  0  0  0  0  0  0  0  0  0  0
  153.4036  131.2877  158.7883 H   0  0  0  0  0  0  0  0  0  0  0  0
  148.0165  129.5703  151.3356 H   0  0  0  0  0  0  0  0  0  0  0  0
  1  2  1  0  0  0  0
  1 20  1  0  0  0  0
  1 21  1  0  0  0  0
  1 22  1  0  0  0  0
  2  3  1  0  0  0  0
  2 15  1  0  0  0  0
  2 23  1  0  0  0  0
  3  4  2  0  0  0  0
  3  5  1  0  0  0  0
  5  6  1  0  0  0  0
  5 24  1  0  0  0  0
  6 14  1  0  0  0  0
  6  7  1  0  0  0  0
  6 25  1  0  0  0  0
  7  8  1  0  0  0  0
  7 26  1  0  0  0  0
  7 27  1  0  0  0  0
  8  9  1  0  0  0  0
  8 28  1  0  0  0  0
  8 29  1  0  0  0  0
  9 14  1  0  0  0  0
  9 10  1  0  0  0  0
  9 41  1  0  0  0  0
 10 11  1  0  0  0  0
 10 30  1  0  0  0  0
 10 31  1  0  0  0  0
 11 12  1  0  0  0  0
 11 32  1  0  0  0  0
 11 33  1  0  0  0  0
 12 13  1  0  0  0  0
 12 34  1  0  0  0  0
 12 35  1  0  0  0  0
 13 14  1  0  0  0  0
 13 36  1  0  0  0  0
 13 37  1  0  0  0  0
 14 38  1  0  0  0  0
 15 19  1  0  0  0  0
 15 16  1  0  0  0  0
 16 17  2  0  0  0  0
 16 39  1  0  0  0  0
 17 18  1  0  0  0  0
 18 19  2  0  0  0  0
 18 40  1  0  0  0  0
M  CHG  1   9   1
M  END
> <s_m_source_file>
AV-unprocessed.smi

> <i_m_source_file_index>
1406

> <i_lp_mmshare_version>
43012

> <i_f3d_flags>
0

> <s_epik_input>
bjFbY0hdbltjSF1uMVtDQEhdKFtDSDNdKUMoPU8pW05IXVtDQEhdKFtDSDJdW0NIMl0yKVtDQEBIXShOMjMpW0NIMl1bQ0gyXVtDSDJdW0NIMl0z

> <s_epik_cmdline>
J2VwaWtfcHl0aG9uJywgJy1waCcsICc3LjAnLCAnLXRuJywgJzgnLCAnLW1hJywgJzIwMCcsICctbWV0YWxfYmluZGluZycsICctaW1hZScsICc8aW5maWxlLm1hZT4nLCAnLW9tYWUnLCAnPG91dGZpbGUubWFlPic=

> <r_lp_tautomer_probability>
1

> <r_epik_Ionization_Penalty>
0.00197066

> <r_epik_Ionization_Penalty_Charging>
0.00196223

> <r_epik_Ionization_Penalty_Neutral>
8.43107e-06

> <r_epik_State_Penalty>
0.00133866

> <r_epik_Charging_Adjusted_Penalty>
0.00330089

> <i_epik_Tot_Q>
1

> <i_epik_Tot_abs_Q>
1

> <r_epik_Metal_State_Penalty>
-0

> <b_epik_Metal_Only>
0

> <s_lp_Force_Field>
OPLS_2005

> <r_lp_Energy>
46.7011

> <b_lp_Chiralities_Consistent>
1

> <s_lp_Variant>
AV-unprocessed.smi:1406-10

> <Gold.Version>
5.8.1

> <Gold.Id.Protein>
6NUR|6NUR_protein|mol2

> <Gold.PLP.Fitness>
41.0546

> <Gold.PLP.PLP>
-32.2261

> <Gold.PLP.part.hbond>
-3.0000

> <Gold.PLP.part.metal>
0.0000

> <Gold.PLP.part.buried>
-3.6753

> <Gold.PLP.part.nonpolar>
-25.7303

> <Gold.PLP.part.repulsive>
0.1203

> <Gold.PLP.ligand.clash>
0.0000

> <Gold.PLP.ligand.torsion>
0.1224

> <Gold.PLP.Chemscore.Hbond>
2.9913

> <Gold.PLP.Chemscore.CHOScore>
0.0000

> <Gold.PLP.Chemscore.Metal>
0.0000

> <Gold.Chemscore.Hbonds>
donor molecule, donor type, donor heavy atom, donor atom, acceptor molecule, acceptor atom, score
      L1  H     5    24       P1 10737  1.00
      L1  H     9    41       P1 10747  1.00
      P1  H  6896  6909       L1    17  0.91

> <Gold.PLP.Chemscore.Internal.Correction>
0.0996

> <Gold.Rescore>
     Score         DG    S(hbond)    S(metal)    S(lipo)     H(rot)  DE(clash)    DE(int)     intcor
     14.17     -17.76       2.80        0.00      66.38       1.89       0.01       3.58       ----

> <Gold.Chemscore.Fitness>
14.1683

> <Gold.Chemscore.DG>
-17.7559

> <Gold.Chemscore.ZeroCoef>
-5.4800

> <Gold.Chemscore.Hbond>
2.7960

> <Gold.Chemscore.Metal>
0.0000

> <Gold.Chemscore.Lipo>
66.3822

> <Gold.Chemscore.Internal_Hbond>
0.0000

> <Gold.Chemscore.DEClash>
0.0073

> <Gold.Chemscore.DEInternal>
3.5803

> <Gold.Chemscore.Rot>
1.8865

> <Gold.Chemscore.Internal.Correction>
   9.000000E+99

> <Gold.Chemscore.Hbonds>
donor molecule, donor type, donor heavy atom, donor atom, acceptor molecule, acceptor atom, score
      L1  H     5    24       P1 10737  0.97
      L1  H     9    41       P1 10747  0.74
      P1  H  6896  6909       L1    17  0.53

> <Gold.Chemscore.Hbond.Weighted>
-9.3387

> <Gold.Chemscore.Metal.Weighted>
-0.0000

> <Gold.Chemscore.Lipo.Weighted>
-7.7667

> <Gold.Chemscore.Internal_Hbond.Weighted>
0.0000

> <Gold.Chemscore.DEClash.Weighted>
0.0073

> <Gold.Chemscore.DEInternal.Weighted>
3.5803

> <Gold.Chemscore.Rot.Weighted>
4.8295

> <Gold.Chemscore.Internal.Correction.Weighted>
   9.000000E+99

> <Gold.Protein.RotatedTorsions>
[ 6907 6896 6895 6894 ] final  -54.37 input  -60.11 | X-H torsion
[ 7974 7965 7964 7962 ] final -159.93 input  175.53 | X-H torsion
[ 8008 7997 7996 7995 ] final   21.12 input   59.86 | X-H torsion
[ 10167 10162 10161 10158 ] final  123.81 input  -65.29 | X-H torsion
[ 10718 10713 10712 10709 ] final  -71.84 input   66.30 | X-H torsion
[ 10763 10752 10751 10750 ] final   38.68 input  -60.55 | X-H torsion
[ 11005 11000 10999 10996 ] final  -11.41 input  -57.11 | X-H torsion

> <Gold.Protein.ActiveResidues>
 VAL166  LYS551  ARG553  GLY616  TRP617  ASP618  TYR619  PRO620  LYS621  CYS622 
 ASP623  PHE694  ASN695  SER759  ASP760  ASP761  ALA762  ILE779  LEU786  VAL792 
 PHE793  MET794  SER795  GLU796  ALA797  LYS798  CYS799  TRP800  GLU811  SER814 

> <Gold.Protein.RotatedAtoms>
  150.8344  134.7611  159.6880 H   0  0  0  0  0  0  0  0  0  0  0  0  # atno 6907 bound_to 6896
  152.4443  134.5523  159.9880 H   0  0  0  0  0  0  0  0  0  0  0  0  # atno 6908 bound_to 6896
  151.5677  133.3356  159.3019 H   0  0  0  0  0  0  0  0  0  0  0  0  # atno 6909 bound_to 6896
  144.7446  140.3614  143.6095 H   0  0  0  0  0  0  0  0  0  0  0  0  # atno 7974 bound_to 7965
  154.9458  140.3059  155.5098 H   0  0  0  0  0  0  0  0  0  0  0  0  # atno 8008 bound_to 7997
  156.2992  140.2328  156.4469 H   0  0  0  0  0  0  0  0  0  0  0  0  # atno 8009 bound_to 7997
  154.8102  140.0429  157.1325 H   0  0  0  0  0  0  0  0  0  0  0  0  # atno 8010 bound_to 7997
  139.5778  144.6972  151.3608 H   0  0  0  0  0  0  0  0  0  0  0  0  # atno 10167 bound_to 10162
  156.0345  130.4359  150.2504 H   0  0  0  0  0  0  0  0  0  0  0  0  # atno 10718 bound_to 10713
  152.9993  135.6242  154.2343 H   0  0  0  0  0  0  0  0  0  0  0  0  # atno 10763 bound_to 10752
  154.2085  135.2801  155.2968 H   0  0  0  0  0  0  0  0  0  0  0  0  # atno 10764 bound_to 10752
  154.5626  135.5700  153.7080 H   0  0  0  0  0  0  0  0  0  0  0  0  # atno 10765 bound_to 10752
  140.7550  133.8561  155.9076 H   0  0  0  0  0  0  0  0  0  0  0  0  # atno 11005 bound_to 11000
  145.7173  139.1700  143.2504 LP  0  0  0  0  0  0  0  0  0  0  0  0  # atno 17320 bound_to 7965
  146.1303  140.7194  142.9415 LP  0  0  0  0  0  0  0  0  0  0  0  0  # atno 17321 bound_to 7965
  140.7059  143.7515  150.7481 LP  0  0  0  0  0  0  0  0  0  0  0  0  # atno 17342 bound_to 10162
  140.1039  143.4762  152.2409 LP  0  0  0  0  0  0  0  0  0  0  0  0  # atno 17343 bound_to 10162
  157.0604  131.0088  151.3224 LP  0  0  0  0  0  0  0  0  0  0  0  0  # atno 17370 bound_to 10713
  157.5075  130.7918  149.7669 LP  0  0  0  0  0  0  0  0  0  0  0  0  # atno 17371 bound_to 10713
  140.9716  134.1523  157.4571 LP  0  0  0  0  0  0  0  0  0  0  0  0  # atno 17394 bound_to 11000
  139.8781  134.9980  156.5879 LP  0  0  0  0  0  0  0  0  0  0  0  0  # atno 17395 bound_to 11000

$$$$
