AV-unprocessed.smi:903|AV-procd|sdf|4095|dock6
  -GOLD-   22720 1583D 1   1.00000     0.00000
 Structure written by MMmdl.
 28 29  0  0  0  0  0  0  0  0  2 V2000
  153.5601  138.8910  154.9053 O   0  0  0  0  0  0  0  0  0  0  0  0
  152.3551  138.5944  154.7549 C   0  0  0  0  0  0  0  0  0  0  0  0
  152.0199  137.5262  154.1928 O   0  5  0  0  0  0  0  0  0  0  0  0
  151.2648  139.5215  155.2496 C   0  0  0  0  0  0  0  0  0  0  0  0
  151.6116  140.3048  156.3018 N   0  0  0  0  0  0  0  0  0  0  0  0
  150.7147  141.1716  156.8270 C   0  0  0  0  0  0  0  0  0  0  0  0
  151.0915  141.9554  157.8980 O   0  0  0  0  0  0  0  0  0  0  0  0
  152.4210  141.8304  158.3943 C   0  0  0  0  0  0  0  0  0  0  0  0
  152.8040  143.1286  159.1147 C   0  0  2  0  0  0  0  0  0  0  0  0
  152.1798  143.2645  160.5016 C   0  0  0  0  0  0  0  0  0  0  0  0
  152.2162  144.7618  160.7050 C   0  0  0  0  0  0  0  0  0  0  0  0
  151.8982  145.2795  159.3045 C   0  0  0  0  0  0  0  0  0  0  0  0
  152.3178  144.2610  158.3988 O   0  0  0  0  0  0  0  0  0  0  0  0
  149.4108  141.3029  156.3199 C   0  0  0  0  0  0  0  0  0  0  0  0
  149.0334  140.4994  155.2306 C   0  0  0  0  0  0  0  0  0  0  0  0
  149.9589  139.5926  154.6767 C   0  0  0  0  0  0  0  0  0  0  0  0
  149.4198  138.6375  153.3358 Cl  0  0  0  0  0  0  0  0  0  0  0  0
  152.5117  140.9819  159.0748 H   0  0  0  0  0  0  0  0  0  0  0  0
  153.1033  141.6659  157.5584 H   0  0  0  0  0  0  0  0  0  0  0  0
  153.8886  143.2107  159.2025 H   0  0  0  0  0  0  0  0  0  0  0  0
  151.1468  142.9133  160.4953 H   0  0  0  0  0  0  0  0  0  0  0  0
  152.7243  142.7144  161.2693 H   0  0  0  0  0  0  0  0  0  0  0  0
  151.5116  145.1114  161.4600 H   0  0  0  0  0  0  0  0  0  0  0  0
  153.2187  145.0733  161.0018 H   0  0  0  0  0  0  0  0  0  0  0  0
  150.8244  145.4271  159.1843 H   0  0  0  0  0  0  0  0  0  0  0  0
  152.3956  146.2264  159.0935 H   0  0  0  0  0  0  0  0  0  0  0  0
  148.7146  142.0027  156.7575 H   0  0  0  0  0  0  0  0  0  0  0  0
  148.0366  140.5789  154.8220 H   0  0  0  0  0  0  0  0  0  0  0  0
  1  2  2  0  0  0  0
  2  3  1  0  0  0  0
  2  4  1  0  0  0  0
  4 16  1  0  0  0  0
  4  5  2  0  0  0  0
  5  6  1  0  0  0  0
  6  7  1  0  0  0  0
  6 14  2  0  0  0  0
  7  8  1  0  0  0  0
  8  9  1  0  0  0  0
  8 18  1  0  0  0  0
  8 19  1  0  0  0  0
  9 13  1  0  0  0  0
  9 10  1  0  0  0  0
  9 20  1  0  0  0  0
 10 11  1  0  0  0  0
 10 21  1  0  0  0  0
 10 22  1  0  0  0  0
 11 12  1  0  0  0  0
 11 23  1  0  0  0  0
 11 24  1  0  0  0  0
 12 13  1  0  0  0  0
 12 25  1  0  0  0  0
 12 26  1  0  0  0  0
 14 15  1  0  0  0  0
 14 27  1  0  0  0  0
 15 16  2  0  0  0  0
 15 28  1  0  0  0  0
 16 17  1  0  0  0  0
M  CHG  1   3  -1
M  END
> <s_m_source_file>
AV-unprocessed.smi

> <i_m_source_file_index>
903

> <i_lp_mmshare_version>
43012

> <i_f3d_flags>
0

> <s_epik_input>
Tz1DKFtPSF0pYzFuYyhbY0hdW2NIXWMxQ2wpT1tDSDJdW0NAQEhdMltDSDJdW0NIMl1bQ0gyXU8y

> <s_epik_cmdline>
J2VwaWtfcHl0aG9uJywgJy1waCcsICc3LjAnLCAnLXRuJywgJzgnLCAnLW1hJywgJzIwMCcsICctbWV0YWxfYmluZGluZycsICctaW1hZScsICc8aW5maWxlLm1hZT4nLCAnLW9tYWUnLCAnPG91dGZpbGUubWFlPic=

> <r_lp_tautomer_probability>
1

> <r_epik_Ionization_Penalty>
1.22588e-05

> <r_epik_Ionization_Penalty_Charging>
1.01343e-05

> <r_epik_Ionization_Penalty_Neutral>
2.12445e-06

> <r_epik_State_Penalty>
-0

> <r_epik_Charging_Adjusted_Penalty>
1.01343e-05

> <i_epik_Tot_Q>
-1

> <i_epik_Tot_abs_Q>
1

> <r_epik_Metal_State_Penalty>
-0

> <b_epik_Metal_Only>
0

> <s_lp_Force_Field>
OPLS_2005

> <r_lp_Energy>
26.032

> <b_lp_Chiralities_Consistent>
1

> <s_lp_Variant>
AV-unprocessed.smi:903-1

> <Gold.Version>
5.8.1

> <Gold.Id.Protein>
6NUR|6NUR_protein|mol2

> <Gold.PLP.Fitness>
42.8529

> <Gold.PLP.PLP>
-32.6806

> <Gold.PLP.part.hbond>
-2.0000

> <Gold.PLP.part.metal>
0.0000

> <Gold.PLP.part.buried>
-0.5722

> <Gold.PLP.part.nonpolar>
-30.0876

> <Gold.PLP.part.repulsive>
0.2376

> <Gold.PLP.ligand.clash>
0.0000

> <Gold.PLP.ligand.torsion>
0.6053

> <Gold.PLP.Chemscore.Hbond>
3.7920

> <Gold.PLP.Chemscore.CHOScore>
0.0000

> <Gold.PLP.Chemscore.Metal>
0.0000

> <Gold.Chemscore.Hbonds>
donor molecule, donor type, donor heavy atom, donor atom, acceptor molecule, acceptor atom, score
      P1  H  7997  8008       L1     1  2.00
      P1  H 10752 10764       L1     3  1.63

> <Gold.PLP.Chemscore.Internal.Correction>
0.0069

> <Gold.Rescore>
     Score         DG    S(hbond)    S(metal)    S(lipo)     H(rot)  DE(clash)    DE(int)     intcor
     14.08     -18.52       1.76        0.00      94.16       1.51       2.71       1.72       ----

> <Gold.Chemscore.Fitness>
14.0827

> <Gold.Chemscore.DG>
-18.5180

> <Gold.Chemscore.ZeroCoef>
-5.4800

> <Gold.Chemscore.Hbond>
1.7621

> <Gold.Chemscore.Metal>
0.0000

> <Gold.Chemscore.Lipo>
94.1599

> <Gold.Chemscore.Internal_Hbond>
0.0000

> <Gold.Chemscore.DEClash>
2.7109

> <Gold.Chemscore.DEInternal>
1.7243

> <Gold.Chemscore.Rot>
1.5094

> <Gold.Chemscore.Internal.Correction>
   9.000000E+99

> <Gold.Chemscore.Hbonds>
donor molecule, donor type, donor heavy atom, donor atom, acceptor molecule, acceptor atom, score
      P1  H  7997  8008       L1     1  0.96
      P1  H 10752 10764       L1     3  0.77

> <Gold.Chemscore.Hbond.Weighted>
-5.8853

> <Gold.Chemscore.Metal.Weighted>
-0.0000

> <Gold.Chemscore.Lipo.Weighted>
-11.0167

> <Gold.Chemscore.Internal_Hbond.Weighted>
0.0000

> <Gold.Chemscore.DEClash.Weighted>
2.7109

> <Gold.Chemscore.DEInternal.Weighted>
1.7243

> <Gold.Chemscore.Rot.Weighted>
3.8641

> <Gold.Chemscore.Internal.Correction.Weighted>
   9.000000E+99

> <Gold.Protein.RotatedTorsions>
[ 6907 6896 6895 6894 ] final  149.61 input  -60.11 | X-H torsion
[ 7974 7965 7964 7962 ] final   26.64 input  175.53 | X-H torsion
[ 8008 7997 7996 7995 ] final  -10.53 input   59.86 | X-H torsion
[ 10167 10162 10161 10158 ] final  158.87 input  -65.29 | X-H torsion
[ 10718 10713 10712 10709 ] final    6.88 input   66.30 | X-H torsion
[ 10763 10752 10751 10750 ] final  -84.02 input  -60.55 | X-H torsion
[ 11005 11000 10999 10996 ] final  171.69 input  -57.11 | X-H torsion

> <Gold.Protein.ActiveResidues>
 VAL166  LYS551  ARG553  GLY616  TRP617  ASP618  TYR619  PRO620  LYS621  CYS622 
 ASP623  PHE694  ASN695  SER759  ASP760  ASP761  ALA762  ILE779  LEU786  VAL792 
 PHE793  MET794  SER795  GLU796  ALA797  LYS798  CYS799  TRP800  GLU811  SER814 

> <Gold.Protein.RotatedAtoms>
  152.1257  133.4379  159.4696 H   0  0  0  0  0  0  0  0  0  0  0  0  # atno 6907 bound_to 6896
  150.6875  134.2481  159.4509 H   0  0  0  0  0  0  0  0  0  0  0  0  # atno 6908 bound_to 6896
  152.0361  134.9738  160.0624 H   0  0  0  0  0  0  0  0  0  0  0  0  # atno 6909 bound_to 6896
  146.1827  139.7301  142.8889 H   0  0  0  0  0  0  0  0  0  0  0  0  # atno 7974 bound_to 7965
  154.5546  140.2326  155.8431 H   0  0  0  0  0  0  0  0  0  0  0  0  # atno 8008 bound_to 7997
  156.1977  140.3061  155.9421 H   0  0  0  0  0  0  0  0  0  0  0  0  # atno 8009 bound_to 7997
  155.3005  140.0431  157.3019 H   0  0  0  0  0  0  0  0  0  0  0  0  # atno 8010 bound_to 7997
  139.4829  144.4783  151.8480 H   0  0  0  0  0  0  0  0  0  0  0  0  # atno 10167 bound_to 10162
  156.9288  130.5818  149.5649 H   0  0  0  0  0  0  0  0  0  0  0  0  # atno 10718 bound_to 10713
  154.5946  135.5535  153.7313 H   0  0  0  0  0  0  0  0  0  0  0  0  # atno 10763 bound_to 10752
  153.0130  135.6351  154.1800 H   0  0  0  0  0  0  0  0  0  0  0  0  # atno 10764 bound_to 10752
  154.1741  135.2890  155.3052 H   0  0  0  0  0  0  0  0  0  0  0  0  # atno 10765 bound_to 10752
  140.3216  134.7432  157.4068 H   0  0  0  0  0  0  0  0  0  0  0  0  # atno 11005 bound_to 11000
  145.4030  141.0387  143.3060 LP  0  0  0  0  0  0  0  0  0  0  0  0  # atno 17320 bound_to 7965
  144.8342  139.5577  143.6929 LP  0  0  0  0  0  0  0  0  0  0  0  0  # atno 17321 bound_to 7965
  140.4257  144.2183  150.5887 LP  0  0  0  0  0  0  0  0  0  0  0  0  # atno 17342 bound_to 10162
  140.4829  143.2373  151.8929 LP  0  0  0  0  0  0  0  0  0  0  0  0  # atno 17343 bound_to 10162
  156.0457  130.5534  150.8875 LP  0  0  0  0  0  0  0  0  0  0  0  0  # atno 17370 bound_to 10713
  157.5860  131.0945  150.9195 LP  0  0  0  0  0  0  0  0  0  0  0  0  # atno 17371 bound_to 10713
  140.0936  134.5567  155.8420 LP  0  0  0  0  0  0  0  0  0  0  0  0  # atno 17394 bound_to 11000
  141.2085  133.6674  156.6375 LP  0  0  0  0  0  0  0  0  0  0  0  0  # atno 17395 bound_to 11000

$$$$
