AV-unprocessed.smi:2493|AV-procd|sdf|9820|dock6
  -GOLD-   2272013453D 1   1.00000     0.00000
 Structure written by MMmdl.
 41 42  0  0  0  0  0  0  0  0  1 V2000
  151.9166  144.1028  157.0031 C   0  0  0  0  0  0  0  0  0  0  0  0
  151.5161  143.1989  158.1924 C   0  0  0  0  0  0  0  0  0  0  0  0
  150.7851  141.9347  157.6564 C   0  0  0  0  0  0  0  0  0  0  0  0
  149.9054  142.2020  156.5191 N   0  0  0  0  0  0  0  0  0  0  0  0
  149.8574  141.4942  155.3792 C   0  0  0  0  0  0  0  0  0  0  0  0
  150.5769  140.5221  155.1495 O   0  0  0  0  0  0  0  0  0  0  0  0
  148.8449  141.9594  154.3323 C   0  0  0  0  0  0  0  0  0  0  0  0
  148.0393  140.7897  153.8342 C   0  0  0  0  0  0  0  0  0  0  0  0
  148.4621  139.4359  153.6791 C   0  0  0  0  0  0  0  0  0  0  0  0
  147.3565  138.7937  153.1993 C   0  0  0  0  0  0  0  0  0  0  0  0
  146.3689  139.7437  153.0897 N   0  0  0  0  0  0  0  0  0  0  0  0
  146.7750  140.9687  153.4726 N   0  0  0  0  0  0  0  0  0  0  0  0
  152.8254  142.7471  158.8967 C   0  0  0  0  0  0  0  0  0  0  0  0
  152.6889  142.2455  160.3467 C   0  0  0  0  0  0  0  0  0  0  0  0
  152.8179  143.3761  161.3818 C   0  0  0  0  0  0  0  0  0  0  0  0
  151.6084  144.3190  161.4530 C   0  0  0  0  0  0  0  0  0  0  0  0
  151.2252  144.9739  160.1147 C   0  0  0  0  0  0  0  0  0  0  0  0
  150.5626  143.9888  159.1335 C   0  0  0  0  0  0  0  0  0  0  0  0
  145.4294  139.5741  152.7594 H   0  0  0  0  0  0  0  0  0  0  0  0
  152.5431  143.5640  156.2912 H   0  0  0  0  0  0  0  0  0  0  0  0
  152.4780  144.9769  157.3335 H   0  0  0  0  0  0  0  0  0  0  0  0
  151.0488  144.4736  156.4579 H   0  0  0  0  0  0  0  0  0  0  0  0
  151.5064  141.1560  157.4020 H   0  0  0  0  0  0  0  0  0  0  0  0
  150.1616  141.5067  158.4415 H   0  0  0  0  0  0  0  0  0  0  0  0
  149.2720  142.9830  156.6120 H   0  0  0  0  0  0  0  0  0  0  0  0
  148.1990  142.7270  154.7615 H   0  0  0  0  0  0  0  0  0  0  0  0
  149.3762  142.4315  153.5051 H   0  0  0  0  0  0  0  0  0  0  0  0
  149.4293  139.0051  153.8915 H   0  0  0  0  0  0  0  0  0  0  0  0
  147.1937  137.7602  152.9312 H   0  0  0  0  0  0  0  0  0  0  0  0
  153.2876  141.9591  158.3006 H   0  0  0  0  0  0  0  0  0  0  0  0
  153.5570  143.5561  158.8830 H   0  0  0  0  0  0  0  0  0  0  0  0
  151.7663  141.6832  160.4924 H   0  0  0  0  0  0  0  0  0  0  0  0
  153.4977  141.5381  160.5334 H   0  0  0  0  0  0  0  0  0  0  0  0
  152.9627  142.9328  162.3676 H   0  0  0  0  0  0  0  0  0  0  0  0
  153.7218  143.9540  161.1848 H   0  0  0  0  0  0  0  0  0  0  0  0
  150.7498  143.7834  161.8597 H   0  0  0  0  0  0  0  0  0  0  0  0
  151.8321  145.1052  162.1748 H   0  0  0  0  0  0  0  0  0  0  0  0
  150.5047  145.7630  160.3326 H   0  0  0  0  0  0  0  0  0  0  0  0
  152.0815  145.4743  159.6625 H   0  0  0  0  0  0  0  0  0  0  0  0
  149.8502  144.5448  158.5222 H   0  0  0  0  0  0  0  0  0  0  0  0
  149.9461  143.2939  159.7056 H   0  0  0  0  0  0  0  0  0  0  0  0
  1  2  1  0  0  0  0
  1 20  1  0  0  0  0
  1 21  1  0  0  0  0
  1 22  1  0  0  0  0
  2 18  1  0  0  0  0
  2  3  1  0  0  0  0
  2 13  1  0  0  0  0
  3  4  1  0  0  0  0
  3 23  1  0  0  0  0
  3 24  1  0  0  0  0
  4  5  1  0  0  0  0
  4 25  1  0  0  0  0
  5  6  2  0  0  0  0
  5  7  1  0  0  0  0
  7 26  1  0  0  0  0
  7 27  1  0  0  0  0
  7  8  1  0  0  0  0
  8 12  2  0  0  0  0
  8  9  1  0  0  0  0
  9 10  2  0  0  0  0
  9 28  1  0  0  0  0
 10 11  1  0  0  0  0
 10 29  1  0  0  0  0
 11 12  1  0  0  0  0
 11 19  1  0  0  0  0
 13 14  1  0  0  0  0
 13 30  1  0  0  0  0
 13 31  1  0  0  0  0
 14 15  1  0  0  0  0
 14 32  1  0  0  0  0
 14 33  1  0  0  0  0
 15 16  1  0  0  0  0
 15 34  1  0  0  0  0
 15 35  1  0  0  0  0
 16 17  1  0  0  0  0
 16 36  1  0  0  0  0
 16 37  1  0  0  0  0
 17 18  1  0  0  0  0
 17 38  1  0  0  0  0
 17 39  1  0  0  0  0
 18 40  1  0  0  0  0
 18 41  1  0  0  0  0
M  END
> <s_m_source_file>
AV-unprocessed.smi

> <i_m_source_file_index>
2493

> <i_lp_mmshare_version>
43012

> <i_f3d_flags>
0

> <s_epik_input>
W0NIMl0xW0NIMl1bQ0gyXVtDSDJdW0NIMl1bQ0gyXUMxKFtDSDNdKVtDSDJdW05IXUMoPU8pW0NIMl1jMltjSF1bY0hdbltuSF0y

> <s_epik_cmdline>
J2VwaWtfcHl0aG9uJywgJy1waCcsICc3LjAnLCAnLXRuJywgJzgnLCAnLW1hJywgJzIwMCcsICctbWV0YWxfYmluZGluZycsICctaW1hZScsICc8aW5maWxlLm1hZT4nLCAnLW9tYWUnLCAnPG91dGZpbGUubWFlPic=

> <r_lp_tautomer_probability>
0.5

> <r_epik_Ionization_Penalty>
1.58956e-05

> <r_epik_Ionization_Penalty_Charging>
0

> <r_epik_Ionization_Penalty_Neutral>
1.58956e-05

> <r_epik_State_Penalty>
0.41068

> <r_epik_Charging_Adjusted_Penalty>
0.41068

> <i_epik_Tot_Q>
0

> <i_epik_Tot_abs_Q>
0

> <r_epik_Metal_State_Penalty>
0.410685

> <b_epik_Metal_Only>
0

> <s_lp_Force_Field>
OPLS_2005

> <r_lp_Energy>
20.7964

> <b_lp_Chiralities_Consistent>
1

> <s_lp_Variant>
AV-unprocessed.smi:2493-2

> <Gold.Version>
5.8.1

> <Gold.Id.Protein>
6NUR|6NUR_protein|mol2

> <Gold.PLP.Fitness>
45.7265

> <Gold.PLP.PLP>
-36.9960

> <Gold.PLP.part.hbond>
-3.0000

> <Gold.PLP.part.metal>
0.0000

> <Gold.PLP.part.buried>
2.7319

> <Gold.PLP.part.nonpolar>
-36.4662

> <Gold.PLP.part.repulsive>
0.3086

> <Gold.PLP.ligand.clash>
0.0000

> <Gold.PLP.ligand.torsion>
0.9160

> <Gold.PLP.Chemscore.Hbond>
2.6240

> <Gold.PLP.Chemscore.CHOScore>
0.8913

> <Gold.PLP.Chemscore.Metal>
0.0000

> <Gold.Chemscore.Hbonds>
donor molecule, donor type, donor heavy atom, donor atom, acceptor molecule, acceptor atom, score
      L1  H     4    25       P1  8028  0.77
      L1  H    11    19       P1 10175  0.85
      P1  H  7989  7998       L1     6  0.99
      L1  C    10    29       P1  7948  0.83

> <Gold.PLP.Chemscore.Internal.Correction>
0.0166

> <Gold.Rescore>
     Score         DG    S(hbond)    S(metal)    S(lipo)     H(rot)  DE(clash)    DE(int)     intcor
     19.83     -23.86       2.47        0.00     122.77       1.66       2.06       1.97       ----

> <Gold.Chemscore.Fitness>
19.8341

> <Gold.Chemscore.DG>
-23.8612

> <Gold.Chemscore.ZeroCoef>
-5.4800

> <Gold.Chemscore.Hbond>
2.4743

> <Gold.Chemscore.Metal>
0.0000

> <Gold.Chemscore.Lipo>
122.7732

> <Gold.Chemscore.Internal_Hbond>
0.0000

> <Gold.Chemscore.DEClash>
2.0571

> <Gold.Chemscore.DEInternal>
1.9700

> <Gold.Chemscore.Rot>
1.6592

> <Gold.Chemscore.Internal.Correction>
   9.000000E+99

> <Gold.Chemscore.Hbonds>
donor molecule, donor type, donor heavy atom, donor atom, acceptor molecule, acceptor atom, score
      L1  H     4    25       P1  8028  0.71
      L1  H    11    19       P1 10175  0.81
      P1  H  7989  7998       L1     6  0.60

> <Gold.Chemscore.Hbond.Weighted>
-8.2643

> <Gold.Chemscore.Metal.Weighted>
-0.0000

> <Gold.Chemscore.Lipo.Weighted>
-14.3645

> <Gold.Chemscore.Internal_Hbond.Weighted>
0.0000

> <Gold.Chemscore.DEClash.Weighted>
2.0571

> <Gold.Chemscore.DEInternal.Weighted>
1.9700

> <Gold.Chemscore.Rot.Weighted>
4.2475

> <Gold.Chemscore.Internal.Correction.Weighted>
   9.000000E+99

> <Gold.Protein.RotatedTorsions>
[ 6907 6896 6895 6894 ] final   97.97 input  -60.11 | X-H torsion
[ 7974 7965 7964 7962 ] final  -24.82 input  175.53 | X-H torsion
[ 8008 7997 7996 7995 ] final   64.68 input   59.86 | X-H torsion
[ 10167 10162 10161 10158 ] final   36.05 input  -65.29 | X-H torsion
[ 10718 10713 10712 10709 ] final  159.94 input   66.30 | X-H torsion
[ 10763 10752 10751 10750 ] final  132.58 input  -60.55 | X-H torsion
[ 11005 11000 10999 10996 ] final  -28.55 input  -57.11 | X-H torsion

> <Gold.Protein.ActiveResidues>
 VAL166  LYS551  ARG553  GLY616  TRP617  ASP618  TYR619  PRO620  LYS621  CYS622 
 ASP623  PHE694  ASN695  SER759  ASP760  ASP761  ALA762  ILE779  LEU786  VAL792 
 PHE793  MET794  SER795  GLU796  ALA797  LYS798  CYS799  TRP800  GLU811  SER814 

> <Gold.Protein.RotatedAtoms>
  152.5416  134.0652  159.8169 H   0  0  0  0  0  0  0  0  0  0  0  0  # atno 6907 bound_to 6896
  151.0774  133.5410  159.2630 H   0  0  0  0  0  0  0  0  0  0  0  0  # atno 6908 bound_to 6896
  151.2250  135.0541  159.9019 H   0  0  0  0  0  0  0  0  0  0  0  0  # atno 6909 bound_to 6896
  146.1530  140.4804  142.8603 H   0  0  0  0  0  0  0  0  0  0  0  0  # atno 7974 bound_to 7965
  155.6499  140.3497  155.4744 H   0  0  0  0  0  0  0  0  0  0  0  0  # atno 8008 bound_to 7997
  155.9857  140.1183  157.0709 H   0  0  0  0  0  0  0  0  0  0  0  0  # atno 8009 bound_to 7997
  154.4204  140.1129  156.5482 H   0  0  0  0  0  0  0  0  0  0  0  0  # atno 8010 bound_to 7997
  140.4164  144.1521  150.6144 H   0  0  0  0  0  0  0  0  0  0  0  0  # atno 10167 bound_to 10162
  157.1572  131.0578  151.2250 H   0  0  0  0  0  0  0  0  0  0  0  0  # atno 10718 bound_to 10713
  153.7930  135.3152  155.3381 H   0  0  0  0  0  0  0  0  0  0  0  0  # atno 10763 bound_to 10752
  154.8118  135.4662  154.0540 H   0  0  0  0  0  0  0  0  0  0  0  0  # atno 10764 bound_to 10752
  153.1864  135.6901  153.8496 H   0  0  0  0  0  0  0  0  0  0  0  0  # atno 10765 bound_to 10752
  140.9218  133.7394  156.0812 H   0  0  0  0  0  0  0  0  0  0  0  0  # atno 11005 bound_to 11000
  144.7928  140.6064  143.6530 LP  0  0  0  0  0  0  0  0  0  0  0  0  # atno 17320 bound_to 7965
  145.4777  139.1498  143.3779 LP  0  0  0  0  0  0  0  0  0  0  0  0  # atno 17321 bound_to 7965
  140.4582  143.2459  151.9256 LP  0  0  0  0  0  0  0  0  0  0  0  0  # atno 17342 bound_to 10162
  139.4782  144.5494  151.8408 LP  0  0  0  0  0  0  0  0  0  0  0  0  # atno 17343 bound_to 10162
  157.4166  130.7414  149.6880 LP  0  0  0  0  0  0  0  0  0  0  0  0  # atno 17370 bound_to 10713
  155.9760  130.4081  150.3810 LP  0  0  0  0  0  0  0  0  0  0  0  0  # atno 17371 bound_to 10713
  140.7978  134.3544  157.5448 LP  0  0  0  0  0  0  0  0  0  0  0  0  # atno 17394 bound_to 11000
  139.8777  134.9179  156.3190 LP  0  0  0  0  0  0  0  0  0  0  0  0  # atno 17395 bound_to 11000

$$$$
