AV-unprocessed.smi:766|AV-procd|sdf|3655|dock4
  -GOLD-   22720 1 63D 1   1.00000     0.00000
 Structure written by MMmdl.
 46 48  0  0  0  0  0  0  0  0  1 V2000
  152.9538  143.4987  161.1121 C   0  0  0  0  0  0  0  0  0  0  0  0
  152.3648  142.8308  159.8822 C   0  0  0  0  0  0  0  0  0  0  0  0
  152.4299  141.4238  159.7670 C   0  0  0  0  0  0  0  0  0  0  0  0
  151.8934  140.7638  158.6398 C   0  0  0  0  0  0  0  0  0  0  0  0
  151.8477  139.4166  158.3243 N   0  0  0  0  0  0  0  0  0  0  0  0
  151.2247  139.4380  157.1495 C   0  0  0  0  0  0  0  0  0  0  0  0
  150.8599  140.6412  156.6660 N   0  0  0  0  0  0  0  0  0  0  0  0
  150.1796  140.9146  155.4122 C   0  0  0  0  0  0  0  0  0  0  0  0
  149.6592  139.6360  154.7269 C   0  0  2  0  0  0  0  0  0  0  0  0
  150.5966  139.2202  153.7524 O   0  0  0  0  0  0  0  0  0  0  0  0
  148.3065  139.8724  154.0343 C   0  0  0  0  0  0  0  0  0  0  0  0
  148.1322  138.9763  152.8964 N   0  0  0  0  0  0  0  0  0  0  0  0
  146.7322  138.7115  152.5757 C   0  0  0  0  0  0  0  0  0  0  0  0
  146.2135  137.4549  153.2938 C   0  0  0  0  0  0  0  0  0  0  0  0
  145.4235  136.6058  152.4202 N   0  0  0  0  0  0  0  0  0  0  0  0
  145.7824  136.0514  151.2098 C   0  0  0  0  0  0  0  0  0  0  0  0
  144.7143  135.3286  150.7611 C   0  0  0  0  0  0  0  0  0  0  0  0
  143.7353  135.5062  151.7782 C   0  0  0  0  0  0  0  0  0  0  0  0
  144.1614  136.2736  152.7685 N   0  0  0  0  0  0  0  0  0  0  0  0
  151.2864  141.5564  157.6222 C   0  0  0  0  0  0  0  0  0  0  0  0
  151.2170  142.9570  157.7244 C   0  0  0  0  0  0  0  0  0  0  0  0
  151.7552  143.6002  158.8586 C   0  0  0  0  0  0  0  0  0  0  0  0
  151.6699  145.1128  158.9624 C   0  0  0  0  0  0  0  0  0  0  0  0
  153.4232  142.7706  161.7744 H   0  0  0  0  0  0  0  0  0  0  0  0
  152.1754  144.0124  161.6767 H   0  0  0  0  0  0  0  0  0  0  0  0
  153.7130  144.2272  160.8264 H   0  0  0  0  0  0  0  0  0  0  0  0
  152.8928  140.8372  160.5468 H   0  0  0  0  0  0  0  0  0  0  0  0
  151.0204  138.5250  156.6094 H   0  0  0  0  0  0  0  0  0  0  0  0
  149.3510  141.5923  155.6208 H   0  0  0  0  0  0  0  0  0  0  0  0
  150.8627  141.4511  154.7518 H   0  0  0  0  0  0  0  0  0  0  0  0
  149.5609  138.8491  155.4763 H   0  0  0  0  0  0  0  0  0  0  0  0
  150.1250  138.9137  152.9932 H   0  0  0  0  0  0  0  0  0  0  0  0
  147.5015  139.6888  154.7470 H   0  0  0  0  0  0  0  0  0  0  0  0
  148.2118  140.9152  153.7279 H   0  0  0  0  0  0  0  0  0  0  0  0
  148.6054  139.3608  152.0845 H   0  0  0  0  0  0  0  0  0  0  0  0
  146.1145  139.5706  152.8403 H   0  0  0  0  0  0  0  0  0  0  0  0
  146.6246  138.5733  151.4993 H   0  0  0  0  0  0  0  0  0  0  0  0
  147.0540  136.8693  153.6688 H   0  0  0  0  0  0  0  0  0  0  0  0
  145.6125  137.7278  154.1622 H   0  0  0  0  0  0  0  0  0  0  0  0
  146.7575  136.2135  150.7751 H   0  0  0  0  0  0  0  0  0  0  0  0
  144.6431  134.7596  149.8462 H   0  0  0  0  0  0  0  0  0  0  0  0
  142.7344  135.1032  151.8254 H   0  0  0  0  0  0  0  0  0  0  0  0
  150.7502  143.5302  156.9370 H   0  0  0  0  0  0  0  0  0  0  0  0
  151.1429  145.5409  158.1092 H   0  0  0  0  0  0  0  0  0  0  0  0
  152.6682  145.5497  158.9934 H   0  0  0  0  0  0  0  0  0  0  0  0
  151.1348  145.4050  159.8663 H   0  0  0  0  0  0  0  0  0  0  0  0
  1  2  1  0  0  0  0
  1 24  1  0  0  0  0
  1 25  1  0  0  0  0
  1 26  1  0  0  0  0
  2 22  1  0  0  0  0
  2  3  2  0  0  0  0
  3  4  1  0  0  0  0
  3 27  1  0  0  0  0
  4 20  2  0  0  0  0
  4  5  1  0  0  0  0
  5  6  2  0  0  0  0
  6  7  1  0  0  0  0
  6 28  1  0  0  0  0
  7  8  1  0  0  0  0
  7 20  1  0  0  0  0
  8  9  1  0  0  0  0
  8 29  1  0  0  0  0
  8 30  1  0  0  0  0
  9 10  1  0  0  0  0
  9 11  1  0  0  0  0
  9 31  1  0  0  0  0
 10 32  1  0  0  0  0
 11 12  1  0  0  0  0
 11 33  1  0  0  0  0
 11 34  1  0  0  0  0
 12 13  1  0  0  0  0
 12 35  1  0  0  0  0
 13 14  1  0  0  0  0
 13 36  1  0  0  0  0
 13 37  1  0  0  0  0
 14 15  1  0  0  0  0
 14 38  1  0  0  0  0
 14 39  1  0  0  0  0
 15 19  1  0  0  0  0
 15 16  1  0  0  0  0
 16 17  2  0  0  0  0
 16 40  1  0  0  0  0
 17 18  1  0  0  0  0
 17 41  1  0  0  0  0
 18 19  2  0  0  0  0
 18 42  1  0  0  0  0
 20 21  1  0  0  0  0
 21 22  2  0  0  0  0
 21 43  1  0  0  0  0
 22 23  1  0  0  0  0
 23 44  1  0  0  0  0
 23 45  1  0  0  0  0
 23 46  1  0  0  0  0
M  END
> <s_m_source_file>
AV-unprocessed.smi

> <i_m_source_file_index>
766

> <i_lp_mmshare_version>
43012

> <i_f3d_flags>
0

> <s_epik_input>
W0NIM11jKFtjSF0xKWMoW0NIM10pW2NIXWMoYzEyKW4oW2NIXW4yKVtDSDJdW0NASF0oW09IXSlbQ0gyXVtOSF1bQ0gyXVtDSDJdbjNbY0hdW2NIXVtjSF1uMw==

> <s_epik_cmdline>
J2VwaWtfcHl0aG9uJywgJy1waCcsICc3LjAnLCAnLXRuJywgJzgnLCAnLW1hJywgJzIwMCcsICctbWV0YWxfYmluZGluZycsICctaW1hZScsICc8aW5maWxlLm1hZT4nLCAnLW9tYWUnLCAnPG91dGZpbGUubWFlPic=

> <r_lp_tautomer_probability>
1

> <r_epik_Ionization_Penalty>
1.68727

> <r_epik_Ionization_Penalty_Charging>
0

> <r_epik_Ionization_Penalty_Neutral>
1.68727

> <r_epik_State_Penalty>
1.78741

> <r_epik_Charging_Adjusted_Penalty>
1.78741

> <i_epik_Tot_Q>
0

> <i_epik_Tot_abs_Q>
0

> <r_epik_Metal_State_Penalty>
1.73664

> <b_epik_Metal_Only>
0

> <s_lp_Force_Field>
OPLS_2005

> <r_lp_Energy>
17.6974

> <b_lp_Chiralities_Consistent>
1

> <s_lp_Variant>
AV-unprocessed.smi:766-5

> <Gold.Version>
5.8.1

> <Gold.Id.Protein>
6NUR|6NUR_protein|mol2

> <Gold.PLP.Fitness>
55.4605

> <Gold.PLP.PLP>
-48.6135

> <Gold.PLP.part.hbond>
-3.8537

> <Gold.PLP.part.metal>
0.0000

> <Gold.PLP.part.buried>
-5.8904

> <Gold.PLP.part.nonpolar>
-40.6357

> <Gold.PLP.part.repulsive>
0.1265

> <Gold.PLP.ligand.clash>
0.0000

> <Gold.PLP.ligand.torsion>
1.6221

> <Gold.PLP.Chemscore.Hbond>
2.3189

> <Gold.PLP.Chemscore.CHOScore>
1.0000

> <Gold.PLP.Chemscore.Metal>
0.0000

> <Gold.Chemscore.Hbonds>
donor molecule, donor type, donor heavy atom, donor atom, acceptor molecule, acceptor atom, score
      L1  H    10    32       P1  7957  0.34
      L1  H    12    35       P1  7957  0.94
      P1  H  7989  7998       L1    10  0.99
      L1  C    16    40       P1  7948  1.00

> <Gold.PLP.Chemscore.Internal.Correction>
0.1346

> <Gold.Rescore>
     Score         DG    S(hbond)    S(metal)    S(lipo)     H(rot)  DE(clash)    DE(int)     intcor
     19.44     -21.47       2.44        0.00     129.17       2.83       0.59       1.43       ----

> <Gold.Chemscore.Fitness>
19.4443

> <Gold.Chemscore.DG>
-21.4703

> <Gold.Chemscore.ZeroCoef>
-5.4800

> <Gold.Chemscore.Hbond>
2.4356

> <Gold.Chemscore.Metal>
0.0000

> <Gold.Chemscore.Lipo>
129.1683

> <Gold.Chemscore.Internal_Hbond>
0.0000

> <Gold.Chemscore.DEClash>
0.5950

> <Gold.Chemscore.DEInternal>
1.4310

> <Gold.Chemscore.Rot>
2.8348

> <Gold.Chemscore.Internal.Correction>
   9.000000E+99

> <Gold.Chemscore.Hbonds>
donor molecule, donor type, donor heavy atom, donor atom, acceptor molecule, acceptor atom, score
      L1  H    10    32       P1  7957  0.25
      L1  H    12    35       P1  7957  0.90
      P1  H  7989  7998       L1    10  0.28

> <Gold.Chemscore.Hbond.Weighted>
-8.1348

> <Gold.Chemscore.Metal.Weighted>
-0.0000

> <Gold.Chemscore.Lipo.Weighted>
-15.1127

> <Gold.Chemscore.Internal_Hbond.Weighted>
0.0000

> <Gold.Chemscore.DEClash.Weighted>
0.5950

> <Gold.Chemscore.DEInternal.Weighted>
1.4310

> <Gold.Chemscore.Rot.Weighted>
7.2572

> <Gold.Chemscore.Internal.Correction.Weighted>
   9.000000E+99

> <Gold.Protein.RotatedTorsions>
[ 6907 6896 6895 6894 ] final -106.93 input  -60.11 | X-H torsion
[ 7974 7965 7964 7962 ] final  113.78 input  175.53 | X-H torsion
[ 8008 7997 7996 7995 ] final  -99.93 input   59.86 | X-H torsion
[ 10167 10162 10161 10158 ] final   57.32 input  -65.29 | X-H torsion
[ 10718 10713 10712 10709 ] final -113.93 input   66.30 | X-H torsion
[ 10763 10752 10751 10750 ] final  -78.76 input  -60.55 | X-H torsion
[ 11005 11000 10999 10996 ] final   80.70 input  -57.11 | X-H torsion

> <Gold.Protein.ActiveResidues>
 VAL166  LYS551  ARG553  GLY616  TRP617  ASP618  TYR619  PRO620  LYS621  CYS622 
 ASP623  PHE694  ASN695  SER759  ASP760  ASP761  ALA762  ILE779  LEU786  VAL792 
 PHE793  MET794  SER795  GLU796  ALA797  LYS798  CYS799  TRP800  GLU811  SER814 

> <Gold.Protein.RotatedAtoms>
  150.7416  133.9903  159.3604 H   0  0  0  0  0  0  0  0  0  0  0  0  # atno 6907 bound_to 6896
  151.7850  135.0749  160.0388 H   0  0  0  0  0  0  0  0  0  0  0  0  # atno 6908 bound_to 6896
  152.3247  133.5855  159.5805 H   0  0  0  0  0  0  0  0  0  0  0  0  # atno 6909 bound_to 6896
  145.2127  139.2899  143.4260 H   0  0  0  0  0  0  0  0  0  0  0  0  # atno 7974 bound_to 7965
  154.8216  140.0444  157.1415 H   0  0  0  0  0  0  0  0  0  0  0  0  # atno 8008 bound_to 7997
  154.9253  140.3032  155.5175 H   0  0  0  0  0  0  0  0  0  0  0  0  # atno 8009 bound_to 7997
  156.2980  140.2333  156.4307 H   0  0  0  0  0  0  0  0  0  0  0  0  # atno 8010 bound_to 7997
  140.1992  144.4005  150.6536 H   0  0  0  0  0  0  0  0  0  0  0  0  # atno 10167 bound_to 10162
  156.0797  130.5999  150.8707 H   0  0  0  0  0  0  0  0  0  0  0  0  # atno 10718 bound_to 10713
  154.5299  135.5719  153.6750 H   0  0  0  0  0  0  0  0  0  0  0  0  # atno 10763 bound_to 10752
  152.9937  135.6202  154.2642 H   0  0  0  0  0  0  0  0  0  0  0  0  # atno 10764 bound_to 10752
  154.2568  135.2857  155.2774 H   0  0  0  0  0  0  0  0  0  0  0  0  # atno 10765 bound_to 10752
  139.9125  134.7940  156.1943 H   0  0  0  0  0  0  0  0  0  0  0  0  # atno 11005 bound_to 11000
  146.3394  140.2407  142.8595 LP  0  0  0  0  0  0  0  0  0  0  0  0  # atno 17320 bound_to 7965
  144.9841  140.8486  143.5379 LP  0  0  0  0  0  0  0  0  0  0  0  0  # atno 17321 bound_to 7965
  140.6402  143.2202  151.6307 LP  0  0  0  0  0  0  0  0  0  0  0  0  # atno 17342 bound_to 10162
  139.5224  144.3164  152.0948 LP  0  0  0  0  0  0  0  0  0  0  0  0  # atno 17343 bound_to 10162
  157.5909  131.0944  150.9120 LP  0  0  0  0  0  0  0  0  0  0  0  0  # atno 17370 bound_to 10713
  156.9297  130.5345  149.5279 LP  0  0  0  0  0  0  0  0  0  0  0  0  # atno 17371 bound_to 10713
  141.0564  133.6863  156.1868 LP  0  0  0  0  0  0  0  0  0  0  0  0  # atno 17394 bound_to 11000
  140.6730  134.4847  157.5587 LP  0  0  0  0  0  0  0  0  0  0  0  0  # atno 17395 bound_to 11000

$$$$
