AV-unprocessed.smi:199|AV-procd|sdf|1567|dock8
  -GOLD-   2262019443D 1   1.00000     0.00000
 Structure written by MMmdl.
 51 55  0  0  0  0  0  0  0  0  1 V2000
  147.4948  132.8822  161.5837 C   0  0  0  0  0  0  0  0  0  0  0  0
  146.8108  134.1833  162.0311 C   0  0  1  0  0  0  0  0  0  0  0  0
  147.2691  134.4753  163.3492 O   0  0  0  0  0  0  0  0  0  0  0  0
  147.3072  135.8805  163.5248 C   0  0  0  0  0  0  0  0  0  0  0  0
  147.8261  136.3647  162.1799 C   0  0  0  0  0  0  0  0  0  0  0  0
  147.1071  135.4557  161.1873 C   0  0  2  0  0  0  0  0  0  0  0  0
  145.8621  136.0571  160.8704 O   0  0  0  0  0  0  0  0  0  0  0  0
  147.8848  135.2419  159.8615 C   0  0  0  0  0  0  0  0  0  0  0  0
  148.2037  136.4833  159.1715 N   0  0  0  0  0  0  0  0  0  0  0  0
  147.3206  137.3111  158.5182 C   0  0  0  0  0  0  0  0  0  0  0  0
  147.8521  138.3716  157.9766 N   0  0  0  0  0  0  0  0  0  0  0  0
  149.2069  138.2745  158.2748 C   0  0  0  0  0  0  0  0  0  0  0  0
  150.3553  139.0783  158.0046 C   0  0  0  0  0  0  0  0  0  0  0  0
  150.3443  140.2531  157.3145 N   0  0  0  0  0  0  0  0  0  0  0  0
  151.2716  140.5105  156.2221 C   0  0  2  0  0  0  0  0  0  0  0  0
  151.0021  141.9910  155.9036 C   0  0  0  0  0  0  0  0  0  0  0  0
  149.4937  142.0878  156.1721 C   0  0  0  0  0  0  0  0  0  0  0  0
  149.1610  140.6333  156.5530 C   0  0  1  0  0  0  0  0  0  0  0  0
  149.2187  139.6928  155.3208 C   0  0  1  0  0  0  0  0  0  0  0  0
  148.3565  140.0970  154.1108 C   0  0  0  0  0  0  0  0  0  0  0  0
  148.3093  139.0383  153.1780 O   0  0  0  0  0  0  0  0  0  0  0  0
  150.7369  139.6475  155.0608 C   0  0  0  0  0  0  0  0  0  0  0  0
  151.5523  138.6186  158.4564 N   0  0  0  0  0  0  0  0  0  0  0  0
  151.6296  137.4740  159.1394 C   0  0  0  0  0  0  0  0  0  0  0  0
  150.6482  136.6366  159.4743 N   0  0  0  0  0  0  0  0  0  0  0  0
  149.4429  137.0804  159.0171 C   0  0  0  0  0  0  0  0  0  0  0  0
  147.1820  132.5904  160.5811 H   0  0  0  0  0  0  0  0  0  0  0  0
  147.2365  132.0633  162.2556 H   0  0  0  0  0  0  0  0  0  0  0  0
  148.5808  132.9784  161.5900 H   0  0  0  0  0  0  0  0  0  0  0  0
  145.7353  134.0043  162.0866 H   0  0  0  0  0  0  0  0  0  0  0  0
  146.3022  136.2573  163.7206 H   0  0  0  0  0  0  0  0  0  0  0  0
  147.9538  136.1654  164.3548 H   0  0  0  0  0  0  0  0  0  0  0  0
  147.6573  137.4288  162.0089 H   0  0  0  0  0  0  0  0  0  0  0  0
  148.9014  136.1877  162.1397 H   0  0  0  0  0  0  0  0  0  0  0  0
  145.5332  136.4892  161.6436 H   0  0  0  0  0  0  0  0  0  0  0  0
  148.8218  134.7165  160.0474 H   0  0  0  0  0  0  0  0  0  0  0  0
  147.3098  134.6142  159.1791 H   0  0  0  0  0  0  0  0  0  0  0  0
  146.2618  137.1051  158.4600 H   0  0  0  0  0  0  0  0  0  0  0  0
  152.3235  140.3402  156.4422 H   0  0  0  0  0  0  0  0  0  0  0  0
  151.5540  142.6433  156.5815 H   0  0  0  0  0  0  0  0  0  0  0  0
  151.2707  142.2583  154.8809 H   0  0  0  0  0  0  0  0  0  0  0  0
  149.3051  142.7528  157.0159 H   0  0  0  0  0  0  0  0  0  0  0  0
  148.9253  142.4679  155.3245 H   0  0  0  0  0  0  0  0  0  0  0  0
  148.2219  140.5599  157.1029 H   0  0  0  0  0  0  0  0  0  0  0  0
  148.8921  138.7028  155.6451 H   0  0  0  0  0  0  0  0  0  0  0  0
  147.3389  140.3248  154.4294 H   0  0  0  0  0  0  0  0  0  0  0  0
  148.7508  140.9809  153.6104 H   0  0  0  0  0  0  0  0  0  0  0  0
  148.7901  139.2969  152.4066 H   0  0  0  0  0  0  0  0  0  0  0  0
  151.0233  140.0431  154.0857 H   0  0  0  0  0  0  0  0  0  0  0  0
  151.1061  138.6234  155.1275 H   0  0  0  0  0  0  0  0  0  0  0  0
  152.6196  137.1888  159.4631 H   0  0  0  0  0  0  0  0  0  0  0  0
  1  2  1  0  0  0  0
  1 27  1  0  0  0  0
  1 28  1  0  0  0  0
  1 29  1  0  0  0  0
  2  6  1  0  0  0  0
  2  3  1  0  0  0  0
  2 30  1  0  0  0  0
  3  4  1  0  0  0  0
  4  5  1  0  0  0  0
  4 31  1  0  0  0  0
  4 32  1  0  0  0  0
  5  6  1  0  0  0  0
  5 33  1  0  0  0  0
  5 34  1  0  0  0  0
  6  7  1  0  0  0  0
  6  8  1  0  0  0  0
  7 35  1  0  0  0  0
  8  9  1  0  0  0  0
  8 36  1  0  0  0  0
  8 37  1  0  0  0  0
  9 26  1  0  0  0  0
  9 10  1  0  0  0  0
 10 11  2  0  0  0  0
 10 38  1  0  0  0  0
 11 12  1  0  0  0  0
 12 26  2  0  0  0  0
 12 13  1  0  0  0  0
 13 14  1  0  0  0  0
 13 23  2  0  0  0  0
 14 18  1  0  0  0  0
 14 15  1  0  0  0  0
 15 22  1  0  0  0  0
 15 16  1  0  0  0  0
 15 39  1  0  0  0  0
 16 17  1  0  0  0  0
 16 40  1  0  0  0  0
 16 41  1  0  0  0  0
 17 18  1  0  0  0  0
 17 42  1  0  0  0  0
 17 43  1  0  0  0  0
 18 19  1  0  0  0  0
 18 44  1  0  0  0  0
 19 20  1  0  0  0  0
 19 22  1  0  0  0  0
 19 45  1  0  0  0  0
 20 21  1  0  0  0  0
 20 46  1  0  0  0  0
 20 47  1  0  0  0  0
 21 48  1  0  0  0  0
 22 49  1  0  0  0  0
 22 50  1  0  0  0  0
 23 24  1  0  0  0  0
 24 25  2  0  0  0  0
 24 51  1  0  0  0  0
 25 26  1  0  0  0  0
M  END
> <s_m_source_file>
AV-unprocessed.smi

> <i_m_source_file_index>
199

> <i_lp_mmshare_version>
43012

> <i_f3d_flags>
0

> <s_epik_input>
W0NIMl0xW0NIMl1PW0NAQEhdKFtDSDNdKVtDQEBdMShbT0hdKVtDSDJdbihbY0hdbjIpYyhjMjMpbltjSF1uYzNOKFtDQEBIXTQ1KVtDQEhdKFtDSDJdW0NIMl00KVtDQEhdKFtDSDJdNSlbQ0gyXVtPSF0=

> <s_epik_cmdline>
J2VwaWtfcHl0aG9uJywgJy1waCcsICc3LjAnLCAnLXRuJywgJzgnLCAnLW1hJywgJzIwMCcsICctbWV0YWxfYmluZGluZycsICctaW1hZScsICc8aW5maWxlLm1hZT4nLCAnLW9tYWUnLCAnPG91dGZpbGUubWFlPic=

> <r_lp_tautomer_probability>
1

> <r_epik_Ionization_Penalty>
0.00583903

> <r_epik_Ionization_Penalty_Charging>
0

> <r_epik_Ionization_Penalty_Neutral>
0.00583903

> <r_epik_State_Penalty>
-0

> <r_epik_Charging_Adjusted_Penalty>
0

> <i_epik_Tot_Q>
0

> <i_epik_Tot_abs_Q>
0

> <r_epik_Metal_State_Penalty>
-0

> <b_epik_Metal_Only>
0

> <s_lp_Force_Field>
OPLS_2005

> <r_lp_Energy>
84.1045

> <b_lp_Chiralities_Consistent>
1

> <s_lp_Variant>
AV-unprocessed.smi:199-8

> <Gold.Version>
5.8.1

> <Gold.Id.Protein>
6NUR|6NUR_protein|mol2

> <Gold.PLP.Fitness>
43.3981

> <Gold.PLP.PLP>
-38.3006

> <Gold.PLP.part.hbond>
-4.6541

> <Gold.PLP.part.metal>
0.0000

> <Gold.PLP.part.buried>
-1.3418

> <Gold.PLP.part.nonpolar>
-31.0635

> <Gold.PLP.part.repulsive>
0.0278

> <Gold.PLP.ligand.clash>
0.0000

> <Gold.PLP.ligand.torsion>
0.4601

> <Gold.PLP.Chemscore.Hbond>
2.0000

> <Gold.PLP.Chemscore.CHOScore>
0.0000

> <Gold.PLP.Chemscore.Metal>
0.0000

> <Gold.Chemscore.Hbonds>
donor molecule, donor type, donor heavy atom, donor atom, acceptor molecule, acceptor atom, score
      L1  H    21    48       P1  7957  1.00
      P1  H  6896  6909       L1    25  1.00

> <Gold.PLP.Chemscore.Internal.Correction>
0.0178

> <Gold.Rescore>
     Score         DG    S(hbond)    S(metal)    S(lipo)     H(rot)  DE(clash)    DE(int)     intcor
     11.61     -14.92       1.99        0.00      91.19       3.07       1.70       1.60       ----

> <Gold.Chemscore.Fitness>
11.6111

> <Gold.Chemscore.DG>
-14.9158

> <Gold.Chemscore.ZeroCoef>
-5.4800

> <Gold.Chemscore.Hbond>
1.9861

> <Gold.Chemscore.Metal>
0.0000

> <Gold.Chemscore.Lipo>
91.1884

> <Gold.Chemscore.Internal_Hbond>
0.0000

> <Gold.Chemscore.DEClash>
1.6999

> <Gold.Chemscore.DEInternal>
1.6049

> <Gold.Chemscore.Rot>
3.0729

> <Gold.Chemscore.Internal.Correction>
   9.000000E+99

> <Gold.Chemscore.Hbonds>
donor molecule, donor type, donor heavy atom, donor atom, acceptor molecule, acceptor atom, score
      L1  H    21    48       P1  7957  1.00
      P1  H  6896  6909       L1    25  0.70

> <Gold.Chemscore.Hbond.Weighted>
-6.6335

> <Gold.Chemscore.Metal.Weighted>
-0.0000

> <Gold.Chemscore.Lipo.Weighted>
-10.6690

> <Gold.Chemscore.Internal_Hbond.Weighted>
0.0000

> <Gold.Chemscore.DEClash.Weighted>
1.6999

> <Gold.Chemscore.DEInternal.Weighted>
1.6049

> <Gold.Chemscore.Rot.Weighted>
7.8667

> <Gold.Chemscore.Internal.Correction.Weighted>
   9.000000E+99

> <Gold.Protein.RotatedTorsions>
[ 6907 6896 6895 6894 ] final  105.26 input  -60.11 | X-H torsion
[ 7974 7965 7964 7962 ] final -106.63 input  175.53 | X-H torsion
[ 8008 7997 7996 7995 ] final   65.61 input   59.86 | X-H torsion
[ 10167 10162 10161 10158 ] final  -12.92 input  -65.29 | X-H torsion
[ 10718 10713 10712 10709 ] final  -54.74 input   66.30 | X-H torsion
[ 10763 10752 10751 10750 ] final   56.49 input  -60.55 | X-H torsion
[ 11005 11000 10999 10996 ] final   57.61 input  -57.11 | X-H torsion

> <Gold.Protein.ActiveResidues>
 VAL166  LYS551  ARG553  GLY616  TRP617  ASP618  TYR619  PRO620  LYS621  CYS622 
 ASP623  PHE694  ASN695  SER759  ASP760  ASP761  ALA762  ILE779  LEU786  VAL792 
 PHE793  MET794  SER795  GLU796  ALA797  LYS798  CYS799  TRP800  GLU811  SER814 

> <Gold.Protein.RotatedAtoms>
  152.5236  133.9555  159.7692 H   0  0  0  0  0  0  0  0  0  0  0  0  # atno 6907 bound_to 6896
  150.9857  133.6192  159.2723 H   0  0  0  0  0  0  0  0  0  0  0  0  # atno 6908 bound_to 6896
  151.3354  135.0857  159.9406 H   0  0  0  0  0  0  0  0  0  0  0  0  # atno 6909 bound_to 6896
  145.2155  140.9113  143.3290 H   0  0  0  0  0  0  0  0  0  0  0  0  # atno 7974 bound_to 7965
  155.6644  140.3497  155.4794 H   0  0  0  0  0  0  0  0  0  0  0  0  # atno 8008 bound_to 7997
  155.9741  140.1161  157.0808 H   0  0  0  0  0  0  0  0  0  0  0  0  # atno 8009 bound_to 7997
  154.4174  140.1151  156.5333 H   0  0  0  0  0  0  0  0  0  0  0  0  # atno 8010 bound_to 7997
  140.7171  143.5480  150.9333 H   0  0  0  0  0  0  0  0  0  0  0  0  # atno 10167 bound_to 10162
  156.1426  130.4154  150.0078 H   0  0  0  0  0  0  0  0  0  0  0  0  # atno 10718 bound_to 10713
  152.9833  135.5674  154.5237 H   0  0  0  0  0  0  0  0  0  0  0  0  # atno 10763 bound_to 10752
  154.4720  135.2785  155.1637 H   0  0  0  0  0  0  0  0  0  0  0  0  # atno 10764 bound_to 10752
  154.3181  135.6274  153.5549 H   0  0  0  0  0  0  0  0  0  0  0  0  # atno 10765 bound_to 10752
  140.0440  134.5833  155.9346 H   0  0  0  0  0  0  0  0  0  0  0  0  # atno 11005 bound_to 11000
  144.9815  139.3779  143.6259 LP  0  0  0  0  0  0  0  0  0  0  0  0  # atno 17320 bound_to 7965
  146.3388  139.8958  142.8802 LP  0  0  0  0  0  0  0  0  0  0  0  0  # atno 17321 bound_to 7965
  139.9204  143.6612  152.3098 LP  0  0  0  0  0  0  0  0  0  0  0  0  # atno 17342 bound_to 10162
  139.7027  144.7632  151.1245 LP  0  0  0  0  0  0  0  0  0  0  0  0  # atno 17343 bound_to 10162
  156.7959  130.9273  151.3646 LP  0  0  0  0  0  0  0  0  0  0  0  0  # atno 17370 bound_to 10713
  157.6588  130.8948  149.9786 LP  0  0  0  0  0  0  0  0  0  0  0  0  # atno 17371 bound_to 10713
  141.1897  133.6566  156.5381 LP  0  0  0  0  0  0  0  0  0  0  0  0  # atno 17394 bound_to 11000
  140.4024  134.7345  157.4787 LP  0  0  0  0  0  0  0  0  0  0  0  0  # atno 17395 bound_to 11000

$$$$
