AV-unprocessed.smi:1019|AV-procd|sdf|4444|dock5
  -GOLD-   22720 2403D 1   1.00000     0.00000
 Structure written by MMmdl.
 44 46  0  0  0  0  0  0  0  0  2 V2000
  147.4897  135.1408  154.7026 C   0  0  0  0  0  0  0  0  0  0  0  0
  148.8520  134.8145  154.2108 N   0  3  2  0  0  0  0  0  0  0  0  0
  149.0232  133.3687  153.9170 C   0  0  0  0  0  0  0  0  0  0  0  0
  147.7871  132.7614  153.2768 C   0  0  0  0  0  0  0  0  0  0  0  0
  147.2409  131.5679  153.7944 C   0  0  0  0  0  0  0  0  0  0  0  0
  146.0961  130.9989  153.2033 C   0  0  0  0  0  0  0  0  0  0  0  0
  145.4918  131.6221  152.0946 C   0  0  0  0  0  0  0  0  0  0  0  0
  146.0324  132.8152  151.5770 C   0  0  0  0  0  0  0  0  0  0  0  0
  147.1776  133.3848  152.1670 C   0  0  0  0  0  0  0  0  0  0  0  0
  149.9205  135.3370  155.1015 C   0  0  0  0  0  0  0  0  0  0  0  0
  150.3957  136.7511  154.6946 C   0  0  2  0  0  0  0  0  0  0  0  0
  151.5765  136.6400  153.9253 O   0  0  0  0  0  0  0  0  0  0  0  0
  150.7094  137.6655  155.8966 C   0  0  0  0  0  0  0  0  0  0  0  0
  150.7853  139.0681  155.5286 N   0  0  0  0  0  0  0  0  0  0  0  0
  150.5102  139.6069  154.3246 C   0  0  0  0  0  0  0  0  0  0  0  0
  150.6623  140.9215  154.1965 N   0  0  0  0  0  0  0  0  0  0  0  0
  151.0691  141.2818  155.4695 C   0  0  0  0  0  0  0  0  0  0  0  0
  151.4011  142.5480  156.0020 C   0  0  0  0  0  0  0  0  0  0  0  0
  151.7947  142.6751  157.3505 C   0  0  0  0  0  0  0  0  0  0  0  0
  151.8598  141.5414  158.1863 C   0  0  0  0  0  0  0  0  0  0  0  0
  151.5350  140.2690  157.6780 C   0  0  0  0  0  0  0  0  0  0  0  0
  151.1476  140.1456  156.3304 C   0  0  0  0  0  0  0  0  0  0  0  0
  147.2754  134.6145  155.6338 H   0  0  0  0  0  0  0  0  0  0  0  0
  146.7294  134.8615  153.9733 H   0  0  0  0  0  0  0  0  0  0  0  0
  147.3719  136.2079  154.8861 H   0  0  0  0  0  0  0  0  0  0  0  0
  149.8507  133.2230  153.2212 H   0  0  0  0  0  0  0  0  0  0  0  0
  149.2861  132.8299  154.8291 H   0  0  0  0  0  0  0  0  0  0  0  0
  147.6990  131.0849  154.6450 H   0  0  0  0  0  0  0  0  0  0  0  0
  145.6811  130.0842  153.6009 H   0  0  0  0  0  0  0  0  0  0  0  0
  144.6133  131.1860  151.6423 H   0  0  0  0  0  0  0  0  0  0  0  0
  145.5675  133.2938  150.7275 H   0  0  0  0  0  0  0  0  0  0  0  0
  147.5863  134.2998  151.7632 H   0  0  0  0  0  0  0  0  0  0  0  0
  149.5456  135.3221  156.1257 H   0  0  0  0  0  0  0  0  0  0  0  0
  150.7865  134.6732  155.0926 H   0  0  0  0  0  0  0  0  0  0  0  0
  149.6451  137.2435  154.0785 H   0  0  0  0  0  0  0  0  0  0  0  0
  151.3472  136.4046  153.0396 H   0  0  0  0  0  0  0  0  0  0  0  0
  149.9453  137.5517  156.6674 H   0  0  0  0  0  0  0  0  0  0  0  0
  151.6585  137.3814  156.3532 H   0  0  0  0  0  0  0  0  0  0  0  0
  150.1915  138.9983  153.4909 H   0  0  0  0  0  0  0  0  0  0  0  0
  151.3516  143.4242  155.3724 H   0  0  0  0  0  0  0  0  0  0  0  0
  152.0451  143.6485  157.7464 H   0  0  0  0  0  0  0  0  0  0  0  0
  152.1580  141.6499  159.2189 H   0  0  0  0  0  0  0  0  0  0  0  0
  151.5822  139.4005  158.3177 H   0  0  0  0  0  0  0  0  0  0  0  0
  148.9705  135.2880  153.3267 H   0  0  0  0  0  0  0  0  0  0  0  0
  1  2  1  0  0  0  0
  1 23  1  0  0  0  0
  1 24  1  0  0  0  0
  1 25  1  0  0  0  0
  2  3  1  0  0  0  0
  2 10  1  0  0  0  0
  2 44  1  0  0  0  0
  3  4  1  0  0  0  0
  3 26  1  0  0  0  0
  3 27  1  0  0  0  0
  4  9  1  0  0  0  0
  4  5  2  0  0  0  0
  5  6  1  0  0  0  0
  5 28  1  0  0  0  0
  6  7  2  0  0  0  0
  6 29  1  0  0  0  0
  7  8  1  0  0  0  0
  7 30  1  0  0  0  0
  8  9  2  0  0  0  0
  8 31  1  0  0  0  0
  9 32  1  0  0  0  0
 10 11  1  0  0  0  0
 10 33  1  0  0  0  0
 10 34  1  0  0  0  0
 11 12  1  0  0  0  0
 11 13  1  0  0  0  0
 11 35  1  0  0  0  0
 12 36  1  0  0  0  0
 13 14  1  0  0  0  0
 13 37  1  0  0  0  0
 13 38  1  0  0  0  0
 14 22  1  0  0  0  0
 14 15  1  0  0  0  0
 15 16  2  0  0  0  0
 15 39  1  0  0  0  0
 16 17  1  0  0  0  0
 17 22  2  0  0  0  0
 17 18  1  0  0  0  0
 18 19  2  0  0  0  0
 18 40  1  0  0  0  0
 19 20  1  0  0  0  0
 19 41  1  0  0  0  0
 20 21  2  0  0  0  0
 20 42  1  0  0  0  0
 21 22  1  0  0  0  0
 21 43  1  0  0  0  0
M  CHG  1   2   1
M  END
> <s_m_source_file>
AV-unprocessed.smi

> <i_m_source_file_index>
1019

> <i_lp_mmshare_version>
43012

> <i_f3d_flags>
0

> <s_epik_input>
W2NIXTFbY0hdW2NIXVtjSF1bY0hdYzFbQ0gyXU4oW0NIM10pW0NIMl1bQ0BIXShbT0hdKVtDSDJdbihbY0hdbjIpYyhjMjMpW2NIXVtjSF1bY0hdW2NIXTM=

> <s_epik_cmdline>
J2VwaWtfcHl0aG9uJywgJy1waCcsICc3LjAnLCAnLXRuJywgJzgnLCAnLW1hJywgJzIwMCcsICctbWV0YWxfYmluZGluZycsICctaW1hZScsICc8aW5maWxlLm1hZT4nLCAnLW9tYWUnLCAnPG91dGZpbGUubWFlPic=

> <r_epik_Ionization_Penalty>
0.0996557

> <r_epik_Ionization_Penalty_Charging>
0.0475377

> <r_epik_Ionization_Penalty_Neutral>
0.0521179

> <r_epik_State_Penalty>
0.0851777

> <r_epik_Charging_Adjusted_Penalty>
0.132715

> <i_epik_Tot_Q>
1

> <i_epik_Tot_abs_Q>
1

> <r_epik_Metal_State_Penalty>
0.0423478

> <b_epik_Metal_Only>
0

> <s_lp_Force_Field>
OPLS_2005

> <r_lp_Energy>
17.6047

> <b_lp_Chiralities_Consistent>
1

> <s_lp_Variant>
AV-unprocessed.smi:1019-2

> <Gold.Version>
5.8.1

> <Gold.Id.Protein>
6NUR|6NUR_protein|mol2

> <Gold.PLP.Fitness>
53.9588

> <Gold.PLP.PLP>
-41.8726

> <Gold.PLP.part.hbond>
-4.1380

> <Gold.PLP.part.metal>
0.0000

> <Gold.PLP.part.buried>
-3.2991

> <Gold.PLP.part.nonpolar>
-34.0783

> <Gold.PLP.part.repulsive>
0.1240

> <Gold.PLP.ligand.clash>
0.0000

> <Gold.PLP.ligand.torsion>
1.3998

> <Gold.PLP.Chemscore.Hbond>
4.6400

> <Gold.PLP.Chemscore.CHOScore>
0.2245

> <Gold.PLP.Chemscore.Metal>
0.0000

> <Gold.Chemscore.Hbonds>
donor molecule, donor type, donor heavy atom, donor atom, acceptor molecule, acceptor atom, score
      L1  H     2    44       P1  7948  2.00
      L1  H    12    36       P1  7949  1.00
      P1  H  7989  7998       L1    16  0.08
      P1  H 10752 10765       L1    12  0.95
      L1  C    15    39       P1  7957  0.68

> <Gold.PLP.Chemscore.Internal.Correction>
0.2924

> <Gold.Rescore>
     Score         DG    S(hbond)    S(metal)    S(lipo)     H(rot)  DE(clash)    DE(int)     intcor
     17.50     -19.11       2.32        0.00     101.85       2.36       0.23       1.38       ----

> <Gold.Chemscore.Fitness>
17.5048

> <Gold.Chemscore.DG>
-19.1103

> <Gold.Chemscore.ZeroCoef>
-5.4800

> <Gold.Chemscore.Hbond>
2.3232

> <Gold.Chemscore.Metal>
0.0000

> <Gold.Chemscore.Lipo>
101.8511

> <Gold.Chemscore.Internal_Hbond>
0.0000

> <Gold.Chemscore.DEClash>
0.2289

> <Gold.Chemscore.DEInternal>
1.3766

> <Gold.Chemscore.Rot>
2.3616

> <Gold.Chemscore.Internal.Correction>
   9.000000E+99

> <Gold.Chemscore.Hbonds>
donor molecule, donor type, donor heavy atom, donor atom, acceptor molecule, acceptor atom, score
      L1  H     2    44       P1  7948  0.50
      L1  H    12    36       P1  7949  0.74
      P1  H  7989  7998       L1    16  0.01
      P1  H 10752 10765       L1    12  0.22

> <Gold.Chemscore.Hbond.Weighted>
-7.7594

> <Gold.Chemscore.Metal.Weighted>
-0.0000

> <Gold.Chemscore.Lipo.Weighted>
-11.9166

> <Gold.Chemscore.Internal_Hbond.Weighted>
0.0000

> <Gold.Chemscore.DEClash.Weighted>
0.2289

> <Gold.Chemscore.DEInternal.Weighted>
1.3766

> <Gold.Chemscore.Rot.Weighted>
6.0457

> <Gold.Chemscore.Internal.Correction.Weighted>
   9.000000E+99

> <Gold.Protein.RotatedTorsions>
[ 6907 6896 6895 6894 ] final  -78.94 input  -60.11 | X-H torsion
[ 7974 7965 7964 7962 ] final  -27.05 input  175.53 | X-H torsion
[ 8008 7997 7996 7995 ] final  -16.46 input   59.86 | X-H torsion
[ 10167 10162 10161 10158 ] final  101.82 input  -65.29 | X-H torsion
[ 10718 10713 10712 10709 ] final   22.08 input   66.30 | X-H torsion
[ 10763 10752 10751 10750 ] final  150.18 input  -60.55 | X-H torsion
[ 11005 11000 10999 10996 ] final  123.03 input  -57.11 | X-H torsion

> <Gold.Protein.ActiveResidues>
 VAL166  LYS551  ARG553  GLY616  TRP617  ASP618  TYR619  PRO620  LYS621  CYS622 
 ASP623  PHE694  ASN695  SER759  ASP760  ASP761  ALA762  ILE779  LEU786  VAL792 
 PHE793  MET794  SER795  GLU796  ALA797  LYS798  CYS799  TRP800  GLU811  SER814 

> <Gold.Protein.RotatedAtoms>
  150.6961  134.4196  159.5198 H   0  0  0  0  0  0  0  0  0  0  0  0  # atno 6907 bound_to 6896
  152.1941  134.8643  160.0524 H   0  0  0  0  0  0  0  0  0  0  0  0  # atno 6908 bound_to 6896
  151.9588  133.3654  159.4064 H   0  0  0  0  0  0  0  0  0  0  0  0  # atno 6909 bound_to 6896
  146.1384  140.5101  142.8663 H   0  0  0  0  0  0  0  0  0  0  0  0  # atno 7974 bound_to 7965
  154.5051  140.2169  155.9267 H   0  0  0  0  0  0  0  0  0  0  0  0  # atno 8008 bound_to 7997
  156.1483  140.3166  155.8573 H   0  0  0  0  0  0  0  0  0  0  0  0  # atno 8009 bound_to 7997
  155.3988  140.0483  157.3028 H   0  0  0  0  0  0  0  0  0  0  0  0  # atno 8010 bound_to 7997
  139.7404  144.7012  151.0583 H   0  0  0  0  0  0  0  0  0  0  0  0  # atno 10167 bound_to 10162
  157.1474  130.6659  149.6000 H   0  0  0  0  0  0  0  0  0  0  0  0  # atno 10718 bound_to 10713
  154.0833  135.2858  155.3286 H   0  0  0  0  0  0  0  0  0  0  0  0  # atno 10763 bound_to 10752
  154.6669  135.5314  153.8092 H   0  0  0  0  0  0  0  0  0  0  0  0  # atno 10764 bound_to 10752
  153.0441  135.6548  154.1006 H   0  0  0  0  0  0  0  0  0  0  0  0  # atno 10765 bound_to 10752
  139.9294  134.9641  156.8198 H   0  0  0  0  0  0  0  0  0  0  0  0  # atno 11005 bound_to 11000
  144.7765  140.5750  143.6635 LP  0  0  0  0  0  0  0  0  0  0  0  0  # atno 17320 bound_to 7965
  145.5104  139.1479  143.3608 LP  0  0  0  0  0  0  0  0  0  0  0  0  # atno 17321 bound_to 7965
  140.7785  143.4931  150.9868 LP  0  0  0  0  0  0  0  0  0  0  0  0  # atno 17342 bound_to 10162
  139.8619  143.7303  152.3173 LP  0  0  0  0  0  0  0  0  0  0  0  0  # atno 17343 bound_to 10162
  155.9777  130.4756  150.6609 LP  0  0  0  0  0  0  0  0  0  0  0  0  # atno 17370 bound_to 10713
  157.4252  131.0842  151.1093 LP  0  0  0  0  0  0  0  0  0  0  0  0  # atno 17371 bound_to 10713
  140.6244  133.9964  155.7633 LP  0  0  0  0  0  0  0  0  0  0  0  0  # atno 17394 bound_to 11000
  141.0873  133.9970  157.3292 LP  0  0  0  0  0  0  0  0  0  0  0  0  # atno 17395 bound_to 11000

$$$$
