AV-unprocessed.smi:203|AV-procd|sdf|1588|dock3
  -GOLD-   2262019483D 1   1.00000     0.00000
 Structure written by MMmdl.
 57 61  0  0  0  0  0  0  0  0  1 V2000
  145.9647  142.9170  154.7540 O   0  0  0  0  0  0  0  0  0  0  0  0
  146.7441  142.0497  155.1413 C   0  0  0  0  0  0  0  0  0  0  0  0
  148.0484  141.7197  154.4360 C   0  0  0  0  0  0  0  0  0  0  0  0
  148.7589  140.7618  155.4125 C   0  0  1  0  0  0  0  0  0  0  0  0
  150.0401  141.3632  156.0732 C   0  0  1  0  0  0  0  0  0  0  0  0
  149.7198  142.5101  157.0686 C   0  0  0  0  0  0  0  0  0  0  0  0
  150.9914  143.0810  157.7095 C   0  0  0  0  0  0  0  0  0  0  0  0
  151.7846  141.9564  158.3830 C   0  0  0  0  0  0  0  0  0  0  0  0
  152.0982  140.8469  157.3709 C   0  0  0  0  0  0  0  0  0  0  0  0
  150.8796  140.3472  156.7344 N   0  0  0  0  0  0  0  0  0  0  0  0
  151.1478  139.2346  156.0153 C   0  0  0  0  0  0  0  0  0  0  0  0
  151.8413  139.3956  154.8617 N   0  0  0  0  0  0  0  0  0  0  0  0
  152.1479  138.3309  154.1141 C   0  0  0  0  0  0  0  0  0  0  0  0
  151.8614  137.0456  154.3333 N   0  0  0  0  0  0  0  0  0  0  0  0
  151.1558  136.8843  155.4897 C   0  0  0  0  0  0  0  0  0  0  0  0
  150.7574  137.9164  156.3841 C   0  0  0  0  0  0  0  0  0  0  0  0
  150.0526  137.3740  157.4521 N   0  0  0  0  0  0  0  0  0  0  0  0
  150.0333  136.0931  157.2019 C   0  0  0  0  0  0  0  0  0  0  0  0
  150.6732  135.7124  156.0443 N   0  0  0  0  0  0  0  0  0  0  0  0
  150.7996  134.3614  155.5277 C   0  0  0  0  0  0  0  0  0  0  0  0
  151.3032  133.3696  156.5983 C   0  0  1  0  0  0  0  0  0  0  0  0
  150.2985  133.1227  157.5618 O   0  0  0  0  0  0  0  0  0  0  0  0
  151.7892  132.0178  156.0358 C   0  0  2  0  0  0  0  0  0  0  0  0
  150.7311  131.2477  155.2391 C   0  0  0  0  0  0  0  0  0  0  0  0
  151.0979  129.7845  155.4480 C   0  0  0  0  0  0  0  0  0  0  0  0
  152.2338  129.8225  156.4713 C   0  0  0  0  0  0  0  0  0  0  0  0
  152.1282  131.1047  157.0692 O   0  0  0  0  0  0  0  0  0  0  0  0
  147.6684  140.3446  156.4253 C   0  0  0  0  0  0  0  0  0  0  0  0
  146.5769  141.2744  156.2103 N   0  0  0  0  0  0  0  0  0  0  0  0
  147.8228  141.2216  153.4923 H   0  0  0  0  0  0  0  0  0  0  0  0
  148.6243  142.6175  154.2114 H   0  0  0  0  0  0  0  0  0  0  0  0
  149.0401  139.8830  154.8316 H   0  0  0  0  0  0  0  0  0  0  0  0
  150.6412  141.7980  155.2740 H   0  0  0  0  0  0  0  0  0  0  0  0
  149.1862  143.3191  156.5712 H   0  0  0  0  0  0  0  0  0  0  0  0
  149.0601  142.1527  157.8594 H   0  0  0  0  0  0  0  0  0  0  0  0
  151.6052  143.5635  156.9478 H   0  0  0  0  0  0  0  0  0  0  0  0
  150.7333  143.8494  158.4387 H   0  0  0  0  0  0  0  0  0  0  0  0
  152.7092  142.3492  158.8064 H   0  0  0  0  0  0  0  0  0  0  0  0
  151.2094  141.5451  159.2135 H   0  0  0  0  0  0  0  0  0  0  0  0
  152.7779  141.2286  156.6075 H   0  0  0  0  0  0  0  0  0  0  0  0
  152.6156  140.0303  157.8770 H   0  0  0  0  0  0  0  0  0  0  0  0
  152.7024  138.5384  153.2110 H   0  0  0  0  0  0  0  0  0  0  0  0
  149.5472  135.3855  157.8580 H   0  0  0  0  0  0  0  0  0  0  0  0
  149.8302  134.0499  155.1362 H   0  0  0  0  0  0  0  0  0  0  0  0
  151.4818  134.3878  154.6780 H   0  0  0  0  0  0  0  0  0  0  0  0
  152.1306  133.8275  157.1419 H   0  0  0  0  0  0  0  0  0  0  0  0
  150.2221  132.1880  157.6801 H   0  0  0  0  0  0  0  0  0  0  0  0
  152.6617  132.1658  155.3954 H   0  0  0  0  0  0  0  0  0  0  0  0
  149.7311  131.4308  155.6328 H   0  0  0  0  0  0  0  0  0  0  0  0
  150.7284  131.5321  154.1865 H   0  0  0  0  0  0  0  0  0  0  0  0
  150.2414  129.2329  155.8371 H   0  0  0  0  0  0  0  0  0  0  0  0
  151.4154  129.3023  154.5228 H   0  0  0  0  0  0  0  0  0  0  0  0
  152.1594  129.0274  157.2137 H   0  0  0  0  0  0  0  0  0  0  0  0
  153.2016  129.7367  155.9748 H   0  0  0  0  0  0  0  0  0  0  0  0
  147.3172  139.3323  156.2213 H   0  0  0  0  0  0  0  0  0  0  0  0
  148.0074  140.3722  157.4609 H   0  0  0  0  0  0  0  0  0  0  0  0
  145.7768  141.3239  156.8244 H   0  0  0  0  0  0  0  0  0  0  0  0
  1  2  2  0  0  0  0
  2 29  1  0  0  0  0
  2  3  1  0  0  0  0
  3  4  1  0  0  0  0
  3 30  1  0  0  0  0
  3 31  1  0  0  0  0
  4  5  1  0  0  0  0
  4 28  1  0  0  0  0
  4 32  1  0  0  0  0
  5 10  1  0  0  0  0
  5  6  1  0  0  0  0
  5 33  1  0  0  0  0
  6  7  1  0  0  0  0
  6 34  1  0  0  0  0
  6 35  1  0  0  0  0
  7  8  1  0  0  0  0
  7 36  1  0  0  0  0
  7 37  1  0  0  0  0
  8  9  1  0  0  0  0
  8 38  1  0  0  0  0
  8 39  1  0  0  0  0
  9 10  1  0  0  0  0
  9 40  1  0  0  0  0
  9 41  1  0  0  0  0
 10 11  1  0  0  0  0
 11 16  1  0  0  0  0
 11 12  2  0  0  0  0
 12 13  1  0  0  0  0
 13 14  2  0  0  0  0
 13 42  1  0  0  0  0
 14 15  1  0  0  0  0
 15 19  1  0  0  0  0
 15 16  2  0  0  0  0
 16 17  1  0  0  0  0
 17 18  2  0  0  0  0
 18 19  1  0  0  0  0
 18 43  1  0  0  0  0
 19 20  1  0  0  0  0
 20 21  1  0  0  0  0
 20 44  1  0  0  0  0
 20 45  1  0  0  0  0
 21 22  1  0  0  0  0
 21 23  1  0  0  0  0
 21 46  1  0  0  0  0
 22 47  1  0  0  0  0
 23 27  1  0  0  0  0
 23 24  1  0  0  0  0
 23 48  1  0  0  0  0
 24 25  1  0  0  0  0
 24 49  1  0  0  0  0
 24 50  1  0  0  0  0
 25 26  1  0  0  0  0
 25 51  1  0  0  0  0
 25 52  1  0  0  0  0
 26 27  1  0  0  0  0
 26 53  1  0  0  0  0
 26 54  1  0  0  0  0
 28 29  1  0  0  0  0
 28 55  1  0  0  0  0
 28 56  1  0  0  0  0
 29 57  1  0  0  0  0
M  END
> <s_m_source_file>
AV-unprocessed.smi

> <i_m_source_file_index>
203

> <i_lp_mmshare_version>
43012

> <i_f3d_flags>
0

> <s_epik_input>
Tz1DMVtDSDJdW0NASF0oW0NIMl1bTkhdMSlbQ0BASF0yW0NIMl1bQ0gyXVtDSDJdW0NIMl1OMmMobltjSF1uMyljKGMzNCluW2NIXW40W0NIMl1bQ0BIXShbT0hdKVtDQEBIXTVbQ0gyXVtDSDJdW0NIMl1PNQ==

> <s_epik_cmdline>
J2VwaWtfcHl0aG9uJywgJy1waCcsICc3LjAnLCAnLXRuJywgJzgnLCAnLW1hJywgJzIwMCcsICctbWV0YWxfYmluZGluZycsICctaW1hZScsICc8aW5maWxlLm1hZT4nLCAnLW9tYWUnLCAnPG91dGZpbGUubWFlPic=

> <r_lp_tautomer_probability>
1

> <r_epik_Ionization_Penalty>
0.00175146

> <r_epik_Ionization_Penalty_Charging>
0

> <r_epik_Ionization_Penalty_Neutral>
0.00175146

> <r_epik_State_Penalty>
0.00109045

> <r_epik_Charging_Adjusted_Penalty>
0.00109045

> <i_epik_Tot_Q>
0

> <i_epik_Tot_abs_Q>
0

> <r_epik_Metal_State_Penalty>
-0

> <b_epik_Metal_Only>
0

> <s_lp_Force_Field>
OPLS_2005

> <r_lp_Energy>
57.1274

> <b_lp_Chiralities_Consistent>
1

> <s_lp_Variant>
AV-unprocessed.smi:203-7

> <Gold.Version>
5.8.1

> <Gold.Id.Protein>
6NUR|6NUR_protein|mol2

> <Gold.PLP.Fitness>
43.4397

> <Gold.PLP.PLP>
-35.1320

> <Gold.PLP.part.hbond>
-3.0000

> <Gold.PLP.part.metal>
0.0000

> <Gold.PLP.part.buried>
-5.0357

> <Gold.PLP.part.nonpolar>
-27.5539

> <Gold.PLP.part.repulsive>
0.6770

> <Gold.PLP.ligand.clash>
0.0000

> <Gold.PLP.ligand.torsion>
0.4927

> <Gold.PLP.Chemscore.Hbond>
3.0000

> <Gold.PLP.Chemscore.CHOScore>
0.0000

> <Gold.PLP.Chemscore.Metal>
0.0000

> <Gold.Chemscore.Hbonds>
donor molecule, donor type, donor heavy atom, donor atom, acceptor molecule, acceptor atom, score
      P1  H  6896  6908       L1    22  1.00
      P1  H  7989  7998       L1    12  1.00
      P1  H 10752 10764       L1    14  1.00

> <Gold.PLP.Chemscore.Internal.Correction>
0.2930

> <Gold.Rescore>
     Score         DG    S(hbond)    S(metal)    S(lipo)     H(rot)  DE(clash)    DE(int)     intcor
     11.31     -12.82       1.56        0.00      77.69       2.72       0.18       1.33       ----

> <Gold.Chemscore.Fitness>
11.3144

> <Gold.Chemscore.DG>
-12.8216

> <Gold.Chemscore.ZeroCoef>
-5.4800

> <Gold.Chemscore.Hbond>
1.5592

> <Gold.Chemscore.Metal>
0.0000

> <Gold.Chemscore.Lipo>
77.6888

> <Gold.Chemscore.Internal_Hbond>
0.0000

> <Gold.Chemscore.DEClash>
0.1777

> <Gold.Chemscore.DEInternal>
1.3295

> <Gold.Chemscore.Rot>
2.7171

> <Gold.Chemscore.Internal.Correction>
   9.000000E+99

> <Gold.Chemscore.Hbonds>
donor molecule, donor type, donor heavy atom, donor atom, acceptor molecule, acceptor atom, score
      P1  H  6896  6908       L1    22  0.17
      P1  H  7989  7998       L1    12  0.36
      P1  H 10752 10764       L1    14  0.34

> <Gold.Chemscore.Hbond.Weighted>
-5.2077

> <Gold.Chemscore.Metal.Weighted>
-0.0000

> <Gold.Chemscore.Lipo.Weighted>
-9.0896

> <Gold.Chemscore.Internal_Hbond.Weighted>
0.0000

> <Gold.Chemscore.DEClash.Weighted>
0.1777

> <Gold.Chemscore.DEInternal.Weighted>
1.3295

> <Gold.Chemscore.Rot.Weighted>
6.9557

> <Gold.Chemscore.Internal.Correction.Weighted>
   9.000000E+99

> <Gold.Protein.RotatedTorsions>
[ 6907 6896 6895 6894 ] final  104.57 input  -60.11 | X-H torsion
[ 7974 7965 7964 7962 ] final -161.91 input  175.53 | X-H torsion
[ 8008 7997 7996 7995 ] final  152.31 input   59.86 | X-H torsion
[ 10167 10162 10161 10158 ] final  128.35 input  -65.29 | X-H torsion
[ 10718 10713 10712 10709 ] final -153.28 input   66.30 | X-H torsion
[ 10763 10752 10751 10750 ] final  -72.66 input  -60.55 | X-H torsion
[ 11005 11000 10999 10996 ] final  116.97 input  -57.11 | X-H torsion

> <Gold.Protein.ActiveResidues>
 VAL166  LYS551  ARG553  GLY616  TRP617  ASP618  TYR619  PRO620  LYS621  CYS622 
 ASP623  PHE694  ASN695  SER759  ASP760  ASP761  ALA762  ILE779  LEU786  VAL792 
 PHE793  MET794  SER795  GLU796  ALA797  LYS798  CYS799  TRP800  GLU811  SER814 

> <Gold.Protein.RotatedAtoms>
  152.5260  133.9658  159.7738 H   0  0  0  0  0  0  0  0  0  0  0  0  # atno 6907 bound_to 6896
  150.9939  133.6114  159.2711 H   0  0  0  0  0  0  0  0  0  0  0  0  # atno 6908 bound_to 6896
  151.3247  135.0833  159.9371 H   0  0  0  0  0  0  0  0  0  0  0  0  # atno 6909 bound_to 6896
  144.7375  140.3329  143.6149 H   0  0  0  0  0  0  0  0  0  0  0  0  # atno 7974 bound_to 7965
  156.2635  140.2024  156.6313 H   0  0  0  0  0  0  0  0  0  0  0  0  # atno 8008 bound_to 7997
  154.6680  140.0553  157.0159 H   0  0  0  0  0  0  0  0  0  0  0  0  # atno 8009 bound_to 7997
  155.1178  140.3222  155.4508 H   0  0  0  0  0  0  0  0  0  0  0  0  # atno 8010 bound_to 7997
  139.5531  144.6829  151.4262 H   0  0  0  0  0  0  0  0  0  0  0  0  # atno 10167 bound_to 10162
  156.4838  130.8315  151.2541 H   0  0  0  0  0  0  0  0  0  0  0  0  # atno 10718 bound_to 10713
  154.4488  135.5922  153.6177 H   0  0  0  0  0  0  0  0  0  0  0  0  # atno 10763 bound_to 10752
  152.9811  135.6016  154.3631 H   0  0  0  0  0  0  0  0  0  0  0  0  # atno 10764 bound_to 10752
  154.3490  135.2841  155.2361 H   0  0  0  0  0  0  0  0  0  0  0  0  # atno 10765 bound_to 10752
  139.9058  134.9604  156.7279 H   0  0  0  0  0  0  0  0  0  0  0  0  # atno 11005 bound_to 11000
  145.7453  139.1777  143.2352 LP  0  0  0  0  0  0  0  0  0  0  0  0  # atno 17320 bound_to 7965
  146.1103  140.7437  142.9506 LP  0  0  0  0  0  0  0  0  0  0  0  0  # atno 17321 bound_to 7965
  140.6799  143.8106  150.7107 LP  0  0  0  0  0  0  0  0  0  0  0  0  # atno 17342 bound_to 10162
  140.1556  143.4320  152.2102 LP  0  0  0  0  0  0  0  0  0  0  0  0  # atno 17343 bound_to 10162
  157.7481  131.0036  150.3045 LP  0  0  0  0  0  0  0  0  0  0  0  0  # atno 17370 bound_to 10713
  156.3495  130.3828  149.7341 LP  0  0  0  0  0  0  0  0  0  0  0  0  # atno 17371 bound_to 10713
  140.6949  133.9358  155.7988 LP  0  0  0  0  0  0  0  0  0  0  0  0  # atno 17394 bound_to 11000
  141.0415  134.0615  157.3896 LP  0  0  0  0  0  0  0  0  0  0  0  0  # atno 17395 bound_to 11000

$$$$
