AV-unprocessed.smi:3237|AV-procd|sdf|12371|dock5
  -GOLD-   2272018233D 1   1.00000     0.00000
 Structure written by MMmdl.
 36 38  0  0  0  0  0  0  0  0  3 V2000
  152.3340  143.6060  160.9610 C   0  0  0  0  0  0  0  0  0  0  0  0
  152.2321  142.6450  159.8266 C   0  0  0  0  0  0  0  0  0  0  0  0
  151.5504  142.6733  158.6427 C   0  0  0  0  0  0  0  0  0  0  0  0
  151.9015  141.4359  158.0402 C   0  0  0  0  0  0  0  0  0  0  0  0
  151.3846  141.0794  156.7667 N   0  0  0  0  0  0  0  0  0  0  0  0
  151.7469  140.0619  155.9644 C   0  0  0  0  0  0  0  0  0  0  0  0
  152.6391  139.2789  156.3111 O   0  0  0  0  0  0  0  0  0  0  0  0
  151.0307  140.0395  154.8065 N   0  5  0  0  0  0  0  0  0  0  0  0
  150.2011  138.9194  154.3603 C   0  0  2  0  0  0  0  0  0  0  0  0
  149.0364  138.6448  155.3149 C   0  0  0  0  0  0  0  0  0  0  0  0
  148.7447  137.1477  155.1392 C   0  0  0  0  0  0  0  0  0  0  0  0
  149.9237  136.5608  154.4594 N   0  3  2  0  0  0  0  0  0  0  0  0
  150.3789  135.2737  155.0279 C   0  0  0  0  0  0  0  0  0  0  0  0
  149.7265  134.0685  154.3939 C   0  0  0  0  0  0  0  0  0  0  0  0
  149.2982  134.5264  155.7717 C   0  0  0  0  0  0  0  0  0  0  0  0
  150.9700  137.6007  154.4058 C   0  0  0  0  0  0  0  0  0  0  0  0
  152.7262  140.7186  158.7891 N   0  0  0  0  0  0  0  0  0  0  0  0
  152.9420  141.4897  159.9375 O   0  0  0  0  0  0  0  0  0  0  0  0
  151.5565  144.3674  160.8970 H   0  0  0  0  0  0  0  0  0  0  0  0
  153.3011  144.1084  160.9542 H   0  0  0  0  0  0  0  0  0  0  0  0
  152.2251  143.0918  161.9160 H   0  0  0  0  0  0  0  0  0  0  0  0
  150.9044  143.4540  158.2696 H   0  0  0  0  0  0  0  0  0  0  0  0
  150.6440  141.6693  156.4173 H   0  0  0  0  0  0  0  0  0  0  0  0
  149.8099  139.0566  153.3506 H   0  0  0  0  0  0  0  0  0  0  0  0
  149.3344  138.8333  156.3482 H   0  0  0  0  0  0  0  0  0  0  0  0
  148.1671  139.2688  155.1032 H   0  0  0  0  0  0  0  0  0  0  0  0
  148.5570  136.6790  156.1068 H   0  0  0  0  0  0  0  0  0  0  0  0
  147.8619  136.9831  154.5191 H   0  0  0  0  0  0  0  0  0  0  0  0
  151.4136  135.2302  155.3638 H   0  0  0  0  0  0  0  0  0  0  0  0
  149.0327  134.2316  153.5710 H   0  0  0  0  0  0  0  0  0  0  0  0
  150.3138  133.1545  154.3319 H   0  0  0  0  0  0  0  0  0  0  0  0
  149.6028  133.9132  156.6172 H   0  0  0  0  0  0  0  0  0  0  0  0
  148.3199  134.9948  155.8648 H   0  0  0  0  0  0  0  0  0  0  0  0
  151.6236  137.4663  153.5436 H   0  0  0  0  0  0  0  0  0  0  0  0
  151.5831  137.5455  155.3079 H   0  0  0  0  0  0  0  0  0  0  0  0
  149.6438  136.3953  153.5034 H   0  0  0  0  0  0  0  0  0  0  0  0
  1  2  1  0  0  0  0
  1 19  1  0  0  0  0
  1 20  1  0  0  0  0
  1 21  1  0  0  0  0
  2 18  1  0  0  0  0
  2  3  2  0  0  0  0
  3  4  1  0  0  0  0
  3 22  1  0  0  0  0
  4  5  1  0  0  0  0
  4 17  2  0  0  0  0
  5  6  1  0  0  0  0
  5 23  1  0  0  0  0
  6  7  2  0  0  0  0
  6  8  1  0  0  0  0
  8  9  1  0  0  0  0
  9 16  1  0  0  0  0
  9 10  1  0  0  0  0
  9 24  1  0  0  0  0
 10 11  1  0  0  0  0
 10 25  1  0  0  0  0
 10 26  1  0  0  0  0
 11 12  1  0  0  0  0
 11 27  1  0  0  0  0
 11 28  1  0  0  0  0
 12 13  1  0  0  0  0
 12 16  1  0  0  0  0
 12 36  1  0  0  0  0
 13 15  1  0  0  0  0
 13 14  1  0  0  0  0
 13 29  1  0  0  0  0
 14 15  1  0  0  0  0
 14 30  1  0  0  0  0
 14 31  1  0  0  0  0
 15 32  1  0  0  0  0
 15 33  1  0  0  0  0
 16 34  1  0  0  0  0
 16 35  1  0  0  0  0
 17 18  1  0  0  0  0
M  CHG  1   8  -1
M  CHG  1  12   1
M  END
> <s_m_source_file>
AV-unprocessed.smi

> <i_m_source_file_index>
3237

> <i_lp_mmshare_version>
43012

> <i_f3d_flags>
0

> <s_epik_input>
W0NIM11jMVtjSF1jKG5vMSlbTkhdQyg9TylbTkhdW0NAQEhdMltDSDJdW0NIMl1OKFtDSDJdMilbQ0hdM1tDSDJdW0NIMl0z

> <s_epik_cmdline>
J2VwaWtfcHl0aG9uJywgJy1waCcsICc3LjAnLCAnLXRuJywgJzgnLCAnLW1hJywgJzIwMCcsICctbWV0YWxfYmluZGluZycsICctaW1hZScsICc8aW5maWxlLm1hZT4nLCAnLW9tYWUnLCAnPG91dGZpbGUubWFlPic=

> <r_epik_Ionization_Penalty>
6.76456

> <r_epik_Ionization_Penalty_Charging>
6.76456

> <r_epik_Ionization_Penalty_Neutral>
5.76722e-06

> <r_epik_State_Penalty>
6.78919

> <r_epik_Charging_Adjusted_Penalty>
13.5538

> <i_epik_Tot_Q>
0

> <i_epik_Tot_abs_Q>
2

> <r_epik_Metal_State_Penalty>
2.728

> <b_epik_Metal_Only>
1

> <s_lp_Force_Field>
OPLS_2005

> <r_lp_Energy>
30.701

> <b_lp_Chiralities_Consistent>
1

> <s_lp_Variant>
AV-unprocessed.smi:3237-9

> <Gold.Version>
5.8.1

> <Gold.Id.Protein>
6NUR|6NUR_protein|mol2

> <Gold.PLP.Fitness>
42.5422

> <Gold.PLP.PLP>
-32.2353

> <Gold.PLP.part.hbond>
-3.2723

> <Gold.PLP.part.metal>
0.0000

> <Gold.PLP.part.buried>
-6.7379

> <Gold.PLP.part.nonpolar>
-23.7857

> <Gold.PLP.part.repulsive>
0.2208

> <Gold.PLP.ligand.clash>
0.0000

> <Gold.PLP.ligand.torsion>
1.4935

> <Gold.PLP.Chemscore.Hbond>
4.0000

> <Gold.PLP.Chemscore.CHOScore>
0.0000

> <Gold.PLP.Chemscore.Metal>
0.0000

> <Gold.Chemscore.Hbonds>
donor molecule, donor type, donor heavy atom, donor atom, acceptor molecule, acceptor atom, score
      L1  H    12    36       P1  7948  2.00
      P1  H  7989  7998       L1     8  1.00
      P1  H  7997  8009       L1     7  1.00

> <Gold.PLP.Chemscore.Internal.Correction>
1.2939

> <Gold.Rescore>
     Score         DG    S(hbond)    S(metal)    S(lipo)     H(rot)  DE(clash)    DE(int)     intcor
     15.35     -18.89       2.58        0.00      68.11       1.25       0.02       3.52       ----

> <Gold.Chemscore.Fitness>
15.3535

> <Gold.Chemscore.DG>
-18.8880

> <Gold.Chemscore.ZeroCoef>
-5.4800

> <Gold.Chemscore.Hbond>
2.5838

> <Gold.Chemscore.Metal>
0.0000

> <Gold.Chemscore.Lipo>
68.1097

> <Gold.Chemscore.Internal_Hbond>
0.0000

> <Gold.Chemscore.DEClash>
0.0174

> <Gold.Chemscore.DEInternal>
3.5172

> <Gold.Chemscore.Rot>
1.2464

> <Gold.Chemscore.Internal.Correction>
   9.000000E+99

> <Gold.Chemscore.Hbonds>
donor molecule, donor type, donor heavy atom, donor atom, acceptor molecule, acceptor atom, score
      L1  H    12    36       P1  7948  0.45
      P1  H  7989  7998       L1     8  0.71
      P1  H  7997  8009       L1     7  0.85

> <Gold.Chemscore.Hbond.Weighted>
-8.6300

> <Gold.Chemscore.Metal.Weighted>
-0.0000

> <Gold.Chemscore.Lipo.Weighted>
-7.9688

> <Gold.Chemscore.Internal_Hbond.Weighted>
0.0000

> <Gold.Chemscore.DEClash.Weighted>
0.0174

> <Gold.Chemscore.DEInternal.Weighted>
3.5172

> <Gold.Chemscore.Rot.Weighted>
3.1909

> <Gold.Chemscore.Internal.Correction.Weighted>
   9.000000E+99

> <Gold.Protein.RotatedTorsions>
[ 6907 6896 6895 6894 ] final   11.88 input  -60.11 | X-H torsion
[ 7974 7965 7964 7962 ] final  -41.33 input  175.53 | X-H torsion
[ 8008 7997 7996 7995 ] final -167.09 input   59.86 | X-H torsion
[ 10167 10162 10161 10158 ] final  -46.33 input  -65.29 | X-H torsion
[ 10718 10713 10712 10709 ] final  -69.77 input   66.30 | X-H torsion
[ 10763 10752 10751 10750 ] final   60.46 input  -60.55 | X-H torsion
[ 11005 11000 10999 10996 ] final  -96.81 input  -57.11 | X-H torsion

> <Gold.Protein.ActiveResidues>
 VAL166  LYS551  ARG553  GLY616  TRP617  ASP618  TYR619  PRO620  LYS621  CYS622 
 ASP623  PHE694  ASN695  SER759  ASP760  ASP761  ALA762  ILE779  LEU786  VAL792 
 PHE793  MET794  SER795  GLU796  ALA797  LYS798  CYS799  TRP800  GLU811  SER814 

> <Gold.Protein.RotatedAtoms>
  151.7614  135.0809  160.0345 H   0  0  0  0  0  0  0  0  0  0  0  0  # atno 6907 bound_to 6896
  152.3351  133.5998  159.5845 H   0  0  0  0  0  0  0  0  0  0  0  0  # atno 6908 bound_to 6896
  150.7445  133.9725  159.3592 H   0  0  0  0  0  0  0  0  0  0  0  0  # atno 6909 bound_to 6896
  146.0221  140.6837  142.9173 H   0  0  0  0  0  0  0  0  0  0  0  0  # atno 7974 bound_to 7965
  155.8729  140.0996  157.1538 H   0  0  0  0  0  0  0  0  0  0  0  0  # atno 8008 bound_to 7997
  154.3998  140.1343  156.4163 H   0  0  0  0  0  0  0  0  0  0  0  0  # atno 8009 bound_to 7997
  155.7730  140.3460  155.5259 H   0  0  0  0  0  0  0  0  0  0  0  0  # atno 8010 bound_to 7997
  140.6821  143.2836  151.3768 H   0  0  0  0  0  0  0  0  0  0  0  0  # atno 10167 bound_to 10162
  156.0439  130.4319  150.2196 H   0  0  0  0  0  0  0  0  0  0  0  0  # atno 10718 bound_to 10713
  152.9922  135.5535  154.5878 H   0  0  0  0  0  0  0  0  0  0  0  0  # atno 10763 bound_to 10752
  154.5246  135.2810  155.1235 H   0  0  0  0  0  0  0  0  0  0  0  0  # atno 10764 bound_to 10752
  154.2575  135.6387  153.5315 H   0  0  0  0  0  0  0  0  0  0  0  0  # atno 10765 bound_to 10752
  141.1399  133.8124  157.0621 H   0  0  0  0  0  0  0  0  0  0  0  0  # atno 11005 bound_to 11000
  144.6994  140.3585  143.7168 LP  0  0  0  0  0  0  0  0  0  0  0  0  # atno 17320 bound_to 7965
  145.7176  139.1701  143.2503 LP  0  0  0  0  0  0  0  0  0  0  0  0  # atno 17321 bound_to 7965
  139.6152  144.1017  152.2338 LP  0  0  0  0  0  0  0  0  0  0  0  0  # atno 17342 bound_to 10162
  140.0444  144.5982  150.7385 LP  0  0  0  0  0  0  0  0  0  0  0  0  # atno 17343 bound_to 10162
  157.0288  131.0001  151.3318 LP  0  0  0  0  0  0  0  0  0  0  0  0  # atno 17370 bound_to 10713
  157.5292  130.8047  149.7897 LP  0  0  0  0  0  0  0  0  0  0  0  0  # atno 17371 bound_to 10713
  140.0565  134.9778  157.1229 LP  0  0  0  0  0  0  0  0  0  0  0  0  # atno 17394 bound_to 11000
  140.3912  134.2182  155.7166 LP  0  0  0  0  0  0  0  0  0  0  0  0  # atno 17395 bound_to 11000

$$$$
