AV-unprocessed.smi:19|AV-procd|sdf|110|dock1
  -GOLD-   2262015273D 1   1.00000     0.00000
 Structure written by MMmdl.
 57 60  0  0  0  0  0  0  0  0  1 V2000
  154.9906  141.0022  159.8615 C   0  0  0  0  0  0  0  0  0  0  0  0
  154.5034  139.9410  159.0593 O   0  0  0  0  0  0  0  0  0  0  0  0
  153.0872  139.8685  159.0568 C   0  0  0  0  0  0  0  0  0  0  0  0
  152.5251  141.0304  158.2279 C   0  0  1  0  0  0  0  0  0  0  0  0
  151.0899  140.7462  157.7460 C   0  0  0  0  0  0  0  0  0  0  0  0
  150.5474  141.9132  157.0578 N   0  0  0  0  0  0  0  0  0  0  0  0
  149.4094  141.6842  156.3536 C   0  0  0  0  0  0  0  0  0  0  0  0
  149.4756  141.4313  155.0187 N   0  0  0  0  0  0  0  0  0  0  0  0
  148.3602  141.2190  154.3147 C   0  0  0  0  0  0  0  0  0  0  0  0
  147.0957  141.2077  154.7392 N   0  0  0  0  0  0  0  0  0  0  0  0
  147.0203  141.4457  156.0796 C   0  0  0  0  0  0  0  0  0  0  0  0
  148.1174  141.6954  156.9527 C   0  0  0  0  0  0  0  0  0  0  0  0
  147.6534  141.8923  158.2479 N   0  0  0  0  0  0  0  0  0  0  0  0
  146.3579  141.7800  158.1435 C   0  0  0  0  0  0  0  0  0  0  0  0
  145.8907  141.4943  156.8799 N   0  0  0  0  0  0  0  0  0  0  0  0
  144.4989  141.3180  156.4856 C   0  0  0  0  0  0  0  0  0  0  0  0
  143.6904  142.6389  156.3129 C   0  0  0  0  0  0  0  0  0  0  0  0
  142.1889  142.3313  156.0485 C   0  0  0  0  0  0  0  0  0  0  0  0
  141.9925  141.6186  154.8440 O   0  0  0  0  0  0  0  0  0  0  0  0
  143.8224  143.5120  157.5874 C   0  0  0  0  0  0  0  0  0  0  0  0
  143.3359  144.9595  157.3848 C   0  0  0  0  0  0  0  0  0  0  0  0
  144.0179  145.5594  156.2918 O   0  0  0  0  0  0  0  0  0  0  0  0
  143.7843  144.8872  155.0616 C   0  0  0  0  0  0  0  0  0  0  0  0
  144.3161  143.4460  155.1473 C   0  0  0  0  0  0  0  0  0  0  0  0
  150.6271  143.1340  157.8557 C   0  0  0  0  0  0  0  0  0  0  0  0
  152.0699  143.3556  158.3446 C   0  0  1  0  0  0  0  0  0  0  0  0
  152.1807  144.5597  159.2857 C   0  0  0  0  0  0  0  0  0  0  0  0
  152.5027  142.1955  159.0496 O   0  0  0  0  0  0  0  0  0  0  0  0
  156.0801  141.0122  159.8334 H   0  0  0  0  0  0  0  0  0  0  0  0
  154.6813  140.8856  160.9011 H   0  0  0  0  0  0  0  0  0  0  0  0
  154.6355  141.9668  159.4967 H   0  0  0  0  0  0  0  0  0  0  0  0
  152.7830  138.9184  158.6144 H   0  0  0  0  0  0  0  0  0  0  0  0
  152.6924  139.8983  160.0737 H   0  0  0  0  0  0  0  0  0  0  0  0
  153.1713  141.1968  157.3640 H   0  0  0  0  0  0  0  0  0  0  0  0
  151.0921  139.8689  157.1004 H   0  0  0  0  0  0  0  0  0  0  0  0
  150.4488  140.5102  158.5966 H   0  0  0  0  0  0  0  0  0  0  0  0
  148.5009  141.0323  153.2602 H   0  0  0  0  0  0  0  0  0  0  0  0
  145.7031  141.8954  158.9949 H   0  0  0  0  0  0  0  0  0  0  0  0
  144.4954  140.7543  155.5516 H   0  0  0  0  0  0  0  0  0  0  0  0
  144.0165  140.6692  157.2176 H   0  0  0  0  0  0  0  0  0  0  0  0
  141.7612  141.7524  156.8672 H   0  0  0  0  0  0  0  0  0  0  0  0
  141.5957  143.2418  155.9858 H   0  0  0  0  0  0  0  0  0  0  0  0
  142.3915  142.1045  154.1386 H   0  0  0  0  0  0  0  0  0  0  0  0
  143.2764  143.0651  158.4184 H   0  0  0  0  0  0  0  0  0  0  0  0
  144.8685  143.5482  157.8944 H   0  0  0  0  0  0  0  0  0  0  0  0
  142.2583  145.0041  157.2262 H   0  0  0  0  0  0  0  0  0  0  0  0
  143.5392  145.5443  158.2820 H   0  0  0  0  0  0  0  0  0  0  0  0
  142.7235  144.9107  154.8099 H   0  0  0  0  0  0  0  0  0  0  0  0
  144.3038  145.4258  154.2689 H   0  0  0  0  0  0  0  0  0  0  0  0
  145.3973  143.4974  155.2823 H   0  0  0  0  0  0  0  0  0  0  0  0
  144.1626  142.9373  154.1954 H   0  0  0  0  0  0  0  0  0  0  0  0
  150.3045  143.9903  157.2618 H   0  0  0  0  0  0  0  0  0  0  0  0
  149.9515  143.0540  158.7087 H   0  0  0  0  0  0  0  0  0  0  0  0
  152.7272  143.5207  157.4890 H   0  0  0  0  0  0  0  0  0  0  0  0
  151.8691  145.4775  158.7867 H   0  0  0  0  0  0  0  0  0  0  0  0
  153.2082  144.6965  159.6232 H   0  0  0  0  0  0  0  0  0  0  0  0
  151.5543  144.4293  160.1686 H   0  0  0  0  0  0  0  0  0  0  0  0
  1  2  1  0  0  0  0
  1 29  1  0  0  0  0
  1 30  1  0  0  0  0
  1 31  1  0  0  0  0
  2  3  1  0  0  0  0
  3  4  1  0  0  0  0
  3 32  1  0  0  0  0
  3 33  1  0  0  0  0
  4 28  1  0  0  0  0
  4  5  1  0  0  0  0
  4 34  1  0  0  0  0
  5  6  1  0  0  0  0
  5 35  1  0  0  0  0
  5 36  1  0  0  0  0
  6  7  1  0  0  0  0
  6 25  1  0  0  0  0
  7 12  1  0  0  0  0
  7  8  2  0  0  0  0
  8  9  1  0  0  0  0
  9 10  2  0  0  0  0
  9 37  1  0  0  0  0
 10 11  1  0  0  0  0
 11 15  1  0  0  0  0
 11 12  2  0  0  0  0
 12 13  1  0  0  0  0
 13 14  2  0  0  0  0
 14 15  1  0  0  0  0
 14 38  1  0  0  0  0
 15 16  1  0  0  0  0
 16 17  1  0  0  0  0
 16 39  1  0  0  0  0
 16 40  1  0  0  0  0
 17 24  1  0  0  0  0
 17 18  1  0  0  0  0
 17 20  1  0  0  0  0
 18 19  1  0  0  0  0
 18 41  1  0  0  0  0
 18 42  1  0  0  0  0
 19 43  1  0  0  0  0
 20 21  1  0  0  0  0
 20 44  1  0  0  0  0
 20 45  1  0  0  0  0
 21 22  1  0  0  0  0
 21 46  1  0  0  0  0
 21 47  1  0  0  0  0
 22 23  1  0  0  0  0
 23 24  1  0  0  0  0
 23 48  1  0  0  0  0
 23 49  1  0  0  0  0
 24 50  1  0  0  0  0
 24 51  1  0  0  0  0
 25 26  1  0  0  0  0
 25 52  1  0  0  0  0
 25 53  1  0  0  0  0
 26 27  1  0  0  0  0
 26 28  1  0  0  0  0
 26 54  1  0  0  0  0
 27 55  1  0  0  0  0
 27 56  1  0  0  0  0
 27 57  1  0  0  0  0
M  END
> <s_m_source_file>
AV-unprocessed.smi

> <i_m_source_file_index>
19

> <i_lp_mmshare_version>
43012

> <i_f3d_flags>
0

> <s_epik_input>
W0NIM11PW0NIMl1bQ0BASF0xW0NIMl1OKFtDSDJdW0NASF0oTzEpW0NIM10pYyhuW2NIXW4yKWMoYzIzKW5bY0hdbjNbQ0gyXUM0KFtDSDJdW09IXSlbQ0gyXVtDSDJdT1tDSDJdW0NIMl00

> <s_epik_cmdline>
J2VwaWtfcHl0aG9uJywgJy1waCcsICc3LjAnLCAnLXRuJywgJzgnLCAnLW1hJywgJzIwMCcsICctbWV0YWxfYmluZGluZycsICctaW1hZScsICc8aW5maWxlLm1hZT4nLCAnLW9tYWUnLCAnPG91dGZpbGUubWFlPic=

> <r_lp_tautomer_probability>
1

> <r_epik_Ionization_Penalty>
6.20357e-05

> <r_epik_Ionization_Penalty_Charging>
0

> <r_epik_Ionization_Penalty_Neutral>
6.20357e-05

> <r_epik_State_Penalty>
-0

> <r_epik_Charging_Adjusted_Penalty>
0

> <i_epik_Tot_Q>
0

> <i_epik_Tot_abs_Q>
0

> <r_epik_Metal_State_Penalty>
-0

> <b_epik_Metal_Only>
0

> <s_lp_Force_Field>
OPLS_2005

> <r_lp_Energy>
35.6446

> <b_lp_Chiralities_Consistent>
1

> <s_lp_Variant>
AV-unprocessed.smi:19-2

> <Gold.Version>
5.8.1

> <Gold.Id.Protein>
6NUR|6NUR_protein|mol2

> <Gold.PLP.Fitness>
44.5830

> <Gold.PLP.PLP>
-36.9282

> <Gold.PLP.part.hbond>
-3.0082

> <Gold.PLP.part.metal>
0.0000

> <Gold.PLP.part.buried>
-5.1718

> <Gold.PLP.part.nonpolar>
-28.7480

> <Gold.PLP.part.repulsive>
0.5103

> <Gold.PLP.ligand.clash>
0.0000

> <Gold.PLP.ligand.torsion>
0.9232

> <Gold.PLP.Chemscore.Hbond>
1.9920

> <Gold.PLP.Chemscore.CHOScore>
1.0000

> <Gold.PLP.Chemscore.Metal>
0.0000

> <Gold.Chemscore.Hbonds>
donor molecule, donor type, donor heavy atom, donor atom, acceptor molecule, acceptor atom, score
      L1  H    19    43       P1 10174  0.98
      P1  H  7997  8008       L1     2  1.00
      L1  C     9    37       P1  7957  0.91

> <Gold.PLP.Chemscore.Internal.Correction>
0.5251

> <Gold.Rescore>
     Score         DG    S(hbond)    S(metal)    S(lipo)     H(rot)  DE(clash)    DE(int)     intcor
     11.63     -13.19       1.53        0.00      85.06       2.87       0.29       1.27       ----

> <Gold.Chemscore.Fitness>
11.6294

> <Gold.Chemscore.DG>
-13.1921

> <Gold.Chemscore.ZeroCoef>
-5.4800

> <Gold.Chemscore.Hbond>
1.5312

> <Gold.Chemscore.Metal>
0.0000

> <Gold.Chemscore.Lipo>
85.0631

> <Gold.Chemscore.Internal_Hbond>
0.0000

> <Gold.Chemscore.DEClash>
0.2922

> <Gold.Chemscore.DEInternal>
1.2705

> <Gold.Chemscore.Rot>
2.8729

> <Gold.Chemscore.Internal.Correction>
   9.000000E+99

> <Gold.Chemscore.Hbonds>
donor molecule, donor type, donor heavy atom, donor atom, acceptor molecule, acceptor atom, score
      L1  H    19    43       P1 10174  0.30
      P1  H  7997  8008       L1     2  0.59

> <Gold.Chemscore.Hbond.Weighted>
-5.1143

> <Gold.Chemscore.Metal.Weighted>
-0.0000

> <Gold.Chemscore.Lipo.Weighted>
-9.9524

> <Gold.Chemscore.Internal_Hbond.Weighted>
0.0000

> <Gold.Chemscore.DEClash.Weighted>
0.2922

> <Gold.Chemscore.DEInternal.Weighted>
1.2705

> <Gold.Chemscore.Rot.Weighted>
7.3546

> <Gold.Chemscore.Internal.Correction.Weighted>
   9.000000E+99

> <Gold.Protein.RotatedTorsions>
[ 6907 6896 6895 6894 ] final  152.32 input  -60.11 | X-H torsion
[ 7974 7965 7964 7962 ] final  -20.63 input  175.53 | X-H torsion
[ 8008 7997 7996 7995 ] final -122.44 input   59.86 | X-H torsion
[ 10167 10162 10161 10158 ] final  104.75 input  -65.29 | X-H torsion
[ 10718 10713 10712 10709 ] final    7.28 input   66.30 | X-H torsion
[ 10763 10752 10751 10750 ] final  103.76 input  -60.55 | X-H torsion
[ 11005 11000 10999 10996 ] final  -98.93 input  -57.11 | X-H torsion

> <Gold.Protein.ActiveResidues>
 VAL166  LYS551  ARG553  GLY616  TRP617  ASP618  TYR619  PRO620  LYS621  CYS622 
 ASP623  PHE694  ASN695  SER759  ASP760  ASP761  ALA762  ILE779  LEU786  VAL792 
 PHE793  MET794  SER795  GLU796  ALA797  LYS798  CYS799  TRP800  GLU811  SER814 

> <Gold.Protein.RotatedAtoms>
  152.0884  133.4188  159.4532 H   0  0  0  0  0  0  0  0  0  0  0  0  # atno 6907 bound_to 6896
  150.6862  134.2901  159.4672 H   0  0  0  0  0  0  0  0  0  0  0  0  # atno 6908 bound_to 6896
  152.0750  134.9508  160.0625 H   0  0  0  0  0  0  0  0  0  0  0  0  # atno 6909 bound_to 6896
  146.1777  140.4229  142.8507 H   0  0  0  0  0  0  0  0  0  0  0  0  # atno 7974 bound_to 7965
  155.1643  140.0406  157.2849 H   0  0  0  0  0  0  0  0  0  0  0  0  # atno 8008 bound_to 7997
  154.6314  140.2525  155.7402 H   0  0  0  0  0  0  0  0  0  0  0  0  # atno 8009 bound_to 7997
  156.2486  140.2874  156.0668 H   0  0  0  0  0  0  0  0  0  0  0  0  # atno 8010 bound_to 7997
  139.7150  144.7070  151.0964 H   0  0  0  0  0  0  0  0  0  0  0  0  # atno 10167 bound_to 10162
  156.9346  130.5838  149.5650 H   0  0  0  0  0  0  0  0  0  0  0  0  # atno 10718 bound_to 10713
  153.3570  135.3966  155.1689 H   0  0  0  0  0  0  0  0  0  0  0  0  # atno 10763 bound_to 10752
  154.8672  135.3670  154.5149 H   0  0  0  0  0  0  0  0  0  0  0  0  # atno 10764 bound_to 10752
  153.5605  135.7081  153.5610 H   0  0  0  0  0  0  0  0  0  0  0  0  # atno 10765 bound_to 10752
  141.1327  133.8282  157.0904 H   0  0  0  0  0  0  0  0  0  0  0  0  # atno 11005 bound_to 11000
  144.8263  140.6634  143.6320 LP  0  0  0  0  0  0  0  0  0  0  0  0  # atno 17320 bound_to 7965
  145.4164  139.1571  143.4098 LP  0  0  0  0  0  0  0  0  0  0  0  0  # atno 17321 bound_to 7965
  140.7742  143.5241  150.9501 LP  0  0  0  0  0  0  0  0  0  0  0  0  # atno 17342 bound_to 10162
  139.8927  143.6933  152.3143 LP  0  0  0  0  0  0  0  0  0  0  0  0  # atno 17343 bound_to 10162
  156.0432  130.5512  150.8819 LP  0  0  0  0  0  0  0  0  0  0  0  0  # atno 17370 bound_to 10713
  157.5825  131.0946  150.9249 LP  0  0  0  0  0  0  0  0  0  0  0  0  # atno 17371 bound_to 10713
  140.0395  134.9861  157.0936 LP  0  0  0  0  0  0  0  0  0  0  0  0  # atno 17394 bound_to 11000
  140.4157  134.1934  155.7163 LP  0  0  0  0  0  0  0  0  0  0  0  0  # atno 17395 bound_to 11000

$$$$
