AV-unprocessed.smi:170|AV-procd|sdf|1406|dock4
  -GOLD-   2262019163D 1   1.00000     0.00000
 Structure written by MMmdl.
 57 61  0  0  0  0  0  0  0  0  1 V2000
  153.6233  140.3842  160.7980 O   0  0  0  0  0  0  0  0  0  0  0  0
  152.6279  141.0344  160.0303 C   0  0  2  0  0  0  0  0  0  0  0  0
  152.5774  140.4042  158.6245 C   0  0  0  0  0  0  0  0  0  0  0  0
  151.9352  139.1015  158.6180 N   0  0  0  0  0  0  0  0  0  0  0  0
  152.3333  137.9812  159.3110 C   0  0  0  0  0  0  0  0  0  0  0  0
  151.5887  136.9243  159.1325 N   0  0  0  0  0  0  0  0  0  0  0  0
  150.6045  137.3471  158.2466 C   0  0  0  0  0  0  0  0  0  0  0  0
  149.4858  136.7225  157.6236 C   0  0  0  0  0  0  0  0  0  0  0  0
  149.1280  135.4279  157.7832 N   0  0  0  0  0  0  0  0  0  0  0  0
  149.2189  134.7053  156.5202 C   0  0  0  0  0  0  0  0  0  0  0  0
  149.0066  133.2033  156.7522 C   0  0  0  0  0  0  0  0  0  0  0  0
  147.7525  133.0066  157.3914 O   0  0  0  0  0  0  0  0  0  0  0  0
  147.7008  133.6356  158.6672 C   0  0  0  0  0  0  0  0  0  0  0  0
  147.8883  135.1646  158.5255 C   0  0  1  0  0  0  0  0  0  0  0  0
  147.8673  135.8713  159.9069 C   0  0  0  0  0  0  0  0  0  0  0  0
  146.5900  135.6442  160.7191 C   0  0  0  0  0  0  0  0  0  0  0  0
  146.5008  136.2015  162.1506 C   0  0  0  0  0  0  0  0  0  0  0  0
  146.8556  134.8075  162.6709 C   0  0  0  0  0  0  0  0  0  0  0  0
  146.3575  134.2548  161.3338 C   0  0  0  0  0  0  0  0  0  0  0  0
  148.7121  137.4759  156.8041 N   0  0  0  0  0  0  0  0  0  0  0  0
  149.0193  138.7584  156.5872 C   0  0  0  0  0  0  0  0  0  0  0  0
  150.0343  139.4701  157.0827 N   0  0  0  0  0  0  0  0  0  0  0  0
  150.8062  138.7170  157.9177 C   0  0  0  0  0  0  0  0  0  0  0  0
  152.8984  142.5523  159.9720 C   0  0  2  0  0  0  0  0  0  0  0  0
  152.4391  143.3939  161.1674 C   0  0  0  0  0  0  0  0  0  0  0  0
  152.3175  144.7608  160.5323 C   0  0  0  0  0  0  0  0  0  0  0  0
  151.7598  144.4158  159.1533 C   0  0  0  0  0  0  0  0  0  0  0  0
  152.2986  143.1387  158.8199 O   0  0  0  0  0  0  0  0  0  0  0  0
  153.8472  139.5731  160.3674 H   0  0  0  0  0  0  0  0  0  0  0  0
  151.6668  140.8716  160.5197 H   0  0  0  0  0  0  0  0  0  0  0  0
  152.0314  141.0533  157.9388 H   0  0  0  0  0  0  0  0  0  0  0  0
  153.5835  140.2976  158.2170 H   0  0  0  0  0  0  0  0  0  0  0  0
  153.1979  137.9729  159.9588 H   0  0  0  0  0  0  0  0  0  0  0  0
  148.4661  135.0846  155.8272 H   0  0  0  0  0  0  0  0  0  0  0  0
  150.1940  134.8723  156.0602 H   0  0  0  0  0  0  0  0  0  0  0  0
  149.0097  132.6705  155.8014 H   0  0  0  0  0  0  0  0  0  0  0  0
  149.8106  132.7833  157.3587 H   0  0  0  0  0  0  0  0  0  0  0  0
  146.7321  133.4034  159.1078 H   0  0  0  0  0  0  0  0  0  0  0  0
  148.4606  133.2073  159.3233 H   0  0  0  0  0  0  0  0  0  0  0  0
  147.0570  135.5363  157.9277 H   0  0  0  0  0  0  0  0  0  0  0  0
  148.7309  135.5445  160.4871 H   0  0  0  0  0  0  0  0  0  0  0  0
  147.9980  136.9454  159.7777 H   0  0  0  0  0  0  0  0  0  0  0  0
  145.7055  135.9338  160.1515 H   0  0  0  0  0  0  0  0  0  0  0  0
  147.2315  136.9708  162.4009 H   0  0  0  0  0  0  0  0  0  0  0  0
  145.4891  136.5073  162.4227 H   0  0  0  0  0  0  0  0  0  0  0  0
  147.9288  134.6707  162.8134 H   0  0  0  0  0  0  0  0  0  0  0  0
  146.2849  134.4846  163.5419 H   0  0  0  0  0  0  0  0  0  0  0  0
  145.3032  133.9742  161.3611 H   0  0  0  0  0  0  0  0  0  0  0  0
  146.9739  133.4580  160.9161 H   0  0  0  0  0  0  0  0  0  0  0  0
  148.3588  139.2896  155.9179 H   0  0  0  0  0  0  0  0  0  0  0  0
  153.9713  142.7066  159.8446 H   0  0  0  0  0  0  0  0  0  0  0  0
  151.4637  143.0770  161.5371 H   0  0  0  0  0  0  0  0  0  0  0  0
  153.1432  143.3708  161.9994 H   0  0  0  0  0  0  0  0  0  0  0  0
  151.6764  145.4414  161.0933 H   0  0  0  0  0  0  0  0  0  0  0  0
  153.3031  145.2183  160.4363 H   0  0  0  0  0  0  0  0  0  0  0  0
  150.6735  144.3304  159.1954 H   0  0  0  0  0  0  0  0  0  0  0  0
  152.0111  145.1652  158.4026 H   0  0  0  0  0  0  0  0  0  0  0  0
  1  2  1  0  0  0  0
  1 29  1  0  0  0  0
  2  3  1  0  0  0  0
  2 24  1  0  0  0  0
  2 30  1  0  0  0  0
  3  4  1  0  0  0  0
  3 31  1  0  0  0  0
  3 32  1  0  0  0  0
  4 23  1  0  0  0  0
  4  5  1  0  0  0  0
  5  6  2  0  0  0  0
  5 33  1  0  0  0  0
  6  7  1  0  0  0  0
  7 23  2  0  0  0  0
  7  8  1  0  0  0  0
  8  9  1  0  0  0  0
  8 20  2  0  0  0  0
  9 14  1  0  0  0  0
  9 10  1  0  0  0  0
 10 11  1  0  0  0  0
 10 34  1  0  0  0  0
 10 35  1  0  0  0  0
 11 12  1  0  0  0  0
 11 36  1  0  0  0  0
 11 37  1  0  0  0  0
 12 13  1  0  0  0  0
 13 14  1  0  0  0  0
 13 38  1  0  0  0  0
 13 39  1  0  0  0  0
 14 15  1  0  0  0  0
 14 40  1  0  0  0  0
 15 16  1  0  0  0  0
 15 41  1  0  0  0  0
 15 42  1  0  0  0  0
 16 19  1  0  0  0  0
 16 17  1  0  0  0  0
 16 43  1  0  0  0  0
 17 18  1  0  0  0  0
 17 44  1  0  0  0  0
 17 45  1  0  0  0  0
 18 19  1  0  0  0  0
 18 46  1  0  0  0  0
 18 47  1  0  0  0  0
 19 48  1  0  0  0  0
 19 49  1  0  0  0  0
 20 21  1  0  0  0  0
 21 22  2  0  0  0  0
 21 50  1  0  0  0  0
 22 23  1  0  0  0  0
 24 28  1  0  0  0  0
 24 25  1  0  0  0  0
 24 51  1  0  0  0  0
 25 26  1  0  0  0  0
 25 52  1  0  0  0  0
 25 53  1  0  0  0  0
 26 27  1  0  0  0  0
 26 54  1  0  0  0  0
 26 55  1  0  0  0  0
 27 28  1  0  0  0  0
 27 56  1  0  0  0  0
 27 57  1  0  0  0  0
M  END
> <s_m_source_file>
AV-unprocessed.smi

> <i_m_source_file_index>
170

> <i_lp_mmshare_version>
43012

> <i_f3d_flags>
0

> <s_epik_input>
TzFbQ0gyXVtDSDJdW0NIMl1bQ0BIXTFbQ0BIXShbT0hdKVtDSDJdbihbY0hdbjIpYyhjMjMpbltjSF1uYzNONFtDSDJdW0NIMl1PW0NIMl1bQ0BIXTRbQ0gyXVtDSF01W0NIMl1bQ0gyXVtDSDJdNQ==

> <s_epik_cmdline>
J2VwaWtfcHl0aG9uJywgJy1waCcsICc3LjAnLCAnLXRuJywgJzgnLCAnLW1hJywgJzIwMCcsICctbWV0YWxfYmluZGluZycsICctaW1hZScsICc8aW5maWxlLm1hZT4nLCAnLW9tYWUnLCAnPG91dGZpbGUubWFlPic=

> <r_lp_tautomer_probability>
1

> <r_epik_Ionization_Penalty>
4.98275e-05

> <r_epik_Ionization_Penalty_Charging>
0

> <r_epik_Ionization_Penalty_Neutral>
4.98275e-05

> <r_epik_State_Penalty>
-0

> <r_epik_Charging_Adjusted_Penalty>
0

> <i_epik_Tot_Q>
0

> <i_epik_Tot_abs_Q>
0

> <r_epik_Metal_State_Penalty>
-0

> <b_epik_Metal_Only>
0

> <s_lp_Force_Field>
OPLS_2005

> <r_lp_Energy>
54.7181

> <b_lp_Chiralities_Consistent>
1

> <s_lp_Variant>
AV-unprocessed.smi:170-1

> <Gold.Version>
5.8.1

> <Gold.Id.Protein>
6NUR|6NUR_protein|mol2

> <Gold.PLP.Fitness>
51.5371

> <Gold.PLP.PLP>
-48.3008

> <Gold.PLP.part.hbond>
-2.0000

> <Gold.PLP.part.metal>
0.0000

> <Gold.PLP.part.buried>
-7.8077

> <Gold.PLP.part.nonpolar>
-39.7742

> <Gold.PLP.part.repulsive>
0.0180

> <Gold.PLP.ligand.clash>
0.0000

> <Gold.PLP.ligand.torsion>
0.7806

> <Gold.PLP.Chemscore.Hbond>
1.4642

> <Gold.PLP.Chemscore.CHOScore>
0.0000

> <Gold.PLP.Chemscore.Metal>
0.0000

> <Gold.Chemscore.Hbonds>
donor molecule, donor type, donor heavy atom, donor atom, acceptor molecule, acceptor atom, score
      P1  H  6896  6908       L1     6  0.76

> <Gold.PLP.Chemscore.Internal.Correction>
0.4049

> <Gold.Rescore>
     Score         DG    S(hbond)    S(metal)    S(lipo)     H(rot)  DE(clash)    DE(int)     intcor
     14.38     -15.50       0.88        0.00     117.87       2.61       0.08       1.04       ----

> <Gold.Chemscore.Fitness>
14.3824

> <Gold.Chemscore.DG>
-15.5003

> <Gold.Chemscore.ZeroCoef>
-5.4800

> <Gold.Chemscore.Hbond>
0.8751

> <Gold.Chemscore.Metal>
0.0000

> <Gold.Chemscore.Lipo>
117.8676

> <Gold.Chemscore.Internal_Hbond>
0.0000

> <Gold.Chemscore.DEClash>
0.0778

> <Gold.Chemscore.DEInternal>
1.0401

> <Gold.Chemscore.Rot>
2.6144

> <Gold.Chemscore.Internal.Correction>
   9.000000E+99

> <Gold.Chemscore.Hbonds>
donor molecule, donor type, donor heavy atom, donor atom, acceptor molecule, acceptor atom, score
      P1  H  6896  6908       L1     6  0.71

> <Gold.Chemscore.Hbond.Weighted>
-2.9227

> <Gold.Chemscore.Metal.Weighted>
-0.0000

> <Gold.Chemscore.Lipo.Weighted>
-13.7905

> <Gold.Chemscore.Internal_Hbond.Weighted>
0.0000

> <Gold.Chemscore.DEClash.Weighted>
0.0778

> <Gold.Chemscore.DEInternal.Weighted>
1.0401

> <Gold.Chemscore.Rot.Weighted>
6.6929

> <Gold.Chemscore.Internal.Correction.Weighted>
   9.000000E+99

> <Gold.Protein.RotatedTorsions>
[ 6907 6896 6895 6894 ] final -101.02 input  -60.11 | X-H torsion
[ 7974 7965 7964 7962 ] final  160.91 input  175.53 | X-H torsion
[ 8008 7997 7996 7995 ] final  -99.88 input   59.86 | X-H torsion
[ 10167 10162 10161 10158 ] final  113.76 input  -65.29 | X-H torsion
[ 10718 10713 10712 10709 ] final -160.68 input   66.30 | X-H torsion
[ 10763 10752 10751 10750 ] final  -13.96 input  -60.55 | X-H torsion
[ 11005 11000 10999 10996 ] final  148.09 input  -57.11 | X-H torsion

> <Gold.Protein.ActiveResidues>
 VAL166  LYS551  ARG553  GLY616  TRP617  ASP618  TYR619  PRO620  LYS621  CYS622 
 ASP623  PHE694  ASN695  SER759  ASP760  ASP761  ALA762  ILE779  LEU786  VAL792 
 PHE793  MET794  SER795  GLU796  ALA797  LYS798  CYS799  TRP800  GLU811  SER814 

> <Gold.Protein.RotatedAtoms>
  150.7138  134.0798  159.3893 H   0  0  0  0  0  0  0  0  0  0  0  0  # atno 6907 bound_to 6896
  151.8782  135.0461  160.0495 H   0  0  0  0  0  0  0  0  0  0  0  0  # atno 6908 bound_to 6896
  152.2589  133.5244  159.5406 H   0  0  0  0  0  0  0  0  0  0  0  0  # atno 6909 bound_to 6896
  144.7713  139.7823  143.6296 H   0  0  0  0  0  0  0  0  0  0  0  0  # atno 7974 bound_to 7965
  154.8209  140.0444  157.1410 H   0  0  0  0  0  0  0  0  0  0  0  0  # atno 8008 bound_to 7997
  154.9260  140.3033  155.5171 H   0  0  0  0  0  0  0  0  0  0  0  0  # atno 8009 bound_to 7997
  156.2980  140.2332  156.4315 H   0  0  0  0  0  0  0  0  0  0  0  0  # atno 8010 bound_to 7997
  139.6438  144.7125  151.2184 H   0  0  0  0  0  0  0  0  0  0  0  0  # atno 10167 bound_to 10162
  156.5855  130.8748  151.2876 H   0  0  0  0  0  0  0  0  0  0  0  0  # atno 10718 bound_to 10713
  153.5211  135.7015  153.5731 H   0  0  0  0  0  0  0  0  0  0  0  0  # atno 10763 bound_to 10752
  153.3779  135.3927  155.1836 H   0  0  0  0  0  0  0  0  0  0  0  0  # atno 10764 bound_to 10752
  154.8694  135.3828  154.4700 H   0  0  0  0  0  0  0  0  0  0  0  0  # atno 10765 bound_to 10752
  140.0930  134.9029  157.1680 H   0  0  0  0  0  0  0  0  0  0  0  0  # atno 11005 bound_to 11000
  146.1861  139.5077  142.9835 LP  0  0  0  0  0  0  0  0  0  0  0  0  # atno 17320 bound_to 7965
  145.6317  141.0303  143.1860 LP  0  0  0  0  0  0  0  0  0  0  0  0  # atno 17321 bound_to 7965
  140.7504  143.6266  150.8462 LP  0  0  0  0  0  0  0  0  0  0  0  0  # atno 17342 bound_to 10162
  139.9907  143.5850  152.2911 LP  0  0  0  0  0  0  0  0  0  0  0  0  # atno 17343 bound_to 10162
  157.7316  130.9703  150.1889 LP  0  0  0  0  0  0  0  0  0  0  0  0  # atno 17370 bound_to 10713
  156.2594  130.3709  149.8146 LP  0  0  0  0  0  0  0  0  0  0  0  0  # atno 17371 bound_to 10713
  140.3326  134.2793  155.7225 LP  0  0  0  0  0  0  0  0  0  0  0  0  # atno 17394 bound_to 11000
  141.2083  133.7780  157.0064 LP  0  0  0  0  0  0  0  0  0  0  0  0  # atno 17395 bound_to 11000

$$$$
