AV-unprocessed.smi:334|AV-procd|sdf|2368|dock6
  -GOLD-   2262022283D 1   1.00000     0.00000
 Structure written by MMmdl.
 44 46  0  0  0  0  0  0  0  0  3 V2000
  143.1266  136.4026  153.0067 C   0  0  0  0  0  0  0  0  0  0  0  0
  144.5921  136.0803  152.6601 C   0  0  2  0  0  0  0  0  0  0  0  0
  145.2651  137.3136  152.2554 N   0  0  0  0  0  0  0  0  0  0  0  0
  146.1876  137.9720  152.9737 C   0  0  0  0  0  0  0  0  0  0  0  0
  146.5801  137.5942  154.0785 O   0  0  0  0  0  0  0  0  0  0  0  0
  146.7593  139.2417  152.3270 C   0  0  0  0  0  0  0  0  0  0  0  0
  147.7646  139.9188  153.1636 N   0  0  0  0  0  0  0  0  0  0  0  0
  148.9491  139.2087  153.4428 C   0  0  0  0  0  0  0  0  0  0  0  0
  149.9326  139.7282  154.2035 C   0  0  0  0  0  0  0  0  0  0  0  0
  151.1401  138.9827  154.4839 N   0  3  0  0  0  0  0  0  0  0  0  0
  152.1725  139.6021  154.7201 O   0  0  0  0  0  0  0  0  0  0  0  0
  151.0980  137.7560  154.4768 O   0  5  0  0  0  0  0  0  0  0  0  0
  149.7389  141.0625  154.7375 C   0  0  0  0  0  0  0  0  0  0  0  0
  148.6070  141.7454  154.4765 C   0  0  0  0  0  0  0  0  0  0  0  0
  147.5364  141.1768  153.6510 C   0  0  0  0  0  0  0  0  0  0  0  0
  146.4983  141.7940  153.4122 O   0  0  0  0  0  0  0  0  0  0  0  0
  144.7245  135.0258  151.5331 C   0  0  1  0  0  0  0  0  0  0  0  0
  146.1911  134.7189  151.1360 C   0  0  0  0  0  0  0  0  0  0  0  0
  146.2796  133.1874  151.2530 C   0  0  2  0  0  0  0  0  0  0  0  0
  145.4425  132.5344  150.1383 C   0  0  0  0  0  0  0  0  0  0  0  0
  143.9983  132.8054  150.5986 C   0  0  0  0  0  0  0  0  0  0  0  0
  144.1999  133.6128  151.8958 C   0  0  1  0  0  0  0  0  0  0  0  0
  145.4279  132.9281  152.4877 C   0  0  0  0  0  0  0  0  0  0  0  0
  142.5998  135.5324  153.3952 H   0  0  0  0  0  0  0  0  0  0  0  0
  142.5816  136.7592  152.1321 H   0  0  0  0  0  0  0  0  0  0  0  0
  143.0647  137.1768  153.7723 H   0  0  0  0  0  0  0  0  0  0  0  0
  145.0791  135.6900  153.5553 H   0  0  0  0  0  0  0  0  0  0  0  0
  145.0073  137.6948  151.3565 H   0  0  0  0  0  0  0  0  0  0  0  0
  147.1858  138.9677  151.3611 H   0  0  0  0  0  0  0  0  0  0  0  0
  145.9430  139.9274  152.0923 H   0  0  0  0  0  0  0  0  0  0  0  0
  148.9932  138.2217  153.0056 H   0  0  0  0  0  0  0  0  0  0  0  0
  150.4991  141.5231  155.3512 H   0  0  0  0  0  0  0  0  0  0  0  0
  148.4834  142.7374  154.8860 H   0  0  0  0  0  0  0  0  0  0  0  0
  144.1850  135.4001  150.6614 H   0  0  0  0  0  0  0  0  0  0  0  0
  146.4330  135.0738  150.1334 H   0  0  0  0  0  0  0  0  0  0  0  0
  146.8989  135.1793  151.8272 H   0  0  0  0  0  0  0  0  0  0  0  0
  147.3017  132.8121  151.3106 H   0  0  0  0  0  0  0  0  0  0  0  0
  145.6554  132.9629  149.1583 H   0  0  0  0  0  0  0  0  0  0  0  0
  145.6330  131.4617  150.0846 H   0  0  0  0  0  0  0  0  0  0  0  0
  143.4164  133.3479  149.8527 H   0  0  0  0  0  0  0  0  0  0  0  0
  143.4812  131.8671  150.8044 H   0  0  0  0  0  0  0  0  0  0  0  0
  143.3203  133.6006  152.5379 H   0  0  0  0  0  0  0  0  0  0  0  0
  145.2755  131.8669  152.6926 H   0  0  0  0  0  0  0  0  0  0  0  0
  145.8090  133.4133  153.3875 H   0  0  0  0  0  0  0  0  0  0  0  0
  1  2  1  0  0  0  0
  1 24  1  0  0  0  0
  1 25  1  0  0  0  0
  1 26  1  0  0  0  0
  2  3  1  0  0  0  0
  2 17  1  0  0  0  0
  2 27  1  0  0  0  0
  3  4  1  0  0  0  0
  3 28  1  0  0  0  0
  4  5  2  0  0  0  0
  4  6  1  0  0  0  0
  6  7  1  0  0  0  0
  6 29  1  0  0  0  0
  6 30  1  0  0  0  0
  7 15  1  0  0  0  0
  7  8  1  0  0  0  0
  8  9  2  0  0  0  0
  8 31  1  0  0  0  0
  9 10  1  0  0  0  0
  9 13  1  0  0  0  0
 10 11  2  0  0  0  0
 10 12  1  0  0  0  0
 13 14  2  0  0  0  0
 13 32  1  0  0  0  0
 14 15  1  0  0  0  0
 14 33  1  0  0  0  0
 15 16  2  0  0  0  0
 17 22  1  0  0  0  0
 17 18  1  0  0  0  0
 17 34  1  0  0  0  0
 18 19  1  0  0  0  0
 18 35  1  0  0  0  0
 18 36  1  0  0  0  0
 19 23  1  0  0  0  0
 19 20  1  0  0  0  0
 19 37  1  0  0  0  0
 20 21  1  0  0  0  0
 20 38  1  0  0  0  0
 20 39  1  0  0  0  0
 21 22  1  0  0  0  0
 21 40  1  0  0  0  0
 21 41  1  0  0  0  0
 22 23  1  0  0  0  0
 22 42  1  0  0  0  0
 23 43  1  0  0  0  0
 23 44  1  0  0  0  0
M  CHG  1  10   1
M  CHG  1  12  -1
M  END
> <s_m_source_file>
AV-unprocessed.smi

> <i_m_source_file_index>
334

> <i_lp_mmshare_version>
43012

> <i_f3d_flags>
0

> <s_epik_input>
W0NIMl0xW0NIMl1bQ0BIXShbQ0gyXTIpW0NAQEhdKFtDSDJdW0NAQEhdMTIpW0NASF0oW0NIM10pW05IXUMoPU8pW0NIMl1uM1tjSF1jKFtOK10oPU8pW08tXSlbY0hdW2NIXWMzPU8=

> <s_epik_cmdline>
J2VwaWtfcHl0aG9uJywgJy1waCcsICc3LjAnLCAnLXRuJywgJzgnLCAnLW1hJywgJzIwMCcsICctbWV0YWxfYmluZGluZycsICctaW1hZScsICc8aW5maWxlLm1hZT4nLCAnLW9tYWUnLCAnPG91dGZpbGUubWFlPic=

> <r_lp_tautomer_probability>
1

> <r_epik_Ionization_Penalty>
2.17081e-08

> <r_epik_Ionization_Penalty_Charging>
8.1195e-11

> <r_epik_Ionization_Penalty_Neutral>
2.16269e-08

> <r_epik_State_Penalty>
-0

> <r_epik_Charging_Adjusted_Penalty>
8.1195e-11

> <i_epik_Tot_Q>
0

> <i_epik_Tot_abs_Q>
2

> <r_epik_Metal_State_Penalty>
-0

> <b_epik_Metal_Only>
0

> <s_lp_Force_Field>
OPLS_2005

> <r_lp_Energy>
62.5387

> <b_lp_Chiralities_Consistent>
1

> <s_lp_Variant>
AV-unprocessed.smi:334-7

> <Gold.Version>
5.8.1

> <Gold.Id.Protein>
6NUR|6NUR_protein|mol2

> <Gold.PLP.Fitness>
47.6964

> <Gold.PLP.PLP>
-40.6233

> <Gold.PLP.part.hbond>
-2.0000

> <Gold.PLP.part.metal>
0.0000

> <Gold.PLP.part.buried>
-0.8607

> <Gold.PLP.part.nonpolar>
-39.4892

> <Gold.PLP.part.repulsive>
0.5326

> <Gold.PLP.ligand.clash>
0.0000

> <Gold.PLP.ligand.torsion>
0.4410

> <Gold.PLP.Chemscore.Hbond>
1.6344

> <Gold.PLP.Chemscore.CHOScore>
1.0000

> <Gold.PLP.Chemscore.Metal>
0.0000

> <Gold.Chemscore.Hbonds>
donor molecule, donor type, donor heavy atom, donor atom, acceptor molecule, acceptor atom, score
      L1  H     3    28       P1 10171  0.78
      P1  H  7989  7998       L1    11  0.40
      L1  C     8    31       P1  7948  1.00

> <Gold.PLP.Chemscore.Internal.Correction>
0.0519

> <Gold.Rescore>
     Score         DG    S(hbond)    S(metal)    S(lipo)     H(rot)  DE(clash)    DE(int)     intcor
     12.54     -14.35       0.97        0.00      86.26       1.75       0.23       1.58       ----

> <Gold.Chemscore.Fitness>
12.5445

> <Gold.Chemscore.DG>
-14.3544

> <Gold.Chemscore.ZeroCoef>
-5.4800

> <Gold.Chemscore.Hbond>
0.9746

> <Gold.Chemscore.Metal>
0.0000

> <Gold.Chemscore.Lipo>
86.2627

> <Gold.Chemscore.Internal_Hbond>
0.0000

> <Gold.Chemscore.DEClash>
0.2263

> <Gold.Chemscore.DEInternal>
1.5836

> <Gold.Chemscore.Rot>
1.7474

> <Gold.Chemscore.Internal.Correction>
   9.000000E+99

> <Gold.Chemscore.Hbonds>
donor molecule, donor type, donor heavy atom, donor atom, acceptor molecule, acceptor atom, score
      L1  H     3    28       P1 10171  0.78
      P1  H  7989  7998       L1    11  0.02

> <Gold.Chemscore.Hbond.Weighted>
-3.2550

> <Gold.Chemscore.Metal.Weighted>
-0.0000

> <Gold.Chemscore.Lipo.Weighted>
-10.0927

> <Gold.Chemscore.Internal_Hbond.Weighted>
0.0000

> <Gold.Chemscore.DEClash.Weighted>
0.2263

> <Gold.Chemscore.DEInternal.Weighted>
1.5836

> <Gold.Chemscore.Rot.Weighted>
4.4733

> <Gold.Chemscore.Internal.Correction.Weighted>
   9.000000E+99

> <Gold.Protein.RotatedTorsions>
[ 6907 6896 6895 6894 ] final  -36.64 input  -60.11 | X-H torsion
[ 7974 7965 7964 7962 ] final -147.99 input  175.53 | X-H torsion
[ 8008 7997 7996 7995 ] final  101.48 input   59.86 | X-H torsion
[ 10167 10162 10161 10158 ] final -157.56 input  -65.29 | X-H torsion
[ 10718 10713 10712 10709 ] final   97.94 input   66.30 | X-H torsion
[ 10763 10752 10751 10750 ] final  172.16 input  -60.55 | X-H torsion
[ 11005 11000 10999 10996 ] final  -83.62 input  -57.11 | X-H torsion

> <Gold.Protein.ActiveResidues>
 VAL166  LYS551  ARG553  GLY616  TRP617  ASP618  TYR619  PRO620  LYS621  CYS622 
 ASP623  PHE694  ASN695  SER759  ASP760  ASP761  ALA762  ILE779  LEU786  VAL792 
 PHE793  MET794  SER795  GLU796  ALA797  LYS798  CYS799  TRP800  GLU811  SER814 

> <Gold.Protein.RotatedAtoms>
  151.0246  134.9494  159.8077 H   0  0  0  0  0  0  0  0  0  0  0  0  # atno 6907 bound_to 6896
  152.5332  134.2859  159.9035 H   0  0  0  0  0  0  0  0  0  0  0  0  # atno 6908 bound_to 6896
  151.2867  133.4142  159.2664 H   0  0  0  0  0  0  0  0  0  0  0  0  # atno 6909 bound_to 6896
  144.8058  140.5255  143.5676 H   0  0  0  0  0  0  0  0  0  0  0  0  # atno 7974 bound_to 7965
  156.1303  140.3197  155.8339 H   0  0  0  0  0  0  0  0  0  0  0  0  # atno 8008 bound_to 7997
  155.4344  140.0521  157.3033 H   0  0  0  0  0  0  0  0  0  0  0  0  # atno 8009 bound_to 7997
  154.4894  140.2086  155.9595 H   0  0  0  0  0  0  0  0  0  0  0  0  # atno 8010 bound_to 7997
  139.6761  143.9662  152.2311 H   0  0  0  0  0  0  0  0  0  0  0  0  # atno 10167 bound_to 10162
  157.6904  131.0625  150.4720 H   0  0  0  0  0  0  0  0  0  0  0  0  # atno 10718 bound_to 10713
  154.4221  135.2758  155.1969 H   0  0  0  0  0  0  0  0  0  0  0  0  # atno 10763 bound_to 10752
  154.3910  135.6066  153.5847 H   0  0  0  0  0  0  0  0  0  0  0  0  # atno 10764 bound_to 10752
  152.9833  135.5903  154.4518 H   0  0  0  0  0  0  0  0  0  0  0  0  # atno 10765 bound_to 10752
  141.1656  133.7304  156.8747 H   0  0  0  0  0  0  0  0  0  0  0  0  # atno 11005 bound_to 11000
  145.5442  139.1475  143.3430 LP  0  0  0  0  0  0  0  0  0  0  0  0  # atno 17320 bound_to 7965
  146.2349  140.5581  142.8959 LP  0  0  0  0  0  0  0  0  0  0  0  0  # atno 17321 bound_to 7965
  139.9439  144.6664  150.8239 LP  0  0  0  0  0  0  0  0  0  0  0  0  # atno 17342 bound_to 10162
  140.7636  143.3226  151.2587 LP  0  0  0  0  0  0  0  0  0  0  0  0  # atno 17343 bound_to 10162
  156.5057  130.4127  149.6328 LP  0  0  0  0  0  0  0  0  0  0  0  0  # atno 17370 bound_to 10713
  156.3287  130.7319  151.2245 LP  0  0  0  0  0  0  0  0  0  0  0  0  # atno 17371 bound_to 10713
  140.1756  134.9069  157.2887 LP  0  0  0  0  0  0  0  0  0  0  0  0  # atno 17394 bound_to 11000
  140.2452  134.3748  155.7464 LP  0  0  0  0  0  0  0  0  0  0  0  0  # atno 17395 bound_to 11000

$$$$
