AV-unprocessed.smi:2229|AV-procd|sdf|9031|dock6
  -GOLD-   2272012233D 1   1.00000     0.00000
 Structure written by MMmdl.
 43 44  0  0  0  0  0  0  0  0  2 V2000
  152.0253  145.9086  159.8050 C   0  0  0  0  0  0  0  0  0  0  0  0
  152.5515  144.6781  159.0508 C   0  0  0  0  0  0  0  0  0  0  0  0
  153.0235  145.0787  157.6415 C   0  0  0  0  0  0  0  0  0  0  0  0
  151.4861  143.5629  159.0183 C   0  0  0  0  0  0  0  0  0  0  0  0
  152.0707  142.1409  158.9565 C   0  0  0  0  0  0  0  0  0  0  0  0
  152.5221  141.6079  160.3288 C   0  0  2  0  0  0  0  0  0  0  0  0
  152.8293  142.6839  161.3732 C   0  0  0  0  0  0  0  0  0  0  0  0
  153.6563  141.9452  162.4222 C   0  0  0  0  0  0  0  0  0  0  0  0
  154.5143  140.9574  161.6249 C   0  0  0  0  0  0  0  0  0  0  0  0
  153.8051  140.7537  160.2719 C   0  0  1  0  0  0  0  0  0  0  0  0
  153.4805  139.3476  160.0494 N   0  0  0  0  0  0  0  0  0  0  0  0
  153.2718  138.7853  158.8494 C   0  0  0  0  0  0  0  0  0  0  0  0
  153.4383  139.3788  157.7831 O   0  0  0  0  0  0  0  0  0  0  0  0
  152.8108  137.3238  158.8582 C   0  0  0  0  0  0  0  0  0  0  0  0
  151.4992  137.1489  158.2284 N   0  0  0  0  0  0  0  0  0  0  0  0
  150.3482  137.6994  158.7334 C   0  0  0  0  0  0  0  0  0  0  0  0
  149.3400  137.4060  157.9933 N   0  0  0  0  0  0  0  0  0  0  0  0
  149.8443  136.6047  156.9197 N   0  5  0  0  0  0  0  0  0  0  0  0
  151.1751  136.4810  157.1189 C   0  0  0  0  0  0  0  0  0  0  0  0
  151.9968  135.8744  156.4321 O   0  0  0  0  0  0  0  0  0  0  0  0
  151.1530  146.3344  159.3081 H   0  0  0  0  0  0  0  0  0  0  0  0
  152.7858  146.6874  159.8674 H   0  0  0  0  0  0  0  0  0  0  0  0
  151.7359  145.6525  160.8247 H   0  0  0  0  0  0  0  0  0  0  0  0
  153.4161  144.3065  159.6026 H   0  0  0  0  0  0  0  0  0  0  0  0
  152.1888  145.4094  157.0226 H   0  0  0  0  0  0  0  0  0  0  0  0
  153.5119  144.2530  157.1250 H   0  0  0  0  0  0  0  0  0  0  0  0
  153.7441  145.8955  157.6871 H   0  0  0  0  0  0  0  0  0  0  0  0
  150.8647  143.6392  159.9112 H   0  0  0  0  0  0  0  0  0  0  0  0
  150.8180  143.7252  158.1714 H   0  0  0  0  0  0  0  0  0  0  0  0
  151.3156  141.4626  158.5624 H   0  0  0  0  0  0  0  0  0  0  0  0
  152.9025  142.1118  158.2519 H   0  0  0  0  0  0  0  0  0  0  0  0
  151.7189  140.9895  160.7351 H   0  0  0  0  0  0  0  0  0  0  0  0
  153.4242  143.4830  160.9283 H   0  0  0  0  0  0  0  0  0  0  0  0
  151.9284  143.1301  161.7954 H   0  0  0  0  0  0  0  0  0  0  0  0
  154.2540  142.6195  163.0361 H   0  0  0  0  0  0  0  0  0  0  0  0
  152.9899  141.3946  163.0874 H   0  0  0  0  0  0  0  0  0  0  0  0
  155.5061  141.3782  161.4561 H   0  0  0  0  0  0  0  0  0  0  0  0
  154.6535  140.0269  162.1772 H   0  0  0  0  0  0  0  0  0  0  0  0
  154.4661  141.1285  159.4879 H   0  0  0  0  0  0  0  0  0  0  0  0
  153.3299  138.7792  160.8701 H   0  0  0  0  0  0  0  0  0  0  0  0
  153.5685  136.7197  158.3571 H   0  0  0  0  0  0  0  0  0  0  0  0
  152.7535  136.9576  159.8847 H   0  0  0  0  0  0  0  0  0  0  0  0
  150.3771  138.2930  159.6486 H   0  0  0  0  0  0  0  0  0  0  0  0
  1  2  1  0  0  0  0
  1 21  1  0  0  0  0
  1 22  1  0  0  0  0
  1 23  1  0  0  0  0
  2  3  1  0  0  0  0
  2  4  1  0  0  0  0
  2 24  1  0  0  0  0
  3 25  1  0  0  0  0
  3 26  1  0  0  0  0
  3 27  1  0  0  0  0
  4  5  1  0  0  0  0
  4 28  1  0  0  0  0
  4 29  1  0  0  0  0
  5  6  1  0  0  0  0
  5 30  1  0  0  0  0
  5 31  1  0  0  0  0
  6 10  1  0  0  0  0
  6  7  1  0  0  0  0
  6 32  1  0  0  0  0
  7  8  1  0  0  0  0
  7 33  1  0  0  0  0
  7 34  1  0  0  0  0
  8  9  1  0  0  0  0
  8 35  1  0  0  0  0
  8 36  1  0  0  0  0
  9 10  1  0  0  0  0
  9 37  1  0  0  0  0
  9 38  1  0  0  0  0
 10 11  1  0  0  0  0
 10 39  1  0  0  0  0
 11 12  1  0  0  0  0
 11 40  1  0  0  0  0
 12 13  2  0  0  0  0
 12 14  1  0  0  0  0
 14 15  1  0  0  0  0
 14 41  1  0  0  0  0
 14 42  1  0  0  0  0
 15 19  1  0  0  0  0
 15 16  1  0  0  0  0
 16 17  2  0  0  0  0
 16 43  1  0  0  0  0
 17 18  1  0  0  0  0
 18 19  1  0  0  0  0
 19 20  2  0  0  0  0
M  CHG  1  18  -1
M  END
> <s_m_source_file>
AV-unprocessed.smi

> <i_m_source_file_index>
2229

> <i_lp_mmshare_version>
43012

> <i_f3d_flags>
0

> <s_epik_input>
W0NIM11bQ0hdKFtDSDNdKVtDSDJdW0NIMl1bQ0BASF0xW0NIMl1bQ0gyXVtDSDJdW0NASF0xW05IXUMoPU8pW0NIMl1uMltjSF1uW25IXWMyPU8=

> <s_epik_cmdline>
J2VwaWtfcHl0aG9uJywgJy1waCcsICc3LjAnLCAnLXRuJywgJzgnLCAnLW1hJywgJzIwMCcsICctbWV0YWxfYmluZGluZycsICctaW1hZScsICc8aW5maWxlLm1hZT4nLCAnLW9tYWUnLCAnPG91dGZpbGUubWFlPic=

> <r_lp_tautomer_probability>
1

> <r_epik_Ionization_Penalty>
13.6733

> <r_epik_Ionization_Penalty_Charging>
13.6725

> <r_epik_Ionization_Penalty_Neutral>
0.000837689

> <r_epik_State_Penalty>
5.67062

> <r_epik_Charging_Adjusted_Penalty>
19.3431

> <i_epik_Tot_Q>
-1

> <i_epik_Tot_abs_Q>
1

> <r_epik_Metal_State_Penalty>
1.61781

> <b_epik_Metal_Only>
1

> <s_lp_Force_Field>
OPLS_2005

> <r_lp_Energy>
25.828

> <b_lp_Chiralities_Consistent>
1

> <s_lp_Variant>
AV-unprocessed.smi:2229-5

> <Gold.Version>
5.8.1

> <Gold.Id.Protein>
6NUR|6NUR_protein|mol2

> <Gold.PLP.Fitness>
42.8144

> <Gold.PLP.PLP>
-39.3799

> <Gold.PLP.part.hbond>
-2.0000

> <Gold.PLP.part.metal>
0.0000

> <Gold.PLP.part.buried>
-2.3951

> <Gold.PLP.part.nonpolar>
-34.3636

> <Gold.PLP.part.repulsive>
0.0708

> <Gold.PLP.ligand.clash>
0.0000

> <Gold.PLP.ligand.torsion>
1.3005

> <Gold.PLP.Chemscore.Hbond>
2.0000

> <Gold.PLP.Chemscore.CHOScore>
0.0000

> <Gold.PLP.Chemscore.Metal>
0.0000

> <Gold.Chemscore.Hbonds>
donor molecule, donor type, donor heavy atom, donor atom, acceptor molecule, acceptor atom, score
      P1  H  7997  8010       L1    13  1.00
      P1  H 10752 10763       L1    20  1.00

> <Gold.PLP.Chemscore.Internal.Correction>
0.0355

> <Gold.Rescore>
     Score         DG    S(hbond)    S(metal)    S(lipo)     H(rot)  DE(clash)    DE(int)     intcor
     17.63     -19.12       2.00        0.00     116.30       2.59       0.13       1.36       ----

> <Gold.Chemscore.Fitness>
17.6267

> <Gold.Chemscore.DG>
-19.1175

> <Gold.Chemscore.ZeroCoef>
-5.4800

> <Gold.Chemscore.Hbond>
1.9972

> <Gold.Chemscore.Metal>
0.0000

> <Gold.Chemscore.Lipo>
116.3011

> <Gold.Chemscore.Internal_Hbond>
0.0000

> <Gold.Chemscore.DEClash>
0.1308

> <Gold.Chemscore.DEInternal>
1.3600

> <Gold.Chemscore.Rot>
2.5939

> <Gold.Chemscore.Internal.Correction>
   9.000000E+99

> <Gold.Chemscore.Hbonds>
donor molecule, donor type, donor heavy atom, donor atom, acceptor molecule, acceptor atom, score
      P1  H  7997  8010       L1    13  0.95
      P1  H 10752 10763       L1    20  1.00

> <Gold.Chemscore.Hbond.Weighted>
-6.6707

> <Gold.Chemscore.Metal.Weighted>
-0.0000

> <Gold.Chemscore.Lipo.Weighted>
-13.6072

> <Gold.Chemscore.Internal_Hbond.Weighted>
0.0000

> <Gold.Chemscore.DEClash.Weighted>
0.1308

> <Gold.Chemscore.DEInternal.Weighted>
1.3600

> <Gold.Chemscore.Rot.Weighted>
6.6405

> <Gold.Chemscore.Internal.Correction.Weighted>
   9.000000E+99

> <Gold.Protein.RotatedTorsions>
[ 6907 6896 6895 6894 ] final  -83.29 input  -60.11 | X-H torsion
[ 7974 7965 7964 7962 ] final -179.95 input  175.53 | X-H torsion
[ 8008 7997 7996 7995 ] final   55.34 input   59.86 | X-H torsion
[ 10167 10162 10161 10158 ] final -167.34 input  -65.29 | X-H torsion
[ 10718 10713 10712 10709 ] final  -19.41 input   66.30 | X-H torsion
[ 10763 10752 10751 10750 ] final   96.46 input  -60.55 | X-H torsion
[ 11005 11000 10999 10996 ] final   76.09 input  -57.11 | X-H torsion

> <Gold.Protein.ActiveResidues>
 VAL166  LYS551  ARG553  GLY616  TRP617  ASP618  TYR619  PRO620  LYS621  CYS622 
 ASP623  PHE694  ASN695  SER759  ASP760  ASP761  ALA762  ILE779  LEU786  VAL792 
 PHE793  MET794  SER795  GLU796  ALA797  LYS798  CYS799  TRP800  GLU811  SER814 

> <Gold.Protein.RotatedAtoms>
  150.6887  134.3534  159.4918 H   0  0  0  0  0  0  0  0  0  0  0  0  # atno 6907 bound_to 6896
  152.1372  134.9087  160.0565 H   0  0  0  0  0  0  0  0  0  0  0  0  # atno 6908 bound_to 6896
  152.0234  133.3873  159.4304 H   0  0  0  0  0  0  0  0  0  0  0  0  # atno 6909 bound_to 6896
  144.7140  140.0641  143.6431 H   0  0  0  0  0  0  0  0  0  0  0  0  # atno 7974 bound_to 7965
  155.4995  140.3474  155.4368 H   0  0  0  0  0  0  0  0  0  0  0  0  # atno 8008 bound_to 7997
  156.0923  140.1414  156.9604 H   0  0  0  0  0  0  0  0  0  0  0  0  # atno 8009 bound_to 7997
  154.4642  140.0923  156.6953 H   0  0  0  0  0  0  0  0  0  0  0  0  # atno 8010 bound_to 7997
  139.6055  144.0921  152.1789 H   0  0  0  0  0  0  0  0  0  0  0  0  # atno 10167 bound_to 10162
  156.5461  130.4690  149.6475 H   0  0  0  0  0  0  0  0  0  0  0  0  # atno 10718 bound_to 10713
  153.2652  135.4218  155.0933 H   0  0  0  0  0  0  0  0  0  0  0  0  # atno 10763 bound_to 10752
  154.8435  135.3458  154.6322 H   0  0  0  0  0  0  0  0  0  0  0  0  # atno 10764 bound_to 10752
  153.6742  135.7042  153.5195 H   0  0  0  0  0  0  0  0  0  0  0  0  # atno 10765 bound_to 10752
  139.9314  134.7572  156.1352 H   0  0  0  0  0  0  0  0  0  0  0  0  # atno 11005 bound_to 11000
  145.9839  139.2962  143.1025 LP  0  0  0  0  0  0  0  0  0  0  0  0  # atno 17320 bound_to 7965
  145.8979  140.9261  143.0518 LP  0  0  0  0  0  0  0  0  0  0  0  0  # atno 17321 bound_to 7965
  140.0527  144.5919  150.7323 LP  0  0  0  0  0  0  0  0  0  0  0  0  # atno 17342 bound_to 10162
  140.7282  143.2659  151.4047 LP  0  0  0  0  0  0  0  0  0  0  0  0  # atno 17343 bound_to 10162
  156.2927  130.7133  151.1986 LP  0  0  0  0  0  0  0  0  0  0  0  0  # atno 17370 bound_to 10713
  157.7396  131.0527  150.5219 LP  0  0  0  0  0  0  0  0  0  0  0  0  # atno 17371 bound_to 10713
  141.0904  133.6716  156.2529 LP  0  0  0  0  0  0  0  0  0  0  0  0  # atno 17394 bound_to 11000
  140.6192  134.5379  157.5545 LP  0  0  0  0  0  0  0  0  0  0  0  0  # atno 17395 bound_to 11000

$$$$
