AV-unprocessed.smi:157|AV-procd|sdf|1306|dock1
  -GOLD-   2262018593D 1   1.00000     0.00000
 Structure written by MMmdl.
 35 37  0  0  0  0  0  0  0  0  1 V2000
  152.3744  143.1406  162.4243 O   0  0  0  0  0  0  0  0  0  0  0  0
  152.2917  144.0248  161.3266 C   0  0  0  0  0  0  0  0  0  0  0  0
  151.1706  143.5874  160.3723 C   0  0  2  0  0  0  0  0  0  0  0  0
  151.4462  142.2626  159.9256 O   0  0  0  0  0  0  0  0  0  0  0  0
  150.9456  142.1406  158.6381 C   0  0  2  0  0  0  0  0  0  0  0  0
  151.6253  140.9943  157.9585 N   0  0  0  0  0  0  0  0  0  0  0  0
  152.6610  140.2913  158.4354 C   0  0  0  0  0  0  0  0  0  0  0  0
  153.0843  139.3260  157.6368 N   0  0  0  0  0  0  0  0  0  0  0  0
  152.2402  139.4108  156.5307 C   0  0  0  0  0  0  0  0  0  0  0  0
  151.3305  140.4436  156.7080 C   0  0  0  0  0  0  0  0  0  0  0  0
  150.3017  141.0006  155.9727 N   0  0  0  0  0  0  0  0  0  0  0  0
  149.7902  140.2957  155.0132 C   0  0  0  0  0  0  0  0  0  0  0  0
  150.1695  139.0592  154.5113 N   0  0  0  0  0  0  0  0  0  0  0  0
  151.5403  138.7290  154.1600 C   0  0  0  0  0  0  0  0  0  0  0  0
  152.4410  138.4731  155.3749 C   0  0  2  0  0  0  0  0  0  0  0  0
  152.2092  137.1656  155.8580 O   0  0  0  0  0  0  0  0  0  0  0  0
  151.2837  143.4572  157.9569 C   0  0  0  0  0  0  0  0  0  0  0  0
  151.0576  144.4453  159.0909 C   0  0  1  0  0  0  0  0  0  0  0  0
  149.7650  145.0098  158.9909 O   0  0  0  0  0  0  0  0  0  0  0  0
  150.2185  143.5583  160.9063 H   0  0  0  0  0  0  0  0  0  0  0  0
  149.8793  141.9105  158.6595 H   0  0  0  0  0  0  0  0  0  0  0  0
  153.4803  138.5075  155.0466 H   0  0  0  0  0  0  0  0  0  0  0  0
  151.7950  145.2482  159.0583 H   0  0  0  0  0  0  0  0  0  0  0  0
  153.2131  142.7061  162.3968 H   0  0  0  0  0  0  0  0  0  0  0  0
  152.1278  145.0424  161.6826 H   0  0  0  0  0  0  0  0  0  0  0  0
  153.2505  144.0145  160.8075 H   0  0  0  0  0  0  0  0  0  0  0  0
  153.1188  140.4946  159.3925 H   0  0  0  0  0  0  0  0  0  0  0  0
  148.9271  140.6961  154.4795 H   0  0  0  0  0  0  0  0  0  0  0  0
  149.5128  138.5532  153.9349 H   0  0  0  0  0  0  0  0  0  0  0  0
  151.5545  137.8766  153.4803 H   0  0  0  0  0  0  0  0  0  0  0  0
  151.9413  139.5731  153.5970 H   0  0  0  0  0  0  0  0  0  0  0  0
  151.2781  137.0044  155.8379 H   0  0  0  0  0  0  0  0  0  0  0  0
  152.3353  143.4525  157.6660 H   0  0  0  0  0  0  0  0  0  0  0  0
  150.6674  143.6212  157.0719 H   0  0  0  0  0  0  0  0  0  0  0  0
  149.6035  145.2277  158.0854 H   0  0  0  0  0  0  0  0  0  0  0  0
  1  2  1  0  0  0  0
  1 24  1  0  0  0  0
  2  3  1  0  0  0  0
  2 25  1  0  0  0  0
  2 26  1  0  0  0  0
  3 20  1  0  0  0  0
  3 18  1  0  0  0  0
  3  4  1  0  0  0  0
  4  5  1  0  0  0  0
  5 21  1  0  0  0  0
  5  6  1  0  0  0  0
  5 17  1  0  0  0  0
  6 10  1  0  0  0  0
  6  7  1  0  0  0  0
  7  8  2  0  0  0  0
  7 27  1  0  0  0  0
  8  9  1  0  0  0  0
  9 15  1  0  0  0  0
  9 10  2  0  0  0  0
 10 11  1  0  0  0  0
 11 12  2  0  0  0  0
 12 13  1  0  0  0  0
 12 28  1  0  0  0  0
 13 14  1  0  0  0  0
 13 29  1  0  0  0  0
 14 15  1  0  0  0  0
 14 30  1  0  0  0  0
 14 31  1  0  0  0  0
 15 22  1  0  0  0  0
 15 16  1  0  0  0  0
 16 32  1  0  0  0  0
 17 18  1  0  0  0  0
 17 33  1  0  0  0  0
 17 34  1  0  0  0  0
 18 23  1  0  0  0  0
 18 19  1  0  0  0  0
 19 35  1  0  0  0  0
M  END
> <s_m_source_file>
AV-unprocessed.smi

> <i_m_source_file_index>
157

> <i_lp_mmshare_version>
43012

> <i_f3d_flags>
0

> <s_epik_input>
W09IXVtDSDJdW0NASF0xT1tDQEhdKFtDSDJdW0NAQEhdMVtPSF0pbihbY0hdbjIpYyhjMjMpTj1bQ0hdW05IXVtDSDJdW0NASF0zW09IXQ==

> <s_epik_cmdline>
J2VwaWtfcHl0aG9uJywgJy1waCcsICc3LjAnLCAnLXRuJywgJzgnLCAnLW1hJywgJzIwMCcsICctbWV0YWxfYmluZGluZycsICctaW1hZScsICc8aW5maWxlLm1hZT4nLCAnLW9tYWUnLCAnPG91dGZpbGUubWFlPic=

> <r_lp_tautomer_probability>
1

> <r_epik_Ionization_Penalty>
0.0357149

> <r_epik_Ionization_Penalty_Charging>
0.0355056

> <r_epik_Ionization_Penalty_Neutral>
0.000209255

> <r_epik_State_Penalty>
0.0296046

> <r_epik_Charging_Adjusted_Penalty>
0.0651102

> <i_epik_Tot_Q>
0

> <i_epik_Tot_abs_Q>
0

> <r_epik_Metal_State_Penalty>
3.03559e-05

> <b_epik_Metal_Only>
0

> <s_epik_Chemistry_Notes>
This compound has an imine and may undergo hydrolysis. This compound contains an acetal/aminal-like group ( X-CH(R)-Y where X, Y are N, S, or O) that may be acid/base labile, releasing an aldehyde.

> <s_lp_Force_Field>
OPLS_2005

> <r_lp_Energy>
43.6155

> <b_lp_Chiralities_Consistent>
1

> <s_lp_Variant>
AV-unprocessed.smi:157-16

> <Gold.Version>
5.8.1

> <Gold.Id.Protein>
6NUR|6NUR_protein|mol2

> <Gold.PLP.Fitness>
40.2886

> <Gold.PLP.PLP>
-33.4795

> <Gold.PLP.part.hbond>
-5.0000

> <Gold.PLP.part.metal>
0.0000

> <Gold.PLP.part.buried>
-5.3634

> <Gold.PLP.part.nonpolar>
-24.3013

> <Gold.PLP.part.repulsive>
0.1407

> <Gold.PLP.ligand.clash>
0.0000

> <Gold.PLP.ligand.torsion>
0.1824

> <Gold.PLP.Chemscore.Hbond>
2.3829

> <Gold.PLP.Chemscore.CHOScore>
0.0000

> <Gold.PLP.Chemscore.Metal>
0.0000

> <Gold.Chemscore.Hbonds>
donor molecule, donor type, donor heavy atom, donor atom, acceptor molecule, acceptor atom, score
      L1  H    19    35       P1  8029  0.58
      P1  H  7997  8008       L1     8  1.00
      P1  H 10752 10765       L1    16  0.83

> <Gold.PLP.Chemscore.Internal.Correction>
0.0251

> <Gold.Rescore>
     Score         DG    S(hbond)    S(metal)    S(lipo)     H(rot)  DE(clash)    DE(int)     intcor
      7.33      -7.71       1.16        0.00      65.51       3.64       0.05       0.33       ----

> <Gold.Chemscore.Fitness>
7.3326

> <Gold.Chemscore.DG>
-7.7128

> <Gold.Chemscore.ZeroCoef>
-5.4800

> <Gold.Chemscore.Hbond>
1.1607

> <Gold.Chemscore.Metal>
0.0000

> <Gold.Chemscore.Lipo>
65.5117

> <Gold.Chemscore.Internal_Hbond>
0.0000

> <Gold.Chemscore.DEClash>
0.0538

> <Gold.Chemscore.DEInternal>
0.3263

> <Gold.Chemscore.Rot>
3.6362

> <Gold.Chemscore.Internal.Correction>
   9.000000E+99

> <Gold.Chemscore.Hbonds>
donor molecule, donor type, donor heavy atom, donor atom, acceptor molecule, acceptor atom, score
      L1  H    19    35       P1  8029  0.14
      P1  H  7997  8008       L1     8  0.13
      P1  H 10752 10765       L1    16  0.43

> <Gold.Chemscore.Hbond.Weighted>
-3.8766

> <Gold.Chemscore.Metal.Weighted>
-0.0000

> <Gold.Chemscore.Lipo.Weighted>
-7.6649

> <Gold.Chemscore.Internal_Hbond.Weighted>
0.0000

> <Gold.Chemscore.DEClash.Weighted>
0.0538

> <Gold.Chemscore.DEInternal.Weighted>
0.3263

> <Gold.Chemscore.Rot.Weighted>
9.3087

> <Gold.Chemscore.Internal.Correction.Weighted>
   9.000000E+99

> <Gold.Protein.RotatedTorsions>
[ 6907 6896 6895 6894 ] final  -78.46 input  -60.11 | X-H torsion
[ 7974 7965 7964 7962 ] final   72.96 input  175.53 | X-H torsion
[ 8008 7997 7996 7995 ] final  -88.80 input   59.86 | X-H torsion
[ 10167 10162 10161 10158 ] final -122.77 input  -65.29 | X-H torsion
[ 10718 10713 10712 10709 ] final -144.70 input   66.30 | X-H torsion
[ 10763 10752 10751 10750 ] final -159.59 input  -60.55 | X-H torsion
[ 11005 11000 10999 10996 ] final  105.79 input  -57.11 | X-H torsion

> <Gold.Protein.ActiveResidues>
 VAL166  LYS551  ARG553  GLY616  TRP617  ASP618  TYR619  PRO620  LYS621  CYS622 
 ASP623  PHE694  ASN695  SER759  ASP760  ASP761  ALA762  ILE779  LEU786  VAL792 
 PHE793  MET794  SER795  GLU796  ALA797  LYS798  CYS799  TRP800  GLU811  SER814 

> <Gold.Protein.RotatedAtoms>
  150.6972  134.4269  159.5230 H   0  0  0  0  0  0  0  0  0  0  0  0  # atno 6907 bound_to 6896
  152.2002  134.8592  160.0518 H   0  0  0  0  0  0  0  0  0  0  0  0  # atno 6908 bound_to 6896
  151.9514  133.3632  159.4038 H   0  0  0  0  0  0  0  0  0  0  0  0  # atno 6909 bound_to 6896
  145.7469  139.2743  143.1454 H   0  0  0  0  0  0  0  0  0  0  0  0  # atno 7974 bound_to 7965
  154.6791  140.0549  157.0246 H   0  0  0  0  0  0  0  0  0  0  0  0  # atno 8008 bound_to 7997
  155.0978  140.3226  155.4537 H   0  0  0  0  0  0  0  0  0  0  0  0  # atno 8009 bound_to 7997
  156.2687  140.2036  156.6104 H   0  0  0  0  0  0  0  0  0  0  0  0  # atno 8010 bound_to 7997
  140.0107  143.5445  152.2264 H   0  0  0  0  0  0  0  0  0  0  0  0  # atno 10167 bound_to 10162
  156.3733  130.7799  151.1983 H   0  0  0  0  0  0  0  0  0  0  0  0  # atno 10718 bound_to 10713
  154.7462  135.3081  154.8640 H   0  0  0  0  0  0  0  0  0  0  0  0  # atno 10763 bound_to 10752
  153.9440  135.6771  153.4748 H   0  0  0  0  0  0  0  0  0  0  0  0  # atno 10764 bound_to 10752
  153.1059  135.4889  154.8876 H   0  0  0  0  0  0  0  0  0  0  0  0  # atno 10765 bound_to 10752
  139.8806  134.9348  156.5568 H   0  0  0  0  0  0  0  0  0  0  0  0  # atno 11005 bound_to 11000
  146.0394  140.8180  142.9836 LP  0  0  0  0  0  0  0  0  0  0  0  0  # atno 17320 bound_to 7965
  144.6858  140.2888  143.7281 LP  0  0  0  0  0  0  0  0  0  0  0  0  # atno 17321 bound_to 7965
  139.6207  144.7628  151.2746 LP  0  0  0  0  0  0  0  0  0  0  0  0  # atno 17342 bound_to 10162
  140.7383  143.6653  150.8128 LP  0  0  0  0  0  0  0  0  0  0  0  0  # atno 17343 bound_to 10162
  157.7486  131.0365  150.4415 LP  0  0  0  0  0  0  0  0  0  0  0  0  # atno 17370 bound_to 10713
  156.4646  130.4039  149.6555 LP  0  0  0  0  0  0  0  0  0  0  0  0  # atno 17371 bound_to 10713
  140.8199  133.8362  155.8886 LP  0  0  0  0  0  0  0  0  0  0  0  0  # atno 17394 bound_to 11000
  140.9428  134.1879  157.4785 LP  0  0  0  0  0  0  0  0  0  0  0  0  # atno 17395 bound_to 11000

$$$$
