AV-unprocessed.smi:193|AV-procd|sdf|1519|dock9
  -GOLD-   2262019363D 1   1.00000     0.00000
 Structure written by MMmdl.
 61 65  0  0  0  0  0  0  0  0  1 V2000
  151.8433  138.4606  154.8631 C   0  0  0  0  0  0  0  0  0  0  0  0
  150.7453  139.5322  154.9303 C   0  0  1  0  0  0  0  0  0  0  0  0
  149.3937  138.9883  154.4168 C   0  0  0  0  0  0  0  0  0  0  0  0
  148.5259  138.4277  155.4514 N   0  0  0  0  0  0  0  0  0  0  0  0
  147.8836  137.3056  155.0376 C   0  0  0  0  0  0  0  0  0  0  0  0
  148.2464  136.0886  155.5261 N   0  0  0  0  0  0  0  0  0  0  0  0
  147.5966  134.9863  155.1413 C   0  0  0  0  0  0  0  0  0  0  0  0
  146.5718  134.8747  154.2942 N   0  0  0  0  0  0  0  0  0  0  0  0
  146.2036  136.0913  153.8001 C   0  0  0  0  0  0  0  0  0  0  0  0
  146.7969  137.3451  154.1206 C   0  0  0  0  0  0  0  0  0  0  0  0
  146.1515  138.3637  153.4314 N   0  0  0  0  0  0  0  0  0  0  0  0
  145.2282  137.7489  152.7444 C   0  0  0  0  0  0  0  0  0  0  0  0
  145.1951  136.3811  152.8974 N   0  0  0  0  0  0  0  0  0  0  0  0
  144.2771  135.4557  152.2500 C   0  0  0  0  0  0  0  0  0  0  0  0
  144.9281  134.5868  151.1442 C   0  0  0  0  0  0  0  0  0  0  0  0
  145.2693  135.4408  150.0663 O   0  0  0  0  0  0  0  0  0  0  0  0
  146.2206  133.9299  151.6695 C   0  0  0  0  0  0  0  0  0  0  0  0
  146.8128  132.9264  150.6640 C   0  0  0  0  0  0  0  0  0  0  0  0
  145.8382  131.9485  150.3222 O   0  0  0  0  0  0  0  0  0  0  0  0
  144.7039  132.5075  149.6711 C   0  0  0  0  0  0  0  0  0  0  0  0
  143.9818  133.4880  150.6125 C   0  0  0  0  0  0  0  0  0  0  0  0
  147.7196  139.4132  156.1743 C   0  0  0  0  0  0  0  0  0  0  0  0
  148.5220  140.2325  157.1949 C   0  0  0  0  0  0  0  0  0  0  0  0
  149.5748  141.0428  156.5804 N   0  0  0  0  0  0  0  0  0  0  0  0
  149.9600  142.0595  157.5481 C   0  0  1  0  0  0  0  0  0  0  0  0
  151.0168  141.6871  158.5636 C   0  0  0  0  0  0  0  0  0  0  0  0
  151.3549  142.6370  157.4390 C   0  0  2  0  0  0  0  0  0  0  0  0
  151.6076  144.1016  157.7218 C   0  0  0  0  0  0  0  0  0  0  0  0
  150.7431  140.1986  156.3234 C   0  0  0  0  0  0  0  0  0  0  0  0
  151.6580  137.6599  155.5787 H   0  0  0  0  0  0  0  0  0  0  0  0
  152.8205  138.8864  155.0924 H   0  0  0  0  0  0  0  0  0  0  0  0
  151.9056  138.0152  153.8699 H   0  0  0  0  0  0  0  0  0  0  0  0
  151.0356  140.3036  154.2155 H   0  0  0  0  0  0  0  0  0  0  0  0
  148.8514  139.8095  153.9459 H   0  0  0  0  0  0  0  0  0  0  0  0
  149.5687  138.2739  153.6108 H   0  0  0  0  0  0  0  0  0  0  0  0
  147.9459  134.0615  155.5762 H   0  0  0  0  0  0  0  0  0  0  0  0
  144.5460  138.2793  152.0962 H   0  0  0  0  0  0  0  0  0  0  0  0
  143.8290  134.8229  153.0174 H   0  0  0  0  0  0  0  0  0  0  0  0
  143.4595  136.0412  151.8273 H   0  0  0  0  0  0  0  0  0  0  0  0
  145.5697  134.9099  149.3447 H   0  0  0  0  0  0  0  0  0  0  0  0
  146.9617  134.6898  151.9212 H   0  0  0  0  0  0  0  0  0  0  0  0
  146.0036  133.3979  152.5967 H   0  0  0  0  0  0  0  0  0  0  0  0
  147.1697  133.4317  149.7652 H   0  0  0  0  0  0  0  0  0  0  0  0
  147.6735  132.4230  151.1043 H   0  0  0  0  0  0  0  0  0  0  0  0
  145.0078  133.0017  148.7472 H   0  0  0  0  0  0  0  0  0  0  0  0
  144.0294  131.6994  149.3877 H   0  0  0  0  0  0  0  0  0  0  0  0
  143.5768  132.9254  151.4547 H   0  0  0  0  0  0  0  0  0  0  0  0
  143.1266  133.9256  150.0957 H   0  0  0  0  0  0  0  0  0  0  0  0
  147.2294  140.0799  155.4636 H   0  0  0  0  0  0  0  0  0  0  0  0
  146.9221  138.9078  156.7207 H   0  0  0  0  0  0  0  0  0  0  0  0
  147.8123  140.9015  157.6840 H   0  0  0  0  0  0  0  0  0  0  0  0
  148.9191  139.5936  157.9853 H   0  0  0  0  0  0  0  0  0  0  0  0
  149.1965  142.7484  157.9067 H   0  0  0  0  0  0  0  0  0  0  0  0
  150.9150  142.1010  159.5646 H   0  0  0  0  0  0  0  0  0  0  0  0
  151.4407  140.6859  158.5162 H   0  0  0  0  0  0  0  0  0  0  0  0
  151.9848  142.2320  156.6487 H   0  0  0  0  0  0  0  0  0  0  0  0
  150.9607  144.4585  158.5238 H   0  0  0  0  0  0  0  0  0  0  0  0
  151.4121  144.6935  156.8275 H   0  0  0  0  0  0  0  0  0  0  0  0
  152.6455  144.2511  158.0188 H   0  0  0  0  0  0  0  0  0  0  0  0
  150.8539  139.4501  157.1096 H   0  0  0  0  0  0  0  0  0  0  0  0
  151.6475  140.8069  156.3788 H   0  0  0  0  0  0  0  0  0  0  0  0
  1  2  1  0  0  0  0
  1 30  1  0  0  0  0
  1 31  1  0  0  0  0
  1 32  1  0  0  0  0
  2 29  1  0  0  0  0
  2  3  1  0  0  0  0
  2 33  1  0  0  0  0
  3  4  1  0  0  0  0
  3 34  1  0  0  0  0
  3 35  1  0  0  0  0
  4  5  1  0  0  0  0
  4 22  1  0  0  0  0
  5 10  1  0  0  0  0
  5  6  2  0  0  0  0
  6  7  1  0  0  0  0
  7  8  2  0  0  0  0
  7 36  1  0  0  0  0
  8  9  1  0  0  0  0
  9 13  1  0  0  0  0
  9 10  2  0  0  0  0
 10 11  1  0  0  0  0
 11 12  2  0  0  0  0
 12 13  1  0  0  0  0
 12 37  1  0  0  0  0
 13 14  1  0  0  0  0
 14 15  1  0  0  0  0
 14 38  1  0  0  0  0
 14 39  1  0  0  0  0
 15 21  1  0  0  0  0
 15 16  1  0  0  0  0
 15 17  1  0  0  0  0
 16 40  1  0  0  0  0
 17 18  1  0  0  0  0
 17 41  1  0  0  0  0
 17 42  1  0  0  0  0
 18 19  1  0  0  0  0
 18 43  1  0  0  0  0
 18 44  1  0  0  0  0
 19 20  1  0  0  0  0
 20 21  1  0  0  0  0
 20 45  1  0  0  0  0
 20 46  1  0  0  0  0
 21 47  1  0  0  0  0
 21 48  1  0  0  0  0
 22 23  1  0  0  0  0
 22 49  1  0  0  0  0
 22 50  1  0  0  0  0
 23 24  1  0  0  0  0
 23 51  1  0  0  0  0
 23 52  1  0  0  0  0
 24 25  1  0  0  0  0
 24 29  1  0  0  0  0
 25 27  1  0  0  0  0
 25 26  1  0  0  0  0
 25 53  1  0  0  0  0
 26 27  1  0  0  0  0
 26 54  1  0  0  0  0
 26 55  1  0  0  0  0
 27 28  1  0  0  0  0
 27 56  1  0  0  0  0
 28 57  1  0  0  0  0
 28 58  1  0  0  0  0
 28 59  1  0  0  0  0
 29 60  1  0  0  0  0
 29 61  1  0  0  0  0
M  END
> <s_m_source_file>
AV-unprocessed.smi

> <i_m_source_file_index>
193

> <i_lp_mmshare_version>
43012

> <i_f3d_flags>
0

> <s_epik_input>
W0NIM11bQ0BASF0xW0NIMl1bQ0BIXTFOKFtDSDJdMilbQ0gyXVtDSDJdTihbQ0gyXVtDQEhdMltDSDNdKWMobltjSF1uMyljKGMzNCluW2NIXW40W0NIMl1DNShbT0hdKVtDSDJdW0NIMl1PW0NIMl1bQ0gyXTU=

> <s_epik_cmdline>
J2VwaWtfcHl0aG9uJywgJy1waCcsICc3LjAnLCAnLXRuJywgJzgnLCAnLW1hJywgJzIwMCcsICctbWV0YWxfYmluZGluZycsICctaW1hZScsICc8aW5maWxlLm1hZT4nLCAnLW9tYWUnLCAnPG91dGZpbGUubWFlPic=

> <r_lp_tautomer_probability>
1

> <r_epik_Ionization_Penalty>
1.45227

> <r_epik_Ionization_Penalty_Charging>
0

> <r_epik_Ionization_Penalty_Neutral>
1.45227

> <r_epik_State_Penalty>
2.02377

> <r_epik_Charging_Adjusted_Penalty>
2.02377

> <i_epik_Tot_Q>
0

> <i_epik_Tot_abs_Q>
0

> <r_epik_Metal_State_Penalty>
2.01937

> <b_epik_Metal_Only>
0

> <s_lp_Force_Field>
OPLS_2005

> <r_lp_Energy>
55.8214

> <b_lp_Chiralities_Consistent>
1

> <s_lp_Variant>
AV-unprocessed.smi:193-24

> <Gold.Version>
5.8.1

> <Gold.Id.Protein>
6NUR|6NUR_protein|mol2

> <Gold.PLP.Fitness>
46.5416

> <Gold.PLP.PLP>
-39.6981

> <Gold.PLP.part.hbond>
-1.0000

> <Gold.PLP.part.metal>
0.0000

> <Gold.PLP.part.buried>
-4.4324

> <Gold.PLP.part.nonpolar>
-35.1000

> <Gold.PLP.part.repulsive>
0.6267

> <Gold.PLP.ligand.clash>
1.6764

> <Gold.PLP.ligand.torsion>
0.9400

> <Gold.PLP.Chemscore.Hbond>
1.0000

> <Gold.PLP.Chemscore.CHOScore>
1.9949

> <Gold.PLP.Chemscore.Metal>
0.0000

> <Gold.Chemscore.Hbonds>
donor molecule, donor type, donor heavy atom, donor atom, acceptor molecule, acceptor atom, score
      L1  H    16    40       P1  7921  0.96
      L1  C    12    37       P1 10171  1.00
      L1  C    12    37       P1 10175  0.94

> <Gold.PLP.Chemscore.Internal.Correction>
1.4154

> <Gold.Rescore>
     Score         DG    S(hbond)    S(metal)    S(lipo)     H(rot)  DE(clash)    DE(int)     intcor
     13.58     -15.91       1.00        0.00     108.08       2.17       0.11       2.22       ----

> <Gold.Chemscore.Fitness>
13.5798

> <Gold.Chemscore.DG>
-15.9122

> <Gold.Chemscore.ZeroCoef>
-5.4800

> <Gold.Chemscore.Hbond>
0.9980

> <Gold.Chemscore.Metal>
0.0000

> <Gold.Chemscore.Lipo>
108.0768

> <Gold.Chemscore.Internal_Hbond>
0.0000

> <Gold.Chemscore.DEClash>
0.1111

> <Gold.Chemscore.DEInternal>
2.2213

> <Gold.Chemscore.Rot>
2.1664

> <Gold.Chemscore.Internal.Correction>
   9.000000E+99

> <Gold.Chemscore.Hbonds>
donor molecule, donor type, donor heavy atom, donor atom, acceptor molecule, acceptor atom, score
      L1  H    16    40       P1  7921  0.92

> <Gold.Chemscore.Hbond.Weighted>
-3.3332

> <Gold.Chemscore.Metal.Weighted>
-0.0000

> <Gold.Chemscore.Lipo.Weighted>
-12.6450

> <Gold.Chemscore.Internal_Hbond.Weighted>
0.0000

> <Gold.Chemscore.DEClash.Weighted>
0.1111

> <Gold.Chemscore.DEInternal.Weighted>
2.2213

> <Gold.Chemscore.Rot.Weighted>
5.5459

> <Gold.Chemscore.Internal.Correction.Weighted>
   9.000000E+99

> <Gold.Protein.RotatedTorsions>
[ 6907 6896 6895 6894 ] final   37.32 input  -60.11 | X-H torsion
[ 7974 7965 7964 7962 ] final   47.40 input  175.53 | X-H torsion
[ 8008 7997 7996 7995 ] final  -89.67 input   59.86 | X-H torsion
[ 10167 10162 10161 10158 ] final  -51.38 input  -65.29 | X-H torsion
[ 10718 10713 10712 10709 ] final   96.87 input   66.30 | X-H torsion
[ 10763 10752 10751 10750 ] final  144.19 input  -60.55 | X-H torsion
[ 11005 11000 10999 10996 ] final   25.69 input  -57.11 | X-H torsion

> <Gold.Protein.ActiveResidues>
 VAL166  LYS551  ARG553  GLY616  TRP617  ASP618  TYR619  PRO620  LYS621  CYS622 
 ASP623  PHE694  ASN695  SER759  ASP760  ASP761  ALA762  ILE779  LEU786  VAL792 
 PHE793  MET794  SER795  GLU796  ALA797  LYS798  CYS799  TRP800  GLU811  SER814 

> <Gold.Protein.RotatedAtoms>
  152.1415  134.9058  160.0553 H   0  0  0  0  0  0  0  0  0  0  0  0  # atno 6907 bound_to 6896
  152.0124  133.3862  159.4233 H   0  0  0  0  0  0  0  0  0  0  0  0  # atno 6908 bound_to 6896
  150.6865  134.3637  159.5005 H   0  0  0  0  0  0  0  0  0  0  0  0  # atno 6909 bound_to 6896
  146.0301  139.4753  142.9843 H   0  0  0  0  0  0  0  0  0  0  0  0  # atno 7974 bound_to 7965
  154.6893  140.0539  157.0347 H   0  0  0  0  0  0  0  0  0  0  0  0  # atno 8008 bound_to 7997
  155.0839  140.3212  155.4574 H   0  0  0  0  0  0  0  0  0  0  0  0  # atno 8009 bound_to 7997
  156.2723  140.2060  156.5967 H   0  0  0  0  0  0  0  0  0  0  0  0  # atno 8010 bound_to 7997
  140.6591  143.2622  151.4496 H   0  0  0  0  0  0  0  0  0  0  0  0  # atno 10167 bound_to 10162
  157.6921  131.0591  150.4557 H   0  0  0  0  0  0  0  0  0  0  0  0  # atno 10718 bound_to 10713
  153.9849  135.2938  155.3417 H   0  0  0  0  0  0  0  0  0  0  0  0  # atno 10763 bound_to 10752
  154.7248  135.5093  153.8872 H   0  0  0  0  0  0  0  0  0  0  0  0  # atno 10764 bound_to 10752
  153.0837  135.6687  154.0108 H   0  0  0  0  0  0  0  0  0  0  0  0  # atno 10765 bound_to 10752
  140.3452  134.2290  155.7685 H   0  0  0  0  0  0  0  0  0  0  0  0  # atno 11005 bound_to 11000
  145.7054  141.0123  143.1481 LP  0  0  0  0  0  0  0  0  0  0  0  0  # atno 17320 bound_to 7965
  144.7026  139.8694  143.7439 LP  0  0  0  0  0  0  0  0  0  0  0  0  # atno 17321 bound_to 7965
  139.5820  144.1688  152.1981 LP  0  0  0  0  0  0  0  0  0  0  0  0  # atno 17342 bound_to 10162
  140.1016  144.5534  150.6985 LP  0  0  0  0  0  0  0  0  0  0  0  0  # atno 17343 bound_to 10162
  156.4905  130.4094  149.6409 LP  0  0  0  0  0  0  0  0  0  0  0  0  # atno 17370 bound_to 10713
  156.3421  130.7388  151.2334 LP  0  0  0  0  0  0  0  0  0  0  0  0  # atno 17371 bound_to 10713
  141.2028  133.7929  157.0374 LP  0  0  0  0  0  0  0  0  0  0  0  0  # atno 17394 bound_to 11000
  140.0748  134.9681  157.1528 LP  0  0  0  0  0  0  0  0  0  0  0  0  # atno 17395 bound_to 11000

$$$$
