AV-unprocessed.smi:2099|AV-procd|sdf|8571|dock2
  -GOLD-   2272011303D 1   1.00000     0.00000
 Structure written by MMmdl.
 31 32  0  0  0  0  0  0  0  0  2 V2000
  153.5840  142.2537  161.4283 C   0  0  0  0  0  0  0  0  0  0  0  0
  152.5194  142.3785  160.3292 C   0  0  2  0  0  0  0  0  0  0  0  0
  152.3301  141.0493  159.5735 C   0  0  0  0  0  0  0  0  0  0  0  0
  151.2672  141.1707  158.4695 C   0  0  0  0  0  0  0  0  0  0  0  0
  151.6041  142.3089  157.4851 C   0  0  1  0  0  0  0  0  0  0  0  0
  150.5483  142.4596  156.4870 N   0  0  0  0  0  0  0  0  0  0  0  0
  150.2759  141.6069  155.4884 C   0  0  0  0  0  0  0  0  0  0  0  0
  150.9459  140.5800  155.3548 O   0  0  0  0  0  0  0  0  0  0  0  0
  149.2441  141.9969  154.7057 N   0  5  0  0  0  0  0  0  0  0  0  0
  148.4358  141.0775  154.1526 C   0  0  0  0  0  0  0  0  0  0  0  0
  148.7580  139.7751  154.1033 N   0  0  0  0  0  0  0  0  0  0  0  0
  147.7846  138.9945  153.4943 N   0  0  0  0  0  0  0  0  0  0  0  0
  146.7438  139.7309  153.1068 C   0  0  0  0  0  0  0  0  0  0  0  0
  146.8563  141.4437  153.4530 S   0  0  0  0  0  0  0  0  0  0  0  0
  151.7943  143.6375  158.2392 C   0  0  0  0  0  0  0  0  0  0  0  0
  152.8576  143.5120  159.3423 C   0  0  0  0  0  0  0  0  0  0  0  0
  154.5602  142.0089  161.0086 H   0  0  0  0  0  0  0  0  0  0  0  0
  153.3222  141.4714  162.1412 H   0  0  0  0  0  0  0  0  0  0  0  0
  153.6848  143.1859  161.9847 H   0  0  0  0  0  0  0  0  0  0  0  0
  151.5742  142.6265  160.8145 H   0  0  0  0  0  0  0  0  0  0  0  0
  153.2771  140.7383  159.1303 H   0  0  0  0  0  0  0  0  0  0  0  0
  152.0421  140.2613  160.2701 H   0  0  0  0  0  0  0  0  0  0  0  0
  151.1867  140.2227  157.9367 H   0  0  0  0  0  0  0  0  0  0  0  0
  150.2920  141.3521  158.9240 H   0  0  0  0  0  0  0  0  0  0  0  0
  152.5412  142.0725  156.9773 H   0  0  0  0  0  0  0  0  0  0  0  0
  149.9716  143.2851  156.5572 H   0  0  0  0  0  0  0  0  0  0  0  0
  145.9031  139.2624  152.6173 H   0  0  0  0  0  0  0  0  0  0  0  0
  152.0818  144.4249  157.5413 H   0  0  0  0  0  0  0  0  0  0  0  0
  150.8480  143.9495  158.6836 H   0  0  0  0  0  0  0  0  0  0  0  0
  152.9419  144.4593  159.8761 H   0  0  0  0  0  0  0  0  0  0  0  0
  153.8314  143.3270  158.8868 H   0  0  0  0  0  0  0  0  0  0  0  0
  1  2  1  0  0  0  0
  1 17  1  0  0  0  0
  1 18  1  0  0  0  0
  1 19  1  0  0  0  0
  2 16  1  0  0  0  0
  2  3  1  0  0  0  0
  2 20  1  0  0  0  0
  3  4  1  0  0  0  0
  3 21  1  0  0  0  0
  3 22  1  0  0  0  0
  4  5  1  0  0  0  0
  4 23  1  0  0  0  0
  4 24  1  0  0  0  0
  5  6  1  0  0  0  0
  5 15  1  0  0  0  0
  5 25  1  0  0  0  0
  6  7  1  0  0  0  0
  6 26  1  0  0  0  0
  7  8  2  0  0  0  0
  7  9  1  0  0  0  0
  9 10  1  0  0  0  0
 10 14  1  0  0  0  0
 10 11  2  0  0  0  0
 11 12  1  0  0  0  0
 12 13  2  0  0  0  0
 13 14  1  0  0  0  0
 13 27  1  0  0  0  0
 15 16  1  0  0  0  0
 15 28  1  0  0  0  0
 15 29  1  0  0  0  0
 16 30  1  0  0  0  0
 16 31  1  0  0  0  0
M  CHG  1   9  -1
M  END
> <s_m_source_file>
AV-unprocessed.smi

> <i_m_source_file_index>
2099

> <i_lp_mmshare_version>
43012

> <i_f3d_flags>
0

> <s_epik_input>
W0NIM11bQ0BASF0xW0NIMl1bQ0gyXVtDQEhdKFtDSDJdW0NIMl0xKVtOSF1DKD1PKVtOSF1jMm5uW2NIXXMy

> <s_epik_cmdline>
J2VwaWtfcHl0aG9uJywgJy1waCcsICc3LjAnLCAnLXRuJywgJzgnLCAnLW1hJywgJzIwMCcsICctbWV0YWxfYmluZGluZycsICctaW1hZScsICc8aW5maWxlLm1hZT4nLCAnLW9tYWUnLCAnPG91dGZpbGUubWFlPic=

> <r_lp_tautomer_probability>
1

> <r_epik_Ionization_Penalty>
4.54895

> <r_epik_Ionization_Penalty_Charging>
4.4996

> <r_epik_Ionization_Penalty_Neutral>
0.0493438

> <r_epik_State_Penalty>
4.4993

> <r_epik_Charging_Adjusted_Penalty>
8.99891

> <i_epik_Tot_Q>
-1

> <i_epik_Tot_abs_Q>
1

> <r_epik_Metal_State_Penalty>
0.819079

> <b_epik_Metal_Only>
1

> <s_lp_Force_Field>
OPLS_2005

> <r_lp_Energy>
6.68644

> <b_lp_Chiralities_Consistent>
1

> <s_lp_Variant>
AV-unprocessed.smi:2099-3

> <Gold.Version>
5.8.1

> <Gold.Id.Protein>
6NUR|6NUR_protein|mol2

> <Gold.PLP.Fitness>
39.8276

> <Gold.PLP.PLP>
-32.5134

> <Gold.PLP.part.hbond>
-2.9376

> <Gold.PLP.part.metal>
0.0000

> <Gold.PLP.part.buried>
-5.3580

> <Gold.PLP.part.nonpolar>
-25.6422

> <Gold.PLP.part.repulsive>
2.4858

> <Gold.PLP.ligand.clash>
0.0000

> <Gold.PLP.ligand.torsion>
0.4073

> <Gold.PLP.Chemscore.Hbond>
1.9040

> <Gold.PLP.Chemscore.CHOScore>
0.8043

> <Gold.PLP.Chemscore.Metal>
0.0000

> <Gold.Chemscore.Hbonds>
donor molecule, donor type, donor heavy atom, donor atom, acceptor molecule, acceptor atom, score
      L1  H     6    26       P1  8028  0.99
      P1  H  7989  7998       L1     8  0.88
      L1  C    13    27       P1 10175  0.81

> <Gold.PLP.Chemscore.Internal.Correction>
0.0039

> <Gold.Rescore>
     Score         DG    S(hbond)    S(metal)    S(lipo)     H(rot)  DE(clash)    DE(int)     intcor
     14.55     -16.77       1.15        0.00      85.57       1.00       0.29       1.93       ----

> <Gold.Chemscore.Fitness>
14.5542

> <Gold.Chemscore.DG>
-16.7733

> <Gold.Chemscore.ZeroCoef>
-5.4800

> <Gold.Chemscore.Hbond>
1.1503

> <Gold.Chemscore.Metal>
0.0000

> <Gold.Chemscore.Lipo>
85.5651

> <Gold.Chemscore.Internal_Hbond>
0.0000

> <Gold.Chemscore.DEClash>
0.2865

> <Gold.Chemscore.DEInternal>
1.9325

> <Gold.Chemscore.Rot>
1.0000

> <Gold.Chemscore.Internal.Correction>
   9.000000E+99

> <Gold.Chemscore.Hbonds>
donor molecule, donor type, donor heavy atom, donor atom, acceptor molecule, acceptor atom, score
      L1  H     6    26       P1  8028  0.90
      P1  H  7989  7998       L1     8  0.19

> <Gold.Chemscore.Hbond.Weighted>
-3.8421

> <Gold.Chemscore.Metal.Weighted>
-0.0000

> <Gold.Chemscore.Lipo.Weighted>
-10.0111

> <Gold.Chemscore.Internal_Hbond.Weighted>
0.0000

> <Gold.Chemscore.DEClash.Weighted>
0.2865

> <Gold.Chemscore.DEInternal.Weighted>
1.9325

> <Gold.Chemscore.Rot.Weighted>
2.5600

> <Gold.Chemscore.Internal.Correction.Weighted>
   9.000000E+99

> <Gold.Protein.RotatedTorsions>
[ 6907 6896 6895 6894 ] final  -12.95 input  -60.11 | X-H torsion
[ 7974 7965 7964 7962 ] final  152.18 input  175.53 | X-H torsion
[ 8008 7997 7996 7995 ] final -120.97 input   59.86 | X-H torsion
[ 10167 10162 10161 10158 ] final -137.78 input  -65.29 | X-H torsion
[ 10718 10713 10712 10709 ] final   67.46 input   66.30 | X-H torsion
[ 10763 10752 10751 10750 ] final   25.80 input  -60.55 | X-H torsion
[ 11005 11000 10999 10996 ] final   47.54 input  -57.11 | X-H torsion

> <Gold.Protein.ActiveResidues>
 VAL166  LYS551  ARG553  GLY616  TRP617  ASP618  TYR619  PRO620  LYS621  CYS622 
 ASP623  PHE694  ASN695  SER759  ASP760  ASP761  ALA762  ILE779  LEU786  VAL792 
 PHE793  MET794  SER795  GLU796  ALA797  LYS798  CYS799  TRP800  GLU811  SER814 

> <Gold.Protein.RotatedAtoms>
  151.3626  135.0907  159.9439 H   0  0  0  0  0  0  0  0  0  0  0  0  # atno 6907 bound_to 6896
  152.5158  133.9243  159.7560 H   0  0  0  0  0  0  0  0  0  0  0  0  # atno 6908 bound_to 6896
  150.9641  133.6359  159.2778 H   0  0  0  0  0  0  0  0  0  0  0  0  # atno 6909 bound_to 6896
  144.8240  139.6635  143.6088 H   0  0  0  0  0  0  0  0  0  0  0  0  # atno 7974 bound_to 7965
  155.1405  140.0402  157.2797 H   0  0  0  0  0  0  0  0  0  0  0  0  # atno 8008 bound_to 7997
  154.6476  140.2562  155.7223 H   0  0  0  0  0  0  0  0  0  0  0  0  # atno 8009 bound_to 7997
  156.2562  140.2843  156.0897 H   0  0  0  0  0  0  0  0  0  0  0  0  # atno 8010 bound_to 7997
  139.8543  143.7158  152.2655 H   0  0  0  0  0  0  0  0  0  0  0  0  # atno 10167 bound_to 10162
  157.6231  130.9322  150.0245 H   0  0  0  0  0  0  0  0  0  0  0  0  # atno 10718 bound_to 10713
  153.0666  135.6575  154.0340 H   0  0  0  0  0  0  0  0  0  0  0  0  # atno 10763 bound_to 10752
  153.9996  135.2938  155.3405 H   0  0  0  0  0  0  0  0  0  0  0  0  # atno 10764 bound_to 10752
  154.7026  135.5238  153.8618 H   0  0  0  0  0  0  0  0  0  0  0  0  # atno 10765 bound_to 10752
  140.1270  134.4755  155.8551 H   0  0  0  0  0  0  0  0  0  0  0  0  # atno 11005 bound_to 11000
  146.2546  139.6273  142.9404 LP  0  0  0  0  0  0  0  0  0  0  0  0  # atno 17320 bound_to 7965
  145.5041  141.0437  143.2524 LP  0  0  0  0  0  0  0  0  0  0  0  0  # atno 17321 bound_to 7965
  139.7434  144.7553  151.0616 LP  0  0  0  0  0  0  0  0  0  0  0  0  # atno 17342 bound_to 10162
  140.7783  143.4945  150.9851 LP  0  0  0  0  0  0  0  0  0  0  0  0  # atno 17343 bound_to 10162
  156.1388  130.3642  149.9615 LP  0  0  0  0  0  0  0  0  0  0  0  0  # atno 17370 bound_to 10713
  156.7660  130.9168  151.3643 LP  0  0  0  0  0  0  0  0  0  0  0  0  # atno 17371 bound_to 10713
  141.2163  133.6781  156.6997 LP  0  0  0  0  0  0  0  0  0  0  0  0  # atno 17394 bound_to 11000
  140.2891  134.8255  157.4001 LP  0  0  0  0  0  0  0  0  0  0  0  0  # atno 17395 bound_to 11000

$$$$
