AV-unprocessed.smi:1231|AV-procd|sdf|5163|dock10
  -GOLD-   22720 4233D 1   1.00000     0.00000
 Structure written by MMmdl.
 43 44  0  0  0  0  0  0  0  0  2 V2000
  152.7667  139.2472  154.0049 C   0  0  0  0  0  0  0  0  0  0  0  0
  151.4026  138.5492  153.9750 C   0  0  2  0  0  0  0  0  0  0  0  0
  150.3007  139.4609  153.4061 C   0  0  0  0  0  0  0  0  0  0  0  0
  148.9835  138.7875  153.4755 N   0  3  2  0  0  0  0  0  0  0  0  0
  147.9060  139.5857  152.8406 C   0  0  0  0  0  0  0  0  0  0  0  0
  146.5878  138.7972  152.7123 C   0  0  0  0  0  0  0  0  0  0  0  0
  146.8231  137.4192  152.2968 N   0  0  0  0  0  0  0  0  0  0  0  0
  145.8743  136.4763  152.2007 C   0  0  0  0  0  0  0  0  0  0  0  0
  144.6869  136.6859  152.4517 O   0  0  0  0  0  0  0  0  0  0  0  0
  146.3913  135.3007  151.8026 N   0  0  0  0  0  0  0  0  0  0  0  0
  145.7077  134.0796  151.5591 C   0  0  0  0  0  0  0  0  0  0  0  0
  146.5408  132.9719  151.2830 C   0  0  0  0  0  0  0  0  0  0  0  0
  145.9595  131.7153  151.0247 C   0  0  0  0  0  0  0  0  0  0  0  0
  144.5582  131.5992  151.0474 C   0  0  0  0  0  0  0  0  0  0  0  0
  143.8019  132.7515  151.3298 C   0  0  0  0  0  0  0  0  0  0  0  0
  144.3569  133.9567  151.5782 N   0  0  0  0  0  0  0  0  0  0  0  0
  148.6840  138.3916  154.8739 C   0  0  0  0  0  0  0  0  0  0  0  0
  149.8133  137.5207  155.4576 C   0  0  1  0  0  0  0  0  0  0  0  0
  149.8349  136.0882  154.8950 C   0  0  0  0  0  0  0  0  0  0  0  0
  151.0711  138.1800  155.3109 O   0  0  0  0  0  0  0  0  0  0  0  0
  153.0813  139.5389  153.0026 H   0  0  0  0  0  0  0  0  0  0  0  0
  153.5322  138.5879  154.4146 H   0  0  0  0  0  0  0  0  0  0  0  0
  152.7371  140.1460  154.6216 H   0  0  0  0  0  0  0  0  0  0  0  0
  151.4944  137.6553  153.3575 H   0  0  0  0  0  0  0  0  0  0  0  0
  150.2589  140.4003  153.9605 H   0  0  0  0  0  0  0  0  0  0  0  0
  150.5342  139.7110  152.3703 H   0  0  0  0  0  0  0  0  0  0  0  0
  147.7611  140.5105  153.4010 H   0  0  0  0  0  0  0  0  0  0  0  0
  148.2224  139.8794  151.8385 H   0  0  0  0  0  0  0  0  0  0  0  0
  146.0711  138.7783  153.6721 H   0  0  0  0  0  0  0  0  0  0  0  0
  145.9068  139.2675  152.0026 H   0  0  0  0  0  0  0  0  0  0  0  0
  147.7746  137.1638  152.0758 H   0  0  0  0  0  0  0  0  0  0  0  0
  147.3886  135.2765  151.6498 H   0  0  0  0  0  0  0  0  0  0  0  0
  147.6156  133.0791  151.2684 H   0  0  0  0  0  0  0  0  0  0  0  0
  146.5787  130.8563  150.8119 H   0  0  0  0  0  0  0  0  0  0  0  0
  144.0756  130.6526  150.8540 H   0  0  0  0  0  0  0  0  0  0  0  0
  142.7233  132.7054  151.3567 H   0  0  0  0  0  0  0  0  0  0  0  0
  148.5655  139.2908  155.4807 H   0  0  0  0  0  0  0  0  0  0  0  0
  147.7411  137.8491  154.9334 H   0  0  0  0  0  0  0  0  0  0  0  0
  149.6433  137.4333  156.5310 H   0  0  0  0  0  0  0  0  0  0  0  0
  148.9110  135.5639  155.1406 H   0  0  0  0  0  0  0  0  0  0  0  0
  150.6601  135.5162  155.3194 H   0  0  0  0  0  0  0  0  0  0  0  0
  149.9374  136.0696  153.8102 H   0  0  0  0  0  0  0  0  0  0  0  0
  149.0697  137.9377  152.9366 H   0  0  0  0  0  0  0  0  0  0  0  0
  1  2  1  0  0  0  0
  1 21  1  0  0  0  0
  1 22  1  0  0  0  0
  1 23  1  0  0  0  0
  2 20  1  0  0  0  0
  2  3  1  0  0  0  0
  2 24  1  0  0  0  0
  3  4  1  0  0  0  0
  3 25  1  0  0  0  0
  3 26  1  0  0  0  0
  4  5  1  0  0  0  0
  4 17  1  0  0  0  0
  4 43  1  0  0  0  0
  5  6  1  0  0  0  0
  5 27  1  0  0  0  0
  5 28  1  0  0  0  0
  6  7  1  0  0  0  0
  6 29  1  0  0  0  0
  6 30  1  0  0  0  0
  7  8  1  0  0  0  0
  7 31  1  0  0  0  0
  8  9  2  0  0  0  0
  8 10  1  0  0  0  0
 10 11  1  0  0  0  0
 10 32  1  0  0  0  0
 11 16  1  0  0  0  0
 11 12  2  0  0  0  0
 12 13  1  0  0  0  0
 12 33  1  0  0  0  0
 13 14  2  0  0  0  0
 13 34  1  0  0  0  0
 14 15  1  0  0  0  0
 14 35  1  0  0  0  0
 15 16  2  0  0  0  0
 15 36  1  0  0  0  0
 17 18  1  0  0  0  0
 17 37  1  0  0  0  0
 17 38  1  0  0  0  0
 18 19  1  0  0  0  0
 18 20  1  0  0  0  0
 18 39  1  0  0  0  0
 19 40  1  0  0  0  0
 19 41  1  0  0  0  0
 19 42  1  0  0  0  0
M  CHG  1   4   1
M  END
> <s_m_source_file>
AV-unprocessed.smi

> <i_m_source_file_index>
1231

> <i_lp_mmshare_version>
43012

> <i_f3d_flags>
0

> <s_epik_input>
W0NIM11bQ0BASF0xW0NIMl1OKFtDSDJdW0NASF0oTzEpW0NIM10pW0NIMl1bQ0gyXVtOSF1DKD1PKVtOSF1jMltjSF1bY0hdW2NIXVtjSF1uMg==

> <s_epik_cmdline>
J2VwaWtfcHl0aG9uJywgJy1waCcsICc3LjAnLCAnLXRuJywgJzgnLCAnLW1hJywgJzIwMCcsICctbWV0YWxfYmluZGluZycsICctaW1hZScsICc8aW5maWxlLm1hZT4nLCAnLW9tYWUnLCAnPG91dGZpbGUubWFlPic=

> <r_epik_Ionization_Penalty>
0.602565

> <r_epik_Ionization_Penalty_Charging>
0.602531

> <r_epik_Ionization_Penalty_Neutral>
3.43186e-05

> <r_epik_State_Penalty>
0.617039

> <r_epik_Charging_Adjusted_Penalty>
1.21957

> <i_epik_Tot_Q>
1

> <i_epik_Tot_abs_Q>
1

> <r_epik_Metal_State_Penalty>
0.617041

> <b_epik_Metal_Only>
0

> <s_lp_Force_Field>
OPLS_2005

> <r_lp_Energy>
18.1203

> <b_lp_Chiralities_Consistent>
1

> <s_lp_Variant>
AV-unprocessed.smi:1231-4

> <Gold.Version>
5.8.1

> <Gold.Id.Protein>
6NUR|6NUR_protein|mol2

> <Gold.PLP.Fitness>
49.7380

> <Gold.PLP.PLP>
-35.1438

> <Gold.PLP.part.hbond>
-2.8492

> <Gold.PLP.part.metal>
0.0000

> <Gold.PLP.part.buried>
-3.3051

> <Gold.PLP.part.nonpolar>
-28.9379

> <Gold.PLP.part.repulsive>
0.5001

> <Gold.PLP.ligand.clash>
0.0000

> <Gold.PLP.ligand.torsion>
0.1277

> <Gold.PLP.Chemscore.Hbond>
3.9440

> <Gold.PLP.Chemscore.CHOScore>
1.0000

> <Gold.PLP.Chemscore.Metal>
0.0000

> <Gold.Chemscore.Hbonds>
donor molecule, donor type, donor heavy atom, donor atom, acceptor molecule, acceptor atom, score
      L1  H     4    43       P1  7948  2.00
      L1  H     7    31       P1  7948  0.93
      L1  H    10    32       P1  7948  0.91

> <Gold.PLP.Chemscore.Internal.Correction>
0.0177

> <Gold.Rescore>
     Score         DG    S(hbond)    S(metal)    S(lipo)     H(rot)  DE(clash)    DE(int)     intcor
     19.24     -20.84       2.82        0.00      84.79       1.55       0.11       1.49       ----

> <Gold.Chemscore.Fitness>
19.2406

> <Gold.Chemscore.DG>
-20.8394

> <Gold.Chemscore.ZeroCoef>
-5.4800

> <Gold.Chemscore.Hbond>
2.8200

> <Gold.Chemscore.Metal>
0.0000

> <Gold.Chemscore.Lipo>
84.7881

> <Gold.Chemscore.Internal_Hbond>
0.0000

> <Gold.Chemscore.DEClash>
0.1107

> <Gold.Chemscore.DEInternal>
1.4881

> <Gold.Chemscore.Rot>
1.5546

> <Gold.Chemscore.Internal.Correction>
   9.000000E+99

> <Gold.Chemscore.Hbonds>
donor molecule, donor type, donor heavy atom, donor atom, acceptor molecule, acceptor atom, score
      L1  H     4    43       P1  7948  0.96
      L1  H     7    31       P1  7948  0.88
      L1  H    10    32       P1  7948  0.83

> <Gold.Chemscore.Hbond.Weighted>
-9.4189

> <Gold.Chemscore.Metal.Weighted>
-0.0000

> <Gold.Chemscore.Lipo.Weighted>
-9.9202

> <Gold.Chemscore.Internal_Hbond.Weighted>
0.0000

> <Gold.Chemscore.DEClash.Weighted>
0.1107

> <Gold.Chemscore.DEInternal.Weighted>
1.4881

> <Gold.Chemscore.Rot.Weighted>
3.9797

> <Gold.Chemscore.Internal.Correction.Weighted>
   9.000000E+99

> <Gold.Protein.RotatedTorsions>
[ 6907 6896 6895 6894 ] final   79.74 input  -60.11 | X-H torsion
[ 7974 7965 7964 7962 ] final   34.46 input  175.53 | X-H torsion
[ 8008 7997 7996 7995 ] final  158.30 input   59.86 | X-H torsion
[ 10167 10162 10161 10158 ] final -106.60 input  -65.29 | X-H torsion
[ 10718 10713 10712 10709 ] final   45.11 input   66.30 | X-H torsion
[ 10763 10752 10751 10750 ] final  -38.49 input  -60.55 | X-H torsion
[ 11005 11000 10999 10996 ] final -136.56 input  -57.11 | X-H torsion

> <Gold.Protein.ActiveResidues>
 VAL166  LYS551  ARG553  GLY616  TRP617  ASP618  TYR619  PRO620  LYS621  CYS622 
 ASP623  PHE694  ASN695  SER759  ASP760  ASP761  ALA762  ILE779  LEU786  VAL792 
 PHE793  MET794  SER795  GLU796  ALA797  LYS798  CYS799  TRP800  GLU811  SER814 

> <Gold.Protein.RotatedAtoms>
  152.5209  134.3465  159.9235 H   0  0  0  0  0  0  0  0  0  0  0  0  # atno 6907 bound_to 6896
  151.3415  133.3954  159.2679 H   0  0  0  0  0  0  0  0  0  0  0  0  # atno 6908 bound_to 6896
  150.9799  134.9175  159.7896 H   0  0  0  0  0  0  0  0  0  0  0  0  # atno 6909 bound_to 6896
  146.1351  139.6267  142.9200 H   0  0  0  0  0  0  0  0  0  0  0  0  # atno 7974 bound_to 7965
  156.2311  140.1862  156.7240 H   0  0  0  0  0  0  0  0  0  0  0  0  # atno 8008 bound_to 7997
  154.6024  140.0634  156.9414 H   0  0  0  0  0  0  0  0  0  0  0  0  # atno 8009 bound_to 7997
  155.2152  140.3303  155.4326 H   0  0  0  0  0  0  0  0  0  0  0  0  # atno 8010 bound_to 7997
  140.1860  143.3929  152.1244 H   0  0  0  0  0  0  0  0  0  0  0  0  # atno 10167 bound_to 10162
  157.4340  130.8042  149.7630 H   0  0  0  0  0  0  0  0  0  0  0  0  # atno 10718 bound_to 10713
  153.9137  135.6789  153.4750 H   0  0  0  0  0  0  0  0  0  0  0  0  # atno 10763 bound_to 10752
  153.1065  135.4803  154.8957 H   0  0  0  0  0  0  0  0  0  0  0  0  # atno 10764 bound_to 10752
  154.7513  135.3186  154.8507 H   0  0  0  0  0  0  0  0  0  0  0  0  # atno 10765 bound_to 10752
  140.8793  134.1952  157.4601 H   0  0  0  0  0  0  0  0  0  0  0  0  # atno 11005 bound_to 11000
  145.5173  141.0433  143.2455 LP  0  0  0  0  0  0  0  0  0  0  0  0  # atno 17320 bound_to 7965
  144.7732  139.6689  143.7186 LP  0  0  0  0  0  0  0  0  0  0  0  0  # atno 17321 bound_to 7965
  139.5276  144.7121  151.5173 LP  0  0  0  0  0  0  0  0  0  0  0  0  # atno 17342 bound_to 10162
  140.6488  143.8740  150.6764 LP  0  0  0  0  0  0  0  0  0  0  0  0  # atno 17343 bound_to 10162
  155.9924  130.3931  150.2945 LP  0  0  0  0  0  0  0  0  0  0  0  0  # atno 17370 bound_to 10713
  157.1104  131.0220  151.3050 LP  0  0  0  0  0  0  0  0  0  0  0  0  # atno 17371 bound_to 10713
  139.8718  134.9810  156.5099 LP  0  0  0  0  0  0  0  0  0  0  0  0  # atno 17394 bound_to 11000
  140.8480  133.8154  155.9140 LP  0  0  0  0  0  0  0  0  0  0  0  0  # atno 17395 bound_to 11000

$$$$
