AV-unprocessed.smi:157|AV-procd|sdf|1311|dock4
  -GOLD-   2262019 03D 1   1.00000     0.00000
 Structure written by MMmdl.
 36 38  0  0  0  0  0  0  0  0  2 V2000
  149.7242  138.6646  153.1052 O   0  0  0  0  0  0  0  0  0  0  0  0
  149.1542  138.6638  154.3963 C   0  0  0  0  0  0  0  0  0  0  0  0
  150.1940  138.2252  155.4403 C   0  0  1  0  0  0  0  0  0  0  0  0
  151.3794  139.0197  155.3301 O   0  0  0  0  0  0  0  0  0  0  0  0
  151.8162  139.4382  156.5918 C   0  0  1  0  0  0  0  0  0  0  0  0
  151.4569  140.8862  156.7687 N   0  0  0  0  0  0  0  0  0  0  0  0
  150.7686  141.6689  155.9087 C   0  0  0  0  0  0  0  0  0  0  0  0
  150.6111  142.9184  156.3109 N   0  3  0  0  0  0  0  0  0  0  0  0
  151.2503  143.0204  157.5274 C   0  0  0  0  0  0  0  0  0  0  0  0
  151.7700  141.7511  157.7937 C   0  0  0  0  0  0  0  0  0  0  0  0
  152.5233  141.3026  158.8895 N   0  0  0  0  0  0  0  0  0  0  0  0
  152.6024  141.9548  160.0036 C   0  0  0  0  0  0  0  0  0  0  0  0
  152.0873  143.1992  160.3256 N   0  0  0  0  0  0  0  0  0  0  0  0
  152.2210  144.3585  159.4615 C   0  0  0  0  0  0  0  0  0  0  0  0
  151.2841  144.3328  158.2466 C   0  0  2  0  0  0  0  0  0  0  0  0
  150.0013  144.7595  158.6568 O   0  0  0  0  0  0  0  0  0  0  0  0
  151.0608  138.5818  157.6075 C   0  0  0  0  0  0  0  0  0  0  0  0
  149.7400  138.3679  156.8987 C   0  0  2  0  0  0  0  0  0  0  0  0
  149.0986  137.2069  157.3833 O   0  0  0  0  0  0  0  0  0  0  0  0
  150.5032  137.1960  155.2476 H   0  0  0  0  0  0  0  0  0  0  0  0
  152.9019  139.4085  156.6896 H   0  0  0  0  0  0  0  0  0  0  0  0
  151.6384  145.0859  157.5419 H   0  0  0  0  0  0  0  0  0  0  0  0
  149.0948  139.2380  157.0280 H   0  0  0  0  0  0  0  0  0  0  0  0
  149.7674  137.7732  152.7939 H   0  0  0  0  0  0  0  0  0  0  0  0
  148.8068  139.6736  154.6162 H   0  0  0  0  0  0  0  0  0  0  0  0
  148.2816  138.0112  154.4053 H   0  0  0  0  0  0  0  0  0  0  0  0
  150.3856  141.3109  154.9709 H   0  0  0  0  0  0  0  0  0  0  0  0
  153.1470  141.5097  160.8375 H   0  0  0  0  0  0  0  0  0  0  0  0
  152.0456  143.4679  161.2987 H   0  0  0  0  0  0  0  0  0  0  0  0
  152.0766  145.2694  160.0437 H   0  0  0  0  0  0  0  0  0  0  0  0
  153.2538  144.3853  159.1104 H   0  0  0  0  0  0  0  0  0  0  0  0
  149.6365  145.3155  157.9857 H   0  0  0  0  0  0  0  0  0  0  0  0
  151.5999  137.6409  157.7288 H   0  0  0  0  0  0  0  0  0  0  0  0
  150.9696  139.0631  158.5813 H   0  0  0  0  0  0  0  0  0  0  0  0
  148.8904  136.6496  156.6483 H   0  0  0  0  0  0  0  0  0  0  0  0
  150.1301  143.6550  155.8106 H   0  0  0  0  0  0  0  0  0  0  0  0
  1  2  1  0  0  0  0
  1 24  1  0  0  0  0
  2  3  1  0  0  0  0
  2 25  1  0  0  0  0
  2 26  1  0  0  0  0
  3 20  1  0  0  0  0
  3 18  1  0  0  0  0
  3  4  1  0  0  0  0
  4  5  1  0  0  0  0
  5 21  1  0  0  0  0
  5  6  1  0  0  0  0
  5 17  1  0  0  0  0
  6 10  1  0  0  0  0
  6  7  1  0  0  0  0
  7  8  2  0  0  0  0
  7 27  1  0  0  0  0
  8  9  1  0  0  0  0
  8 36  1  0  0  0  0
  9 15  1  0  0  0  0
  9 10  2  0  0  0  0
 10 11  1  0  0  0  0
 11 12  2  0  0  0  0
 12 13  1  0  0  0  0
 12 28  1  0  0  0  0
 13 14  1  0  0  0  0
 13 29  1  0  0  0  0
 14 15  1  0  0  0  0
 14 30  1  0  0  0  0
 14 31  1  0  0  0  0
 15 22  1  0  0  0  0
 15 16  1  0  0  0  0
 16 32  1  0  0  0  0
 17 18  1  0  0  0  0
 17 33  1  0  0  0  0
 17 34  1  0  0  0  0
 18 23  1  0  0  0  0
 18 19  1  0  0  0  0
 19 35  1  0  0  0  0
M  CHG  1   8   1
M  END
> <s_m_source_file>
AV-unprocessed.smi

> <i_m_source_file_index>
157

> <i_lp_mmshare_version>
43012

> <i_f3d_flags>
0

> <s_epik_input>
W09IXVtDSDJdW0NASF0xT1tDQEhdKFtDSDJdW0NAQEhdMVtPSF0pbihbY0hdbjIpYyhjMjMpTj1bQ0hdW05IXVtDSDJdW0NASF0zW09IXQ==

> <s_epik_cmdline>
J2VwaWtfcHl0aG9uJywgJy1waCcsICc3LjAnLCAnLXRuJywgJzgnLCAnLW1hJywgJzIwMCcsICctbWV0YWxfYmluZGluZycsICctaW1hZScsICc8aW5maWxlLm1hZT4nLCAnLW9tYWUnLCAnPG91dGZpbGUubWFlPic=

> <r_epik_Ionization_Penalty>
1.68594

> <r_epik_Ionization_Penalty_Charging>
0

> <r_epik_Ionization_Penalty_Neutral>
1.68594

> <r_epik_State_Penalty>
1.79006

> <r_epik_Charging_Adjusted_Penalty>
1.79006

> <i_epik_Tot_Q>
1

> <i_epik_Tot_abs_Q>
1

> <r_epik_Metal_State_Penalty>
5.85324

> <b_epik_Metal_Only>
0

> <s_epik_Chemistry_Notes>
This compound has an imine and may undergo hydrolysis. This compound contains an acetal/aminal-like group ( X-CH(R)-Y where X, Y are N, S, or O) that may be acid/base labile, releasing an aldehyde.

> <s_lp_Force_Field>
OPLS_2005

> <r_lp_Energy>
51.6948

> <b_lp_Chiralities_Consistent>
1

> <s_lp_Variant>
AV-unprocessed.smi:157-21

> <Gold.Version>
5.8.1

> <Gold.Id.Protein>
6NUR|6NUR_protein|mol2

> <Gold.PLP.Fitness>
45.2033

> <Gold.PLP.PLP>
-33.4406

> <Gold.PLP.part.hbond>
-4.0306

> <Gold.PLP.part.metal>
0.0000

> <Gold.PLP.part.buried>
-6.5682

> <Gold.PLP.part.nonpolar>
-21.7223

> <Gold.PLP.part.repulsive>
0.1791

> <Gold.PLP.ligand.clash>
0.0000

> <Gold.PLP.ligand.torsion>
0.1189

> <Gold.PLP.Chemscore.Hbond>
3.9920

> <Gold.PLP.Chemscore.CHOScore>
0.0000

> <Gold.PLP.Chemscore.Metal>
0.0000

> <Gold.Chemscore.Hbonds>
donor molecule, donor type, donor heavy atom, donor atom, acceptor molecule, acceptor atom, score
      L1  H     1    24       P1  7948  1.00
      L1  H     8    36       P1  8028  2.00
      L1  H    16    32       P1  8029  0.76

> <Gold.PLP.Chemscore.Internal.Correction>
0.0245

> <Gold.Rescore>
     Score         DG    S(hbond)    S(metal)    S(lipo)     H(rot)  DE(clash)    DE(int)     intcor
     10.44     -10.49       2.61        0.00      48.45       3.67       0.00       0.04       ----

> <Gold.Chemscore.Fitness>
10.4438

> <Gold.Chemscore.DG>
-10.4879

> <Gold.Chemscore.ZeroCoef>
-5.4800

> <Gold.Chemscore.Hbond>
2.6121

> <Gold.Chemscore.Metal>
0.0000

> <Gold.Chemscore.Lipo>
48.4467

> <Gold.Chemscore.Internal_Hbond>
0.0000

> <Gold.Chemscore.DEClash>
0.0000

> <Gold.Chemscore.DEInternal>
0.0441

> <Gold.Chemscore.Rot>
3.6659

> <Gold.Chemscore.Internal.Correction>
   9.000000E+99

> <Gold.Chemscore.Hbonds>
donor molecule, donor type, donor heavy atom, donor atom, acceptor molecule, acceptor atom, score
      L1  H     1    24       P1  7948  0.43
      L1  H     8    36       P1  8028  0.96
      L1  H    16    32       P1  8029  0.15

> <Gold.Chemscore.Hbond.Weighted>
-8.7244

> <Gold.Chemscore.Metal.Weighted>
-0.0000

> <Gold.Chemscore.Lipo.Weighted>
-5.6683

> <Gold.Chemscore.Internal_Hbond.Weighted>
0.0000

> <Gold.Chemscore.DEClash.Weighted>
0.0000

> <Gold.Chemscore.DEInternal.Weighted>
0.0441

> <Gold.Chemscore.Rot.Weighted>
9.3848

> <Gold.Chemscore.Internal.Correction.Weighted>
   9.000000E+99

> <Gold.Protein.RotatedTorsions>
[ 6907 6896 6895 6894 ] final -135.80 input  -60.11 | X-H torsion
[ 7974 7965 7964 7962 ] final -100.42 input  175.53 | X-H torsion
[ 8008 7997 7996 7995 ] final  115.02 input   59.86 | X-H torsion
[ 10167 10162 10161 10158 ] final  -64.15 input  -65.29 | X-H torsion
[ 10718 10713 10712 10709 ] final   57.66 input   66.30 | X-H torsion
[ 10763 10752 10751 10750 ] final   52.54 input  -60.55 | X-H torsion
[ 11005 11000 10999 10996 ] final -118.10 input  -57.11 | X-H torsion

> <Gold.Protein.ActiveResidues>
 VAL166  LYS551  ARG553  GLY616  TRP617  ASP618  TYR619  PRO620  LYS621  CYS622 
 ASP623  PHE694  ASN695  SER759  ASP760  ASP761  ALA762  ILE779  LEU786  VAL792 
 PHE793  MET794  SER795  GLU796  ALA797  LYS798  CYS799  TRP800  GLU811  SER814 

> <Gold.Protein.RotatedAtoms>
  151.0023  133.6044  159.2693 H   0  0  0  0  0  0  0  0  0  0  0  0  # atno 6907 bound_to 6896
  151.3226  135.0821  159.9320 H   0  0  0  0  0  0  0  0  0  0  0  0  # atno 6908 bound_to 6896
  152.5277  133.9668  159.7797 H   0  0  0  0  0  0  0  0  0  0  0  0  # atno 6909 bound_to 6896
  145.2948  140.9362  143.2857 H   0  0  0  0  0  0  0  0  0  0  0  0  # atno 7974 bound_to 7965
  156.2356  140.2947  156.0304 H   0  0  0  0  0  0  0  0  0  0  0  0  # atno 8008 bound_to 7997
  155.2101  140.0412  157.2949 H   0  0  0  0  0  0  0  0  0  0  0  0  # atno 8009 bound_to 7997
  154.6073  140.2442  155.7721 H   0  0  0  0  0  0  0  0  0  0  0  0  # atno 8010 bound_to 7997
  140.5821  143.2328  151.6320 H   0  0  0  0  0  0  0  0  0  0  0  0  # atno 10167 bound_to 10162
  157.5533  130.8781  149.8996 H   0  0  0  0  0  0  0  0  0  0  0  0  # atno 10718 bound_to 10713
  152.9789  135.5809  154.4595 H   0  0  0  0  0  0  0  0  0  0  0  0  # atno 10763 bound_to 10752
  154.4173  135.2771  155.2000 H   0  0  0  0  0  0  0  0  0  0  0  0  # atno 10764 bound_to 10752
  154.3765  135.6156  153.5821 H   0  0  0  0  0  0  0  0  0  0  0  0  # atno 10765 bound_to 10752
  141.0309  133.9982  157.3144 H   0  0  0  0  0  0  0  0  0  0  0  0  # atno 11005 bound_to 11000
  144.9142  139.4491  143.6572 LP  0  0  0  0  0  0  0  0  0  0  0  0  # atno 17320 bound_to 7965
  146.3172  139.7967  142.8974 LP  0  0  0  0  0  0  0  0  0  0  0  0  # atno 17321 bound_to 7965
  139.5176  144.3311  152.0825 LP  0  0  0  0  0  0  0  0  0  0  0  0  # atno 17342 bound_to 10162
  140.2462  144.4217  150.6240 LP  0  0  0  0  0  0  0  0  0  0  0  0  # atno 17343 bound_to 10162
  156.0596  130.3702  150.1013 LP  0  0  0  0  0  0  0  0  0  0  0  0  # atno 17370 bound_to 10713
  156.9184  130.9675  151.3552 LP  0  0  0  0  0  0  0  0  0  0  0  0  # atno 17371 bound_to 10713
  139.9207  135.0200  156.8054 LP  0  0  0  0  0  0  0  0  0  0  0  0  # atno 17394 bound_to 11000
  140.6408  133.9820  155.7706 LP  0  0  0  0  0  0  0  0  0  0  0  0  # atno 17395 bound_to 11000

$$$$
