AV-unprocessed.smi:2976|AV-procd|sdf|11365|dock9
  -GOLD-   2272016283D 1   1.00000     0.00000
 Structure written by MMmdl.
 40 41  0  0  0  0  0  0  0  0  1 V2000
  153.9786  141.7372  160.0503 C   0  0  0  0  0  0  0  0  0  0  0  0
  152.8968  142.2033  159.0616 C   0  0  2  0  0  0  0  0  0  0  0  0
  151.8204  143.0638  159.7535 C   0  0  0  0  0  0  0  0  0  0  0  0
  150.8028  143.6122  158.7408 C   0  0  0  0  0  0  0  0  0  0  0  0
  150.1747  142.4869  157.9045 C   0  0  0  0  0  0  0  0  0  0  0  0
  151.2552  141.6316  157.2147 C   0  0  2  0  0  0  0  0  0  0  0  0
  150.6213  140.5960  156.4013 N   0  0  0  0  0  0  0  0  0  0  0  0
  151.2500  139.8108  155.5132 C   0  0  0  0  0  0  0  0  0  0  0  0
  152.4596  139.8813  155.2898 O   0  0  0  0  0  0  0  0  0  0  0  0
  150.3662  138.7853  154.7868 C   0  0  0  0  0  0  0  0  0  0  0  0
  149.8600  137.7176  155.6621 N   0  0  0  0  0  0  0  0  0  0  0  0
  148.9580  138.1536  156.6166 N   0  0  0  0  0  0  0  0  0  0  0  0
  148.4658  137.3099  157.4567 C   0  0  0  0  0  0  0  0  0  0  0  0
  148.8201  135.9080  157.4381 C   0  0  0  0  0  0  0  0  0  0  0  0
  148.1278  134.8236  158.5922 Cl  0  0  0  0  0  0  0  0  0  0  0  0
  149.7000  135.4894  156.4939 C   0  0  0  0  0  0  0  0  0  0  0  0
  150.1727  133.8271  156.4088 Cl  0  0  0  0  0  0  0  0  0  0  0  0
  150.2809  136.4229  155.5187 C   0  0  0  0  0  0  0  0  0  0  0  0
  151.0805  136.0821  154.6460 O   0  0  0  0  0  0  0  0  0  0  0  0
  152.2644  141.0469  158.2422 C   0  0  2  0  0  0  0  0  0  0  0  0
  151.6610  139.9255  159.1198 C   0  0  0  0  0  0  0  0  0  0  0  0
  153.5547  141.1667  160.8765 H   0  0  0  0  0  0  0  0  0  0  0  0
  154.5025  142.5908  160.4811 H   0  0  0  0  0  0  0  0  0  0  0  0
  154.7225  141.1127  159.5550 H   0  0  0  0  0  0  0  0  0  0  0  0
  153.4056  142.8506  158.3452 H   0  0  0  0  0  0  0  0  0  0  0  0
  151.3035  142.4803  160.5159 H   0  0  0  0  0  0  0  0  0  0  0  0
  152.2911  143.8967  160.2767 H   0  0  0  0  0  0  0  0  0  0  0  0
  150.0230  144.1687  159.2614 H   0  0  0  0  0  0  0  0  0  0  0  0
  151.2980  144.3230  158.0780 H   0  0  0  0  0  0  0  0  0  0  0  0
  149.5483  141.8626  158.5423 H   0  0  0  0  0  0  0  0  0  0  0  0
  149.5102  142.9211  157.1563 H   0  0  0  0  0  0  0  0  0  0  0  0
  151.8031  142.2914  156.5385 H   0  0  0  0  0  0  0  0  0  0  0  0
  149.6274  140.4679  156.5246 H   0  0  0  0  0  0  0  0  0  0  0  0
  149.5318  139.3202  154.3296 H   0  0  0  0  0  0  0  0  0  0  0  0
  150.9271  138.3560  153.9545 H   0  0  0  0  0  0  0  0  0  0  0  0
  147.7552  137.6085  158.2276 H   0  0  0  0  0  0  0  0  0  0  0  0
  153.0733  140.5853  157.6739 H   0  0  0  0  0  0  0  0  0  0  0  0
  150.8537  140.2899  159.7540 H   0  0  0  0  0  0  0  0  0  0  0  0
  152.4130  139.4785  159.7690 H   0  0  0  0  0  0  0  0  0  0  0  0
  151.2600  139.1138  158.5132 H   0  0  0  0  0  0  0  0  0  0  0  0
  1  2  1  0  0  0  0
  1 22  1  0  0  0  0
  1 23  1  0  0  0  0
  1 24  1  0  0  0  0
  2 20  1  0  0  0  0
  2  3  1  0  0  0  0
  2 25  1  0  0  0  0
  3  4  1  0  0  0  0
  3 26  1  0  0  0  0
  3 27  1  0  0  0  0
  4  5  1  0  0  0  0
  4 28  1  0  0  0  0
  4 29  1  0  0  0  0
  5  6  1  0  0  0  0
  5 30  1  0  0  0  0
  5 31  1  0  0  0  0
  6  7  1  0  0  0  0
  6 20  1  0  0  0  0
  6 32  1  0  0  0  0
  7  8  1  0  0  0  0
  7 33  1  0  0  0  0
  8  9  2  0  0  0  0
  8 10  1  0  0  0  0
 10 11  1  0  0  0  0
 10 34  1  0  0  0  0
 10 35  1  0  0  0  0
 11 18  1  0  0  0  0
 11 12  1  0  0  0  0
 12 13  2  0  0  0  0
 13 14  1  0  0  0  0
 13 36  1  0  0  0  0
 14 15  1  0  0  0  0
 14 16  2  0  0  0  0
 16 17  1  0  0  0  0
 16 18  1  0  0  0  0
 18 19  2  0  0  0  0
 20 21  1  0  0  0  0
 20 37  1  0  0  0  0
 21 38  1  0  0  0  0
 21 39  1  0  0  0  0
 21 40  1  0  0  0  0
M  END
> <s_m_source_file>
AV-unprocessed.smi

> <i_m_source_file_index>
2976

> <i_lp_mmshare_version>
43012

> <i_f3d_flags>
0

> <s_epik_input>
W0NIM11bQ0BASF0xW0NIMl1bQ0gyXVtDSDJdW0NASF0oW0NASF0xW0NIM10pW05IXUMoPU8pW0NIMl1uMm5bY0hdYyhDbCljKENsKWMyPU8=

> <s_epik_cmdline>
J2VwaWtfcHl0aG9uJywgJy1waCcsICc3LjAnLCAnLXRuJywgJzgnLCAnLW1hJywgJzIwMCcsICctbWV0YWxfYmluZGluZycsICctaW1hZScsICc8aW5maWxlLm1hZT4nLCAnLW9tYWUnLCAnPG91dGZpbGUubWFlPic=

> <r_lp_tautomer_probability>
1

> <r_epik_Ionization_Penalty>
1.90777e-08

> <r_epik_Ionization_Penalty_Charging>
3.07942e-11

> <r_epik_Ionization_Penalty_Neutral>
1.90469e-08

> <r_epik_State_Penalty>
-0

> <r_epik_Charging_Adjusted_Penalty>
3.07942e-11

> <i_epik_Tot_Q>
0

> <i_epik_Tot_abs_Q>
0

> <r_epik_Metal_State_Penalty>
-0

> <b_epik_Metal_Only>
0

> <s_lp_Force_Field>
OPLS_2005

> <r_lp_Energy>
28.3124

> <b_lp_Chiralities_Consistent>
1

> <s_lp_Variant>
AV-unprocessed.smi:2976-7

> <Gold.Version>
5.8.1

> <Gold.Id.Protein>
6NUR|6NUR_protein|mol2

> <Gold.PLP.Fitness>
38.5508

> <Gold.PLP.PLP>
-32.9351

> <Gold.PLP.part.hbond>
-3.0000

> <Gold.PLP.part.metal>
0.0000

> <Gold.PLP.part.buried>
-4.6725

> <Gold.PLP.part.nonpolar>
-26.4141

> <Gold.PLP.part.repulsive>
0.2476

> <Gold.PLP.ligand.clash>
0.0000

> <Gold.PLP.ligand.torsion>
0.1989

> <Gold.PLP.Chemscore.Hbond>
2.0000

> <Gold.PLP.Chemscore.CHOScore>
0.0000

> <Gold.PLP.Chemscore.Metal>
0.0000

> <Gold.Chemscore.Hbonds>
donor molecule, donor type, donor heavy atom, donor atom, acceptor molecule, acceptor atom, score
      P1  H  7997  8009       L1     9  0.86
      P1  H 10752 10764       L1    19  1.00

> <Gold.PLP.Chemscore.Internal.Correction>
0.0135

> <Gold.Rescore>
     Score         DG    S(hbond)    S(metal)    S(lipo)     H(rot)  DE(clash)    DE(int)     intcor
     18.58     -18.99       1.98        0.00      91.56       1.49       0.03       0.38       ----

> <Gold.Chemscore.Fitness>
18.5840

> <Gold.Chemscore.DG>
-18.9924

> <Gold.Chemscore.ZeroCoef>
-5.4800

> <Gold.Chemscore.Hbond>
1.9779

> <Gold.Chemscore.Metal>
0.0000

> <Gold.Chemscore.Lipo>
91.5556

> <Gold.Chemscore.Internal_Hbond>
0.0000

> <Gold.Chemscore.DEClash>
0.0285

> <Gold.Chemscore.DEInternal>
0.3799

> <Gold.Chemscore.Rot>
1.4866

> <Gold.Chemscore.Internal.Correction>
   9.000000E+99

> <Gold.Chemscore.Hbonds>
donor molecule, donor type, donor heavy atom, donor atom, acceptor molecule, acceptor atom, score
      P1  H  7997  8009       L1     9  0.84
      P1  H 10752 10764       L1    19  1.00

> <Gold.Chemscore.Hbond.Weighted>
-6.6060

> <Gold.Chemscore.Metal.Weighted>
-0.0000

> <Gold.Chemscore.Lipo.Weighted>
-10.7120

> <Gold.Chemscore.Internal_Hbond.Weighted>
0.0000

> <Gold.Chemscore.DEClash.Weighted>
0.0285

> <Gold.Chemscore.DEInternal.Weighted>
0.3799

> <Gold.Chemscore.Rot.Weighted>
3.8057

> <Gold.Chemscore.Internal.Correction.Weighted>
   9.000000E+99

> <Gold.Protein.RotatedTorsions>
[ 6907 6896 6895 6894 ] final  179.11 input  -60.11 | X-H torsion
[ 7974 7965 7964 7962 ] final   70.09 input  175.53 | X-H torsion
[ 8008 7997 7996 7995 ] final -142.02 input   59.86 | X-H torsion
[ 10167 10162 10161 10158 ] final   65.48 input  -65.29 | X-H torsion
[ 10718 10713 10712 10709 ] final -143.36 input   66.30 | X-H torsion
[ 10763 10752 10751 10750 ] final  -70.55 input  -60.55 | X-H torsion
[ 11005 11000 10999 10996 ] final  -85.54 input  -57.11 | X-H torsion

> <Gold.Protein.ActiveResidues>
 VAL166  LYS551  ARG553  GLY616  TRP617  ASP618  TYR619  PRO620  LYS621  CYS622 
 ASP623  PHE694  ASN695  SER759  ASP760  ASP761  ALA762  ILE779  LEU786  VAL792 
 PHE793  MET794  SER795  GLU796  ALA797  LYS798  CYS799  TRP800  GLU811  SER814 

> <Gold.Protein.RotatedAtoms>
  151.6769  133.3312  159.3209 H   0  0  0  0  0  0  0  0  0  0  0  0  # atno 6907 bound_to 6896
  150.7841  134.6814  159.6455 H   0  0  0  0  0  0  0  0  0  0  0  0  # atno 6908 bound_to 6896
  152.3906  134.6450  160.0161 H   0  0  0  0  0  0  0  0  0  0  0  0  # atno 6909 bound_to 6896
  145.7825  139.2894  143.1257 H   0  0  0  0  0  0  0  0  0  0  0  0  # atno 7974 bound_to 7965
  155.4874  140.0565  157.2958 H   0  0  0  0  0  0  0  0  0  0  0  0  # atno 8008 bound_to 7997
  154.4636  140.2008  156.0128 H   0  0  0  0  0  0  0  0  0  0  0  0  # atno 8009 bound_to 7997
  156.0935  140.3230  155.7851 H   0  0  0  0  0  0  0  0  0  0  0  0  # atno 8010 bound_to 7997
  140.1109  144.4819  150.6979 H   0  0  0  0  0  0  0  0  0  0  0  0  # atno 10167 bound_to 10162
  156.3570  130.7718  151.1880 H   0  0  0  0  0  0  0  0  0  0  0  0  # atno 10718 bound_to 10713
  154.4192  135.5990  153.5999 H   0  0  0  0  0  0  0  0  0  0  0  0  # atno 10763 bound_to 10752
  152.9793  135.5948  154.3976 H   0  0  0  0  0  0  0  0  0  0  0  0  # atno 10764 bound_to 10752
  154.3799  135.2841  155.2196 H   0  0  0  0  0  0  0  0  0  0  0  0  # atno 10765 bound_to 10752
  141.1640  133.7405  156.9030 H   0  0  0  0  0  0  0  0  0  0  0  0  # atno 11005 bound_to 11000
  146.0060  140.8478  142.9995 LP  0  0  0  0  0  0  0  0  0  0  0  0  # atno 17320 bound_to 7965
  144.6794  140.2420  143.7342 LP  0  0  0  0  0  0  0  0  0  0  0  0  # atno 17321 bound_to 7965
  140.6926  143.2385  151.5089 LP  0  0  0  0  0  0  0  0  0  0  0  0  # atno 17342 bound_to 10162
  139.5620  144.2134  152.1706 LP  0  0  0  0  0  0  0  0  0  0  0  0  # atno 17343 bound_to 10162
  157.7469  131.0411  150.4629 LP  0  0  0  0  0  0  0  0  0  0  0  0  # atno 17370 bound_to 10713
  156.4834  130.4079  149.6448 LP  0  0  0  0  0  0  0  0  0  0  0  0  # atno 17371 bound_to 10713
  140.1569  134.9192  157.2665 LP  0  0  0  0  0  0  0  0  0  0  0  0  # atno 17394 bound_to 11000
  140.2656  134.3520  155.7391 LP  0  0  0  0  0  0  0  0  0  0  0  0  # atno 17395 bound_to 11000

$$$$
