AV-unprocessed.smi:1484|AV-procd|sdf|5993|dock1
  -GOLD-   22720 6 83D 1   1.00000     0.00000
 Structure written by MMmdl.
 37 38  0  0  0  0  0  0  0  0  2 V2000
  152.2151  138.8245  154.8625 C   0  0  0  0  0  0  0  0  0  0  0  0
  151.5972  139.2176  156.2117 C   0  0  2  0  0  0  0  0  0  0  0  0
  151.7731  140.7218  156.4938 C   0  0  0  0  0  0  0  0  0  0  0  0
  151.1579  141.1194  157.8446 C   0  0  0  0  0  0  0  0  0  0  0  0
  151.7431  140.2809  158.9941 C   0  0  0  0  0  0  0  0  0  0  0  0
  151.6004  138.7677  158.7413 C   0  0  1  0  0  0  0  0  0  0  0  0
  150.1998  138.3658  158.8591 N   0  0  0  0  0  0  0  0  0  0  0  0
  149.7228  137.1269  158.6653 C   0  0  0  0  0  0  0  0  0  0  0  0
  150.4380  136.1722  158.3566 O   0  0  0  0  0  0  0  0  0  0  0  0
  148.2048  136.9674  158.8463 C   0  0  0  0  0  0  0  0  0  0  0  0
  147.8161  136.1635  160.0144 N   0  0  0  0  0  0  0  0  0  0  0  0
  147.2653  136.9515  161.1139 N   0  5  0  0  0  0  0  0  0  0  0  0
  146.8861  136.3199  162.2565 C   0  0  0  0  0  0  0  0  0  0  0  0
  146.4294  136.9178  163.2282 O   0  0  0  0  0  0  0  0  0  0  0  0
  147.0272  134.8747  162.3187 C   0  0  0  0  0  0  0  0  0  0  0  0
  147.5194  134.1705  161.2807 C   0  0  0  0  0  0  0  0  0  0  0  0
  147.9435  134.8059  160.0388 C   0  0  0  0  0  0  0  0  0  0  0  0
  148.3868  134.1677  159.0838 O   0  0  0  0  0  0  0  0  0  0  0  0
  152.1854  138.3788  157.3658 C   0  0  0  0  0  0  0  0  0  0  0  0
  153.2902  139.0067  154.8498 H   0  0  0  0  0  0  0  0  0  0  0  0
  151.7711  139.3948  154.0462 H   0  0  0  0  0  0  0  0  0  0  0  0
  152.0539  137.7671  154.6509 H   0  0  0  0  0  0  0  0  0  0  0  0
  150.5282  139.0091  156.1515 H   0  0  0  0  0  0  0  0  0  0  0  0
  152.8337  140.9769  156.4896 H   0  0  0  0  0  0  0  0  0  0  0  0
  151.3121  141.3073  155.6975 H   0  0  0  0  0  0  0  0  0  0  0  0
  151.3335  142.1786  158.0339 H   0  0  0  0  0  0  0  0  0  0  0  0
  150.0755  140.9904  157.8062 H   0  0  0  0  0  0  0  0  0  0  0  0
  152.8003  140.5246  159.1073 H   0  0  0  0  0  0  0  0  0  0  0  0
  151.2673  140.5533  159.9373 H   0  0  0  0  0  0  0  0  0  0  0  0
  152.1665  138.2491  159.5172 H   0  0  0  0  0  0  0  0  0  0  0  0
  149.5404  139.0881  159.1093 H   0  0  0  0  0  0  0  0  0  0  0  0
  147.7606  137.9625  158.9133 H   0  0  0  0  0  0  0  0  0  0  0  0
  147.7903  136.5261  157.9383 H   0  0  0  0  0  0  0  0  0  0  0  0
  146.7290  134.3539  163.2168 H   0  0  0  0  0  0  0  0  0  0  0  0
  147.6053  133.0980  161.3709 H   0  0  0  0  0  0  0  0  0  0  0  0
  152.0255  137.3164  157.1770 H   0  0  0  0  0  0  0  0  0  0  0  0
  153.2670  138.5175  157.3926 H   0  0  0  0  0  0  0  0  0  0  0  0
  1  2  1  0  0  0  0
  1 20  1  0  0  0  0
  1 21  1  0  0  0  0
  1 22  1  0  0  0  0
  2 19  1  0  0  0  0
  2  3  1  0  0  0  0
  2 23  1  0  0  0  0
  3  4  1  0  0  0  0
  3 24  1  0  0  0  0
  3 25  1  0  0  0  0
  4  5  1  0  0  0  0
  4 26  1  0  0  0  0
  4 27  1  0  0  0  0
  5  6  1  0  0  0  0
  5 28  1  0  0  0  0
  5 29  1  0  0  0  0
  6  7  1  0  0  0  0
  6 19  1  0  0  0  0
  6 30  1  0  0  0  0
  7  8  1  0  0  0  0
  7 31  1  0  0  0  0
  8  9  2  0  0  0  0
  8 10  1  0  0  0  0
 10 32  1  0  0  0  0
 10 33  1  0  0  0  0
 10 11  1  0  0  0  0
 11 12  1  0  0  0  0
 11 17  1  0  0  0  0
 12 13  1  0  0  0  0
 13 14  2  0  0  0  0
 13 15  1  0  0  0  0
 15 34  1  0  0  0  0
 15 16  2  0  0  0  0
 16 35  1  0  0  0  0
 16 17  1  0  0  0  0
 17 18  2  0  0  0  0
 19 36  1  0  0  0  0
 19 37  1  0  0  0  0
M  CHG  1  12  -1
M  END
> <s_m_source_file>
AV-unprocessed.smi

> <i_m_source_file_index>
1484

> <i_lp_mmshare_version>
43012

> <i_f3d_flags>
0

> <s_epik_input>
W0NIM11bQ0BASF0xW0NIMl1bQ0gyXVtDSDJdW0NASF0oW0NIMl0xKVtOSF1DKD1PKVtDSDJdbjJbbkhdYyg9TylbY0hdW2NIXWMyPU8=

> <s_epik_cmdline>
J2VwaWtfcHl0aG9uJywgJy1waCcsICc3LjAnLCAnLXRuJywgJzgnLCAnLW1hJywgJzIwMCcsICctbWV0YWxfYmluZGluZycsICctaW1hZScsICc8aW5maWxlLm1hZT4nLCAnLW9tYWUnLCAnPG91dGZpbGUubWFlPic=

> <r_lp_tautomer_probability>
1

> <r_epik_Ionization_Penalty>
0.101352

> <r_epik_Ionization_Penalty_Charging>
0.101352

> <r_epik_Ionization_Penalty_Neutral>
1.90469e-08

> <r_epik_State_Penalty>
0.0358555

> <r_epik_Charging_Adjusted_Penalty>
0.137208

> <i_epik_Tot_Q>
-1

> <i_epik_Tot_abs_Q>
1

> <r_epik_Metal_State_Penalty>
0.0358555

> <b_epik_Metal_Only>
0

> <s_lp_Force_Field>
OPLS_2005

> <r_lp_Energy>
23.9764

> <b_lp_Chiralities_Consistent>
1

> <s_lp_Variant>
AV-unprocessed.smi:1484-1

> <Gold.Version>
5.8.1

> <Gold.Id.Protein>
6NUR|6NUR_protein|mol2

> <Gold.PLP.Fitness>
44.9465

> <Gold.PLP.PLP>
-31.4312

> <Gold.PLP.part.hbond>
-4.0000

> <Gold.PLP.part.metal>
0.0000

> <Gold.PLP.part.buried>
-2.4641

> <Gold.PLP.part.nonpolar>
-25.8136

> <Gold.PLP.part.repulsive>
0.2164

> <Gold.PLP.ligand.clash>
0.0000

> <Gold.PLP.ligand.torsion>
0.2471

> <Gold.PLP.Chemscore.Hbond>
4.6636

> <Gold.PLP.Chemscore.CHOScore>
0.0000

> <Gold.PLP.Chemscore.Metal>
0.0000

> <Gold.Chemscore.Hbonds>
donor molecule, donor type, donor heavy atom, donor atom, acceptor molecule, acceptor atom, score
      P1  H  6896  6909       L1    18  0.42
      P1  H  6931  6943       L1    12  0.48
      P1  H  6934  6947       L1    12  1.76

> <Gold.PLP.Chemscore.Internal.Correction>
0.0186

> <Gold.Rescore>
     Score         DG    S(hbond)    S(metal)    S(lipo)     H(rot)  DE(clash)    DE(int)     intcor
     11.96     -14.46       1.82        0.00      60.92       1.65       0.04       2.46       ----

> <Gold.Chemscore.Fitness>
11.9559

> <Gold.Chemscore.DG>
-14.4584

> <Gold.Chemscore.ZeroCoef>
-5.4800

> <Gold.Chemscore.Hbond>
1.8225

> <Gold.Chemscore.Metal>
0.0000

> <Gold.Chemscore.Lipo>
60.9201

> <Gold.Chemscore.Internal_Hbond>
0.0000

> <Gold.Chemscore.DEClash>
0.0423

> <Gold.Chemscore.DEInternal>
2.4602

> <Gold.Chemscore.Rot>
1.6549

> <Gold.Chemscore.Internal.Correction>
   9.000000E+99

> <Gold.Chemscore.Hbonds>
donor molecule, donor type, donor heavy atom, donor atom, acceptor molecule, acceptor atom, score
      P1  H  6896  6909       L1     9  0.32
      P1  H  6931  6943       L1    12  0.04
      P1  H  6934  6947       L1    12  0.80

> <Gold.Chemscore.Hbond.Weighted>
-6.0872

> <Gold.Chemscore.Metal.Weighted>
-0.0000

> <Gold.Chemscore.Lipo.Weighted>
-7.1276

> <Gold.Chemscore.Internal_Hbond.Weighted>
0.0000

> <Gold.Chemscore.DEClash.Weighted>
0.0423

> <Gold.Chemscore.DEInternal.Weighted>
2.4602

> <Gold.Chemscore.Rot.Weighted>
4.2364

> <Gold.Chemscore.Internal.Correction.Weighted>
   9.000000E+99

> <Gold.Protein.RotatedTorsions>
[ 6907 6896 6895 6894 ] final   33.34 input  -60.11 | X-H torsion
[ 7974 7965 7964 7962 ] final   55.25 input  175.53 | X-H torsion
[ 8008 7997 7996 7995 ] final  111.98 input   59.86 | X-H torsion
[ 10167 10162 10161 10158 ] final  107.15 input  -65.29 | X-H torsion
[ 10718 10713 10712 10709 ] final  -72.24 input   66.30 | X-H torsion
[ 10763 10752 10751 10750 ] final  -10.67 input  -60.55 | X-H torsion
[ 11005 11000 10999 10996 ] final   24.54 input  -57.11 | X-H torsion

> <Gold.Protein.ActiveResidues>
 VAL166  LYS551  ARG553  GLY616  TRP617  ASP618  TYR619  PRO620  LYS621  CYS622 
 ASP623  PHE694  ASN695  SER759  ASP760  ASP761  ALA762  ILE779  LEU786  VAL792 
 PHE793  MET794  SER795  GLU796  ALA797  LYS798  CYS799  TRP800  GLU811  SER814 

> <Gold.Protein.RotatedAtoms>
  152.0871  134.9432  160.0572 H   0  0  0  0  0  0  0  0  0  0  0  0  # atno 6907 bound_to 6896
  152.0698  133.4096  159.4462 H   0  0  0  0  0  0  0  0  0  0  0  0  # atno 6908 bound_to 6896
  150.6836  134.3024  159.4755 H   0  0  0  0  0  0  0  0  0  0  0  0  # atno 6909 bound_to 6896
  145.9523  139.3983  143.0298 H   0  0  0  0  0  0  0  0  0  0  0  0  # atno 7974 bound_to 7965
  156.2161  140.3008  155.9843 H   0  0  0  0  0  0  0  0  0  0  0  0  # atno 8008 bound_to 7997
  155.2602  140.0429  157.3013 H   0  0  0  0  0  0  0  0  0  0  0  0  # atno 8009 bound_to 7997
  154.5770  140.2364  155.8117 H   0  0  0  0  0  0  0  0  0  0  0  0  # atno 8010 bound_to 7997
  139.6950  144.7102  151.1282 H   0  0  0  0  0  0  0  0  0  0  0  0  # atno 10167 bound_to 10162
  156.0328  130.4368  150.2563 H   0  0  0  0  0  0  0  0  0  0  0  0  # atno 10718 bound_to 10713
  153.4725  135.7017  153.5985 H   0  0  0  0  0  0  0  0  0  0  0  0  # atno 10763 bound_to 10752
  153.4233  135.3820  155.2125 H   0  0  0  0  0  0  0  0  0  0  0  0  # atno 10764 bound_to 10752
  154.8724  135.3933  154.4165 H   0  0  0  0  0  0  0  0  0  0  0  0  # atno 10765 bound_to 10752
  140.3576  134.2160  155.7674 H   0  0  0  0  0  0  0  0  0  0  0  0  # atno 11005 bound_to 11000
  145.8154  140.9705  143.0927 LP  0  0  0  0  0  0  0  0  0  0  0  0  # atno 17320 bound_to 7965
  144.6798  139.9974  143.7484 LP  0  0  0  0  0  0  0  0  0  0  0  0  # atno 17321 bound_to 7965
  140.7694  143.5504  150.9211 LP  0  0  0  0  0  0  0  0  0  0  0  0  # atno 17342 bound_to 10162
  139.9183  143.6636  152.3102 LP  0  0  0  0  0  0  0  0  0  0  0  0  # atno 17343 bound_to 10162
  157.0665  131.0104  151.3205 LP  0  0  0  0  0  0  0  0  0  0  0  0  # atno 17370 bound_to 10713
  157.5032  130.7892  149.7626 LP  0  0  0  0  0  0  0  0  0  0  0  0  # atno 17371 bound_to 10713
  141.1993  133.8013  157.0540 LP  0  0  0  0  0  0  0  0  0  0  0  0  # atno 17394 bound_to 11000
  140.0652  134.9733  157.1374 LP  0  0  0  0  0  0  0  0  0  0  0  0  # atno 17395 bound_to 11000

$$$$
