AV-unprocessed.smi:1099|AV-procd|sdf|4757|dock4
  -GOLD-   22720 3293D 1   1.00000     0.00000
 Structure written by MMmdl.
 41 43  0  0  0  0  0  0  0  0  1 V2000
  155.9059  139.8496  165.8178 C   0  0  0  0  0  0  0  0  0  0  0  0
  155.9618  138.3585  165.4694 C   0  0  0  0  0  0  0  0  0  0  0  0
  155.2796  138.0453  164.1797 C   0  0  0  0  0  0  0  0  0  0  0  0
  155.5292  138.6908  163.0371 N   0  0  0  0  0  0  0  0  0  0  0  0
  154.7388  138.2348  161.9774 C   0  0  0  0  0  0  0  0  0  0  0  0
  154.8932  138.8358  160.6131 C   0  0  0  0  0  0  0  0  0  0  0  0
  153.5666  139.3755  160.0612 C   0  0  0  0  0  0  0  0  0  0  0  0
  153.6085  140.8274  159.9516 N   0  0  0  0  0  0  0  0  0  0  0  0
  152.5362  141.6034  159.7380 C   0  0  0  0  0  0  0  0  0  0  0  0
  151.3986  141.1501  159.6070 O   0  0  0  0  0  0  0  0  0  0  0  0
  152.7970  143.1201  159.6972 C   0  0  2  0  0  0  0  0  0  0  0  0
  152.2072  143.9106  160.8915 C   0  0  0  0  0  0  0  0  0  0  0  0
  151.3903  145.0201  160.2026 C   0  0  2  0  0  0  0  0  0  0  0  0
  150.1151  144.4136  159.5879 C   0  0  0  0  0  0  0  0  0  0  0  0
  150.6572  143.6589  158.3602 C   0  0  0  0  0  0  0  0  0  0  0  0
  152.1835  143.8634  158.4809 C   0  0  1  0  0  0  0  0  0  0  0  0
  152.2342  145.3092  158.9662 C   0  0  0  0  0  0  0  0  0  0  0  0
  153.8722  137.2342  162.3404 C   0  0  0  0  0  0  0  0  0  0  0  0
  154.0148  136.8311  164.0289 S   0  0  0  0  0  0  0  0  0  0  0  0
  156.4076  140.0455  166.7655 H   0  0  0  0  0  0  0  0  0  0  0  0
  154.8752  140.1940  165.9090 H   0  0  0  0  0  0  0  0  0  0  0  0
  156.3945  140.4512  165.0509 H   0  0  0  0  0  0  0  0  0  0  0  0
  156.9995  138.0284  165.4094 H   0  0  0  0  0  0  0  0  0  0  0  0
  155.4936  137.7744  166.2622 H   0  0  0  0  0  0  0  0  0  0  0  0
  155.6267  139.6425  160.6470 H   0  0  0  0  0  0  0  0  0  0  0  0
  155.2983  138.0927  159.9249 H   0  0  0  0  0  0  0  0  0  0  0  0
  153.3622  138.9427  159.0806 H   0  0  0  0  0  0  0  0  0  0  0  0
  152.7451  139.0879  160.7193 H   0  0  0  0  0  0  0  0  0  0  0  0
  154.5091  141.2723  160.0533 H   0  0  0  0  0  0  0  0  0  0  0  0
  153.8775  143.2773  159.6888 H   0  0  0  0  0  0  0  0  0  0  0  0
  151.5933  143.3151  161.5681 H   0  0  0  0  0  0  0  0  0  0  0  0
  153.0115  144.3450  161.4865 H   0  0  0  0  0  0  0  0  0  0  0  0
  151.1981  145.8815  160.8428 H   0  0  0  0  0  0  0  0  0  0  0  0
  149.5963  143.7539  160.2846 H   0  0  0  0  0  0  0  0  0  0  0  0
  149.4173  145.1939  159.2817 H   0  0  0  0  0  0  0  0  0  0  0  0
  150.3496  142.6144  158.3329 H   0  0  0  0  0  0  0  0  0  0  0  0
  150.2878  144.1218  157.4441 H   0  0  0  0  0  0  0  0  0  0  0  0
  152.7217  143.6871  157.5490 H   0  0  0  0  0  0  0  0  0  0  0  0
  151.7666  146.0162  158.2783 H   0  0  0  0  0  0  0  0  0  0  0  0
  153.2427  145.6548  159.2010 H   0  0  0  0  0  0  0  0  0  0  0  0
  153.1592  136.7129  161.7191 H   0  0  0  0  0  0  0  0  0  0  0  0
  1  2  1  0  0  0  0
  1 20  1  0  0  0  0
  1 21  1  0  0  0  0
  1 22  1  0  0  0  0
  2  3  1  0  0  0  0
  2 23  1  0  0  0  0
  2 24  1  0  0  0  0
  3 19  1  0  0  0  0
  3  4  2  0  0  0  0
  4  5  1  0  0  0  0
  5  6  1  0  0  0  0
  5 18  2  0  0  0  0
  6  7  1  0  0  0  0
  6 25  1  0  0  0  0
  6 26  1  0  0  0  0
  7  8  1  0  0  0  0
  7 27  1  0  0  0  0
  7 28  1  0  0  0  0
  8  9  1  0  0  0  0
  8 29  1  0  0  0  0
  9 10  2  0  0  0  0
  9 11  1  0  0  0  0
 11 16  1  0  0  0  0
 11 12  1  0  0  0  0
 11 30  1  0  0  0  0
 12 13  1  0  0  0  0
 12 31  1  0  0  0  0
 12 32  1  0  0  0  0
 13 17  1  0  0  0  0
 13 14  1  0  0  0  0
 13 33  1  0  0  0  0
 14 15  1  0  0  0  0
 14 34  1  0  0  0  0
 14 35  1  0  0  0  0
 15 16  1  0  0  0  0
 15 36  1  0  0  0  0
 15 37  1  0  0  0  0
 16 17  1  0  0  0  0
 16 38  1  0  0  0  0
 17 39  1  0  0  0  0
 17 40  1  0  0  0  0
 18 19  1  0  0  0  0
 18 41  1  0  0  0  0
M  END
> <s_m_source_file>
AV-unprocessed.smi

> <i_m_source_file_index>
1099

> <i_lp_mmshare_version>
43012

> <i_f3d_flags>
0

> <s_epik_input>
W0NIM11bQ0gyXWMxbmMoW2NIXXMxKVtDSDJdW0NIMl1bTkhdQyg9TylbQ0BIXShbQ0gyXVtDQEBIXTIzKVtDQEBIXShbQ0gyXTMpW0NIMl1bQ0gyXTI=

> <s_epik_cmdline>
J2VwaWtfcHl0aG9uJywgJy1waCcsICc3LjAnLCAnLXRuJywgJzgnLCAnLW1hJywgJzIwMCcsICctbWV0YWxfYmluZGluZycsICctaW1hZScsICc8aW5maWxlLm1hZT4nLCAnLW9tYWUnLCAnPG91dGZpbGUubWFlPic=

> <r_epik_Ionization_Penalty>
0.00110131

> <r_epik_Ionization_Penalty_Charging>
0

> <r_epik_Ionization_Penalty_Neutral>
0.00110131

> <r_epik_State_Penalty>
0.00072257

> <r_epik_Charging_Adjusted_Penalty>
0.00072257

> <i_epik_Tot_Q>
0

> <i_epik_Tot_abs_Q>
0

> <r_epik_Metal_State_Penalty>
-0

> <b_epik_Metal_Only>
0

> <s_lp_Force_Field>
OPLS_2005

> <r_lp_Energy>
38.6178

> <b_lp_Chiralities_Consistent>
1

> <s_lp_Variant>
AV-unprocessed.smi:1099-3

> <Gold.Version>
5.8.1

> <Gold.Id.Protein>
6NUR|6NUR_protein|mol2

> <Gold.PLP.Fitness>
45.9482

> <Gold.PLP.PLP>
-47.2374

> <Gold.PLP.part.hbond>
-0.5678

> <Gold.PLP.part.metal>
0.0000

> <Gold.PLP.part.buried>
-6.9289

> <Gold.PLP.part.nonpolar>
-40.0360

> <Gold.PLP.part.repulsive>
0.0680

> <Gold.PLP.ligand.clash>
0.0000

> <Gold.PLP.ligand.torsion>
0.6703

> <Gold.PLP.Chemscore.Hbond>
0.0000

> <Gold.PLP.Chemscore.CHOScore>
0.0000

> <Gold.PLP.Chemscore.Metal>
0.0000

> <Gold.PLP.Chemscore.Internal.Correction>
0.0514

> <Gold.Rescore>
     Score         DG    S(hbond)    S(metal)    S(lipo)     H(rot)  DE(clash)    DE(int)     intcor
     15.92     -17.74       0.00        0.00     135.81       1.42       0.00       1.82       ----

> <Gold.Chemscore.Fitness>
15.9200

> <Gold.Chemscore.DG>
-17.7438

> <Gold.Chemscore.ZeroCoef>
-5.4800

> <Gold.Chemscore.Hbond>
0.0000

> <Gold.Chemscore.Metal>
0.0000

> <Gold.Chemscore.Lipo>
135.8117

> <Gold.Chemscore.Internal_Hbond>
0.0000

> <Gold.Chemscore.DEClash>
0.0000

> <Gold.Chemscore.DEInternal>
1.8238

> <Gold.Chemscore.Rot>
1.4165

> <Gold.Chemscore.Internal.Correction>
   9.000000E+99

> <Gold.Chemscore.Hbond.Weighted>
-0.0000

> <Gold.Chemscore.Metal.Weighted>
-0.0000

> <Gold.Chemscore.Lipo.Weighted>
-15.8900

> <Gold.Chemscore.Internal_Hbond.Weighted>
0.0000

> <Gold.Chemscore.DEClash.Weighted>
0.0000

> <Gold.Chemscore.DEInternal.Weighted>
1.8238

> <Gold.Chemscore.Rot.Weighted>
3.6262

> <Gold.Chemscore.Internal.Correction.Weighted>
   9.000000E+99

> <Gold.Protein.RotatedTorsions>
[ 6907 6896 6895 6894 ] final   14.46 input  -60.11 | X-H torsion
[ 7974 7965 7964 7962 ] final  163.00 input  175.53 | X-H torsion
[ 8008 7997 7996 7995 ] final  -71.65 input   59.86 | X-H torsion
[ 10167 10162 10161 10158 ] final   86.58 input  -65.29 | X-H torsion
[ 10718 10713 10712 10709 ] final -141.95 input   66.30 | X-H torsion
[ 10763 10752 10751 10750 ] final  156.70 input  -60.55 | X-H torsion
[ 11005 11000 10999 10996 ] final  110.82 input  -57.11 | X-H torsion

> <Gold.Protein.ActiveResidues>
 VAL166  LYS551  ARG553  GLY616  TRP617  ASP618  TYR619  PRO620  LYS621  CYS622 
 ASP623  PHE694  ASN695  SER759  ASP760  ASP761  ALA762  ILE779  LEU786  VAL792 
 PHE793  MET794  SER795  GLU796  ALA797  LYS798  CYS799  TRP800  GLU811  SER814 

> <Gold.Protein.RotatedAtoms>
  151.8026  135.0704  160.0401 H   0  0  0  0  0  0  0  0  0  0  0  0  # atno 6907 bound_to 6896
  152.3078  133.5717  159.5669 H   0  0  0  0  0  0  0  0  0  0  0  0  # atno 6908 bound_to 6896
  150.7305  134.0113  159.3712 H   0  0  0  0  0  0  0  0  0  0  0  0  # atno 6909 bound_to 6896
  144.7610  139.8121  143.6332 H   0  0  0  0  0  0  0  0  0  0  0  0  # atno 7974 bound_to 7965
  154.5104  140.0812  156.7978 H   0  0  0  0  0  0  0  0  0  0  0  0  # atno 8008 bound_to 7997
  155.3798  140.3427  155.4228 H   0  0  0  0  0  0  0  0  0  0  0  0  # atno 8009 bound_to 7997
  156.1566  140.1575  156.8669 H   0  0  0  0  0  0  0  0  0  0  0  0  # atno 8010 bound_to 7997
  139.8860  144.6412  150.8790 H   0  0  0  0  0  0  0  0  0  0  0  0  # atno 10167 bound_to 10162
  156.3401  130.7633  151.1767 H   0  0  0  0  0  0  0  0  0  0  0  0  # atno 10718 bound_to 10713
  154.1884  135.2796  155.3030 H   0  0  0  0  0  0  0  0  0  0  0  0  # atno 10763 bound_to 10752
  154.5948  135.5548  153.7318 H   0  0  0  0  0  0  0  0  0  0  0  0  # atno 10764 bound_to 10752
  153.0119  135.6377  154.2023 H   0  0  0  0  0  0  0  0  0  0  0  0  # atno 10765 bound_to 10752
  139.8890  134.9493  156.6337 H   0  0  0  0  0  0  0  0  0  0  0  0  # atno 11005 bound_to 11000
  146.1672  139.4808  142.9950 LP  0  0  0  0  0  0  0  0  0  0  0  0  # atno 17320 bound_to 7965
  145.6620  141.0238  143.1703 LP  0  0  0  0  0  0  0  0  0  0  0  0  # atno 17321 bound_to 7965
  140.7735  143.3547  151.1944 LP  0  0  0  0  0  0  0  0  0  0  0  0  # atno 17342 bound_to 10162
  139.7152  143.9312  152.2964 LP  0  0  0  0  0  0  0  0  0  0  0  0  # atno 17343 bound_to 10162
  157.7445  131.0457  150.4855 LP  0  0  0  0  0  0  0  0  0  0  0  0  # atno 17370 bound_to 10713
  156.5034  130.4122  149.6340 LP  0  0  0  0  0  0  0  0  0  0  0  0  # atno 17371 bound_to 10713
  140.7647  133.8788  155.8445 LP  0  0  0  0  0  0  0  0  0  0  0  0  # atno 17394 bound_to 11000
  140.9892  134.1301  157.4423 LP  0  0  0  0  0  0  0  0  0  0  0  0  # atno 17395 bound_to 11000

$$$$
