AV-unprocessed.smi:2079|AV-procd|sdf|8483|dock9
  -GOLD-   2272011193D 1   1.00000     0.00000
 Structure written by MMmdl.
 41 42  0  0  0  0  0  0  0  0  3 V2000
  149.1464  141.3396  154.4337 C   0  0  0  0  0  0  0  0  0  0  0  0
  149.4680  139.8881  154.5425 C   0  0  0  0  0  0  0  0  0  0  0  0
  148.6885  138.7734  154.6715 C   0  0  0  0  0  0  0  0  0  0  0  0
  149.6395  137.7194  154.7145 C   0  0  0  0  0  0  0  0  0  0  0  0
  149.2192  136.3702  154.8508 N   0  0  0  0  0  0  0  0  0  0  0  0
  149.9531  135.2881  155.1667 C   0  0  0  0  0  0  0  0  0  0  0  0
  151.1729  135.3888  155.3449 O   0  0  0  0  0  0  0  0  0  0  0  0
  149.1953  134.1613  155.2676 N   0  5  0  0  0  0  0  0  0  0  0  0
  148.1815  133.7368  154.2988 C   0  0  0  0  0  0  0  0  0  0  0  0
  148.8278  132.9782  153.1177 C   0  0  0  0  0  0  0  0  0  0  0  0
  147.8196  132.2558  152.2849 N   0  3  2  0  0  0  0  0  0  0  0  0
  146.8781  133.2098  151.6288 C   0  0  0  0  0  0  0  0  0  0  0  0
  145.9316  132.5084  150.6484 C   0  0  0  0  0  0  0  0  0  0  0  0
  145.1339  131.4268  151.3751 C   0  0  0  0  0  0  0  0  0  0  0  0
  146.1054  130.4402  152.0265 C   0  0  0  0  0  0  0  0  0  0  0  0
  147.1089  131.1313  152.9790 C   0  0  1  0  0  0  0  0  0  0  0  0
  148.0693  130.0459  153.5143 C   0  0  0  0  0  0  0  0  0  0  0  0
  150.8882  138.1532  154.6255 N   0  0  0  0  0  0  0  0  0  0  0  0
  150.7845  139.5446  154.5125 O   0  0  0  0  0  0  0  0  0  0  0  0
  148.5179  141.6587  155.2650 H   0  0  0  0  0  0  0  0  0  0  0  0
  148.6122  141.5471  153.5064 H   0  0  0  0  0  0  0  0  0  0  0  0
  150.0525  141.9460  154.4441 H   0  0  0  0  0  0  0  0  0  0  0  0
  147.6112  138.7218  154.7235 H   0  0  0  0  0  0  0  0  0  0  0  0
  148.2358  136.2031  154.6976 H   0  0  0  0  0  0  0  0  0  0  0  0
  147.4538  133.0770  154.7708 H   0  0  0  0  0  0  0  0  0  0  0  0
  147.5985  134.5734  153.9117 H   0  0  0  0  0  0  0  0  0  0  0  0
  149.4276  133.6729  152.5342 H   0  0  0  0  0  0  0  0  0  0  0  0
  149.5561  132.2664  153.5092 H   0  0  0  0  0  0  0  0  0  0  0  0
  146.2976  133.7296  152.3929 H   0  0  0  0  0  0  0  0  0  0  0  0
  147.4405  133.9729  151.0893 H   0  0  0  0  0  0  0  0  0  0  0  0
  145.2534  133.2348  150.1996 H   0  0  0  0  0  0  0  0  0  0  0  0
  146.5037  132.0674  149.8307 H   0  0  0  0  0  0  0  0  0  0  0  0
  144.4929  131.8777  152.1336 H   0  0  0  0  0  0  0  0  0  0  0  0
  144.4789  130.9062  150.6758 H   0  0  0  0  0  0  0  0  0  0  0  0
  145.5384  129.6819  152.5680 H   0  0  0  0  0  0  0  0  0  0  0  0
  146.6510  129.9114  151.2432 H   0  0  0  0  0  0  0  0  0  0  0  0
  146.5564  131.5543  153.8195 H   0  0  0  0  0  0  0  0  0  0  0  0
  147.5090  129.2132  153.9404 H   0  0  0  0  0  0  0  0  0  0  0  0
  148.7302  130.4001  154.3029 H   0  0  0  0  0  0  0  0  0  0  0  0
  148.6912  129.6395  152.7164 H   0  0  0  0  0  0  0  0  0  0  0  0
  148.3534  131.8224  151.5436 H   0  0  0  0  0  0  0  0  0  0  0  0
  1  2  1  0  0  0  0
  1 20  1  0  0  0  0
  1 21  1  0  0  0  0
  1 22  1  0  0  0  0
  2 19  1  0  0  0  0
  2  3  2  0  0  0  0
  3  4  1  0  0  0  0
  3 23  1  0  0  0  0
  4  5  1  0  0  0  0
  4 18  2  0  0  0  0
  5  6  1  0  0  0  0
  5 24  1  0  0  0  0
  6  7  2  0  0  0  0
  6  8  1  0  0  0  0
  8  9  1  0  0  0  0
  9 10  1  0  0  0  0
  9 25  1  0  0  0  0
  9 26  1  0  0  0  0
 10 11  1  0  0  0  0
 10 27  1  0  0  0  0
 10 28  1  0  0  0  0
 11 16  1  0  0  0  0
 11 12  1  0  0  0  0
 11 41  1  0  0  0  0
 12 13  1  0  0  0  0
 12 29  1  0  0  0  0
 12 30  1  0  0  0  0
 13 14  1  0  0  0  0
 13 31  1  0  0  0  0
 13 32  1  0  0  0  0
 14 15  1  0  0  0  0
 14 33  1  0  0  0  0
 14 34  1  0  0  0  0
 15 16  1  0  0  0  0
 15 35  1  0  0  0  0
 15 36  1  0  0  0  0
 16 17  1  0  0  0  0
 16 37  1  0  0  0  0
 17 38  1  0  0  0  0
 17 39  1  0  0  0  0
 17 40  1  0  0  0  0
 18 19  1  0  0  0  0
M  CHG  1   8  -1
M  CHG  1  11   1
M  END
> <s_m_source_file>
AV-unprocessed.smi

> <i_m_source_file_index>
2079

> <i_lp_mmshare_version>
43012

> <i_f3d_flags>
0

> <s_epik_input>
W0NIM11jMVtjSF1jKG5vMSlbTkhdQyg9TylbTkhdW0NIMl1bQ0gyXU4yW0NIMl1bQ0gyXVtDSDJdW0NIMl1bQ0BIXTJbQ0gzXQ==

> <s_epik_cmdline>
J2VwaWtfcHl0aG9uJywgJy1waCcsICc3LjAnLCAnLXRuJywgJzgnLCAnLW1hJywgJzIwMCcsICctbWV0YWxfYmluZGluZycsICctaW1hZScsICc8aW5maWxlLm1hZT4nLCAnLW9tYWUnLCAnPG91dGZpbGUubWFlPic=

> <r_epik_Ionization_Penalty>
6.7666

> <r_epik_Ionization_Penalty_Charging>
6.7666

> <r_epik_Ionization_Penalty_Neutral>
5.77131e-06

> <r_epik_State_Penalty>
6.79217

> <r_epik_Charging_Adjusted_Penalty>
13.5588

> <i_epik_Tot_Q>
0

> <i_epik_Tot_abs_Q>
2

> <r_epik_Metal_State_Penalty>
2.72569

> <b_epik_Metal_Only>
1

> <s_lp_Force_Field>
OPLS_2005

> <r_lp_Energy>
12.5834

> <b_lp_Chiralities_Consistent>
1

> <s_lp_Variant>
AV-unprocessed.smi:2079-9

> <Gold.Version>
5.8.1

> <Gold.Id.Protein>
6NUR|6NUR_protein|mol2

> <Gold.PLP.Fitness>
41.0472

> <Gold.PLP.PLP>
-33.3126

> <Gold.PLP.part.hbond>
-4.0000

> <Gold.PLP.part.metal>
0.0000

> <Gold.PLP.part.buried>
-4.6272

> <Gold.PLP.part.nonpolar>
-25.4052

> <Gold.PLP.part.repulsive>
0.4665

> <Gold.PLP.ligand.clash>
0.0000

> <Gold.PLP.ligand.torsion>
0.6600

> <Gold.PLP.Chemscore.Hbond>
3.0000

> <Gold.PLP.Chemscore.CHOScore>
0.0000

> <Gold.PLP.Chemscore.Metal>
0.0000

> <Gold.Chemscore.Hbonds>
donor molecule, donor type, donor heavy atom, donor atom, acceptor molecule, acceptor atom, score
      L1  H    11    41       P1 10747  1.00
      P1  H  7989  7998       L1    19  1.00
      P1  H 10752 10765       L1     7  1.00

> <Gold.PLP.Chemscore.Internal.Correction>
0.0547

> <Gold.Rescore>
     Score         DG    S(hbond)    S(metal)    S(lipo)     H(rot)  DE(clash)    DE(int)     intcor
     18.20     -20.21       2.96        0.00      75.13       1.54       0.06       1.95       ----

> <Gold.Chemscore.Fitness>
18.1987

> <Gold.Chemscore.DG>
-20.2140

> <Gold.Chemscore.ZeroCoef>
-5.4800

> <Gold.Chemscore.Hbond>
2.9606

> <Gold.Chemscore.Metal>
0.0000

> <Gold.Chemscore.Lipo>
75.1299

> <Gold.Chemscore.Internal_Hbond>
0.0000

> <Gold.Chemscore.DEClash>
0.0641

> <Gold.Chemscore.DEInternal>
1.9512

> <Gold.Chemscore.Rot>
1.5409

> <Gold.Chemscore.Internal.Correction>
   9.000000E+99

> <Gold.Chemscore.Hbonds>
donor molecule, donor type, donor heavy atom, donor atom, acceptor molecule, acceptor atom, score
      L1  H    11    41       P1 10747  1.00
      P1  H  7989  7998       L1    19  0.55
      P1  H 10752 10765       L1     7  0.96

> <Gold.Chemscore.Hbond.Weighted>
-9.8885

> <Gold.Chemscore.Metal.Weighted>
-0.0000

> <Gold.Chemscore.Lipo.Weighted>
-8.7902

> <Gold.Chemscore.Internal_Hbond.Weighted>
0.0000

> <Gold.Chemscore.DEClash.Weighted>
0.0641

> <Gold.Chemscore.DEInternal.Weighted>
1.9512

> <Gold.Chemscore.Rot.Weighted>
3.9446

> <Gold.Chemscore.Internal.Correction.Weighted>
   9.000000E+99

> <Gold.Protein.RotatedTorsions>
[ 6907 6896 6895 6894 ] final  156.50 input  -60.11 | X-H torsion
[ 7974 7965 7964 7962 ] final   38.05 input  175.53 | X-H torsion
[ 8008 7997 7996 7995 ] final  157.77 input   59.86 | X-H torsion
[ 10167 10162 10161 10158 ] final -137.80 input  -65.29 | X-H torsion
[ 10718 10713 10712 10709 ] final  167.74 input   66.30 | X-H torsion
[ 10763 10752 10751 10750 ] final -177.28 input  -60.55 | X-H torsion
[ 11005 11000 10999 10996 ] final  -58.38 input  -57.11 | X-H torsion

> <Gold.Protein.ActiveResidues>
 VAL166  LYS551  ARG553  GLY616  TRP617  ASP618  TYR619  PRO620  LYS621  CYS622 
 ASP623  PHE694  ASN695  SER759  ASP760  ASP761  ALA762  ILE779  LEU786  VAL792 
 PHE793  MET794  SER795  GLU796  ALA797  LYS798  CYS799  TRP800  GLU811  SER814 

> <Gold.Protein.RotatedAtoms>
  152.0288  133.3929  159.4288 H   0  0  0  0  0  0  0  0  0  0  0  0  # atno 6907 bound_to 6896
  150.6884  134.3543  159.4932 H   0  0  0  0  0  0  0  0  0  0  0  0  # atno 6908 bound_to 6896
  152.1327  134.9122  160.0608 H   0  0  0  0  0  0  0  0  0  0  0  0  # atno 6909 bound_to 6896
  146.1091  139.5819  142.9364 H   0  0  0  0  0  0  0  0  0  0  0  0  # atno 7974 bound_to 7965
  156.2344  140.1876  156.7159 H   0  0  0  0  0  0  0  0  0  0  0  0  # atno 8008 bound_to 7997
  154.6079  140.0626  156.9483 H   0  0  0  0  0  0  0  0  0  0  0  0  # atno 8009 bound_to 7997
  155.2065  140.3296  155.4338 H   0  0  0  0  0  0  0  0  0  0  0  0  # atno 8010 bound_to 7997
  139.8542  143.7160  152.2655 H   0  0  0  0  0  0  0  0  0  0  0  0  # atno 10167 bound_to 10162
  157.0472  131.0303  151.2693 H   0  0  0  0  0  0  0  0  0  0  0  0  # atno 10718 bound_to 10713
  154.5620  135.2821  155.0910 H   0  0  0  0  0  0  0  0  0  0  0  0  # atno 10763 bound_to 10752
  154.2315  135.6373  153.5181 H   0  0  0  0  0  0  0  0  0  0  0  0  # atno 10764 bound_to 10752
  153.0032  135.5538  154.6217 H   0  0  0  0  0  0  0  0  0  0  0  0  # atno 10765 bound_to 10752
  141.1205  133.6612  156.4911 H   0  0  0  0  0  0  0  0  0  0  0  0  # atno 11005 bound_to 11000
  145.5700  141.0395  143.2179 LP  0  0  0  0  0  0  0  0  0  0  0  0  # atno 17320 bound_to 7965
  144.7496  139.7228  143.7278 LP  0  0  0  0  0  0  0  0  0  0  0  0  # atno 17321 bound_to 7965
  139.7436  144.7553  151.0614 LP  0  0  0  0  0  0  0  0  0  0  0  0  # atno 17342 bound_to 10162
  140.7784  143.4943  150.9853 LP  0  0  0  0  0  0  0  0  0  0  0  0  # atno 17343 bound_to 10162
  157.5059  130.7908  149.7653 LP  0  0  0  0  0  0  0  0  0  0  0  0  # atno 17370 bound_to 10713
  156.0019  130.3875  150.2573 LP  0  0  0  0  0  0  0  0  0  0  0  0  # atno 17371 bound_to 10713
  140.4522  134.6918  157.5045 LP  0  0  0  0  0  0  0  0  0  0  0  0  # atno 17394 bound_to 11000
  140.0158  134.6621  155.9312 LP  0  0  0  0  0  0  0  0  0  0  0  0  # atno 17395 bound_to 11000

$$$$
