AV-unprocessed.smi:655|AV-procd|sdf|3217|dock6
  -GOLD-   22720 0153D 1   1.00000     0.00000
 Structure written by MMmdl.
 34 35  0  0  0  0  0  0  0  0  2 V2000
  144.8730  142.7920  155.9513 C   0  0  0  0  0  0  0  0  0  0  0  0
  145.8088  141.7043  155.4050 C   0  0  2  0  0  0  0  0  0  0  0  0
  146.8373  141.2641  156.4620 C   0  0  0  0  0  0  0  0  0  0  0  0
  147.7887  140.1802  155.9213 C   0  0  0  0  0  0  0  0  0  0  0  0
  148.5141  140.6133  154.6237 C   0  0  2  0  0  0  0  0  0  0  0  0
  149.1049  139.4594  154.0563 O   0  0  0  0  0  0  0  0  0  0  0  0
  149.6434  141.6713  154.8145 C   0  0  0  0  0  0  0  0  0  0  0  0
  150.6098  141.3629  155.8881 N   0  0  0  0  0  0  0  0  0  0  0  0
  150.5719  142.1762  157.0354 C   0  0  0  0  0  0  0  0  0  0  0  0
  151.4008  141.9884  158.0800 C   0  0  0  0  0  0  0  0  0  0  0  0
  151.3282  143.0110  159.4707 Cl  0  0  0  0  0  0  0  0  0  0  0  0
  152.3615  140.8910  158.0025 C   0  0  0  0  0  0  0  0  0  0  0  0
  153.1462  140.7010  158.9307 O   0  0  0  0  0  0  0  0  0  0  0  0
  152.3410  140.1107  156.8833 N   0  5  0  0  0  0  0  0  0  0  0  0
  151.4815  140.3099  155.8369 C   0  0  0  0  0  0  0  0  0  0  0  0
  151.4716  139.5697  154.8547 O   0  0  0  0  0  0  0  0  0  0  0  0
  147.4713  141.0854  153.5822 C   0  0  0  0  0  0  0  0  0  0  0  0
  146.5269  142.1714  154.1264 C   0  0  0  0  0  0  0  0  0  0  0  0
  145.4281  143.6878  156.2320 H   0  0  0  0  0  0  0  0  0  0  0  0
  144.3374  142.4423  156.8343 H   0  0  0  0  0  0  0  0  0  0  0  0
  144.1297  143.0803  155.2077 H   0  0  0  0  0  0  0  0  0  0  0  0
  145.1950  140.8391  155.1507 H   0  0  0  0  0  0  0  0  0  0  0  0
  147.4053  142.1320  156.7918 H   0  0  0  0  0  0  0  0  0  0  0  0
  146.3232  140.8848  157.3455 H   0  0  0  0  0  0  0  0  0  0  0  0
  148.5022  139.8873  156.6913 H   0  0  0  0  0  0  0  0  0  0  0  0
  147.1967  139.2862  155.7186 H   0  0  0  0  0  0  0  0  0  0  0  0
  149.1536  139.5817  153.1204 H   0  0  0  0  0  0  0  0  0  0  0  0
  150.1908  141.7880  153.8775 H   0  0  0  0  0  0  0  0  0  0  0  0
  149.2024  142.6536  154.9838 H   0  0  0  0  0  0  0  0  0  0  0  0
  149.8280  142.9593  157.0145 H   0  0  0  0  0  0  0  0  0  0  0  0
  147.9703  141.4473  152.6824 H   0  0  0  0  0  0  0  0  0  0  0  0
  146.8621  140.2370  153.2649 H   0  0  0  0  0  0  0  0  0  0  0  0
  145.7920  142.4260  153.3619 H   0  0  0  0  0  0  0  0  0  0  0  0
  147.0848  143.0864  154.3258 H   0  0  0  0  0  0  0  0  0  0  0  0
  1  2  1  0  0  0  0
  1 19  1  0  0  0  0
  1 20  1  0  0  0  0
  1 21  1  0  0  0  0
  2 18  1  0  0  0  0
  2  3  1  0  0  0  0
  2 22  1  0  0  0  0
  3  4  1  0  0  0  0
  3 23  1  0  0  0  0
  3 24  1  0  0  0  0
  4  5  1  0  0  0  0
  4 25  1  0  0  0  0
  4 26  1  0  0  0  0
  5  6  1  0  0  0  0
  5  7  1  0  0  0  0
  5 17  1  0  0  0  0
  6 27  1  0  0  0  0
  7  8  1  0  0  0  0
  7 28  1  0  0  0  0
  7 29  1  0  0  0  0
  8 15  1  0  0  0  0
  8  9  1  0  0  0  0
  9 10  2  0  0  0  0
  9 30  1  0  0  0  0
 10 11  1  0  0  0  0
 10 12  1  0  0  0  0
 12 13  2  0  0  0  0
 12 14  1  0  0  0  0
 14 15  1  0  0  0  0
 15 16  2  0  0  0  0
 17 18  1  0  0  0  0
 17 31  1  0  0  0  0
 17 32  1  0  0  0  0
 18 33  1  0  0  0  0
 18 34  1  0  0  0  0
M  CHG  1  14  -1
M  END
> <s_m_source_file>
AV-unprocessed.smi

> <i_m_source_file_index>
655

> <i_lp_mmshare_version>
43012

> <i_f3d_flags>
0

> <s_epik_input>
W0NIMl0xW0NIMl1bQ0BIXShbQ0gzXSlbQ0gyXVtDSDJdW0NAQF0xKFtPSF0pW0NIMl1uMltjSF1jKENsKWMoPU8pW25IXWMyPU8=

> <s_epik_cmdline>
J2VwaWtfcHl0aG9uJywgJy1waCcsICc3LjAnLCAnLXRuJywgJzgnLCAnLW1hJywgJzIwMCcsICctbWV0YWxfYmluZGluZycsICctaW1hZScsICc8aW5maWxlLm1hZT4nLCAnLW9tYWUnLCAnPG91dGZpbGUubWFlPic=

> <r_epik_Ionization_Penalty>
2.34257

> <r_epik_Ionization_Penalty_Charging>
1.00552e-07

> <r_epik_Ionization_Penalty_Neutral>
2.34257

> <r_epik_State_Penalty>
2.4963

> <r_epik_Charging_Adjusted_Penalty>
2.4963

> <i_epik_Tot_Q>
-1

> <i_epik_Tot_abs_Q>
1

> <r_epik_Metal_State_Penalty>
0.0381881

> <b_epik_Metal_Only>
0

> <s_lp_Force_Field>
OPLS_2005

> <r_lp_Energy>
26.7084

> <b_lp_Chiralities_Consistent>
1

> <s_lp_Variant>
AV-unprocessed.smi:655-4

> <Gold.Version>
5.8.1

> <Gold.Id.Protein>
6NUR|6NUR_protein|mol2

> <Gold.PLP.Fitness>
45.6359

> <Gold.PLP.PLP>
-30.8337

> <Gold.PLP.part.hbond>
-3.0350

> <Gold.PLP.part.metal>
0.0000

> <Gold.PLP.part.buried>
-3.1126

> <Gold.PLP.part.nonpolar>
-24.4778

> <Gold.PLP.part.repulsive>
0.0480

> <Gold.PLP.ligand.clash>
0.0000

> <Gold.PLP.ligand.torsion>
0.1384

> <Gold.PLP.Chemscore.Hbond>
4.0000

> <Gold.PLP.Chemscore.CHOScore>
1.0000

> <Gold.PLP.Chemscore.Metal>
0.0000

> <Gold.Chemscore.Hbonds>
donor molecule, donor type, donor heavy atom, donor atom, acceptor molecule, acceptor atom, score
      L1  H     6    27       P1  7957  0.93
      P1  H  7989  7998       L1    16  0.95
      P1  H  7997  8010       L1    14  1.78
      L1  C     9    30       P1  8028  1.00

> <Gold.PLP.Chemscore.Internal.Correction>
0.0791

> <Gold.Rescore>
     Score         DG    S(hbond)    S(metal)    S(lipo)     H(rot)  DE(clash)    DE(int)     intcor
     13.59     -16.17       2.48        0.00      59.99       1.81       0.68       1.89       ----

> <Gold.Chemscore.Fitness>
13.5940

> <Gold.Chemscore.DG>
-16.1664

> <Gold.Chemscore.ZeroCoef>
-5.4800

> <Gold.Chemscore.Hbond>
2.4847

> <Gold.Chemscore.Metal>
0.0000

> <Gold.Chemscore.Lipo>
59.9916

> <Gold.Chemscore.Internal_Hbond>
0.0000

> <Gold.Chemscore.DEClash>
0.6849

> <Gold.Chemscore.DEInternal>
1.8875

> <Gold.Chemscore.Rot>
1.8092

> <Gold.Chemscore.Internal.Correction>
   9.000000E+99

> <Gold.Chemscore.Hbonds>
donor molecule, donor type, donor heavy atom, donor atom, acceptor molecule, acceptor atom, score
      L1  H     6    27       P1  7957  0.89
      P1  H  7989  7998       L1    16  0.21
      P1  H  7997  8010       L1    14  0.16

> <Gold.Chemscore.Hbond.Weighted>
-8.2989

> <Gold.Chemscore.Metal.Weighted>
-0.0000

> <Gold.Chemscore.Lipo.Weighted>
-7.0190

> <Gold.Chemscore.Internal_Hbond.Weighted>
0.0000

> <Gold.Chemscore.DEClash.Weighted>
0.6849

> <Gold.Chemscore.DEInternal.Weighted>
1.8875

> <Gold.Chemscore.Rot.Weighted>
4.6316

> <Gold.Chemscore.Internal.Correction.Weighted>
   9.000000E+99

> <Gold.Protein.RotatedTorsions>
[ 6907 6896 6895 6894 ] final -129.52 input  -60.11 | X-H torsion
[ 7974 7965 7964 7962 ] final  -20.04 input  175.53 | X-H torsion
[ 8008 7997 7996 7995 ] final   68.84 input   59.86 | X-H torsion
[ 10167 10162 10161 10158 ] final -160.55 input  -65.29 | X-H torsion
[ 10718 10713 10712 10709 ] final  124.42 input   66.30 | X-H torsion
[ 10763 10752 10751 10750 ] final  112.61 input  -60.55 | X-H torsion
[ 11005 11000 10999 10996 ] final   47.39 input  -57.11 | X-H torsion

> <Gold.Protein.ActiveResidues>
 VAL166  LYS551  ARG553  GLY616  TRP617  ASP618  TYR619  PRO620  LYS621  CYS622 
 ASP623  PHE694  ASN695  SER759  ASP760  ASP761  ALA762  ILE779  LEU786  VAL792 
 PHE793  MET794  SER795  GLU796  ALA797  LYS798  CYS799  TRP800  GLU811  SER814 

> <Gold.Protein.RotatedAtoms>
  150.9296  133.6782  159.2813 H   0  0  0  0  0  0  0  0  0  0  0  0  # atno 6907 bound_to 6896
  151.4209  135.0996  159.9623 H   0  0  0  0  0  0  0  0  0  0  0  0  # atno 6908 bound_to 6896
  152.5019  133.8748  159.7371 H   0  0  0  0  0  0  0  0  0  0  0  0  # atno 6909 bound_to 6896
  146.1809  140.4147  142.8495 H   0  0  0  0  0  0  0  0  0  0  0  0  # atno 7974 bound_to 7965
  155.7144  140.3494  155.4988 H   0  0  0  0  0  0  0  0  0  0  0  0  # atno 8008 bound_to 7997
  155.9326  140.1087  157.1142 H   0  0  0  0  0  0  0  0  0  0  0  0  # atno 8009 bound_to 7997
  154.4088  140.1228  156.4809 H   0  0  0  0  0  0  0  0  0  0  0  0  # atno 8010 bound_to 7997
  139.6531  144.0048  152.2175 H   0  0  0  0  0  0  0  0  0  0  0  0  # atno 10167 bound_to 10162
  157.5586  131.1091  150.8578 H   0  0  0  0  0  0  0  0  0  0  0  0  # atno 10718 bound_to 10713
  153.4803  135.3681  155.2438 H   0  0  0  0  0  0  0  0  0  0  0  0  # atno 10763 bound_to 10752
  154.8755  135.3953  154.3707 H   0  0  0  0  0  0  0  0  0  0  0  0  # atno 10764 bound_to 10752
  153.4310  135.7082  153.6296 H   0  0  0  0  0  0  0  0  0  0  0  0  # atno 10765 bound_to 10752
  140.1283  134.4738  155.8541 H   0  0  0  0  0  0  0  0  0  0  0  0  # atno 11005 bound_to 11000
  144.8314  140.6713  143.6288 LP  0  0  0  0  0  0  0  0  0  0  0  0  # atno 17320 bound_to 7965
  145.4078  139.1585  143.4142 LP  0  0  0  0  0  0  0  0  0  0  0  0  # atno 17321 bound_to 7965
  139.9767  144.6456  150.7938 LP  0  0  0  0  0  0  0  0  0  0  0  0  # atno 17342 bound_to 10162
  140.7547  143.3031  151.3029 LP  0  0  0  0  0  0  0  0  0  0  0  0  # atno 17343 bound_to 10162
  156.9082  130.5271  149.5281 LP  0  0  0  0  0  0  0  0  0  0  0  0  # atno 17370 bound_to 10713
  156.0642  130.5688  150.9254 LP  0  0  0  0  0  0  0  0  0  0  0  0  # atno 17371 bound_to 10713
  141.2165  133.6786  156.7021 LP  0  0  0  0  0  0  0  0  0  0  0  0  # atno 17394 bound_to 11000
  140.2875  134.8267  157.3987 LP  0  0  0  0  0  0  0  0  0  0  0  0  # atno 17395 bound_to 11000

$$$$
