AV-unprocessed.smi:229|AV-procd|sdf|1751|dock6
  -GOLD-   2262020273D 1   1.00000     0.00000
 Structure written by MMmdl.
 58 62  0  0  0  0  0  0  0  0  1 V2000
  151.5934  145.2429  159.4073 C   0  0  0  0  0  0  0  0  0  0  0  0
  151.9144  144.0909  160.3690 C   0  0  0  0  0  0  0  0  0  0  0  0
  152.6559  142.9181  159.7059 C   0  0  2  0  0  0  0  0  0  0  0  0
  151.8028  142.1864  158.6525 C   0  0  0  0  0  0  0  0  0  0  0  0
  152.5165  141.0159  158.1582 N   0  0  0  0  0  0  0  0  0  0  0  0
  152.0255  140.4838  157.0103 C   0  0  0  0  0  0  0  0  0  0  0  0
  152.7840  139.6206  156.2823 N   0  0  0  0  0  0  0  0  0  0  0  0
  152.3058  139.0854  155.1553 C   0  0  0  0  0  0  0  0  0  0  0  0
  151.1168  139.2749  154.5805 N   0  0  0  0  0  0  0  0  0  0  0  0
  150.3546  140.1473  155.2999 C   0  0  0  0  0  0  0  0  0  0  0  0
  150.7272  140.7917  156.5137 C   0  0  0  0  0  0  0  0  0  0  0  0
  149.6955  141.6184  156.9448 N   0  0  0  0  0  0  0  0  0  0  0  0
  148.7630  141.4618  156.0449 C   0  0  0  0  0  0  0  0  0  0  0  0
  149.0752  140.5950  155.0229 N   0  0  0  0  0  0  0  0  0  0  0  0
  148.2273  140.2368  153.8997 C   0  0  0  0  0  0  0  0  0  0  0  0
  147.5650  138.8546  154.0838 C   0  0  2  0  0  0  0  0  0  0  0  0
  148.5364  137.8271  154.0671 O   0  0  0  0  0  0  0  0  0  0  0  0
  146.4790  138.5231  153.0396 C   0  0  1  0  0  0  0  0  0  0  0  0
  146.9659  138.5608  151.5907 C   0  0  0  0  0  0  0  0  0  0  0  0
  145.9238  137.7103  150.9012 C   0  0  0  0  0  0  0  0  0  0  0  0
  145.6655  136.6222  151.9402 C   0  0  0  0  0  0  0  0  0  0  0  0
  145.9681  137.2024  153.2070 O   0  0  0  0  0  0  0  0  0  0  0  0
  152.9149  140.1032  159.2249 C   0  0  0  0  0  0  0  0  0  0  0  0
  153.7358  140.8464  160.3031 C   0  0  1  0  0  0  0  0  0  0  0  0
  153.9743  139.9563  161.5178 C   0  0  0  0  0  0  0  0  0  0  0  0
  155.3352  139.3395  161.2331 C   0  0  0  0  0  0  0  0  0  0  0  0
  156.0549  140.4312  160.6913 O   0  0  0  0  0  0  0  0  0  0  0  0
  155.1783  141.1736  159.8504 C   0  0  0  0  0  0  0  0  0  0  0  0
  153.0120  142.0001  160.7417 O   0  0  0  0  0  0  0  0  0  0  0  0
  151.1286  146.0719  159.9413 H   0  0  0  0  0  0  0  0  0  0  0  0
  150.9033  144.9313  158.6236 H   0  0  0  0  0  0  0  0  0  0  0  0
  152.4974  145.6214  158.9295 H   0  0  0  0  0  0  0  0  0  0  0  0
  152.5297  144.4819  161.1800 H   0  0  0  0  0  0  0  0  0  0  0  0
  150.9944  143.7331  160.8328 H   0  0  0  0  0  0  0  0  0  0  0  0
  153.5596  143.3042  159.2335 H   0  0  0  0  0  0  0  0  0  0  0  0
  150.8579  141.8637  159.0919 H   0  0  0  0  0  0  0  0  0  0  0  0
  151.5557  142.8668  157.8392 H   0  0  0  0  0  0  0  0  0  0  0  0
  152.9711  138.4079  154.6408 H   0  0  0  0  0  0  0  0  0  0  0  0
  147.8150  141.9770  156.1020 H   0  0  0  0  0  0  0  0  0  0  0  0
  147.4708  141.0135  153.7875 H   0  0  0  0  0  0  0  0  0  0  0  0
  148.8298  140.2577  152.9909 H   0  0  0  0  0  0  0  0  0  0  0  0
  147.1071  138.8137  155.0731 H   0  0  0  0  0  0  0  0  0  0  0  0
  148.7168  137.6018  153.1668 H   0  0  0  0  0  0  0  0  0  0  0  0
  145.6450  139.2217  153.1293 H   0  0  0  0  0  0  0  0  0  0  0  0
  147.0247  139.5725  151.1885 H   0  0  0  0  0  0  0  0  0  0  0  0
  147.9473  138.0964  151.4911 H   0  0  0  0  0  0  0  0  0  0  0  0
  145.0171  138.2935  150.7352 H   0  0  0  0  0  0  0  0  0  0  0  0
  146.2566  137.3141  149.9414 H   0  0  0  0  0  0  0  0  0  0  0  0
  144.6392  136.2565  151.9060 H   0  0  0  0  0  0  0  0  0  0  0  0
  146.3327  135.7743  151.7811 H   0  0  0  0  0  0  0  0  0  0  0  0
  152.0147  139.6780  159.6716 H   0  0  0  0  0  0  0  0  0  0  0  0
  153.4947  139.2732  158.8184 H   0  0  0  0  0  0  0  0  0  0  0  0
  154.0428  140.5637  162.4217 H   0  0  0  0  0  0  0  0  0  0  0  0
  153.1932  139.2124  161.6783 H   0  0  0  0  0  0  0  0  0  0  0  0
  155.8165  138.9427  162.1271 H   0  0  0  0  0  0  0  0  0  0  0  0
  155.2599  138.5404  160.4938 H   0  0  0  0  0  0  0  0  0  0  0  0
  155.3461  140.8903  158.8105 H   0  0  0  0  0  0  0  0  0  0  0  0
  155.4218  142.2314  159.9478 H   0  0  0  0  0  0  0  0  0  0  0  0
  1  2  1  0  0  0  0
  1 30  1  0  0  0  0
  1 31  1  0  0  0  0
  1 32  1  0  0  0  0
  2  3  1  0  0  0  0
  2 33  1  0  0  0  0
  2 34  1  0  0  0  0
  3 29  1  0  0  0  0
  3  4  1  0  0  0  0
  3 35  1  0  0  0  0
  4  5  1  0  0  0  0
  4 36  1  0  0  0  0
  4 37  1  0  0  0  0
  5  6  1  0  0  0  0
  5 23  1  0  0  0  0
  6 11  1  0  0  0  0
  6  7  2  0  0  0  0
  7  8  1  0  0  0  0
  8  9  2  0  0  0  0
  8 38  1  0  0  0  0
  9 10  1  0  0  0  0
 10 14  1  0  0  0  0
 10 11  2  0  0  0  0
 11 12  1  0  0  0  0
 12 13  2  0  0  0  0
 13 14  1  0  0  0  0
 13 39  1  0  0  0  0
 14 15  1  0  0  0  0
 15 16  1  0  0  0  0
 15 40  1  0  0  0  0
 15 41  1  0  0  0  0
 16 17  1  0  0  0  0
 16 18  1  0  0  0  0
 16 42  1  0  0  0  0
 17 43  1  0  0  0  0
 18 22  1  0  0  0  0
 18 19  1  0  0  0  0
 18 44  1  0  0  0  0
 19 20  1  0  0  0  0
 19 45  1  0  0  0  0
 19 46  1  0  0  0  0
 20 21  1  0  0  0  0
 20 47  1  0  0  0  0
 20 48  1  0  0  0  0
 21 22  1  0  0  0  0
 21 49  1  0  0  0  0
 21 50  1  0  0  0  0
 23 24  1  0  0  0  0
 23 51  1  0  0  0  0
 23 52  1  0  0  0  0
 24 28  1  0  0  0  0
 24 25  1  0  0  0  0
 24 29  1  0  0  0  0
 25 26  1  0  0  0  0
 25 53  1  0  0  0  0
 25 54  1  0  0  0  0
 26 27  1  0  0  0  0
 26 55  1  0  0  0  0
 26 56  1  0  0  0  0
 27 28  1  0  0  0  0
 28 57  1  0  0  0  0
 28 58  1  0  0  0  0
M  END
> <s_m_source_file>
AV-unprocessed.smi

> <i_m_source_file_index>
229

> <i_lp_mmshare_version>
43012

> <i_f3d_flags>
0

> <s_epik_input>
W0NIMl0xT1tDSDJdW0NIMl1bQ0BdMTJbQ0gyXU4oW0NIMl1bQ0BIXShPMilbQ0gyXVtDSDNdKWMobltjSF1uMyljKGMzNCluW2NIXW40W0NIMl1bQ0BIXShbT0hdKVtDQEBIXTVbQ0gyXVtDSDJdW0NIMl1PNQ==

> <s_epik_cmdline>
J2VwaWtfcHl0aG9uJywgJy1waCcsICc3LjAnLCAnLXRuJywgJzgnLCAnLW1hJywgJzIwMCcsICctbWV0YWxfYmluZGluZycsICctaW1hZScsICc8aW5maWxlLm1hZT4nLCAnLW9tYWUnLCAnPG91dGZpbGUubWFlPic=

> <r_lp_tautomer_probability>
1

> <r_epik_Ionization_Penalty>
0.00318402

> <r_epik_Ionization_Penalty_Charging>
0

> <r_epik_Ionization_Penalty_Neutral>
0.00318402

> <r_epik_State_Penalty>
0.00215642

> <r_epik_Charging_Adjusted_Penalty>
0.00215642

> <i_epik_Tot_Q>
0

> <i_epik_Tot_abs_Q>
0

> <r_epik_Metal_State_Penalty>
-0

> <b_epik_Metal_Only>
0

> <s_lp_Force_Field>
OPLS_2005

> <r_lp_Energy>
54.9877

> <b_lp_Chiralities_Consistent>
1

> <s_lp_Variant>
AV-unprocessed.smi:229-5

> <Gold.Version>
5.8.1

> <Gold.Id.Protein>
6NUR|6NUR_protein|mol2

> <Gold.PLP.Fitness>
55.6031

> <Gold.PLP.PLP>
-49.2427

> <Gold.PLP.part.hbond>
-4.2251

> <Gold.PLP.part.metal>
0.0000

> <Gold.PLP.part.buried>
3.6149

> <Gold.PLP.part.nonpolar>
-48.9712

> <Gold.PLP.part.repulsive>
0.3773

> <Gold.PLP.ligand.clash>
0.0000

> <Gold.PLP.ligand.torsion>
0.5477

> <Gold.PLP.Chemscore.Hbond>
2.2700

> <Gold.PLP.Chemscore.CHOScore>
0.0964

> <Gold.PLP.Chemscore.Metal>
0.0000

> <Gold.Chemscore.Hbonds>
donor molecule, donor type, donor heavy atom, donor atom, acceptor molecule, acceptor atom, score
      L1  H    17    43       P1  7948  0.98
      P1  H  7989  7998       L1     9  0.24
      P1  H  7997  8010       L1     7  1.00

> <Gold.PLP.Chemscore.Internal.Correction>
0.3566

> <Gold.Rescore>
     Score         DG    S(hbond)    S(metal)    S(lipo)     H(rot)  DE(clash)    DE(int)     intcor
     16.23     -20.14       1.68        0.00     131.10       2.46       1.85       2.06       ----

> <Gold.Chemscore.Fitness>
16.2268

> <Gold.Chemscore.DG>
-20.1418

> <Gold.Chemscore.ZeroCoef>
-5.4800

> <Gold.Chemscore.Hbond>
1.6820

> <Gold.Chemscore.Metal>
0.0000

> <Gold.Chemscore.Lipo>
131.1050

> <Gold.Chemscore.Internal_Hbond>
0.0000

> <Gold.Chemscore.DEClash>
1.8519

> <Gold.Chemscore.DEInternal>
2.0632

> <Gold.Chemscore.Rot>
2.4591

> <Gold.Chemscore.Internal.Correction>
   9.000000E+99

> <Gold.Chemscore.Hbonds>
donor molecule, donor type, donor heavy atom, donor atom, acceptor molecule, acceptor atom, score
      L1  H    17    43       P1  7948  0.93
      P1  H  7997  8010       L1     7  0.67

> <Gold.Chemscore.Hbond.Weighted>
-5.6179

> <Gold.Chemscore.Metal.Weighted>
-0.0000

> <Gold.Chemscore.Lipo.Weighted>
-15.3393

> <Gold.Chemscore.Internal_Hbond.Weighted>
0.0000

> <Gold.Chemscore.DEClash.Weighted>
1.8519

> <Gold.Chemscore.DEInternal.Weighted>
2.0632

> <Gold.Chemscore.Rot.Weighted>
6.2953

> <Gold.Chemscore.Internal.Correction.Weighted>
   9.000000E+99

> <Gold.Protein.RotatedTorsions>
[ 6907 6896 6895 6894 ] final   89.60 input  -60.11 | X-H torsion
[ 7974 7965 7964 7962 ] final   70.39 input  175.53 | X-H torsion
[ 8008 7997 7996 7995 ] final   80.33 input   59.86 | X-H torsion
[ 10167 10162 10161 10158 ] final -140.75 input  -65.29 | X-H torsion
[ 10718 10713 10712 10709 ] final  100.86 input   66.30 | X-H torsion
[ 10763 10752 10751 10750 ] final  120.21 input  -60.55 | X-H torsion
[ 11005 11000 10999 10996 ] final   80.25 input  -57.11 | X-H torsion

> <Gold.Protein.ActiveResidues>
 VAL166  LYS551  ARG553  GLY616  TRP617  ASP618  TYR619  PRO620  LYS621  CYS622 
 ASP623  PHE694  ASN695  SER759  ASP760  ASP761  ALA762  ILE779  LEU786  VAL792 
 PHE793  MET794  SER795  GLU796  ALA797  LYS798  CYS799  TRP800  GLU811  SER814 

> <Gold.Protein.RotatedAtoms>
  152.5437  134.1941  159.8685 H   0  0  0  0  0  0  0  0  0  0  0  0  # atno 6907 bound_to 6896
  151.1934  133.4646  159.2602 H   0  0  0  0  0  0  0  0  0  0  0  0  # atno 6908 bound_to 6896
  151.1060  135.0012  159.8527 H   0  0  0  0  0  0  0  0  0  0  0  0  # atno 6909 bound_to 6896
  145.7788  139.2877  143.1278 H   0  0  0  0  0  0  0  0  0  0  0  0  # atno 7974 bound_to 7965
  155.8821  140.3443  155.5895 H   0  0  0  0  0  0  0  0  0  0  0  0  # atno 8008 bound_to 7997
  155.7708  140.0845  157.2128 H   0  0  0  0  0  0  0  0  0  0  0  0  # atno 8009 bound_to 7997
  154.4025  140.1518  156.2927 H   0  0  0  0  0  0  0  0  0  0  0  0  # atno 8010 bound_to 7997
  139.8251  143.7521  152.2666 H   0  0  0  0  0  0  0  0  0  0  0  0  # atno 10167 bound_to 10162
  157.6844  131.0710  150.5164 H   0  0  0  0  0  0  0  0  0  0  0  0  # atno 10718 bound_to 10713
  153.5950  135.3458  155.2924 H   0  0  0  0  0  0  0  0  0  0  0  0  # atno 10763 bound_to 10752
  154.8646  135.4214  154.2475 H   0  0  0  0  0  0  0  0  0  0  0  0  # atno 10764 bound_to 10752
  153.3290  135.7043  153.7035 H   0  0  0  0  0  0  0  0  0  0  0  0  # atno 10765 bound_to 10752
  139.9141  134.7905  156.1884 H   0  0  0  0  0  0  0  0  0  0  0  0  # atno 11005 bound_to 11000
  146.0095  140.8448  142.9978 LP  0  0  0  0  0  0  0  0  0  0  0  0  # atno 17320 bound_to 7965
  144.6800  140.2470  143.7336 LP  0  0  0  0  0  0  0  0  0  0  0  0  # atno 17321 bound_to 7965
  139.7711  144.7476  151.0222 LP  0  0  0  0  0  0  0  0  0  0  0  0  # atno 17342 bound_to 10162
  140.7811  143.4643  151.0233 LP  0  0  0  0  0  0  0  0  0  0  0  0  # atno 17343 bound_to 10162
  156.5479  130.4224  149.6122 LP  0  0  0  0  0  0  0  0  0  0  0  0  # atno 17370 bound_to 10713
  156.2928  130.7133  151.1986 LP  0  0  0  0  0  0  0  0  0  0  0  0  # atno 17371 bound_to 10713
  141.0599  133.6847  156.1932 LP  0  0  0  0  0  0  0  0  0  0  0  0  # atno 17394 bound_to 11000
  140.6678  134.4900  157.5586 LP  0  0  0  0  0  0  0  0  0  0  0  0  # atno 17395 bound_to 11000

$$$$
