AV-unprocessed.smi:2644|AV-procd|sdf|10278|dock2
  -GOLD-   2272014293D 1   1.00000     0.00000
 Structure written by MMmdl.
 42 44  0  0  0  0  0  0  0  0  1 V2000
  147.0052  138.6654  152.7953 C   0  0  0  0  0  0  0  0  0  0  0  0
  147.3014  139.8462  153.5267 O   0  0  0  0  0  0  0  0  0  0  0  0
  148.5071  139.9100  154.1914 C   0  0  0  0  0  0  0  0  0  0  0  0
  148.7997  141.1059  154.8775 C   0  0  0  0  0  0  0  0  0  0  0  0
  149.9994  141.2460  155.5997 C   0  0  0  0  0  0  0  0  0  0  0  0
  150.9224  140.1855  155.6448 C   0  0  0  0  0  0  0  0  0  0  0  0
  150.6519  138.9826  154.9586 C   0  0  0  0  0  0  0  0  0  0  0  0
  151.6121  137.8022  155.0503 C   0  0  1  0  0  0  0  0  0  0  0  0
  151.7196  137.0956  153.8310 O   0  0  0  0  0  0  0  0  0  0  0  0
  153.0304  138.2258  155.5009 C   0  0  0  0  0  0  0  0  0  0  0  0
  153.1980  138.1657  156.9595 N   0  0  0  0  0  0  0  0  0  0  0  0
  153.0893  139.3916  157.5925 N   0  0  0  0  0  0  0  0  0  0  0  0
  153.1158  139.4852  158.8814 C   0  0  0  0  0  0  0  0  0  0  0  0
  152.9267  140.8130  159.4372 C   0  0  0  0  0  0  0  0  0  0  0  0
  153.3950  141.1394  160.6856 C   0  0  0  0  0  0  0  0  0  0  0  0
  153.0836  142.4886  161.0312 C   0  0  0  0  0  0  0  0  0  0  0  0
  152.3875  143.1579  160.0541 C   0  0  0  0  0  0  0  0  0  0  0  0
  151.9041  144.5681  160.0833 C   0  0  0  0  0  0  0  0  0  0  0  0
  152.0911  142.1376  158.6681 S   0  0  0  0  0  0  0  0  0  0  0  0
  153.3170  138.2845  159.6797 C   0  0  0  0  0  0  0  0  0  0  0  0
  153.4364  137.0928  159.0556 C   0  0  0  0  0  0  0  0  0  0  0  0
  153.3654  136.9730  157.6009 C   0  0  0  0  0  0  0  0  0  0  0  0
  153.4318  135.8967  157.0078 O   0  0  0  0  0  0  0  0  0  0  0  0
  149.4497  138.8523  154.2299 C   0  0  0  0  0  0  0  0  0  0  0  0
  146.0085  138.7501  152.3627 H   0  0  0  0  0  0  0  0  0  0  0  0
  147.0105  137.7852  153.4402 H   0  0  0  0  0  0  0  0  0  0  0  0
  147.7088  138.5176  151.9749 H   0  0  0  0  0  0  0  0  0  0  0  0
  148.0926  141.9221  154.8570 H   0  0  0  0  0  0  0  0  0  0  0  0
  150.2065  142.1647  156.1283 H   0  0  0  0  0  0  0  0  0  0  0  0
  151.8309  140.2938  156.2189 H   0  0  0  0  0  0  0  0  0  0  0  0
  151.2109  137.0951  155.7774 H   0  0  0  0  0  0  0  0  0  0  0  0
  150.9072  136.6373  153.6792 H   0  0  0  0  0  0  0  0  0  0  0  0
  153.7834  137.6079  155.0079 H   0  0  0  0  0  0  0  0  0  0  0  0
  153.2289  139.2442  155.1607 H   0  0  0  0  0  0  0  0  0  0  0  0
  153.9378  140.4983  161.3632 H   0  0  0  0  0  0  0  0  0  0  0  0
  153.3780  142.9181  161.9777 H   0  0  0  0  0  0  0  0  0  0  0  0
  152.2557  145.0858  160.9761 H   0  0  0  0  0  0  0  0  0  0  0  0
  150.8145  144.6028  160.0808 H   0  0  0  0  0  0  0  0  0  0  0  0
  152.2622  145.1182  159.2131 H   0  0  0  0  0  0  0  0  0  0  0  0
  153.3705  138.3306  160.7558 H   0  0  0  0  0  0  0  0  0  0  0  0
  153.5846  136.2010  159.6468 H   0  0  0  0  0  0  0  0  0  0  0  0
  149.2583  137.9166  153.7270 H   0  0  0  0  0  0  0  0  0  0  0  0
  1  2  1  0  0  0  0
  1 25  1  0  0  0  0
  1 26  1  0  0  0  0
  1 27  1  0  0  0  0
  2  3  1  0  0  0  0
  3 24  1  0  0  0  0
  3  4  2  0  0  0  0
  4  5  1  0  0  0  0
  4 28  1  0  0  0  0
  5  6  2  0  0  0  0
  5 29  1  0  0  0  0
  6  7  1  0  0  0  0
  6 30  1  0  0  0  0
  7  8  1  0  0  0  0
  7 24  2  0  0  0  0
  8  9  1  0  0  0  0
  8 10  1  0  0  0  0
  8 31  1  0  0  0  0
  9 32  1  0  0  0  0
 10 11  1  0  0  0  0
 10 33  1  0  0  0  0
 10 34  1  0  0  0  0
 11 22  1  0  0  0  0
 11 12  1  0  0  0  0
 12 13  2  0  0  0  0
 13 14  1  0  0  0  0
 13 20  1  0  0  0  0
 14 19  1  0  0  0  0
 14 15  2  0  0  0  0
 15 16  1  0  0  0  0
 15 35  1  0  0  0  0
 16 17  2  0  0  0  0
 16 36  1  0  0  0  0
 17 18  1  0  0  0  0
 17 19  1  0  0  0  0
 18 37  1  0  0  0  0
 18 38  1  0  0  0  0
 18 39  1  0  0  0  0
 20 21  2  0  0  0  0
 20 40  1  0  0  0  0
 21 22  1  0  0  0  0
 21 41  1  0  0  0  0
 22 23  2  0  0  0  0
 24 42  1  0  0  0  0
M  END
> <s_m_source_file>
AV-unprocessed.smi

> <i_m_source_file_index>
2644

> <i_lp_mmshare_version>
43012

> <i_f3d_flags>
0

> <s_epik_input>
W0NIM11PYzFbY0hdW2NIXVtjSF1jKFtjSF0xKVtDQEhdKFtPSF0pW0NIMl1uMm5jKFtjSF1bY0hdYzI9TyktYzNbY0hdW2NIXWMoczMpW0NIM10=

> <s_epik_cmdline>
J2VwaWtfcHl0aG9uJywgJy1waCcsICc3LjAnLCAnLXRuJywgJzgnLCAnLW1hJywgJzIwMCcsICctbWV0YWxfYmluZGluZycsICctaW1hZScsICc8aW5maWxlLm1hZT4nLCAnLW9tYWUnLCAnPG91dGZpbGUubWFlPic=

> <r_lp_tautomer_probability>
1

> <r_epik_Ionization_Penalty>
1.30631e-07

> <r_epik_Ionization_Penalty_Charging>
5.89185e-08

> <r_epik_Ionization_Penalty_Neutral>
7.1713e-08

> <r_epik_State_Penalty>
-0

> <r_epik_Charging_Adjusted_Penalty>
5.89185e-08

> <i_epik_Tot_Q>
0

> <i_epik_Tot_abs_Q>
0

> <r_epik_Metal_State_Penalty>
-0

> <b_epik_Metal_Only>
0

> <s_lp_Force_Field>
OPLS_2005

> <r_lp_Energy>
28.4714

> <b_lp_Chiralities_Consistent>
1

> <s_lp_Variant>
AV-unprocessed.smi:2644-2

> <Gold.Version>
5.8.1

> <Gold.Id.Protein>
6NUR|6NUR_protein|mol2

> <Gold.PLP.Fitness>
58.3057

> <Gold.PLP.PLP>
-52.2122

> <Gold.PLP.part.hbond>
-4.0000

> <Gold.PLP.part.metal>
0.0000

> <Gold.PLP.part.buried>
-3.0401

> <Gold.PLP.part.nonpolar>
-45.2147

> <Gold.PLP.part.repulsive>
0.1845

> <Gold.PLP.ligand.clash>
0.0000

> <Gold.PLP.ligand.torsion>
1.5216

> <Gold.PLP.Chemscore.Hbond>
2.9913

> <Gold.PLP.Chemscore.CHOScore>
0.0000

> <Gold.PLP.Chemscore.Metal>
0.0000

> <Gold.Chemscore.Hbonds>
donor molecule, donor type, donor heavy atom, donor atom, acceptor molecule, acceptor atom, score
      L1  H     9    32       P1  7949  0.01
      P1  H  7997  8010       L1    12  0.80
      P1  H 10752 10763       L1     9  1.00
      P1  H 10752 10764       L1    23  1.00

> <Gold.PLP.Chemscore.Internal.Correction>
0.1628

> <Gold.Rescore>
     Score         DG    S(hbond)    S(metal)    S(lipo)     H(rot)  DE(clash)    DE(int)     intcor
     22.42     -24.00       2.08        0.00     142.25       1.98       0.21       1.37       ----

> <Gold.Chemscore.Fitness>
22.4165

> <Gold.Chemscore.DG>
-24.0008

> <Gold.Chemscore.ZeroCoef>
-5.4800

> <Gold.Chemscore.Hbond>
2.0782

> <Gold.Chemscore.Metal>
0.0000

> <Gold.Chemscore.Lipo>
142.2450

> <Gold.Chemscore.Internal_Hbond>
0.0000

> <Gold.Chemscore.DEClash>
0.2137

> <Gold.Chemscore.DEInternal>
1.3706

> <Gold.Chemscore.Rot>
1.9777

> <Gold.Chemscore.Internal.Correction>
   9.000000E+99

> <Gold.Chemscore.Hbonds>
donor molecule, donor type, donor heavy atom, donor atom, acceptor molecule, acceptor atom, score
      P1  H  7997  8010       L1    12  0.06
      P1  H 10752 10763       L1     9  0.44
      P1  H 10752 10764       L1    23  1.00

> <Gold.Chemscore.Hbond.Weighted>
-6.9410

> <Gold.Chemscore.Metal.Weighted>
-0.0000

> <Gold.Chemscore.Lipo.Weighted>
-16.6427

> <Gold.Chemscore.Internal_Hbond.Weighted>
0.0000

> <Gold.Chemscore.DEClash.Weighted>
0.2137

> <Gold.Chemscore.DEInternal.Weighted>
1.3706

> <Gold.Chemscore.Rot.Weighted>
5.0629

> <Gold.Chemscore.Internal.Correction.Weighted>
   9.000000E+99

> <Gold.Protein.RotatedTorsions>
[ 6907 6896 6895 6894 ] final -110.11 input  -60.11 | X-H torsion
[ 7974 7965 7964 7962 ] final   22.61 input  175.53 | X-H torsion
[ 8008 7997 7996 7995 ] final   31.32 input   59.86 | X-H torsion
[ 10167 10162 10161 10158 ] final  178.91 input  -65.29 | X-H torsion
[ 10718 10713 10712 10709 ] final  123.31 input   66.30 | X-H torsion
[ 10763 10752 10751 10750 ] final   13.45 input  -60.55 | X-H torsion
[ 11005 11000 10999 10996 ] final  -95.06 input  -57.11 | X-H torsion

> <Gold.Protein.ActiveResidues>
 VAL166  LYS551  ARG553  GLY616  TRP617  ASP618  TYR619  PRO620  LYS621  CYS622 
 ASP623  PHE694  ASN695  SER759  ASP760  ASP761  ALA762  ILE779  LEU786  VAL792 
 PHE793  MET794  SER795  GLU796  ALA797  LYS798  CYS799  TRP800  GLU811  SER814 

> <Gold.Protein.RotatedAtoms>
  150.7604  133.9430  159.3461 H   0  0  0  0  0  0  0  0  0  0  0  0  # atno 6907 bound_to 6896
  151.7340  135.0866  160.0314 H   0  0  0  0  0  0  0  0  0  0  0  0  # atno 6908 bound_to 6896
  152.3571  133.6213  159.6023 H   0  0  0  0  0  0  0  0  0  0  0  0  # atno 6909 bound_to 6896
  146.2021  139.7861  142.8753 H   0  0  0  0  0  0  0  0  0  0  0  0  # atno 7974 bound_to 7965
  155.1045  140.3233  155.4538 H   0  0  0  0  0  0  0  0  0  0  0  0  # atno 8008 bound_to 7997
  156.2708  140.2055  156.6118 H   0  0  0  0  0  0  0  0  0  0  0  0  # atno 8009 bound_to 7997
  154.6803  140.0527  157.0246 H   0  0  0  0  0  0  0  0  0  0  0  0  # atno 8010 bound_to 7997
  139.5314  144.2623  152.0696 H   0  0  0  0  0  0  0  0  0  0  0  0  # atno 10167 bound_to 10162
  157.5675  131.1085  150.8428 H   0  0  0  0  0  0  0  0  0  0  0  0  # atno 10718 bound_to 10713
  153.1720  135.6814  153.8595 H   0  0  0  0  0  0  0  0  0  0  0  0  # atno 10763 bound_to 10752
  153.7956  135.3163  155.3385 H   0  0  0  0  0  0  0  0  0  0  0  0  # atno 10764 bound_to 10752
  154.8004  135.4781  154.0354 H   0  0  0  0  0  0  0  0  0  0  0  0  # atno 10765 bound_to 10752
  141.1453  133.7999  157.0383 H   0  0  0  0  0  0  0  0  0  0  0  0  # atno 11005 bound_to 11000
  145.3447  141.0295  143.3372 LP  0  0  0  0  0  0  0  0  0  0  0  0  # atno 17320 bound_to 7965
  144.8708  139.5042  143.6769 LP  0  0  0  0  0  0  0  0  0  0  0  0  # atno 17321 bound_to 7965
  140.2087  144.4584  150.6396 LP  0  0  0  0  0  0  0  0  0  0  0  0  # atno 17342 bound_to 10162
  140.6494  143.2221  151.6111 LP  0  0  0  0  0  0  0  0  0  0  0  0  # atno 17343 bound_to 10162
  156.8909  130.5212  149.5286 LP  0  0  0  0  0  0  0  0  0  0  0  0  # atno 17370 bound_to 10713
  156.0722  130.5752  150.9405 LP  0  0  0  0  0  0  0  0  0  0  0  0  # atno 17371 bound_to 10713
  140.0709  134.9702  157.1466 LP  0  0  0  0  0  0  0  0  0  0  0  0  # atno 17394 bound_to 11000
  140.3712  134.2388  155.7178 LP  0  0  0  0  0  0  0  0  0  0  0  0  # atno 17395 bound_to 11000

$$$$
