AV-unprocessed.smi:438|AV-procd|sdf|2568|dock7
  -GOLD-   2262022543D 1   1.00000     0.00000
 Structure written by MMmdl.
 48 49  0  0  0  0  0  0  0  0  1 V2000
  146.7987  141.5833  153.4978 C   0  0  0  0  0  0  0  0  0  0  0  0
  147.2984  140.4369  154.3587 C   0  0  0  0  0  0  0  0  0  0  0  0
  148.0253  140.8277  155.4685 N   0  0  0  0  0  0  0  0  0  0  0  0
  148.4735  139.8591  156.3530 C   0  0  0  0  0  0  0  0  0  0  0  0
  149.3082  140.6490  157.7641 S   0  0  0  0  0  0  0  0  0  0  0  0
  150.9110  139.7903  157.8140 C   0  0  0  0  0  0  0  0  0  0  0  0
  152.0875  140.7656  157.7995 C   0  0  0  0  0  0  0  0  0  0  0  0
  153.0778  140.5244  157.1100 O   0  0  0  0  0  0  0  0  0  0  0  0
  151.9548  141.8749  158.5422 N   0  0  0  0  0  0  0  0  0  0  0  0
  152.9001  142.9896  158.5899 C   0  0  1  0  0  0  0  0  0  0  0  0
  152.2627  144.2693  158.0040 C   0  0  0  0  0  0  0  0  0  0  0  0
  151.1527  144.8322  158.9085 C   0  0  0  0  0  0  0  0  0  0  0  0
  151.6746  145.0832  160.3303 C   0  0  0  0  0  0  0  0  0  0  0  0
  152.2946  143.8123  160.9321 C   0  0  0  0  0  0  0  0  0  0  0  0
  153.4072  143.2342  160.0332 C   0  0  1  0  0  0  0  0  0  0  0  0
  154.0435  141.9824  160.6617 C   0  0  0  0  0  0  0  0  0  0  0  0
  148.2955  138.5836  156.1718 N   0  0  0  0  0  0  0  0  0  0  0  0
  147.6100  138.1227  155.0384 C   0  0  0  0  0  0  0  0  0  0  0  0
  147.4687  136.9165  154.8422 O   0  0  0  0  0  0  0  0  0  0  0  0
  147.0584  139.1277  154.1060 C   0  0  0  0  0  0  0  0  0  0  0  0
  146.2572  138.6396  152.9027 C   0  0  0  0  0  0  0  0  0  0  0  0
  146.8357  139.1561  151.5772 C   0  0  0  0  0  0  0  0  0  0  0  0
  147.2681  138.0699  150.7878 O   0  0  0  0  0  0  0  0  0  0  0  0
  145.7144  141.5346  153.3933 H   0  0  0  0  0  0  0  0  0  0  0  0
  147.2450  141.5351  152.5042 H   0  0  0  0  0  0  0  0  0  0  0  0
  147.0508  142.5521  153.9310 H   0  0  0  0  0  0  0  0  0  0  0  0
  150.9797  139.1544  156.9309 H   0  0  0  0  0  0  0  0  0  0  0  0
  150.9671  139.1253  158.6766 H   0  0  0  0  0  0  0  0  0  0  0  0
  151.1034  141.9830  159.0749 H   0  0  0  0  0  0  0  0  0  0  0  0
  153.7633  142.7271  157.9757 H   0  0  0  0  0  0  0  0  0  0  0  0
  153.0371  145.0272  157.8792 H   0  0  0  0  0  0  0  0  0  0  0  0
  151.8676  144.0781  157.0056 H   0  0  0  0  0  0  0  0  0  0  0  0
  150.7654  145.7599  158.4870 H   0  0  0  0  0  0  0  0  0  0  0  0
  150.3126  144.1383  158.9422 H   0  0  0  0  0  0  0  0  0  0  0  0
  152.4214  145.8778  160.3093 H   0  0  0  0  0  0  0  0  0  0  0  0
  150.8637  145.4386  160.9656 H   0  0  0  0  0  0  0  0  0  0  0  0
  152.6944  144.0376  161.9213 H   0  0  0  0  0  0  0  0  0  0  0  0
  151.5176  143.0637  161.0816 H   0  0  0  0  0  0  0  0  0  0  0  0
  154.1936  143.9880  159.9709 H   0  0  0  0  0  0  0  0  0  0  0  0
  153.3102  141.1905  160.8166 H   0  0  0  0  0  0  0  0  0  0  0  0
  154.4841  142.2145  161.6314 H   0  0  0  0  0  0  0  0  0  0  0  0
  154.8357  141.5840  160.0277 H   0  0  0  0  0  0  0  0  0  0  0  0
  148.1687  141.8160  155.6194 H   0  0  0  0  0  0  0  0  0  0  0  0
  145.2173  138.9528  153.0077 H   0  0  0  0  0  0  0  0  0  0  0  0
  146.2285  137.5503  152.8854 H   0  0  0  0  0  0  0  0  0  0  0  0
  146.0865  139.7185  151.0195 H   0  0  0  0  0  0  0  0  0  0  0  0
  147.6787  139.8241  151.7577 H   0  0  0  0  0  0  0  0  0  0  0  0
  147.8892  137.5625  151.2878 H   0  0  0  0  0  0  0  0  0  0  0  0
  1 24  1  0  0  0  0
  1 25  1  0  0  0  0
  1 26  1  0  0  0  0
  1  2  1  0  0  0  0
  2 20  2  0  0  0  0
  2  3  1  0  0  0  0
  3  4  1  0  0  0  0
  3 43  1  0  0  0  0
  4  5  1  0  0  0  0
  4 17  2  0  0  0  0
  5  6  1  0  0  0  0
  6  7  1  0  0  0  0
  6 27  1  0  0  0  0
  6 28  1  0  0  0  0
  7  8  2  0  0  0  0
  7  9  1  0  0  0  0
  9 10  1  0  0  0  0
  9 29  1  0  0  0  0
 10 15  1  0  0  0  0
 10 11  1  0  0  0  0
 10 30  1  0  0  0  0
 11 12  1  0  0  0  0
 11 31  1  0  0  0  0
 11 32  1  0  0  0  0
 12 13  1  0  0  0  0
 12 33  1  0  0  0  0
 12 34  1  0  0  0  0
 13 14  1  0  0  0  0
 13 35  1  0  0  0  0
 13 36  1  0  0  0  0
 14 15  1  0  0  0  0
 14 37  1  0  0  0  0
 14 38  1  0  0  0  0
 15 16  1  0  0  0  0
 15 39  1  0  0  0  0
 16 40  1  0  0  0  0
 16 41  1  0  0  0  0
 16 42  1  0  0  0  0
 17 18  1  0  0  0  0
 18 19  2  0  0  0  0
 18 20  1  0  0  0  0
 20 21  1  0  0  0  0
 21 22  1  0  0  0  0
 21 44  1  0  0  0  0
 21 45  1  0  0  0  0
 22 23  1  0  0  0  0
 22 46  1  0  0  0  0
 22 47  1  0  0  0  0
 23 48  1  0  0  0  0
M  END
> <s_m_source_file>
AV-unprocessed.smi

> <i_m_source_file_index>
438

> <i_lp_mmshare_version>
43012

> <i_f3d_flags>
0

> <s_epik_input>
W09IXVtDSDJdW0NIMl1jMWMoW09IXSluYyhuYzFbQ0gzXSlTW0NIMl1DKD1PKVtOSF1bQ0BASF0yW0NIMl1bQ0gyXVtDSDJdW0NIMl1bQ0BIXTJbQ0gzXQ==

> <s_epik_cmdline>
J2VwaWtfcHl0aG9uJywgJy1waCcsICc3LjAnLCAnLXRuJywgJzgnLCAnLW1hJywgJzIwMCcsICctbWV0YWxfYmluZGluZycsICctaW1hZScsICc8aW5maWxlLm1hZT4nLCAnLW9tYWUnLCAnPG91dGZpbGUubWFlPic=

> <r_lp_tautomer_probability>
0.273662

> <r_epik_Ionization_Penalty>
0.0875285

> <r_epik_Ionization_Penalty_Charging>
0.0875254

> <r_epik_Ionization_Penalty_Neutral>
3.01536e-06

> <r_epik_State_Penalty>
0.985796

> <r_epik_Charging_Adjusted_Penalty>
1.07332

> <i_epik_Tot_Q>
0

> <i_epik_Tot_abs_Q>
0

> <r_epik_Metal_State_Penalty>
1.58101

> <b_epik_Metal_Only>
0

> <s_lp_Force_Field>
OPLS_2005

> <r_lp_Energy>
13.0189

> <b_lp_Chiralities_Consistent>
1

> <s_lp_Variant>
AV-unprocessed.smi:438-6

> <Gold.Version>
5.8.1

> <Gold.Id.Protein>
6NUR|6NUR_protein|mol2

> <Gold.PLP.Fitness>
49.3543

> <Gold.PLP.PLP>
-42.9051

> <Gold.PLP.part.hbond>
-3.0221

> <Gold.PLP.part.metal>
0.0000

> <Gold.PLP.part.buried>
-3.3673

> <Gold.PLP.part.nonpolar>
-36.4527

> <Gold.PLP.part.repulsive>
0.1690

> <Gold.PLP.ligand.clash>
0.0000

> <Gold.PLP.ligand.torsion>
1.0844

> <Gold.PLP.Chemscore.Hbond>
2.8620

> <Gold.PLP.Chemscore.CHOScore>
0.0000

> <Gold.PLP.Chemscore.Metal>
0.0000

> <Gold.Chemscore.Hbonds>
donor molecule, donor type, donor heavy atom, donor atom, acceptor molecule, acceptor atom, score
      L1  H    23    48       P1  7948  1.00
      P1  H  7997  8008       L1     8  0.59

> <Gold.PLP.Chemscore.Internal.Correction>
0.0320

> <Gold.Rescore>
     Score         DG    S(hbond)    S(metal)    S(lipo)     H(rot)  DE(clash)    DE(int)     intcor
     17.25     -18.50       1.93        0.00     118.74       2.86       0.03       1.21       ----

> <Gold.Chemscore.Fitness>
17.2514

> <Gold.Chemscore.DG>
-18.4967

> <Gold.Chemscore.ZeroCoef>
-5.4800

> <Gold.Chemscore.Hbond>
1.9333

> <Gold.Chemscore.Metal>
0.0000

> <Gold.Chemscore.Lipo>
118.7408

> <Gold.Chemscore.Internal_Hbond>
0.0000

> <Gold.Chemscore.DEClash>
0.0310

> <Gold.Chemscore.DEInternal>
1.2143

> <Gold.Chemscore.Rot>
2.8645

> <Gold.Chemscore.Internal.Correction>
   9.000000E+99

> <Gold.Chemscore.Hbonds>
donor molecule, donor type, donor heavy atom, donor atom, acceptor molecule, acceptor atom, score
      L1  H    23    48       P1  7948  1.00
      P1  H  7997  8008       L1     8  0.58

> <Gold.Chemscore.Hbond.Weighted>
-6.4571

> <Gold.Chemscore.Metal.Weighted>
-0.0000

> <Gold.Chemscore.Lipo.Weighted>
-13.8927

> <Gold.Chemscore.Internal_Hbond.Weighted>
0.0000

> <Gold.Chemscore.DEClash.Weighted>
0.0310

> <Gold.Chemscore.DEInternal.Weighted>
1.2143

> <Gold.Chemscore.Rot.Weighted>
7.3331

> <Gold.Chemscore.Internal.Correction.Weighted>
   9.000000E+99

> <Gold.Protein.RotatedTorsions>
[ 6907 6896 6895 6894 ] final    7.76 input  -60.11 | X-H torsion
[ 7974 7965 7964 7962 ] final   26.55 input  175.53 | X-H torsion
[ 8008 7997 7996 7995 ] final  -65.80 input   59.86 | X-H torsion
[ 10167 10162 10161 10158 ] final -127.02 input  -65.29 | X-H torsion
[ 10718 10713 10712 10709 ] final  131.57 input   66.30 | X-H torsion
[ 10763 10752 10751 10750 ] final  -54.50 input  -60.55 | X-H torsion
[ 11005 11000 10999 10996 ] final   94.48 input  -57.11 | X-H torsion

> <Gold.Protein.ActiveResidues>
 VAL166  LYS551  ARG553  GLY616  TRP617  ASP618  TYR619  PRO620  LYS621  CYS622 
 ASP623  PHE694  ASN695  SER759  ASP760  ASP761  ALA762  ILE779  LEU786  VAL792 
 PHE793  MET794  SER795  GLU796  ALA797  LYS798  CYS799  TRP800  GLU811  SER814 

> <Gold.Protein.RotatedAtoms>
  151.6951  135.0940  160.0240 H   0  0  0  0  0  0  0  0  0  0  0  0  # atno 6907 bound_to 6896
  152.3755  133.6471  159.6128 H   0  0  0  0  0  0  0  0  0  0  0  0  # atno 6908 bound_to 6896
  150.7706  133.9117  159.3412 H   0  0  0  0  0  0  0  0  0  0  0  0  # atno 6909 bound_to 6896
  146.1831  139.7313  142.8886 H   0  0  0  0  0  0  0  0  0  0  0  0  # atno 7974 bound_to 7965
  154.4694  140.0926  156.7106 H   0  0  0  0  0  0  0  0  0  0  0  0  # atno 8008 bound_to 7997
  155.4766  140.3466  155.4315 H   0  0  0  0  0  0  0  0  0  0  0  0  # atno 8009 bound_to 7997
  156.1013  140.1423  156.9452 H   0  0  0  0  0  0  0  0  0  0  0  0  # atno 8010 bound_to 7997
  139.9652  143.5905  152.2431 H   0  0  0  0  0  0  0  0  0  0  0  0  # atno 10167 bound_to 10162
  157.4955  131.1092  150.9499 H   0  0  0  0  0  0  0  0  0  0  0  0  # atno 10718 bound_to 10713
  154.1758  135.6451  153.5021 H   0  0  0  0  0  0  0  0  0  0  0  0  # atno 10763 bound_to 10752
  153.0072  135.5394  154.6565 H   0  0  0  0  0  0  0  0  0  0  0  0  # atno 10764 bound_to 10752
  154.5916  135.2935  155.0601 H   0  0  0  0  0  0  0  0  0  0  0  0  # atno 10765 bound_to 10752
  139.8798  134.8848  156.3871 H   0  0  0  0  0  0  0  0  0  0  0  0  # atno 11005 bound_to 11000
  145.4017  141.0386  143.3067 LP  0  0  0  0  0  0  0  0  0  0  0  0  # atno 17320 bound_to 7965
  144.8350  139.5565  143.6926 LP  0  0  0  0  0  0  0  0  0  0  0  0  # atno 17321 bound_to 7965
  139.6523  144.7661  151.2124 LP  0  0  0  0  0  0  0  0  0  0  0  0  # atno 17342 bound_to 10162
  140.7540  143.6141  150.8576 LP  0  0  0  0  0  0  0  0  0  0  0  0  # atno 17343 bound_to 10162
  157.0187  130.5665  149.5329 LP  0  0  0  0  0  0  0  0  0  0  0  0  # atno 17370 bound_to 10713
  156.0198  130.5292  150.8241 LP  0  0  0  0  0  0  0  0  0  0  0  0  # atno 17371 bound_to 10713
  140.9359  133.7547  156.0084 LP  0  0  0  0  0  0  0  0  0  0  0  0  # atno 17394 bound_to 11000
  140.8276  134.3215  157.5360 LP  0  0  0  0  0  0  0  0  0  0  0  0  # atno 17395 bound_to 11000

$$$$
