AV-unprocessed.smi:2832|AV-procd|sdf|10912|dock9
  -GOLD-   2272015363D 1   1.00000     0.00000
 Structure written by MMmdl.
 33 33  0  0  0  0  0  0  0  0  2 V2000
  148.3044  141.3635  154.1211 C   0  0  0  0  0  0  0  0  0  0  0  0
  149.6546  141.1385  154.8097 C   0  0  0  0  0  0  0  0  0  0  0  0
  150.0077  139.6383  154.9309 C   0  0  0  0  0  0  0  0  0  0  0  0
  151.2751  139.2659  155.7653 C   0  0  1  0  0  0  0  0  0  0  0  0
  152.5397  139.6428  154.9600 C   0  0  0  0  0  0  0  0  0  0  0  0
  151.3801  139.9370  157.0732 N   0  0  0  0  0  0  0  0  0  0  0  0
  152.3823  139.9798  157.9705 C   0  0  0  0  0  0  0  0  0  0  0  0
  153.4220  139.3268  157.8919 O   0  0  0  0  0  0  0  0  0  0  0  0
  152.1659  140.9061  159.1683 C   0  0  0  0  0  0  0  0  0  0  0  0
  152.1063  142.2985  158.7572 N   0  0  0  0  0  0  0  0  0  0  0  0
  152.9131  143.3452  159.1539 C   0  0  0  0  0  0  0  0  0  0  0  0
  152.4755  144.4645  158.5056 C   0  0  0  0  0  0  0  0  0  0  0  0
  151.3841  143.9958  157.7221 C   0  0  0  0  0  0  0  0  0  0  0  0
  151.1672  142.6994  157.8724 N   0  0  0  0  0  0  0  0  0  0  0  0
  151.2410  137.7384  156.0244 C   0  0  0  0  0  0  0  0  0  0  0  0
  150.2866  137.2776  156.6900 O   0  0  0  0  0  0  0  0  0  0  0  0
  152.1773  137.0451  155.5650 O   0  5  0  0  0  0  0  0  0  0  0  0
  148.0707  142.4268  154.0643 H   0  0  0  0  0  0  0  0  0  0  0  0
  147.4976  140.8737  154.6669 H   0  0  0  0  0  0  0  0  0  0  0  0
  148.3116  140.9694  153.1045 H   0  0  0  0  0  0  0  0  0  0  0  0
  150.4241  141.6728  154.2544 H   0  0  0  0  0  0  0  0  0  0  0  0
  149.6192  141.5978  155.7975 H   0  0  0  0  0  0  0  0  0  0  0  0
  149.1450  139.1321  155.3677 H   0  0  0  0  0  0  0  0  0  0  0  0
  150.0897  139.2075  153.9333 H   0  0  0  0  0  0  0  0  0  0  0  0
  152.5363  139.1997  153.9633 H   0  0  0  0  0  0  0  0  0  0  0  0
  153.4500  139.3157  155.4649 H   0  0  0  0  0  0  0  0  0  0  0  0
  152.6119  140.7230  154.8287 H   0  0  0  0  0  0  0  0  0  0  0  0
  150.5859  140.5223  157.2903 H   0  0  0  0  0  0  0  0  0  0  0  0
  151.2335  140.6530  159.6743 H   0  0  0  0  0  0  0  0  0  0  0  0
  152.9722  140.7678  159.8908 H   0  0  0  0  0  0  0  0  0  0  0  0
  153.7192  143.2066  159.8593 H   0  0  0  0  0  0  0  0  0  0  0  0
  152.8733  145.4655  158.5806 H   0  0  0  0  0  0  0  0  0  0  0  0
  150.7475  144.5549  157.0522 H   0  0  0  0  0  0  0  0  0  0  0  0
  1  2  1  0  0  0  0
  1 18  1  0  0  0  0
  1 19  1  0  0  0  0
  1 20  1  0  0  0  0
  2  3  1  0  0  0  0
  2 21  1  0  0  0  0
  2 22  1  0  0  0  0
  3  4  1  0  0  0  0
  3 23  1  0  0  0  0
  3 24  1  0  0  0  0
  4  5  1  0  0  0  0
  4  6  1  0  0  0  0
  4 15  1  0  0  0  0
  5 25  1  0  0  0  0
  5 26  1  0  0  0  0
  5 27  1  0  0  0  0
  6  7  1  0  0  0  0
  6 28  1  0  0  0  0
  7  8  2  0  0  0  0
  7  9  1  0  0  0  0
  9 10  1  0  0  0  0
  9 29  1  0  0  0  0
  9 30  1  0  0  0  0
 10 14  1  0  0  0  0
 10 11  1  0  0  0  0
 11 12  2  0  0  0  0
 11 31  1  0  0  0  0
 12 13  1  0  0  0  0
 12 32  1  0  0  0  0
 13 14  2  0  0  0  0
 13 33  1  0  0  0  0
 15 16  2  0  0  0  0
 15 17  1  0  0  0  0
M  CHG  1  17  -1
M  END
> <s_m_source_file>
AV-unprocessed.smi

> <i_m_source_file_index>
2832

> <i_lp_mmshare_version>
43012

> <i_f3d_flags>
0

> <s_epik_input>
W0NIM11bQ0gyXVtDSDJdW0NAXShbQ0gzXSkoQyg9TylbT0hdKVtOSF1DKD1PKVtDSDJdbjFbY0hdW2NIXVtjSF1uMQ==

> <s_epik_cmdline>
J2VwaWtfcHl0aG9uJywgJy1waCcsICc3LjAnLCAnLXRuJywgJzgnLCAnLW1hJywgJzIwMCcsICctbWV0YWxfYmluZGluZycsICctaW1hZScsICc8aW5maWxlLm1hZT4nLCAnLW9tYWUnLCAnPG91dGZpbGUubWFlPic=

> <r_lp_tautomer_probability>
1

> <r_epik_Ionization_Penalty>
0.000287256

> <r_epik_Ionization_Penalty_Charging>
0.00026921

> <r_epik_Ionization_Penalty_Neutral>
1.80463e-05

> <r_epik_State_Penalty>
-0

> <r_epik_Charging_Adjusted_Penalty>
0.00026921

> <i_epik_Tot_Q>
-1

> <i_epik_Tot_abs_Q>
1

> <r_epik_Metal_State_Penalty>
-0

> <b_epik_Metal_Only>
0

> <s_lp_Force_Field>
OPLS_2005

> <r_lp_Energy>
4.0175

> <b_lp_Chiralities_Consistent>
1

> <s_lp_Variant>
AV-unprocessed.smi:2832-1

> <Gold.Version>
5.8.1

> <Gold.Id.Protein>
6NUR|6NUR_protein|mol2

> <Gold.PLP.Fitness>
45.4619

> <Gold.PLP.PLP>
-34.0024

> <Gold.PLP.part.hbond>
-2.0000

> <Gold.PLP.part.metal>
0.0000

> <Gold.PLP.part.buried>
-0.9270

> <Gold.PLP.part.nonpolar>
-31.5120

> <Gold.PLP.part.repulsive>
0.1752

> <Gold.PLP.ligand.clash>
0.0000

> <Gold.PLP.ligand.torsion>
0.2996

> <Gold.PLP.Chemscore.Hbond>
3.0000

> <Gold.PLP.Chemscore.CHOScore>
1.0000

> <Gold.PLP.Chemscore.Metal>
0.0000

> <Gold.Chemscore.Hbonds>
donor molecule, donor type, donor heavy atom, donor atom, acceptor molecule, acceptor atom, score
      P1  H  7997  8008       L1     8  1.00
      P1  H 10752 10764       L1    17  1.82
      L1  C    13    33       P1  8028  1.00

> <Gold.PLP.Chemscore.Internal.Correction>
0.0586

> <Gold.Rescore>
     Score         DG    S(hbond)    S(metal)    S(lipo)     H(rot)  DE(clash)    DE(int)     intcor
     12.60     -15.04       1.92        0.00      81.08       2.47       0.08       2.37       ----

> <Gold.Chemscore.Fitness>
12.5955

> <Gold.Chemscore.DG>
-15.0432

> <Gold.Chemscore.ZeroCoef>
-5.4800

> <Gold.Chemscore.Hbond>
1.9182

> <Gold.Chemscore.Metal>
0.0000

> <Gold.Chemscore.Lipo>
81.0787

> <Gold.Chemscore.Internal_Hbond>
0.0000

> <Gold.Chemscore.DEClash>
0.0824

> <Gold.Chemscore.DEInternal>
2.3653

> <Gold.Chemscore.Rot>
2.4726

> <Gold.Chemscore.Internal.Correction>
   9.000000E+99

> <Gold.Chemscore.Hbonds>
donor molecule, donor type, donor heavy atom, donor atom, acceptor molecule, acceptor atom, score
      P1  H  7997  8008       L1     8  0.78
      P1  H 10752 10764       L1    17  0.88

> <Gold.Chemscore.Hbond.Weighted>
-6.4068

> <Gold.Chemscore.Metal.Weighted>
-0.0000

> <Gold.Chemscore.Lipo.Weighted>
-9.4862

> <Gold.Chemscore.Internal_Hbond.Weighted>
0.0000

> <Gold.Chemscore.DEClash.Weighted>
0.0824

> <Gold.Chemscore.DEInternal.Weighted>
2.3653

> <Gold.Chemscore.Rot.Weighted>
6.3297

> <Gold.Chemscore.Internal.Correction.Weighted>
   9.000000E+99

> <Gold.Protein.RotatedTorsions>
[ 6907 6896 6895 6894 ] final -126.53 input  -60.11 | X-H torsion
[ 7974 7965 7964 7962 ] final  -65.55 input  175.53 | X-H torsion
[ 8008 7997 7996 7995 ] final  -74.12 input   59.86 | X-H torsion
[ 10167 10162 10161 10158 ] final   13.86 input  -65.29 | X-H torsion
[ 10718 10713 10712 10709 ] final   77.62 input   66.30 | X-H torsion
[ 10763 10752 10751 10750 ] final  -43.23 input  -60.55 | X-H torsion
[ 11005 11000 10999 10996 ] final  105.50 input  -57.11 | X-H torsion

> <Gold.Protein.ActiveResidues>
 VAL166  LYS551  ARG553  GLY616  TRP617  ASP618  TYR619  PRO620  LYS621  CYS622 
 ASP623  PHE694  ASN695  SER759  ASP760  ASP761  ALA762  ILE779  LEU786  VAL792 
 PHE793  MET794  SER795  GLU796  ALA797  LYS798  CYS799  TRP800  GLU811  SER814 

> <Gold.Protein.RotatedAtoms>
  150.8978  133.7157  159.2886 H   0  0  0  0  0  0  0  0  0  0  0  0  # atno 6907 bound_to 6896
  151.4686  135.1042  159.9754 H   0  0  0  0  0  0  0  0  0  0  0  0  # atno 6908 bound_to 6896
  152.4859  133.8324  159.7165 H   0  0  0  0  0  0  0  0  0  0  0  0  # atno 6909 bound_to 6896
  145.7528  140.8900  143.0471 H   0  0  0  0  0  0  0  0  0  0  0  0  # atno 7974 bound_to 7965
  154.5304  140.0767  156.8335 H   0  0  0  0  0  0  0  0  0  0  0  0  # atno 8008 bound_to 7997
  155.3387  140.3406  155.4221 H   0  0  0  0  0  0  0  0  0  0  0  0  # atno 8009 bound_to 7997
  156.1775  140.1641  156.8322 H   0  0  0  0  0  0  0  0  0  0  0  0  # atno 8010 bound_to 7997
  140.5975  143.8673  150.6932 H   0  0  0  0  0  0  0  0  0  0  0  0  # atno 10167 bound_to 10162
  157.6717  130.9830  150.1668 H   0  0  0  0  0  0  0  0  0  0  0  0  # atno 10718 bound_to 10713
  153.9922  135.6704  153.4754 H   0  0  0  0  0  0  0  0  0  0  0  0  # atno 10763 bound_to 10752
  153.0700  135.4979  154.8280 H   0  0  0  0  0  0  0  0  0  0  0  0  # atno 10764 bound_to 10752
  154.7102  135.3096  154.9170 H   0  0  0  0  0  0  0  0  0  0  0  0  # atno 10765 bound_to 10752
  139.8803  134.9338  156.5523 H   0  0  0  0  0  0  0  0  0  0  0  0  # atno 11005 bound_to 11000
  144.6846  139.9615  143.7480 LP  0  0  0  0  0  0  0  0  0  0  0  0  # atno 17320 bound_to 7965
  146.0340  139.3360  143.0738 LP  0  0  0  0  0  0  0  0  0  0  0  0  # atno 17321 bound_to 7965
  140.2210  143.3809  152.1642 LP  0  0  0  0  0  0  0  0  0  0  0  0  # atno 17342 bound_to 10162
  139.5268  144.7112  151.5201 LP  0  0  0  0  0  0  0  0  0  0  0  0  # atno 17343 bound_to 10162
  156.2431  130.3693  149.8315 LP  0  0  0  0  0  0  0  0  0  0  0  0  # atno 17370 bound_to 10713
  156.6109  130.8586  151.3454 LP  0  0  0  0  0  0  0  0  0  0  0  0  # atno 17371 bound_to 10713
  140.8231  133.8338  155.8914 LP  0  0  0  0  0  0  0  0  0  0  0  0  # atno 17394 bound_to 11000
  140.9400  134.1913  157.4804 LP  0  0  0  0  0  0  0  0  0  0  0  0  # atno 17395 bound_to 11000

$$$$
