AV-unprocessed.smi:2702|AV-procd|sdf|10437|dock3
  -GOLD-   2272014473D 1   1.00000     0.00000
 Structure written by MMmdl.
 47 48  0  0  0  0  0  0  0  0  1 V2000
  151.8167  144.5463  159.3203 C   0  0  0  0  0  0  0  0  0  0  0  0
  152.1567  143.2945  159.8902 O   0  0  0  0  0  0  0  0  0  0  0  0
  152.6437  142.3745  158.9277 C   0  0  0  0  0  0  0  0  0  0  0  0
  151.5965  141.3244  158.6160 C   0  0  0  0  0  0  0  0  0  0  0  0
  150.3126  141.6506  158.3383 C   0  0  0  0  0  0  0  0  0  0  0  0
  149.3236  140.6111  158.0528 C   0  0  0  0  0  0  0  0  0  0  0  0
  148.1475  140.8675  157.7933 O   0  0  0  0  0  0  0  0  0  0  0  0
  149.8031  139.3328  158.0989 N   0  0  0  0  0  0  0  0  0  0  0  0
  148.9246  138.1772  157.8406 C   0  0  0  0  0  0  0  0  0  0  0  0
  149.0578  137.0650  158.8912 C   0  0  0  0  0  0  0  0  0  0  0  0
  150.1580  136.5824  159.1628 O   0  0  0  0  0  0  0  0  0  0  0  0
  147.9186  136.6838  159.4878 N   0  0  0  0  0  0  0  0  0  0  0  0
  147.7992  135.6351  160.4986 C   0  0  1  0  0  0  0  0  0  0  0  0
  147.5203  136.2722  161.8757 C   0  0  0  0  0  0  0  0  0  0  0  0
  147.3043  135.2115  162.9636 C   0  0  0  0  0  0  0  0  0  0  0  0
  146.1879  134.2321  162.5692 C   0  0  0  0  0  0  0  0  0  0  0  0
  146.4546  133.5617  161.2063 C   0  0  2  0  0  0  0  0  0  0  0  0
  147.5787  132.5097  161.3007 C   0  0  0  0  0  0  0  0  0  0  0  0
  146.6793  134.6358  160.1082 C   0  0  2  0  0  0  0  0  0  0  0  0
  146.8875  134.0145  158.7124 C   0  0  0  0  0  0  0  0  0  0  0  0
  151.1523  139.0490  158.3906 C   0  0  0  0  0  0  0  0  0  0  0  0
  152.0082  139.9880  158.6412 N   0  0  0  0  0  0  0  0  0  0  0  0
  151.4509  145.2156  160.0987 H   0  0  0  0  0  0  0  0  0  0  0  0
  151.0301  144.4389  158.5725 H   0  0  0  0  0  0  0  0  0  0  0  0
  152.6832  145.0156  158.8526 H   0  0  0  0  0  0  0  0  0  0  0  0
  152.9005  142.8971  158.0048 H   0  0  0  0  0  0  0  0  0  0  0  0
  153.5539  141.8969  159.2939 H   0  0  0  0  0  0  0  0  0  0  0  0
  150.0064  142.6867  158.3252 H   0  0  0  0  0  0  0  0  0  0  0  0
  147.8751  138.4727  157.7934 H   0  0  0  0  0  0  0  0  0  0  0  0
  149.1451  137.7667  156.8532 H   0  0  0  0  0  0  0  0  0  0  0  0
  147.0631  137.1398  159.2059 H   0  0  0  0  0  0  0  0  0  0  0  0
  148.7434  135.0899  160.5487 H   0  0  0  0  0  0  0  0  0  0  0  0
  148.3459  136.9238  162.1636 H   0  0  0  0  0  0  0  0  0  0  0  0
  146.6353  136.9071  161.8141 H   0  0  0  0  0  0  0  0  0  0  0  0
  148.2341  134.6701  163.1388 H   0  0  0  0  0  0  0  0  0  0  0  0
  147.0523  135.6970  163.9067 H   0  0  0  0  0  0  0  0  0  0  0  0
  146.0639  133.4762  163.3454 H   0  0  0  0  0  0  0  0  0  0  0  0
  145.2418  134.7731  162.5233 H   0  0  0  0  0  0  0  0  0  0  0  0
  145.5478  133.0145  160.9448 H   0  0  0  0  0  0  0  0  0  0  0  0
  148.5498  132.9605  161.5027 H   0  0  0  0  0  0  0  0  0  0  0  0
  147.6662  131.9337  160.3796 H   0  0  0  0  0  0  0  0  0  0  0  0
  147.3762  131.7969  162.1003 H   0  0  0  0  0  0  0  0  0  0  0  0
  145.7520  135.2082  160.0473 H   0  0  0  0  0  0  0  0  0  0  0  0
  147.8560  133.5202  158.6327 H   0  0  0  0  0  0  0  0  0  0  0  0
  146.8420  134.7693  157.9271 H   0  0  0  0  0  0  0  0  0  0  0  0
  146.1155  133.2768  158.4925 H   0  0  0  0  0  0  0  0  0  0  0  0
  151.4216  137.9915  158.3871 H   0  0  0  0  0  0  0  0  0  0  0  0
  1  2  1  0  0  0  0
  1 23  1  0  0  0  0
  1 24  1  0  0  0  0
  1 25  1  0  0  0  0
  2  3  1  0  0  0  0
  3  4  1  0  0  0  0
  3 26  1  0  0  0  0
  3 27  1  0  0  0  0
  4 22  1  0  0  0  0
  4  5  2  0  0  0  0
  5  6  1  0  0  0  0
  5 28  1  0  0  0  0
  6  7  2  0  0  0  0
  6  8  1  0  0  0  0
  8  9  1  0  0  0  0
  8 21  1  0  0  0  0
  9 10  1  0  0  0  0
  9 29  1  0  0  0  0
  9 30  1  0  0  0  0
 10 11  2  0  0  0  0
 10 12  1  0  0  0  0
 12 13  1  0  0  0  0
 12 31  1  0  0  0  0
 13 19  1  0  0  0  0
 13 14  1  0  0  0  0
 13 32  1  0  0  0  0
 14 15  1  0  0  0  0
 14 33  1  0  0  0  0
 14 34  1  0  0  0  0
 15 16  1  0  0  0  0
 15 35  1  0  0  0  0
 15 36  1  0  0  0  0
 16 17  1  0  0  0  0
 16 37  1  0  0  0  0
 16 38  1  0  0  0  0
 17 18  1  0  0  0  0
 17 19  1  0  0  0  0
 17 39  1  0  0  0  0
 18 40  1  0  0  0  0
 18 41  1  0  0  0  0
 18 42  1  0  0  0  0
 19 20  1  0  0  0  0
 19 43  1  0  0  0  0
 20 44  1  0  0  0  0
 20 45  1  0  0  0  0
 20 46  1  0  0  0  0
 21 22  2  0  0  0  0
 21 47  1  0  0  0  0
M  END
> <s_m_source_file>
AV-unprocessed.smi

> <i_m_source_file_index>
2702

> <i_lp_mmshare_version>
43012

> <i_f3d_flags>
0

> <s_epik_input>
W0NIM11PW0NIMl1jMVtjSF1jKD1PKW4oW2NIXW4xKVtDSDJdQyg9TylbTkhdW0NAQEhdMltDSDJdW0NIMl1bQ0gyXVtDQEBIXShbQ0gzXSlbQ0BIXTJbQ0gzXQ==

> <s_epik_cmdline>
J2VwaWtfcHl0aG9uJywgJy1waCcsICc3LjAnLCAnLXRuJywgJzgnLCAnLW1hJywgJzIwMCcsICctbWV0YWxfYmluZGluZycsICctaW1hZScsICc8aW5maWxlLm1hZT4nLCAnLW9tYWUnLCAnPG91dGZpbGUubWFlPic=

> <r_lp_tautomer_probability>
1

> <r_epik_Ionization_Penalty>
1.22164e-06

> <r_epik_Ionization_Penalty_Charging>
3.17988e-07

> <r_epik_Ionization_Penalty_Neutral>
9.03656e-07

> <r_epik_State_Penalty>
-0

> <r_epik_Charging_Adjusted_Penalty>
3.17988e-07

> <i_epik_Tot_Q>
0

> <i_epik_Tot_abs_Q>
0

> <r_epik_Metal_State_Penalty>
-0

> <b_epik_Metal_Only>
0

> <s_lp_Force_Field>
OPLS_2005

> <r_lp_Energy>
19.2685

> <b_lp_Chiralities_Consistent>
1

> <s_lp_Variant>
AV-unprocessed.smi:2702-8

> <Gold.Version>
5.8.1

> <Gold.Id.Protein>
6NUR|6NUR_protein|mol2

> <Gold.PLP.Fitness>
42.8220

> <Gold.PLP.PLP>
-41.2082

> <Gold.PLP.part.hbond>
-1.0000

> <Gold.PLP.part.metal>
0.0000

> <Gold.PLP.part.buried>
-6.1464

> <Gold.PLP.part.nonpolar>
-34.2278

> <Gold.PLP.part.repulsive>
0.2568

> <Gold.PLP.ligand.clash>
0.0000

> <Gold.PLP.ligand.torsion>
0.7099

> <Gold.PLP.Chemscore.Hbond>
1.0000

> <Gold.PLP.Chemscore.CHOScore>
0.0000

> <Gold.PLP.Chemscore.Metal>
0.0000

> <Gold.Chemscore.Hbonds>
donor molecule, donor type, donor heavy atom, donor atom, acceptor molecule, acceptor atom, score
      P1  H  6896  6908       L1    11  1.00

> <Gold.PLP.Chemscore.Internal.Correction>
0.0336

> <Gold.Rescore>
     Score         DG    S(hbond)    S(metal)    S(lipo)     H(rot)  DE(clash)    DE(int)     intcor
     13.59     -15.56       1.00        0.00      99.84       1.93       0.04       1.92       ----

> <Gold.Chemscore.Fitness>
13.5948

> <Gold.Chemscore.DG>
-15.5557

> <Gold.Chemscore.ZeroCoef>
-5.4800

> <Gold.Chemscore.Hbond>
0.9972

> <Gold.Chemscore.Metal>
0.0000

> <Gold.Chemscore.Lipo>
99.8441

> <Gold.Chemscore.Internal_Hbond>
0.0000

> <Gold.Chemscore.DEClash>
0.0428

> <Gold.Chemscore.DEInternal>
1.9181

> <Gold.Chemscore.Rot>
1.9284

> <Gold.Chemscore.Internal.Correction>
   9.000000E+99

> <Gold.Chemscore.Hbonds>
donor molecule, donor type, donor heavy atom, donor atom, acceptor molecule, acceptor atom, score
      P1  H  6896  6908       L1    11  1.00

> <Gold.Chemscore.Hbond.Weighted>
-3.3307

> <Gold.Chemscore.Metal.Weighted>
-0.0000

> <Gold.Chemscore.Lipo.Weighted>
-11.6818

> <Gold.Chemscore.Internal_Hbond.Weighted>
0.0000

> <Gold.Chemscore.DEClash.Weighted>
0.0428

> <Gold.Chemscore.DEInternal.Weighted>
1.9181

> <Gold.Chemscore.Rot.Weighted>
4.9368

> <Gold.Chemscore.Internal.Correction.Weighted>
   9.000000E+99

> <Gold.Protein.RotatedTorsions>
[ 6907 6896 6895 6894 ] final -150.31 input  -60.11 | X-H torsion
[ 7974 7965 7964 7962 ] final  -90.77 input  175.53 | X-H torsion
[ 8008 7997 7996 7995 ] final  133.66 input   59.86 | X-H torsion
[ 10167 10162 10161 10158 ] final  -93.69 input  -65.29 | X-H torsion
[ 10718 10713 10712 10709 ] final  103.60 input   66.30 | X-H torsion
[ 10763 10752 10751 10750 ] final  -27.11 input  -60.55 | X-H torsion
[ 11005 11000 10999 10996 ] final   54.28 input  -57.11 | X-H torsion

> <Gold.Protein.ActiveResidues>
 VAL166  LYS551  ARG553  GLY616  TRP617  ASP618  TYR619  PRO620  LYS621  CYS622 
 ASP623  PHE694  ASN695  SER759  ASP760  ASP761  ALA762  ILE779  LEU786  VAL792 
 PHE793  MET794  SER795  GLU796  ALA797  LYS798  CYS799  TRP800  GLU811  SER814 

> <Gold.Protein.RotatedAtoms>
  151.1967  133.4635  159.2595 H   0  0  0  0  0  0  0  0  0  0  0  0  # atno 6907 bound_to 6896
  151.1110  135.0026  159.8504 H   0  0  0  0  0  0  0  0  0  0  0  0  # atno 6908 bound_to 6896
  152.5450  134.1886  159.8717 H   0  0  0  0  0  0  0  0  0  0  0  0  # atno 6909 bound_to 6896
  145.4220  140.9551  143.2175 H   0  0  0  0  0  0  0  0  0  0  0  0  # atno 7974 bound_to 7965
  156.2994  140.2515  156.3290 H   0  0  0  0  0  0  0  0  0  0  0  0  # atno 8008 bound_to 7997
  154.9163  140.0402  157.1992 H   0  0  0  0  0  0  0  0  0  0  0  0  # atno 8009 bound_to 7997
  154.8356  140.2882  155.5698 H   0  0  0  0  0  0  0  0  0  0  0  0  # atno 8010 bound_to 7997
  140.3220  143.3043  152.0035 H   0  0  0  0  0  0  0  0  0  0  0  0  # atno 10167 bound_to 10162
  157.6767  131.0783  150.5579 H   0  0  0  0  0  0  0  0  0  0  0  0  # atno 10718 bound_to 10713
  153.7268  135.6941  153.4999 H   0  0  0  0  0  0  0  0  0  0  0  0  # atno 10763 bound_to 10752
  153.2164  135.4385  155.0438 H   0  0  0  0  0  0  0  0  0  0  0  0  # atno 10764 bound_to 10752
  154.8266  135.3449  154.6799 H   0  0  0  0  0  0  0  0  0  0  0  0  # atno 10765 bound_to 10752
  140.0699  134.5484  155.9058 H   0  0  0  0  0  0  0  0  0  0  0  0  # atno 11005 bound_to 11000
  144.8239  139.5744  143.6974 LP  0  0  0  0  0  0  0  0  0  0  0  0  # atno 17320 bound_to 7965
  146.2651  139.6502  142.9335 LP  0  0  0  0  0  0  0  0  0  0  0  0  # atno 17321 bound_to 7965
  139.4872  144.6303  151.7083 LP  0  0  0  0  0  0  0  0  0  0  0  0  # atno 17342 bound_to 10162
  140.5475  144.0480  150.6113 LP  0  0  0  0  0  0  0  0  0  0  0  0  # atno 17343 bound_to 10162
  156.5883  130.4322  149.5947 LP  0  0  0  0  0  0  0  0  0  0  0  0  # atno 17370 bound_to 10713
  156.2604  130.6959  151.1726 LP  0  0  0  0  0  0  0  0  0  0  0  0  # atno 17371 bound_to 10713
  141.2008  133.6614  156.5914 LP  0  0  0  0  0  0  0  0  0  0  0  0  # atno 17394 bound_to 11000
  140.3642  134.7661  157.4555 LP  0  0  0  0  0  0  0  0  0  0  0  0  # atno 17395 bound_to 11000

$$$$
