AV-unprocessed.smi:3201|AV-procd|sdf|12237|dock9
  -GOLD-   2272018 73D 1   1.00000     0.00000
 Structure written by MMmdl.
 41 43  0  0  0  0  0  0  0  0  2 V2000
  149.2748  138.6235  154.3788 C   0  0  0  0  0  0  0  0  0  0  0  0
  148.5037  139.9001  154.2786 C   0  0  0  0  0  0  0  0  0  0  0  0
  148.6675  141.0974  154.9223 C   0  0  0  0  0  0  0  0  0  0  0  0
  149.6944  141.4912  155.9484 C   0  0  0  0  0  0  0  0  0  0  0  0
  149.0341  141.9076  157.2689 C   0  0  0  0  0  0  0  0  0  0  0  0
  149.6048  143.1730  157.7726 N   0  3  0  0  0  0  0  0  0  0  0  0
  151.0830  143.2280  157.7579 C   0  0  2  0  0  0  0  0  0  0  0  0
  151.7578  142.4034  158.8763 C   0  0  0  0  0  0  0  0  0  0  0  0
  152.7105  143.4278  159.5234 C   0  0  2  0  0  0  0  0  0  0  0  0
  151.8858  144.3988  160.3861 C   0  0  0  0  0  0  0  0  0  0  0  0
  151.1475  145.2412  159.3300 C   0  0  0  0  0  0  0  0  0  0  0  0
  151.6489  144.6447  157.9962 C   0  0  1  0  0  0  0  0  0  0  0  0
  153.0974  144.3140  158.3427 C   0  0  0  0  0  0  0  0  0  0  0  0
  147.6219  141.9081  154.3969 C   0  0  0  0  0  0  0  0  0  0  0  0
  146.8769  141.2738  153.5098 N   0  0  0  0  0  0  0  0  0  0  0  0
  147.4173  140.0402  153.4351 N   0  0  0  0  0  0  0  0  0  0  0  0
  146.8365  139.0629  152.5345 C   0  0  0  0  0  0  0  0  0  0  0  0
  150.0209  138.6728  155.1715 H   0  0  0  0  0  0  0  0  0  0  0  0
  149.7918  138.4103  153.4431 H   0  0  0  0  0  0  0  0  0  0  0  0
  148.6132  137.7854  154.5983 H   0  0  0  0  0  0  0  0  0  0  0  0
  150.3891  140.6709  156.1319 H   0  0  0  0  0  0  0  0  0  0  0  0
  150.3043  142.3154  155.5767 H   0  0  0  0  0  0  0  0  0  0  0  0
  147.9594  142.0245  157.1236 H   0  0  0  0  0  0  0  0  0  0  0  0
  149.1750  141.1275  158.0183 H   0  0  0  0  0  0  0  0  0  0  0  0
  149.2575  143.9221  157.1908 H   0  0  0  0  0  0  0  0  0  0  0  0
  151.4307  142.8768  156.7846 H   0  0  0  0  0  0  0  0  0  0  0  0
  151.0508  141.9971  159.6009 H   0  0  0  0  0  0  0  0  0  0  0  0
  152.3130  141.5669  158.4500 H   0  0  0  0  0  0  0  0  0  0  0  0
  153.5471  142.9740  160.0557 H   0  0  0  0  0  0  0  0  0  0  0  0
  151.2028  143.8806  161.0602 H   0  0  0  0  0  0  0  0  0  0  0  0
  152.5376  145.0296  160.9920 H   0  0  0  0  0  0  0  0  0  0  0  0
  150.0642  145.1945  159.4411 H   0  0  0  0  0  0  0  0  0  0  0  0
  151.4386  146.2893  159.4132 H   0  0  0  0  0  0  0  0  0  0  0  0
  151.5256  145.3135  157.1438 H   0  0  0  0  0  0  0  0  0  0  0  0
  153.6850  145.1873  158.6318 H   0  0  0  0  0  0  0  0  0  0  0  0
  153.6238  143.7761  157.5520 H   0  0  0  0  0  0  0  0  0  0  0  0
  147.3830  142.9340  154.6357 H   0  0  0  0  0  0  0  0  0  0  0  0
  147.5574  138.8082  151.7574 H   0  0  0  0  0  0  0  0  0  0  0  0
  145.9350  139.4585  152.0642 H   0  0  0  0  0  0  0  0  0  0  0  0
  146.5752  138.1615  153.0891 H   0  0  0  0  0  0  0  0  0  0  0  0
  149.2857  143.3259  158.7185 H   0  0  0  0  0  0  0  0  0  0  0  0
  1  2  1  0  0  0  0
  1 18  1  0  0  0  0
  1 19  1  0  0  0  0
  1 20  1  0  0  0  0
  2 16  1  0  0  0  0
  2  3  2  0  0  0  0
  3  4  1  0  0  0  0
  3 14  1  0  0  0  0
  4  5  1  0  0  0  0
  4 21  1  0  0  0  0
  4 22  1  0  0  0  0
  5  6  1  0  0  0  0
  5 23  1  0  0  0  0
  5 24  1  0  0  0  0
  6  7  1  0  0  0  0
  6 25  1  0  0  0  0
  6 41  1  0  0  0  0
  7 12  1  0  0  0  0
  7  8  1  0  0  0  0
  7 26  1  0  0  0  0
  8  9  1  0  0  0  0
  8 27  1  0  0  0  0
  8 28  1  0  0  0  0
  9 13  1  0  0  0  0
  9 10  1  0  0  0  0
  9 29  1  0  0  0  0
 10 11  1  0  0  0  0
 10 30  1  0  0  0  0
 10 31  1  0  0  0  0
 11 12  1  0  0  0  0
 11 32  1  0  0  0  0
 11 33  1  0  0  0  0
 12 13  1  0  0  0  0
 12 34  1  0  0  0  0
 13 35  1  0  0  0  0
 13 36  1  0  0  0  0
 14 15  2  0  0  0  0
 14 37  1  0  0  0  0
 15 16  1  0  0  0  0
 16 17  1  0  0  0  0
 17 38  1  0  0  0  0
 17 39  1  0  0  0  0
 17 40  1  0  0  0  0
M  CHG  1   6   1
M  END
> <s_m_source_file>
AV-unprocessed.smi

> <i_m_source_file_index>
3201

> <i_lp_mmshare_version>
43012

> <i_f3d_flags>
0

> <s_epik_input>
W0NIM11uMW5bY0hdYyhjMVtDSDNdKVtDSDJdW0NIMl1bTkhdW0NASF0oW0NIMl1bQ0BIXTIzKVtDQEhdKFtDSDJdMylbQ0gyXVtDSDJdMg==

> <s_epik_cmdline>
J2VwaWtfcHl0aG9uJywgJy1waCcsICc3LjAnLCAnLXRuJywgJzgnLCAnLW1hJywgJzIwMCcsICctbWV0YWxfYmluZGluZycsICctaW1hZScsICc8aW5maWxlLm1hZT4nLCAnLW9tYWUnLCAnPG91dGZpbGUubWFlPic=

> <r_lp_tautomer_probability>
1

> <r_epik_Ionization_Penalty>
0.000331174

> <r_epik_Ionization_Penalty_Charging>
0.000242709

> <r_epik_Ionization_Penalty_Neutral>
8.84659e-05

> <r_epik_State_Penalty>
-0

> <r_epik_Charging_Adjusted_Penalty>
0.000242709

> <i_epik_Tot_Q>
1

> <i_epik_Tot_abs_Q>
1

> <r_epik_Metal_State_Penalty>
-0

> <b_epik_Metal_Only>
0

> <s_lp_Force_Field>
OPLS_2005

> <r_lp_Energy>
50.9619

> <b_lp_Chiralities_Consistent>
1

> <s_lp_Variant>
AV-unprocessed.smi:3201-1

> <Gold.Version>
5.8.1

> <Gold.Id.Protein>
6NUR|6NUR_protein|mol2

> <Gold.PLP.Fitness>
50.3085

> <Gold.PLP.PLP>
-42.2672

> <Gold.PLP.part.hbond>
-1.2709

> <Gold.PLP.part.metal>
0.0000

> <Gold.PLP.part.buried>
-1.7543

> <Gold.PLP.part.nonpolar>
-38.6045

> <Gold.PLP.part.repulsive>
0.2292

> <Gold.PLP.ligand.clash>
0.0000

> <Gold.PLP.ligand.torsion>
0.4713

> <Gold.PLP.Chemscore.Hbond>
2.0000

> <Gold.PLP.Chemscore.CHOScore>
0.9891

> <Gold.PLP.Chemscore.Metal>
0.0000

> <Gold.Chemscore.Hbonds>
donor molecule, donor type, donor heavy atom, donor atom, acceptor molecule, acceptor atom, score
      L1  H     6    25       P1  8028  2.00
      L1  C    14    37       P1  8028  1.00

> <Gold.PLP.Chemscore.Internal.Correction>
0.0166

> <Gold.Rescore>
     Score         DG    S(hbond)    S(metal)    S(lipo)     H(rot)  DE(clash)    DE(int)     intcor
     18.58     -19.04       0.60        0.00     128.59       1.36       0.03       0.43       ----

> <Gold.Chemscore.Fitness>
18.5751

> <Gold.Chemscore.DG>
-19.0383

> <Gold.Chemscore.ZeroCoef>
-5.4800

> <Gold.Chemscore.Hbond>
0.5965

> <Gold.Chemscore.Metal>
0.0000

> <Gold.Chemscore.Lipo>
128.5865

> <Gold.Chemscore.Internal_Hbond>
0.0000

> <Gold.Chemscore.DEClash>
0.0310

> <Gold.Chemscore.DEInternal>
0.4322

> <Gold.Chemscore.Rot>
1.3588

> <Gold.Chemscore.Internal.Correction>
   9.000000E+99

> <Gold.Chemscore.Hbonds>
donor molecule, donor type, donor heavy atom, donor atom, acceptor molecule, acceptor atom, score
      L1  H     6    25       P1  8028  0.34

> <Gold.Chemscore.Hbond.Weighted>
-1.9923

> <Gold.Chemscore.Metal.Weighted>
-0.0000

> <Gold.Chemscore.Lipo.Weighted>
-15.0446

> <Gold.Chemscore.Internal_Hbond.Weighted>
0.0000

> <Gold.Chemscore.DEClash.Weighted>
0.0310

> <Gold.Chemscore.DEInternal.Weighted>
0.4322

> <Gold.Chemscore.Rot.Weighted>
3.4786

> <Gold.Chemscore.Internal.Correction.Weighted>
   9.000000E+99

> <Gold.Protein.RotatedTorsions>
[ 6907 6896 6895 6894 ] final   14.36 input  -60.11 | X-H torsion
[ 7974 7965 7964 7962 ] final  -51.84 input  175.53 | X-H torsion
[ 8008 7997 7996 7995 ] final -101.57 input   59.86 | X-H torsion
[ 10167 10162 10161 10158 ] final -143.18 input  -65.29 | X-H torsion
[ 10718 10713 10712 10709 ] final   24.55 input   66.30 | X-H torsion
[ 10763 10752 10751 10750 ] final  -96.09 input  -60.55 | X-H torsion
[ 11005 11000 10999 10996 ] final  -53.72 input  -57.11 | X-H torsion

> <Gold.Protein.ActiveResidues>
 VAL166  LYS551  ARG553  GLY616  TRP617  ASP618  TYR619  PRO620  LYS621  CYS622 
 ASP623  PHE694  ASN695  SER759  ASP760  ASP761  ALA762  ILE779  LEU786  VAL792 
 PHE793  MET794  SER795  GLU796  ALA797  LYS798  CYS799  TRP800  GLU811  SER814 

> <Gold.Protein.RotatedAtoms>
  151.8010  135.0709  160.0399 H   0  0  0  0  0  0  0  0  0  0  0  0  # atno 6907 bound_to 6896
  152.3089  133.5727  159.5676 H   0  0  0  0  0  0  0  0  0  0  0  0  # atno 6908 bound_to 6896
  150.7310  134.0098  159.3708 H   0  0  0  0  0  0  0  0  0  0  0  0  # atno 6909 bound_to 6896
  145.9146  140.7886  142.9678 H   0  0  0  0  0  0  0  0  0  0  0  0  # atno 7974 bound_to 7965
  154.8444  140.0433  157.1562 H   0  0  0  0  0  0  0  0  0  0  0  0  # atno 8008 bound_to 7997
  154.9012  140.3000  155.5296 H   0  0  0  0  0  0  0  0  0  0  0  0  # atno 8009 bound_to 7997
  156.2993  140.2375  156.4040 H   0  0  0  0  0  0  0  0  0  0  0  0  # atno 8010 bound_to 7997
  139.8018  143.7823  152.2658 H   0  0  0  0  0  0  0  0  0  0  0  0  # atno 10167 bound_to 10162
  157.1813  130.6804  149.6114 H   0  0  0  0  0  0  0  0  0  0  0  0  # atno 10718 bound_to 10713
  154.7208  135.5096  153.8809 H   0  0  0  0  0  0  0  0  0  0  0  0  # atno 10763 bound_to 10752
  153.0861  135.6645  153.9956 H   0  0  0  0  0  0  0  0  0  0  0  0  # atno 10764 bound_to 10752
  153.9779  135.3032  155.3402 H   0  0  0  0  0  0  0  0  0  0  0  0  # atno 10765 bound_to 10752
  141.0990  133.6620  156.4214 H   0  0  0  0  0  0  0  0  0  0  0  0  # atno 11005 bound_to 11000
  144.6746  140.1879  143.7399 LP  0  0  0  0  0  0  0  0  0  0  0  0  # atno 17320 bound_to 7965
  145.8628  139.2231  143.1706 LP  0  0  0  0  0  0  0  0  0  0  0  0  # atno 17321 bound_to 7965
  139.7946  144.7397  150.9908 LP  0  0  0  0  0  0  0  0  0  0  0  0  # atno 17342 bound_to 10162
  140.7820  143.4407  151.0556 LP  0  0  0  0  0  0  0  0  0  0  0  0  # atno 17343 bound_to 10162
  155.9724  130.4645  150.6222 LP  0  0  0  0  0  0  0  0  0  0  0  0  # atno 17370 bound_to 10713
  157.3949  131.0801  151.1360 LP  0  0  0  0  0  0  0  0  0  0  0  0  # atno 17371 bound_to 10713
  140.5068  134.6433  157.5269 LP  0  0  0  0  0  0  0  0  0  0  0  0  # atno 17394 bound_to 11000
  139.9836  134.7098  155.9815 LP  0  0  0  0  0  0  0  0  0  0  0  0  # atno 17395 bound_to 11000

$$$$
