AV-unprocessed.smi:3303|AV-procd|sdf|12674|dock3
  -GOLD-   2272019 13D 1   1.00000     0.00000
 Structure written by MMmdl.
 44 45  0  0  0  0  0  0  0  0  2 V2000
  146.3407  143.1932  154.1694 C   0  0  0  0  0  0  0  0  0  0  0  0
  146.3491  141.6753  154.4161 C   0  0  1  0  0  0  0  0  0  0  0  0
  146.8360  140.8909  153.1812 C   0  0  0  0  0  0  0  0  0  0  0  0
  146.7008  139.4529  153.4156 N   0  0  0  0  0  0  0  0  0  0  0  0
  146.9502  138.7069  152.1884 C   0  0  0  0  0  0  0  0  0  0  0  0
  147.4962  138.9664  154.5535 C   0  0  1  0  0  0  0  0  0  0  0  0
  149.0229  138.9549  154.3071 C   0  0  0  0  0  0  0  0  0  0  0  0
  147.0849  139.7331  155.8330 C   0  0  0  0  0  0  0  0  0  0  0  0
  147.1308  141.2710  155.6842 C   0  0  1  0  0  0  0  0  0  0  0  0
  148.5151  141.8005  155.6596 N   0  3  0  0  0  0  0  0  0  0  0  0
  149.3158  141.5479  156.8751 C   0  0  0  0  0  0  0  0  0  0  0  0
  150.7289  142.1279  156.7294 C   0  0  0  0  0  0  0  0  0  0  0  0
  151.2159  142.7741  158.0123 C   0  0  0  0  0  0  0  0  0  0  0  0
  151.4427  144.1653  158.0799 C   0  0  0  0  0  0  0  0  0  0  0  0
  151.8854  144.7135  159.2995 C   0  0  0  0  0  0  0  0  0  0  0  0
  152.0817  143.8543  160.3977 C   0  0  0  0  0  0  0  0  0  0  0  0
  151.8260  142.4792  160.2277 C   0  0  0  0  0  0  0  0  0  0  0  0
  151.4005  141.9435  159.0630 N   0  0  0  0  0  0  0  0  0  0  0  0
  147.3348  143.5704  153.9287 H   0  0  0  0  0  0  0  0  0  0  0  0
  145.9797  143.7325  155.0457 H   0  0  0  0  0  0  0  0  0  0  0  0
  145.6851  143.4469  153.3358 H   0  0  0  0  0  0  0  0  0  0  0  0
  145.3084  141.3901  154.5818 H   0  0  0  0  0  0  0  0  0  0  0  0
  146.2246  141.1670  152.3208 H   0  0  0  0  0  0  0  0  0  0  0  0
  147.8645  141.1499  152.9289 H   0  0  0  0  0  0  0  0  0  0  0  0
  146.8431  137.6353  152.3605 H   0  0  0  0  0  0  0  0  0  0  0  0
  147.9494  138.8967  151.7952 H   0  0  0  0  0  0  0  0  0  0  0  0
  146.2302  138.9914  151.4205 H   0  0  0  0  0  0  0  0  0  0  0  0
  147.2053  137.9268  154.7104 H   0  0  0  0  0  0  0  0  0  0  0  0
  149.5556  138.6647  155.2133 H   0  0  0  0  0  0  0  0  0  0  0  0
  149.4127  139.9223  153.9955 H   0  0  0  0  0  0  0  0  0  0  0  0
  149.2975  138.2308  153.5400 H   0  0  0  0  0  0  0  0  0  0  0  0
  146.0587  139.4519  156.0741 H   0  0  0  0  0  0  0  0  0  0  0  0
  147.6742  139.3950  156.6847 H   0  0  0  0  0  0  0  0  0  0  0  0
  146.6296  141.7191  156.5436 H   0  0  0  0  0  0  0  0  0  0  0  0
  148.9946  141.4130  154.8596 H   0  0  0  0  0  0  0  0  0  0  0  0
  148.8188  141.9964  157.7362 H   0  0  0  0  0  0  0  0  0  0  0  0
  149.3791  140.4759  157.0592 H   0  0  0  0  0  0  0  0  0  0  0  0
  151.4289  141.3412  156.4434 H   0  0  0  0  0  0  0  0  0  0  0  0
  150.7502  142.8650  155.9255 H   0  0  0  0  0  0  0  0  0  0  0  0
  151.2808  144.7998  157.2209 H   0  0  0  0  0  0  0  0  0  0  0  0
  152.0698  145.7736  159.3914 H   0  0  0  0  0  0  0  0  0  0  0  0
  152.4202  144.2399  161.3482 H   0  0  0  0  0  0  0  0  0  0  0  0
  151.9652  141.7918  161.0491 H   0  0  0  0  0  0  0  0  0  0  0  0
  148.4543  142.8018  155.5418 H   0  0  0  0  0  0  0  0  0  0  0  0
  1  2  1  0  0  0  0
  1 19  1  0  0  0  0
  1 20  1  0  0  0  0
  1 21  1  0  0  0  0
  2  9  1  0  0  0  0
  2  3  1  0  0  0  0
  2 22  1  0  0  0  0
  3  4  1  0  0  0  0
  3 23  1  0  0  0  0
  3 24  1  0  0  0  0
  4  5  1  0  0  0  0
  4  6  1  0  0  0  0
  5 25  1  0  0  0  0
  5 26  1  0  0  0  0
  5 27  1  0  0  0  0
  6  7  1  0  0  0  0
  6  8  1  0  0  0  0
  6 28  1  0  0  0  0
  7 29  1  0  0  0  0
  7 30  1  0  0  0  0
  7 31  1  0  0  0  0
  8  9  1  0  0  0  0
  8 32  1  0  0  0  0
  8 33  1  0  0  0  0
  9 10  1  0  0  0  0
  9 34  1  0  0  0  0
 10 11  1  0  0  0  0
 10 35  1  0  0  0  0
 10 44  1  0  0  0  0
 11 12  1  0  0  0  0
 11 36  1  0  0  0  0
 11 37  1  0  0  0  0
 12 13  1  0  0  0  0
 12 38  1  0  0  0  0
 12 39  1  0  0  0  0
 13 18  1  0  0  0  0
 13 14  2  0  0  0  0
 14 15  1  0  0  0  0
 14 40  1  0  0  0  0
 15 16  2  0  0  0  0
 15 41  1  0  0  0  0
 16 17  1  0  0  0  0
 16 42  1  0  0  0  0
 17 18  2  0  0  0  0
 17 43  1  0  0  0  0
M  CHG  1  10   1
M  END
> <s_m_source_file>
AV-unprocessed.smi

> <i_m_source_file_index>
3303

> <i_lp_mmshare_version>
43012

> <i_f3d_flags>
0

> <s_epik_input>
W0NIM11bQ0BASF0xW0NIMl1OKFtDSDNdKVtDQEBIXShbQ0gzXSlbQ0gyXVtDQEhdMVtOSF1bQ0gyXVtDSDJdYzJbY0hdW2NIXVtjSF1bY0hdbjI=

> <s_epik_cmdline>
J2VwaWtfcHl0aG9uJywgJy1waCcsICc3LjAnLCAnLXRuJywgJzgnLCAnLW1hJywgJzIwMCcsICctbWV0YWxfYmluZGluZycsICctaW1hZScsICc8aW5maWxlLm1hZT4nLCAnLW9tYWUnLCAnPG91dGZpbGUubWFlPic=

> <r_epik_Ionization_Penalty>
1.37325

> <r_epik_Ionization_Penalty_Charging>
0.000251572

> <r_epik_Ionization_Penalty_Neutral>
1.373

> <r_epik_State_Penalty>
1.46343

> <r_epik_Charging_Adjusted_Penalty>
1.46368

> <i_epik_Tot_Q>
1

> <i_epik_Tot_abs_Q>
1

> <r_epik_Metal_State_Penalty>
1.46331

> <b_epik_Metal_Only>
0

> <s_lp_Force_Field>
OPLS_2005

> <r_lp_Energy>
24.8067

> <b_lp_Chiralities_Consistent>
1

> <s_lp_Variant>
AV-unprocessed.smi:3303-18

> <Gold.Version>
5.8.1

> <Gold.Id.Protein>
6NUR|6NUR_protein|mol2

> <Gold.PLP.Fitness>
43.9292

> <Gold.PLP.PLP>
-38.5546

> <Gold.PLP.part.hbond>
-1.0000

> <Gold.PLP.part.metal>
0.0000

> <Gold.PLP.part.buried>
-2.1492

> <Gold.PLP.part.nonpolar>
-35.5101

> <Gold.PLP.part.repulsive>
0.3269

> <Gold.PLP.ligand.clash>
0.0000

> <Gold.PLP.ligand.torsion>
0.3185

> <Gold.PLP.Chemscore.Hbond>
2.0000

> <Gold.PLP.Chemscore.CHOScore>
0.0000

> <Gold.PLP.Chemscore.Metal>
0.0000

> <Gold.Chemscore.Hbonds>
donor molecule, donor type, donor heavy atom, donor atom, acceptor molecule, acceptor atom, score
      L1  H    10    44       P1  8028  2.00

> <Gold.PLP.Chemscore.Internal.Correction>
0.0117

> <Gold.Rescore>
     Score         DG    S(hbond)    S(metal)    S(lipo)     H(rot)  DE(clash)    DE(int)     intcor
     18.65     -19.44       0.99        0.00     120.32       1.33       0.15       0.64       ----

> <Gold.Chemscore.Fitness>
18.6533

> <Gold.Chemscore.DG>
-19.4427

> <Gold.Chemscore.ZeroCoef>
-5.4800

> <Gold.Chemscore.Hbond>
0.9850

> <Gold.Chemscore.Metal>
0.0000

> <Gold.Chemscore.Lipo>
120.3160

> <Gold.Chemscore.Internal_Hbond>
0.0000

> <Gold.Chemscore.DEClash>
0.1453

> <Gold.Chemscore.DEInternal>
0.6441

> <Gold.Chemscore.Rot>
1.3298

> <Gold.Chemscore.Internal.Correction>
   9.000000E+99

> <Gold.Chemscore.Hbonds>
donor molecule, donor type, donor heavy atom, donor atom, acceptor molecule, acceptor atom, score
      L1  H    10    44       P1  8028  0.98

> <Gold.Chemscore.Hbond.Weighted>
-3.2901

> <Gold.Chemscore.Metal.Weighted>
-0.0000

> <Gold.Chemscore.Lipo.Weighted>
-14.0770

> <Gold.Chemscore.Internal_Hbond.Weighted>
0.0000

> <Gold.Chemscore.DEClash.Weighted>
0.1453

> <Gold.Chemscore.DEInternal.Weighted>
0.6441

> <Gold.Chemscore.Rot.Weighted>
3.4043

> <Gold.Chemscore.Internal.Correction.Weighted>
   9.000000E+99

> <Gold.Protein.RotatedTorsions>
[ 6907 6896 6895 6894 ] final  146.56 input  -60.11 | X-H torsion
[ 7974 7965 7964 7962 ] final  174.29 input  175.53 | X-H torsion
[ 8008 7997 7996 7995 ] final  -57.72 input   59.86 | X-H torsion
[ 10167 10162 10161 10158 ] final -100.03 input  -65.29 | X-H torsion
[ 10718 10713 10712 10709 ] final -118.91 input   66.30 | X-H torsion
[ 10763 10752 10751 10750 ] final  176.60 input  -60.55 | X-H torsion
[ 11005 11000 10999 10996 ] final  150.51 input  -57.11 | X-H torsion

> <Gold.Protein.ActiveResidues>
 VAL166  LYS551  ARG553  GLY616  TRP617  ASP618  TYR619  PRO620  LYS621  CYS622 
 ASP623  PHE694  ASN695  SER759  ASP760  ASP761  ALA762  ILE779  LEU786  VAL792 
 PHE793  MET794  SER795  GLU796  ALA797  LYS798  CYS799  TRP800  GLU811  SER814 

> <Gold.Protein.RotatedAtoms>
  152.1663  133.4614  159.4886 H   0  0  0  0  0  0  0  0  0  0  0  0  # atno 6907 bound_to 6896
  150.6913  134.2009  159.4330 H   0  0  0  0  0  0  0  0  0  0  0  0  # atno 6908 bound_to 6896
  151.9913  134.9977  160.0612 H   0  0  0  0  0  0  0  0  0  0  0  0  # atno 6909 bound_to 6896
  144.7225  139.9775  143.6438 H   0  0  0  0  0  0  0  0  0  0  0  0  # atno 7974 bound_to 7965
  154.4279  140.1100  156.5843 H   0  0  0  0  0  0  0  0  0  0  0  0  # atno 8008 bound_to 7997
  155.6079  140.3494  155.4594 H   0  0  0  0  0  0  0  0  0  0  0  0  # atno 8009 bound_to 7997
  156.0122  140.1221  157.0432 H   0  0  0  0  0  0  0  0  0  0  0  0  # atno 8010 bound_to 7997
  140.2562  143.3439  152.0669 H   0  0  0  0  0  0  0  0  0  0  0  0  # atno 10167 bound_to 10162
  156.1141  130.6272  150.9350 H   0  0  0  0  0  0  0  0  0  0  0  0  # atno 10718 bound_to 10713
  154.4833  135.2776  155.1553 H   0  0  0  0  0  0  0  0  0  0  0  0  # atno 10763 bound_to 10752
  154.3255  135.6201  153.5531 H   0  0  0  0  0  0  0  0  0  0  0  0  # atno 10764 bound_to 10752
  152.9878  135.5753  154.5239 H   0  0  0  0  0  0  0  0  0  0  0  0  # atno 10765 bound_to 10752
  140.1137  134.8908  157.1974 H   0  0  0  0  0  0  0  0  0  0  0  0  # atno 11005 bound_to 11000
  146.0514  139.3515  143.0637 LP  0  0  0  0  0  0  0  0  0  0  0  0  # atno 17320 bound_to 7965
  145.8210  140.9679  143.0899 LP  0  0  0  0  0  0  0  0  0  0  0  0  # atno 17321 bound_to 7965
  139.5031  144.6748  151.6155 LP  0  0  0  0  0  0  0  0  0  0  0  0  # atno 17342 bound_to 10162
  140.6002  143.9623  150.6381 LP  0  0  0  0  0  0  0  0  0  0  0  0  # atno 17343 bound_to 10162
  157.6324  131.0919  150.8416 LP  0  0  0  0  0  0  0  0  0  0  0  0  # atno 17370 bound_to 10713
  156.8522  130.5084  149.5311 LP  0  0  0  0  0  0  0  0  0  0  0  0  # atno 17371 bound_to 10713
  140.3056  134.3081  155.7279 LP  0  0  0  0  0  0  0  0  0  0  0  0  # atno 17394 bound_to 11000
  141.2136  133.7619  156.9704 LP  0  0  0  0  0  0  0  0  0  0  0  0  # atno 17395 bound_to 11000

$$$$
