AV-unprocessed.smi:243|AV-procd|sdf|1863|dock5
  -GOLD-   2262020493D 1   1.00000     0.00000
 Structure written by MMmdl.
 58 61  0  0  0  0  0  0  0  0  2 V2000
  144.2056  133.0067  150.6323 C   0  0  0  0  0  0  0  0  0  0  0  0
  145.4582  132.2285  150.2040 C   0  0  0  0  0  0  0  0  0  0  0  0
  146.3546  131.9223  151.3469 N   0  3  1  0  0  0  0  0  0  0  0  0
  147.0999  133.1178  151.8134 C   0  0  0  0  0  0  0  0  0  0  0  0
  148.1210  132.7546  152.9043 C   0  0  0  0  0  0  0  0  0  0  0  0
  147.4431  132.0418  154.0952 C   0  0  2  0  0  0  0  0  0  0  0  0
  148.3925  131.7229  155.1748 N   0  0  0  0  0  0  0  0  0  0  0  0
  149.5911  130.9680  154.8221 C   0  0  0  0  0  0  0  0  0  0  0  0
  148.7162  132.7359  156.0125 C   0  0  0  0  0  0  0  0  0  0  0  0
  148.3238  132.6166  157.3050 N   0  0  0  0  0  0  0  0  0  0  0  0
  148.6031  133.5863  158.1809 C   0  0  0  0  0  0  0  0  0  0  0  0
  149.2554  134.7327  157.9771 N   0  0  0  0  0  0  0  0  0  0  0  0
  149.6651  134.8482  156.6813 C   0  0  0  0  0  0  0  0  0  0  0  0
  149.4475  133.9007  155.6419 C   0  0  0  0  0  0  0  0  0  0  0  0
  150.0229  134.3539  154.4607 N   0  0  0  0  0  0  0  0  0  0  0  0
  150.5423  135.5073  154.7812 C   0  0  0  0  0  0  0  0  0  0  0  0
  150.3619  135.8882  156.0917 N   0  0  0  0  0  0  0  0  0  0  0  0
  150.8189  137.1212  156.7134 C   0  0  0  0  0  0  0  0  0  0  0  0
  150.1239  138.3838  156.1525 C   0  0  2  0  0  0  0  0  0  0  0  0
  148.7418  138.3301  156.4609 O   0  0  0  0  0  0  0  0  0  0  0  0
  150.2753  138.5591  154.6431 C   0  0  0  0  0  0  0  0  0  0  0  0
  150.3272  140.0714  154.4780 C   0  0  0  0  0  0  0  0  0  0  0  0
  151.1017  140.4735  155.5941 O   0  0  0  0  0  0  0  0  0  0  0  0
  150.7014  139.6973  156.7182 C   0  0  0  0  0  0  0  0  0  0  0  0
  146.6539  130.8072  153.5678 C   0  0  2  0  0  0  0  0  0  0  0  0
  147.5420  129.6449  153.0754 C   0  0  0  0  0  0  0  0  0  0  0  0
  145.6607  131.2432  152.4729 C   0  0  0  0  0  0  0  0  0  0  0  0
  143.5255  133.1318  149.7894 H   0  0  0  0  0  0  0  0  0  0  0  0
  144.4460  134.0031  151.0014 H   0  0  0  0  0  0  0  0  0  0  0  0
  143.6630  132.4783  151.4169 H   0  0  0  0  0  0  0  0  0  0  0  0
  145.1263  131.2946  149.7483 H   0  0  0  0  0  0  0  0  0  0  0  0
  146.0056  132.7708  149.4320 H   0  0  0  0  0  0  0  0  0  0  0  0
  147.6244  133.5765  150.9741 H   0  0  0  0  0  0  0  0  0  0  0  0
  146.3954  133.8607  152.1910 H   0  0  0  0  0  0  0  0  0  0  0  0
  148.9101  132.1302  152.4847 H   0  0  0  0  0  0  0  0  0  0  0  0
  148.6040  133.6749  153.2324 H   0  0  0  0  0  0  0  0  0  0  0  0
  146.7210  132.7481  154.5046 H   0  0  0  0  0  0  0  0  0  0  0  0
  150.3410  130.9900  155.6149 H   0  0  0  0  0  0  0  0  0  0  0  0
  150.0457  131.3692  153.9154 H   0  0  0  0  0  0  0  0  0  0  0  0
  149.3398  129.9220  154.6467 H   0  0  0  0  0  0  0  0  0  0  0  0
  148.2515  133.4212  159.1885 H   0  0  0  0  0  0  0  0  0  0  0  0
  151.0692  136.1190  154.0634 H   0  0  0  0  0  0  0  0  0  0  0  0
  150.6579  137.0472  157.7896 H   0  0  0  0  0  0  0  0  0  0  0  0
  151.8981  137.1925  156.5706 H   0  0  0  0  0  0  0  0  0  0  0  0
  148.2613  138.7469  155.7619 H   0  0  0  0  0  0  0  0  0  0  0  0
  151.2254  138.1407  154.3082 H   0  0  0  0  0  0  0  0  0  0  0  0
  149.4816  138.0887  154.0609 H   0  0  0  0  0  0  0  0  0  0  0  0
  150.7842  140.3788  153.5373 H   0  0  0  0  0  0  0  0  0  0  0  0
  149.3303  140.5105  154.5416 H   0  0  0  0  0  0  0  0  0  0  0  0
  149.9624  140.2544  157.2969 H   0  0  0  0  0  0  0  0  0  0  0  0
  151.5632  139.5307  157.3653 H   0  0  0  0  0  0  0  0  0  0  0  0
  146.0475  130.4101  154.3822 H   0  0  0  0  0  0  0  0  0  0  0  0
  148.1622  129.9317  152.2267 H   0  0  0  0  0  0  0  0  0  0  0  0
  146.9309  128.7989  152.7597 H   0  0  0  0  0  0  0  0  0  0  0  0
  148.2060  129.2816  153.8587 H   0  0  0  0  0  0  0  0  0  0  0  0
  144.9156  131.9191  152.8961 H   0  0  0  0  0  0  0  0  0  0  0  0
  145.1161  130.3695  152.1164 H   0  0  0  0  0  0  0  0  0  0  0  0
  147.0493  131.2772  150.9985 H   0  0  0  0  0  0  0  0  0  0  0  0
  1  2  1  0  0  0  0
  1 28  1  0  0  0  0
  1 29  1  0  0  0  0
  1 30  1  0  0  0  0
  2  3  1  0  0  0  0
  2 31  1  0  0  0  0
  2 32  1  0  0  0  0
  3 27  1  0  0  0  0
  3  4  1  0  0  0  0
  3 58  1  0  0  0  0
  4  5  1  0  0  0  0
  4 33  1  0  0  0  0
  4 34  1  0  0  0  0
  5  6  1  0  0  0  0
  5 35  1  0  0  0  0
  5 36  1  0  0  0  0
  6  7  1  0  0  0  0
  6 25  1  0  0  0  0
  6 37  1  0  0  0  0
  7  8  1  0  0  0  0
  7  9  1  0  0  0  0
  8 38  1  0  0  0  0
  8 39  1  0  0  0  0
  8 40  1  0  0  0  0
  9 14  1  0  0  0  0
  9 10  2  0  0  0  0
 10 11  1  0  0  0  0
 11 12  2  0  0  0  0
 11 41  1  0  0  0  0
 12 13  1  0  0  0  0
 13 17  1  0  0  0  0
 13 14  2  0  0  0  0
 14 15  1  0  0  0  0
 15 16  2  0  0  0  0
 16 17  1  0  0  0  0
 16 42  1  0  0  0  0
 17 18  1  0  0  0  0
 18 19  1  0  0  0  0
 18 43  1  0  0  0  0
 18 44  1  0  0  0  0
 19 24  1  0  0  0  0
 19 20  1  0  0  0  0
 19 21  1  0  0  0  0
 20 45  1  0  0  0  0
 21 22  1  0  0  0  0
 21 46  1  0  0  0  0
 21 47  1  0  0  0  0
 22 23  1  0  0  0  0
 22 48  1  0  0  0  0
 22 49  1  0  0  0  0
 23 24  1  0  0  0  0
 24 50  1  0  0  0  0
 24 51  1  0  0  0  0
 25 26  1  0  0  0  0
 25 27  1  0  0  0  0
 25 52  1  0  0  0  0
 26 53  1  0  0  0  0
 26 54  1  0  0  0  0
 26 55  1  0  0  0  0
 27 56  1  0  0  0  0
 27 57  1  0  0  0  0
M  CHG  1   3   1
M  END
> <s_m_source_file>
AV-unprocessed.smi

> <i_m_source_file_index>
243

> <i_lp_mmshare_version>
43012

> <i_f3d_flags>
0

> <s_epik_input>
W0NIM11bQ0gyXU4xW0NIMl1bQ0gyXVtDQEhdKFtDQEBIXShbQ0gzXSlbQ0gyXTEpTihbQ0gzXSljKG5bY0hdbjIpYyhjMjMpbltjSF1uM1tDSDJdW0NAQF00KFtPSF0pW0NIMl1bQ0gyXU9bQ0gyXTQ=

> <s_epik_cmdline>
J2VwaWtfcHl0aG9uJywgJy1waCcsICc3LjAnLCAnLXRuJywgJzgnLCAnLW1hJywgJzIwMCcsICctbWV0YWxfYmluZGluZycsICctaW1hZScsICc8aW5maWxlLm1hZT4nLCAnLW9tYWUnLCAnPG91dGZpbGUubWFlPic=

> <r_lp_tautomer_probability>
1

> <r_epik_Ionization_Penalty>
0.00253099

> <r_epik_Ionization_Penalty_Charging>
0.00137877

> <r_epik_Ionization_Penalty_Neutral>
0.00115221

> <r_epik_State_Penalty>
-0

> <r_epik_Charging_Adjusted_Penalty>
0.00137877

> <i_epik_Tot_Q>
1

> <i_epik_Tot_abs_Q>
1

> <r_epik_Metal_State_Penalty>
-0

> <b_epik_Metal_Only>
0

> <s_lp_Force_Field>
OPLS_2005

> <r_lp_Energy>
46.6392

> <b_lp_Chiralities_Consistent>
1

> <s_lp_Variant>
AV-unprocessed.smi:243-16

> <Gold.Version>
5.8.1

> <Gold.Id.Protein>
6NUR|6NUR_protein|mol2

> <Gold.PLP.Fitness>
41.7522

> <Gold.PLP.PLP>
-33.3998

> <Gold.PLP.part.hbond>
-2.0000

> <Gold.PLP.part.metal>
0.0000

> <Gold.PLP.part.buried>
-1.6192

> <Gold.PLP.part.nonpolar>
-29.8054

> <Gold.PLP.part.repulsive>
0.2063

> <Gold.PLP.ligand.clash>
0.0000

> <Gold.PLP.ligand.torsion>
0.5294

> <Gold.PLP.Chemscore.Hbond>
2.0000

> <Gold.PLP.Chemscore.CHOScore>
0.9744

> <Gold.PLP.Chemscore.Metal>
0.0000

> <Gold.Chemscore.Hbonds>
donor molecule, donor type, donor heavy atom, donor atom, acceptor molecule, acceptor atom, score
      L1  H     3    58       P1 10747  0.83
      P1  H  6896  6907       L1    12  0.63
      L1  C    16    42       P1  7949  0.90

> <Gold.PLP.Chemscore.Internal.Correction>
0.4881

> <Gold.Rescore>
     Score         DG    S(hbond)    S(metal)    S(lipo)     H(rot)  DE(clash)    DE(int)     intcor
     11.80     -14.74       1.75        0.00      84.69       2.53       0.12       2.82       ----

> <Gold.Chemscore.Fitness>
11.8010

> <Gold.Chemscore.DG>
-14.7439

> <Gold.Chemscore.ZeroCoef>
-5.4800

> <Gold.Chemscore.Hbond>
1.7464

> <Gold.Chemscore.Metal>
0.0000

> <Gold.Chemscore.Lipo>
84.6902

> <Gold.Chemscore.Internal_Hbond>
0.0000

> <Gold.Chemscore.DEClash>
0.1185

> <Gold.Chemscore.DEInternal>
2.8245

> <Gold.Chemscore.Rot>
2.5305

> <Gold.Chemscore.Internal.Correction>
   9.000000E+99

> <Gold.Chemscore.Hbonds>
donor molecule, donor type, donor heavy atom, donor atom, acceptor molecule, acceptor atom, score
      L1  H     3    58       P1 10747  0.77
      P1  H  6896  6907       L1    12  0.05

> <Gold.Chemscore.Hbond.Weighted>
-5.8331

> <Gold.Chemscore.Metal.Weighted>
-0.0000

> <Gold.Chemscore.Lipo.Weighted>
-9.9088

> <Gold.Chemscore.Internal_Hbond.Weighted>
0.0000

> <Gold.Chemscore.DEClash.Weighted>
0.1185

> <Gold.Chemscore.DEInternal.Weighted>
2.8245

> <Gold.Chemscore.Rot.Weighted>
6.4780

> <Gold.Chemscore.Internal.Correction.Weighted>
   9.000000E+99

> <Gold.Protein.RotatedTorsions>
[ 6907 6896 6895 6894 ] final  -86.71 input  -60.11 | X-H torsion
[ 7974 7965 7964 7962 ] final  136.76 input  175.53 | X-H torsion
[ 8008 7997 7996 7995 ] final  -53.07 input   59.86 | X-H torsion
[ 10167 10162 10161 10158 ] final   77.34 input  -65.29 | X-H torsion
[ 10718 10713 10712 10709 ] final  -98.95 input   66.30 | X-H torsion
[ 10763 10752 10751 10750 ] final   60.81 input  -60.55 | X-H torsion
[ 11005 11000 10999 10996 ] final   85.45 input  -57.11 | X-H torsion

> <Gold.Protein.ActiveResidues>
 VAL166  LYS551  ARG553  GLY616  TRP617  ASP618  TYR619  PRO620  LYS621  CYS622 
 ASP623  PHE694  ASN695  SER759  ASP760  ASP761  ALA762  ILE779  LEU786  VAL792 
 PHE793  MET794  SER795  GLU796  ALA797  LYS798  CYS799  TRP800  GLU811  SER814 

> <Gold.Protein.RotatedAtoms>
  150.6866  134.3009  159.4705 H   0  0  0  0  0  0  0  0  0  0  0  0  # atno 6907 bound_to 6896
  152.0905  134.9408  160.0581 H   0  0  0  0  0  0  0  0  0  0  0  0  # atno 6908 bound_to 6896
  152.0725  133.4079  159.4502 H   0  0  0  0  0  0  0  0  0  0  0  0  # atno 6909 bound_to 6896
  144.9533  139.4793  143.5515 H   0  0  0  0  0  0  0  0  0  0  0  0  # atno 7974 bound_to 7965
  154.4123  140.1209  156.5093 H   0  0  0  0  0  0  0  0  0  0  0  0  # atno 8008 bound_to 7997
  155.6815  140.3496  155.4838 H   0  0  0  0  0  0  0  0  0  0  0  0  # atno 8009 bound_to 7997
  155.9547  140.1111  157.0936 H   0  0  0  0  0  0  0  0  0  0  0  0  # atno 8010 bound_to 7997
  139.9826  144.5815  150.7887 H   0  0  0  0  0  0  0  0  0  0  0  0  # atno 10167 bound_to 10162
  156.0121  130.5261  150.6598 H   0  0  0  0  0  0  0  0  0  0  0  0  # atno 10718 bound_to 10713
  152.9932  135.5523  154.5933 H   0  0  0  0  0  0  0  0  0  0  0  0  # atno 10763 bound_to 10752
  154.5290  135.2812  155.1199 H   0  0  0  0  0  0  0  0  0  0  0  0  # atno 10764 bound_to 10752
  154.2522  135.6397  153.5297 H   0  0  0  0  0  0  0  0  0  0  0  0  # atno 10765 bound_to 10752
  139.8971  134.8287  156.2584 H   0  0  0  0  0  0  0  0  0  0  0  0  # atno 11005 bound_to 11000
  146.3328  139.8633  142.8852 LP  0  0  0  0  0  0  0  0  0  0  0  0  # atno 17320 bound_to 7965
  145.2811  141.0139  143.3717 LP  0  0  0  0  0  0  0  0  0  0  0  0  # atno 17321 bound_to 7965
  140.7483  143.2921  151.3303 LP  0  0  0  0  0  0  0  0  0  0  0  0  # atno 17342 bound_to 10162
  139.6398  144.0561  152.2545 LP  0  0  0  0  0  0  0  0  0  0  0  0  # atno 17343 bound_to 10162
  157.4343  131.0853  151.1008 LP  0  0  0  0  0  0  0  0  0  0  0  0  # atno 17370 bound_to 10713
  157.1571  130.6209  149.5599 LP  0  0  0  0  0  0  0  0  0  0  0  0  # atno 17371 bound_to 10713
  141.0179  133.7058  156.1218 LP  0  0  0  0  0  0  0  0  0  0  0  0  # atno 17394 bound_to 11000
  140.7276  134.4290  157.5569 LP  0  0  0  0  0  0  0  0  0  0  0  0  # atno 17395 bound_to 11000

$$$$
