AV-unprocessed.smi:1976|AV-procd|sdf|7989|dock10
  -GOLD-   2272010173D 1   1.00000     0.00000
 Structure written by MMmdl.
 45 47  0  0  0  0  0  0  0  0  2 V2000
  148.6018  140.5818  157.0880 O   0  0  0  0  0  0  0  0  0  0  0  0
  149.3754  140.1005  156.2589 C   0  0  0  0  0  0  0  0  0  0  0  0
  150.8007  140.6452  156.0887 C   0  0  0  0  0  0  0  0  0  0  0  0
  151.4821  140.9213  157.3646 N   0  0  0  0  0  0  0  0  0  0  0  0
  151.3925  142.2362  157.8622 C   0  0  0  0  0  0  0  0  0  0  0  0
  151.9737  142.6257  159.0129 C   0  0  0  0  0  0  0  0  0  0  0  0
  151.8073  144.0370  159.5546 C   0  0  0  0  0  0  0  0  0  0  0  0
  152.4033  144.9288  158.7625 F   0  0  0  0  0  0  0  0  0  0  0  0
  150.5129  144.3448  159.6261 F   0  0  0  0  0  0  0  0  0  0  0  0
  152.3284  144.1485  160.7773 F   0  0  0  0  0  0  0  0  0  0  0  0
  152.6864  141.6034  159.7537 C   0  0  0  0  0  0  0  0  0  0  0  0
  152.7701  140.3377  159.2987 C   0  0  0  0  0  0  0  0  0  0  0  0
  152.1470  139.9339  158.0362 C   0  0  0  0  0  0  0  0  0  0  0  0
  152.2153  138.7806  157.6106 O   0  0  0  0  0  0  0  0  0  0  0  0
  149.0366  139.0897  155.4440 N   0  0  0  0  0  0  0  0  0  0  0  0
  147.7399  138.4147  155.4306 C   0  0  2  0  0  0  0  0  0  0  0  0
  147.8548  136.8886  155.6079 C   0  0  0  0  0  0  0  0  0  0  0  0
  146.8162  136.3073  154.6431 C   0  0  0  0  0  0  0  0  0  0  0  0
  146.8315  137.2642  153.5307 N   0  3  1  0  0  0  0  0  0  0  0  0
  145.7753  137.1714  152.5028 C   0  0  0  0  0  0  0  0  0  0  0  0
  146.1218  138.1494  151.3593 C   0  0  0  0  0  0  0  0  0  0  0  0
  146.3869  139.5823  151.8747 C   0  0  0  0  0  0  0  0  0  0  0  0
  147.4040  139.5956  153.0366 C   0  0  0  0  0  0  0  0  0  0  0  0
  146.9356  138.6096  154.1224 C   0  0  2  0  0  0  0  0  0  0  0  0
  151.3763  139.9387  155.4879 H   0  0  0  0  0  0  0  0  0  0  0  0
  150.7546  141.5553  155.4886 H   0  0  0  0  0  0  0  0  0  0  0  0
  150.8096  142.9084  157.2493 H   0  0  0  0  0  0  0  0  0  0  0  0
  153.1644  141.8564  160.6886 H   0  0  0  0  0  0  0  0  0  0  0  0
  153.3108  139.6024  159.8767 H   0  0  0  0  0  0  0  0  0  0  0  0
  149.7330  138.7556  154.7934 H   0  0  0  0  0  0  0  0  0  0  0  0
  147.1400  138.7986  156.2585 H   0  0  0  0  0  0  0  0  0  0  0  0
  148.8483  136.5468  155.3127 H   0  0  0  0  0  0  0  0  0  0  0  0
  147.6907  136.5711  156.6382 H   0  0  0  0  0  0  0  0  0  0  0  0
  147.0635  135.2966  154.3166 H   0  0  0  0  0  0  0  0  0  0  0  0
  145.8276  136.2923  155.1050 H   0  0  0  0  0  0  0  0  0  0  0  0
  145.7198  136.1511  152.1217 H   0  0  0  0  0  0  0  0  0  0  0  0
  144.8036  137.4086  152.9387 H   0  0  0  0  0  0  0  0  0  0  0  0
  147.0111  137.7896  150.8401 H   0  0  0  0  0  0  0  0  0  0  0  0
  145.3204  138.1599  150.6201 H   0  0  0  0  0  0  0  0  0  0  0  0
  146.7400  140.2150  151.0599 H   0  0  0  0  0  0  0  0  0  0  0  0
  145.4475  140.0194  152.2156 H   0  0  0  0  0  0  0  0  0  0  0  0
  148.3943  139.3194  152.6718 H   0  0  0  0  0  0  0  0  0  0  0  0
  147.4825  140.6052  153.4408 H   0  0  0  0  0  0  0  0  0  0  0  0
  145.9308  138.9088  154.4288 H   0  0  0  0  0  0  0  0  0  0  0  0
  147.7069  137.1024  153.0534 H   0  0  0  0  0  0  0  0  0  0  0  0
  1  2  2  0  0  0  0
  2  3  1  0  0  0  0
  2 15  1  0  0  0  0
  3  4  1  0  0  0  0
  3 25  1  0  0  0  0
  3 26  1  0  0  0  0
  4 13  1  0  0  0  0
  4  5  1  0  0  0  0
  5  6  2  0  0  0  0
  5 27  1  0  0  0  0
  6  7  1  0  0  0  0
  6 11  1  0  0  0  0
  7  8  1  0  0  0  0
  7  9  1  0  0  0  0
  7 10  1  0  0  0  0
 11 12  2  0  0  0  0
 11 28  1  0  0  0  0
 12 13  1  0  0  0  0
 12 29  1  0  0  0  0
 13 14  2  0  0  0  0
 15 16  1  0  0  0  0
 15 30  1  0  0  0  0
 16 24  1  0  0  0  0
 16 17  1  0  0  0  0
 16 31  1  0  0  0  0
 17 18  1  0  0  0  0
 17 32  1  0  0  0  0
 17 33  1  0  0  0  0
 18 19  1  0  0  0  0
 18 34  1  0  0  0  0
 18 35  1  0  0  0  0
 19 24  1  0  0  0  0
 19 20  1  0  0  0  0
 19 45  1  0  0  0  0
 20 21  1  0  0  0  0
 20 36  1  0  0  0  0
 20 37  1  0  0  0  0
 21 22  1  0  0  0  0
 21 38  1  0  0  0  0
 21 39  1  0  0  0  0
 22 23  1  0  0  0  0
 22 40  1  0  0  0  0
 22 41  1  0  0  0  0
 23 24  1  0  0  0  0
 23 42  1  0  0  0  0
 23 43  1  0  0  0  0
 24 44  1  0  0  0  0
M  CHG  1  19   1
M  END
> <s_m_source_file>
AV-unprocessed.smi

> <i_m_source_file_index>
1976

> <i_lp_mmshare_version>
43012

> <i_f3d_flags>
0

> <s_epik_input>
W0NIMl0xW0NIMl1bQ0gyXVtDSDJdW0NASF0oTjEyKVtDQEBIXShbQ0gyXVtDSDJdMilbTkhdQyg9TylbQ0gyXW4zW2NIXWMoQyhGKShGKUYpW2NIXVtjSF1jMz1P

> <s_epik_cmdline>
J2VwaWtfcHl0aG9uJywgJy1waCcsICc3LjAnLCAnLXRuJywgJzgnLCAnLW1hJywgJzIwMCcsICctbWV0YWxfYmluZGluZycsICctaW1hZScsICc8aW5maWxlLm1hZT4nLCAnLW9tYWUnLCAnPG91dGZpbGUubWFlPic=

> <r_lp_tautomer_probability>
1

> <r_epik_Ionization_Penalty>
0.00171506

> <r_epik_Ionization_Penalty_Charging>
0.00171498

> <r_epik_Ionization_Penalty_Neutral>
7.81737e-08

> <r_epik_State_Penalty>
0.00115937

> <r_epik_Charging_Adjusted_Penalty>
0.00287436

> <i_epik_Tot_Q>
1

> <i_epik_Tot_abs_Q>
1

> <r_epik_Metal_State_Penalty>
-0

> <b_epik_Metal_Only>
0

> <s_lp_Force_Field>
OPLS_2005

> <r_lp_Energy>
53.4145

> <b_lp_Chiralities_Consistent>
1

> <s_lp_Variant>
AV-unprocessed.smi:1976-7

> <Gold.Version>
5.8.1

> <Gold.Id.Protein>
6NUR|6NUR_protein|mol2

> <Gold.PLP.Fitness>
45.7733

> <Gold.PLP.PLP>
-40.4150

> <Gold.PLP.part.hbond>
-1.0000

> <Gold.PLP.part.metal>
0.0000

> <Gold.PLP.part.buried>
1.7476

> <Gold.PLP.part.nonpolar>
-41.7716

> <Gold.PLP.part.repulsive>
0.0716

> <Gold.PLP.ligand.clash>
0.0000

> <Gold.PLP.ligand.torsion>
0.7101

> <Gold.PLP.Chemscore.Hbond>
2.0000

> <Gold.PLP.Chemscore.CHOScore>
0.2478

> <Gold.PLP.Chemscore.Metal>
0.0000

> <Gold.Chemscore.Hbonds>
donor molecule, donor type, donor heavy atom, donor atom, acceptor molecule, acceptor atom, score
      L1  H    19    45       P1  7948  2.00

> <Gold.PLP.Chemscore.Internal.Correction>
0.0351

> <Gold.Rescore>
     Score         DG    S(hbond)    S(metal)    S(lipo)     H(rot)  DE(clash)    DE(int)     intcor
     13.71     -14.98       0.98        0.00      87.97       1.58       0.76       0.52       ----

> <Gold.Chemscore.Fitness>
13.7079

> <Gold.Chemscore.DG>
-14.9798

> <Gold.Chemscore.ZeroCoef>
-5.4800

> <Gold.Chemscore.Hbond>
0.9761

> <Gold.Chemscore.Metal>
0.0000

> <Gold.Chemscore.Lipo>
87.9653

> <Gold.Chemscore.Internal_Hbond>
0.0000

> <Gold.Chemscore.DEClash>
0.7555

> <Gold.Chemscore.DEInternal>
0.5164

> <Gold.Chemscore.Rot>
1.5830

> <Gold.Chemscore.Internal.Correction>
   9.000000E+99

> <Gold.Chemscore.Hbonds>
donor molecule, donor type, donor heavy atom, donor atom, acceptor molecule, acceptor atom, score
      L1  H    19    45       P1  7948  0.99

> <Gold.Chemscore.Hbond.Weighted>
-3.2602

> <Gold.Chemscore.Metal.Weighted>
-0.0000

> <Gold.Chemscore.Lipo.Weighted>
-10.2919

> <Gold.Chemscore.Internal_Hbond.Weighted>
0.0000

> <Gold.Chemscore.DEClash.Weighted>
0.7555

> <Gold.Chemscore.DEInternal.Weighted>
0.5164

> <Gold.Chemscore.Rot.Weighted>
4.0524

> <Gold.Chemscore.Internal.Correction.Weighted>
   9.000000E+99

> <Gold.Protein.RotatedTorsions>
[ 6907 6896 6895 6894 ] final -134.06 input  -60.11 | X-H torsion
[ 7974 7965 7964 7962 ] final   89.62 input  175.53 | X-H torsion
[ 8008 7997 7996 7995 ] final   58.89 input   59.86 | X-H torsion
[ 10167 10162 10161 10158 ] final  -38.29 input  -65.29 | X-H torsion
[ 10718 10713 10712 10709 ] final -124.25 input   66.30 | X-H torsion
[ 10763 10752 10751 10750 ] final  131.11 input  -60.55 | X-H torsion
[ 11005 11000 10999 10996 ] final   27.22 input  -57.11 | X-H torsion

> <Gold.Protein.ActiveResidues>
 VAL166  LYS551  ARG553  GLY616  TRP617  ASP618  TYR619  PRO620  LYS621  CYS622 
 ASP623  PHE694  ASN695  SER759  ASP760  ASP761  ALA762  ILE779  LEU786  VAL792 
 PHE793  MET794  SER795  GLU796  ALA797  LYS798  CYS799  TRP800  GLU811  SER814 

> <Gold.Protein.RotatedAtoms>
  150.9814  133.6241  159.2721 H   0  0  0  0  0  0  0  0  0  0  0  0  # atno 6907 bound_to 6896
  151.3495  135.0880  159.9408 H   0  0  0  0  0  0  0  0  0  0  0  0  # atno 6908 bound_to 6896
  152.5217  133.9410  159.7680 H   0  0  0  0  0  0  0  0  0  0  0  0  # atno 6909 bound_to 6896
  145.5299  139.2283  143.2625 H   0  0  0  0  0  0  0  0  0  0  0  0  # atno 7974 bound_to 7965
  155.5573  140.3487  155.4483 H   0  0  0  0  0  0  0  0  0  0  0  0  # atno 8008 bound_to 7997
  156.0540  140.1324  157.0044 H   0  0  0  0  0  0  0  0  0  0  0  0  # atno 8009 bound_to 7997
  154.4447  140.0999  156.6403 H   0  0  0  0  0  0  0  0  0  0  0  0  # atno 8010 bound_to 7997
  140.7096  143.3287  151.2620 H   0  0  0  0  0  0  0  0  0  0  0  0  # atno 10167 bound_to 10162
  156.1571  130.6576  150.9997 H   0  0  0  0  0  0  0  0  0  0  0  0  # atno 10718 bound_to 10713
  153.7690  135.3185  155.3349 H   0  0  0  0  0  0  0  0  0  0  0  0  # atno 10763 bound_to 10752
  154.8203  135.4608  154.0763 H   0  0  0  0  0  0  0  0  0  0  0  0  # atno 10764 bound_to 10752
  153.2016  135.6923  153.8308 H   0  0  0  0  0  0  0  0  0  0  0  0  # atno 10765 bound_to 10752
  140.3286  134.2463  155.7706 H   0  0  0  0  0  0  0  0  0  0  0  0  # atno 11005 bound_to 11000
  146.2051  140.6115  142.9085 LP  0  0  0  0  0  0  0  0  0  0  0  0  # atno 17320 bound_to 7965
  144.7631  140.5469  143.6721 LP  0  0  0  0  0  0  0  0  0  0  0  0  # atno 17321 bound_to 7965
  139.6762  143.9933  152.2782 LP  0  0  0  0  0  0  0  0  0  0  0  0  # atno 17342 bound_to 10162
  139.9548  144.6597  150.8137 LP  0  0  0  0  0  0  0  0  0  0  0  0  # atno 17343 bound_to 10162
  157.6704  131.0862  150.7627 LP  0  0  0  0  0  0  0  0  0  0  0  0  # atno 17370 bound_to 10713
  156.7692  130.4823  149.5422 LP  0  0  0  0  0  0  0  0  0  0  0  0  # atno 17371 bound_to 10713
  141.2069  133.7820  157.0150 LP  0  0  0  0  0  0  0  0  0  0  0  0  # atno 17394 bound_to 11000
  140.0880  134.9609  157.1731 LP  0  0  0  0  0  0  0  0  0  0  0  0  # atno 17395 bound_to 11000

$$$$
