AV-unprocessed.smi:1794|AV-procd|sdf|7233|dock3
  -GOLD-   22720 8473D 1   1.00000     0.00000
 Structure written by MMmdl.
 55 57  0  0  0  0  0  0  0  0  2 V2000
  153.8367  137.5858  162.6728 C   0  0  0  0  0  0  0  0  0  0  0  0
  155.1881  137.3131  161.9649 C   0  0  0  0  0  0  0  0  0  0  0  0
  154.8577  136.4218  160.7415 C   0  0  0  0  0  0  0  0  0  0  0  0
  155.8315  138.6484  161.4816 C   0  0  0  0  0  0  0  0  0  0  0  0
  154.9066  139.4981  160.7317 N   0  0  0  0  0  0  0  0  0  0  0  0
  154.4424  140.6910  161.1310 C   0  0  0  0  0  0  0  0  0  0  0  0
  154.7747  141.2231  162.1889 O   0  0  0  0  0  0  0  0  0  0  0  0
  153.5786  141.1920  160.2312 N   0  0  0  0  0  0  0  0  0  0  0  0
  152.7994  142.3881  160.2582 C   0  0  0  0  0  0  0  0  0  0  0  0
  152.8924  143.3548  161.2923 C   0  0  0  0  0  0  0  0  0  0  0  0
  152.0537  144.4823  161.2632 C   0  0  0  0  0  0  0  0  0  0  0  0
  151.1419  144.6076  160.2031 C   0  0  0  0  0  0  0  0  0  0  0  0
  151.0417  143.7028  159.2102 N   0  0  0  0  0  0  0  0  0  0  0  0
  151.8531  142.6170  159.2169 C   0  0  0  0  0  0  0  0  0  0  0  0
  151.7192  141.7136  158.1379 N   0  0  0  0  0  0  0  0  0  0  0  0
  151.3845  140.3139  158.3822 C   0  0  0  0  0  0  0  0  0  0  0  0
  150.8930  139.7828  157.0385 C   0  0  0  0  0  0  0  0  0  0  0  0
  150.1701  140.9930  156.4564 C   0  0  0  0  0  0  0  0  0  0  0  0
  150.9943  142.1821  156.9603 C   0  0  0  0  0  0  0  0  0  0  0  0
  156.1034  136.5703  162.9049 N   0  3  0  0  0  0  0  0  0  0  0  0
  156.4747  137.2891  164.1569 C   0  0  0  0  0  0  0  0  0  0  0  0
  157.5537  136.5101  164.9274 C   0  0  0  0  0  0  0  0  0  0  0  0
  157.0833  135.2025  165.2210 O   0  0  0  0  0  0  0  0  0  0  0  0
  156.8065  134.4671  164.0378 C   0  0  0  0  0  0  0  0  0  0  0  0
  155.7011  135.1732  163.2350 C   0  0  0  0  0  0  0  0  0  0  0  0
  153.0719  137.9214  161.9717 H   0  0  0  0  0  0  0  0  0  0  0  0
  153.9155  138.3657  163.4297 H   0  0  0  0  0  0  0  0  0  0  0  0
  153.4508  136.6865  163.1544 H   0  0  0  0  0  0  0  0  0  0  0  0
  154.0497  136.8428  160.1421 H   0  0  0  0  0  0  0  0  0  0  0  0
  154.5393  135.4252  161.0500 H   0  0  0  0  0  0  0  0  0  0  0  0
  155.7062  136.3108  160.0667 H   0  0  0  0  0  0  0  0  0  0  0  0
  156.2482  139.2093  162.3185 H   0  0  0  0  0  0  0  0  0  0  0  0
  156.6686  138.4472  160.8141 H   0  0  0  0  0  0  0  0  0  0  0  0
  154.5815  139.1395  159.8456 H   0  0  0  0  0  0  0  0  0  0  0  0
  153.4310  140.6213  159.4116 H   0  0  0  0  0  0  0  0  0  0  0  0
  153.5786  143.2648  162.1174 H   0  0  0  0  0  0  0  0  0  0  0  0
  152.1045  145.2298  162.0410 H   0  0  0  0  0  0  0  0  0  0  0  0
  150.4763  145.4564  160.1494 H   0  0  0  0  0  0  0  0  0  0  0  0
  152.2495  139.7582  158.7450 H   0  0  0  0  0  0  0  0  0  0  0  0
  150.5853  140.2227  159.1185 H   0  0  0  0  0  0  0  0  0  0  0  0
  151.7419  139.5158  156.4077 H   0  0  0  0  0  0  0  0  0  0  0  0
  150.2514  138.9066  157.1363 H   0  0  0  0  0  0  0  0  0  0  0  0
  150.0911  140.9617  155.3695 H   0  0  0  0  0  0  0  0  0  0  0  0
  149.1606  141.0470  156.8659 H   0  0  0  0  0  0  0  0  0  0  0  0
  150.3599  143.0419  157.1803 H   0  0  0  0  0  0  0  0  0  0  0  0
  151.7167  142.4813  156.2007 H   0  0  0  0  0  0  0  0  0  0  0  0
  156.8691  138.2815  163.9483 H   0  0  0  0  0  0  0  0  0  0  0  0
  155.5994  137.4167  164.7938 H   0  0  0  0  0  0  0  0  0  0  0  0
  158.4812  136.4580  164.3543 H   0  0  0  0  0  0  0  0  0  0  0  0
  157.7871  137.0183  165.8632 H   0  0  0  0  0  0  0  0  0  0  0  0
  157.7133  134.3570  163.4406 H   0  0  0  0  0  0  0  0  0  0  0  0
  156.4851  133.4629  164.3148 H   0  0  0  0  0  0  0  0  0  0  0  0
  154.7791  135.1714  163.8165 H   0  0  0  0  0  0  0  0  0  0  0  0
  155.5171  134.5851  162.3383 H   0  0  0  0  0  0  0  0  0  0  0  0
  156.9682  136.4778  162.3914 H   0  0  0  0  0  0  0  0  0  0  0  0
  1  2  1  0  0  0  0
  1 26  1  0  0  0  0
  1 27  1  0  0  0  0
  1 28  1  0  0  0  0
  2  3  1  0  0  0  0
  2  4  1  0  0  0  0
  2 20  1  0  0  0  0
  3 29  1  0  0  0  0
  3 30  1  0  0  0  0
  3 31  1  0  0  0  0
  4  5  1  0  0  0  0
  4 32  1  0  0  0  0
  4 33  1  0  0  0  0
  5  6  1  0  0  0  0
  5 34  1  0  0  0  0
  6  7  2  0  0  0  0
  6  8  1  0  0  0  0
  8  9  1  0  0  0  0
  8 35  1  0  0  0  0
  9 14  1  0  0  0  0
  9 10  2  0  0  0  0
 10 11  1  0  0  0  0
 10 36  1  0  0  0  0
 11 12  2  0  0  0  0
 11 37  1  0  0  0  0
 12 13  1  0  0  0  0
 12 38  1  0  0  0  0
 13 14  2  0  0  0  0
 14 15  1  0  0  0  0
 15 19  1  0  0  0  0
 15 16  1  0  0  0  0
 16 17  1  0  0  0  0
 16 39  1  0  0  0  0
 16 40  1  0  0  0  0
 17 18  1  0  0  0  0
 17 41  1  0  0  0  0
 17 42  1  0  0  0  0
 18 19  1  0  0  0  0
 18 43  1  0  0  0  0
 18 44  1  0  0  0  0
 19 45  1  0  0  0  0
 19 46  1  0  0  0  0
 20 25  1  0  0  0  0
 20 21  1  0  0  0  0
 20 55  1  0  0  0  0
 21 22  1  0  0  0  0
 21 47  1  0  0  0  0
 21 48  1  0  0  0  0
 22 23  1  0  0  0  0
 22 49  1  0  0  0  0
 22 50  1  0  0  0  0
 23 24  1  0  0  0  0
 24 25  1  0  0  0  0
 24 51  1  0  0  0  0
 24 52  1  0  0  0  0
 25 53  1  0  0  0  0
 25 54  1  0  0  0  0
M  CHG  1  20   1
M  END
> <s_m_source_file>
AV-unprocessed.smi

> <i_m_source_file_index>
1794

> <i_lp_mmshare_version>
43012

> <i_f3d_flags>
0

> <s_epik_input>
W0NIMl0xW0NIMl1PW0NIMl1bQ0gyXU4xQyhbQ0gzXSkoW0NIM10pW0NIMl1bTkhdQyg9TylbTkhdYzJbY0hdW2NIXVtjSF1uYzJOM1tDSDJdW0NIMl1bQ0gyXVtDSDJdMw==

> <s_epik_cmdline>
J2VwaWtfcHl0aG9uJywgJy1waCcsICc3LjAnLCAnLXRuJywgJzgnLCAnLW1hJywgJzIwMCcsICctbWV0YWxfYmluZGluZycsICctaW1hZScsICc8aW5maWxlLm1hZT4nLCAnLW9tYWUnLCAnPG91dGZpbGUubWFlPic=

> <r_lp_tautomer_probability>
1

> <r_epik_Ionization_Penalty>
0.687101

> <r_epik_Ionization_Penalty_Charging>
0.602531

> <r_epik_Ionization_Penalty_Neutral>
0.0845706

> <r_epik_State_Penalty>
0.681137

> <r_epik_Charging_Adjusted_Penalty>
1.28367

> <i_epik_Tot_Q>
1

> <i_epik_Tot_abs_Q>
1

> <r_epik_Metal_State_Penalty>
0.680055

> <b_epik_Metal_Only>
0

> <s_lp_Force_Field>
OPLS_2005

> <r_lp_Energy>
53.5269

> <b_lp_Chiralities_Consistent>
1

> <s_lp_Variant>
AV-unprocessed.smi:1794-2

> <Gold.Version>
5.8.1

> <Gold.Id.Protein>
6NUR|6NUR_protein|mol2

> <Gold.PLP.Fitness>
37.7158

> <Gold.PLP.PLP>
-38.0423

> <Gold.PLP.part.hbond>
-1.0000

> <Gold.PLP.part.metal>
0.0000

> <Gold.PLP.part.buried>
-6.3991

> <Gold.PLP.part.nonpolar>
-30.3081

> <Gold.PLP.part.repulsive>
0.2526

> <Gold.PLP.ligand.clash>
0.0000

> <Gold.PLP.ligand.torsion>
0.3691

> <Gold.PLP.Chemscore.Hbond>
0.0000

> <Gold.PLP.Chemscore.CHOScore>
0.0000

> <Gold.PLP.Chemscore.Metal>
0.0000

> <Gold.PLP.Chemscore.Internal.Correction>
0.4117

> <Gold.Rescore>
     Score         DG    S(hbond)    S(metal)    S(lipo)     H(rot)  DE(clash)    DE(int)     intcor
     11.87     -13.54       0.00        0.00     103.95       1.60       0.03       1.64       ----

> <Gold.Chemscore.Fitness>
11.8677

> <Gold.Chemscore.DG>
-13.5355

> <Gold.Chemscore.ZeroCoef>
-5.4800

> <Gold.Chemscore.Hbond>
0.0000

> <Gold.Chemscore.Metal>
0.0000

> <Gold.Chemscore.Lipo>
103.9549

> <Gold.Chemscore.Internal_Hbond>
0.0000

> <Gold.Chemscore.DEClash>
0.0285

> <Gold.Chemscore.DEInternal>
1.6393

> <Gold.Chemscore.Rot>
1.6044

> <Gold.Chemscore.Internal.Correction>
   9.000000E+99

> <Gold.Chemscore.Hbond.Weighted>
-0.0000

> <Gold.Chemscore.Metal.Weighted>
-0.0000

> <Gold.Chemscore.Lipo.Weighted>
-12.1627

> <Gold.Chemscore.Internal_Hbond.Weighted>
0.0000

> <Gold.Chemscore.DEClash.Weighted>
0.0285

> <Gold.Chemscore.DEInternal.Weighted>
1.6393

> <Gold.Chemscore.Rot.Weighted>
4.1072

> <Gold.Chemscore.Internal.Correction.Weighted>
   9.000000E+99

> <Gold.Protein.RotatedTorsions>
[ 6907 6896 6895 6894 ] final   92.32 input  -60.11 | X-H torsion
[ 7974 7965 7964 7962 ] final -163.20 input  175.53 | X-H torsion
[ 8008 7997 7996 7995 ] final  161.96 input   59.86 | X-H torsion
[ 10167 10162 10161 10158 ] final    7.18 input  -65.29 | X-H torsion
[ 10718 10713 10712 10709 ] final  105.75 input   66.30 | X-H torsion
[ 10763 10752 10751 10750 ] final  -56.34 input  -60.55 | X-H torsion
[ 11005 11000 10999 10996 ] final -106.45 input  -57.11 | X-H torsion

> <Gold.Protein.ActiveResidues>
 VAL166  LYS551  ARG553  GLY616  TRP617  ASP618  TYR619  PRO620  LYS621  CYS622 
 ASP623  PHE694  ASN695  SER759  ASP760  ASP761  ALA762  ILE779  LEU786  VAL792 
 PHE793  MET794  SER795  GLU796  ALA797  LYS798  CYS799  TRP800  GLU811  SER814 

> <Gold.Protein.RotatedAtoms>
  152.5452  134.1520  159.8522 H   0  0  0  0  0  0  0  0  0  0  0  0  # atno 6907 bound_to 6896
  151.1546  133.4878  159.2602 H   0  0  0  0  0  0  0  0  0  0  0  0  # atno 6908 bound_to 6896
  151.1436  135.0203  159.8692 H   0  0  0  0  0  0  0  0  0  0  0  0  # atno 6909 bound_to 6896
  144.7333  140.3141  143.6182 H   0  0  0  0  0  0  0  0  0  0  0  0  # atno 7974 bound_to 7965
  156.2066  140.1763  156.7786 H   0  0  0  0  0  0  0  0  0  0  0  0  # atno 8008 bound_to 7997
  154.5664  140.0690  156.8928 H   0  0  0  0  0  0  0  0  0  0  0  0  # atno 8009 bound_to 7997
  155.2754  140.3345  155.4264 H   0  0  0  0  0  0  0  0  0  0  0  0  # atno 8010 bound_to 7997
  140.6386  143.7827  150.7395 H   0  0  0  0  0  0  0  0  0  0  0  0  # atno 10167 bound_to 10162
  157.6694  131.0835  150.5904 H   0  0  0  0  0  0  0  0  0  0  0  0  # atno 10718 bound_to 10713
  154.2052  135.6404  153.5098 H   0  0  0  0  0  0  0  0  0  0  0  0  # atno 10763 bound_to 10752
  153.0002  135.5461  154.6274 H   0  0  0  0  0  0  0  0  0  0  0  0  # atno 10764 bound_to 10752
  154.5696  135.2916  155.0813 H   0  0  0  0  0  0  0  0  0  0  0  0  # atno 10765 bound_to 10752
  141.1004  133.8895  157.1858 H   0  0  0  0  0  0  0  0  0  0  0  0  # atno 11005 bound_to 11000
  145.7635  139.1832  143.2253 LP  0  0  0  0  0  0  0  0  0  0  0  0  # atno 17320 bound_to 7965
  146.0968  140.7591  142.9568 LP  0  0  0  0  0  0  0  0  0  0  0  0  # atno 17321 bound_to 7965
  140.1454  143.4405  152.2166 LP  0  0  0  0  0  0  0  0  0  0  0  0  # atno 17342 bound_to 10162
  139.5596  144.7396  151.4194 LP  0  0  0  0  0  0  0  0  0  0  0  0  # atno 17343 bound_to 10162
  156.6204  130.4404  149.5824 LP  0  0  0  0  0  0  0  0  0  0  0  0  # atno 17370 bound_to 10713
  156.2360  130.6823  151.1510 LP  0  0  0  0  0  0  0  0  0  0  0  0  # atno 17371 bound_to 10713
  139.9853  135.0084  156.9848 LP  0  0  0  0  0  0  0  0  0  0  0  0  # atno 17394 bound_to 11000
  140.5037  134.1071  155.7255 LP  0  0  0  0  0  0  0  0  0  0  0  0  # atno 17395 bound_to 11000

$$$$
