AV-unprocessed.smi:235|AV-procd|sdf|1801|dock10
  -GOLD-   2262020373D 1   1.00000     0.00000
 Structure written by MMmdl.
 54 58  0  0  0  0  0  0  0  0  1 V2000
  145.0389  135.7310  151.6672 O   0  0  0  0  0  0  0  0  0  0  0  0
  144.2534  134.9964  152.2674 C   0  0  0  0  0  0  0  0  0  0  0  0
  144.1169  133.6888  152.0050 N   0  0  0  0  0  0  0  0  0  0  0  0
  144.8502  132.9573  151.0239 C   0  0  0  0  0  0  0  0  0  0  0  0
  144.0743  132.3560  149.8720 C   0  0  0  0  0  0  0  0  0  0  0  0
  144.6235  131.4626  150.9499 C   0  0  0  0  0  0  0  0  0  0  0  0
  143.3468  135.5565  153.3729 C   0  0  2  0  0  0  0  0  0  0  0  0
  141.8658  135.2555  153.1112 C   0  0  0  0  0  0  0  0  0  0  0  0
  141.1531  136.3366  153.9143 C   0  0  0  0  0  0  0  0  0  0  0  0
  142.0739  137.5473  153.7592 C   0  0  0  0  0  0  0  0  0  0  0  0
  143.4000  137.0180  153.4533 N   0  0  0  0  0  0  0  0  0  0  0  0
  144.4151  137.5311  154.1828 C   0  0  0  0  0  0  0  0  0  0  0  0
  144.3050  137.4649  155.5320 N   0  0  0  0  0  0  0  0  0  0  0  0
  145.2767  137.9588  156.3055 C   0  0  0  0  0  0  0  0  0  0  0  0
  146.4178  138.5484  155.9402 N   0  0  0  0  0  0  0  0  0  0  0  0
  146.5286  138.6141  154.5824 C   0  0  0  0  0  0  0  0  0  0  0  0
  145.5829  138.1324  153.6352 C   0  0  0  0  0  0  0  0  0  0  0  0
  146.0387  138.3714  152.3438 N   0  0  0  0  0  0  0  0  0  0  0  0
  147.1881  138.9650  152.5183 C   0  0  0  0  0  0  0  0  0  0  0  0
  147.5597  139.1475  153.8316 N   0  0  0  0  0  0  0  0  0  0  0  0
  148.7803  139.7672  154.3139 C   0  0  0  0  0  0  0  0  0  0  0  0
  148.5215  141.1083  155.0293 C   0  0  2  0  0  0  0  0  0  0  0  0
  148.6150  142.1595  154.0889 O   0  0  0  0  0  0  0  0  0  0  0  0
  149.4475  141.3788  156.2368 C   0  0  2  0  0  0  0  0  0  0  0  0
  150.9532  141.4594  155.9302 C   0  0  0  0  0  0  0  0  0  0  0  0
  151.5579  140.3826  156.8137 C   0  0  0  0  0  0  0  0  0  0  0  0
  150.5212  140.2346  157.9196 C   0  0  0  0  0  0  0  0  0  0  0  0
  149.2936  140.3614  157.2224 O   0  0  0  0  0  0  0  0  0  0  0  0
  143.4408  133.1692  152.5456 H   0  0  0  0  0  0  0  0  0  0  0  0
  145.8582  133.3000  150.7937 H   0  0  0  0  0  0  0  0  0  0  0  0
  142.9970  132.5090  149.8480 H   0  0  0  0  0  0  0  0  0  0  0  0
  144.5617  132.3276  148.8995 H   0  0  0  0  0  0  0  0  0  0  0  0
  145.4786  130.8385  150.6983 H   0  0  0  0  0  0  0  0  0  0  0  0
  143.9136  131.0200  151.6463 H   0  0  0  0  0  0  0  0  0  0  0  0
  143.6332  135.1175  154.3304 H   0  0  0  0  0  0  0  0  0  0  0  0
  141.6228  135.3638  152.0524 H   0  0  0  0  0  0  0  0  0  0  0  0
  141.5800  134.2501  153.4215 H   0  0  0  0  0  0  0  0  0  0  0  0
  140.1366  136.5276  153.5693 H   0  0  0  0  0  0  0  0  0  0  0  0
  141.1048  136.0419  154.9635 H   0  0  0  0  0  0  0  0  0  0  0  0
  141.7550  138.1558  152.9125 H   0  0  0  0  0  0  0  0  0  0  0  0
  142.0471  138.1840  154.6452 H   0  0  0  0  0  0  0  0  0  0  0  0
  145.1168  137.8690  157.3699 H   0  0  0  0  0  0  0  0  0  0  0  0
  147.8044  139.2810  151.6891 H   0  0  0  0  0  0  0  0  0  0  0  0
  149.2787  139.0671  154.9859 H   0  0  0  0  0  0  0  0  0  0  0  0
  149.4498  139.9132  153.4652 H   0  0  0  0  0  0  0  0  0  0  0  0
  147.4927  141.1112  155.3912 H   0  0  0  0  0  0  0  0  0  0  0  0
  148.6535  142.9776  154.5603 H   0  0  0  0  0  0  0  0  0  0  0  0
  149.1542  142.3196  156.7055 H   0  0  0  0  0  0  0  0  0  0  0  0
  151.1979  141.3072  154.8788 H   0  0  0  0  0  0  0  0  0  0  0  0
  151.3361  142.4403  156.2146 H   0  0  0  0  0  0  0  0  0  0  0  0
  151.6379  139.4481  156.2569 H   0  0  0  0  0  0  0  0  0  0  0  0
  152.5483  140.6416  157.1887 H   0  0  0  0  0  0  0  0  0  0  0  0
  150.5916  139.2799  158.4410 H   0  0  0  0  0  0  0  0  0  0  0  0
  150.6121  141.0386  158.6515 H   0  0  0  0  0  0  0  0  0  0  0  0
  1  2  2  0  0  0  0
  2  3  1  0  0  0  0
  2  7  1  0  0  0  0
  3  4  1  0  0  0  0
  3 29  1  0  0  0  0
  4  6  1  0  0  0  0
  4  5  1  0  0  0  0
  4 30  1  0  0  0  0
  5  6  1  0  0  0  0
  5 31  1  0  0  0  0
  5 32  1  0  0  0  0
  6 33  1  0  0  0  0
  6 34  1  0  0  0  0
  7 11  1  0  0  0  0
  7  8  1  0  0  0  0
  7 35  1  0  0  0  0
  8  9  1  0  0  0  0
  8 36  1  0  0  0  0
  8 37  1  0  0  0  0
  9 10  1  0  0  0  0
  9 38  1  0  0  0  0
  9 39  1  0  0  0  0
 10 11  1  0  0  0  0
 10 40  1  0  0  0  0
 10 41  1  0  0  0  0
 11 12  1  0  0  0  0
 12 17  1  0  0  0  0
 12 13  2  0  0  0  0
 13 14  1  0  0  0  0
 14 15  2  0  0  0  0
 14 42  1  0  0  0  0
 15 16  1  0  0  0  0
 16 20  1  0  0  0  0
 16 17  2  0  0  0  0
 17 18  1  0  0  0  0
 18 19  2  0  0  0  0
 19 20  1  0  0  0  0
 19 43  1  0  0  0  0
 20 21  1  0  0  0  0
 21 22  1  0  0  0  0
 21 44  1  0  0  0  0
 21 45  1  0  0  0  0
 22 23  1  0  0  0  0
 22 24  1  0  0  0  0
 22 46  1  0  0  0  0
 23 47  1  0  0  0  0
 24 28  1  0  0  0  0
 24 25  1  0  0  0  0
 24 48  1  0  0  0  0
 25 26  1  0  0  0  0
 25 49  1  0  0  0  0
 25 50  1  0  0  0  0
 26 27  1  0  0  0  0
 26 51  1  0  0  0  0
 26 52  1  0  0  0  0
 27 28  1  0  0  0  0
 27 53  1  0  0  0  0
 27 54  1  0  0  0  0
M  END
> <s_m_source_file>
AV-unprocessed.smi

> <i_m_source_file_index>
235

> <i_lp_mmshare_version>
43012

> <i_f3d_flags>
0

> <s_epik_input>
W0NIMl0xW0NIMl1bQ0hdMVtOSF1DKD1PKVtDQEBIXTJbQ0gyXVtDSDJdW0NIMl1OMmMobltjSF1uMyljKGMzNCluW2NIXW40W0NIMl1bQ0BIXShbT0hdKVtDQEBIXTVbQ0gyXVtDSDJdW0NIMl1PNQ==

> <s_epik_cmdline>
J2VwaWtfcHl0aG9uJywgJy1waCcsICc3LjAnLCAnLXRuJywgJzgnLCAnLW1hJywgJzIwMCcsICctbWV0YWxfYmluZGluZycsICctaW1hZScsICc8aW5maWxlLm1hZT4nLCAnLW9tYWUnLCAnPG91dGZpbGUubWFlPic=

> <r_lp_tautomer_probability>
1

> <r_epik_Ionization_Penalty>
0.000526714

> <r_epik_Ionization_Penalty_Charging>
0

> <r_epik_Ionization_Penalty_Neutral>
0.000526714

> <r_epik_State_Penalty>
0.000272704

> <r_epik_Charging_Adjusted_Penalty>
0.000272704

> <i_epik_Tot_Q>
0

> <i_epik_Tot_abs_Q>
0

> <r_epik_Metal_State_Penalty>
-0

> <b_epik_Metal_Only>
0

> <s_lp_Force_Field>
OPLS_2005

> <r_lp_Energy>
63.4887

> <b_lp_Chiralities_Consistent>
1

> <s_lp_Variant>
AV-unprocessed.smi:235-1

> <Gold.Version>
5.8.1

> <Gold.Id.Protein>
6NUR|6NUR_protein|mol2

> <Gold.PLP.Fitness>
43.8047

> <Gold.PLP.PLP>
-38.6407

> <Gold.PLP.part.hbond>
-2.0000

> <Gold.PLP.part.metal>
0.0000

> <Gold.PLP.part.buried>
-6.9343

> <Gold.PLP.part.nonpolar>
-30.4668

> <Gold.PLP.part.repulsive>
0.9061

> <Gold.PLP.ligand.clash>
0.0000

> <Gold.PLP.ligand.torsion>
0.8644

> <Gold.PLP.Chemscore.Hbond>
1.2149

> <Gold.PLP.Chemscore.CHOScore>
1.0000

> <Gold.PLP.Chemscore.Metal>
0.0000

> <Gold.Chemscore.Hbonds>
donor molecule, donor type, donor heavy atom, donor atom, acceptor molecule, acceptor atom, score
      L1  H    23    47       P1  8028  0.96
      P1  H  8011  8017       L1    23  0.25
      L1  C    19    43       P1  7957  0.90

> <Gold.PLP.Chemscore.Internal.Correction>
0.2484

> <Gold.Rescore>
     Score         DG    S(hbond)    S(metal)    S(lipo)     H(rot)  DE(clash)    DE(int)     intcor
     11.06     -12.88       1.86        0.00      75.83       3.00       0.12       1.69       ----

> <Gold.Chemscore.Fitness>
11.0586

> <Gold.Chemscore.DG>
-12.8774

> <Gold.Chemscore.ZeroCoef>
-5.4800

> <Gold.Chemscore.Hbond>
1.8571

> <Gold.Chemscore.Metal>
0.0000

> <Gold.Chemscore.Lipo>
75.8285

> <Gold.Chemscore.Internal_Hbond>
0.0000

> <Gold.Chemscore.DEClash>
0.1242

> <Gold.Chemscore.DEInternal>
1.6945

> <Gold.Chemscore.Rot>
2.9989

> <Gold.Chemscore.Internal.Correction>
   9.000000E+99

> <Gold.Chemscore.Hbonds>
donor molecule, donor type, donor heavy atom, donor atom, acceptor molecule, acceptor atom, score
      L1  H    23    47       P1  8028  0.91
      P1  H  8011  8017       L1    23  0.14

> <Gold.Chemscore.Hbond.Weighted>
-6.2027

> <Gold.Chemscore.Metal.Weighted>
-0.0000

> <Gold.Chemscore.Lipo.Weighted>
-8.8719

> <Gold.Chemscore.Internal_Hbond.Weighted>
0.0000

> <Gold.Chemscore.DEClash.Weighted>
0.1242

> <Gold.Chemscore.DEInternal.Weighted>
1.6945

> <Gold.Chemscore.Rot.Weighted>
7.6772

> <Gold.Chemscore.Internal.Correction.Weighted>
   9.000000E+99

> <Gold.Protein.RotatedTorsions>
[ 6907 6896 6895 6894 ] final  125.64 input  -60.11 | X-H torsion
[ 7974 7965 7964 7962 ] final   67.19 input  175.53 | X-H torsion
[ 8008 7997 7996 7995 ] final  131.43 input   59.86 | X-H torsion
[ 10167 10162 10161 10158 ] final  156.70 input  -65.29 | X-H torsion
[ 10718 10713 10712 10709 ] final  108.15 input   66.30 | X-H torsion
[ 10763 10752 10751 10750 ] final  -66.09 input  -60.55 | X-H torsion
[ 11005 11000 10999 10996 ] final  121.63 input  -57.11 | X-H torsion

> <Gold.Protein.ActiveResidues>
 VAL166  LYS551  ARG553  GLY616  TRP617  ASP618  TYR619  PRO620  LYS621  CYS622 
 ASP623  PHE694  ASN695  SER759  ASP760  ASP761  ALA762  ILE779  LEU786  VAL792 
 PHE793  MET794  SER795  GLU796  ALA797  LYS798  CYS799  TRP800  GLU811  SER814 

> <Gold.Protein.RotatedAtoms>
  152.3974  133.6767  159.6287 H   0  0  0  0  0  0  0  0  0  0  0  0  # atno 6907 bound_to 6896
  150.7871  133.8850  159.3305 H   0  0  0  0  0  0  0  0  0  0  0  0  # atno 6908 bound_to 6896
  151.6624  135.0989  160.0233 H   0  0  0  0  0  0  0  0  0  0  0  0  # atno 6909 bound_to 6896
  145.8177  139.3067  143.1062 H   0  0  0  0  0  0  0  0  0  0  0  0  # atno 7974 bound_to 7965
  156.2970  140.2571  156.2925 H   0  0  0  0  0  0  0  0  0  0  0  0  # atno 8008 bound_to 7997
  154.9496  140.0394  157.2156 H   0  0  0  0  0  0  0  0  0  0  0  0  # atno 8009 bound_to 7997
  154.8049  140.2834  155.5899 H   0  0  0  0  0  0  0  0  0  0  0  0  # atno 8010 bound_to 7997
  139.4821  144.4985  151.8203 H   0  0  0  0  0  0  0  0  0  0  0  0  # atno 10167 bound_to 10162
  157.6598  131.0887  150.6262 H   0  0  0  0  0  0  0  0  0  0  0  0  # atno 10718 bound_to 10713
  154.3547  135.6129  153.5660 H   0  0  0  0  0  0  0  0  0  0  0  0  # atno 10763 bound_to 10752
  152.9796  135.5801  154.4702 H   0  0  0  0  0  0  0  0  0  0  0  0  # atno 10764 bound_to 10752
  154.4429  135.2850  155.1812 H   0  0  0  0  0  0  0  0  0  0  0  0  # atno 10765 bound_to 10752
  139.9234  134.9639  156.7988 H   0  0  0  0  0  0  0  0  0  0  0  0  # atno 11005 bound_to 11000
  145.9709  140.8761  143.0163 LP  0  0  0  0  0  0  0  0  0  0  0  0  # atno 17320 bound_to 7965
  144.6751  140.1945  143.7393 LP  0  0  0  0  0  0  0  0  0  0  0  0  # atno 17321 bound_to 7965
  140.4476  144.1900  150.5895 LP  0  0  0  0  0  0  0  0  0  0  0  0  # atno 17342 bound_to 10162
  140.4618  143.2446  151.9209 LP  0  0  0  0  0  0  0  0  0  0  0  0  # atno 17343 bound_to 10162
  156.6566  130.4500  149.5701 LP  0  0  0  0  0  0  0  0  0  0  0  0  # atno 17370 bound_to 10713
  156.2098  130.6672  151.1257 LP  0  0  0  0  0  0  0  0  0  0  0  0  # atno 17371 bound_to 10713
  140.6407  133.9821  155.7706 LP  0  0  0  0  0  0  0  0  0  0  0  0  # atno 17394 bound_to 11000
  141.0773  134.0115  157.3438 LP  0  0  0  0  0  0  0  0  0  0  0  0  # atno 17395 bound_to 11000

$$$$
