AV-unprocessed.smi:2331|AV-procd|sdf|9317|dock5
  -GOLD-   2272012533D 1   1.00000     0.00000
 Structure written by MMmdl.
 50 51  0  0  0  0  0  0  0  0  2 V2000
  143.6507  136.5006  152.0927 C   0  0  0  0  0  0  0  0  0  0  0  0
  145.0638  135.9466  151.8143 C   0  0  0  0  0  0  0  0  0  0  0  0
  145.6666  136.7903  150.6647 C   0  0  0  0  0  0  0  0  0  0  0  0
  145.9430  136.1493  153.0758 C   0  0  0  0  0  0  0  0  0  0  0  0
  146.3564  137.5410  153.2309 N   0  0  0  0  0  0  0  0  0  0  0  0
  146.9229  138.0757  154.3242 C   0  0  0  0  0  0  0  0  0  0  0  0
  147.1905  137.4124  155.3262 O   0  0  0  0  0  0  0  0  0  0  0  0
  147.2366  139.3866  154.1873 N   0  0  0  0  0  0  0  0  0  0  0  0
  146.4741  140.3170  153.3419 C   0  0  0  0  0  0  0  0  0  0  0  0
  146.8901  141.7290  153.7482 C   0  0  0  0  0  0  0  0  0  0  0  0
  147.5061  141.5590  155.1293 C   0  0  0  0  0  0  0  0  0  0  0  0
  148.0872  140.1332  155.1317 C   0  0  2  0  0  0  0  0  0  0  0  0
  149.6230  140.0477  154.8240 C   0  0  0  0  0  0  0  0  0  0  0  0
  150.4263  140.8526  155.8651 C   0  0  0  0  0  0  0  0  0  0  0  0
  150.1889  138.6149  154.7634 C   0  0  0  0  0  0  0  0  0  0  0  0
  149.8983  140.6409  153.5690 O   0  0  0  0  0  0  0  0  0  0  0  0
  144.9697  134.4477  151.4636 C   0  0  0  0  0  0  0  0  0  0  0  0
  146.1087  133.6627  151.1456 C   0  0  0  0  0  0  0  0  0  0  0  0
  145.9553  132.2926  150.8517 C   0  0  0  0  0  0  0  0  0  0  0  0
  144.7286  131.7312  150.8734 N   0  3  0  0  0  0  0  0  0  0  0  0
  143.6137  132.4308  151.1686 C   0  0  0  0  0  0  0  0  0  0  0  0
  143.7070  133.8040  151.4708 C   0  0  0  0  0  0  0  0  0  0  0  0
  143.6805  137.5667  152.3210 H   0  0  0  0  0  0  0  0  0  0  0  0
  143.1745  136.0071  152.9400 H   0  0  0  0  0  0  0  0  0  0  0  0
  142.9980  136.3700  151.2287 H   0  0  0  0  0  0  0  0  0  0  0  0
  145.7152  137.8458  150.9352 H   0  0  0  0  0  0  0  0  0  0  0  0
  145.0644  136.7239  149.7576 H   0  0  0  0  0  0  0  0  0  0  0  0
  146.6828  136.4813  150.4166 H   0  0  0  0  0  0  0  0  0  0  0  0
  145.4065  135.8051  153.9621 H   0  0  0  0  0  0  0  0  0  0  0  0
  146.8472  135.5430  153.0162 H   0  0  0  0  0  0  0  0  0  0  0  0
  146.1972  138.1526  152.4438 H   0  0  0  0  0  0  0  0  0  0  0  0
  146.6664  140.1409  152.2825 H   0  0  0  0  0  0  0  0  0  0  0  0
  145.4050  140.1850  153.5180 H   0  0  0  0  0  0  0  0  0  0  0  0
  147.6377  142.1084  153.0511 H   0  0  0  0  0  0  0  0  0  0  0  0
  146.0551  142.4302  153.7458 H   0  0  0  0  0  0  0  0  0  0  0  0
  148.2291  142.3410  155.3582 H   0  0  0  0  0  0  0  0  0  0  0  0
  146.7166  141.6243  155.8793 H   0  0  0  0  0  0  0  0  0  0  0  0
  147.9341  139.7235  156.1320 H   0  0  0  0  0  0  0  0  0  0  0  0
  150.2812  140.4496  156.8679 H   0  0  0  0  0  0  0  0  0  0  0  0
  150.1369  141.9027  155.8906 H   0  0  0  0  0  0  0  0  0  0  0  0
  151.4962  140.8213  155.6544 H   0  0  0  0  0  0  0  0  0  0  0  0
  150.0210  138.0843  155.7007 H   0  0  0  0  0  0  0  0  0  0  0  0
  151.2650  138.6214  154.5859 H   0  0  0  0  0  0  0  0  0  0  0  0
  149.7413  138.0308  153.9593 H   0  0  0  0  0  0  0  0  0  0  0  0
  149.4831  140.1239  152.8955 H   0  0  0  0  0  0  0  0  0  0  0  0
  147.1036  134.0797  151.1235 H   0  0  0  0  0  0  0  0  0  0  0  0
  146.7739  131.6329  150.6030 H   0  0  0  0  0  0  0  0  0  0  0  0
  142.6870  131.8753  151.1563 H   0  0  0  0  0  0  0  0  0  0  0  0
  142.8089  134.3532  151.7115 H   0  0  0  0  0  0  0  0  0  0  0  0
  144.6410  130.7375  150.6586 H   0  0  0  0  0  0  0  0  0  0  0  0
  1  2  1  0  0  0  0
  1 23  1  0  0  0  0
  1 24  1  0  0  0  0
  1 25  1  0  0  0  0
  2  3  1  0  0  0  0
  2  4  1  0  0  0  0
  2 17  1  0  0  0  0
  3 26  1  0  0  0  0
  3 27  1  0  0  0  0
  3 28  1  0  0  0  0
  4  5  1  0  0  0  0
  4 29  1  0  0  0  0
  4 30  1  0  0  0  0
  5  6  1  0  0  0  0
  5 31  1  0  0  0  0
  6  7  2  0  0  0  0
  6  8  1  0  0  0  0
  8 12  1  0  0  0  0
  8  9  1  0  0  0  0
  9 10  1  0  0  0  0
  9 32  1  0  0  0  0
  9 33  1  0  0  0  0
 10 11  1  0  0  0  0
 10 34  1  0  0  0  0
 10 35  1  0  0  0  0
 11 12  1  0  0  0  0
 11 36  1  0  0  0  0
 11 37  1  0  0  0  0
 12 13  1  0  0  0  0
 12 38  1  0  0  0  0
 13 14  1  0  0  0  0
 13 15  1  0  0  0  0
 13 16  1  0  0  0  0
 14 39  1  0  0  0  0
 14 40  1  0  0  0  0
 14 41  1  0  0  0  0
 15 42  1  0  0  0  0
 15 43  1  0  0  0  0
 15 44  1  0  0  0  0
 16 45  1  0  0  0  0
 17 22  1  0  0  0  0
 17 18  2  0  0  0  0
 18 19  1  0  0  0  0
 18 46  1  0  0  0  0
 19 20  2  0  0  0  0
 19 47  1  0  0  0  0
 20 21  1  0  0  0  0
 20 50  1  0  0  0  0
 21 22  2  0  0  0  0
 21 48  1  0  0  0  0
 22 49  1  0  0  0  0
M  CHG  1  20   1
M  END
> <s_m_source_file>
AV-unprocessed.smi

> <i_m_source_file_index>
2331

> <i_lp_mmshare_version>
43012

> <i_f3d_flags>
0

> <s_epik_input>
W2NIXTFbY0hdbltjSF1bY0hdYzFDKFtDSDNdKShbQ0gzXSlbQ0gyXVtOSF1DKD1PKU4yW0NIMl1bQ0gyXVtDSDJdW0NASF0yQyhbQ0gzXSkoW0NIM10pW09IXQ==

> <s_epik_cmdline>
J2VwaWtfcHl0aG9uJywgJy1waCcsICc3LjAnLCAnLXRuJywgJzgnLCAnLW1hJywgJzIwMCcsICctbWV0YWxfYmluZGluZycsICctaW1hZScsICc8aW5maWxlLm1hZT4nLCAnLW9tYWUnLCAnPG91dGZpbGUubWFlPic=

> <r_epik_Ionization_Penalty>
1.40501

> <r_epik_Ionization_Penalty_Charging>
1.40494

> <r_epik_Ionization_Penalty_Neutral>
7.00889e-05

> <r_epik_State_Penalty>
1.48741

> <r_epik_Charging_Adjusted_Penalty>
2.89235

> <i_epik_Tot_Q>
1

> <i_epik_Tot_abs_Q>
1

> <r_epik_Metal_State_Penalty>
1.54092

> <b_epik_Metal_Only>
0

> <s_lp_Force_Field>
OPLS_2005

> <r_lp_Energy>
57.0606

> <b_lp_Chiralities_Consistent>
1

> <s_lp_Variant>
AV-unprocessed.smi:2331-4

> <Gold.Version>
5.8.1

> <Gold.Id.Protein>
6NUR|6NUR_protein|mol2

> <Gold.PLP.Fitness>
39.0301

> <Gold.PLP.PLP>
-34.7123

> <Gold.PLP.part.hbond>
-2.7768

> <Gold.PLP.part.metal>
0.0000

> <Gold.PLP.part.buried>
3.0348

> <Gold.PLP.part.nonpolar>
-35.1668

> <Gold.PLP.part.repulsive>
0.1368

> <Gold.PLP.ligand.clash>
0.0000

> <Gold.PLP.ligand.torsion>
0.4803

> <Gold.PLP.Chemscore.Hbond>
1.6720

> <Gold.PLP.Chemscore.CHOScore>
0.0000

> <Gold.PLP.Chemscore.Metal>
0.0000

> <Gold.Chemscore.Hbonds>
donor molecule, donor type, donor heavy atom, donor atom, acceptor molecule, acceptor atom, score
      L1  H    16    45       P1  7957  0.69
      P1  H  7989  7998       L1    16  0.46
      P1  H  8011  8017       L1    16  0.38

> <Gold.PLP.Chemscore.Internal.Correction>
0.2624

> <Gold.Rescore>
     Score         DG    S(hbond)    S(metal)    S(lipo)     H(rot)  DE(clash)    DE(int)     intcor
     15.29     -16.11       1.51        0.00      92.04       2.02       0.29       0.53       ----

> <Gold.Chemscore.Fitness>
15.2868

> <Gold.Chemscore.DG>
-16.1079

> <Gold.Chemscore.ZeroCoef>
-5.4800

> <Gold.Chemscore.Hbond>
1.5055

> <Gold.Chemscore.Metal>
0.0000

> <Gold.Chemscore.Lipo>
92.0396

> <Gold.Chemscore.Internal_Hbond>
0.0000

> <Gold.Chemscore.DEClash>
0.2923

> <Gold.Chemscore.DEInternal>
0.5288

> <Gold.Chemscore.Rot>
2.0192

> <Gold.Chemscore.Internal.Correction>
   9.000000E+99

> <Gold.Chemscore.Hbonds>
donor molecule, donor type, donor heavy atom, donor atom, acceptor molecule, acceptor atom, score
      L1  H    16    45       P1  7957  0.68
      P1  H  7989  7998       L1    16  0.29
      P1  H  8011  8017       L1    16  0.02

> <Gold.Chemscore.Hbond.Weighted>
-5.0284

> <Gold.Chemscore.Metal.Weighted>
-0.0000

> <Gold.Chemscore.Lipo.Weighted>
-10.7686

> <Gold.Chemscore.Internal_Hbond.Weighted>
0.0000

> <Gold.Chemscore.DEClash.Weighted>
0.2923

> <Gold.Chemscore.DEInternal.Weighted>
0.5288

> <Gold.Chemscore.Rot.Weighted>
5.1691

> <Gold.Chemscore.Internal.Correction.Weighted>
   9.000000E+99

> <Gold.Protein.RotatedTorsions>
[ 6907 6896 6895 6894 ] final -154.36 input  -60.11 | X-H torsion
[ 7974 7965 7964 7962 ] final   15.92 input  175.53 | X-H torsion
[ 8008 7997 7996 7995 ] final   57.84 input   59.86 | X-H torsion
[ 10167 10162 10161 10158 ] final -102.18 input  -65.29 | X-H torsion
[ 10718 10713 10712 10709 ] final -159.84 input   66.30 | X-H torsion
[ 10763 10752 10751 10750 ] final  155.07 input  -60.55 | X-H torsion
[ 11005 11000 10999 10996 ] final   22.06 input  -57.11 | X-H torsion

> <Gold.Protein.ActiveResidues>
 VAL166  LYS551  ARG553  GLY616  TRP617  ASP618  TYR619  PRO620  LYS621  CYS622 
 ASP623  PHE694  ASN695  SER759  ASP760  ASP761  ALA762  ILE779  LEU786  VAL792 
 PHE793  MET794  SER795  GLU796  ALA797  LYS798  CYS799  TRP800  GLU811  SER814 

> <Gold.Protein.RotatedAtoms>
  151.2564  133.4324  159.2613 H   0  0  0  0  0  0  0  0  0  0  0  0  # atno 6907 bound_to 6896
  151.0570  134.9712  159.8251 H   0  0  0  0  0  0  0  0  0  0  0  0  # atno 6908 bound_to 6896
  152.5392  134.2516  159.8953 H   0  0  0  0  0  0  0  0  0  0  0  0  # atno 6909 bound_to 6896
  146.2264  139.8823  142.8568 H   0  0  0  0  0  0  0  0  0  0  0  0  # atno 7974 bound_to 7965
  155.5403  140.3484  155.4445 H   0  0  0  0  0  0  0  0  0  0  0  0  # atno 8008 bound_to 7997
  156.0656  140.1350  156.9916 H   0  0  0  0  0  0  0  0  0  0  0  0  # atno 8009 bound_to 7997
  154.4501  140.0976  156.6566 H   0  0  0  0  0  0  0  0  0  0  0  0  # atno 8010 bound_to 7997
  140.2334  143.3590  152.0866 H   0  0  0  0  0  0  0  0  0  0  0  0  # atno 10167 bound_to 10162
  156.5737  130.8699  151.2845 H   0  0  0  0  0  0  0  0  0  0  0  0  # atno 10718 bound_to 10713
  154.1625  135.2809  155.3104 H   0  0  0  0  0  0  0  0  0  0  0  0  # atno 10763 bound_to 10752
  154.6136  135.5490  153.7503 H   0  0  0  0  0  0  0  0  0  0  0  0  # atno 10764 bound_to 10752
  153.0188  135.6421  154.1766 H   0  0  0  0  0  0  0  0  0  0  0  0  # atno 10765 bound_to 10752
  140.3847  134.1882  155.7663 H   0  0  0  0  0  0  0  0  0  0  0  0  # atno 11005 bound_to 11000
  145.2500  141.0040  143.3886 LP  0  0  0  0  0  0  0  0  0  0  0  0  # atno 17320 bound_to 7965
  144.9382  139.4219  143.6462 LP  0  0  0  0  0  0  0  0  0  0  0  0  # atno 17321 bound_to 7965
  139.5102  144.6880  151.5836 LP  0  0  0  0  0  0  0  0  0  0  0  0  # atno 17342 bound_to 10162
  140.6168  143.9334  150.6494 LP  0  0  0  0  0  0  0  0  0  0  0  0  # atno 17343 bound_to 10162
  157.7342  130.9743  150.2018 LP  0  0  0  0  0  0  0  0  0  0  0  0  # atno 17370 bound_to 10713
  156.2692  130.3720  149.8049 LP  0  0  0  0  0  0  0  0  0  0  0  0  # atno 17371 bound_to 10713
  141.1911  133.8202  157.0891 LP  0  0  0  0  0  0  0  0  0  0  0  0  # atno 17394 bound_to 11000
  140.0451  134.9834  157.1034 LP  0  0  0  0  0  0  0  0  0  0  0  0  # atno 17395 bound_to 11000

$$$$
