AV-unprocessed.smi:3244|AV-procd|sdf|12399|dock3
  -GOLD-   2272018273D 1   1.00000     0.00000
 Structure written by MMmdl.
 41 42  0  0  0  0  0  0  0  0  2 V2000
  150.5831  134.5756  155.3205 C   0  0  0  0  0  0  0  0  0  0  0  0
  149.3520  133.6843  155.5528 C   0  0  0  0  0  0  0  0  0  0  0  0
  149.1501  132.7217  154.4587 N   0  0  0  0  0  0  0  0  0  0  0  0
  148.0435  132.7035  153.6730 C   0  0  0  0  0  0  0  0  0  0  0  0
  147.7896  131.7637  152.9173 O   0  0  0  0  0  0  0  0  0  0  0  0
  147.0696  133.8953  153.7150 C   0  0  0  0  0  0  0  0  0  0  0  0
  146.8446  134.5107  152.3862 N   0  3  0  0  0  0  0  0  0  0  0  0
  145.5024  135.0991  152.1546 C   0  0  1  0  0  0  0  0  0  0  0  0
  145.5155  136.1078  150.9935 C   0  0  0  0  0  0  0  0  0  0  0  0
  144.4737  133.9800  151.8887 C   0  0  0  0  0  0  0  0  0  0  0  0
  144.8080  133.1500  150.7422 N   0  0  0  0  0  0  0  0  0  0  0  0
  144.0816  132.9600  149.5849 C   0  0  0  0  0  0  0  0  0  0  0  0
  144.7758  132.0775  148.8082 C   0  0  0  0  0  0  0  0  0  0  0  0
  145.9220  131.7662  149.5910 C   0  0  0  0  0  0  0  0  0  0  0  0
  145.9353  132.4052  150.7496 N   0  0  0  0  0  0  0  0  0  0  0  0
  150.1297  131.6667  154.4505 C   0  0  0  0  0  0  0  0  0  0  0  0
  149.6640  130.2310  154.5716 C   0  0  0  0  0  0  0  0  0  0  0  0
  150.4275  130.8646  155.7058 C   0  0  0  0  0  0  0  0  0  0  0  0
  150.6989  135.2899  156.1359 H   0  0  0  0  0  0  0  0  0  0  0  0
  150.4854  135.1461  154.3966 H   0  0  0  0  0  0  0  0  0  0  0  0
  151.5052  133.9997  155.2571 H   0  0  0  0  0  0  0  0  0  0  0  0
  149.4282  133.1813  156.5159 H   0  0  0  0  0  0  0  0  0  0  0  0
  148.4749  134.3260  155.6487 H   0  0  0  0  0  0  0  0  0  0  0  0
  146.1020  133.5401  154.0659 H   0  0  0  0  0  0  0  0  0  0  0  0
  147.4103  134.6517  154.4223 H   0  0  0  0  0  0  0  0  0  0  0  0
  147.5571  135.2076  152.2206 H   0  0  0  0  0  0  0  0  0  0  0  0
  145.2001  135.6297  153.0586 H   0  0  0  0  0  0  0  0  0  0  0  0
  144.5168  136.5055  150.8111 H   0  0  0  0  0  0  0  0  0  0  0  0
  145.8617  135.6456  150.0683 H   0  0  0  0  0  0  0  0  0  0  0  0
  146.1626  136.9586  151.2065 H   0  0  0  0  0  0  0  0  0  0  0  0
  144.3933  133.3277  152.7595 H   0  0  0  0  0  0  0  0  0  0  0  0
  143.4832  134.4087  151.7285 H   0  0  0  0  0  0  0  0  0  0  0  0
  143.1421  133.4633  149.4100 H   0  0  0  0  0  0  0  0  0  0  0  0
  144.5026  131.7047  147.8321 H   0  0  0  0  0  0  0  0  0  0  0  0
  146.7371  131.0982  149.3545 H   0  0  0  0  0  0  0  0  0  0  0  0
  150.9813  131.8345  153.7935 H   0  0  0  0  0  0  0  0  0  0  0  0
  148.6017  130.0502  154.7252 H   0  0  0  0  0  0  0  0  0  0  0  0
  150.1809  129.4845  153.9721 H   0  0  0  0  0  0  0  0  0  0  0  0
  151.4547  130.5417  155.8614 H   0  0  0  0  0  0  0  0  0  0  0  0
  149.8652  131.0753  156.6135 H   0  0  0  0  0  0  0  0  0  0  0  0
  146.9544  133.7745  151.7034 H   0  0  0  0  0  0  0  0  0  0  0  0
  1  2  1  0  0  0  0
  1 19  1  0  0  0  0
  1 20  1  0  0  0  0
  1 21  1  0  0  0  0
  2  3  1  0  0  0  0
  2 22  1  0  0  0  0
  2 23  1  0  0  0  0
  3  4  1  0  0  0  0
  3 16  1  0  0  0  0
  4  5  2  0  0  0  0
  4  6  1  0  0  0  0
  6  7  1  0  0  0  0
  6 24  1  0  0  0  0
  6 25  1  0  0  0  0
  7  8  1  0  0  0  0
  7 26  1  0  0  0  0
  7 41  1  0  0  0  0
  8  9  1  0  0  0  0
  8 10  1  0  0  0  0
  8 27  1  0  0  0  0
  9 28  1  0  0  0  0
  9 29  1  0  0  0  0
  9 30  1  0  0  0  0
 10 11  1  0  0  0  0
 10 31  1  0  0  0  0
 10 32  1  0  0  0  0
 11 15  1  0  0  0  0
 11 12  1  0  0  0  0
 12 13  2  0  0  0  0
 12 33  1  0  0  0  0
 13 14  1  0  0  0  0
 13 34  1  0  0  0  0
 14 15  2  0  0  0  0
 14 35  1  0  0  0  0
 16 18  1  0  0  0  0
 16 17  1  0  0  0  0
 16 36  1  0  0  0  0
 17 18  1  0  0  0  0
 17 37  1  0  0  0  0
 17 38  1  0  0  0  0
 18 39  1  0  0  0  0
 18 40  1  0  0  0  0
M  CHG  1   7   1
M  END
> <s_m_source_file>
AV-unprocessed.smi

> <i_m_source_file_index>
3244

> <i_lp_mmshare_version>
43012

> <i_f3d_flags>
0

> <s_epik_input>
W0NIMl0xW0NIMl1bQ0hdMU4oW0NIMl1bQ0gzXSlDKD1PKVtDSDJdW05IXVtDQEhdKFtDSDNdKVtDSDJdbjJbY0hdW2NIXVtjSF1uMg==

> <s_epik_cmdline>
J2VwaWtfcHl0aG9uJywgJy1waCcsICc3LjAnLCAnLXRuJywgJzgnLCAnLW1hJywgJzIwMCcsICctbWV0YWxfYmluZGluZycsICctaW1hZScsICc8aW5maWxlLm1hZT4nLCAnLW9tYWUnLCAnPG91dGZpbGUubWFlPic=

> <r_lp_tautomer_probability>
1

> <r_epik_Ionization_Penalty>
0.115625

> <r_epik_Ionization_Penalty_Charging>
0.115622

> <r_epik_Ionization_Penalty_Neutral>
3.43793e-06

> <r_epik_State_Penalty>
0.105255

> <r_epik_Charging_Adjusted_Penalty>
0.220877

> <i_epik_Tot_Q>
1

> <i_epik_Tot_abs_Q>
1

> <r_epik_Metal_State_Penalty>
0.105264

> <b_epik_Metal_Only>
0

> <s_lp_Force_Field>
OPLS_2005

> <r_lp_Energy>
36.1392

> <b_lp_Chiralities_Consistent>
1

> <s_lp_Variant>
AV-unprocessed.smi:3244-2

> <Gold.Version>
5.8.1

> <Gold.Id.Protein>
6NUR|6NUR_protein|mol2

> <Gold.PLP.Fitness>
44.3527

> <Gold.PLP.PLP>
-33.1032

> <Gold.PLP.part.hbond>
-1.0000

> <Gold.PLP.part.metal>
0.0000

> <Gold.PLP.part.buried>
-3.2283

> <Gold.PLP.part.nonpolar>
-29.4006

> <Gold.PLP.part.repulsive>
1.0576

> <Gold.PLP.ligand.clash>
0.0000

> <Gold.PLP.ligand.torsion>
0.5844

> <Gold.PLP.Chemscore.Hbond>
2.0000

> <Gold.PLP.Chemscore.CHOScore>
2.0000

> <Gold.PLP.Chemscore.Metal>
0.0000

> <Gold.Chemscore.Hbonds>
donor molecule, donor type, donor heavy atom, donor atom, acceptor molecule, acceptor atom, score
      L1  H     7    26       P1  7948  2.00
      L1  C    12    33       P1 10186  1.00
      L1  C    14    35       P1 10747  1.00

> <Gold.PLP.Chemscore.Internal.Correction>
0.4184

> <Gold.Rescore>
     Score         DG    S(hbond)    S(metal)    S(lipo)     H(rot)  DE(clash)    DE(int)     intcor
      9.93     -12.76       0.99        0.00      78.74       2.04       0.08       2.76       ----

> <Gold.Chemscore.Fitness>
9.9276

> <Gold.Chemscore.DG>
-12.7639

> <Gold.Chemscore.ZeroCoef>
-5.4800

> <Gold.Chemscore.Hbond>
0.9890

> <Gold.Chemscore.Metal>
0.0000

> <Gold.Chemscore.Lipo>
78.7448

> <Gold.Chemscore.Internal_Hbond>
0.0000

> <Gold.Chemscore.DEClash>
0.0802

> <Gold.Chemscore.DEInternal>
2.7561

> <Gold.Chemscore.Rot>
2.0440

> <Gold.Chemscore.Internal.Correction>
   9.000000E+99

> <Gold.Chemscore.Hbonds>
donor molecule, donor type, donor heavy atom, donor atom, acceptor molecule, acceptor atom, score
      L1  H     7    26       P1  7948  0.99

> <Gold.Chemscore.Hbond.Weighted>
-3.3033

> <Gold.Chemscore.Metal.Weighted>
-0.0000

> <Gold.Chemscore.Lipo.Weighted>
-9.2131

> <Gold.Chemscore.Internal_Hbond.Weighted>
0.0000

> <Gold.Chemscore.DEClash.Weighted>
0.0802

> <Gold.Chemscore.DEInternal.Weighted>
2.7561

> <Gold.Chemscore.Rot.Weighted>
5.2325

> <Gold.Chemscore.Internal.Correction.Weighted>
   9.000000E+99

> <Gold.Protein.RotatedTorsions>
[ 6907 6896 6895 6894 ] final   48.88 input  -60.11 | X-H torsion
[ 7974 7965 7964 7962 ] final  -65.92 input  175.53 | X-H torsion
[ 8008 7997 7996 7995 ] final   41.35 input   59.86 | X-H torsion
[ 10167 10162 10161 10158 ] final  -45.81 input  -65.29 | X-H torsion
[ 10718 10713 10712 10709 ] final  -10.60 input   66.30 | X-H torsion
[ 10763 10752 10751 10750 ] final   62.23 input  -60.55 | X-H torsion
[ 11005 11000 10999 10996 ] final  116.74 input  -57.11 | X-H torsion

> <Gold.Protein.ActiveResidues>
 VAL166  LYS551  ARG553  GLY616  TRP617  ASP618  TYR619  PRO620  LYS621  CYS622 
 ASP623  PHE694  ASN695  SER759  ASP760  ASP761  ALA762  ILE779  LEU786  VAL792 
 PHE793  MET794  SER795  GLU796  ALA797  LYS798  CYS799  TRP800  GLU811  SER814 

> <Gold.Protein.RotatedAtoms>
  152.2845  134.7791  160.0389 H   0  0  0  0  0  0  0  0  0  0  0  0  # atno 6907 bound_to 6896
  151.8359  133.3410  159.3636 H   0  0  0  0  0  0  0  0  0  0  0  0  # atno 6908 bound_to 6896
  150.7203  134.5367  159.5771 H   0  0  0  0  0  0  0  0  0  0  0  0  # atno 6909 bound_to 6896
  145.7483  140.8921  143.0493 H   0  0  0  0  0  0  0  0  0  0  0  0  # atno 7974 bound_to 7965
  155.2683  140.3364  155.4267 H   0  0  0  0  0  0  0  0  0  0  0  0  # atno 8008 bound_to 7997
  156.2144  140.1783  156.7664 H   0  0  0  0  0  0  0  0  0  0  0  0  # atno 8009 bound_to 7997
  154.5732  140.0666  156.8980 H   0  0  0  0  0  0  0  0  0  0  0  0  # atno 8010 bound_to 7997
  140.6843  143.2861  151.3692 H   0  0  0  0  0  0  0  0  0  0  0  0  # atno 10167 bound_to 10162
  156.6712  130.5010  149.6000 H   0  0  0  0  0  0  0  0  0  0  0  0  # atno 10718 bound_to 10713
  152.9976  135.5472  154.6159 H   0  0  0  0  0  0  0  0  0  0  0  0  # atno 10763 bound_to 10752
  154.5469  135.2824  155.1046 H   0  0  0  0  0  0  0  0  0  0  0  0  # atno 10764 bound_to 10752
  154.2301  135.6435  153.5225 H   0  0  0  0  0  0  0  0  0  0  0  0  # atno 10765 bound_to 10752
  139.9051  134.9602  156.7244 H   0  0  0  0  0  0  0  0  0  0  0  0  # atno 11005 bound_to 11000
  144.6855  139.9555  143.7479 LP  0  0  0  0  0  0  0  0  0  0  0  0  # atno 17320 bound_to 7965
  146.0382  139.3397  143.0714 LP  0  0  0  0  0  0  0  0  0  0  0  0  # atno 17321 bound_to 7965
  139.6189  144.0947  152.2372 LP  0  0  0  0  0  0  0  0  0  0  0  0  # atno 17342 bound_to 10162
  140.0385  144.6026  150.7430 LP  0  0  0  0  0  0  0  0  0  0  0  0  # atno 17343 bound_to 10162
  156.1938  130.6576  151.1091 LP  0  0  0  0  0  0  0  0  0  0  0  0  # atno 17370 bound_to 10713
  157.7076  131.0749  150.6611 LP  0  0  0  0  0  0  0  0  0  0  0  0  # atno 17371 bound_to 10713
  140.6975  133.9336  155.8003 LP  0  0  0  0  0  0  0  0  0  0  0  0  # atno 17394 bound_to 11000
  141.0396  134.0640  157.3917 LP  0  0  0  0  0  0  0  0  0  0  0  0  # atno 17395 bound_to 11000

$$$$
