AV-unprocessed.smi:350|AV-procd|sdf|2399|dock9
  -GOLD-   2262022333D 1   1.00000     0.00000
 Structure written by MMmdl.
 35 36  0  0  0  0  0  0  0  0  1 V2000
  151.6592  144.3137  160.7370 C   0  0  0  0  0  0  0  0  0  0  0  0
  151.9656  143.0909  159.9152 C   0  0  0  0  0  0  0  0  0  0  0  0
  151.3311  142.9695  158.7958 N   0  0  0  0  0  0  0  0  0  0  0  0
  151.5331  141.8832  157.9681 N   0  0  0  0  0  0  0  0  0  0  0  0
  150.7230  141.9094  156.7438 C   0  0  0  0  0  0  0  0  0  0  0  0
  149.2585  141.4898  156.9991 C   0  0  1  0  0  0  0  0  0  0  0  0
  148.5258  142.6265  157.4130 O   0  0  0  0  0  0  0  0  0  0  0  0
  148.6462  140.8610  155.7566 C   0  0  0  0  0  0  0  0  0  0  0  0
  148.3498  141.6496  154.6226 C   0  0  0  0  0  0  0  0  0  0  0  0
  147.7903  141.0590  153.4730 C   0  0  0  0  0  0  0  0  0  0  0  0
  147.5248  139.6761  153.4492 C   0  0  0  0  0  0  0  0  0  0  0  0
  146.8396  138.9519  152.0411 Cl  0  0  0  0  0  0  0  0  0  0  0  0
  147.8214  138.8845  154.5757 C   0  0  0  0  0  0  0  0  0  0  0  0
  148.3818  139.4749  155.7251 C   0  0  0  0  0  0  0  0  0  0  0  0
  152.3933  140.8575  158.2288 C   0  0  0  0  0  0  0  0  0  0  0  0
  152.5385  139.9036  157.4627 O   0  0  0  0  0  0  0  0  0  0  0  0
  153.1123  141.0026  159.4967 C   0  0  0  0  0  0  0  0  0  0  0  0
  154.0246  139.9498  159.8084 C   0  0  0  0  0  0  0  0  0  0  0  0
  154.7635  139.1013  160.0809 N   0  0  0  0  0  0  0  0  0  0  0  0
  152.9219  142.0650  160.3188 C   0  0  0  0  0  0  0  0  0  0  0  0
  153.6426  142.2630  161.6453 C   0  0  0  0  0  0  0  0  0  0  0  0
  151.2617  144.0340  161.7126 H   0  0  0  0  0  0  0  0  0  0  0  0
  150.9202  144.9542  160.2533 H   0  0  0  0  0  0  0  0  0  0  0  0
  152.5581  144.9099  160.8947 H   0  0  0  0  0  0  0  0  0  0  0  0
  150.7616  142.8909  156.2667 H   0  0  0  0  0  0  0  0  0  0  0  0
  151.1755  141.2281  156.0206 H   0  0  0  0  0  0  0  0  0  0  0  0
  149.2129  140.7595  157.8079 H   0  0  0  0  0  0  0  0  0  0  0  0
  148.8146  143.3693  156.9052 H   0  0  0  0  0  0  0  0  0  0  0  0
  148.5529  142.7106  154.6301 H   0  0  0  0  0  0  0  0  0  0  0  0
  147.5661  141.6685  152.6098 H   0  0  0  0  0  0  0  0  0  0  0  0
  147.6204  137.8233  154.5593 H   0  0  0  0  0  0  0  0  0  0  0  0
  148.6088  138.8577  156.5821 H   0  0  0  0  0  0  0  0  0  0  0  0
  154.3152  141.4378  161.8770 H   0  0  0  0  0  0  0  0  0  0  0  0
  152.9264  142.3399  162.4639 H   0  0  0  0  0  0  0  0  0  0  0  0
  154.2389  143.1756  161.6226 H   0  0  0  0  0  0  0  0  0  0  0  0
  1  2  1  0  0  0  0
  1 22  1  0  0  0  0
  1 23  1  0  0  0  0
  1 24  1  0  0  0  0
  2 20  1  0  0  0  0
  2  3  2  0  0  0  0
  3  4  1  0  0  0  0
  4  5  1  0  0  0  0
  4 15  1  0  0  0  0
  5  6  1  0  0  0  0
  5 25  1  0  0  0  0
  5 26  1  0  0  0  0
  6  7  1  0  0  0  0
  6  8  1  0  0  0  0
  6 27  1  0  0  0  0
  7 28  1  0  0  0  0
  8 14  1  0  0  0  0
  8  9  2  0  0  0  0
  9 10  1  0  0  0  0
  9 29  1  0  0  0  0
 10 11  2  0  0  0  0
 10 30  1  0  0  0  0
 11 12  1  0  0  0  0
 11 13  1  0  0  0  0
 13 14  2  0  0  0  0
 13 31  1  0  0  0  0
 14 32  1  0  0  0  0
 15 16  2  0  0  0  0
 15 17  1  0  0  0  0
 17 18  1  0  0  0  0
 17 20  2  0  0  0  0
 18 19  3  0  0  0  0
 20 21  1  0  0  0  0
 21 33  1  0  0  0  0
 21 34  1  0  0  0  0
 21 35  1  0  0  0  0
M  END
> <s_m_source_file>
AV-unprocessed.smi

> <i_m_source_file_index>
350

> <i_lp_mmshare_version>
43012

> <i_f3d_flags>
0

> <s_epik_input>
TiNDYyhjMVtDSDNdKWMoPU8pbihuYzFbQ0gzXSlbQ0gyXVtDQEhdKFtPSF0pYzJbY0hdW2NIXWMoQ2wpW2NIXVtjSF0y

> <s_epik_cmdline>
J2VwaWtfcHl0aG9uJywgJy1waCcsICc3LjAnLCAnLXRuJywgJzgnLCAnLW1hJywgJzIwMCcsICctbWV0YWxfYmluZGluZycsICctaW1hZScsICc8aW5maWxlLm1hZT4nLCAnLW9tYWUnLCAnPG91dGZpbGUubWFlPic=

> <r_lp_tautomer_probability>
1

> <r_epik_Ionization_Penalty>
1.17315e-07

> <r_epik_Ionization_Penalty_Charging>
1.40848e-10

> <r_epik_Ionization_Penalty_Neutral>
1.17174e-07

> <r_epik_State_Penalty>
-0

> <r_epik_Charging_Adjusted_Penalty>
1.40848e-10

> <i_epik_Tot_Q>
0

> <i_epik_Tot_abs_Q>
0

> <r_epik_Metal_State_Penalty>
-0

> <b_epik_Metal_Only>
0

> <s_lp_Force_Field>
OPLS_2005

> <r_lp_Energy>
28.138

> <b_lp_Chiralities_Consistent>
1

> <s_lp_Variant>
AV-unprocessed.smi:350-2

> <Gold.Version>
5.8.1

> <Gold.Id.Protein>
6NUR|6NUR_protein|mol2

> <Gold.PLP.Fitness>
45.4132

> <Gold.PLP.PLP>
-40.9220

> <Gold.PLP.part.hbond>
-2.0000

> <Gold.PLP.part.metal>
0.0000

> <Gold.PLP.part.buried>
-2.2498

> <Gold.PLP.part.nonpolar>
-34.5381

> <Gold.PLP.part.repulsive>
0.0430

> <Gold.PLP.ligand.clash>
0.0000

> <Gold.PLP.ligand.torsion>
0.7569

> <Gold.PLP.Chemscore.Hbond>
2.0000

> <Gold.PLP.Chemscore.CHOScore>
0.0000

> <Gold.PLP.Chemscore.Metal>
0.0000

> <Gold.Chemscore.Hbonds>
donor molecule, donor type, donor heavy atom, donor atom, acceptor molecule, acceptor atom, score
      L1  H     7    28       P1  8028  1.00
      P1  H  7997  8009       L1    16  0.99

> <Gold.PLP.Chemscore.Internal.Correction>
0.0052

> <Gold.Rescore>
     Score         DG    S(hbond)    S(metal)    S(lipo)     H(rot)  DE(clash)    DE(int)     intcor
     16.74     -17.60       1.33        0.00     107.34       1.90       0.12       0.73       ----

> <Gold.Chemscore.Fitness>
16.7415

> <Gold.Chemscore.DG>
-17.5987

> <Gold.Chemscore.ZeroCoef>
-5.4800

> <Gold.Chemscore.Hbond>
1.3280

> <Gold.Chemscore.Metal>
0.0000

> <Gold.Chemscore.Lipo>
107.3436

> <Gold.Chemscore.Internal_Hbond>
0.0000

> <Gold.Chemscore.DEClash>
0.1249

> <Gold.Chemscore.DEInternal>
0.7323

> <Gold.Chemscore.Rot>
1.9047

> <Gold.Chemscore.Internal.Correction>
   9.000000E+99

> <Gold.Chemscore.Hbonds>
donor molecule, donor type, donor heavy atom, donor atom, acceptor molecule, acceptor atom, score
      L1  H     7    28       P1  8028  0.60
      P1  H  7997  8009       L1    16  0.55

> <Gold.Chemscore.Hbond.Weighted>
-4.4355

> <Gold.Chemscore.Metal.Weighted>
-0.0000

> <Gold.Chemscore.Lipo.Weighted>
-12.5592

> <Gold.Chemscore.Internal_Hbond.Weighted>
0.0000

> <Gold.Chemscore.DEClash.Weighted>
0.1249

> <Gold.Chemscore.DEInternal.Weighted>
0.7323

> <Gold.Chemscore.Rot.Weighted>
4.8760

> <Gold.Chemscore.Internal.Correction.Weighted>
   9.000000E+99

> <Gold.Protein.RotatedTorsions>
[ 6907 6896 6895 6894 ] final  -30.54 input  -60.11 | X-H torsion
[ 7974 7965 7964 7962 ] final   54.89 input  175.53 | X-H torsion
[ 8008 7997 7996 7995 ] final -175.09 input   59.86 | X-H torsion
[ 10167 10162 10161 10158 ] final  -48.07 input  -65.29 | X-H torsion
[ 10718 10713 10712 10709 ] final -158.82 input   66.30 | X-H torsion
[ 10763 10752 10751 10750 ] final  -40.25 input  -60.55 | X-H torsion
[ 11005 11000 10999 10996 ] final  178.42 input  -57.11 | X-H torsion

> <Gold.Protein.ActiveResidues>
 VAL166  LYS551  ARG553  GLY616  TRP617  ASP618  TYR619  PRO620  LYS621  CYS622 
 ASP623  PHE694  ASN695  SER759  ASP760  ASP761  ALA762  ILE779  LEU786  VAL792 
 PHE793  MET794  SER795  GLU796  ALA797  LYS798  CYS799  TRP800  GLU811  SER814 

> <Gold.Protein.RotatedAtoms>
  151.1042  134.9990  159.8462 H   0  0  0  0  0  0  0  0  0  0  0  0  # atno 6907 bound_to 6896
  152.5439  134.1913  159.8685 H   0  0  0  0  0  0  0  0  0  0  0  0  # atno 6908 bound_to 6896
  151.1959  133.4595  159.2629 H   0  0  0  0  0  0  0  0  0  0  0  0  # atno 6909 bound_to 6896
  145.9561  139.4016  143.0276 H   0  0  0  0  0  0  0  0  0  0  0  0  # atno 7974 bound_to 7965
  155.9782  140.1176  157.0750 H   0  0  0  0  0  0  0  0  0  0  0  0  # atno 8008 bound_to 7997
  154.4175  140.1149  156.5467 H   0  0  0  0  0  0  0  0  0  0  0  0  # atno 8009 bound_to 7997
  155.6505  140.3473  155.4749 H   0  0  0  0  0  0  0  0  0  0  0  0  # atno 8010 bound_to 7997
  140.6747  143.2756  151.4018 H   0  0  0  0  0  0  0  0  0  0  0  0  # atno 10167 bound_to 10162
  156.5594  130.8640  151.2805 H   0  0  0  0  0  0  0  0  0  0  0  0  # atno 10718 bound_to 10713
  153.9429  135.6759  153.4744 H   0  0  0  0  0  0  0  0  0  0  0  0  # atno 10763 bound_to 10752
  153.0923  135.4869  154.8709 H   0  0  0  0  0  0  0  0  0  0  0  0  # atno 10764 bound_to 10752
  154.7367  135.3151  154.8757 H   0  0  0  0  0  0  0  0  0  0  0  0  # atno 10765 bound_to 10752
  140.3949  134.6829  157.4529 H   0  0  0  0  0  0  0  0  0  0  0  0  # atno 11005 bound_to 11000
  145.8104  140.9728  143.0951 LP  0  0  0  0  0  0  0  0  0  0  0  0  # atno 17320 bound_to 7965
  144.6805  139.9914  143.7484 LP  0  0  0  0  0  0  0  0  0  0  0  0  # atno 17321 bound_to 7965
  139.6033  144.1249  152.2222 LP  0  0  0  0  0  0  0  0  0  0  0  0  # atno 17342 bound_to 10162
  140.0640  144.5833  150.7241 LP  0  0  0  0  0  0  0  0  0  0  0  0  # atno 17343 bound_to 10162
  157.7371  130.9791  150.2177 LP  0  0  0  0  0  0  0  0  0  0  0  0  # atno 17370 bound_to 10713
  156.2812  130.3733  149.7933 LP  0  0  0  0  0  0  0  0  0  0  0  0  # atno 17371 bound_to 10713
  140.0379  134.6311  155.9020 LP  0  0  0  0  0  0  0  0  0  0  0  0  # atno 17394 bound_to 11000
  141.1877  133.6560  156.5294 LP  0  0  0  0  0  0  0  0  0  0  0  0  # atno 17395 bound_to 11000

$$$$
