AV-unprocessed.smi:2483|AV-procd|sdf|9785|dock4
  -GOLD-   2272013423D 1   1.00000     0.00000
 Structure written by MMmdl.
 37 38  0  0  0  0  0  0  0  0  1 V2000
  146.1577  141.6233  156.0569 C   0  0  0  0  0  0  0  0  0  0  0  0
  147.2266  141.9517  155.1220 N   0  0  0  0  0  0  0  0  0  0  0  0
  146.8149  142.5761  153.8723 C   0  0  0  0  0  0  0  0  0  0  0  0
  148.2310  140.9772  154.9530 C   0  0  0  0  0  0  0  0  0  0  0  0
  147.9125  139.8485  154.2737 N   0  0  0  0  0  0  0  0  0  0  0  0
  148.8730  138.9396  154.1008 C   0  0  0  0  0  0  0  0  0  0  0  0
  150.1306  139.0171  154.5354 N   0  0  0  0  0  0  0  0  0  0  0  0
  150.4699  140.1312  155.2167 C   0  0  0  0  0  0  0  0  0  0  0  0
  149.5436  141.1766  155.4565 C   0  0  0  0  0  0  0  0  0  0  0  0
  149.8538  142.3412  156.2133 N   0  0  0  0  0  0  0  0  0  0  0  0
  150.8786  142.5320  157.0598 C   0  0  0  0  0  0  0  0  0  0  0  0
  151.7393  141.6950  157.3302 O   0  0  0  0  0  0  0  0  0  0  0  0
  150.8600  143.7752  157.5659 N   0  0  0  0  0  0  0  0  0  0  0  0
  151.8252  144.3613  158.5063 C   0  0  0  0  0  0  0  0  0  0  0  0
  153.1197  144.7244  157.7769 C   0  0  0  0  0  0  0  0  0  0  0  0
  151.1585  145.4062  159.4302 C   0  0  0  0  0  0  0  0  0  0  0  0
  150.8235  144.2881  160.4202 C   0  0  0  0  0  0  0  0  0  0  0  0
  151.9252  143.4602  159.7536 C   0  0  0  0  0  0  0  0  0  0  0  0
  146.5614  141.2036  156.9789 H   0  0  0  0  0  0  0  0  0  0  0  0
  145.4660  140.9021  155.6201 H   0  0  0  0  0  0  0  0  0  0  0  0
  145.5950  142.5204  156.3159 H   0  0  0  0  0  0  0  0  0  0  0  0
  147.6610  143.0046  153.3357 H   0  0  0  0  0  0  0  0  0  0  0  0
  146.1033  143.3793  154.0654 H   0  0  0  0  0  0  0  0  0  0  0  0
  146.3333  141.8449  153.2220 H   0  0  0  0  0  0  0  0  0  0  0  0
  148.6026  138.0470  153.5564 H   0  0  0  0  0  0  0  0  0  0  0  0
  151.4826  140.1571  155.5883 H   0  0  0  0  0  0  0  0  0  0  0  0
  149.2764  143.1468  156.0212 H   0  0  0  0  0  0  0  0  0  0  0  0
  150.1088  144.3816  157.2708 H   0  0  0  0  0  0  0  0  0  0  0  0
  153.8856  145.0595  158.4766 H   0  0  0  0  0  0  0  0  0  0  0  0
  152.9698  145.5305  157.0588 H   0  0  0  0  0  0  0  0  0  0  0  0
  153.5266  143.8694  157.2361 H   0  0  0  0  0  0  0  0  0  0  0  0
  151.8767  146.1179  159.8408 H   0  0  0  0  0  0  0  0  0  0  0  0
  150.2886  145.9232  159.0240 H   0  0  0  0  0  0  0  0  0  0  0  0
  151.0061  144.5345  161.4665 H   0  0  0  0  0  0  0  0  0  0  0  0
  149.8270  143.8710  160.2677 H   0  0  0  0  0  0  0  0  0  0  0  0
  151.6730  142.4108  159.5954 H   0  0  0  0  0  0  0  0  0  0  0  0
  152.8822  143.5591  160.2686 H   0  0  0  0  0  0  0  0  0  0  0  0
  1  2  1  0  0  0  0
  1 19  1  0  0  0  0
  1 20  1  0  0  0  0
  1 21  1  0  0  0  0
  2  3  1  0  0  0  0
  2  4  1  0  0  0  0
  3 22  1  0  0  0  0
  3 23  1  0  0  0  0
  3 24  1  0  0  0  0
  4  9  1  0  0  0  0
  4  5  2  0  0  0  0
  5  6  1  0  0  0  0
  6  7  2  0  0  0  0
  6 25  1  0  0  0  0
  7  8  1  0  0  0  0
  8  9  2  0  0  0  0
  8 26  1  0  0  0  0
  9 10  1  0  0  0  0
 10 11  1  0  0  0  0
 10 27  1  0  0  0  0
 11 12  2  0  0  0  0
 11 13  1  0  0  0  0
 13 14  1  0  0  0  0
 13 28  1  0  0  0  0
 14 18  1  0  0  0  0
 14 15  1  0  0  0  0
 14 16  1  0  0  0  0
 15 29  1  0  0  0  0
 15 30  1  0  0  0  0
 15 31  1  0  0  0  0
 16 17  1  0  0  0  0
 16 32  1  0  0  0  0
 16 33  1  0  0  0  0
 17 18  1  0  0  0  0
 17 34  1  0  0  0  0
 17 35  1  0  0  0  0
 18 36  1  0  0  0  0
 18 37  1  0  0  0  0
M  END
> <s_m_source_file>
AV-unprocessed.smi

> <i_m_source_file_index>
2483

> <i_lp_mmshare_version>
43012

> <i_f3d_flags>
0

> <s_epik_input>
W0NIM11OKFtDSDNdKWMxbltjSF1uW2NIXWMxW05IXUMoPU8pW05IXUMyKFtDSDNdKVtDSDJdW0NIMl1bQ0gyXTI=

> <s_epik_cmdline>
J2VwaWtfcHl0aG9uJywgJy1waCcsICc3LjAnLCAnLXRuJywgJzgnLCAnLW1hJywgJzIwMCcsICctbWV0YWxfYmluZGluZycsICctaW1hZScsICc8aW5maWxlLm1hZT4nLCAnLW9tYWUnLCAnPG91dGZpbGUubWFlPic=

> <r_lp_tautomer_probability>
1

> <r_epik_Ionization_Penalty>
0.0189547

> <r_epik_Ionization_Penalty_Charging>
0

> <r_epik_Ionization_Penalty_Neutral>
0.0189547

> <r_epik_State_Penalty>
0.0144869

> <r_epik_Charging_Adjusted_Penalty>
0.0144869

> <i_epik_Tot_Q>
0

> <i_epik_Tot_abs_Q>
0

> <r_epik_Metal_State_Penalty>
0.0140538

> <b_epik_Metal_Only>
0

> <s_lp_Force_Field>
OPLS_2005

> <r_lp_Energy>
16.2772

> <b_lp_Chiralities_Consistent>
1

> <s_lp_Variant>
AV-unprocessed.smi:2483-1

> <Gold.Version>
5.8.1

> <Gold.Id.Protein>
6NUR|6NUR_protein|mol2

> <Gold.PLP.Fitness>
42.6118

> <Gold.PLP.PLP>
-34.4892

> <Gold.PLP.part.hbond>
-2.0000

> <Gold.PLP.part.metal>
0.0000

> <Gold.PLP.part.buried>
-4.0465

> <Gold.PLP.part.nonpolar>
-28.3941

> <Gold.PLP.part.repulsive>
0.5393

> <Gold.PLP.ligand.clash>
0.0000

> <Gold.PLP.ligand.torsion>
0.5462

> <Gold.PLP.Chemscore.Hbond>
1.8640

> <Gold.PLP.Chemscore.CHOScore>
1.0000

> <Gold.PLP.Chemscore.Metal>
0.0000

> <Gold.Chemscore.Hbonds>
donor molecule, donor type, donor heavy atom, donor atom, acceptor molecule, acceptor atom, score
      L1  H    10    27       P1  8028  1.00
      L1  H    13    28       P1  8028  0.83
      L1  C     6    25       P1  7948  1.00

> <Gold.PLP.Chemscore.Internal.Correction>
0.6229

> <Gold.Rescore>
     Score         DG    S(hbond)    S(metal)    S(lipo)     H(rot)  DE(clash)    DE(int)     intcor
     13.94     -18.03       1.69        0.00      86.66       1.26       2.41       1.69       ----

> <Gold.Chemscore.Fitness>
13.9409

> <Gold.Chemscore.DG>
-18.0337

> <Gold.Chemscore.ZeroCoef>
-5.4800

> <Gold.Chemscore.Hbond>
1.6858

> <Gold.Chemscore.Metal>
0.0000

> <Gold.Chemscore.Lipo>
86.6615

> <Gold.Chemscore.Internal_Hbond>
0.0000

> <Gold.Chemscore.DEClash>
2.4070

> <Gold.Chemscore.DEInternal>
1.6858

> <Gold.Chemscore.Rot>
1.2564

> <Gold.Chemscore.Internal.Correction>
   9.000000E+99

> <Gold.Chemscore.Hbonds>
donor molecule, donor type, donor heavy atom, donor atom, acceptor molecule, acceptor atom, score
      L1  H    10    27       P1  8028  0.99
      L1  H    13    28       P1  8028  0.43

> <Gold.Chemscore.Hbond.Weighted>
-5.6307

> <Gold.Chemscore.Metal.Weighted>
-0.0000

> <Gold.Chemscore.Lipo.Weighted>
-10.1394

> <Gold.Chemscore.Internal_Hbond.Weighted>
0.0000

> <Gold.Chemscore.DEClash.Weighted>
2.4070

> <Gold.Chemscore.DEInternal.Weighted>
1.6858

> <Gold.Chemscore.Rot.Weighted>
3.2165

> <Gold.Chemscore.Internal.Correction.Weighted>
   9.000000E+99

> <Gold.Protein.RotatedTorsions>
[ 6907 6896 6895 6894 ] final  116.61 input  -60.11 | X-H torsion
[ 7974 7965 7964 7962 ] final  157.38 input  175.53 | X-H torsion
[ 8008 7997 7996 7995 ] final  171.83 input   59.86 | X-H torsion
[ 10167 10162 10161 10158 ] final  -24.82 input  -65.29 | X-H torsion
[ 10718 10713 10712 10709 ] final  168.00 input   66.30 | X-H torsion
[ 10763 10752 10751 10750 ] final   73.33 input  -60.55 | X-H torsion
[ 11005 11000 10999 10996 ] final  165.50 input  -57.11 | X-H torsion

> <Gold.Protein.ActiveResidues>
 VAL166  LYS551  ARG553  GLY616  TRP617  ASP618  TYR619  PRO620  LYS621  CYS622 
 ASP623  PHE694  ASN695  SER759  ASP760  ASP761  ALA762  ILE779  LEU786  VAL792 
 PHE793  MET794  SER795  GLU796  ALA797  LYS798  CYS799  TRP800  GLU811  SER814 

> <Gold.Protein.RotatedAtoms>
  152.4666  133.7937  159.6915 H   0  0  0  0  0  0  0  0  0  0  0  0  # atno 6907 bound_to 6896
  150.8634  133.7600  159.2991 H   0  0  0  0  0  0  0  0  0  0  0  0  # atno 6908 bound_to 6896
  151.5158  135.1069  159.9917 H   0  0  0  0  0  0  0  0  0  0  0  0  # atno 6909 bound_to 6896
  144.7907  139.7332  143.6222 H   0  0  0  0  0  0  0  0  0  0  0  0  # atno 7974 bound_to 7965
  156.1233  140.1501  156.9173 H   0  0  0  0  0  0  0  0  0  0  0  0  # atno 8008 bound_to 7997
  154.4852  140.0867  156.7511 H   0  0  0  0  0  0  0  0  0  0  0  0  # atno 8009 bound_to 7997
  155.4389  140.3430  155.4290 H   0  0  0  0  0  0  0  0  0  0  0  0  # atno 8010 bound_to 7997
  140.7287  143.4319  151.0788 H   0  0  0  0  0  0  0  0  0  0  0  0  # atno 10167 bound_to 10162
  157.0435  131.0293  151.2705 H   0  0  0  0  0  0  0  0  0  0  0  0  # atno 10718 bound_to 10713
  153.0515  135.5067  154.7878 H   0  0  0  0  0  0  0  0  0  0  0  0  # atno 10763 bound_to 10752
  154.6736  135.2957  154.9710 H   0  0  0  0  0  0  0  0  0  0  0  0  # atno 10764 bound_to 10752
  154.0520  135.6702  153.4854 H   0  0  0  0  0  0  0  0  0  0  0  0  # atno 10765 bound_to 10752
  140.2567  134.7934  157.3552 H   0  0  0  0  0  0  0  0  0  0  0  0  # atno 11005 bound_to 11000
  146.2158  139.5546  142.9651 LP  0  0  0  0  0  0  0  0  0  0  0  0  # atno 17320 bound_to 7965
  145.5802  141.0383  143.2126 LP  0  0  0  0  0  0  0  0  0  0  0  0  # atno 17321 bound_to 7965
  139.7977  143.8128  152.3159 LP  0  0  0  0  0  0  0  0  0  0  0  0  # atno 17342 bound_to 10162
  139.8134  144.7326  150.9667 LP  0  0  0  0  0  0  0  0  0  0  0  0  # atno 17343 bound_to 10162
  157.5086  130.7924  149.7681 LP  0  0  0  0  0  0  0  0  0  0  0  0  # atno 17370 bound_to 10713
  156.0030  130.3870  150.2533 LP  0  0  0  0  0  0  0  0  0  0  0  0  # atno 17371 bound_to 10713
  140.1504  134.4857  155.7965 LP  0  0  0  0  0  0  0  0  0  0  0  0  # atno 17394 bound_to 11000
  141.2195  133.6860  156.7369 LP  0  0  0  0  0  0  0  0  0  0  0  0  # atno 17395 bound_to 11000

$$$$
