AV-unprocessed.smi:2707|AV-procd|sdf|10457|dock6
  -GOLD-   2272014493D 1   1.00000     0.00000
 Structure written by MMmdl.
 44 45  0  0  0  0  0  0  0  0  1 V2000
  140.3022  139.3580  155.4639 C   0  0  0  0  0  0  0  0  0  0  0  0
  140.3573  139.7209  153.9624 C   0  0  2  0  0  0  0  0  0  0  0  0
  141.5331  139.1031  153.3379 N   0  0  0  0  0  0  0  0  0  0  0  0
  141.7770  137.7933  153.1641 C   0  0  0  0  0  0  0  0  0  0  0  0
  141.0016  136.9007  153.5064 O   0  0  0  0  0  0  0  0  0  0  0  0
  142.9698  137.5990  152.5752 N   0  0  0  0  0  0  0  0  0  0  0  0
  143.5939  136.3658  152.2508 C   0  0  0  0  0  0  0  0  0  0  0  0
  144.9877  136.4276  152.0501 C   0  0  0  0  0  0  0  0  0  0  0  0
  145.6724  135.2419  151.7356 C   0  0  0  0  0  0  0  0  0  0  0  0
  144.9167  134.0517  151.6373 C   0  0  0  0  0  0  0  0  0  0  0  0
  145.5394  132.6825  151.3095 C   0  0  0  0  0  0  0  0  0  0  0  0
  146.5051  132.2649  152.4379 C   0  0  0  0  0  0  0  0  0  0  0  0
  146.3004  132.7655  149.9699 C   0  0  0  0  0  0  0  0  0  0  0  0
  144.4773  131.5683  151.1706 C   0  0  0  0  0  0  0  0  0  0  0  0
  143.5759  134.0571  151.8359 N   0  0  0  0  0  0  0  0  0  0  0  0
  142.9307  135.1880  152.1356 N   0  0  0  0  0  0  0  0  0  0  0  0
  140.4710  141.2565  153.8025 C   0  0  0  0  0  0  0  0  0  0  0  0
  139.0990  141.9137  154.0107 C   0  0  0  0  0  0  0  0  0  0  0  0
  137.8569  140.6723  153.4948 S   0  0  0  0  0  0  0  0  0  0  0  0
  136.9962  140.3547  154.6444 O   0  0  0  0  0  0  0  0  0  0  0  0
  137.2782  141.0594  152.1993 O   0  0  0  0  0  0  0  0  0  0  0  0
  139.0558  139.3117  153.2355 C   0  0  0  0  0  0  0  0  0  0  0  0
  139.4780  139.8597  155.9710 H   0  0  0  0  0  0  0  0  0  0  0  0
  141.2219  139.6463  155.9738 H   0  0  0  0  0  0  0  0  0  0  0  0
  140.1640  138.2878  155.6179 H   0  0  0  0  0  0  0  0  0  0  0  0
  142.2425  139.7450  153.0158 H   0  0  0  0  0  0  0  0  0  0  0  0
  143.5003  138.4268  152.3485 H   0  0  0  0  0  0  0  0  0  0  0  0
  145.5251  137.3607  152.1388 H   0  0  0  0  0  0  0  0  0  0  0  0
  146.7399  135.2714  151.5821 H   0  0  0  0  0  0  0  0  0  0  0  0
  146.9486  131.2885  152.2398 H   0  0  0  0  0  0  0  0  0  0  0  0
  145.9896  132.2039  153.3970 H   0  0  0  0  0  0  0  0  0  0  0  0
  147.3265  132.9731  152.5514 H   0  0  0  0  0  0  0  0  0  0  0  0
  147.1154  133.4888  150.0103 H   0  0  0  0  0  0  0  0  0  0  0  0
  145.6372  133.0637  149.1573 H   0  0  0  0  0  0  0  0  0  0  0  0
  146.7383  131.8038  149.7004 H   0  0  0  0  0  0  0  0  0  0  0  0
  144.9404  130.6084  150.9386 H   0  0  0  0  0  0  0  0  0  0  0  0
  143.7709  131.7822  150.3674 H   0  0  0  0  0  0  0  0  0  0  0  0
  143.9104  131.4335  152.0927 H   0  0  0  0  0  0  0  0  0  0  0  0
  141.2222  141.6850  154.4671 H   0  0  0  0  0  0  0  0  0  0  0  0
  140.7959  141.4835  152.7857 H   0  0  0  0  0  0  0  0  0  0  0  0
  138.9307  142.1421  155.0631 H   0  0  0  0  0  0  0  0  0  0  0  0
  138.9771  142.8303  153.4332 H   0  0  0  0  0  0  0  0  0  0  0  0
  139.2174  139.2241  152.1606 H   0  0  0  0  0  0  0  0  0  0  0  0
  138.6335  138.3717  153.5922 H   0  0  0  0  0  0  0  0  0  0  0  0
  1  2  1  0  0  0  0
  1 23  1  0  0  0  0
  1 24  1  0  0  0  0
  1 25  1  0  0  0  0
  2 22  1  0  0  0  0
  2  3  1  0  0  0  0
  2 17  1  0  0  0  0
  3  4  1  0  0  0  0
  3 26  1  0  0  0  0
  4  5  2  0  0  0  0
  4  6  1  0  0  0  0
  6  7  1  0  0  0  0
  6 27  1  0  0  0  0
  7 16  1  0  0  0  0
  7  8  2  0  0  0  0
  8  9  1  0  0  0  0
  8 28  1  0  0  0  0
  9 10  2  0  0  0  0
  9 29  1  0  0  0  0
 10 11  1  0  0  0  0
 10 15  1  0  0  0  0
 11 12  1  0  0  0  0
 11 13  1  0  0  0  0
 11 14  1  0  0  0  0
 12 30  1  0  0  0  0
 12 31  1  0  0  0  0
 12 32  1  0  0  0  0
 13 33  1  0  0  0  0
 13 34  1  0  0  0  0
 13 35  1  0  0  0  0
 14 36  1  0  0  0  0
 14 37  1  0  0  0  0
 14 38  1  0  0  0  0
 15 16  2  0  0  0  0
 17 18  1  0  0  0  0
 17 39  1  0  0  0  0
 17 40  1  0  0  0  0
 18 19  1  0  0  0  0
 18 41  1  0  0  0  0
 18 42  1  0  0  0  0
 19 20  2  0  0  0  0
 19 21  2  0  0  0  0
 19 22  1  0  0  0  0
 22 43  1  0  0  0  0
 22 44  1  0  0  0  0
M  END
> <s_m_source_file>
AV-unprocessed.smi

> <i_m_source_file_index>
2707

> <i_lp_mmshare_version>
43012

> <i_f3d_flags>
0

> <s_epik_input>
Tz1TKD1PKShbQ0gyXTEpW0NIMl1bQ0gyXVtDQEBdMShbQ0gzXSlbTkhdQyg9TylbTkhdYzJbY0hdW2NIXWMobm4yKUMoW0NIM10pKFtDSDNdKVtDSDNd

> <s_epik_cmdline>
J2VwaWtfcHl0aG9uJywgJy1waCcsICc3LjAnLCAnLXRuJywgJzgnLCAnLW1hJywgJzIwMCcsICctbWV0YWxfYmluZGluZycsICctaW1hZScsICc8aW5maWxlLm1hZT4nLCAnLW9tYWUnLCAnPG91dGZpbGUubWFlPic=

> <r_lp_tautomer_probability>
1

> <r_epik_Ionization_Penalty>
0.00910408

> <r_epik_Ionization_Penalty_Charging>
0

> <r_epik_Ionization_Penalty_Neutral>
0.00910408

> <r_epik_State_Penalty>
-0

> <r_epik_Charging_Adjusted_Penalty>
0

> <i_epik_Tot_Q>
0

> <i_epik_Tot_abs_Q>
0

> <r_epik_Metal_State_Penalty>
-0

> <b_epik_Metal_Only>
0

> <s_lp_Force_Field>
OPLS_2005

> <r_lp_Energy>
10.6556

> <b_lp_Chiralities_Consistent>
1

> <s_lp_Variant>
AV-unprocessed.smi:2707-2

> <Gold.Version>
5.8.1

> <Gold.Id.Protein>
6NUR|6NUR_protein|mol2

> <Gold.PLP.Fitness>
35.9089

> <Gold.PLP.PLP>
-30.3901

> <Gold.PLP.part.hbond>
-2.5734

> <Gold.PLP.part.metal>
0.0000

> <Gold.PLP.part.buried>
-4.3164

> <Gold.PLP.part.nonpolar>
-24.0436

> <Gold.PLP.part.repulsive>
0.5428

> <Gold.PLP.ligand.clash>
0.0000

> <Gold.PLP.ligand.torsion>
0.1632

> <Gold.PLP.Chemscore.Hbond>
1.9440

> <Gold.PLP.Chemscore.CHOScore>
0.0000

> <Gold.PLP.Chemscore.Metal>
0.0000

> <Gold.Chemscore.Hbonds>
donor molecule, donor type, donor heavy atom, donor atom, acceptor molecule, acceptor atom, score
      L1  H     3    26       P1 10175  1.00
      L1  H     6    27       P1 10175  0.94

> <Gold.PLP.Chemscore.Internal.Correction>
0.0132

> <Gold.Rescore>
     Score         DG    S(hbond)    S(metal)    S(lipo)     H(rot)  DE(clash)    DE(int)     intcor
     14.25     -16.06       1.83        0.00      65.01       1.22       0.23       1.58       ----

> <Gold.Chemscore.Fitness>
14.2524

> <Gold.Chemscore.DG>
-16.0574

> <Gold.Chemscore.ZeroCoef>
-5.4800

> <Gold.Chemscore.Hbond>
1.8279

> <Gold.Chemscore.Metal>
0.0000

> <Gold.Chemscore.Lipo>
65.0097

> <Gold.Chemscore.Internal_Hbond>
0.0000

> <Gold.Chemscore.DEClash>
0.2294

> <Gold.Chemscore.DEInternal>
1.5756

> <Gold.Chemscore.Rot>
1.2242

> <Gold.Chemscore.Internal.Correction>
   9.000000E+99

> <Gold.Chemscore.Hbonds>
donor molecule, donor type, donor heavy atom, donor atom, acceptor molecule, acceptor atom, score
      L1  H     3    26       P1 10175  0.78
      L1  H     6    27       P1 10175  0.87

> <Gold.Chemscore.Hbond.Weighted>
-6.1052

> <Gold.Chemscore.Metal.Weighted>
-0.0000

> <Gold.Chemscore.Lipo.Weighted>
-7.6061

> <Gold.Chemscore.Internal_Hbond.Weighted>
0.0000

> <Gold.Chemscore.DEClash.Weighted>
0.2294

> <Gold.Chemscore.DEInternal.Weighted>
1.5756

> <Gold.Chemscore.Rot.Weighted>
3.1340

> <Gold.Chemscore.Internal.Correction.Weighted>
   9.000000E+99

> <Gold.Protein.RotatedTorsions>
[ 6907 6896 6895 6894 ] final  134.23 input  -60.11 | X-H torsion
[ 7974 7965 7964 7962 ] final   23.04 input  175.53 | X-H torsion
[ 8008 7997 7996 7995 ] final   21.49 input   59.86 | X-H torsion
[ 10167 10162 10161 10158 ] final   96.53 input  -65.29 | X-H torsion
[ 10718 10713 10712 10709 ] final   63.44 input   66.30 | X-H torsion
[ 10763 10752 10751 10750 ] final   -7.35 input  -60.55 | X-H torsion
[ 11005 11000 10999 10996 ] final   44.74 input  -57.11 | X-H torsion

> <Gold.Protein.ActiveResidues>
 VAL166  LYS551  ARG553  GLY616  TRP617  ASP618  TYR619  PRO620  LYS621  CYS622 
 ASP623  PHE694  ASN695  SER759  ASP760  ASP761  ALA762  ILE779  LEU786  VAL792 
 PHE793  MET794  SER795  GLU796  ALA797  LYS798  CYS799  TRP800  GLU811  SER814 

> <Gold.Protein.RotatedAtoms>
  152.3135  133.5778  159.5696 H   0  0  0  0  0  0  0  0  0  0  0  0  # atno 6907 bound_to 6896
  150.7335  134.0116  159.3680 H   0  0  0  0  0  0  0  0  0  0  0  0  # atno 6908 bound_to 6896
  151.8007  135.0710  160.0451 H   0  0  0  0  0  0  0  0  0  0  0  0  # atno 6909 bound_to 6896
  146.2002  139.7800  142.8767 H   0  0  0  0  0  0  0  0  0  0  0  0  # atno 7974 bound_to 7965
  154.9514  140.3066  155.5073 H   0  0  0  0  0  0  0  0  0  0  0  0  # atno 8008 bound_to 7997
  156.2986  140.2318  156.4530 H   0  0  0  0  0  0  0  0  0  0  0  0  # atno 8009 bound_to 7997
  154.8051  140.0432  157.1290 H   0  0  0  0  0  0  0  0  0  0  0  0  # atno 8010 bound_to 7997
  139.7886  144.6861  150.9924 H   0  0  0  0  0  0  0  0  0  0  0  0  # atno 10167 bound_to 10162
  157.5971  130.9105  149.9717 H   0  0  0  0  0  0  0  0  0  0  0  0  # atno 10718 bound_to 10713
  153.4252  135.7011  153.6267 H   0  0  0  0  0  0  0  0  0  0  0  0  # atno 10763 bound_to 10752
  153.4705  135.3716  155.2388 H   0  0  0  0  0  0  0  0  0  0  0  0  # atno 10764 bound_to 10752
  154.8723  135.4042  154.3627 H   0  0  0  0  0  0  0  0  0  0  0  0  # atno 10765 bound_to 10752
  140.1524  134.4445  155.8372 H   0  0  0  0  0  0  0  0  0  0  0  0  # atno 11005 bound_to 11000
  145.3509  141.0307  143.3339 LP  0  0  0  0  0  0  0  0  0  0  0  0  # atno 17320 bound_to 7965
  144.8667  139.5098  143.6787 LP  0  0  0  0  0  0  0  0  0  0  0  0  # atno 17321 bound_to 7965
  140.7820  143.4405  151.0558 LP  0  0  0  0  0  0  0  0  0  0  0  0  # atno 17342 bound_to 10162
  139.8083  143.7986  152.3169 LP  0  0  0  0  0  0  0  0  0  0  0  0  # atno 17343 bound_to 10162
  156.1036  130.3654  150.0173 LP  0  0  0  0  0  0  0  0  0  0  0  0  # atno 17370 bound_to 10713
  156.8284  130.9383  151.3638 LP  0  0  0  0  0  0  0  0  0  0  0  0  # atno 17371 bound_to 10713
  141.2200  133.6878  156.7446 LP  0  0  0  0  0  0  0  0  0  0  0  0  # atno 17394 bound_to 11000
  140.2588  134.8483  157.3739 LP  0  0  0  0  0  0  0  0  0  0  0  0  # atno 17395 bound_to 11000

$$$$
