AV-unprocessed.smi:2136|AV-procd|sdf|8705|dock6
  -GOLD-   2272011463D 1   1.00000     0.00000
 Structure written by MMmdl.
 43 44  0  0  0  0  0  0  0  0  2 V2000
  150.7285  136.9495  156.9502 C   0  0  0  0  0  0  0  0  0  0  0  0
  150.1921  136.9813  155.1900 S   0  0  0  0  0  0  0  0  0  0  0  0
  151.3951  136.9286  154.3462 O   0  0  0  0  0  0  0  0  0  0  0  0
  149.1511  135.9575  155.0113 O   0  0  0  0  0  0  0  0  0  0  0  0
  149.4308  138.5553  155.0394 N   0  0  0  0  0  0  0  0  0  0  0  0
  150.3833  139.6933  155.0680 C   0  0  0  0  0  0  0  0  0  0  0  0
  149.6985  141.0593  155.1938 C   0  0  0  0  0  0  0  0  0  0  0  0
  148.6820  141.2531  154.0759 C   0  0  0  0  0  0  0  0  0  0  0  0
  147.6436  140.1418  154.1858 C   0  0  0  0  0  0  0  0  0  0  0  0
  148.2708  138.7282  154.1038 C   0  0  2  0  0  0  0  0  0  0  0  0
  147.1285  137.7093  154.2297 C   0  0  0  0  0  0  0  0  0  0  0  0
  146.4354  137.6877  155.2468 O   0  0  0  0  0  0  0  0  0  0  0  0
  146.9416  136.8738  153.1947 N   0  0  0  0  0  0  0  0  0  0  0  0
  145.8922  135.8663  153.1133 C   0  0  0  0  0  0  0  0  0  0  0  0
  146.4500  134.4985  152.6870 C   0  0  0  0  0  0  0  0  0  0  0  0
  145.6615  133.8934  151.5423 C   0  0  0  0  0  0  0  0  0  0  0  0
  146.1087  132.7178  150.8995 C   0  0  0  0  0  0  0  0  0  0  0  0
  145.3535  132.1821  149.8353 C   0  0  0  0  0  0  0  0  0  0  0  0
  144.1690  132.8353  149.4370 C   0  0  0  0  0  0  0  0  0  0  0  0
  143.7737  133.9591  150.0749 N   0  3  0  0  0  0  0  0  0  0  0  0
  144.4679  134.5029  151.0985 C   0  0  0  0  0  0  0  0  0  0  0  0
  151.1894  135.9861  157.1672 H   0  0  0  0  0  0  0  0  0  0  0  0
  149.8676  137.0901  157.6026 H   0  0  0  0  0  0  0  0  0  0  0  0
  151.4559  137.7410  157.1276 H   0  0  0  0  0  0  0  0  0  0  0  0
  151.0715  139.5772  155.9047 H   0  0  0  0  0  0  0  0  0  0  0  0
  150.9874  139.6688  154.1607 H   0  0  0  0  0  0  0  0  0  0  0  0
  149.2090  141.1424  156.1653 H   0  0  0  0  0  0  0  0  0  0  0  0
  150.4465  141.8516  155.1555 H   0  0  0  0  0  0  0  0  0  0  0  0
  148.2031  142.2287  154.1625 H   0  0  0  0  0  0  0  0  0  0  0  0
  149.1730  141.2223  153.1024 H   0  0  0  0  0  0  0  0  0  0  0  0
  147.1039  140.2604  155.1271 H   0  0  0  0  0  0  0  0  0  0  0  0
  146.9023  140.2684  153.3951 H   0  0  0  0  0  0  0  0  0  0  0  0
  148.6725  138.6201  153.0951 H   0  0  0  0  0  0  0  0  0  0  0  0
  147.5522  136.9675  152.3955 H   0  0  0  0  0  0  0  0  0  0  0  0
  145.3797  135.7908  154.0741 H   0  0  0  0  0  0  0  0  0  0  0  0
  145.1495  136.2079  152.3917 H   0  0  0  0  0  0  0  0  0  0  0  0
  147.4960  134.5958  152.3926 H   0  0  0  0  0  0  0  0  0  0  0  0
  146.4316  133.8021  153.5264 H   0  0  0  0  0  0  0  0  0  0  0  0
  147.0202  132.2315  151.2158 H   0  0  0  0  0  0  0  0  0  0  0  0
  145.6792  131.2838  149.3317 H   0  0  0  0  0  0  0  0  0  0  0  0
  143.5312  132.4960  148.6338 H   0  0  0  0  0  0  0  0  0  0  0  0
  144.0517  135.4035  151.5268 H   0  0  0  0  0  0  0  0  0  0  0  0
  142.9143  134.4174  149.7701 H   0  0  0  0  0  0  0  0  0  0  0  0
  1  2  1  0  0  0  0
  1 22  1  0  0  0  0
  1 23  1  0  0  0  0
  1 24  1  0  0  0  0
  2  3  2  0  0  0  0
  2  4  2  0  0  0  0
  2  5  1  0  0  0  0
  5 10  1  0  0  0  0
  5  6  1  0  0  0  0
  6  7  1  0  0  0  0
  6 25  1  0  0  0  0
  6 26  1  0  0  0  0
  7  8  1  0  0  0  0
  7 27  1  0  0  0  0
  7 28  1  0  0  0  0
  8  9  1  0  0  0  0
  8 29  1  0  0  0  0
  8 30  1  0  0  0  0
  9 10  1  0  0  0  0
  9 31  1  0  0  0  0
  9 32  1  0  0  0  0
 10 11  1  0  0  0  0
 10 33  1  0  0  0  0
 11 12  2  0  0  0  0
 11 13  1  0  0  0  0
 13 14  1  0  0  0  0
 13 34  1  0  0  0  0
 14 15  1  0  0  0  0
 14 35  1  0  0  0  0
 14 36  1  0  0  0  0
 15 16  1  0  0  0  0
 15 37  1  0  0  0  0
 15 38  1  0  0  0  0
 16 21  1  0  0  0  0
 16 17  2  0  0  0  0
 17 18  1  0  0  0  0
 17 39  1  0  0  0  0
 18 19  2  0  0  0  0
 18 40  1  0  0  0  0
 19 20  1  0  0  0  0
 19 41  1  0  0  0  0
 20 21  2  0  0  0  0
 20 43  1  0  0  0  0
 21 42  1  0  0  0  0
M  CHG  1  20   1
M  END
> <s_m_source_file>
AV-unprocessed.smi

> <i_m_source_file_index>
2136

> <i_lp_mmshare_version>
43012

> <i_f3d_flags>
0

> <s_epik_input>
W0NIM11TKD1PKSg9TylOMVtDSDJdW0NIMl1bQ0gyXVtDSDJdW0NASF0xQyg9TylbTkhdW0NIMl1bQ0gyXWMyW2NIXVtjSF1bY0hdbltjSF0y

> <s_epik_cmdline>
J2VwaWtfcHl0aG9uJywgJy1waCcsICc3LjAnLCAnLXRuJywgJzgnLCAnLW1hJywgJzIwMCcsICctbWV0YWxfYmluZGluZycsICctaW1hZScsICc8aW5maWxlLm1hZT4nLCAnLW9tYWUnLCAnPG91dGZpbGUubWFlPic=

> <r_epik_Ionization_Penalty>
2.2835

> <r_epik_Ionization_Penalty_Charging>
2.2835

> <r_epik_Ionization_Penalty_Neutral>
1.35461e-07

> <r_epik_State_Penalty>
2.43297

> <r_epik_Charging_Adjusted_Penalty>
4.71647

> <i_epik_Tot_Q>
1

> <i_epik_Tot_abs_Q>
1

> <r_epik_Metal_State_Penalty>
2.44557

> <b_epik_Metal_Only>
0

> <s_lp_Force_Field>
OPLS_2005

> <r_lp_Energy>
10.903

> <b_lp_Chiralities_Consistent>
1

> <s_lp_Variant>
AV-unprocessed.smi:2136-4

> <Gold.Version>
5.8.1

> <Gold.Id.Protein>
6NUR|6NUR_protein|mol2

> <Gold.PLP.Fitness>
41.6973

> <Gold.PLP.PLP>
-31.9828

> <Gold.PLP.part.hbond>
-2.9191

> <Gold.PLP.part.metal>
0.0000

> <Gold.PLP.part.buried>
-5.1507

> <Gold.PLP.part.nonpolar>
-25.3264

> <Gold.PLP.part.repulsive>
0.9396

> <Gold.PLP.ligand.clash>
0.0000

> <Gold.PLP.ligand.torsion>
1.2197

> <Gold.PLP.Chemscore.Hbond>
3.8000

> <Gold.PLP.Chemscore.CHOScore>
0.0000

> <Gold.PLP.Chemscore.Metal>
0.0000

> <Gold.Chemscore.Hbonds>
donor molecule, donor type, donor heavy atom, donor atom, acceptor molecule, acceptor atom, score
      L1  H    13    34       P1  7948  0.74
      L1  H    20    43       P1 10186  2.00
      P1  H 10752 10764       L1     3  1.00

> <Gold.PLP.Chemscore.Internal.Correction>
0.7538

> <Gold.Rescore>
     Score         DG    S(hbond)    S(metal)    S(lipo)     H(rot)  DE(clash)    DE(int)     intcor
     16.68     -19.51       2.83        0.00      81.70       1.95       0.19       2.65       ----

> <Gold.Chemscore.Fitness>
16.6806

> <Gold.Chemscore.DG>
-19.5128

> <Gold.Chemscore.ZeroCoef>
-5.4800

> <Gold.Chemscore.Hbond>
2.8314

> <Gold.Chemscore.Metal>
0.0000

> <Gold.Chemscore.Lipo>
81.7009

> <Gold.Chemscore.Internal_Hbond>
0.0000

> <Gold.Chemscore.DEClash>
0.1858

> <Gold.Chemscore.DEInternal>
2.6463

> <Gold.Chemscore.Rot>
1.9466

> <Gold.Chemscore.Internal.Correction>
   9.000000E+99

> <Gold.Chemscore.Hbonds>
donor molecule, donor type, donor heavy atom, donor atom, acceptor molecule, acceptor atom, score
      L1  H    13    34       P1  7948  0.74
      L1  H    20    43       P1 10186  0.93
      P1  H 10752 10764       L1     3  0.95

> <Gold.Chemscore.Hbond.Weighted>
-9.4570

> <Gold.Chemscore.Metal.Weighted>
-0.0000

> <Gold.Chemscore.Lipo.Weighted>
-9.5590

> <Gold.Chemscore.Internal_Hbond.Weighted>
0.0000

> <Gold.Chemscore.DEClash.Weighted>
0.1858

> <Gold.Chemscore.DEInternal.Weighted>
2.6463

> <Gold.Chemscore.Rot.Weighted>
4.9832

> <Gold.Chemscore.Internal.Correction.Weighted>
   9.000000E+99

> <Gold.Protein.RotatedTorsions>
[ 6907 6896 6895 6894 ] final  -44.26 input  -60.11 | X-H torsion
[ 7974 7965 7964 7962 ] final   75.82 input  175.53 | X-H torsion
[ 8008 7997 7996 7995 ] final  117.93 input   59.86 | X-H torsion
[ 10167 10162 10161 10158 ] final   37.67 input  -65.29 | X-H torsion
[ 10718 10713 10712 10709 ] final   53.23 input   66.30 | X-H torsion
[ 10763 10752 10751 10750 ] final  -83.42 input  -60.55 | X-H torsion
[ 11005 11000 10999 10996 ] final  -83.02 input  -57.11 | X-H torsion

> <Gold.Protein.ActiveResidues>
 VAL166  LYS551  ARG553  GLY616  TRP617  ASP618  TYR619  PRO620  LYS621  CYS622 
 ASP623  PHE694  ASN695  SER759  ASP760  ASP761  ALA762  ILE779  LEU786  VAL792 
 PHE793  MET794  SER795  GLU796  ALA797  LYS798  CYS799  TRP800  GLU811  SER814 

> <Gold.Protein.RotatedAtoms>
  150.9348  134.8761  159.7574 H   0  0  0  0  0  0  0  0  0  0  0  0  # atno 6907 bound_to 6896
  152.5054  134.4027  159.9432 H   0  0  0  0  0  0  0  0  0  0  0  0  # atno 6908 bound_to 6896
  151.4051  133.3705  159.2772 H   0  0  0  0  0  0  0  0  0  0  0  0  # atno 6909 bound_to 6896
  145.7107  139.2614  143.1652 H   0  0  0  0  0  0  0  0  0  0  0  0  # atno 7974 bound_to 7965
  156.2520  140.2886  156.0755 H   0  0  0  0  0  0  0  0  0  0  0  0  # atno 8008 bound_to 7997
  155.1624  140.0400  157.2863 H   0  0  0  0  0  0  0  0  0  0  0  0  # atno 8009 bound_to 7997
  154.6383  140.2516  155.7358 H   0  0  0  0  0  0  0  0  0  0  0  0  # atno 8010 bound_to 7997
  140.4010  144.1723  150.6134 H   0  0  0  0  0  0  0  0  0  0  0  0  # atno 10167 bound_to 10162
  157.5148  130.8525  149.8481 H   0  0  0  0  0  0  0  0  0  0  0  0  # atno 10718 bound_to 10713
  154.5875  135.5556  153.7246 H   0  0  0  0  0  0  0  0  0  0  0  0  # atno 10763 bound_to 10752
  153.0104  135.6335  154.1895 H   0  0  0  0  0  0  0  0  0  0  0  0  # atno 10764 bound_to 10752
  154.1836  135.2886  155.3024 H   0  0  0  0  0  0  0  0  0  0  0  0  # atno 10765 bound_to 10752
  141.1660  133.7273  156.8657 H   0  0  0  0  0  0  0  0  0  0  0  0  # atno 11005 bound_to 11000
  146.0715  140.7864  142.9686 LP  0  0  0  0  0  0  0  0  0  0  0  0  # atno 17320 bound_to 7965
  144.6942  140.3349  143.7209 LP  0  0  0  0  0  0  0  0  0  0  0  0  # atno 17321 bound_to 7965
  140.4740  143.2403  151.9049 LP  0  0  0  0  0  0  0  0  0  0  0  0  # atno 17342 bound_to 10162
  139.4785  144.5340  151.8625 LP  0  0  0  0  0  0  0  0  0  0  0  0  # atno 17343 bound_to 10162
  156.0313  130.3764  150.1680 LP  0  0  0  0  0  0  0  0  0  0  0  0  # atno 17370 bound_to 10713
  156.9869  130.9881  151.3424 LP  0  0  0  0  0  0  0  0  0  0  0  0  # atno 17371 bound_to 10713
  140.1817  134.9029  157.2956 LP  0  0  0  0  0  0  0  0  0  0  0  0  # atno 17394 bound_to 11000
  140.2388  134.3820  155.7489 LP  0  0  0  0  0  0  0  0  0  0  0  0  # atno 17395 bound_to 11000

$$$$
