AV-unprocessed.smi:2160|AV-procd|sdf|8798|dock7
  -GOLD-   2272011583D 1   1.00000     0.00000
 Structure written by MMmdl.
 43 45  0  0  0  0  0  0  0  0  1 V2000
  141.7248  146.1664  153.7161 C   0  0  0  0  0  0  0  0  0  0  0  0
  142.9131  145.8410  153.0099 O   0  0  0  0  0  0  0  0  0  0  0  0
  143.7662  144.9146  153.5700 C   0  0  0  0  0  0  0  0  0  0  0  0
  143.5669  144.3121  154.8379 C   0  0  0  0  0  0  0  0  0  0  0  0
  144.4951  143.3786  155.3379 C   0  0  0  0  0  0  0  0  0  0  0  0
  145.6369  143.0375  154.5854 C   0  0  0  0  0  0  0  0  0  0  0  0
  146.6485  142.0503  155.1318 C   0  0  0  0  0  0  0  0  0  0  0  0
  146.7655  140.9170  154.2882 O   0  0  0  0  0  0  0  0  0  0  0  0
  148.0209  140.8347  153.6337 C   0  0  0  0  0  0  0  0  0  0  0  0
  149.1287  140.5170  154.6565 C   0  0  1  0  0  0  0  0  0  0  0  0
  150.2076  139.8879  153.9980 O   0  0  0  0  0  0  0  0  0  0  0  0
  149.6426  141.7222  155.4746 C   0  0  0  0  0  0  0  0  0  0  0  0
  150.2473  141.3366  156.7384 N   0  0  0  0  0  0  0  0  0  0  0  0
  150.4908  140.0850  157.1722 C   0  0  0  0  0  0  0  0  0  0  0  0
  151.0457  139.9529  158.3735 N   0  0  0  0  0  0  0  0  0  0  0  0
  151.1896  141.2739  158.7618 C   0  0  0  0  0  0  0  0  0  0  0  0
  151.7171  141.8281  159.9502 C   0  0  0  0  0  0  0  0  0  0  0  0
  151.7648  143.2265  160.1275 C   0  0  0  0  0  0  0  0  0  0  0  0
  151.2892  144.0910  159.1205 C   0  0  0  0  0  0  0  0  0  0  0  0
  150.7574  143.5624  157.9292 C   0  0  0  0  0  0  0  0  0  0  0  0
  150.7075  142.1660  157.7570 C   0  0  0  0  0  0  0  0  0  0  0  0
  145.8344  143.6240  153.3198 C   0  0  0  0  0  0  0  0  0  0  0  0
  144.9048  144.5557  152.8198 C   0  0  0  0  0  0  0  0  0  0  0  0
  141.1685  146.9185  153.1571 H   0  0  0  0  0  0  0  0  0  0  0  0
  141.9470  146.5843  154.6988 H   0  0  0  0  0  0  0  0  0  0  0  0
  141.0782  145.2957  153.8306 H   0  0  0  0  0  0  0  0  0  0  0  0
  142.7110  144.5527  155.4497 H   0  0  0  0  0  0  0  0  0  0  0  0
  144.3317  142.9358  156.3095 H   0  0  0  0  0  0  0  0  0  0  0  0
  147.6157  142.5465  155.2281 H   0  0  0  0  0  0  0  0  0  0  0  0
  146.3418  141.7385  156.1309 H   0  0  0  0  0  0  0  0  0  0  0  0
  147.9848  140.0308  152.8968 H   0  0  0  0  0  0  0  0  0  0  0  0
  148.2368  141.7546  153.0881 H   0  0  0  0  0  0  0  0  0  0  0  0
  148.7287  139.7774  155.3511 H   0  0  0  0  0  0  0  0  0  0  0  0
  149.8772  139.1250  153.5482 H   0  0  0  0  0  0  0  0  0  0  0  0
  150.3752  142.2885  154.8978 H   0  0  0  0  0  0  0  0  0  0  0  0
  148.8205  142.4073  155.6848 H   0  0  0  0  0  0  0  0  0  0  0  0
  150.2365  139.2213  156.5753 H   0  0  0  0  0  0  0  0  0  0  0  0
  152.0859  141.1756  160.7275 H   0  0  0  0  0  0  0  0  0  0  0  0
  152.1689  143.6382  161.0406 H   0  0  0  0  0  0  0  0  0  0  0  0
  151.3258  145.1609  159.2656 H   0  0  0  0  0  0  0  0  0  0  0  0
  150.3829  144.2240  157.1625 H   0  0  0  0  0  0  0  0  0  0  0  0
  146.7038  143.3665  152.7328 H   0  0  0  0  0  0  0  0  0  0  0  0
  145.0697  145.0031  151.8508 H   0  0  0  0  0  0  0  0  0  0  0  0
  1  2  1  0  0  0  0
  1 24  1  0  0  0  0
  1 25  1  0  0  0  0
  1 26  1  0  0  0  0
  2  3  1  0  0  0  0
  3 23  1  0  0  0  0
  3  4  2  0  0  0  0
  4  5  1  0  0  0  0
  4 27  1  0  0  0  0
  5  6  2  0  0  0  0
  5 28  1  0  0  0  0
  6  7  1  0  0  0  0
  6 22  1  0  0  0  0
  7  8  1  0  0  0  0
  7 29  1  0  0  0  0
  7 30  1  0  0  0  0
  8  9  1  0  0  0  0
  9 10  1  0  0  0  0
  9 31  1  0  0  0  0
  9 32  1  0  0  0  0
 10 11  1  0  0  0  0
 10 12  1  0  0  0  0
 10 33  1  0  0  0  0
 11 34  1  0  0  0  0
 12 13  1  0  0  0  0
 12 35  1  0  0  0  0
 12 36  1  0  0  0  0
 13 21  1  0  0  0  0
 13 14  1  0  0  0  0
 14 15  2  0  0  0  0
 14 37  1  0  0  0  0
 15 16  1  0  0  0  0
 16 21  2  0  0  0  0
 16 17  1  0  0  0  0
 17 18  2  0  0  0  0
 17 38  1  0  0  0  0
 18 19  1  0  0  0  0
 18 39  1  0  0  0  0
 19 20  2  0  0  0  0
 19 40  1  0  0  0  0
 20 21  1  0  0  0  0
 20 41  1  0  0  0  0
 22 23  2  0  0  0  0
 22 42  1  0  0  0  0
 23 43  1  0  0  0  0
M  END
> <s_m_source_file>
AV-unprocessed.smi

> <i_m_source_file_index>
2160

> <i_lp_mmshare_version>
43012

> <i_f3d_flags>
0

> <s_epik_input>
W0NIM11PYzFbY0hdW2NIXWMoW2NIXVtjSF0xKVtDSDJdT1tDSDJdW0NASF0oW09IXSlbQ0gyXW4oW2NIXW4yKWMoYzIzKVtjSF1bY0hdW2NIXVtjSF0z

> <s_epik_cmdline>
J2VwaWtfcHl0aG9uJywgJy1waCcsICc3LjAnLCAnLXRuJywgJzgnLCAnLW1hJywgJzIwMCcsICctbWV0YWxfYmluZGluZycsICctaW1hZScsICc8aW5maWxlLm1hZT4nLCAnLW9tYWUnLCAnPG91dGZpbGUubWFlPic=

> <r_lp_tautomer_probability>
1

> <r_epik_Ionization_Penalty>
0.0713119

> <r_epik_Ionization_Penalty_Charging>
0

> <r_epik_Ionization_Penalty_Neutral>
0.0713119

> <r_epik_State_Penalty>
0.06259

> <r_epik_Charging_Adjusted_Penalty>
0.06259

> <i_epik_Tot_Q>
0

> <i_epik_Tot_abs_Q>
0

> <r_epik_Metal_State_Penalty>
6.60119e-05

> <b_epik_Metal_Only>
0

> <s_lp_Force_Field>
OPLS_2005

> <r_lp_Energy>
17.5376

> <b_lp_Chiralities_Consistent>
1

> <s_lp_Variant>
AV-unprocessed.smi:2160-2

> <Gold.Version>
5.8.1

> <Gold.Id.Protein>
6NUR|6NUR_protein|mol2

> <Gold.PLP.Fitness>
53.5145

> <Gold.PLP.PLP>
-52.2147

> <Gold.PLP.part.hbond>
-3.0000

> <Gold.PLP.part.metal>
0.0000

> <Gold.PLP.part.buried>
-5.6200

> <Gold.PLP.part.nonpolar>
-44.0926

> <Gold.PLP.part.repulsive>
0.2063

> <Gold.PLP.ligand.clash>
0.0000

> <Gold.PLP.ligand.torsion>
0.8722

> <Gold.PLP.Chemscore.Hbond>
0.9760

> <Gold.PLP.Chemscore.CHOScore>
0.0000

> <Gold.PLP.Chemscore.Metal>
0.0000

> <Gold.Chemscore.Hbonds>
donor molecule, donor type, donor heavy atom, donor atom, acceptor molecule, acceptor atom, score
      P1  H  7989  7998       L1    11  1.00

> <Gold.PLP.Chemscore.Internal.Correction>
0.1162

> <Gold.Rescore>
     Score         DG    S(hbond)    S(metal)    S(lipo)     H(rot)  DE(clash)    DE(int)     intcor
     14.13     -16.50       0.89        0.00     126.25       2.63       0.18       2.19       ----

> <Gold.Chemscore.Fitness>
14.1334

> <Gold.Chemscore.DG>
-16.5004

> <Gold.Chemscore.ZeroCoef>
-5.4800

> <Gold.Chemscore.Hbond>
0.8935

> <Gold.Chemscore.Metal>
0.0000

> <Gold.Chemscore.Lipo>
126.2470

> <Gold.Chemscore.Internal_Hbond>
0.0000

> <Gold.Chemscore.DEClash>
0.1751

> <Gold.Chemscore.DEInternal>
2.1919

> <Gold.Chemscore.Rot>
2.6308

> <Gold.Chemscore.Internal.Correction>
   9.000000E+99

> <Gold.Chemscore.Hbonds>
donor molecule, donor type, donor heavy atom, donor atom, acceptor molecule, acceptor atom, score
      P1  H  7989  7998       L1    11  0.92

> <Gold.Chemscore.Hbond.Weighted>
-2.9842

> <Gold.Chemscore.Metal.Weighted>
-0.0000

> <Gold.Chemscore.Lipo.Weighted>
-14.7709

> <Gold.Chemscore.Internal_Hbond.Weighted>
0.0000

> <Gold.Chemscore.DEClash.Weighted>
0.1751

> <Gold.Chemscore.DEInternal.Weighted>
2.1919

> <Gold.Chemscore.Rot.Weighted>
6.7347

> <Gold.Chemscore.Internal.Correction.Weighted>
   9.000000E+99

> <Gold.Protein.RotatedTorsions>
[ 6907 6896 6895 6894 ] final -142.13 input  -60.11 | X-H torsion
[ 7974 7965 7964 7962 ] final   65.93 input  175.53 | X-H torsion
[ 8008 7997 7996 7995 ] final -121.36 input   59.86 | X-H torsion
[ 10167 10162 10161 10158 ] final   80.00 input  -65.29 | X-H torsion
[ 10718 10713 10712 10709 ] final   29.43 input   66.30 | X-H torsion
[ 10763 10752 10751 10750 ] final  -43.93 input  -60.55 | X-H torsion
[ 11005 11000 10999 10996 ] final -130.96 input  -57.11 | X-H torsion

> <Gold.Protein.ActiveResidues>
 VAL166  LYS551  ARG553  GLY616  TRP617  ASP618  TYR619  PRO620  LYS621  CYS622 
 ASP623  PHE694  ASN695  SER759  ASP760  ASP761  ALA762  ILE779  LEU786  VAL792 
 PHE793  MET794  SER795  GLU796  ALA797  LYS798  CYS799  TRP800  GLU811  SER814 

> <Gold.Protein.RotatedAtoms>
  151.0829  133.5375  159.2619 H   0  0  0  0  0  0  0  0  0  0  0  0  # atno 6907 bound_to 6896
  151.2272  135.0540  159.8983 H   0  0  0  0  0  0  0  0  0  0  0  0  # atno 6908 bound_to 6896
  152.5426  134.0624  159.8211 H   0  0  0  0  0  0  0  0  0  0  0  0  # atno 6909 bound_to 6896
  145.8326  139.3148  143.0978 H   0  0  0  0  0  0  0  0  0  0  0  0  # atno 7974 bound_to 7965
  155.1468  140.0403  157.2811 H   0  0  0  0  0  0  0  0  0  0  0  0  # atno 8008 bound_to 7997
  154.6433  140.2552  155.7270 H   0  0  0  0  0  0  0  0  0  0  0  0  # atno 8009 bound_to 7997
  156.2543  140.2851  156.0836 H   0  0  0  0  0  0  0  0  0  0  0  0  # atno 8010 bound_to 7997
  139.9544  144.6004  150.8130 H   0  0  0  0  0  0  0  0  0  0  0  0  # atno 10167 bound_to 10162
  157.2464  130.7094  149.6383 H   0  0  0  0  0  0  0  0  0  0  0  0  # atno 10718 bound_to 10713
  154.0037  135.6690  153.4761 H   0  0  0  0  0  0  0  0  0  0  0  0  # atno 10763 bound_to 10752
  153.0651  135.5005  154.8178 H   0  0  0  0  0  0  0  0  0  0  0  0  # atno 10764 bound_to 10752
  154.7037  135.3084  154.9265 H   0  0  0  0  0  0  0  0  0  0  0  0  # atno 10765 bound_to 10752
  140.9300  134.1332  157.4242 H   0  0  0  0  0  0  0  0  0  0  0  0  # atno 11005 bound_to 11000
  145.9554  140.8876  143.0238 LP  0  0  0  0  0  0  0  0  0  0  0  0  # atno 17320 bound_to 7965
  144.6738  140.1738  143.7412 LP  0  0  0  0  0  0  0  0  0  0  0  0  # atno 17321 bound_to 7965
  140.7573  143.3083  151.2907 LP  0  0  0  0  0  0  0  0  0  0  0  0  # atno 17342 bound_to 10162
  139.6603  144.0202  152.2688 LP  0  0  0  0  0  0  0  0  0  0  0  0  # atno 17343 bound_to 10162
  155.9668  130.4441  150.5450 LP  0  0  0  0  0  0  0  0  0  0  0  0  # atno 17370 bound_to 10713
  157.3324  131.0702  151.1850 LP  0  0  0  0  0  0  0  0  0  0  0  0  # atno 17371 bound_to 10713
  139.8794  135.0002  156.5995 LP  0  0  0  0  0  0  0  0  0  0  0  0  # atno 17394 bound_to 11000
  140.7875  133.8609  155.8618 LP  0  0  0  0  0  0  0  0  0  0  0  0  # atno 17395 bound_to 11000

$$$$
