AV-unprocessed.smi:2356|AV-procd|sdf|9398|dock1
  -GOLD-   2272013 33D 1   1.00000     0.00000
 Structure written by MMmdl.
 54 57  0  0  0  0  0  0  0  0  2 V2000
  147.6649  142.0893  154.0552 C   0  0  0  0  0  0  0  0  0  0  0  0
  148.6753  141.2358  154.8046 C   0  0  0  0  0  0  0  0  0  0  0  0
  149.5389  141.8984  155.6064 N   0  3  0  0  0  0  0  0  0  0  0  0
  150.4948  141.2940  156.3431 C   0  0  0  0  0  0  0  0  0  0  0  0
  151.3141  142.1199  157.1252 N   0  0  0  0  0  0  0  0  0  0  0  0
  152.1948  141.4179  158.0439 C   0  0  0  0  0  0  0  0  0  0  0  0
  152.6566  142.4699  159.0559 C   0  0  0  0  0  0  0  0  0  0  0  0
  151.6085  143.5859  158.9717 C   0  0  0  0  0  0  0  0  0  0  0  0
  150.6011  143.1007  157.9261 C   0  0  0  0  0  0  0  0  0  0  0  0
  150.6107  139.8871  156.2952 C   0  0  0  0  0  0  0  0  0  0  0  0
  149.7349  139.1492  155.4746 C   0  0  0  0  0  0  0  0  0  0  0  0
  148.7571  139.8235  154.6996 C   0  0  0  0  0  0  0  0  0  0  0  0
  147.8331  139.1391  153.8616 N   0  0  0  0  0  0  0  0  0  0  0  0
  147.1760  137.9850  154.0906 C   0  0  0  0  0  0  0  0  0  0  0  0
  147.2952  137.3026  155.1057 O   0  0  0  0  0  0  0  0  0  0  0  0
  146.3585  137.6073  153.0911 N   0  0  0  0  0  0  0  0  0  0  0  0
  145.5051  136.4195  153.0111 C   0  0  1  0  0  0  0  0  0  0  0  0
  144.0401  136.8482  152.8399 C   0  0  0  0  0  0  0  0  0  0  0  0
  143.1367  135.6257  152.6117 C   0  0  0  0  0  0  0  0  0  0  0  0
  143.5973  134.8835  151.4875 O   0  0  0  0  0  0  0  0  0  0  0  0
  144.9100  134.3593  151.6620 C   0  0  1  0  0  0  0  0  0  0  0  0
  145.2414  133.5003  150.4581 C   0  0  0  0  0  0  0  0  0  0  0  0
  144.2039  132.5848  149.8516 C   0  0  0  0  0  0  0  0  0  0  0  0
  145.3809  132.0019  150.5960 C   0  0  0  0  0  0  0  0  0  0  0  0
  145.9073  135.5206  151.8280 C   0  0  0  0  0  0  0  0  0  0  0  0
  146.9670  141.5039  153.4576 H   0  0  0  0  0  0  0  0  0  0  0  0
  148.1823  142.7768  153.3856 H   0  0  0  0  0  0  0  0  0  0  0  0
  147.0804  142.6810  154.7602 H   0  0  0  0  0  0  0  0  0  0  0  0
  151.6599  140.6165  158.5550 H   0  0  0  0  0  0  0  0  0  0  0  0
  153.0386  140.9735  157.5151 H   0  0  0  0  0  0  0  0  0  0  0  0
  152.7370  142.0510  160.0596 H   0  0  0  0  0  0  0  0  0  0  0  0
  153.6372  142.8593  158.7793 H   0  0  0  0  0  0  0  0  0  0  0  0
  151.1290  143.7799  159.9314 H   0  0  0  0  0  0  0  0  0  0  0  0
  152.0799  144.5126  158.6422 H   0  0  0  0  0  0  0  0  0  0  0  0
  150.2375  143.9223  157.3082 H   0  0  0  0  0  0  0  0  0  0  0  0
  149.7416  142.6432  158.4177 H   0  0  0  0  0  0  0  0  0  0  0  0
  151.3563  139.3711  156.8824 H   0  0  0  0  0  0  0  0  0  0  0  0
  149.8234  138.0742  155.4692 H   0  0  0  0  0  0  0  0  0  0  0  0
  147.6988  139.5438  152.9464 H   0  0  0  0  0  0  0  0  0  0  0  0
  146.3093  138.2304  152.2978 H   0  0  0  0  0  0  0  0  0  0  0  0
  145.5819  135.8506  153.9396 H   0  0  0  0  0  0  0  0  0  0  0  0
  143.7021  137.4034  153.7157 H   0  0  0  0  0  0  0  0  0  0  0  0
  143.9476  137.5228  151.9872 H   0  0  0  0  0  0  0  0  0  0  0  0
  143.1122  134.9887  153.4971 H   0  0  0  0  0  0  0  0  0  0  0  0
  142.1120  135.9476  152.4244 H   0  0  0  0  0  0  0  0  0  0  0  0
  144.9288  133.7288  152.5531 H   0  0  0  0  0  0  0  0  0  0  0  0
  145.9231  133.9756  149.7550 H   0  0  0  0  0  0  0  0  0  0  0  0
  143.2294  132.5335  150.3331 H   0  0  0  0  0  0  0  0  0  0  0  0
  144.1942  132.4876  148.7680 H   0  0  0  0  0  0  0  0  0  0  0  0
  146.1567  131.5141  150.0094 H   0  0  0  0  0  0  0  0  0  0  0  0
  145.1891  131.5625  151.5730 H   0  0  0  0  0  0  0  0  0  0  0  0
  145.9350  136.1099  150.9100 H   0  0  0  0  0  0  0  0  0  0  0  0
  146.9125  135.1239  151.9728 H   0  0  0  0  0  0  0  0  0  0  0  0
  149.4638  142.9145  155.6582 H   0  0  0  0  0  0  0  0  0  0  0  0
  1  2  1  0  0  0  0
  1 26  1  0  0  0  0
  1 27  1  0  0  0  0
  1 28  1  0  0  0  0
  2 12  1  0  0  0  0
  2  3  2  0  0  0  0
  3  4  1  0  0  0  0
  3 54  1  0  0  0  0
  4  5  1  0  0  0  0
  4 10  2  0  0  0  0
  5  9  1  0  0  0  0
  5  6  1  0  0  0  0
  6  7  1  0  0  0  0
  6 29  1  0  0  0  0
  6 30  1  0  0  0  0
  7  8  1  0  0  0  0
  7 31  1  0  0  0  0
  7 32  1  0  0  0  0
  8  9  1  0  0  0  0
  8 33  1  0  0  0  0
  8 34  1  0  0  0  0
  9 35  1  0  0  0  0
  9 36  1  0  0  0  0
 10 11  1  0  0  0  0
 10 37  1  0  0  0  0
 11 12  2  0  0  0  0
 11 38  1  0  0  0  0
 12 13  1  0  0  0  0
 13 14  1  0  0  0  0
 13 39  1  0  0  0  0
 14 15  2  0  0  0  0
 14 16  1  0  0  0  0
 16 17  1  0  0  0  0
 16 40  1  0  0  0  0
 17 25  1  0  0  0  0
 17 18  1  0  0  0  0
 17 41  1  0  0  0  0
 18 19  1  0  0  0  0
 18 42  1  0  0  0  0
 18 43  1  0  0  0  0
 19 20  1  0  0  0  0
 19 44  1  0  0  0  0
 19 45  1  0  0  0  0
 20 21  1  0  0  0  0
 21 22  1  0  0  0  0
 21 25  1  0  0  0  0
 21 46  1  0  0  0  0
 22 24  1  0  0  0  0
 22 23  1  0  0  0  0
 22 47  1  0  0  0  0
 23 24  1  0  0  0  0
 23 48  1  0  0  0  0
 23 49  1  0  0  0  0
 24 50  1  0  0  0  0
 24 51  1  0  0  0  0
 25 52  1  0  0  0  0
 25 53  1  0  0  0  0
M  CHG  1   3   1
M  END
> <s_m_source_file>
AV-unprocessed.smi

> <i_m_source_file_index>
2356

> <i_lp_mmshare_version>
43012

> <i_f3d_flags>
0

> <s_epik_input>
W0NIMl0xW0NIMl1bQ0gyXVtDSDJdTjFjKG5jMltDSDNdKVtjSF1bY0hdYzJbTkhdQyg9TylbTkhdW0NAQEhdM1tDSDJdW0NIMl1PW0NASF0oW0NIMl0zKVtDSF00W0NIMl1bQ0gyXTQ=

> <s_epik_cmdline>
J2VwaWtfcHl0aG9uJywgJy1waCcsICc3LjAnLCAnLXRuJywgJzgnLCAnLW1hJywgJzIwMCcsICctbWV0YWxfYmluZGluZycsICctaW1hZScsICc8aW5maWxlLm1hZT4nLCAnLW9tYWUnLCAnPG91dGZpbGUubWFlPic=

> <r_lp_tautomer_probability>
0.999994

> <r_epik_Ionization_Penalty>
0.534681

> <r_epik_Ionization_Penalty_Charging>
0.534661

> <r_epik_Ionization_Penalty_Neutral>
1.99132e-05

> <r_epik_State_Penalty>
0.543738

> <r_epik_Charging_Adjusted_Penalty>
1.0784

> <i_epik_Tot_Q>
1

> <i_epik_Tot_abs_Q>
1

> <r_epik_Metal_State_Penalty>
0.74699

> <b_epik_Metal_Only>
0

> <s_lp_Force_Field>
OPLS_2005

> <r_lp_Energy>
63.5996

> <b_lp_Chiralities_Consistent>
1

> <s_lp_Variant>
AV-unprocessed.smi:2356-6

> <Gold.Version>
5.8.1

> <Gold.Id.Protein>
6NUR|6NUR_protein|mol2

> <Gold.PLP.Fitness>
43.7653

> <Gold.PLP.PLP>
-39.4672

> <Gold.PLP.part.hbond>
-1.2876

> <Gold.PLP.part.metal>
0.0000

> <Gold.PLP.part.buried>
-5.6800

> <Gold.PLP.part.nonpolar>
-32.9868

> <Gold.PLP.part.repulsive>
0.4967

> <Gold.PLP.ligand.clash>
0.0000

> <Gold.PLP.ligand.torsion>
1.3998

> <Gold.PLP.Chemscore.Hbond>
2.0000

> <Gold.PLP.Chemscore.CHOScore>
0.0000

> <Gold.PLP.Chemscore.Metal>
0.0000

> <Gold.Chemscore.Hbonds>
donor molecule, donor type, donor heavy atom, donor atom, acceptor molecule, acceptor atom, score
      L1  H     3    54       P1  8028  2.00

> <Gold.PLP.Chemscore.Internal.Correction>
1.0976

> <Gold.Rescore>
     Score         DG    S(hbond)    S(metal)    S(lipo)     H(rot)  DE(clash)    DE(int)     intcor
     16.65     -19.09       1.00        0.00     116.34       1.31       0.51       1.93       ----

> <Gold.Chemscore.Fitness>
16.6507

> <Gold.Chemscore.DG>
-19.0889

> <Gold.Chemscore.ZeroCoef>
-5.4800

> <Gold.Chemscore.Hbond>
1.0000

> <Gold.Chemscore.Metal>
0.0000

> <Gold.Chemscore.Lipo>
116.3436

> <Gold.Chemscore.Internal_Hbond>
0.0000

> <Gold.Chemscore.DEClash>
0.5099

> <Gold.Chemscore.DEInternal>
1.9283

> <Gold.Chemscore.Rot>
1.3060

> <Gold.Chemscore.Internal.Correction>
   9.000000E+99

> <Gold.Chemscore.Hbonds>
donor molecule, donor type, donor heavy atom, donor atom, acceptor molecule, acceptor atom, score
      L1  H     3    54       P1  8028  1.00

> <Gold.Chemscore.Hbond.Weighted>
-3.3400

> <Gold.Chemscore.Metal.Weighted>
-0.0000

> <Gold.Chemscore.Lipo.Weighted>
-13.6122

> <Gold.Chemscore.Internal_Hbond.Weighted>
0.0000

> <Gold.Chemscore.DEClash.Weighted>
0.5099

> <Gold.Chemscore.DEInternal.Weighted>
1.9283

> <Gold.Chemscore.Rot.Weighted>
3.3433

> <Gold.Chemscore.Internal.Correction.Weighted>
   9.000000E+99

> <Gold.Protein.RotatedTorsions>
[ 6907 6896 6895 6894 ] final   92.82 input  -60.11 | X-H torsion
[ 7974 7965 7964 7962 ] final  138.40 input  175.53 | X-H torsion
[ 8008 7997 7996 7995 ] final   52.02 input   59.86 | X-H torsion
[ 10167 10162 10161 10158 ] final -173.51 input  -65.29 | X-H torsion
[ 10718 10713 10712 10709 ] final  114.21 input   66.30 | X-H torsion
[ 10763 10752 10751 10750 ] final -166.46 input  -60.55 | X-H torsion
[ 11005 11000 10999 10996 ] final  173.92 input  -57.11 | X-H torsion

> <Gold.Protein.ActiveResidues>
 VAL166  LYS551  ARG553  GLY616  TRP617  ASP618  TYR619  PRO620  LYS621  CYS622 
 ASP623  PHE694  ASN695  SER759  ASP760  ASP761  ALA762  ILE779  LEU786  VAL792 
 PHE793  MET794  SER795  GLU796  ALA797  LYS798  CYS799  TRP800  GLU811  SER814 

> <Gold.Protein.RotatedAtoms>
  152.5453  134.1443  159.8491 H   0  0  0  0  0  0  0  0  0  0  0  0  # atno 6907 bound_to 6896
  151.1476  133.4922  159.2603 H   0  0  0  0  0  0  0  0  0  0  0  0  # atno 6908 bound_to 6896
  151.1507  135.0236  159.8722 H   0  0  0  0  0  0  0  0  0  0  0  0  # atno 6909 bound_to 6896
  144.9376  139.4970  143.5587 H   0  0  0  0  0  0  0  0  0  0  0  0  # atno 7974 bound_to 7965
  155.4449  140.3456  155.4294 H   0  0  0  0  0  0  0  0  0  0  0  0  # atno 8008 bound_to 7997
  156.1256  140.1499  156.9171 H   0  0  0  0  0  0  0  0  0  0  0  0  # atno 8009 bound_to 7997
  154.4856  140.0856  156.7457 H   0  0  0  0  0  0  0  0  0  0  0  0  # atno 8010 bound_to 7997
  139.5684  144.1699  152.1348 H   0  0  0  0  0  0  0  0  0  0  0  0  # atno 10167 bound_to 10162
  157.6294  131.0995  150.7153 H   0  0  0  0  0  0  0  0  0  0  0  0  # atno 10718 bound_to 10713
  154.6830  135.2958  154.9586 H   0  0  0  0  0  0  0  0  0  0  0  0  # atno 10763 bound_to 10752
  154.0574  135.6636  153.4811 H   0  0  0  0  0  0  0  0  0  0  0  0  # atno 10764 bound_to 10752
  153.0560  135.5144  154.7883 H   0  0  0  0  0  0  0  0  0  0  0  0  # atno 10765 bound_to 10752
  140.3457  134.7238  157.4233 H   0  0  0  0  0  0  0  0  0  0  0  0  # atno 11005 bound_to 11000
  146.3273  139.8371  142.8897 LP  0  0  0  0  0  0  0  0  0  0  0  0  # atno 17320 bound_to 7965
  145.3042  141.0202  143.3591 LP  0  0  0  0  0  0  0  0  0  0  0  0  # atno 17321 bound_to 7965
  140.1227  144.5359  150.6852 LP  0  0  0  0  0  0  0  0  0  0  0  0  # atno 17342 bound_to 10162
  140.6968  143.2409  151.4977 LP  0  0  0  0  0  0  0  0  0  0  0  0  # atno 17343 bound_to 10162
  156.7495  130.4764  149.5460 LP  0  0  0  0  0  0  0  0  0  0  0  0  # atno 17370 bound_to 10713
  156.1487  130.6295  151.0567 LP  0  0  0  0  0  0  0  0  0  0  0  0  # atno 17371 bound_to 10713
  140.0744  134.5818  155.8607 LP  0  0  0  0  0  0  0  0  0  0  0  0  # atno 17394 bound_to 11000
  141.2026  133.6626  156.6016 LP  0  0  0  0  0  0  0  0  0  0  0  0  # atno 17395 bound_to 11000

$$$$
