AV-unprocessed.smi:21|AV-procd|sdf|153|dock1
  -GOLD-   2262015373D 1   1.00000     0.00000
 Structure written by MMmdl.
 61 64  0  0  0  0  0  0  0  0  1 V2000
  152.5394  144.9997  157.6770 C   0  0  0  0  0  0  0  0  0  0  0  0
  152.2841  145.1532  159.0642 O   0  0  0  0  0  0  0  0  0  0  0  0
  151.8028  143.9685  159.6843 C   0  0  1  0  0  0  0  0  0  0  0  0
  152.6285  142.7337  159.2839 C   0  0  0  0  0  0  0  0  0  0  0  0
  152.9664  142.0620  160.6194 C   0  0  1  0  0  0  0  0  0  0  0  0
  154.2020  141.1398  160.5432 C   0  0  0  0  0  0  0  0  0  0  0  0
  154.2633  140.1760  161.6424 N   0  0  0  0  0  0  0  0  0  0  0  0
  155.1621  140.4742  162.7552 C   0  0  0  0  0  0  0  0  0  0  0  0
  154.1162  138.8704  161.2936 C   0  0  0  0  0  0  0  0  0  0  0  0
  153.6684  138.5540  160.0484 N   0  0  0  0  0  0  0  0  0  0  0  0
  153.5107  137.2773  159.6888 C   0  0  0  0  0  0  0  0  0  0  0  0
  153.7438  136.1755  160.4030 N   0  0  0  0  0  0  0  0  0  0  0  0
  154.2056  136.4797  161.6488 C   0  0  0  0  0  0  0  0  0  0  0  0
  154.4129  137.7886  162.1723 C   0  0  0  0  0  0  0  0  0  0  0  0
  154.8888  137.7020  163.4744 N   0  0  0  0  0  0  0  0  0  0  0  0
  154.9477  136.4212  163.7112 C   0  0  0  0  0  0  0  0  0  0  0  0
  154.5747  135.6109  162.6625 N   0  0  0  0  0  0  0  0  0  0  0  0
  154.5576  134.1542  162.6589 C   0  0  0  0  0  0  0  0  0  0  0  0
  154.1744  133.5108  164.0209 C   0  0  2  0  0  0  0  0  0  0  0  0
  155.2258  133.7866  165.1225 C   0  0  0  0  0  0  0  0  0  0  0  0
  154.7168  133.4679  166.4011 O   0  0  0  0  0  0  0  0  0  0  0  0
  153.8793  131.9935  163.8920 C   0  0  2  0  0  0  0  0  0  0  0  0
  153.3443  131.5650  162.5350 C   0  0  0  0  0  0  0  0  0  0  0  0
  152.7434  130.1983  162.8416 C   0  0  0  0  0  0  0  0  0  0  0  0
  152.2674  130.2823  164.1797 O   0  0  0  0  0  0  0  0  0  0  0  0
  152.7535  131.4720  164.7929 C   0  0  0  0  0  0  0  0  0  0  0  0
  153.0974  143.1741  161.5459 N   0  0  0  0  0  0  0  0  0  0  0  0
  153.0738  142.7817  162.9488 C   0  0  0  0  0  0  0  0  0  0  0  0
  151.9958  144.0577  161.2044 C   0  0  0  0  0  0  0  0  0  0  0  0
  150.7427  143.8265  159.4665 H   0  0  0  0  0  0  0  0  0  0  0  0
  152.1000  141.4723  160.9222 H   0  0  0  0  0  0  0  0  0  0  0  0
  152.8942  145.9442  157.2646 H   0  0  0  0  0  0  0  0  0  0  0  0
  151.6331  144.7191  157.1388 H   0  0  0  0  0  0  0  0  0  0  0  0
  153.3046  144.2459  157.4889 H   0  0  0  0  0  0  0  0  0  0  0  0
  152.0921  142.0707  158.6046 H   0  0  0  0  0  0  0  0  0  0  0  0
  153.5455  143.0512  158.7883 H   0  0  0  0  0  0  0  0  0  0  0  0
  154.2276  140.6452  159.5721 H   0  0  0  0  0  0  0  0  0  0  0  0
  155.1114  141.7389  160.5911 H   0  0  0  0  0  0  0  0  0  0  0  0
  155.0165  139.7712  163.5767 H   0  0  0  0  0  0  0  0  0  0  0  0
  154.9792  141.4729  163.1498 H   0  0  0  0  0  0  0  0  0  0  0  0
  156.2029  140.4211  162.4339 H   0  0  0  0  0  0  0  0  0  0  0  0
  153.1466  137.1155  158.6850 H   0  0  0  0  0  0  0  0  0  0  0  0
  155.2779  136.0297  164.6624 H   0  0  0  0  0  0  0  0  0  0  0  0
  153.8517  133.8343  161.8917 H   0  0  0  0  0  0  0  0  0  0  0  0
  155.5295  133.7969  162.3193 H   0  0  0  0  0  0  0  0  0  0  0  0
  153.2469  133.9867  164.3431 H   0  0  0  0  0  0  0  0  0  0  0  0
  156.1147  133.1742  164.9740 H   0  0  0  0  0  0  0  0  0  0  0  0
  155.5570  134.8249  165.1079 H   0  0  0  0  0  0  0  0  0  0  0  0
  153.9450  132.9331  166.2927 H   0  0  0  0  0  0  0  0  0  0  0  0
  154.7814  131.4218  164.1138 H   0  0  0  0  0  0  0  0  0  0  0  0
  152.5621  132.2484  162.2010 H   0  0  0  0  0  0  0  0  0  0  0  0
  154.1032  131.5164  161.7554 H   0  0  0  0  0  0  0  0  0  0  0  0
  151.9457  129.9280  162.1498 H   0  0  0  0  0  0  0  0  0  0  0  0
  153.5120  129.4256  162.7939 H   0  0  0  0  0  0  0  0  0  0  0  0
  153.0896  131.2731  165.8107 H   0  0  0  0  0  0  0  0  0  0  0  0
  151.9332  132.1896  164.8420 H   0  0  0  0  0  0  0  0  0  0  0  0
  153.1220  143.6601  163.5932 H   0  0  0  0  0  0  0  0  0  0  0  0
  153.9269  142.1492  163.1933 H   0  0  0  0  0  0  0  0  0  0  0  0
  152.1626  142.2333  163.1920 H   0  0  0  0  0  0  0  0  0  0  0  0
  152.1835  145.0764  161.5458 H   0  0  0  0  0  0  0  0  0  0  0  0
  151.0813  143.7152  161.6915 H   0  0  0  0  0  0  0  0  0  0  0  0
  1  2  1  0  0  0  0
  1 32  1  0  0  0  0
  1 33  1  0  0  0  0
  1 34  1  0  0  0  0
  2  3  1  0  0  0  0
  3 30  1  0  0  0  0
  3 29  1  0  0  0  0
  3  4  1  0  0  0  0
  4  5  1  0  0  0  0
  4 35  1  0  0  0  0
  4 36  1  0  0  0  0
  5 31  1  0  0  0  0
  5  6  1  0  0  0  0
  5 27  1  0  0  0  0
  6  7  1  0  0  0  0
  6 37  1  0  0  0  0
  6 38  1  0  0  0  0
  7  8  1  0  0  0  0
  7  9  1  0  0  0  0
  8 39  1  0  0  0  0
  8 40  1  0  0  0  0
  8 41  1  0  0  0  0
  9 14  1  0  0  0  0
  9 10  2  0  0  0  0
 10 11  1  0  0  0  0
 11 12  2  0  0  0  0
 11 42  1  0  0  0  0
 12 13  1  0  0  0  0
 13 17  1  0  0  0  0
 13 14  2  0  0  0  0
 14 15  1  0  0  0  0
 15 16  2  0  0  0  0
 16 17  1  0  0  0  0
 16 43  1  0  0  0  0
 17 18  1  0  0  0  0
 18 19  1  0  0  0  0
 18 44  1  0  0  0  0
 18 45  1  0  0  0  0
 19 20  1  0  0  0  0
 19 22  1  0  0  0  0
 19 46  1  0  0  0  0
 20 21  1  0  0  0  0
 20 47  1  0  0  0  0
 20 48  1  0  0  0  0
 21 49  1  0  0  0  0
 22 26  1  0  0  0  0
 22 23  1  0  0  0  0
 22 50  1  0  0  0  0
 23 24  1  0  0  0  0
 23 51  1  0  0  0  0
 23 52  1  0  0  0  0
 24 25  1  0  0  0  0
 24 53  1  0  0  0  0
 24 54  1  0  0  0  0
 25 26  1  0  0  0  0
 26 55  1  0  0  0  0
 26 56  1  0  0  0  0
 27 28  1  0  0  0  0
 27 29  1  0  0  0  0
 28 57  1  0  0  0  0
 28 58  1  0  0  0  0
 28 59  1  0  0  0  0
 29 60  1  0  0  0  0
 29 61  1  0  0  0  0
M  END
> <s_m_source_file>
AV-unprocessed.smi

> <i_m_source_file_index>
21

> <i_lp_mmshare_version>
43012

> <i_f3d_flags>
0

> <s_epik_input>
W0NIM11PW0NASF0xW0NIMl1bQ0BIXShOKFtDSDNdKVtDSDJdMSlbQ0gyXU4oW0NIM10pYyhuW2NIXW4yKWMoYzIzKW5bY0hdbjNbQ0gyXVtDQEhdKFtDSDJdW09IXSlbQ0BASF00W0NIMl1bQ0gyXU9bQ0gyXTQ=

> <s_epik_cmdline>
J2VwaWtfcHl0aG9uJywgJy1waCcsICc3LjAnLCAnLXRuJywgJzgnLCAnLW1hJywgJzIwMCcsICctbWV0YWxfYmluZGluZycsICctaW1hZScsICc8aW5maWxlLm1hZT4nLCAnLW9tYWUnLCAnPG91dGZpbGUubWFlPic=

> <r_lp_tautomer_probability>
1

> <r_epik_Ionization_Penalty>
2.17574

> <r_epik_Ionization_Penalty_Charging>
0

> <r_epik_Ionization_Penalty_Neutral>
2.17574

> <r_epik_State_Penalty>
2.31336

> <r_epik_Charging_Adjusted_Penalty>
2.31336

> <i_epik_Tot_Q>
0

> <i_epik_Tot_abs_Q>
0

> <r_epik_Metal_State_Penalty>
2.31025

> <b_epik_Metal_Only>
0

> <s_lp_Force_Field>
OPLS_2005

> <r_lp_Energy>
70.2261

> <b_lp_Chiralities_Consistent>
1

> <s_lp_Variant>
AV-unprocessed.smi:21-33

> <Gold.Version>
5.8.1

> <Gold.Id.Protein>
6NUR|6NUR_protein|mol2

> <Gold.PLP.Fitness>
56.1041

> <Gold.PLP.PLP>
-55.9156

> <Gold.PLP.part.hbond>
-2.0000

> <Gold.PLP.part.metal>
0.0000

> <Gold.PLP.part.buried>
-4.7859

> <Gold.PLP.part.nonpolar>
-48.8064

> <Gold.PLP.part.repulsive>
0.1635

> <Gold.PLP.ligand.clash>
0.0000

> <Gold.PLP.ligand.torsion>
1.8075

> <Gold.PLP.Chemscore.Hbond>
1.0000

> <Gold.PLP.Chemscore.CHOScore>
0.0000

> <Gold.PLP.Chemscore.Metal>
0.0000

> <Gold.Chemscore.Hbonds>
donor molecule, donor type, donor heavy atom, donor atom, acceptor molecule, acceptor atom, score
      P1  H  6896  6907       L1    12  1.00

> <Gold.PLP.Chemscore.Internal.Correction>
0.8034

> <Gold.Rescore>
     Score         DG    S(hbond)    S(metal)    S(lipo)     H(rot)  DE(clash)    DE(int)     intcor
     11.57     -14.95       0.89        0.00     121.21       3.00       0.33       3.05       ----

> <Gold.Chemscore.Fitness>
11.5679

> <Gold.Chemscore.DG>
-14.9468

> <Gold.Chemscore.ZeroCoef>
-5.4800

> <Gold.Chemscore.Hbond>
0.8901

> <Gold.Chemscore.Metal>
0.0000

> <Gold.Chemscore.Lipo>
121.2137

> <Gold.Chemscore.Internal_Hbond>
0.0000

> <Gold.Chemscore.DEClash>
0.3297

> <Gold.Chemscore.DEInternal>
3.0492

> <Gold.Chemscore.Rot>
3.0031

> <Gold.Chemscore.Internal.Correction>
   9.000000E+99

> <Gold.Chemscore.Hbonds>
donor molecule, donor type, donor heavy atom, donor atom, acceptor molecule, acceptor atom, score
      P1  H  6896  6907       L1    12  0.76

> <Gold.Chemscore.Hbond.Weighted>
-2.9728

> <Gold.Chemscore.Metal.Weighted>
-0.0000

> <Gold.Chemscore.Lipo.Weighted>
-14.1820

> <Gold.Chemscore.Internal_Hbond.Weighted>
0.0000

> <Gold.Chemscore.DEClash.Weighted>
0.3297

> <Gold.Chemscore.DEInternal.Weighted>
3.0492

> <Gold.Chemscore.Rot.Weighted>
7.6880

> <Gold.Chemscore.Internal.Correction.Weighted>
   9.000000E+99

> <Gold.Protein.RotatedTorsions>
[ 6907 6896 6895 6894 ] final   53.31 input  -60.11 | X-H torsion
[ 7974 7965 7964 7962 ] final  163.57 input  175.53 | X-H torsion
[ 8008 7997 7996 7995 ] final -164.01 input   59.86 | X-H torsion
[ 10167 10162 10161 10158 ] final  -19.47 input  -65.29 | X-H torsion
[ 10718 10713 10712 10709 ] final  -86.29 input   66.30 | X-H torsion
[ 10763 10752 10751 10750 ] final -135.48 input  -60.55 | X-H torsion
[ 11005 11000 10999 10996 ] final  -92.95 input  -57.11 | X-H torsion

> <Gold.Protein.ActiveResidues>
 VAL166  LYS551  ARG553  GLY616  TRP617  ASP618  TYR619  PRO620  LYS621  CYS622 
 ASP623  PHE694  ASN695  SER759  ASP760  ASP761  ALA762  ILE779  LEU786  VAL792 
 PHE793  MET794  SER795  GLU796  ALA797  LYS798  CYS799  TRP800  GLU811  SER814 

> <Gold.Protein.RotatedAtoms>
  152.3324  134.7242  160.0285 H   0  0  0  0  0  0  0  0  0  0  0  0  # atno 6907 bound_to 6896
  151.7654  133.3331  159.3437 H   0  0  0  0  0  0  0  0  0  0  0  0  # atno 6908 bound_to 6896
  150.7431  134.5999  159.6076 H   0  0  0  0  0  0  0  0  0  0  0  0  # atno 6909 bound_to 6896
  144.7584  139.8201  143.6341 H   0  0  0  0  0  0  0  0  0  0  0  0  # atno 7974 bound_to 7965
  155.8295  140.0931  157.1801 H   0  0  0  0  0  0  0  0  0  0  0  0  # atno 8008 bound_to 7997
  154.3979  140.1421  156.3657 H   0  0  0  0  0  0  0  0  0  0  0  0  # atno 8009 bound_to 7997
  155.8181  140.3447  155.5500 H   0  0  0  0  0  0  0  0  0  0  0  0  # atno 8010 bound_to 7997
  140.7268  143.4816  151.0110 H   0  0  0  0  0  0  0  0  0  0  0  0  # atno 10167 bound_to 10162
  155.9991  130.4760  150.4692 H   0  0  0  0  0  0  0  0  0  0  0  0  # atno 10718 bound_to 10713
  154.8702  135.3702  154.4905 H   0  0  0  0  0  0  0  0  0  0  0  0  # atno 10763 bound_to 10752
  153.5552  135.7024  153.5577 H   0  0  0  0  0  0  0  0  0  0  0  0  # atno 10764 bound_to 10752
  153.3678  135.4029  155.1730 H   0  0  0  0  0  0  0  0  0  0  0  0  # atno 10765 bound_to 10752
  141.1509  133.7855  157.0091 H   0  0  0  0  0  0  0  0  0  0  0  0  # atno 11005 bound_to 11000
  146.1620  139.4738  142.9982 LP  0  0  0  0  0  0  0  0  0  0  0  0  # atno 17320 bound_to 7965
  145.6701  141.0218  143.1662 LP  0  0  0  0  0  0  0  0  0  0  0  0  # atno 17321 bound_to 7965
  139.8514  143.7433  152.3178 LP  0  0  0  0  0  0  0  0  0  0  0  0  # atno 17342 bound_to 10162
  139.7616  144.7504  151.0355 LP  0  0  0  0  0  0  0  0  0  0  0  0  # atno 17343 bound_to 10162
  157.2708  131.0587  151.2261 LP  0  0  0  0  0  0  0  0  0  0  0  0  # atno 17370 bound_to 10713
  157.3341  130.7000  149.6342 LP  0  0  0  0  0  0  0  0  0  0  0  0  # atno 17371 bound_to 10713
  140.0889  134.9604  157.1745 LP  0  0  0  0  0  0  0  0  0  0  0  0  # atno 17394 bound_to 11000
  140.3473  134.2638  155.7203 LP  0  0  0  0  0  0  0  0  0  0  0  0  # atno 17395 bound_to 11000

$$$$
