AV-unprocessed.smi:324|AV-procd|sdf|2340|dock2
  -GOLD-   2262022253D 1   1.00000     0.00000
 Structure written by MMmdl.
 25 26  0  0  0  0  0  0  0  0  1 V2000
  147.5535  142.5403  155.8326 O   0  0  0  0  0  0  0  0  0  0  0  0
  148.4277  141.6438  156.4861 C   0  0  0  0  0  0  0  0  0  0  0  0
  149.7911  141.5835  155.7765 C   0  0  0  0  0  0  0  0  0  0  0  0
  150.8660  141.1227  156.6475 N   0  0  0  0  0  0  0  0  0  0  0  0
  151.5866  139.9734  156.5729 C   0  0  0  0  0  0  0  0  0  0  0  0
  151.3849  138.9516  155.4957 C   0  0  0  0  0  0  0  0  0  0  0  0
  152.9163  138.6373  154.6401 Cl  0  0  0  0  0  0  0  0  0  0  0  0
  152.5176  139.8114  157.5137 N   0  0  0  0  0  0  0  0  0  0  0  0
  152.3905  140.9590  158.2706 C   0  0  0  0  0  0  0  0  0  0  0  0
  153.0983  141.3843  159.4174 C   0  0  0  0  0  0  0  0  0  0  0  0
  152.7905  142.6167  160.0303 C   0  0  0  0  0  0  0  0  0  0  0  0
  153.6651  143.1213  161.4292 Cl  0  0  0  0  0  0  0  0  0  0  0  0
  151.7725  143.4390  159.5050 C   0  0  0  0  0  0  0  0  0  0  0  0
  151.0551  143.0334  158.3632 C   0  0  0  0  0  0  0  0  0  0  0  0
  151.3657  141.8017  157.7557 C   0  0  0  0  0  0  0  0  0  0  0  0
  148.0145  143.3506  155.6771 H   0  0  0  0  0  0  0  0  0  0  0  0
  148.5569  141.9708  157.5179 H   0  0  0  0  0  0  0  0  0  0  0  0
  147.9639  140.6591  156.5209 H   0  0  0  0  0  0  0  0  0  0  0  0
  149.7284  140.9123  154.9193 H   0  0  0  0  0  0  0  0  0  0  0  0
  150.0515  142.5577  155.3648 H   0  0  0  0  0  0  0  0  0  0  0  0
  151.0491  138.0112  155.9338 H   0  0  0  0  0  0  0  0  0  0  0  0
  150.6398  139.2643  154.7663 H   0  0  0  0  0  0  0  0  0  0  0  0
  153.8803  140.7607  159.8245 H   0  0  0  0  0  0  0  0  0  0  0  0
  151.5421  144.3828  159.9772 H   0  0  0  0  0  0  0  0  0  0  0  0
  150.2782  143.6639  157.9573 H   0  0  0  0  0  0  0  0  0  0  0  0
  1  2  1  0  0  0  0
  1 16  1  0  0  0  0
  2  3  1  0  0  0  0
  2 17  1  0  0  0  0
  2 18  1  0  0  0  0
  3  4  1  0  0  0  0
  3 19  1  0  0  0  0
  3 20  1  0  0  0  0
  4 15  1  0  0  0  0
  4  5  1  0  0  0  0
  5  6  1  0  0  0  0
  5  8  2  0  0  0  0
  6  7  1  0  0  0  0
  6 21  1  0  0  0  0
  6 22  1  0  0  0  0
  8  9  1  0  0  0  0
  9 15  2  0  0  0  0
  9 10  1  0  0  0  0
 10 11  2  0  0  0  0
 10 23  1  0  0  0  0
 11 12  1  0  0  0  0
 11 13  1  0  0  0  0
 13 14  2  0  0  0  0
 13 24  1  0  0  0  0
 14 15  1  0  0  0  0
 14 25  1  0  0  0  0
M  END
> <s_m_source_file>
AV-unprocessed.smi

> <i_m_source_file_index>
324

> <i_lp_mmshare_version>
43012

> <i_f3d_flags>
0

> <s_epik_input>
W09IXVtDSDJdW0NIMl1uKGMobjEpW0NIMl1DbCljKGMxMilbY0hdW2NIXWMoQ2wpW2NIXTI=

> <s_epik_cmdline>
J2VwaWtfcHl0aG9uJywgJy1waCcsICc3LjAnLCAnLXRuJywgJzgnLCAnLW1hJywgJzIwMCcsICctbWV0YWxfYmluZGluZycsICctaW1hZScsICc8aW5maWxlLm1hZT4nLCAnLW9tYWUnLCAnPG91dGZpbGUubWFlPic=

> <r_epik_Ionization_Penalty>
0.00660302

> <r_epik_Ionization_Penalty_Charging>
0

> <r_epik_Ionization_Penalty_Neutral>
0.00660302

> <r_epik_State_Penalty>
0.00489244

> <r_epik_Charging_Adjusted_Penalty>
0.00489244

> <i_epik_Tot_Q>
0

> <i_epik_Tot_abs_Q>
0

> <r_epik_Metal_State_Penalty>
-0

> <b_epik_Metal_Only>
0

> <s_lp_Force_Field>
OPLS_2005

> <r_lp_Energy>
6.37425

> <b_lp_Chiralities_Consistent>
1

> <s_lp_Variant>
AV-unprocessed.smi:324-1

> <Gold.Version>
5.8.1

> <Gold.Id.Protein>
6NUR|6NUR_protein|mol2

> <Gold.PLP.Fitness>
40.7333

> <Gold.PLP.PLP>
-35.0918

> <Gold.PLP.part.hbond>
-2.0000

> <Gold.PLP.part.metal>
0.0000

> <Gold.PLP.part.buried>
-3.7825

> <Gold.PLP.part.nonpolar>
-28.2391

> <Gold.PLP.part.repulsive>
0.0000

> <Gold.PLP.ligand.clash>
0.0000

> <Gold.PLP.ligand.torsion>
0.1811

> <Gold.PLP.Chemscore.Hbond>
2.0000

> <Gold.PLP.Chemscore.CHOScore>
0.0000

> <Gold.PLP.Chemscore.Metal>
0.0000

> <Gold.Chemscore.Hbonds>
donor molecule, donor type, donor heavy atom, donor atom, acceptor molecule, acceptor atom, score
      L1  H     1    16       P1  8028  1.00
      P1  H  7997  8010       L1     8  0.81

> <Gold.PLP.Chemscore.Internal.Correction>
0.0036

> <Gold.Rescore>
     Score         DG    S(hbond)    S(metal)    S(lipo)     H(rot)  DE(clash)    DE(int)     intcor
     15.46     -15.91       1.29        0.00      93.41       1.88       0.19       0.26       ----

> <Gold.Chemscore.Fitness>
15.4620

> <Gold.Chemscore.DG>
-15.9145

> <Gold.Chemscore.ZeroCoef>
-5.4800

> <Gold.Chemscore.Hbond>
1.2926

> <Gold.Chemscore.Metal>
0.0000

> <Gold.Chemscore.Lipo>
93.4053

> <Gold.Chemscore.Internal_Hbond>
0.0000

> <Gold.Chemscore.DEClash>
0.1934

> <Gold.Chemscore.DEInternal>
0.2591

> <Gold.Chemscore.Rot>
1.8794

> <Gold.Chemscore.Internal.Correction>
   9.000000E+99

> <Gold.Chemscore.Hbonds>
donor molecule, donor type, donor heavy atom, donor atom, acceptor molecule, acceptor atom, score
      L1  H     1    16       P1  8028  0.54
      P1  H  7997  8010       L1     8  0.15

> <Gold.Chemscore.Hbond.Weighted>
-4.3173

> <Gold.Chemscore.Metal.Weighted>
-0.0000

> <Gold.Chemscore.Lipo.Weighted>
-10.9284

> <Gold.Chemscore.Internal_Hbond.Weighted>
0.0000

> <Gold.Chemscore.DEClash.Weighted>
0.1934

> <Gold.Chemscore.DEInternal.Weighted>
0.2591

> <Gold.Chemscore.Rot.Weighted>
4.8112

> <Gold.Chemscore.Internal.Correction.Weighted>
   9.000000E+99

> <Gold.Protein.RotatedTorsions>
[ 6907 6896 6895 6894 ] final   46.75 input  -60.11 | X-H torsion
[ 7974 7965 7964 7962 ] final  142.96 input  175.53 | X-H torsion
[ 8008 7997 7996 7995 ] final   68.82 input   59.86 | X-H torsion
[ 10167 10162 10161 10158 ] final  145.96 input  -65.29 | X-H torsion
[ 10718 10713 10712 10709 ] final   19.58 input   66.30 | X-H torsion
[ 10763 10752 10751 10750 ] final  -53.35 input  -60.55 | X-H torsion
[ 11005 11000 10999 10996 ] final  159.48 input  -57.11 | X-H torsion

> <Gold.Protein.ActiveResidues>
 VAL166  LYS551  ARG553  GLY616  TRP617  ASP618  TYR619  PRO620  LYS621  CYS622 
 ASP623  PHE694  ASN695  SER759  ASP760  ASP761  ALA762  ILE779  LEU786  VAL792 
 PHE793  MET794  SER795  GLU796  ALA797  LYS798  CYS799  TRP800  GLU811  SER814 

> <Gold.Protein.RotatedAtoms>
  152.2601  134.8043  160.0431 H   0  0  0  0  0  0  0  0  0  0  0  0  # atno 6907 bound_to 6896
  151.8692  133.3467  159.3737 H   0  0  0  0  0  0  0  0  0  0  0  0  # atno 6908 bound_to 6896
  150.7113  134.5056  159.5627 H   0  0  0  0  0  0  0  0  0  0  0  0  # atno 6909 bound_to 6896
  144.8962  139.5487  143.5775 H   0  0  0  0  0  0  0  0  0  0  0  0  # atno 7974 bound_to 7965
  155.7142  140.3494  155.4987 H   0  0  0  0  0  0  0  0  0  0  0  0  # atno 8008 bound_to 7997
  155.9328  140.1087  157.1140 H   0  0  0  0  0  0  0  0  0  0  0  0  # atno 8009 bound_to 7997
  154.4088  140.1228  156.4812 H   0  0  0  0  0  0  0  0  0  0  0  0  # atno 8010 bound_to 7997
  139.4916  144.5864  151.6769 H   0  0  0  0  0  0  0  0  0  0  0  0  # atno 10167 bound_to 10162
  157.1124  130.6514  149.5901 H   0  0  0  0  0  0  0  0  0  0  0  0  # atno 10718 bound_to 10713
  154.1574  135.6480  153.4978 H   0  0  0  0  0  0  0  0  0  0  0  0  # atno 10763 bound_to 10752
  153.0120  135.5352  154.6745 H   0  0  0  0  0  0  0  0  0  0  0  0  # atno 10764 bound_to 10752
  154.6050  135.2947  155.0466 H   0  0  0  0  0  0  0  0  0  0  0  0  # atno 10765 bound_to 10752
  140.1966  134.8368  157.2972 H   0  0  0  0  0  0  0  0  0  0  0  0  # atno 11005 bound_to 11000
  146.3083  139.7655  142.9039 LP  0  0  0  0  0  0  0  0  0  0  0  0  # atno 17320 bound_to 7965
  145.3695  141.0340  143.3239 LP  0  0  0  0  0  0  0  0  0  0  0  0  # atno 17321 bound_to 7965
  140.5481  144.0469  150.6115 LP  0  0  0  0  0  0  0  0  0  0  0  0  # atno 17342 bound_to 10162
  140.3514  143.2960  152.0482 LP  0  0  0  0  0  0  0  0  0  0  0  0  # atno 17343 bound_to 10162
  155.9847  130.4873  150.6997 LP  0  0  0  0  0  0  0  0  0  0  0  0  # atno 17370 bound_to 10713
  157.4548  131.0876  151.0808 LP  0  0  0  0  0  0  0  0  0  0  0  0  # atno 17371 bound_to 10713
  140.2100  134.4150  155.7617 LP  0  0  0  0  0  0  0  0  0  0  0  0  # atno 17394 bound_to 11000
  141.2227  133.7113  156.8323 LP  0  0  0  0  0  0  0  0  0  0  0  0  # atno 17395 bound_to 11000

$$$$
