AV-unprocessed.smi:44|AV-procd|sdf|406|dock6
  -GOLD-   2262016263D 1   1.00000     0.00000
 Structure written by MMmdl.
 28 30  0  0  0  0  0  0  0  0  2 V2000
  153.8765  137.4561  156.0002 O   0  0  0  0  0  0  0  0  0  0  0  0
  152.8958  137.9346  155.4339 C   0  0  0  0  0  0  0  0  0  0  0  0
  152.2205  137.3522  154.3923 N   0  5  0  0  0  0  0  0  0  0  0  0
  151.1182  137.9993  153.8374 C   0  0  0  0  0  0  0  0  0  0  0  0
  150.6153  139.1355  154.1831 N   0  0  0  0  0  0  0  0  0  0  0  0
  151.2788  139.7441  155.2283 C   0  0  0  0  0  0  0  0  0  0  0  0
  152.3718  139.2531  155.8897 C   0  0  0  0  0  0  0  0  0  0  0  0
  152.7841  140.1214  156.8930 N   0  0  0  0  0  0  0  0  0  0  0  0
  151.9009  141.1139  156.7834 C   0  0  0  0  0  0  0  0  0  0  0  0
  150.9764  140.9690  155.8098 N   0  0  0  0  0  0  0  0  0  0  0  0
  149.8602  141.8939  155.4318 C   0  0  2  0  0  0  0  0  0  0  0  0
  148.7255  141.7714  156.4496 C   0  0  0  0  0  0  0  0  0  0  0  0
  147.9241  140.6323  155.8614 C   0  0  0  0  0  0  0  0  0  0  0  0
  148.0284  140.9324  154.3662 C   0  0  2  0  0  0  0  0  0  0  0  0
  147.8312  139.6934  153.4800 C   0  0  0  0  0  0  0  0  0  0  0  0
  147.3051  140.0729  152.2267 O   0  0  0  0  0  0  0  0  0  0  0  0
  149.3406  141.4760  154.2014 O   0  0  0  0  0  0  0  0  0  0  0  0
  150.3220  142.8805  155.3800 H   0  0  0  0  0  0  0  0  0  0  0  0
  147.2991  141.7056  154.1174 H   0  0  0  0  0  0  0  0  0  0  0  0
  150.6775  137.4220  153.0206 H   0  0  0  0  0  0  0  0  0  0  0  0
  151.9325  141.9726  157.4362 H   0  0  0  0  0  0  0  0  0  0  0  0
  149.0903  141.5857  157.4606 H   0  0  0  0  0  0  0  0  0  0  0  0
  148.1469  142.6960  156.4446 H   0  0  0  0  0  0  0  0  0  0  0  0
  148.3940  139.6770  156.1009 H   0  0  0  0  0  0  0  0  0  0  0  0
  146.8946  140.6055  156.2189 H   0  0  0  0  0  0  0  0  0  0  0  0
  148.7603  139.1394  153.3498 H   0  0  0  0  0  0  0  0  0  0  0  0
  147.1137  139.0148  153.9422 H   0  0  0  0  0  0  0  0  0  0  0  0
  148.0084  140.0841  151.5958 H   0  0  0  0  0  0  0  0  0  0  0  0
  1  2  2  0  0  0  0
  2  7  1  0  0  0  0
  2  3  1  0  0  0  0
  3  4  1  0  0  0  0
  4  5  2  0  0  0  0
  4 20  1  0  0  0  0
  5  6  1  0  0  0  0
  6 10  1  0  0  0  0
  6  7  2  0  0  0  0
  7  8  1  0  0  0  0
  8  9  2  0  0  0  0
  9 10  1  0  0  0  0
  9 21  1  0  0  0  0
 10 11  1  0  0  0  0
 11 18  1  0  0  0  0
 11 17  1  0  0  0  0
 11 12  1  0  0  0  0
 12 13  1  0  0  0  0
 12 22  1  0  0  0  0
 12 23  1  0  0  0  0
 13 14  1  0  0  0  0
 13 24  1  0  0  0  0
 13 25  1  0  0  0  0
 14 19  1  0  0  0  0
 14 15  1  0  0  0  0
 14 17  1  0  0  0  0
 15 16  1  0  0  0  0
 15 26  1  0  0  0  0
 15 27  1  0  0  0  0
 16 28  1  0  0  0  0
M  CHG  1   3  -1
M  END
> <s_m_source_file>
AV-unprocessed.smi

> <i_m_source_file_index>
44

> <i_lp_mmshare_version>
43012

> <i_f3d_flags>
0

> <s_epik_input>
bjFbY0hdW25IXWMoPU8pYyhjMTIpbltjSF1uMltDQEhdM1tDSDJdW0NIMl1bQ0BIXShPMylbQ0gyXVtPSF0=

> <s_epik_cmdline>
J2VwaWtfcHl0aG9uJywgJy1waCcsICc3LjAnLCAnLXRuJywgJzgnLCAnLW1hJywgJzIwMCcsICctbWV0YWxfYmluZGluZycsICctaW1hZScsICc8aW5maWxlLm1hZT4nLCAnLW9tYWUnLCAnPG91dGZpbGUubWFlPic=

> <r_lp_tautomer_probability>
0.85571

> <r_epik_Ionization_Penalty>
2.55863

> <r_epik_Ionization_Penalty_Charging>
1.36424e-10

> <r_epik_Ionization_Penalty_Neutral>
2.55863

> <r_epik_State_Penalty>
2.63326

> <r_epik_Charging_Adjusted_Penalty>
2.63326

> <i_epik_Tot_Q>
-1

> <i_epik_Tot_abs_Q>
1

> <r_epik_Metal_State_Penalty>
0.475154

> <b_epik_Metal_Only>
1

> <s_epik_Chemistry_Notes>
This compound contains an acetal/aminal-like group ( X-CH(R)-Y where X, Y are N, S, or O) that may be acid/base labile, releasing an aldehyde.

> <s_lp_Force_Field>
OPLS_2005

> <r_lp_Energy>
44.8592

> <b_lp_Chiralities_Consistent>
1

> <s_lp_Variant>
AV-unprocessed.smi:44-12

> <Gold.Version>
5.8.1

> <Gold.Id.Protein>
6NUR|6NUR_protein|mol2

> <Gold.PLP.Fitness>
39.4349

> <Gold.PLP.PLP>
-24.6764

> <Gold.PLP.part.hbond>
-5.7239

> <Gold.PLP.part.metal>
0.0000

> <Gold.PLP.part.buried>
2.3268

> <Gold.PLP.part.nonpolar>
-20.2617

> <Gold.PLP.part.repulsive>
0.4698

> <Gold.PLP.ligand.clash>
0.0000

> <Gold.PLP.ligand.torsion>
0.7297

> <Gold.PLP.Chemscore.Hbond>
4.5098

> <Gold.PLP.Chemscore.CHOScore>
0.8897

> <Gold.PLP.Chemscore.Metal>
0.0000

> <Gold.Chemscore.Hbonds>
donor molecule, donor type, donor heavy atom, donor atom, acceptor molecule, acceptor atom, score
      L1  H    16    28       P1  7957  1.00
      P1  H  7997  8008       L1     8  0.83
      P1  H  8011  8017       L1    17  0.47
      P1  H 10752 10763       L1     1  0.07
      P1  H 10752 10765       L1     3  1.63
      L1  C     4    20       P1  7948  0.22
      L1  C     4    20       P1  7949  0.62

> <Gold.PLP.Chemscore.Internal.Correction>
0.0195

> <Gold.Rescore>
     Score         DG    S(hbond)    S(metal)    S(lipo)     H(rot)  DE(clash)    DE(int)     intcor
      6.69     -10.29       2.28        0.00      25.55       2.26       0.41       3.19       ----

> <Gold.Chemscore.Fitness>
6.6893

> <Gold.Chemscore.DG>
-10.2882

> <Gold.Chemscore.ZeroCoef>
-5.4800

> <Gold.Chemscore.Hbond>
2.2759

> <Gold.Chemscore.Metal>
0.0000

> <Gold.Chemscore.Lipo>
25.5475

> <Gold.Chemscore.Internal_Hbond>
0.0000

> <Gold.Chemscore.DEClash>
0.4067

> <Gold.Chemscore.DEInternal>
3.1923

> <Gold.Chemscore.Rot>
2.2588

> <Gold.Chemscore.Internal.Correction>
   9.000000E+99

> <Gold.Chemscore.Hbonds>
donor molecule, donor type, donor heavy atom, donor atom, acceptor molecule, acceptor atom, score
      L1  H    16    28       P1  7957  0.97
      P1  H  7997  8008       L1     8  0.42
      P1  H  8011  8017       L1    17  0.44
      P1  H 10752 10763       L1     1  0.06
      P1  H 10752 10765       L1     3  0.32

> <Gold.Chemscore.Hbond.Weighted>
-7.6017

> <Gold.Chemscore.Metal.Weighted>
-0.0000

> <Gold.Chemscore.Lipo.Weighted>
-2.9891

> <Gold.Chemscore.Internal_Hbond.Weighted>
0.0000

> <Gold.Chemscore.DEClash.Weighted>
0.4067

> <Gold.Chemscore.DEInternal.Weighted>
3.1923

> <Gold.Chemscore.Rot.Weighted>
5.7825

> <Gold.Chemscore.Internal.Correction.Weighted>
   9.000000E+99

> <Gold.Protein.RotatedTorsions>
[ 6907 6896 6895 6894 ] final   88.88 input  -60.11 | X-H torsion
[ 7974 7965 7964 7962 ] final -142.76 input  175.53 | X-H torsion
[ 8008 7997 7996 7995 ] final  -74.84 input   59.86 | X-H torsion
[ 10167 10162 10161 10158 ] final   76.74 input  -65.29 | X-H torsion
[ 10718 10713 10712 10709 ] final  -95.79 input   66.30 | X-H torsion
[ 10763 10752 10751 10750 ] final  162.27 input  -60.55 | X-H torsion
[ 11005 11000 10999 10996 ] final   62.08 input  -57.11 | X-H torsion

> <Gold.Protein.ActiveResidues>
 VAL166  LYS551  ARG553  GLY616  TRP617  ASP618  TYR619  PRO620  LYS621  CYS622 
 ASP623  PHE694  ASN695  SER759  ASP760  ASP761  ALA762  ILE779  LEU786  VAL792 
 PHE793  MET794  SER795  GLU796  ALA797  LYS798  CYS799  TRP800  GLU811  SER814 

> <Gold.Protein.RotatedAtoms>
  152.5430  134.2052  159.8727 H   0  0  0  0  0  0  0  0  0  0  0  0  # atno 6907 bound_to 6896
  151.2038  133.4588  159.2604 H   0  0  0  0  0  0  0  0  0  0  0  0  # atno 6908 bound_to 6896
  151.0963  134.9958  159.8482 H   0  0  0  0  0  0  0  0  0  0  0  0  # atno 6909 bound_to 6896
  144.8420  140.5919  143.5446 H   0  0  0  0  0  0  0  0  0  0  0  0  # atno 7974 bound_to 7965
  154.5365  140.0754  156.8436 H   0  0  0  0  0  0  0  0  0  0  0  0  # atno 8008 bound_to 7997
  155.3268  140.3399  155.4222 H   0  0  0  0  0  0  0  0  0  0  0  0  # atno 8009 bound_to 7997
  156.1833  140.1660  156.8220 H   0  0  0  0  0  0  0  0  0  0  0  0  # atno 8010 bound_to 7997
  139.9890  144.5771  150.7834 H   0  0  0  0  0  0  0  0  0  0  0  0  # atno 10167 bound_to 10162
  156.0050  130.5124  150.6128 H   0  0  0  0  0  0  0  0  0  0  0  0  # atno 10718 bound_to 10713
  154.2758  135.2764  155.2718 H   0  0  0  0  0  0  0  0  0  0  0  0  # atno 10763 bound_to 10752
  154.5261  135.5742  153.6724 H   0  0  0  0  0  0  0  0  0  0  0  0  # atno 10764 bound_to 10752
  152.9937  135.6216  154.2915 H   0  0  0  0  0  0  0  0  0  0  0  0  # atno 10765 bound_to 10752
  140.0117  134.6287  155.9771 H   0  0  0  0  0  0  0  0  0  0  0  0  # atno 11005 bound_to 11000
  145.4675  139.1506  143.3832 LP  0  0  0  0  0  0  0  0  0  0  0  0  # atno 17320 bound_to 7965
  146.2711  140.4807  142.8814 LP  0  0  0  0  0  0  0  0  0  0  0  0  # atno 17321 bound_to 7965
  140.7462  143.2886  151.3392 LP  0  0  0  0  0  0  0  0  0  0  0  0  # atno 17342 bound_to 10162
  139.6354  144.0641  152.2511 LP  0  0  0  0  0  0  0  0  0  0  0  0  # atno 17343 bound_to 10162
  157.3958  131.0802  151.1353 LP  0  0  0  0  0  0  0  0  0  0  0  0  # atno 17370 bound_to 10713
  157.2030  130.6403  149.5746 LP  0  0  0  0  0  0  0  0  0  0  0  0  # atno 17371 bound_to 10713
  141.1715  133.6537  156.4670 LP  0  0  0  0  0  0  0  0  0  0  0  0  # atno 17394 bound_to 11000
  140.4543  134.6900  157.5055 LP  0  0  0  0  0  0  0  0  0  0  0  0  # atno 17395 bound_to 11000

$$$$
