AV-unprocessed.smi:648|AV-procd|sdf|3172|dock8
  -GOLD-   22720 0 93D 1   1.00000     0.00000
 Structure written by MMmdl.
 46 47  0  0  0  0  0  0  0  0  2 V2000
  141.6672  134.5491  152.8516 C   0  0  0  0  0  0  0  0  0  0  0  0
  143.0124  134.4393  152.1184 C   0  0  2  0  0  0  0  0  0  0  0  0
  143.3744  132.9664  151.8460 C   0  0  0  0  0  0  0  0  0  0  0  0
  144.7160  132.7794  151.0975 C   0  0  0  0  0  0  0  0  0  0  0  0
  145.1111  131.2885  151.1749 C   0  0  0  0  0  0  0  0  0  0  0  0
  144.5588  133.1105  149.5956 C   0  0  0  0  0  0  0  0  0  0  0  0
  145.8429  133.6059  151.7879 C   0  0  0  0  0  0  0  0  0  0  0  0
  145.5198  135.0715  152.2120 C   0  0  2  0  0  0  0  0  0  0  0  0
  145.5442  136.0223  150.9838 C   0  0  0  0  0  0  0  0  0  0  0  0
  146.0838  137.2892  151.3100 O   0  0  0  0  0  0  0  0  0  0  0  0
  146.6168  135.5610  153.0985 N   0  3  0  0  0  0  0  0  0  0  0  0
  147.0267  134.7424  154.2636 C   0  0  0  0  0  0  0  0  0  0  0  0
  148.3212  133.9761  153.9570 C   0  0  0  0  0  0  0  0  0  0  0  0
  149.4336  134.4650  154.7477 N   0  0  0  0  0  0  0  0  0  0  0  0
  150.0504  135.6479  154.7447 C   0  0  0  0  0  0  0  0  0  0  0  0
  151.0425  135.7357  155.6195 N   0  0  0  0  0  0  0  0  0  0  0  0
  150.9799  134.4836  156.1630 C   0  0  0  0  0  0  0  0  0  0  0  0
  150.0321  133.6824  155.6755 N   0  0  0  0  0  0  0  0  0  0  0  0
  144.1383  135.1133  152.9249 C   0  0  0  0  0  0  0  0  0  0  0  0
  141.7007  134.0550  153.8232 H   0  0  0  0  0  0  0  0  0  0  0  0
  140.8656  134.0896  152.2726 H   0  0  0  0  0  0  0  0  0  0  0  0
  141.3946  135.5918  153.0180 H   0  0  0  0  0  0  0  0  0  0  0  0
  142.8892  134.9580  151.1691 H   0  0  0  0  0  0  0  0  0  0  0  0
  143.4210  132.4443  152.8032 H   0  0  0  0  0  0  0  0  0  0  0  0
  142.5708  132.4843  151.2872 H   0  0  0  0  0  0  0  0  0  0  0  0
  146.0520  131.0998  150.6561 H   0  0  0  0  0  0  0  0  0  0  0  0
  144.3531  130.6488  150.7209 H   0  0  0  0  0  0  0  0  0  0  0  0
  145.2349  130.9547  152.2057 H   0  0  0  0  0  0  0  0  0  0  0  0
  145.5245  133.1414  149.0902 H   0  0  0  0  0  0  0  0  0  0  0  0
  144.0519  134.0522  149.4087 H   0  0  0  0  0  0  0  0  0  0  0  0
  143.9573  132.3537  149.0903 H   0  0  0  0  0  0  0  0  0  0  0  0
  146.1190  133.0541  152.6853 H   0  0  0  0  0  0  0  0  0  0  0  0
  146.7420  133.5894  151.1702 H   0  0  0  0  0  0  0  0  0  0  0  0
  146.1411  135.5945  150.1774 H   0  0  0  0  0  0  0  0  0  0  0  0
  144.5581  136.2086  150.5744 H   0  0  0  0  0  0  0  0  0  0  0  0
  147.0253  137.2448  151.2329 H   0  0  0  0  0  0  0  0  0  0  0  0
  147.4289  135.7142  152.5181 H   0  0  0  0  0  0  0  0  0  0  0  0
  147.1949  135.3898  155.1246 H   0  0  0  0  0  0  0  0  0  0  0  0
  146.2429  134.0367  154.5358 H   0  0  0  0  0  0  0  0  0  0  0  0
  148.1939  132.9117  154.1602 H   0  0  0  0  0  0  0  0  0  0  0  0
  148.5790  134.0700  152.9011 H   0  0  0  0  0  0  0  0  0  0  0  0
  149.7677  136.4618  154.0930 H   0  0  0  0  0  0  0  0  0  0  0  0
  151.6522  134.1531  156.9411 H   0  0  0  0  0  0  0  0  0  0  0  0
  143.8648  136.1418  153.1629 H   0  0  0  0  0  0  0  0  0  0  0  0
  144.1878  134.5904  153.8796 H   0  0  0  0  0  0  0  0  0  0  0  0
  146.3213  136.4573  153.4597 H   0  0  0  0  0  0  0  0  0  0  0  0
  1  2  1  0  0  0  0
  1 20  1  0  0  0  0
  1 21  1  0  0  0  0
  1 22  1  0  0  0  0
  2 19  1  0  0  0  0
  2  3  1  0  0  0  0
  2 23  1  0  0  0  0
  3  4  1  0  0  0  0
  3 24  1  0  0  0  0
  3 25  1  0  0  0  0
  4  5  1  0  0  0  0
  4  6  1  0  0  0  0
  4  7  1  0  0  0  0
  5 26  1  0  0  0  0
  5 27  1  0  0  0  0
  5 28  1  0  0  0  0
  6 29  1  0  0  0  0
  6 30  1  0  0  0  0
  6 31  1  0  0  0  0
  7  8  1  0  0  0  0
  7 32  1  0  0  0  0
  7 33  1  0  0  0  0
  8  9  1  0  0  0  0
  8 11  1  0  0  0  0
  8 19  1  0  0  0  0
  9 10  1  0  0  0  0
  9 34  1  0  0  0  0
  9 35  1  0  0  0  0
 10 36  1  0  0  0  0
 11 12  1  0  0  0  0
 11 37  1  0  0  0  0
 11 46  1  0  0  0  0
 12 13  1  0  0  0  0
 12 38  1  0  0  0  0
 12 39  1  0  0  0  0
 13 14  1  0  0  0  0
 13 40  1  0  0  0  0
 13 41  1  0  0  0  0
 14 18  1  0  0  0  0
 14 15  1  0  0  0  0
 15 16  2  0  0  0  0
 15 42  1  0  0  0  0
 16 17  1  0  0  0  0
 17 18  2  0  0  0  0
 17 43  1  0  0  0  0
 19 44  1  0  0  0  0
 19 45  1  0  0  0  0
M  CHG  1  11   1
M  END
> <s_m_source_file>
AV-unprocessed.smi

> <i_m_source_file_index>
648

> <i_lp_mmshare_version>
43012

> <i_f3d_flags>
0

> <s_epik_input>
W0NIM11DMShbQ0gzXSlbQ0gyXVtDQEBIXShbQ0gzXSlbQ0gyXVtDQF0oW0NIMl0xKShbQ0gyXVtPSF0pW05IXVtDSDJdW0NIMl1uMltjSF1uW2NIXW4y

> <s_epik_cmdline>
J2VwaWtfcHl0aG9uJywgJy1waCcsICc3LjAnLCAnLXRuJywgJzgnLCAnLW1hJywgJzIwMCcsICctbWV0YWxfYmluZGluZycsICctaW1hZScsICc8aW5maWxlLm1hZT4nLCAnLW9tYWUnLCAnPG91dGZpbGUubWFlPic=

> <r_lp_tautomer_probability>
1

> <r_epik_Ionization_Penalty>
0.00942316

> <r_epik_Ionization_Penalty_Charging>
0.00942185

> <r_epik_Ionization_Penalty_Neutral>
1.31257e-06

> <r_epik_State_Penalty>
0.00715409

> <r_epik_Charging_Adjusted_Penalty>
0.0165759

> <i_epik_Tot_Q>
1

> <i_epik_Tot_abs_Q>
1

> <r_epik_Metal_State_Penalty>
0.00715563

> <b_epik_Metal_Only>
0

> <s_lp_Force_Field>
OPLS_2005

> <r_lp_Energy>
31.5344

> <b_lp_Chiralities_Consistent>
1

> <s_lp_Variant>
AV-unprocessed.smi:648-3

> <Gold.Version>
5.8.1

> <Gold.Id.Protein>
6NUR|6NUR_protein|mol2

> <Gold.PLP.Fitness>
45.7924

> <Gold.PLP.PLP>
-33.7027

> <Gold.PLP.part.hbond>
-3.6057

> <Gold.PLP.part.metal>
0.0000

> <Gold.PLP.part.buried>
-3.4754

> <Gold.PLP.part.nonpolar>
-27.2786

> <Gold.PLP.part.repulsive>
0.0803

> <Gold.PLP.ligand.clash>
0.0000

> <Gold.PLP.ligand.torsion>
1.4654

> <Gold.PLP.Chemscore.Hbond>
4.0000

> <Gold.PLP.Chemscore.CHOScore>
1.0000

> <Gold.PLP.Chemscore.Metal>
0.0000

> <Gold.Chemscore.Hbonds>
donor molecule, donor type, donor heavy atom, donor atom, acceptor molecule, acceptor atom, score
      L1  H    10    36       P1  7948  0.49
      L1  H    11    37       P1  7948  2.00
      P1  H 10752 10765       L1    16  0.67
      L1  C    15    42       P1  7948  0.90

> <Gold.PLP.Chemscore.Internal.Correction>
0.0206

> <Gold.Rescore>
     Score         DG    S(hbond)    S(metal)    S(lipo)     H(rot)  DE(clash)    DE(int)     intcor
     12.01     -14.00       2.62        0.00      67.40       3.17       0.04       1.95       ----

> <Gold.Chemscore.Fitness>
12.0107

> <Gold.Chemscore.DG>
-14.0047

> <Gold.Chemscore.ZeroCoef>
-5.4800

> <Gold.Chemscore.Hbond>
2.6247

> <Gold.Chemscore.Metal>
0.0000

> <Gold.Chemscore.Lipo>
67.4041

> <Gold.Chemscore.Internal_Hbond>
0.0000

> <Gold.Chemscore.DEClash>
0.0447

> <Gold.Chemscore.DEInternal>
1.9494

> <Gold.Chemscore.Rot>
3.1750

> <Gold.Chemscore.Internal.Correction>
   9.000000E+99

> <Gold.Chemscore.Hbonds>
donor molecule, donor type, donor heavy atom, donor atom, acceptor molecule, acceptor atom, score
      L1  H    10    36       P1  7948  0.47
      L1  H    11    37       P1  7948  1.00
      P1  H 10752 10765       L1    16  0.11

> <Gold.Chemscore.Hbond.Weighted>
-8.7664

> <Gold.Chemscore.Metal.Weighted>
-0.0000

> <Gold.Chemscore.Lipo.Weighted>
-7.8863

> <Gold.Chemscore.Internal_Hbond.Weighted>
0.0000

> <Gold.Chemscore.DEClash.Weighted>
0.0447

> <Gold.Chemscore.DEInternal.Weighted>
1.9494

> <Gold.Chemscore.Rot.Weighted>
8.1279

> <Gold.Chemscore.Internal.Correction.Weighted>
   9.000000E+99

> <Gold.Protein.RotatedTorsions>
[ 6907 6896 6895 6894 ] final  -38.91 input  -60.11 | X-H torsion
[ 7974 7965 7964 7962 ] final  -49.08 input  175.53 | X-H torsion
[ 8008 7997 7996 7995 ] final   65.13 input   59.86 | X-H torsion
[ 10167 10162 10161 10158 ] final   77.88 input  -65.29 | X-H torsion
[ 10718 10713 10712 10709 ] final  174.56 input   66.30 | X-H torsion
[ 10763 10752 10751 10750 ] final -174.56 input  -60.55 | X-H torsion
[ 11005 11000 10999 10996 ] final   47.01 input  -57.11 | X-H torsion

> <Gold.Protein.ActiveResidues>
 VAL166  LYS551  ARG553  GLY616  TRP617  ASP618  TYR619  PRO620  LYS621  CYS622 
 ASP623  PHE694  ASN695  SER759  ASP760  ASP761  ALA762  ILE779  LEU786  VAL792 
 PHE793  MET794  SER795  GLU796  ALA797  LYS798  CYS799  TRP800  GLU811  SER814 

> <Gold.Protein.RotatedAtoms>
  150.9968  134.9289  159.7930 H   0  0  0  0  0  0  0  0  0  0  0  0  # atno 6907 bound_to 6896
  152.5266  134.3208  159.9157 H   0  0  0  0  0  0  0  0  0  0  0  0  # atno 6908 bound_to 6896
  151.3214  133.3997  159.2689 H   0  0  0  0  0  0  0  0  0  0  0  0  # atno 6909 bound_to 6896
  145.9444  140.7632  142.9536 H   0  0  0  0  0  0  0  0  0  0  0  0  # atno 7974 bound_to 7965
  155.6569  140.3497  155.4768 H   0  0  0  0  0  0  0  0  0  0  0  0  # atno 8008 bound_to 7997
  155.9801  140.1173  157.0757 H   0  0  0  0  0  0  0  0  0  0  0  0  # atno 8009 bound_to 7997
  154.4189  140.1140  156.5409 H   0  0  0  0  0  0  0  0  0  0  0  0  # atno 8010 bound_to 7997
  139.9769  144.5854  150.7935 H   0  0  0  0  0  0  0  0  0  0  0  0  # atno 10167 bound_to 10162
  156.9477  131.0021  151.2955 H   0  0  0  0  0  0  0  0  0  0  0  0  # atno 10718 bound_to 10713
  154.5948  135.2848  155.0598 H   0  0  0  0  0  0  0  0  0  0  0  0  # atno 10763 bound_to 10752
  154.1884  135.6445  153.5057 H   0  0  0  0  0  0  0  0  0  0  0  0  # atno 10764 bound_to 10752
  153.0134  135.5440  154.6646 H   0  0  0  0  0  0  0  0  0  0  0  0  # atno 10765 bound_to 10752
  140.1318  134.4696  155.8516 H   0  0  0  0  0  0  0  0  0  0  0  0  # atno 11005 bound_to 11000
  144.6784  140.2333  143.7352 LP  0  0  0  0  0  0  0  0  0  0  0  0  # atno 17320 bound_to 7965
  145.8256  139.2063  143.1912 LP  0  0  0  0  0  0  0  0  0  0  0  0  # atno 17321 bound_to 7965
  140.7503  143.2952  151.3223 LP  0  0  0  0  0  0  0  0  0  0  0  0  # atno 17342 bound_to 10162
  139.6439  144.0488  152.2576 LP  0  0  0  0  0  0  0  0  0  0  0  0  # atno 17343 bound_to 10162
  157.5743  130.8332  149.8433 LP  0  0  0  0  0  0  0  0  0  0  0  0  # atno 17370 bound_to 10713
  156.0376  130.3747  150.1519 LP  0  0  0  0  0  0  0  0  0  0  0  0  # atno 17371 bound_to 10713
  141.2171  133.6799  156.7083 LP  0  0  0  0  0  0  0  0  0  0  0  0  # atno 17394 bound_to 11000
  140.2833  134.8299  157.3952 LP  0  0  0  0  0  0  0  0  0  0  0  0  # atno 17395 bound_to 11000

$$$$
