AV-unprocessed.smi:1125|AV-procd|sdf|4834|dock1
  -GOLD-   22720 3393D 1   1.00000     0.00000
 Structure written by MMmdl.
 46 47  0  0  0  0  0  0  0  0  2 V2000
  143.5990  132.7330  148.4316 C   0  0  0  0  0  0  0  0  0  0  0  0
  144.6600  133.2072  149.3459 N   0  3  2  0  0  0  0  0  0  0  0  0
  145.7082  132.1813  149.5741 C   0  0  0  0  0  0  0  0  0  0  0  0
  146.8563  132.7428  150.4301 C   0  0  0  0  0  0  0  0  0  0  0  0
  146.3315  133.2926  151.7665 C   0  0  1  0  0  0  0  0  0  0  0  0
  147.4301  133.8761  152.5289 N   0  0  0  0  0  0  0  0  0  0  0  0
  147.7788  133.5248  153.7772 C   0  0  0  0  0  0  0  0  0  0  0  0
  147.1664  132.6893  154.4418 O   0  0  0  0  0  0  0  0  0  0  0  0
  149.0067  134.2213  154.3659 C   0  0  0  0  0  0  0  0  0  0  0  0
  149.9235  133.2099  154.9908 C   0  0  0  0  0  0  0  0  0  0  0  0
  150.8367  133.4318  155.9905 C   0  0  0  0  0  0  0  0  0  0  0  0
  151.6767  131.9739  156.4359 S   0  0  0  0  0  0  0  0  0  0  0  0
  150.7454  131.0891  155.2219 C   0  0  0  0  0  0  0  0  0  0  0  0
  150.8848  129.6146  154.9287 C   0  0  0  0  0  0  0  0  0  0  0  0
  150.5863  128.7979  156.2013 C   0  0  0  0  0  0  0  0  0  0  0  0
  152.3201  129.2649  154.4796 C   0  0  0  0  0  0  0  0  0  0  0  0
  149.9269  129.2163  153.7897 C   0  0  0  0  0  0  0  0  0  0  0  0
  149.8915  131.8797  154.5610 N   0  0  0  0  0  0  0  0  0  0  0  0
  145.2271  134.3317  151.4969 C   0  0  0  0  0  0  0  0  0  0  0  0
  144.1127  133.7370  150.6196 C   0  0  0  0  0  0  0  0  0  0  0  0
  143.0611  131.8871  148.8615 H   0  0  0  0  0  0  0  0  0  0  0  0
  144.0243  132.4193  147.4776 H   0  0  0  0  0  0  0  0  0  0  0  0
  142.8805  133.5281  148.2290 H   0  0  0  0  0  0  0  0  0  0  0  0
  145.2674  131.3109  150.0630 H   0  0  0  0  0  0  0  0  0  0  0  0
  146.1015  131.8412  148.6155 H   0  0  0  0  0  0  0  0  0  0  0  0
  147.5969  131.9625  150.6104 H   0  0  0  0  0  0  0  0  0  0  0  0
  147.3680  133.5321  149.8773 H   0  0  0  0  0  0  0  0  0  0  0  0
  145.9094  132.4621  152.3359 H   0  0  0  0  0  0  0  0  0  0  0  0
  147.9950  134.5716  152.0623 H   0  0  0  0  0  0  0  0  0  0  0  0
  149.5151  134.7780  153.5774 H   0  0  0  0  0  0  0  0  0  0  0  0
  148.6875  134.9563  155.1057 H   0  0  0  0  0  0  0  0  0  0  0  0
  151.0596  134.3603  156.4953 H   0  0  0  0  0  0  0  0  0  0  0  0
  150.6976  127.7277  156.0225 H   0  0  0  0  0  0  0  0  0  0  0  0
  149.5671  128.9626  156.5529 H   0  0  0  0  0  0  0  0  0  0  0  0
  151.2617  129.0685  157.0137 H   0  0  0  0  0  0  0  0  0  0  0  0
  153.0536  129.5129  155.2478 H   0  0  0  0  0  0  0  0  0  0  0  0
  152.5984  129.7959  153.5685 H   0  0  0  0  0  0  0  0  0  0  0  0
  152.4211  128.1992  154.2718 H   0  0  0  0  0  0  0  0  0  0  0  0
  150.0161  128.1572  153.5455 H   0  0  0  0  0  0  0  0  0  0  0  0
  150.1355  129.7826  152.8812 H   0  0  0  0  0  0  0  0  0  0  0  0
  148.8866  129.4004  154.0599 H   0  0  0  0  0  0  0  0  0  0  0  0
  144.8016  134.6852  152.4367 H   0  0  0  0  0  0  0  0  0  0  0  0
  145.6521  135.2063  151.0022 H   0  0  0  0  0  0  0  0  0  0  0  0
  143.3688  134.5058  150.4068 H   0  0  0  0  0  0  0  0  0  0  0  0
  143.5988  132.9383  151.1569 H   0  0  0  0  0  0  0  0  0  0  0  0
  145.1114  133.9827  148.8822 H   0  0  0  0  0  0  0  0  0  0  0  0
  1  2  1  0  0  0  0
  1 21  1  0  0  0  0
  1 22  1  0  0  0  0
  1 23  1  0  0  0  0
  2 20  1  0  0  0  0
  2  3  1  0  0  0  0
  2 46  1  0  0  0  0
  3  4  1  0  0  0  0
  3 24  1  0  0  0  0
  3 25  1  0  0  0  0
  4  5  1  0  0  0  0
  4 26  1  0  0  0  0
  4 27  1  0  0  0  0
  5  6  1  0  0  0  0
  5 19  1  0  0  0  0
  5 28  1  0  0  0  0
  6  7  1  0  0  0  0
  6 29  1  0  0  0  0
  7  8  2  0  0  0  0
  7  9  1  0  0  0  0
  9 10  1  0  0  0  0
  9 30  1  0  0  0  0
  9 31  1  0  0  0  0
 10 18  1  0  0  0  0
 10 11  2  0  0  0  0
 11 12  1  0  0  0  0
 11 32  1  0  0  0  0
 12 13  1  0  0  0  0
 13 14  1  0  0  0  0
 13 18  2  0  0  0  0
 14 15  1  0  0  0  0
 14 16  1  0  0  0  0
 14 17  1  0  0  0  0
 15 33  1  0  0  0  0
 15 34  1  0  0  0  0
 15 35  1  0  0  0  0
 16 36  1  0  0  0  0
 16 37  1  0  0  0  0
 16 38  1  0  0  0  0
 17 39  1  0  0  0  0
 17 40  1  0  0  0  0
 17 41  1  0  0  0  0
 19 20  1  0  0  0  0
 19 42  1  0  0  0  0
 19 43  1  0  0  0  0
 20 44  1  0  0  0  0
 20 45  1  0  0  0  0
M  CHG  1   2   1
M  END
> <s_m_source_file>
AV-unprocessed.smi

> <i_m_source_file_index>
1125

> <i_lp_mmshare_version>
43012

> <i_f3d_flags>
0

> <s_epik_input>
W0NIM11OMVtDSDJdW0NIMl1bQ0hdKFtDSDJdW0NIMl0xKVtOSF1DKD1PKVtDSDJdYzJbY0hdc2MobjIpQyhbQ0gzXSkoW0NIM10pW0NIM10=

> <s_epik_cmdline>
J2VwaWtfcHl0aG9uJywgJy1waCcsICc3LjAnLCAnLXRuJywgJzgnLCAnLW1hJywgJzIwMCcsICctbWV0YWxfYmluZGluZycsICctaW1hZScsICc8aW5maWxlLm1hZT4nLCAnLW9tYWUnLCAnPG91dGZpbGUubWFlPic=

> <r_epik_Ionization_Penalty>
0.00829478

> <r_epik_Ionization_Penalty_Charging>
0.0082618

> <r_epik_Ionization_Penalty_Neutral>
3.29858e-05

> <r_epik_State_Penalty>
0.00621662

> <r_epik_Charging_Adjusted_Penalty>
0.0144784

> <i_epik_Tot_Q>
1

> <i_epik_Tot_abs_Q>
1

> <r_epik_Metal_State_Penalty>
0.00621672

> <b_epik_Metal_Only>
0

> <s_lp_Force_Field>
OPLS_2005

> <r_lp_Energy>
7.4161

> <b_lp_Chiralities_Consistent>
1

> <s_lp_Variant>
AV-unprocessed.smi:1125-1

> <Gold.Version>
5.8.1

> <Gold.Id.Protein>
6NUR|6NUR_protein|mol2

> <Gold.PLP.Fitness>
41.4336

> <Gold.PLP.PLP>
-36.4012

> <Gold.PLP.part.hbond>
-2.0000

> <Gold.PLP.part.metal>
0.0000

> <Gold.PLP.part.buried>
-2.1261

> <Gold.PLP.part.nonpolar>
-33.2922

> <Gold.PLP.part.repulsive>
0.2196

> <Gold.PLP.ligand.clash>
0.0000

> <Gold.PLP.ligand.torsion>
0.5102

> <Gold.PLP.Chemscore.Hbond>
2.0000

> <Gold.PLP.Chemscore.CHOScore>
0.0000

> <Gold.PLP.Chemscore.Metal>
0.0000

> <Gold.Chemscore.Hbonds>
donor molecule, donor type, donor heavy atom, donor atom, acceptor molecule, acceptor atom, score
      L1  H     2    46       P1  7921  1.00
      L1  H     6    29       P1  7948  0.95

> <Gold.PLP.Chemscore.Internal.Correction>
0.0527

> <Gold.Rescore>
     Score         DG    S(hbond)    S(metal)    S(lipo)     H(rot)  DE(clash)    DE(int)     intcor
     17.03     -19.05       1.81        0.00      94.89       1.40       0.25       1.76       ----

> <Gold.Chemscore.Fitness>
17.0341

> <Gold.Chemscore.DG>
-19.0457

> <Gold.Chemscore.ZeroCoef>
-5.4800

> <Gold.Chemscore.Hbond>
1.8129

> <Gold.Chemscore.Metal>
0.0000

> <Gold.Chemscore.Lipo>
94.8908

> <Gold.Chemscore.Internal_Hbond>
0.0000

> <Gold.Chemscore.DEClash>
0.2535

> <Gold.Chemscore.DEInternal>
1.7582

> <Gold.Chemscore.Rot>
1.4030

> <Gold.Chemscore.Internal.Correction>
   9.000000E+99

> <Gold.Chemscore.Hbonds>
donor molecule, donor type, donor heavy atom, donor atom, acceptor molecule, acceptor atom, score
      L1  H     2    46       P1  7921  0.95
      L1  H     6    29       P1  7948  0.21

> <Gold.Chemscore.Hbond.Weighted>
-6.0552

> <Gold.Chemscore.Metal.Weighted>
-0.0000

> <Gold.Chemscore.Lipo.Weighted>
-11.1022

> <Gold.Chemscore.Internal_Hbond.Weighted>
0.0000

> <Gold.Chemscore.DEClash.Weighted>
0.2535

> <Gold.Chemscore.DEInternal.Weighted>
1.7582

> <Gold.Chemscore.Rot.Weighted>
3.5917

> <Gold.Chemscore.Internal.Correction.Weighted>
   9.000000E+99

> <Gold.Protein.RotatedTorsions>
[ 6907 6896 6895 6894 ] final   67.39 input  -60.11 | X-H torsion
[ 7974 7965 7964 7962 ] final -105.30 input  175.53 | X-H torsion
[ 8008 7997 7996 7995 ] final -157.35 input   59.86 | X-H torsion
[ 10167 10162 10161 10158 ] final  167.27 input  -65.29 | X-H torsion
[ 10718 10713 10712 10709 ] final -165.24 input   66.30 | X-H torsion
[ 10763 10752 10751 10750 ] final   76.29 input  -60.55 | X-H torsion
[ 11005 11000 10999 10996 ] final -138.51 input  -57.11 | X-H torsion

> <Gold.Protein.ActiveResidues>
 VAL166  LYS551  ARG553  GLY616  TRP617  ASP618  TYR619  PRO620  LYS621  CYS622 
 ASP623  PHE694  ASN695  SER759  ASP760  ASP761  ALA762  ILE779  LEU786  VAL792 
 PHE793  MET794  SER795  GLU796  ALA797  LYS798  CYS799  TRP800  GLU811  SER814 

> <Gold.Protein.RotatedAtoms>
  152.4548  134.5315  159.9812 H   0  0  0  0  0  0  0  0  0  0  0  0  # atno 6907 bound_to 6896
  151.5378  133.3432  159.2938 H   0  0  0  0  0  0  0  0  0  0  0  0  # atno 6908 bound_to 6896
  150.8489  134.7838  159.7055 H   0  0  0  0  0  0  0  0  0  0  0  0  # atno 6909 bound_to 6896
  145.2321  140.9174  143.3198 H   0  0  0  0  0  0  0  0  0  0  0  0  # atno 7974 bound_to 7965
  155.7310  140.0802  157.2288 H   0  0  0  0  0  0  0  0  0  0  0  0  # atno 8008 bound_to 7997
  154.4033  140.1595  156.2564 H   0  0  0  0  0  0  0  0  0  0  0  0  # atno 8009 bound_to 7997
  155.9108  140.3404  155.6100 H   0  0  0  0  0  0  0  0  0  0  0  0  # atno 8010 bound_to 7997
  139.4942  144.3939  151.9486 H   0  0  0  0  0  0  0  0  0  0  0  0  # atno 10167 bound_to 10162
  156.6506  130.9006  151.3012 H   0  0  0  0  0  0  0  0  0  0  0  0  # atno 10718 bound_to 10713
  153.0715  135.4957  154.8314 H   0  0  0  0  0  0  0  0  0  0  0  0  # atno 10763 bound_to 10752
  154.7028  135.3005  154.9317 H   0  0  0  0  0  0  0  0  0  0  0  0  # atno 10764 bound_to 10752
  154.0035  135.6763  153.4813 H   0  0  0  0  0  0  0  0  0  0  0  0  # atno 10765 bound_to 10752
  140.8609  134.2170  157.4708 H   0  0  0  0  0  0  0  0  0  0  0  0  # atno 11005 bound_to 11000
  144.9666  139.3923  143.6329 LP  0  0  0  0  0  0  0  0  0  0  0  0  # atno 17320 bound_to 7965
  146.3350  139.8745  142.8834 LP  0  0  0  0  0  0  0  0  0  0  0  0  # atno 17321 bound_to 7965
  140.3377  144.3240  150.5973 LP  0  0  0  0  0  0  0  0  0  0  0  0  # atno 17342 bound_to 10162
  140.5592  143.2194  151.7795 LP  0  0  0  0  0  0  0  0  0  0  0  0  # atno 17343 bound_to 10162
  157.7142  130.9477  150.1195 LP  0  0  0  0  0  0  0  0  0  0  0  0  # atno 17370 bound_to 10713
  156.2087  130.3665  149.8697 LP  0  0  0  0  0  0  0  0  0  0  0  0  # atno 17371 bound_to 10713
  139.8707  134.9729  156.4790 LP  0  0  0  0  0  0  0  0  0  0  0  0  # atno 17394 bound_to 11000
  140.8684  133.8007  155.9338 LP  0  0  0  0  0  0  0  0  0  0  0  0  # atno 17395 bound_to 11000

$$$$
