AV-unprocessed.smi:573|AV-procd|sdf|2969|dock9
  -GOLD-   2262023473D 1   1.00000     0.00000
 Structure written by MMmdl.
 45 47  0  0  0  0  0  0  0  0  2 V2000
  146.4454  140.4577  154.0151 C   0  0  0  0  0  0  0  0  0  0  0  0
  147.3064  139.2681  153.5653 C   0  0  2  0  0  0  0  0  0  0  0  0
  148.6625  139.6563  153.6111 O   0  0  0  0  0  0  0  0  0  0  0  0
  146.9947  138.8016  152.1308 C   0  0  0  0  0  0  0  0  0  0  0  0
  145.6330  138.3081  151.9820 N   0  0  0  0  0  0  0  0  0  0  0  0
  145.4143  136.9412  151.7755 C   0  0  0  0  0  0  0  0  0  0  0  0
  146.3480  136.0267  151.3999 N   0  3  0  0  0  0  0  0  0  0  0  0
  145.7306  134.7753  151.3205 C   0  0  0  0  0  0  0  0  0  0  0  0
  146.2494  133.5286  150.9852 C   0  0  0  0  0  0  0  0  0  0  0  0
  145.3513  132.4416  151.0083 C   0  0  0  0  0  0  0  0  0  0  0  0
  143.9961  132.6149  151.3565 C   0  0  0  0  0  0  0  0  0  0  0  0
  143.4779  133.8828  151.6927 C   0  0  0  0  0  0  0  0  0  0  0  0
  144.3687  134.9558  151.6639 C   0  0  0  0  0  0  0  0  0  0  0  0
  144.2155  136.3233  151.9295 N   0  0  0  0  0  0  0  0  0  0  0  0
  142.9054  136.8612  152.3233 C   0  0  0  0  0  0  0  0  0  0  0  0
  142.9619  137.5816  153.6801 C   0  0  1  0  0  0  0  0  0  0  0  0
  141.6515  138.3289  153.9910 C   0  0  0  0  0  0  0  0  0  0  0  0
  141.7227  138.9854  155.3744 C   0  0  0  0  0  0  0  0  0  0  0  0
  142.1187  137.9406  156.4232 C   0  0  0  0  0  0  0  0  0  0  0  0
  143.3988  137.2069  155.9920 C   0  0  0  0  0  0  0  0  0  0  0  0
  143.2146  136.6230  154.7061 O   0  0  0  0  0  0  0  0  0  0  0  0
  145.3873  140.1950  154.0336 H   0  0  0  0  0  0  0  0  0  0  0  0
  146.5642  141.3108  153.3463 H   0  0  0  0  0  0  0  0  0  0  0  0
  146.7174  140.7820  155.0202 H   0  0  0  0  0  0  0  0  0  0  0  0
  147.1786  138.4427  154.2664 H   0  0  0  0  0  0  0  0  0  0  0  0
  148.9515  139.8504  152.7324 H   0  0  0  0  0  0  0  0  0  0  0  0
  147.1376  139.6267  151.4322 H   0  0  0  0  0  0  0  0  0  0  0  0
  147.6929  138.0208  151.8262 H   0  0  0  0  0  0  0  0  0  0  0  0
  144.8729  138.8838  152.3154 H   0  0  0  0  0  0  0  0  0  0  0  0
  147.2877  133.3918  150.7209 H   0  0  0  0  0  0  0  0  0  0  0  0
  145.7100  131.4541  150.7560 H   0  0  0  0  0  0  0  0  0  0  0  0
  143.3393  131.7569  151.3670 H   0  0  0  0  0  0  0  0  0  0  0  0
  142.4392  134.0005  151.9632 H   0  0  0  0  0  0  0  0  0  0  0  0
  142.5874  137.5538  151.5432 H   0  0  0  0  0  0  0  0  0  0  0  0
  142.1723  136.0547  152.3332 H   0  0  0  0  0  0  0  0  0  0  0  0
  143.7871  138.2960  153.6572 H   0  0  0  0  0  0  0  0  0  0  0  0
  141.4556  139.0845  153.2298 H   0  0  0  0  0  0  0  0  0  0  0  0
  140.8137  137.6307  153.9619 H   0  0  0  0  0  0  0  0  0  0  0  0
  142.4583  139.7909  155.3615 H   0  0  0  0  0  0  0  0  0  0  0  0
  140.7650  139.4387  155.6314 H   0  0  0  0  0  0  0  0  0  0  0  0
  142.2642  138.4161  157.3935 H   0  0  0  0  0  0  0  0  0  0  0  0
  141.3097  137.2195  156.5457 H   0  0  0  0  0  0  0  0  0  0  0  0
  144.2512  137.8878  155.9745 H   0  0  0  0  0  0  0  0  0  0  0  0
  143.6368  136.4180  156.7055 H   0  0  0  0  0  0  0  0  0  0  0  0
  147.3200  136.2399  151.2174 H   0  0  0  0  0  0  0  0  0  0  0  0
  1  2  1  0  0  0  0
  1 22  1  0  0  0  0
  1 23  1  0  0  0  0
  1 24  1  0  0  0  0
  2  3  1  0  0  0  0
  2  4  1  0  0  0  0
  2 25  1  0  0  0  0
  3 26  1  0  0  0  0
  4  5  1  0  0  0  0
  4 27  1  0  0  0  0
  4 28  1  0  0  0  0
  5  6  1  0  0  0  0
  5 29  1  0  0  0  0
  6 14  1  0  0  0  0
  6  7  2  0  0  0  0
  7  8  1  0  0  0  0
  7 45  1  0  0  0  0
  8 13  2  0  0  0  0
  8  9  1  0  0  0  0
  9 10  2  0  0  0  0
  9 30  1  0  0  0  0
 10 11  1  0  0  0  0
 10 31  1  0  0  0  0
 11 12  2  0  0  0  0
 11 32  1  0  0  0  0
 12 13  1  0  0  0  0
 12 33  1  0  0  0  0
 13 14  1  0  0  0  0
 14 15  1  0  0  0  0
 15 16  1  0  0  0  0
 15 34  1  0  0  0  0
 15 35  1  0  0  0  0
 16 21  1  0  0  0  0
 16 17  1  0  0  0  0
 16 36  1  0  0  0  0
 17 18  1  0  0  0  0
 17 37  1  0  0  0  0
 17 38  1  0  0  0  0
 18 19  1  0  0  0  0
 18 39  1  0  0  0  0
 18 40  1  0  0  0  0
 19 20  1  0  0  0  0
 19 41  1  0  0  0  0
 19 42  1  0  0  0  0
 20 21  1  0  0  0  0
 20 43  1  0  0  0  0
 20 44  1  0  0  0  0
M  CHG  1   7   1
M  END
> <s_m_source_file>
AV-unprocessed.smi

> <i_m_source_file_index>
573

> <i_lp_mmshare_version>
43012

> <i_f3d_flags>
0

> <s_epik_input>
W0NIM11bQ0BIXShbT0hdKVtDSDJdW05IXWMobjEpbihjKGMxMilbY0hdW2NIXVtjSF1bY0hdMilbQ0gyXVtDQEBIXTNbQ0gyXVtDSDJdW0NIMl1bQ0gyXU8z

> <s_epik_cmdline>
J2VwaWtfcHl0aG9uJywgJy1waCcsICc3LjAnLCAnLXRuJywgJzgnLCAnLW1hJywgJzIwMCcsICctbWV0YWxfYmluZGluZycsICctaW1hZScsICc8aW5maWxlLm1hZT4nLCAnLW9tYWUnLCAnPG91dGZpbGUubWFlPic=

> <r_epik_Ionization_Penalty>
0.0692245

> <r_epik_Ionization_Penalty_Charging>
0.0692223

> <r_epik_Ionization_Penalty_Neutral>
2.1869e-06

> <r_epik_State_Penalty>
0.0606215

> <r_epik_Charging_Adjusted_Penalty>
0.129844

> <i_epik_Tot_Q>
1

> <i_epik_Tot_abs_Q>
1

> <r_epik_Metal_State_Penalty>
2.77811

> <b_epik_Metal_Only>
0

> <s_lp_Force_Field>
OPLS_2005

> <r_lp_Energy>
19.2261

> <b_lp_Chiralities_Consistent>
1

> <s_lp_Variant>
AV-unprocessed.smi:573-3

> <Gold.Version>
5.8.1

> <Gold.Id.Protein>
6NUR|6NUR_protein|mol2

> <Gold.PLP.Fitness>
46.2850

> <Gold.PLP.PLP>
-31.9970

> <Gold.PLP.part.hbond>
-4.0000

> <Gold.PLP.part.metal>
0.0000

> <Gold.PLP.part.buried>
-3.5766

> <Gold.PLP.part.nonpolar>
-25.0268

> <Gold.PLP.part.repulsive>
0.1500

> <Gold.PLP.ligand.clash>
0.0000

> <Gold.PLP.ligand.torsion>
0.0962

> <Gold.PLP.Chemscore.Hbond>
4.8240

> <Gold.PLP.Chemscore.CHOScore>
0.0000

> <Gold.PLP.Chemscore.Metal>
0.0000

> <Gold.Chemscore.Hbonds>
donor molecule, donor type, donor heavy atom, donor atom, acceptor molecule, acceptor atom, score
      L1  H     3    26       P1  7957  1.00
      L1  H     5    29       P1 10175  2.00
      L1  H     7    45       P1  7948  1.89

> <Gold.PLP.Chemscore.Internal.Correction>
0.0084

> <Gold.Rescore>
     Score         DG    S(hbond)    S(metal)    S(lipo)     H(rot)  DE(clash)    DE(int)     intcor
     17.56     -17.85       2.86        0.00      69.38       2.07       0.25       0.03       ----

> <Gold.Chemscore.Fitness>
17.5633

> <Gold.Chemscore.DG>
-17.8477

> <Gold.Chemscore.ZeroCoef>
-5.4800

> <Gold.Chemscore.Hbond>
2.8591

> <Gold.Chemscore.Metal>
0.0000

> <Gold.Chemscore.Lipo>
69.3791

> <Gold.Chemscore.Internal_Hbond>
0.0000

> <Gold.Chemscore.DEClash>
0.2536

> <Gold.Chemscore.DEInternal>
0.0309

> <Gold.Chemscore.Rot>
2.0699

> <Gold.Chemscore.Internal.Correction>
   9.000000E+99

> <Gold.Chemscore.Hbonds>
donor molecule, donor type, donor heavy atom, donor atom, acceptor molecule, acceptor atom, score
      L1  H     3    26       P1  7957  1.00
      L1  H     5    29       P1 10175  0.97
      L1  H     7    45       P1  7948  0.90

> <Gold.Chemscore.Hbond.Weighted>
-9.5494

> <Gold.Chemscore.Metal.Weighted>
-0.0000

> <Gold.Chemscore.Lipo.Weighted>
-8.1174

> <Gold.Chemscore.Internal_Hbond.Weighted>
0.0000

> <Gold.Chemscore.DEClash.Weighted>
0.2536

> <Gold.Chemscore.DEInternal.Weighted>
0.0309

> <Gold.Chemscore.Rot.Weighted>
5.2991

> <Gold.Chemscore.Internal.Correction.Weighted>
   9.000000E+99

> <Gold.Protein.RotatedTorsions>
[ 6907 6896 6895 6894 ] final  -88.34 input  -60.11 | X-H torsion
[ 7974 7965 7964 7962 ] final  -97.30 input  175.53 | X-H torsion
[ 8008 7997 7996 7995 ] final  145.78 input   59.86 | X-H torsion
[ 10167 10162 10161 10158 ] final -153.91 input  -65.29 | X-H torsion
[ 10718 10713 10712 10709 ] final  173.71 input   66.30 | X-H torsion
[ 10763 10752 10751 10750 ] final   20.29 input  -60.55 | X-H torsion
[ 11005 11000 10999 10996 ] final  123.45 input  -57.11 | X-H torsion

> <Gold.Protein.ActiveResidues>
 VAL166  LYS551  ARG553  GLY616  TRP617  ASP618  TYR619  PRO620  LYS621  CYS622 
 ASP623  PHE694  ASN695  SER759  ASP760  ASP761  ALA762  ILE779  LEU786  VAL792 
 PHE793  MET794  SER795  GLU796  ALA797  LYS798  CYS799  TRP800  GLU811  SER814 

> <Gold.Protein.RotatedAtoms>
  150.6868  134.2757  159.4606 H   0  0  0  0  0  0  0  0  0  0  0  0  # atno 6907 bound_to 6896
  152.0675  134.9552  160.0584 H   0  0  0  0  0  0  0  0  0  0  0  0  # atno 6908 bound_to 6896
  152.0955  133.4188  159.4600 H   0  0  0  0  0  0  0  0  0  0  0  0  # atno 6909 bound_to 6896
  145.3355  140.9450  143.2638 H   0  0  0  0  0  0  0  0  0  0  0  0  # atno 7974 bound_to 7965
  156.2874  140.2200  156.5271 H   0  0  0  0  0  0  0  0  0  0  0  0  # atno 8008 bound_to 7997
  154.7480  140.0482  157.0890 H   0  0  0  0  0  0  0  0  0  0  0  0  # atno 8009 bound_to 7997
  155.0146  140.3117  155.4819 H   0  0  0  0  0  0  0  0  0  0  0  0  # atno 8010 bound_to 7997
  139.7057  143.9190  152.2447 H   0  0  0  0  0  0  0  0  0  0  0  0  # atno 10167 bound_to 10162
  156.9602  131.0058  151.2929 H   0  0  0  0  0  0  0  0  0  0  0  0  # atno 10718 bound_to 10713
  153.1090  135.6692  153.9535 H   0  0  0  0  0  0  0  0  0  0  0  0  # atno 10763 bound_to 10752
  153.9084  135.3028  155.3450 H   0  0  0  0  0  0  0  0  0  0  0  0  # atno 10764 bound_to 10752
  154.7510  135.5034  153.9366 H   0  0  0  0  0  0  0  0  0  0  0  0  # atno 10765 bound_to 10752
  139.9313  134.9641  156.8261 H   0  0  0  0  0  0  0  0  0  0  0  0  # atno 11005 bound_to 11000
  144.8831  139.4877  143.6713 LP  0  0  0  0  0  0  0  0  0  0  0  0  # atno 17320 bound_to 7965
  146.3028  139.7483  142.9078 LP  0  0  0  0  0  0  0  0  0  0  0  0  # atno 17321 bound_to 7965
  139.9045  144.6892  150.8629 LP  0  0  0  0  0  0  0  0  0  0  0  0  # atno 17342 bound_to 10162
  140.7721  143.3489  151.2055 LP  0  0  0  0  0  0  0  0  0  0  0  0  # atno 17343 bound_to 10162
  157.5663  130.8280  149.8331 LP  0  0  0  0  0  0  0  0  0  0  0  0  # atno 17370 bound_to 10713
  156.0325  130.3760  150.1648 LP  0  0  0  0  0  0  0  0  0  0  0  0  # atno 17371 bound_to 10713
  140.6194  134.0008  155.7611 LP  0  0  0  0  0  0  0  0  0  0  0  0  # atno 17394 bound_to 11000
  141.0903  133.9927  157.3247 LP  0  0  0  0  0  0  0  0  0  0  0  0  # atno 17395 bound_to 11000

$$$$
