AV-unprocessed.smi:3263|AV-procd|sdf|12492|dock9
  -GOLD-   2272018393D 1   1.00000     0.00000
 Structure written by MMmdl.
 42 44  0  0  0  0  0  0  0  0  2 V2000
  153.1155  139.4000  157.9092 O   0  0  0  0  0  0  0  0  0  0  0  0
  151.9719  139.6242  157.5123 C   0  0  0  0  0  0  0  0  0  0  0  0
  151.1511  140.7694  158.1150 C   0  0  0  0  0  0  0  0  0  0  0  0
  151.9243  142.1053  158.1921 C   0  0  2  0  0  0  0  0  0  0  0  0
  152.4271  142.4680  159.6108 C   0  0  0  0  0  0  0  0  0  0  0  0
  151.8382  143.8712  159.8422 C   0  0  1  0  0  0  0  0  0  0  0  0
  152.5397  144.8846  158.9189 C   0  0  0  0  0  0  0  0  0  0  0  0
  151.9694  144.5309  157.5323 C   0  0  0  0  0  0  0  0  0  0  0  0
  151.0516  143.3321  157.8390 C   0  0  2  0  0  0  0  0  0  0  0  0
  150.4687  143.7395  159.1893 C   0  0  0  0  0  0  0  0  0  0  0  0
  151.3758  138.9073  156.5474 N   0  0  0  0  0  0  0  0  0  0  0  0
  151.9775  137.7744  155.8549 C   0  0  0  0  0  0  0  0  0  0  0  0
  151.0228  137.1791  154.8066 C   0  0  0  0  0  0  0  0  0  0  0  0
  150.6440  135.7459  155.1249 C   0  0  0  0  0  0  0  0  0  0  0  0
  151.1255  135.0801  156.2729 C   0  0  0  0  0  0  0  0  0  0  0  0
  150.7279  133.7485  156.5147 C   0  0  0  0  0  0  0  0  0  0  0  0
  149.8582  133.1117  155.6052 C   0  0  0  0  0  0  0  0  0  0  0  0
  149.4075  133.8239  154.4749 C   0  0  0  0  0  0  0  0  0  0  0  0
  149.8109  135.0984  154.2781 N   0  3  0  0  0  0  0  0  0  0  0  0
  150.2614  140.8994  157.4978 H   0  0  0  0  0  0  0  0  0  0  0  0
  150.7959  140.4822  159.1057 H   0  0  0  0  0  0  0  0  0  0  0  0
  152.7672  142.0553  157.5008 H   0  0  0  0  0  0  0  0  0  0  0  0
  152.0420  141.7752  160.3603 H   0  0  0  0  0  0  0  0  0  0  0  0
  153.5155  142.4570  159.6803 H   0  0  0  0  0  0  0  0  0  0  0  0
  151.8226  144.1710  160.8903 H   0  0  0  0  0  0  0  0  0  0  0  0
  152.2781  145.9079  159.1915 H   0  0  0  0  0  0  0  0  0  0  0  0
  153.6258  144.7933  158.9575 H   0  0  0  0  0  0  0  0  0  0  0  0
  151.3920  145.3657  157.1331 H   0  0  0  0  0  0  0  0  0  0  0  0
  152.7484  144.2895  156.8083 H   0  0  0  0  0  0  0  0  0  0  0  0
  150.3154  143.1429  157.0573 H   0  0  0  0  0  0  0  0  0  0  0  0
  149.8421  142.9726  159.6472 H   0  0  0  0  0  0  0  0  0  0  0  0
  149.9133  144.6786  159.1553 H   0  0  0  0  0  0  0  0  0  0  0  0
  150.4345  139.1595  156.2825 H   0  0  0  0  0  0  0  0  0  0  0  0
  152.9161  138.0784  155.3882 H   0  0  0  0  0  0  0  0  0  0  0  0
  152.2321  137.0205  156.6002 H   0  0  0  0  0  0  0  0  0  0  0  0
  150.1146  137.7799  154.7417 H   0  0  0  0  0  0  0  0  0  0  0  0
  151.4820  137.2105  153.8176 H   0  0  0  0  0  0  0  0  0  0  0  0
  151.7893  135.5821  156.9620 H   0  0  0  0  0  0  0  0  0  0  0  0
  151.0849  133.2225  157.3880 H   0  0  0  0  0  0  0  0  0  0  0  0
  149.5408  132.0927  155.7730 H   0  0  0  0  0  0  0  0  0  0  0  0
  148.7411  133.4161  153.7287 H   0  0  0  0  0  0  0  0  0  0  0  0
  149.4709  135.5950  153.4543 H   0  0  0  0  0  0  0  0  0  0  0  0
  1  2  2  0  0  0  0
  2  3  1  0  0  0  0
  2 11  1  0  0  0  0
  3  4  1  0  0  0  0
  3 20  1  0  0  0  0
  3 21  1  0  0  0  0
  4  9  1  0  0  0  0
  4  5  1  0  0  0  0
  4 22  1  0  0  0  0
  5  6  1  0  0  0  0
  5 23  1  0  0  0  0
  5 24  1  0  0  0  0
  6 10  1  0  0  0  0
  6  7  1  0  0  0  0
  6 25  1  0  0  0  0
  7  8  1  0  0  0  0
  7 26  1  0  0  0  0
  7 27  1  0  0  0  0
  8  9  1  0  0  0  0
  8 28  1  0  0  0  0
  8 29  1  0  0  0  0
  9 10  1  0  0  0  0
  9 30  1  0  0  0  0
 10 31  1  0  0  0  0
 10 32  1  0  0  0  0
 11 12  1  0  0  0  0
 11 33  1  0  0  0  0
 12 13  1  0  0  0  0
 12 34  1  0  0  0  0
 12 35  1  0  0  0  0
 13 14  1  0  0  0  0
 13 36  1  0  0  0  0
 13 37  1  0  0  0  0
 14 19  1  0  0  0  0
 14 15  2  0  0  0  0
 15 16  1  0  0  0  0
 15 38  1  0  0  0  0
 16 17  2  0  0  0  0
 16 39  1  0  0  0  0
 17 18  1  0  0  0  0
 17 40  1  0  0  0  0
 18 19  2  0  0  0  0
 18 41  1  0  0  0  0
 19 42  1  0  0  0  0
M  CHG  1  19   1
M  END
> <s_m_source_file>
AV-unprocessed.smi

> <i_m_source_file_index>
3263

> <i_lp_mmshare_version>
43012

> <i_f3d_flags>
0

> <s_epik_input>
W0NIMl0xW0NIMl1bQ0BASF0oW0NIMl0yKVtDQEBIXShbQ0gyXVtDQEhdMTIpW0NIMl1DKD1PKVtOSF1bQ0gyXVtDSDJdYzNbY0hdW2NIXVtjSF1bY0hdbjM=

> <s_epik_cmdline>
J2VwaWtfcHl0aG9uJywgJy1waCcsICc3LjAnLCAnLXRuJywgJzgnLCAnLW1hJywgJzIwMCcsICctbWV0YWxfYmluZGluZycsICctaW1hZScsICc8aW5maWxlLm1hZT4nLCAnLW9tYWUnLCAnPG91dGZpbGUubWFlPic=

> <r_epik_Ionization_Penalty>
1.83579

> <r_epik_Ionization_Penalty_Charging>
1.83579

> <r_epik_Ionization_Penalty_Neutral>
2.47288e-08

> <r_epik_State_Penalty>
1.95213

> <r_epik_Charging_Adjusted_Penalty>
3.78793

> <i_epik_Tot_Q>
1

> <i_epik_Tot_abs_Q>
1

> <r_epik_Metal_State_Penalty>
1.97847

> <b_epik_Metal_Only>
0

> <s_lp_Force_Field>
OPLS_2005

> <r_lp_Energy>
51.8999

> <b_lp_Chiralities_Consistent>
1

> <s_lp_Variant>
AV-unprocessed.smi:3263-7

> <Gold.Version>
5.8.1

> <Gold.Id.Protein>
6NUR|6NUR_protein|mol2

> <Gold.PLP.Fitness>
46.0982

> <Gold.PLP.PLP>
-39.2487

> <Gold.PLP.part.hbond>
-2.4468

> <Gold.PLP.part.metal>
0.0000

> <Gold.PLP.part.buried>
-3.8135

> <Gold.PLP.part.nonpolar>
-32.6951

> <Gold.PLP.part.repulsive>
0.1116

> <Gold.PLP.ligand.clash>
0.0000

> <Gold.PLP.ligand.torsion>
1.0832

> <Gold.PLP.Chemscore.Hbond>
3.0000

> <Gold.PLP.Chemscore.CHOScore>
0.0000

> <Gold.PLP.Chemscore.Metal>
0.0000

> <Gold.Chemscore.Hbonds>
donor molecule, donor type, donor heavy atom, donor atom, acceptor molecule, acceptor atom, score
      L1  H    19    42       P1  7948  1.80
      P1  H  7997  8008       L1     1  0.98

> <Gold.PLP.Chemscore.Internal.Correction>
0.0161

> <Gold.Rescore>
     Score         DG    S(hbond)    S(metal)    S(lipo)     H(rot)  DE(clash)    DE(int)     intcor
     20.69     -21.75       1.87        0.00     119.99       1.56       0.07       1.00       ----

> <Gold.Chemscore.Fitness>
20.6882

> <Gold.Chemscore.DG>
-21.7509

> <Gold.Chemscore.ZeroCoef>
-5.4800

> <Gold.Chemscore.Hbond>
1.8671

> <Gold.Chemscore.Metal>
0.0000

> <Gold.Chemscore.Lipo>
119.9880

> <Gold.Chemscore.Internal_Hbond>
0.0000

> <Gold.Chemscore.DEClash>
0.0663

> <Gold.Chemscore.DEInternal>
0.9964

> <Gold.Chemscore.Rot>
1.5640

> <Gold.Chemscore.Internal.Correction>
   9.000000E+99

> <Gold.Chemscore.Hbonds>
donor molecule, donor type, donor heavy atom, donor atom, acceptor molecule, acceptor atom, score
      L1  H    19    42       P1  7948  0.18
      P1  H  7997  8008       L1     1  0.69

> <Gold.Chemscore.Hbond.Weighted>
-6.2361

> <Gold.Chemscore.Metal.Weighted>
-0.0000

> <Gold.Chemscore.Lipo.Weighted>
-14.0386

> <Gold.Chemscore.Internal_Hbond.Weighted>
0.0000

> <Gold.Chemscore.DEClash.Weighted>
0.0663

> <Gold.Chemscore.DEInternal.Weighted>
0.9964

> <Gold.Chemscore.Rot.Weighted>
4.0038

> <Gold.Chemscore.Internal.Correction.Weighted>
   9.000000E+99

> <Gold.Protein.RotatedTorsions>
[ 6907 6896 6895 6894 ] final  -28.91 input  -60.11 | X-H torsion
[ 7974 7965 7964 7962 ] final  -21.77 input  175.53 | X-H torsion
[ 8008 7997 7996 7995 ] final  -58.40 input   59.86 | X-H torsion
[ 10167 10162 10161 10158 ] final   50.78 input  -65.29 | X-H torsion
[ 10718 10713 10712 10709 ] final    2.35 input   66.30 | X-H torsion
[ 10763 10752 10751 10750 ] final   68.89 input  -60.55 | X-H torsion
[ 11005 11000 10999 10996 ] final  131.55 input  -57.11 | X-H torsion

> <Gold.Protein.ActiveResidues>
 VAL166  LYS551  ARG553  GLY616  TRP617  ASP618  TYR619  PRO620  LYS621  CYS622 
 ASP623  PHE694  ASN695  SER759  ASP760  ASP761  ALA762  ILE779  LEU786  VAL792 
 PHE793  MET794  SER795  GLU796  ALA797  LYS798  CYS799  TRP800  GLU811  SER814 

> <Gold.Protein.RotatedAtoms>
  151.1265  135.0107  159.8562 H   0  0  0  0  0  0  0  0  0  0  0  0  # atno 6907 bound_to 6896
  152.5449  134.1661  159.8587 H   0  0  0  0  0  0  0  0  0  0  0  0  # atno 6908 bound_to 6896
  151.1724  133.4731  159.2627 H   0  0  0  0  0  0  0  0  0  0  0  0  # atno 6909 bound_to 6896
  146.1714  140.4386  142.8531 H   0  0  0  0  0  0  0  0  0  0  0  0  # atno 7974 bound_to 7965
  154.4307  140.1085  156.5951 H   0  0  0  0  0  0  0  0  0  0  0  0  # atno 8008 bound_to 7997
  155.5971  140.3493  155.4564 H   0  0  0  0  0  0  0  0  0  0  0  0  # atno 8009 bound_to 7997
  156.0202  140.1238  157.0354 H   0  0  0  0  0  0  0  0  0  0  0  0  # atno 8010 bound_to 7997
  140.2689  144.3288  150.6296 H   0  0  0  0  0  0  0  0  0  0  0  0  # atno 10167 bound_to 10162
  156.8617  130.5589  149.5662 H   0  0  0  0  0  0  0  0  0  0  0  0  # atno 10718 bound_to 10713
  153.0258  135.5230  154.7204 H   0  0  0  0  0  0  0  0  0  0  0  0  # atno 10763 bound_to 10752
  154.6261  135.2894  155.0272 H   0  0  0  0  0  0  0  0  0  0  0  0  # atno 10764 bound_to 10752
  154.1241  135.6603  153.4961 H   0  0  0  0  0  0  0  0  0  0  0  0  # atno 10765 bound_to 10752
  139.9737  134.9570  156.9455 H   0  0  0  0  0  0  0  0  0  0  0  0  # atno 11005 bound_to 11000
  144.8169  140.6483  143.6378 LP  0  0  0  0  0  0  0  0  0  0  0  0  # atno 17320 bound_to 7965
  145.4329  139.1546  143.4012 LP  0  0  0  0  0  0  0  0  0  0  0  0  # atno 17321 bound_to 7965
  140.5906  143.2168  151.7260 LP  0  0  0  0  0  0  0  0  0  0  0  0  # atno 17342 bound_to 10162
  139.4995  144.3945  152.0246 LP  0  0  0  0  0  0  0  0  0  0  0  0  # atno 17343 bound_to 10162
  156.0773  130.5792  150.9498 LP  0  0  0  0  0  0  0  0  0  0  0  0  # atno 17370 bound_to 10713
  157.6246  131.0927  150.8558 LP  0  0  0  0  0  0  0  0  0  0  0  0  # atno 17371 bound_to 10713
  140.5239  134.0880  155.7299 LP  0  0  0  0  0  0  0  0  0  0  0  0  # atno 17394 bound_to 11000
  141.1415  133.9129  157.2314 LP  0  0  0  0  0  0  0  0  0  0  0  0  # atno 17395 bound_to 11000

$$$$
