AV-unprocessed.smi:1634|AV-procd|sdf|6536|dock4
  -GOLD-   22720 7213D 1   1.00000     0.00000
 Structure written by MMmdl.
 38 38  0  0  0  0  0  0  0  0  1 V2000
  150.9063  142.8612  158.1897 C   0  0  0  0  0  0  0  0  0  0  0  0
  151.4586  144.1685  158.7770 C   0  0  0  0  0  0  0  0  0  0  0  0
  152.4914  144.7987  157.8294 C   0  0  0  0  0  0  0  0  0  0  0  0
  152.0467  143.9387  160.1785 C   0  0  0  0  0  0  0  0  0  0  0  0
  152.9420  142.8321  160.1352 O   0  0  0  0  0  0  0  0  0  0  0  0
  152.9554  142.0068  161.2968 C   0  0  2  0  0  0  0  0  0  0  0  0
  153.1358  142.9235  162.5159 C   0  0  0  0  0  0  0  0  0  0  0  0
  154.0887  140.9723  161.2027 C   0  0  0  0  0  0  0  0  0  0  0  0
  155.2451  141.3575  161.0324 O   0  0  0  0  0  0  0  0  0  0  0  0
  153.6999  139.6843  161.2843 N   0  0  0  0  0  0  0  0  0  0  0  0
  154.4652  138.5075  161.2217 C   0  0  0  0  0  0  0  0  0  0  0  0
  154.5836  137.5967  162.2234 C   0  0  0  0  0  0  0  0  0  0  0  0
  155.3902  136.3959  162.0834 C   0  0  0  0  0  0  0  0  0  0  0  0
  155.5814  135.4261  163.2392 C   0  0  0  0  0  0  0  0  0  0  0  0
  156.8504  135.4061  163.6488 F   0  0  0  0  0  0  0  0  0  0  0  0
  154.8120  135.7589  164.2757 F   0  0  0  0  0  0  0  0  0  0  0  0
  155.2496  134.1941  162.8559 F   0  0  0  0  0  0  0  0  0  0  0  0
  156.0255  136.2332  160.9084 C   0  0  0  0  0  0  0  0  0  0  0  0
  155.8917  137.1528  159.8659 N   0  0  0  0  0  0  0  0  0  0  0  0
  155.1533  138.2826  159.9394 C   0  0  0  0  0  0  0  0  0  0  0  0
  155.0881  139.0454  158.9760 O   0  0  0  0  0  0  0  0  0  0  0  0
  156.3865  136.9506  159.0092 H   0  0  0  0  0  0  0  0  0  0  0  0
  151.6941  142.1171  158.0672 H   0  0  0  0  0  0  0  0  0  0  0  0
  150.4532  143.0303  157.2125 H   0  0  0  0  0  0  0  0  0  0  0  0
  150.1404  142.4319  158.8363 H   0  0  0  0  0  0  0  0  0  0  0  0
  150.6231  144.8630  158.8745 H   0  0  0  0  0  0  0  0  0  0  0  0
  153.3582  144.1499  157.6994 H   0  0  0  0  0  0  0  0  0  0  0  0
  152.8474  145.7557  158.2119 H   0  0  0  0  0  0  0  0  0  0  0  0
  152.0611  144.9809  156.8443 H   0  0  0  0  0  0  0  0  0  0  0  0
  152.5908  144.8265  160.5045 H   0  0  0  0  0  0  0  0  0  0  0  0
  151.2401  143.7726  160.8935 H   0  0  0  0  0  0  0  0  0  0  0  0
  151.9935  141.4992  161.3909 H   0  0  0  0  0  0  0  0  0  0  0  0
  153.1779  142.3480  163.4413 H   0  0  0  0  0  0  0  0  0  0  0  0
  152.3028  143.6216  162.6006 H   0  0  0  0  0  0  0  0  0  0  0  0
  154.0511  143.5124  162.4448 H   0  0  0  0  0  0  0  0  0  0  0  0
  152.7051  139.5293  161.3667 H   0  0  0  0  0  0  0  0  0  0  0  0
  154.0656  137.7254  163.1588 H   0  0  0  0  0  0  0  0  0  0  0  0
  156.6791  135.4042  160.6799 H   0  0  0  0  0  0  0  0  0  0  0  0
  1  2  1  0  0  0  0
  1 23  1  0  0  0  0
  1 24  1  0  0  0  0
  1 25  1  0  0  0  0
  2  3  1  0  0  0  0
  2  4  1  0  0  0  0
  2 26  1  0  0  0  0
  3 27  1  0  0  0  0
  3 28  1  0  0  0  0
  3 29  1  0  0  0  0
  4  5  1  0  0  0  0
  4 30  1  0  0  0  0
  4 31  1  0  0  0  0
  5  6  1  0  0  0  0
  6  7  1  0  0  0  0
  6  8  1  0  0  0  0
  6 32  1  0  0  0  0
  7 33  1  0  0  0  0
  7 34  1  0  0  0  0
  7 35  1  0  0  0  0
  8  9  2  0  0  0  0
  8 10  1  0  0  0  0
 10 11  1  0  0  0  0
 10 36  1  0  0  0  0
 11 20  1  0  0  0  0
 11 12  2  0  0  0  0
 12 13  1  0  0  0  0
 12 37  1  0  0  0  0
 13 14  1  0  0  0  0
 13 18  2  0  0  0  0
 14 15  1  0  0  0  0
 14 16  1  0  0  0  0
 14 17  1  0  0  0  0
 18 19  1  0  0  0  0
 18 38  1  0  0  0  0
 19 22  1  0  0  0  0
 19 20  1  0  0  0  0
 20 21  2  0  0  0  0
M  END
> <s_m_source_file>
AV-unprocessed.smi

> <i_m_source_file_index>
1634

> <i_lp_mmshare_version>
43012

> <i_f3d_flags>
0

> <s_epik_input>
W0NIM11bQ0hdKFtDSDNdKVtDSDJdT1tDQEhdKFtDSDNdKUMoPU8pW05IXWMxW2NIXWMoQyhGKShGKUYpW2NIXVtuSF1jMT1P

> <s_epik_cmdline>
J2VwaWtfcHl0aG9uJywgJy1waCcsICc3LjAnLCAnLXRuJywgJzgnLCAnLW1hJywgJzIwMCcsICctbWV0YWxfYmluZGluZycsICctaW1hZScsICc8aW5maWxlLm1hZT4nLCAnLW9tYWUnLCAnPG91dGZpbGUubWFlPic=

> <r_lp_tautomer_probability>
0.999

> <r_epik_Ionization_Penalty>
0.00884964

> <r_epik_Ionization_Penalty_Charging>
0.00884955

> <r_epik_Ionization_Penalty_Neutral>
9.33956e-08

> <r_epik_State_Penalty>
0.00669049

> <r_epik_Charging_Adjusted_Penalty>
0.01554

> <i_epik_Tot_Q>
0

> <i_epik_Tot_abs_Q>
0

> <r_epik_Metal_State_Penalty>
0.320763

> <b_epik_Metal_Only>
0

> <s_lp_Force_Field>
OPLS_2005

> <r_lp_Energy>
19.4514

> <b_lp_Chiralities_Consistent>
1

> <s_lp_Variant>
AV-unprocessed.smi:1634-1

> <Gold.Version>
5.8.1

> <Gold.Id.Protein>
6NUR|6NUR_protein|mol2

> <Gold.PLP.Fitness>
40.0798

> <Gold.PLP.PLP>
-39.0704

> <Gold.PLP.part.hbond>
-2.0000

> <Gold.PLP.part.metal>
0.0000

> <Gold.PLP.part.buried>
-2.2578

> <Gold.PLP.part.nonpolar>
-34.5173

> <Gold.PLP.part.repulsive>
0.0595

> <Gold.PLP.ligand.clash>
0.0000

> <Gold.PLP.ligand.torsion>
1.0322

> <Gold.PLP.Chemscore.Hbond>
1.0000

> <Gold.PLP.Chemscore.CHOScore>
0.0000

> <Gold.PLP.Chemscore.Metal>
0.0000

> <Gold.Chemscore.Hbonds>
donor molecule, donor type, donor heavy atom, donor atom, acceptor molecule, acceptor atom, score
      P1  H  7997  8010       L1    21  1.00

> <Gold.PLP.Chemscore.Internal.Correction>
0.0738

> <Gold.Rescore>
     Score         DG    S(hbond)    S(metal)    S(lipo)     H(rot)  DE(clash)    DE(int)     intcor
     11.29     -15.80       1.00        0.00      98.79       1.79       1.50       3.02       ----

> <Gold.Chemscore.Fitness>
11.2900

> <Gold.Chemscore.DG>
-15.8034

> <Gold.Chemscore.ZeroCoef>
-5.4800

> <Gold.Chemscore.Hbond>
1.0000

> <Gold.Chemscore.Metal>
0.0000

> <Gold.Chemscore.Lipo>
98.7933

> <Gold.Chemscore.Internal_Hbond>
0.0000

> <Gold.Chemscore.DEClash>
1.4960

> <Gold.Chemscore.DEInternal>
3.0174

> <Gold.Chemscore.Rot>
1.7873

> <Gold.Chemscore.Internal.Correction>
   9.000000E+99

> <Gold.Chemscore.Hbonds>
donor molecule, donor type, donor heavy atom, donor atom, acceptor molecule, acceptor atom, score
      P1  H  7997  8010       L1    21  1.00

> <Gold.Chemscore.Hbond.Weighted>
-3.3400

> <Gold.Chemscore.Metal.Weighted>
-0.0000

> <Gold.Chemscore.Lipo.Weighted>
-11.5588

> <Gold.Chemscore.Internal_Hbond.Weighted>
0.0000

> <Gold.Chemscore.DEClash.Weighted>
1.4960

> <Gold.Chemscore.DEInternal.Weighted>
3.0174

> <Gold.Chemscore.Rot.Weighted>
4.5755

> <Gold.Chemscore.Internal.Correction.Weighted>
   9.000000E+99

> <Gold.Protein.RotatedTorsions>
[ 6907 6896 6895 6894 ] final  106.82 input  -60.11 | X-H torsion
[ 7974 7965 7964 7962 ] final  -28.78 input  175.53 | X-H torsion
[ 8008 7997 7996 7995 ] final   -6.46 input   59.86 | X-H torsion
[ 10167 10162 10161 10158 ] final  133.22 input  -65.29 | X-H torsion
[ 10718 10713 10712 10709 ] final -109.38 input   66.30 | X-H torsion
[ 10763 10752 10751 10750 ] final  -71.75 input  -60.55 | X-H torsion
[ 11005 11000 10999 10996 ] final  171.55 input  -57.11 | X-H torsion

> <Gold.Protein.ActiveResidues>
 VAL166  LYS551  ARG553  GLY616  TRP617  ASP618  TYR619  PRO620  LYS621  CYS622 
 ASP623  PHE694  ASN695  SER759  ASP760  ASP761  ALA762  ILE779  LEU786  VAL792 
 PHE793  MET794  SER795  GLU796  ALA797  LYS798  CYS799  TRP800  GLU811  SER814 

> <Gold.Protein.RotatedAtoms>
  152.5179  133.9325  159.7587 H   0  0  0  0  0  0  0  0  0  0  0  0  # atno 6907 bound_to 6896
  150.9672  133.6373  159.2751 H   0  0  0  0  0  0  0  0  0  0  0  0  # atno 6908 bound_to 6896
  151.3597  135.0907  159.9483 H   0  0  0  0  0  0  0  0  0  0  0  0  # atno 6909 bound_to 6896
  146.1264  140.5327  142.8713 H   0  0  0  0  0  0  0  0  0  0  0  0  # atno 7974 bound_to 7965
  154.5935  140.2432  155.7888 H   0  0  0  0  0  0  0  0  0  0  0  0  # atno 8008 bound_to 7997
  156.2263  140.2981  156.0030 H   0  0  0  0  0  0  0  0  0  0  0  0  # atno 8009 bound_to 7997
  155.2333  140.0404  157.2955 H   0  0  0  0  0  0  0  0  0  0  0  0  # atno 8010 bound_to 7997
  139.5306  144.6626  151.4965 H   0  0  0  0  0  0  0  0  0  0  0  0  # atno 10167 bound_to 10162
  156.0534  130.5761  150.8091 H   0  0  0  0  0  0  0  0  0  0  0  0  # atno 10718 bound_to 10713
  154.4361  135.5952  153.6099 H   0  0  0  0  0  0  0  0  0  0  0  0  # atno 10763 bound_to 10752
  152.9802  135.5987  154.3780 H   0  0  0  0  0  0  0  0  0  0  0  0  # atno 10764 bound_to 10752
  154.3624  135.2841  155.2291 H   0  0  0  0  0  0  0  0  0  0  0  0  # atno 10765 bound_to 10752
  140.3202  134.7444  157.4058 H   0  0  0  0  0  0  0  0  0  0  0  0  # atno 11005 bound_to 11000
  144.7646  140.5502  143.6712 LP  0  0  0  0  0  0  0  0  0  0  0  0  # atno 17320 bound_to 7965
  145.5356  139.1475  143.3475 LP  0  0  0  0  0  0  0  0  0  0  0  0  # atno 17321 bound_to 7965
  140.6481  143.8753  150.6758 LP  0  0  0  0  0  0  0  0  0  0  0  0  # atno 17342 bound_to 10162
  140.2109  143.3884  152.1719 LP  0  0  0  0  0  0  0  0  0  0  0  0  # atno 17343 bound_to 10162
  157.5482  131.0943  150.9733 LP  0  0  0  0  0  0  0  0  0  0  0  0  # atno 17370 bound_to 10713
  157.0000  130.5596  149.5310 LP  0  0  0  0  0  0  0  0  0  0  0  0  # atno 17371 bound_to 10713
  140.0949  134.5551  155.8408 LP  0  0  0  0  0  0  0  0  0  0  0  0  # atno 17394 bound_to 11000
  141.2088  133.6677  156.6398 LP  0  0  0  0  0  0  0  0  0  0  0  0  # atno 17395 bound_to 11000

$$$$
