AV-unprocessed.smi:1620|AV-procd|sdf|6492|dock9
  -GOLD-   22720 7153D 1   1.00000     0.00000
 Structure written by MMmdl.
 40 40  0  0  0  0  0  0  0  0  1 V2000
  144.7006  137.4130  162.3124 C   0  0  0  0  0  0  0  0  0  0  0  0
  145.4518  136.1544  161.8369 C   0  0  0  0  0  0  0  0  0  0  0  0
  145.0751  134.9628  162.7358 C   0  0  0  0  0  0  0  0  0  0  0  0
  146.9918  136.3657  161.7572 C   0  0  1  0  0  0  0  0  0  0  0  0
  147.6839  136.5366  163.1266 C   0  0  0  0  0  0  0  0  0  0  0  0
  147.6645  135.3050  160.9623 N   0  0  0  0  0  0  0  0  0  0  0  0
  147.6424  133.9584  161.5494 C   0  0  0  0  0  0  0  0  0  0  0  0
  148.3717  135.4982  159.8165 C   0  0  0  0  0  0  0  0  0  0  0  0
  148.6718  134.5723  159.0608 O   0  0  0  0  0  0  0  0  0  0  0  0
  148.6467  136.7873  159.5379 N   0  0  0  0  0  0  0  0  0  0  0  0
  149.3504  137.3085  158.4231 C   0  0  0  0  0  0  0  0  0  0  0  0
  149.8363  138.6382  158.3269 C   0  0  0  0  0  0  0  0  0  0  0  0
  150.4504  138.8418  157.1716 N   0  0  0  0  0  0  0  0  0  0  0  0
  150.3670  137.6571  156.5149 N   0  0  0  0  0  0  0  0  0  0  0  0
  150.9433  137.5278  155.1880 C   0  0  0  0  0  0  0  0  0  0  0  0
  150.5536  138.7077  154.2953 C   0  0  0  0  0  0  0  0  0  0  0  0
  149.8314  138.4357  153.2050 N   0  0  0  0  0  0  0  0  0  0  0  0
  150.8964  139.8510  154.5886 O   0  0  0  0  0  0  0  0  0  0  0  0
  149.7017  136.6973  157.2528 C   0  0  0  0  0  0  0  0  0  0  0  0
  145.0411  137.7285  163.2990 H   0  0  0  0  0  0  0  0  0  0  0  0
  143.6277  137.2290  162.3763 H   0  0  0  0  0  0  0  0  0  0  0  0
  144.8368  138.2500  161.6277 H   0  0  0  0  0  0  0  0  0  0  0  0
  145.0835  135.9233  160.8371 H   0  0  0  0  0  0  0  0  0  0  0  0
  145.4562  135.0935  163.7491 H   0  0  0  0  0  0  0  0  0  0  0  0
  145.4671  134.0232  162.3477 H   0  0  0  0  0  0  0  0  0  0  0  0
  143.9930  134.8486  162.8028 H   0  0  0  0  0  0  0  0  0  0  0  0
  147.1333  137.3358  161.2814 H   0  0  0  0  0  0  0  0  0  0  0  0
  147.3677  137.4547  163.6210 H   0  0  0  0  0  0  0  0  0  0  0  0
  148.7666  136.5988  163.0110 H   0  0  0  0  0  0  0  0  0  0  0  0
  147.4676  135.7112  163.8048 H   0  0  0  0  0  0  0  0  0  0  0  0
  147.4389  133.2000  160.7915 H   0  0  0  0  0  0  0  0  0  0  0  0
  146.8739  133.8449  162.3129 H   0  0  0  0  0  0  0  0  0  0  0  0
  148.6047  133.7300  162.0095 H   0  0  0  0  0  0  0  0  0  0  0  0
  148.3232  137.4679  160.2097 H   0  0  0  0  0  0  0  0  0  0  0  0
  149.7656  139.4454  159.0410 H   0  0  0  0  0  0  0  0  0  0  0  0
  152.0298  137.4587  155.2636 H   0  0  0  0  0  0  0  0  0  0  0  0
  150.5929  136.5944  154.7455 H   0  0  0  0  0  0  0  0  0  0  0  0
  149.5430  139.1856  152.5930 H   0  0  0  0  0  0  0  0  0  0  0  0
  149.5675  137.4823  153.0027 H   0  0  0  0  0  0  0  0  0  0  0  0
  149.5439  135.6963  156.8792 H   0  0  0  0  0  0  0  0  0  0  0  0
  1  2  1  0  0  0  0
  1 20  1  0  0  0  0
  1 21  1  0  0  0  0
  1 22  1  0  0  0  0
  2  3  1  0  0  0  0
  2  4  1  0  0  0  0
  2 23  1  0  0  0  0
  3 24  1  0  0  0  0
  3 25  1  0  0  0  0
  3 26  1  0  0  0  0
  4  5  1  0  0  0  0
  4  6  1  0  0  0  0
  4 27  1  0  0  0  0
  5 28  1  0  0  0  0
  5 29  1  0  0  0  0
  5 30  1  0  0  0  0
  6  7  1  0  0  0  0
  6  8  1  0  0  0  0
  7 31  1  0  0  0  0
  7 32  1  0  0  0  0
  7 33  1  0  0  0  0
  8  9  2  0  0  0  0
  8 10  1  0  0  0  0
 10 11  1  0  0  0  0
 10 34  1  0  0  0  0
 11 19  2  0  0  0  0
 11 12  1  0  0  0  0
 12 13  2  0  0  0  0
 12 35  1  0  0  0  0
 13 14  1  0  0  0  0
 14 15  1  0  0  0  0
 14 19  1  0  0  0  0
 15 16  1  0  0  0  0
 15 36  1  0  0  0  0
 15 37  1  0  0  0  0
 16 17  1  0  0  0  0
 16 18  2  0  0  0  0
 17 38  1  0  0  0  0
 17 39  1  0  0  0  0
 19 40  1  0  0  0  0
M  END
> <s_m_source_file>
AV-unprocessed.smi

> <i_m_source_file_index>
1620

> <i_lp_mmshare_version>
43012

> <i_f3d_flags>
0

> <s_epik_input>
W0NIM11bQ0hdKFtDSDNdKVtDQEhdKFtDSDNdKU4oW0NIM10pQyg9TylbTkhdYzFbY0hdbm4oW2NIXTEpW0NIMl1DKD1PKVtOSDJd

> <s_epik_cmdline>
J2VwaWtfcHl0aG9uJywgJy1waCcsICc3LjAnLCAnLXRuJywgJzgnLCAnLW1hJywgJzIwMCcsICctbWV0YWxfYmluZGluZycsICctaW1hZScsICc8aW5maWxlLm1hZT4nLCAnLW9tYWUnLCAnPG91dGZpbGUubWFlPic=

> <r_lp_tautomer_probability>
1

> <r_epik_Ionization_Penalty>
4.85642e-05

> <r_epik_Ionization_Penalty_Charging>
0

> <r_epik_Ionization_Penalty_Neutral>
4.85642e-05

> <r_epik_State_Penalty>
-0

> <r_epik_Charging_Adjusted_Penalty>
0

> <i_epik_Tot_Q>
0

> <i_epik_Tot_abs_Q>
0

> <r_epik_Metal_State_Penalty>
-0

> <b_epik_Metal_Only>
0

> <s_lp_Force_Field>
OPLS_2005

> <r_lp_Energy>
32.9866

> <b_lp_Chiralities_Consistent>
1

> <s_lp_Variant>
AV-unprocessed.smi:1620-2

> <Gold.Version>
5.8.1

> <Gold.Id.Protein>
6NUR|6NUR_protein|mol2

> <Gold.PLP.Fitness>
43.6610

> <Gold.PLP.PLP>
-32.4437

> <Gold.PLP.part.hbond>
-4.1802

> <Gold.PLP.part.metal>
0.0000

> <Gold.PLP.part.buried>
-5.7653

> <Gold.PLP.part.nonpolar>
-22.9072

> <Gold.PLP.part.repulsive>
0.3874

> <Gold.PLP.ligand.clash>
0.0000

> <Gold.PLP.ligand.torsion>
0.4894

> <Gold.PLP.Chemscore.Hbond>
4.0000

> <Gold.PLP.Chemscore.CHOScore>
0.0000

> <Gold.PLP.Chemscore.Metal>
0.0000

> <Gold.Chemscore.Hbonds>
donor molecule, donor type, donor heavy atom, donor atom, acceptor molecule, acceptor atom, score
      L1  H    17    38       P1  7957  1.00
      L1  H    17    39       P1  7948  0.99
      P1  H  6896  6908       L1     9  1.00
      P1  H  7989  7998       L1    18  1.00

> <Gold.PLP.Chemscore.Internal.Correction>
0.1961

> <Gold.Rescore>
     Score         DG    S(hbond)    S(metal)    S(lipo)     H(rot)  DE(clash)    DE(int)     intcor
     16.08     -19.22       3.63        0.00      59.98       2.10       0.00       3.14       ----

> <Gold.Chemscore.Fitness>
16.0833

> <Gold.Chemscore.DG>
-19.2245

> <Gold.Chemscore.ZeroCoef>
-5.4800

> <Gold.Chemscore.Hbond>
3.6265

> <Gold.Chemscore.Metal>
0.0000

> <Gold.Chemscore.Lipo>
59.9820

> <Gold.Chemscore.Internal_Hbond>
0.0000

> <Gold.Chemscore.DEClash>
0.0021

> <Gold.Chemscore.DEInternal>
3.1391

> <Gold.Chemscore.Rot>
2.1039

> <Gold.Chemscore.Internal.Correction>
   9.000000E+99

> <Gold.Chemscore.Hbonds>
donor molecule, donor type, donor heavy atom, donor atom, acceptor molecule, acceptor atom, score
      L1  H    17    38       P1  7957  0.94
      L1  H    17    39       P1  7948  0.70
      P1  H  6896  6908       L1     9  0.33
      P1  H  7989  7998       L1    18  0.99

> <Gold.Chemscore.Hbond.Weighted>
-12.1126

> <Gold.Chemscore.Metal.Weighted>
-0.0000

> <Gold.Chemscore.Lipo.Weighted>
-7.0179

> <Gold.Chemscore.Internal_Hbond.Weighted>
0.0000

> <Gold.Chemscore.DEClash.Weighted>
0.0021

> <Gold.Chemscore.DEInternal.Weighted>
3.1391

> <Gold.Chemscore.Rot.Weighted>
5.3860

> <Gold.Chemscore.Internal.Correction.Weighted>
   9.000000E+99

> <Gold.Protein.RotatedTorsions>
[ 6907 6896 6895 6894 ] final  152.89 input  -60.11 | X-H torsion
[ 7974 7965 7964 7962 ] final   67.76 input  175.53 | X-H torsion
[ 8008 7997 7996 7995 ] final  157.02 input   59.86 | X-H torsion
[ 10167 10162 10161 10158 ] final -123.95 input  -65.29 | X-H torsion
[ 10718 10713 10712 10709 ] final -147.28 input   66.30 | X-H torsion
[ 10763 10752 10751 10750 ] final -109.60 input  -60.55 | X-H torsion
[ 11005 11000 10999 10996 ] final  -65.00 input  -57.11 | X-H torsion

> <Gold.Protein.ActiveResidues>
 VAL166  LYS551  ARG553  GLY616  TRP617  ASP618  TYR619  PRO620  LYS621  CYS622 
 ASP623  PHE694  ASN695  SER759  ASP760  ASP761  ALA762  ILE779  LEU786  VAL792 
 PHE793  MET794  SER795  GLU796  ALA797  LYS798  CYS799  TRP800  GLU811  SER814 

> <Gold.Protein.RotatedAtoms>
  152.0804  133.4150  159.4498 H   0  0  0  0  0  0  0  0  0  0  0  0  # atno 6907 bound_to 6896
  150.6862  134.2988  159.4707 H   0  0  0  0  0  0  0  0  0  0  0  0  # atno 6908 bound_to 6896
  152.0829  134.9458  160.0624 H   0  0  0  0  0  0  0  0  0  0  0  0  # atno 6909 bound_to 6896
  145.8108  139.3031  143.1100 H   0  0  0  0  0  0  0  0  0  0  0  0  # atno 7974 bound_to 7965
  156.2389  140.1896  156.7044 H   0  0  0  0  0  0  0  0  0  0  0  0  # atno 8008 bound_to 7997
  154.6158  140.0615  156.9579 H   0  0  0  0  0  0  0  0  0  0  0  0  # atno 8009 bound_to 7997
  155.1942  140.3287  155.4356 H   0  0  0  0  0  0  0  0  0  0  0  0  # atno 8010 bound_to 7997
  139.9980  143.5571  152.2315 H   0  0  0  0  0  0  0  0  0  0  0  0  # atno 10167 bound_to 10162
  156.4055  130.7955  151.2169 H   0  0  0  0  0  0  0  0  0  0  0  0  # atno 10718 bound_to 10713
  154.8202  135.4595  154.0758 H   0  0  0  0  0  0  0  0  0  0  0  0  # atno 10763 bound_to 10752
  153.2117  135.6883  153.8112 H   0  0  0  0  0  0  0  0  0  0  0  0  # atno 10764 bound_to 10752
  153.7560  135.3291  155.3306 H   0  0  0  0  0  0  0  0  0  0  0  0  # atno 10765 bound_to 10752
  141.1441  133.6674  156.5919 H   0  0  0  0  0  0  0  0  0  0  0  0  # atno 11005 bound_to 11000
  145.9779  140.8707  143.0129 LP  0  0  0  0  0  0  0  0  0  0  0  0  # atno 17320 bound_to 7965
  144.6757  140.2038  143.7384 LP  0  0  0  0  0  0  0  0  0  0  0  0  # atno 17321 bound_to 7965
  139.6292  144.7642  151.2572 LP  0  0  0  0  0  0  0  0  0  0  0  0  # atno 17342 bound_to 10162
  140.7430  143.6509  150.8249 LP  0  0  0  0  0  0  0  0  0  0  0  0  # atno 17343 bound_to 10162
  157.7505  131.0273  150.4002 LP  0  0  0  0  0  0  0  0  0  0  0  0  # atno 17370 bound_to 10713
  156.4290  130.3968  149.6773 LP  0  0  0  0  0  0  0  0  0  0  0  0  # atno 17371 bound_to 10713
  140.3757  134.7567  157.4628 LP  0  0  0  0  0  0  0  0  0  0  0  0  # atno 17394 bound_to 11000
  140.0676  134.5907  155.8677 LP  0  0  0  0  0  0  0  0  0  0  0  0  # atno 17395 bound_to 11000

$$$$
