AV-unprocessed.smi:235|AV-procd|sdf|1803|dock7
  -GOLD-   2262020373D 1   1.00000     0.00000
 Structure written by MMmdl.
 54 58  0  0  0  0  0  0  0  0  1 V2000
  149.7016  141.9842  158.5707 O   0  0  0  0  0  0  0  0  0  0  0  0
  150.4020  141.8546  157.5656 C   0  0  0  0  0  0  0  0  0  0  0  0
  151.4262  142.6673  157.2685 N   0  0  0  0  0  0  0  0  0  0  0  0
  151.8628  143.7746  158.0552 C   0  0  0  0  0  0  0  0  0  0  0  0
  153.3100  143.7940  158.4975 C   0  0  0  0  0  0  0  0  0  0  0  0
  152.2261  143.5085  159.4999 C   0  0  0  0  0  0  0  0  0  0  0  0
  150.1212  140.7324  156.5563 C   0  0  2  0  0  0  0  0  0  0  0  0
  150.0421  141.2584  155.1175 C   0  0  0  0  0  0  0  0  0  0  0  0
  149.2027  140.1990  154.4145 C   0  0  0  0  0  0  0  0  0  0  0  0
  148.1967  139.7879  155.4895 C   0  0  0  0  0  0  0  0  0  0  0  0
  148.8182  140.0997  156.7739 N   0  0  0  0  0  0  0  0  0  0  0  0
  148.7978  139.1076  157.6911 C   0  0  0  0  0  0  0  0  0  0  0  0
  149.9926  138.6197  158.1038 N   0  0  0  0  0  0  0  0  0  0  0  0
  150.0348  137.6339  159.0053 C   0  0  0  0  0  0  0  0  0  0  0  0
  149.0205  137.0079  159.6073 N   0  0  0  0  0  0  0  0  0  0  0  0
  147.8174  137.5004  159.1933 C   0  0  0  0  0  0  0  0  0  0  0  0
  147.6154  138.5407  158.2441 C   0  0  0  0  0  0  0  0  0  0  0  0
  146.2555  138.7681  158.0688 N   0  0  0  0  0  0  0  0  0  0  0  0
  145.6855  137.9095  158.8698 C   0  0  0  0  0  0  0  0  0  0  0  0
  146.5493  137.1143  159.5896 N   0  0  0  0  0  0  0  0  0  0  0  0
  146.1891  136.0857  160.5523 C   0  0  0  0  0  0  0  0  0  0  0  0
  145.8454  136.6377  161.9540 C   0  0  1  0  0  0  0  0  0  0  0  0
  145.8973  138.0506  161.9223 O   0  0  0  0  0  0  0  0  0  0  0  0
  144.4563  136.2117  162.4710 C   0  0  2  0  0  0  0  0  0  0  0  0
  144.0177  134.8126  162.0368 C   0  0  0  0  0  0  0  0  0  0  0  0
  142.4990  134.8828  162.0863 C   0  0  0  0  0  0  0  0  0  0  0  0
  142.1962  136.3825  162.1492 C   0  0  0  0  0  0  0  0  0  0  0  0
  143.4398  137.0232  161.9034 O   0  0  0  0  0  0  0  0  0  0  0  0
  151.9389  142.4854  156.4180 H   0  0  0  0  0  0  0  0  0  0  0  0
  151.4133  144.7447  157.8475 H   0  0  0  0  0  0  0  0  0  0  0  0
  153.9462  142.9636  158.1967 H   0  0  0  0  0  0  0  0  0  0  0  0
  153.8039  144.7619  158.5535 H   0  0  0  0  0  0  0  0  0  0  0  0
  151.9968  144.2860  160.2261 H   0  0  0  0  0  0  0  0  0  0  0  0
  152.1400  142.4879  159.8681 H   0  0  0  0  0  0  0  0  0  0  0  0
  150.9146  139.9846  156.6170 H   0  0  0  0  0  0  0  0  0  0  0  0
  149.5277  142.2204  155.0773 H   0  0  0  0  0  0  0  0  0  0  0  0
  151.0245  141.3821  154.6607 H   0  0  0  0  0  0  0  0  0  0  0  0
  148.7275  140.5625  153.5031 H   0  0  0  0  0  0  0  0  0  0  0  0
  149.8323  139.3476  154.1525 H   0  0  0  0  0  0  0  0  0  0  0  0
  147.2901  140.3876  155.4049 H   0  0  0  0  0  0  0  0  0  0  0  0
  147.9039  138.7420  155.3825 H   0  0  0  0  0  0  0  0  0  0  0  0
  151.0230  137.2991  159.2843 H   0  0  0  0  0  0  0  0  0  0  0  0
  144.6116  137.8370  158.9654 H   0  0  0  0  0  0  0  0  0  0  0  0
  145.3381  135.5321  160.1539 H   0  0  0  0  0  0  0  0  0  0  0  0
  147.0101  135.3706  160.6189 H   0  0  0  0  0  0  0  0  0  0  0  0
  146.6098  136.2955  162.6525 H   0  0  0  0  0  0  0  0  0  0  0  0
  145.5767  138.3821  162.7471 H   0  0  0  0  0  0  0  0  0  0  0  0
  144.4038  136.2888  163.5587 H   0  0  0  0  0  0  0  0  0  0  0  0
  144.3398  134.6150  161.0134 H   0  0  0  0  0  0  0  0  0  0  0  0
  144.4269  134.0281  162.6742 H   0  0  0  0  0  0  0  0  0  0  0  0
  142.0582  134.4172  161.2040 H   0  0  0  0  0  0  0  0  0  0  0  0
  142.1044  134.3754  162.9673 H   0  0  0  0  0  0  0  0  0  0  0  0
  141.4462  136.6900  161.4201 H   0  0  0  0  0  0  0  0  0  0  0  0
  141.8403  136.6606  163.1423 H   0  0  0  0  0  0  0  0  0  0  0  0
  1  2  2  0  0  0  0
  2  3  1  0  0  0  0
  2  7  1  0  0  0  0
  3  4  1  0  0  0  0
  3 29  1  0  0  0  0
  4  6  1  0  0  0  0
  4  5  1  0  0  0  0
  4 30  1  0  0  0  0
  5  6  1  0  0  0  0
  5 31  1  0  0  0  0
  5 32  1  0  0  0  0
  6 33  1  0  0  0  0
  6 34  1  0  0  0  0
  7 11  1  0  0  0  0
  7  8  1  0  0  0  0
  7 35  1  0  0  0  0
  8  9  1  0  0  0  0
  8 36  1  0  0  0  0
  8 37  1  0  0  0  0
  9 10  1  0  0  0  0
  9 38  1  0  0  0  0
  9 39  1  0  0  0  0
 10 11  1  0  0  0  0
 10 40  1  0  0  0  0
 10 41  1  0  0  0  0
 11 12  1  0  0  0  0
 12 17  1  0  0  0  0
 12 13  2  0  0  0  0
 13 14  1  0  0  0  0
 14 15  2  0  0  0  0
 14 42  1  0  0  0  0
 15 16  1  0  0  0  0
 16 20  1  0  0  0  0
 16 17  2  0  0  0  0
 17 18  1  0  0  0  0
 18 19  2  0  0  0  0
 19 20  1  0  0  0  0
 19 43  1  0  0  0  0
 20 21  1  0  0  0  0
 21 22  1  0  0  0  0
 21 44  1  0  0  0  0
 21 45  1  0  0  0  0
 22 23  1  0  0  0  0
 22 24  1  0  0  0  0
 22 46  1  0  0  0  0
 23 47  1  0  0  0  0
 24 28  1  0  0  0  0
 24 25  1  0  0  0  0
 24 48  1  0  0  0  0
 25 26  1  0  0  0  0
 25 49  1  0  0  0  0
 25 50  1  0  0  0  0
 26 27  1  0  0  0  0
 26 51  1  0  0  0  0
 26 52  1  0  0  0  0
 27 28  1  0  0  0  0
 27 53  1  0  0  0  0
 27 54  1  0  0  0  0
M  END
> <s_m_source_file>
AV-unprocessed.smi

> <i_m_source_file_index>
235

> <i_lp_mmshare_version>
43012

> <i_f3d_flags>
0

> <s_epik_input>
W0NIMl0xW0NIMl1bQ0hdMVtOSF1DKD1PKVtDQEBIXTJbQ0gyXVtDSDJdW0NIMl1OMmMobltjSF1uMyljKGMzNCluW2NIXW40W0NIMl1bQ0BIXShbT0hdKVtDQEBIXTVbQ0gyXVtDSDJdW0NIMl1PNQ==

> <s_epik_cmdline>
J2VwaWtfcHl0aG9uJywgJy1waCcsICc3LjAnLCAnLXRuJywgJzgnLCAnLW1hJywgJzIwMCcsICctbWV0YWxfYmluZGluZycsICctaW1hZScsICc8aW5maWxlLm1hZT4nLCAnLW9tYWUnLCAnPG91dGZpbGUubWFlPic=

> <r_lp_tautomer_probability>
1

> <r_epik_Ionization_Penalty>
0.000526714

> <r_epik_Ionization_Penalty_Charging>
0

> <r_epik_Ionization_Penalty_Neutral>
0.000526714

> <r_epik_State_Penalty>
0.000272704

> <r_epik_Charging_Adjusted_Penalty>
0.000272704

> <i_epik_Tot_Q>
0

> <i_epik_Tot_abs_Q>
0

> <r_epik_Metal_State_Penalty>
-0

> <b_epik_Metal_Only>
0

> <s_lp_Force_Field>
OPLS_2005

> <r_lp_Energy>
60.0351

> <b_lp_Chiralities_Consistent>
1

> <s_lp_Variant>
AV-unprocessed.smi:235-3

> <Gold.Version>
5.8.1

> <Gold.Id.Protein>
6NUR|6NUR_protein|mol2

> <Gold.PLP.Fitness>
56.3216

> <Gold.PLP.PLP>
-53.5560

> <Gold.PLP.part.hbond>
-3.8821

> <Gold.PLP.part.metal>
0.0000

> <Gold.PLP.part.buried>
-6.6378

> <Gold.PLP.part.nonpolar>
-43.5000

> <Gold.PLP.part.repulsive>
0.0943

> <Gold.PLP.ligand.clash>
0.0000

> <Gold.PLP.ligand.torsion>
1.9238

> <Gold.PLP.Chemscore.Hbond>
2.1187

> <Gold.PLP.Chemscore.CHOScore>
0.0000

> <Gold.PLP.Chemscore.Metal>
0.0000

> <Gold.Chemscore.Hbonds>
donor molecule, donor type, donor heavy atom, donor atom, acceptor molecule, acceptor atom, score
      P1  H  6934  6947       L1    23  0.61

> <Gold.PLP.Chemscore.Internal.Correction>
0.2573

> <Gold.Rescore>
     Score         DG    S(hbond)    S(metal)    S(lipo)     H(rot)  DE(clash)    DE(int)     intcor
     12.93     -14.82       1.17        0.00     111.96       3.00       0.13       1.76       ----

> <Gold.Chemscore.Fitness>
12.9331

> <Gold.Chemscore.DG>
-14.8231

> <Gold.Chemscore.ZeroCoef>
-5.4800

> <Gold.Chemscore.Hbond>
1.1739

> <Gold.Chemscore.Metal>
0.0000

> <Gold.Chemscore.Lipo>
111.9609

> <Gold.Chemscore.Internal_Hbond>
0.0000

> <Gold.Chemscore.DEClash>
0.1306

> <Gold.Chemscore.DEInternal>
1.7594

> <Gold.Chemscore.Rot>
2.9989

> <Gold.Chemscore.Internal.Correction>
   9.000000E+99

> <Gold.Chemscore.Hbonds>
donor molecule, donor type, donor heavy atom, donor atom, acceptor molecule, acceptor atom, score
      P1  H  6934  6947       L1    23  0.60

> <Gold.Chemscore.Hbond.Weighted>
-3.9209

> <Gold.Chemscore.Metal.Weighted>
-0.0000

> <Gold.Chemscore.Lipo.Weighted>
-13.0994

> <Gold.Chemscore.Internal_Hbond.Weighted>
0.0000

> <Gold.Chemscore.DEClash.Weighted>
0.1306

> <Gold.Chemscore.DEInternal.Weighted>
1.7594

> <Gold.Chemscore.Rot.Weighted>
7.6772

> <Gold.Chemscore.Internal.Correction.Weighted>
   9.000000E+99

> <Gold.Protein.RotatedTorsions>
[ 6907 6896 6895 6894 ] final   81.71 input  -60.11 | X-H torsion
[ 7974 7965 7964 7962 ] final   36.22 input  175.53 | X-H torsion
[ 8008 7997 7996 7995 ] final -124.97 input   59.86 | X-H torsion
[ 10167 10162 10161 10158 ] final -108.31 input  -65.29 | X-H torsion
[ 10718 10713 10712 10709 ] final   32.31 input   66.30 | X-H torsion
[ 10763 10752 10751 10750 ] final  174.71 input  -60.55 | X-H torsion
[ 11005 11000 10999 10996 ] final   73.92 input  -57.11 | X-H torsion

> <Gold.Protein.ActiveResidues>
 VAL166  LYS551  ARG553  GLY616  TRP617  ASP618  TYR619  PRO620  LYS621  CYS622 
 ASP623  PHE694  ASN695  SER759  ASP760  ASP761  ALA762  ILE779  LEU786  VAL792 
 PHE793  MET794  SER795  GLU796  ALA797  LYS798  CYS799  TRP800  GLU811  SER814 

> <Gold.Protein.RotatedAtoms>
  152.5277  134.3162  159.9131 H   0  0  0  0  0  0  0  0  0  0  0  0  # atno 6907 bound_to 6896
  151.3111  133.4073  159.2654 H   0  0  0  0  0  0  0  0  0  0  0  0  # atno 6908 bound_to 6896
  151.0037  134.9359  159.8026 H   0  0  0  0  0  0  0  0  0  0  0  0  # atno 6909 bound_to 6896
  146.1227  139.6044  142.9279 H   0  0  0  0  0  0  0  0  0  0  0  0  # atno 7974 bound_to 7965
  155.2056  140.0417  157.2925 H   0  0  0  0  0  0  0  0  0  0  0  0  # atno 8008 bound_to 7997
  154.6045  140.2461  155.7720 H   0  0  0  0  0  0  0  0  0  0  0  0  # atno 8009 bound_to 7997
  156.2342  140.2927  156.0277 H   0  0  0  0  0  0  0  0  0  0  0  0  # atno 8010 bound_to 7997
  140.1676  143.4069  152.1379 H   0  0  0  0  0  0  0  0  0  0  0  0  # atno 10167 bound_to 10162
  157.2835  130.7267  149.6570 H   0  0  0  0  0  0  0  0  0  0  0  0  # atno 10718 bound_to 10713
  154.4577  135.2766  155.1735 H   0  0  0  0  0  0  0  0  0  0  0  0  # atno 10763 bound_to 10752
  154.3536  135.6144  153.5659 H   0  0  0  0  0  0  0  0  0  0  0  0  # atno 10764 bound_to 10752
  152.9852  135.5817  154.4933 H   0  0  0  0  0  0  0  0  0  0  0  0  # atno 10765 bound_to 10752
  139.9416  134.7388  156.1085 H   0  0  0  0  0  0  0  0  0  0  0  0  # atno 11005 bound_to 11000
  145.5432  141.0419  143.2319 LP  0  0  0  0  0  0  0  0  0  0  0  0  # atno 17320 bound_to 7965
  144.7612  139.6952  143.7233 LP  0  0  0  0  0  0  0  0  0  0  0  0  # atno 17321 bound_to 7965
  139.5353  144.7202  151.4916 LP  0  0  0  0  0  0  0  0  0  0  0  0  # atno 17342 bound_to 10162
  140.6603  143.8512  150.6880 LP  0  0  0  0  0  0  0  0  0  0  0  0  # atno 17343 bound_to 10162
  155.9665  130.4330  150.4990 LP  0  0  0  0  0  0  0  0  0  0  0  0  # atno 17370 bound_to 10713
  157.2938  131.0631  151.2115 LP  0  0  0  0  0  0  0  0  0  0  0  0  # atno 17371 bound_to 10713
  141.1053  133.6662  156.2848 LP  0  0  0  0  0  0  0  0  0  0  0  0  # atno 17394 bound_to 11000
  140.5937  134.5624  157.5504 LP  0  0  0  0  0  0  0  0  0  0  0  0  # atno 17395 bound_to 11000

$$$$
