AV-unprocessed.smi:1901|AV-procd|sdf|7717|dock1
  -GOLD-   22720 9453D 1   1.00000     0.00000
 Structure written by MMmdl.
 28 29  0  0  0  0  0  0  0  0  1 V2000
  144.6032  136.9111  152.7306 O   0  0  0  0  0  0  0  0  0  0  0  0
  145.7935  136.7658  152.4509 C   0  0  0  0  0  0  0  0  0  0  0  0
  146.7400  137.6676  152.7494 N   0  0  0  0  0  0  0  0  0  0  0  0
  146.5166  138.9339  153.4405 C   0  0  0  0  0  0  0  0  0  0  0  0
  147.7558  139.8467  153.3830 C   0  0  1  0  0  0  0  0  0  0  0  0
  147.6348  141.0956  154.2315 C   0  0  0  0  0  0  0  0  0  0  0  0
  149.0896  141.5387  154.3552 C   0  0  0  0  0  0  0  0  0  0  0  0
  149.8668  140.3458  154.3035 O   0  0  0  0  0  0  0  0  0  0  0  0
  149.0414  139.2404  153.9494 C   0  0  0  0  0  0  0  0  0  0  0  0
  146.3191  135.7022  151.8182 N   0  0  0  0  0  0  0  0  0  0  0  0
  145.6532  134.5348  151.3616 C   0  0  0  0  0  0  0  0  0  0  0  0
  144.3261  134.3634  151.3872 N   0  0  0  0  0  0  0  0  0  0  0  0
  143.9479  133.1194  150.8758 C   0  0  0  0  0  0  0  0  0  0  0  0
  145.0074  132.3501  150.4634 C   0  0  0  0  0  0  0  0  0  0  0  0
  146.5315  133.1627  150.7019 S   0  0  0  0  0  0  0  0  0  0  0  0
  147.6909  137.4630  152.4791 H   0  0  0  0  0  0  0  0  0  0  0  0
  145.6780  139.4304  152.9517 H   0  0  0  0  0  0  0  0  0  0  0  0
  146.2086  138.7650  154.4739 H   0  0  0  0  0  0  0  0  0  0  0  0
  147.9360  140.1493  152.3500 H   0  0  0  0  0  0  0  0  0  0  0  0
  146.9962  141.8583  153.7848 H   0  0  0  0  0  0  0  0  0  0  0  0
  147.2350  140.8493  155.2164 H   0  0  0  0  0  0  0  0  0  0  0  0
  149.3686  142.1695  153.5103 H   0  0  0  0  0  0  0  0  0  0  0  0
  149.2765  142.0984  155.2718 H   0  0  0  0  0  0  0  0  0  0  0  0
  148.8320  138.6663  154.8530 H   0  0  0  0  0  0  0  0  0  0  0  0
  149.5429  138.5820  153.2399 H   0  0  0  0  0  0  0  0  0  0  0  0
  147.3138  135.7268  151.6494 H   0  0  0  0  0  0  0  0  0  0  0  0
  142.8996  132.8623  150.8421 H   0  0  0  0  0  0  0  0  0  0  0  0
  144.9835  131.3592  150.0351 H   0  0  0  0  0  0  0  0  0  0  0  0
  1  2  2  0  0  0  0
  2  3  1  0  0  0  0
  2 10  1  0  0  0  0
  3  4  1  0  0  0  0
  3 16  1  0  0  0  0
  4  5  1  0  0  0  0
  4 17  1  0  0  0  0
  4 18  1  0  0  0  0
  5  9  1  0  0  0  0
  5  6  1  0  0  0  0
  5 19  1  0  0  0  0
  6  7  1  0  0  0  0
  6 20  1  0  0  0  0
  6 21  1  0  0  0  0
  7  8  1  0  0  0  0
  7 22  1  0  0  0  0
  7 23  1  0  0  0  0
  8  9  1  0  0  0  0
  9 24  1  0  0  0  0
  9 25  1  0  0  0  0
 10 11  1  0  0  0  0
 10 26  1  0  0  0  0
 11 15  1  0  0  0  0
 11 12  2  0  0  0  0
 12 13  1  0  0  0  0
 13 14  2  0  0  0  0
 13 27  1  0  0  0  0
 14 15  1  0  0  0  0
 14 28  1  0  0  0  0
M  END
> <s_m_source_file>
AV-unprocessed.smi

> <i_m_source_file_index>
1901

> <i_lp_mmshare_version>
43012

> <i_f3d_flags>
0

> <s_epik_input>
czFbY0hdW2NIXW5jMVtOSF1DKD1PKVtOSF1bQ0gyXVtDQEBIXTJbQ0gyXVtDSDJdT1tDSDJdMg==

> <s_epik_cmdline>
J2VwaWtfcHl0aG9uJywgJy1waCcsICc3LjAnLCAnLXRuJywgJzgnLCAnLW1hJywgJzIwMCcsICctbWV0YWxfYmluZGluZycsICctaW1hZScsICc8aW5maWxlLm1hZT4nLCAnLW9tYWUnLCAnPG91dGZpbGUubWFlPic=

> <r_lp_tautomer_probability>
0.999

> <r_epik_Ionization_Penalty>
0.000365592

> <r_epik_Ionization_Penalty_Charging>
0

> <r_epik_Ionization_Penalty_Neutral>
0.000365592

> <r_epik_State_Penalty>
0.000177984

> <r_epik_Charging_Adjusted_Penalty>
0.000177984

> <i_epik_Tot_Q>
0

> <i_epik_Tot_abs_Q>
0

> <r_epik_Metal_State_Penalty>
0.00682492

> <b_epik_Metal_Only>
0

> <s_lp_Force_Field>
OPLS_2005

> <r_lp_Energy>
17.1136

> <b_lp_Chiralities_Consistent>
1

> <s_lp_Variant>
AV-unprocessed.smi:1901-2

> <Gold.Version>
5.8.1

> <Gold.Id.Protein>
6NUR|6NUR_protein|mol2

> <Gold.PLP.Fitness>
37.0692

> <Gold.PLP.PLP>
-25.4169

> <Gold.PLP.part.hbond>
-3.0000

> <Gold.PLP.part.metal>
0.0000

> <Gold.PLP.part.buried>
-0.1254

> <Gold.PLP.part.nonpolar>
-22.0823

> <Gold.PLP.part.repulsive>
0.5789

> <Gold.PLP.ligand.clash>
0.0000

> <Gold.PLP.ligand.torsion>
0.0813

> <Gold.PLP.Chemscore.Hbond>
2.9440

> <Gold.PLP.Chemscore.CHOScore>
0.9921

> <Gold.PLP.Chemscore.Metal>
0.0000

> <Gold.Chemscore.Hbonds>
donor molecule, donor type, donor heavy atom, donor atom, acceptor molecule, acceptor atom, score
      L1  H     3    16       P1  7948  0.99
      L1  H    10    26       P1  7948  1.00
      P1  H  7989  7998       L1     8  0.85
      L1  C    13    27       P1 10186  0.35

> <Gold.PLP.Chemscore.Internal.Correction>
0.0067

> <Gold.Rescore>
     Score         DG    S(hbond)    S(metal)    S(lipo)     H(rot)  DE(clash)    DE(int)     intcor
     13.60     -15.60       1.94        0.00      59.79       1.32       0.71       1.28       ----

> <Gold.Chemscore.Fitness>
13.6038

> <Gold.Chemscore.DG>
-15.5966

> <Gold.Chemscore.ZeroCoef>
-5.4800

> <Gold.Chemscore.Hbond>
1.9435

> <Gold.Chemscore.Metal>
0.0000

> <Gold.Chemscore.Lipo>
59.7871

> <Gold.Chemscore.Internal_Hbond>
0.0000

> <Gold.Chemscore.DEClash>
0.7116

> <Gold.Chemscore.DEInternal>
1.2812

> <Gold.Chemscore.Rot>
1.3163

> <Gold.Chemscore.Internal.Correction>
   9.000000E+99

> <Gold.Chemscore.Hbonds>
donor molecule, donor type, donor heavy atom, donor atom, acceptor molecule, acceptor atom, score
      L1  H     3    16       P1  7948  0.94
      L1  H    10    26       P1  7948  0.99
      P1  H  7989  7998       L1     8  0.41

> <Gold.Chemscore.Hbond.Weighted>
-6.4913

> <Gold.Chemscore.Metal.Weighted>
-0.0000

> <Gold.Chemscore.Lipo.Weighted>
-6.9951

> <Gold.Chemscore.Internal_Hbond.Weighted>
0.0000

> <Gold.Chemscore.DEClash.Weighted>
0.7116

> <Gold.Chemscore.DEInternal.Weighted>
1.2812

> <Gold.Chemscore.Rot.Weighted>
3.3698

> <Gold.Chemscore.Internal.Correction.Weighted>
   9.000000E+99

> <Gold.Protein.RotatedTorsions>
[ 6907 6896 6895 6894 ] final   76.24 input  -60.11 | X-H torsion
[ 7974 7965 7964 7962 ] final  -64.42 input  175.53 | X-H torsion
[ 8008 7997 7996 7995 ] final   70.73 input   59.86 | X-H torsion
[ 10167 10162 10161 10158 ] final  172.21 input  -65.29 | X-H torsion
[ 10718 10713 10712 10709 ] final   -0.67 input   66.30 | X-H torsion
[ 10763 10752 10751 10750 ] final  -55.85 input  -60.55 | X-H torsion
[ 11005 11000 10999 10996 ] final -168.19 input  -57.11 | X-H torsion

> <Gold.Protein.ActiveResidues>
 VAL166  LYS551  ARG553  GLY616  TRP617  ASP618  TYR619  PRO620  LYS621  CYS622 
 ASP623  PHE694  ASN695  SER759  ASP760  ASP761  ALA762  ILE779  LEU786  VAL792 
 PHE793  MET794  SER795  GLU796  ALA797  LYS798  CYS799  TRP800  GLU811  SER814 

> <Gold.Protein.RotatedAtoms>
  152.5064  134.3999  159.9412 H   0  0  0  0  0  0  0  0  0  0  0  0  # atno 6907 bound_to 6896
  151.3963  133.3766  159.2734 H   0  0  0  0  0  0  0  0  0  0  0  0  # atno 6908 bound_to 6896
  150.9395  134.8826  159.7662 H   0  0  0  0  0  0  0  0  0  0  0  0  # atno 6909 bound_to 6896
  145.7669  140.8833  143.0400 H   0  0  0  0  0  0  0  0  0  0  0  0  # atno 7974 bound_to 7965
  155.7432  140.3490  155.5114 H   0  0  0  0  0  0  0  0  0  0  0  0  # atno 8008 bound_to 7997
  155.9075  140.1044  157.1326 H   0  0  0  0  0  0  0  0  0  0  0  0  # atno 8009 bound_to 7997
  154.4051  140.1274  156.4501 H   0  0  0  0  0  0  0  0  0  0  0  0  # atno 8010 bound_to 7997
  139.5070  144.3399  152.0028 H   0  0  0  0  0  0  0  0  0  0  0  0  # atno 10167 bound_to 10162
  156.8169  130.5443  149.5702 H   0  0  0  0  0  0  0  0  0  0  0  0  # atno 10718 bound_to 10713
  154.1974  135.6417  153.5077 H   0  0  0  0  0  0  0  0  0  0  0  0  # atno 10763 bound_to 10752
  153.0020  135.5443  154.6351 H   0  0  0  0  0  0  0  0  0  0  0  0  # atno 10764 bound_to 10752
  154.5756  135.2920  155.0757 H   0  0  0  0  0  0  0  0  0  0  0  0  # atno 10765 bound_to 10752
  140.5448  134.5486  157.5108 H   0  0  0  0  0  0  0  0  0  0  0  0  # atno 11005 bound_to 11000
  144.6820  139.9801  143.7483 LP  0  0  0  0  0  0  0  0  0  0  0  0  # atno 17320 bound_to 7965
  146.0208  139.3250  143.0814 LP  0  0  0  0  0  0  0  0  0  0  0  0  # atno 17321 bound_to 7965
  140.2837  144.3831  150.6110 LP  0  0  0  0  0  0  0  0  0  0  0  0  # atno 17342 bound_to 10162
  140.5999  143.2167  151.7093 LP  0  0  0  0  0  0  0  0  0  0  0  0  # atno 17343 bound_to 10162
  156.1011  130.5970  150.9896 LP  0  0  0  0  0  0  0  0  0  0  0  0  # atno 17370 bound_to 10713
  157.6477  131.0901  150.8119 LP  0  0  0  0  0  0  0  0  0  0  0  0  # atno 17371 bound_to 10713
  139.9485  134.7659  156.0504 LP  0  0  0  0  0  0  0  0  0  0  0  0  # atno 17394 bound_to 11000
  141.1206  133.6614  156.3205 LP  0  0  0  0  0  0  0  0  0  0  0  0  # atno 17395 bound_to 11000

$$$$
