AV-unprocessed.smi:3306|AV-procd|sdf|12703|dock4
  -GOLD-   2272019 33D 1   1.00000     0.00000
 Structure written by MMmdl.
 44 45  0  0  0  0  0  0  0  0  2 V2000
  151.5793  141.2374  157.1920 C   0  0  0  0  0  0  0  0  0  0  0  0
  150.1736  141.6704  156.7183 C   0  0  0  0  0  0  0  0  0  0  0  0
  149.1723  141.3778  157.8583 C   0  0  0  0  0  0  0  0  0  0  0  0
  149.7885  141.0009  155.4573 N   0  0  0  0  0  0  0  0  0  0  0  0
  148.3637  141.2113  155.1544 C   0  0  0  0  0  0  0  0  0  0  0  0
  147.9808  140.5935  153.7985 C   0  0  0  0  0  0  0  0  0  0  0  0
  148.2505  139.0856  153.7812 C   0  0  0  0  0  0  0  0  0  0  0  0
  147.9447  138.5274  152.4453 N   0  3  0  0  0  0  0  0  0  0  0  0
  146.5085  138.4551  152.1049 C   0  0  0  0  0  0  0  0  0  0  0  0
  145.7370  137.6408  153.1524 C   0  0  0  0  0  0  0  0  0  0  0  0
  145.1460  136.3700  152.5720 C   0  0  0  0  0  0  0  0  0  0  0  0
  145.3915  136.0069  151.2305 C   0  0  0  0  0  0  0  0  0  0  0  0
  144.8149  134.8185  150.7414 C   0  0  0  0  0  0  0  0  0  0  0  0
  144.0187  134.0446  151.6073 C   0  0  0  0  0  0  0  0  0  0  0  0
  143.8326  134.4952  152.9294 C   0  0  0  0  0  0  0  0  0  0  0  0
  144.3794  135.6340  153.4079 N   0  0  0  0  0  0  0  0  0  0  0  0
  149.7159  138.8636  154.1807 C   0  0  0  0  0  0  0  0  0  0  0  0
  150.0353  139.5513  155.5200 C   0  0  0  0  0  0  0  0  0  0  0  0
  151.7857  141.6096  158.1960 H   0  0  0  0  0  0  0  0  0  0  0  0
  152.3747  141.6347  156.5628 H   0  0  0  0  0  0  0  0  0  0  0  0
  151.6742  140.1514  157.2215 H   0  0  0  0  0  0  0  0  0  0  0  0
  150.1893  142.7488  156.5518 H   0  0  0  0  0  0  0  0  0  0  0  0
  149.5521  141.7374  158.8151 H   0  0  0  0  0  0  0  0  0  0  0  0
  148.9868  140.3082  157.9627 H   0  0  0  0  0  0  0  0  0  0  0  0
  148.2166  141.8804  157.7139 H   0  0  0  0  0  0  0  0  0  0  0  0
  147.7452  140.7952  155.9513 H   0  0  0  0  0  0  0  0  0  0  0  0
  148.1313  142.2723  155.0905 H   0  0  0  0  0  0  0  0  0  0  0  0
  146.9266  140.7859  153.5952 H   0  0  0  0  0  0  0  0  0  0  0  0
  148.5441  141.0861  153.0040 H   0  0  0  0  0  0  0  0  0  0  0  0
  147.5970  138.6100  154.5145 H   0  0  0  0  0  0  0  0  0  0  0  0
  148.3879  139.1211  151.7589 H   0  0  0  0  0  0  0  0  0  0  0  0
  146.0949  139.4619  152.0438 H   0  0  0  0  0  0  0  0  0  0  0  0
  146.3919  137.9959  151.1223 H   0  0  0  0  0  0  0  0  0  0  0  0
  146.3949  137.3824  153.9833 H   0  0  0  0  0  0  0  0  0  0  0  0
  144.9311  138.2426  153.5756 H   0  0  0  0  0  0  0  0  0  0  0  0
  146.0057  136.6214  150.5889 H   0  0  0  0  0  0  0  0  0  0  0  0
  144.9802  134.5062  149.7209 H   0  0  0  0  0  0  0  0  0  0  0  0
  143.5611  133.1275  151.2667 H   0  0  0  0  0  0  0  0  0  0  0  0
  143.2280  133.9265  153.6203 H   0  0  0  0  0  0  0  0  0  0  0  0
  149.9310  137.7989  154.2710 H   0  0  0  0  0  0  0  0  0  0  0  0
  150.3799  139.2497  153.4055 H   0  0  0  0  0  0  0  0  0  0  0  0
  151.0815  139.3435  155.7352 H   0  0  0  0  0  0  0  0  0  0  0  0
  149.4485  139.1069  156.3257 H   0  0  0  0  0  0  0  0  0  0  0  0
  148.3485  137.6040  152.3770 H   0  0  0  0  0  0  0  0  0  0  0  0
  1  2  1  0  0  0  0
  1 19  1  0  0  0  0
  1 20  1  0  0  0  0
  1 21  1  0  0  0  0
  2  3  1  0  0  0  0
  2  4  1  0  0  0  0
  2 22  1  0  0  0  0
  3 23  1  0  0  0  0
  3 24  1  0  0  0  0
  3 25  1  0  0  0  0
  4 18  1  0  0  0  0
  4  5  1  0  0  0  0
  5  6  1  0  0  0  0
  5 26  1  0  0  0  0
  5 27  1  0  0  0  0
  6  7  1  0  0  0  0
  6 28  1  0  0  0  0
  6 29  1  0  0  0  0
  7  8  1  0  0  0  0
  7 17  1  0  0  0  0
  7 30  1  0  0  0  0
  8  9  1  0  0  0  0
  8 31  1  0  0  0  0
  8 44  1  0  0  0  0
  9 10  1  0  0  0  0
  9 32  1  0  0  0  0
  9 33  1  0  0  0  0
 10 11  1  0  0  0  0
 10 34  1  0  0  0  0
 10 35  1  0  0  0  0
 11 16  1  0  0  0  0
 11 12  2  0  0  0  0
 12 13  1  0  0  0  0
 12 36  1  0  0  0  0
 13 14  2  0  0  0  0
 13 37  1  0  0  0  0
 14 15  1  0  0  0  0
 14 38  1  0  0  0  0
 15 16  2  0  0  0  0
 15 39  1  0  0  0  0
 17 18  1  0  0  0  0
 17 40  1  0  0  0  0
 17 41  1  0  0  0  0
 18 42  1  0  0  0  0
 18 43  1  0  0  0  0
M  CHG  1   8   1
M  END
> <s_m_source_file>
AV-unprocessed.smi

> <i_m_source_file_index>
3306

> <i_lp_mmshare_version>
43012

> <i_f3d_flags>
0

> <s_epik_input>
W0NIM11bQ0hdKFtDSDNdKU4xW0NIMl1bQ0gyXVtDSF0oW0NIMl1bQ0gyXTEpW05IXVtDSDJdW0NIMl1jMltjSF1bY0hdW2NIXVtjSF1uMg==

> <s_epik_cmdline>
J2VwaWtfcHl0aG9uJywgJy1waCcsICc3LjAnLCAnLXRuJywgJzgnLCAnLW1hJywgJzIwMCcsICctbWV0YWxfYmluZGluZycsICctaW1hZScsICc8aW5maWxlLm1hZT4nLCAnLW9tYWUnLCAnPG91dGZpbGUubWFlPic=

> <r_epik_Ionization_Penalty>
1.34673

> <r_epik_Ionization_Penalty_Charging>
0.000531593

> <r_epik_Ionization_Penalty_Neutral>
1.3462

> <r_epik_State_Penalty>
1.43277

> <r_epik_Charging_Adjusted_Penalty>
1.4333

> <i_epik_Tot_Q>
1

> <i_epik_Tot_abs_Q>
1

> <r_epik_Metal_State_Penalty>
1.43418

> <b_epik_Metal_Only>
0

> <s_lp_Force_Field>
OPLS_2005

> <r_lp_Energy>
21.3297

> <b_lp_Chiralities_Consistent>
1

> <s_lp_Variant>
AV-unprocessed.smi:3306-3

> <Gold.Version>
5.8.1

> <Gold.Id.Protein>
6NUR|6NUR_protein|mol2

> <Gold.PLP.Fitness>
43.0350

> <Gold.PLP.PLP>
-32.1975

> <Gold.PLP.part.hbond>
-2.0000

> <Gold.PLP.part.metal>
0.0000

> <Gold.PLP.part.buried>
-4.0422

> <Gold.PLP.part.nonpolar>
-27.5307

> <Gold.PLP.part.repulsive>
0.2159

> <Gold.PLP.ligand.clash>
0.0000

> <Gold.PLP.ligand.torsion>
0.6038

> <Gold.PLP.Chemscore.Hbond>
3.0000

> <Gold.PLP.Chemscore.CHOScore>
1.0000

> <Gold.PLP.Chemscore.Metal>
0.0000

> <Gold.Chemscore.Hbonds>
donor molecule, donor type, donor heavy atom, donor atom, acceptor molecule, acceptor atom, score
      L1  H     8    31       P1  7957  1.00
      L1  H     8    44       P1  7948  2.00
      L1  C    15    39       P1 10957  1.00

> <Gold.PLP.Chemscore.Internal.Correction>
0.0452

> <Gold.Rescore>
     Score         DG    S(hbond)    S(metal)    S(lipo)     H(rot)  DE(clash)    DE(int)     intcor
     17.82     -18.52       1.96        0.00      86.36       1.41       0.19       0.51       ----

> <Gold.Chemscore.Fitness>
17.8179

> <Gold.Chemscore.DG>
-18.5173

> <Gold.Chemscore.ZeroCoef>
-5.4800

> <Gold.Chemscore.Hbond>
1.9594

> <Gold.Chemscore.Metal>
0.0000

> <Gold.Chemscore.Lipo>
86.3599

> <Gold.Chemscore.Internal_Hbond>
0.0000

> <Gold.Chemscore.DEClash>
0.1853

> <Gold.Chemscore.DEInternal>
0.5142

> <Gold.Chemscore.Rot>
1.4106

> <Gold.Chemscore.Internal.Correction>
   9.000000E+99

> <Gold.Chemscore.Hbonds>
donor molecule, donor type, donor heavy atom, donor atom, acceptor molecule, acceptor atom, score
      L1  H     8    31       P1  7957  0.92
      L1  H     8    44       P1  7948  0.97

> <Gold.Chemscore.Hbond.Weighted>
-6.5444

> <Gold.Chemscore.Metal.Weighted>
-0.0000

> <Gold.Chemscore.Lipo.Weighted>
-10.1041

> <Gold.Chemscore.Internal_Hbond.Weighted>
0.0000

> <Gold.Chemscore.DEClash.Weighted>
0.1853

> <Gold.Chemscore.DEInternal.Weighted>
0.5142

> <Gold.Chemscore.Rot.Weighted>
3.6112

> <Gold.Chemscore.Internal.Correction.Weighted>
   9.000000E+99

> <Gold.Protein.RotatedTorsions>
[ 6907 6896 6895 6894 ] final    3.60 input  -60.11 | X-H torsion
[ 7974 7965 7964 7962 ] final -162.94 input  175.53 | X-H torsion
[ 8008 7997 7996 7995 ] final   11.08 input   59.86 | X-H torsion
[ 10167 10162 10161 10158 ] final  -90.17 input  -65.29 | X-H torsion
[ 10718 10713 10712 10709 ] final -168.11 input   66.30 | X-H torsion
[ 10763 10752 10751 10750 ] final   -3.87 input  -60.55 | X-H torsion
[ 11005 11000 10999 10996 ] final   37.55 input  -57.11 | X-H torsion

> <Gold.Protein.ActiveResidues>
 VAL166  LYS551  ARG553  GLY616  TRP617  ASP618  TYR619  PRO620  LYS621  CYS622 
 ASP623  PHE694  ASN695  SER759  ASP760  ASP761  ALA762  ILE779  LEU786  VAL792 
 PHE793  MET794  SER795  GLU796  ALA797  LYS798  CYS799  TRP800  GLU811  SER814 

> <Gold.Protein.RotatedAtoms>
  151.6278  135.1026  160.0114 H   0  0  0  0  0  0  0  0  0  0  0  0  # atno 6907 bound_to 6896
  152.4123  133.6979  159.6417 H   0  0  0  0  0  0  0  0  0  0  0  0  # atno 6908 bound_to 6896
  150.8013  133.8519  159.3248 H   0  0  0  0  0  0  0  0  0  0  0  0  # atno 6909 bound_to 6896
  144.7341  140.3179  143.6176 H   0  0  0  0  0  0  0  0  0  0  0  0  # atno 7974 bound_to 7965
  154.8020  140.2853  155.5914 H   0  0  0  0  0  0  0  0  0  0  0  0  # atno 8008 bound_to 7997
  156.2978  140.2584  156.2820 H   0  0  0  0  0  0  0  0  0  0  0  0  # atno 8009 bound_to 7997
  154.9547  140.0378  157.2150 H   0  0  0  0  0  0  0  0  0  0  0  0  # atno 8010 bound_to 7997
  140.3576  143.2859  151.9653 H   0  0  0  0  0  0  0  0  0  0  0  0  # atno 10167 bound_to 10162
  156.6922  130.9164  151.3070 H   0  0  0  0  0  0  0  0  0  0  0  0  # atno 10718 bound_to 10713
  153.3772  135.6997  153.6593 H   0  0  0  0  0  0  0  0  0  0  0  0  # atno 10763 bound_to 10752
  153.5219  135.3610  155.2636 H   0  0  0  0  0  0  0  0  0  0  0  0  # atno 10764 bound_to 10752
  154.8688  135.4160  154.3062 H   0  0  0  0  0  0  0  0  0  0  0  0  # atno 10765 bound_to 10752
  140.2215  134.3635  155.8003 H   0  0  0  0  0  0  0  0  0  0  0  0  # atno 11005 bound_to 11000
  145.7599  139.1821  143.2273 LP  0  0  0  0  0  0  0  0  0  0  0  0  # atno 17320 bound_to 7965
  146.0995  140.7561  142.9556 LP  0  0  0  0  0  0  0  0  0  0  0  0  # atno 17321 bound_to 7965
  139.4818  144.6021  151.7586 LP  0  0  0  0  0  0  0  0  0  0  0  0  # atno 17342 bound_to 10162
  140.5159  144.0954  150.6008 LP  0  0  0  0  0  0  0  0  0  0  0  0  # atno 17343 bound_to 10162
  157.7004  130.9327  150.0770 LP  0  0  0  0  0  0  0  0  0  0  0  0  # atno 17370 bound_to 10713
  156.1789  130.3649  149.9062 LP  0  0  0  0  0  0  0  0  0  0  0  0  # atno 17371 bound_to 10713
  141.2223  133.7196  156.8583 LP  0  0  0  0  0  0  0  0  0  0  0  0  # atno 17394 bound_to 11000
  140.1845  134.9010  157.2988 LP  0  0  0  0  0  0  0  0  0  0  0  0  # atno 17395 bound_to 11000

$$$$
