AV-unprocessed.smi:374|AV-procd|sdf|2451|dock1
  -GOLD-   2262022393D 1   1.00000     0.00000
 Structure written by MMmdl.
 37 38  0  0  0  0  0  0  0  0  1 V2000
  150.7212  137.7343  158.5419 C   0  0  0  0  0  0  0  0  0  0  0  0
  152.0829  137.9393  157.8528 C   0  0  2  0  0  0  0  0  0  0  0  0
  152.9174  139.0566  158.4974 C   0  0  0  0  0  0  0  0  0  0  0  0
  154.1026  139.2119  158.2009 O   0  0  0  0  0  0  0  0  0  0  0  0
  152.2801  139.8277  159.3902 N   0  0  0  0  0  0  0  0  0  0  0  0
  152.8982  140.9190  160.1312 C   0  0  0  0  0  0  0  0  0  0  0  0
  152.1506  142.2478  159.9097 C   0  0  0  0  0  0  0  0  0  0  0  0
  152.4307  142.8057  158.4994 C   0  0  0  0  0  0  0  0  0  0  0  0
  151.6853  144.1268  158.2500 C   0  0  0  0  0  0  0  0  0  0  0  0
  152.0335  145.1721  159.3202 C   0  0  0  0  0  0  0  0  0  0  0  0
  151.7544  144.6315  160.7306 C   0  0  0  0  0  0  0  0  0  0  0  0
  152.4967  143.3082  160.9798 C   0  0  0  0  0  0  0  0  0  0  0  0
  151.9150  138.1942  156.4287 N   0  0  0  0  0  0  0  0  0  0  0  0
  151.4024  139.2444  155.7808 C   0  0  0  0  0  0  0  0  0  0  0  0
  151.4200  139.1222  154.4610 N   0  0  0  0  0  0  0  0  0  0  0  0
  151.9967  137.8883  154.3545 C   0  0  0  0  0  0  0  0  0  0  0  0
  152.3132  137.2893  155.5027 N   0  0  0  0  0  0  0  0  0  0  0  0
  150.8429  137.5358  159.6072 H   0  0  0  0  0  0  0  0  0  0  0  0
  150.1931  136.8838  158.1099 H   0  0  0  0  0  0  0  0  0  0  0  0
  150.0780  138.6090  158.4370 H   0  0  0  0  0  0  0  0  0  0  0  0
  152.6472  137.0114  157.9654 H   0  0  0  0  0  0  0  0  0  0  0  0
  151.3076  139.6342  159.5818 H   0  0  0  0  0  0  0  0  0  0  0  0
  152.9167  140.6718  161.1940 H   0  0  0  0  0  0  0  0  0  0  0  0
  153.9360  141.0170  159.8087 H   0  0  0  0  0  0  0  0  0  0  0  0
  151.0812  142.0412  159.9765 H   0  0  0  0  0  0  0  0  0  0  0  0
  153.5023  142.9652  158.3726 H   0  0  0  0  0  0  0  0  0  0  0  0
  152.1372  142.0757  157.7442 H   0  0  0  0  0  0  0  0  0  0  0  0
  151.9330  144.5118  157.2606 H   0  0  0  0  0  0  0  0  0  0  0  0
  150.6097  143.9459  158.2510 H   0  0  0  0  0  0  0  0  0  0  0  0
  153.0858  145.4461  159.2351 H   0  0  0  0  0  0  0  0  0  0  0  0
  151.4609  146.0844  159.1502 H   0  0  0  0  0  0  0  0  0  0  0  0
  152.0509  145.3696  161.4765 H   0  0  0  0  0  0  0  0  0  0  0  0
  150.6819  144.4781  160.8571 H   0  0  0  0  0  0  0  0  0  0  0  0
  152.2450  142.9431  161.9759 H   0  0  0  0  0  0  0  0  0  0  0  0
  153.5722  143.4903  160.9827 H   0  0  0  0  0  0  0  0  0  0  0  0
  151.0103  140.1155  156.2855 H   0  0  0  0  0  0  0  0  0  0  0  0
  152.1904  137.4176  153.4020 H   0  0  0  0  0  0  0  0  0  0  0  0
  1  2  1  0  0  0  0
  1 18  1  0  0  0  0
  1 19  1  0  0  0  0
  1 20  1  0  0  0  0
  2  3  1  0  0  0  0
  2 13  1  0  0  0  0
  2 21  1  0  0  0  0
  3  4  2  0  0  0  0
  3  5  1  0  0  0  0
  5  6  1  0  0  0  0
  5 22  1  0  0  0  0
  6  7  1  0  0  0  0
  6 23  1  0  0  0  0
  6 24  1  0  0  0  0
  7 12  1  0  0  0  0
  7  8  1  0  0  0  0
  7 25  1  0  0  0  0
  8  9  1  0  0  0  0
  8 26  1  0  0  0  0
  8 27  1  0  0  0  0
  9 10  1  0  0  0  0
  9 28  1  0  0  0  0
  9 29  1  0  0  0  0
 10 11  1  0  0  0  0
 10 30  1  0  0  0  0
 10 31  1  0  0  0  0
 11 12  1  0  0  0  0
 11 32  1  0  0  0  0
 11 33  1  0  0  0  0
 12 34  1  0  0  0  0
 12 35  1  0  0  0  0
 13 17  1  0  0  0  0
 13 14  1  0  0  0  0
 14 15  2  0  0  0  0
 14 36  1  0  0  0  0
 15 16  1  0  0  0  0
 16 17  2  0  0  0  0
 16 37  1  0  0  0  0
M  END
> <s_m_source_file>
AV-unprocessed.smi

> <i_m_source_file_index>
374

> <i_lp_mmshare_version>
43012

> <i_f3d_flags>
0

> <s_epik_input>
bjFbY0hdbltjSF1uMVtDQEhdKFtDSDNdKUMoPU8pW05IXVtDSDJdW0NIXTJbQ0gyXVtDSDJdW0NIMl1bQ0gyXVtDSDJdMg==

> <s_epik_cmdline>
J2VwaWtfcHl0aG9uJywgJy1waCcsICc3LjAnLCAnLXRuJywgJzgnLCAnLW1hJywgJzIwMCcsICctbWV0YWxfYmluZGluZycsICctaW1hZScsICc8aW5maWxlLm1hZT4nLCAnLW9tYWUnLCAnPG91dGZpbGUubWFlPic=

> <r_lp_tautomer_probability>
1

> <r_epik_Ionization_Penalty>
1.24899e-05

> <r_epik_Ionization_Penalty_Charging>
0

> <r_epik_Ionization_Penalty_Neutral>
1.24899e-05

> <r_epik_State_Penalty>
-0

> <r_epik_Charging_Adjusted_Penalty>
0

> <i_epik_Tot_Q>
0

> <i_epik_Tot_abs_Q>
0

> <r_epik_Metal_State_Penalty>
-0

> <b_epik_Metal_Only>
0

> <s_lp_Force_Field>
OPLS_2005

> <r_lp_Energy>
16.088

> <b_lp_Chiralities_Consistent>
1

> <s_lp_Variant>
AV-unprocessed.smi:374-1

> <Gold.Version>
5.8.1

> <Gold.Id.Protein>
6NUR|6NUR_protein|mol2

> <Gold.PLP.Fitness>
47.9043

> <Gold.PLP.PLP>
-37.5312

> <Gold.PLP.part.hbond>
-2.8210

> <Gold.PLP.part.metal>
0.0000

> <Gold.PLP.part.buried>
-5.3915

> <Gold.PLP.part.nonpolar>
-30.3864

> <Gold.PLP.part.repulsive>
0.3028

> <Gold.PLP.ligand.clash>
0.1975

> <Gold.PLP.ligand.torsion>
0.3486

> <Gold.PLP.Chemscore.Hbond>
2.7301

> <Gold.PLP.Chemscore.CHOScore>
0.9989

> <Gold.PLP.Chemscore.Metal>
0.0000

> <Gold.Chemscore.Hbonds>
donor molecule, donor type, donor heavy atom, donor atom, acceptor molecule, acceptor atom, score
      P1  H  7989  7998       L1    15  1.00
      P1  H  7997  8008       L1     4  0.96
      P1  H 10752 10764       L1    17  0.68
      L1  C    16    37       P1  7949  0.85

> <Gold.PLP.Chemscore.Internal.Correction>
0.0807

> <Gold.Rescore>
     Score         DG    S(hbond)    S(metal)    S(lipo)     H(rot)  DE(clash)    DE(int)     intcor
     18.03     -18.31       2.50        0.00      85.12       2.14       0.05       0.22       ----

> <Gold.Chemscore.Fitness>
18.0331

> <Gold.Chemscore.DG>
-18.3072

> <Gold.Chemscore.ZeroCoef>
-5.4800

> <Gold.Chemscore.Hbond>
2.4975

> <Gold.Chemscore.Metal>
0.0000

> <Gold.Chemscore.Lipo>
85.1245

> <Gold.Chemscore.Internal_Hbond>
0.0000

> <Gold.Chemscore.DEClash>
0.0502

> <Gold.Chemscore.DEInternal>
0.2239

> <Gold.Chemscore.Rot>
2.1383

> <Gold.Chemscore.Internal.Correction>
   9.000000E+99

> <Gold.Chemscore.Hbonds>
donor molecule, donor type, donor heavy atom, donor atom, acceptor molecule, acceptor atom, score
      P1  H  7989  7998       L1    15  0.85
      P1  H  7997  8008       L1     4  0.87
      P1  H 10752 10764       L1    17  0.13

> <Gold.Chemscore.Hbond.Weighted>
-8.3417

> <Gold.Chemscore.Metal.Weighted>
-0.0000

> <Gold.Chemscore.Lipo.Weighted>
-9.9596

> <Gold.Chemscore.Internal_Hbond.Weighted>
0.0000

> <Gold.Chemscore.DEClash.Weighted>
0.0502

> <Gold.Chemscore.DEInternal.Weighted>
0.2239

> <Gold.Chemscore.Rot.Weighted>
5.4741

> <Gold.Chemscore.Internal.Correction.Weighted>
   9.000000E+99

> <Gold.Protein.RotatedTorsions>
[ 6907 6896 6895 6894 ] final -158.39 input  -60.11 | X-H torsion
[ 7974 7965 7964 7962 ] final -162.66 input  175.53 | X-H torsion
[ 8008 7997 7996 7995 ] final  -79.85 input   59.86 | X-H torsion
[ 10167 10162 10161 10158 ] final   29.32 input  -65.29 | X-H torsion
[ 10718 10713 10712 10709 ] final  -18.85 input   66.30 | X-H torsion
[ 10763 10752 10751 10750 ] final  -51.60 input  -60.55 | X-H torsion
[ 11005 11000 10999 10996 ] final  153.32 input  -57.11 | X-H torsion

> <Gold.Protein.ActiveResidues>
 VAL166  LYS551  ARG553  GLY616  TRP617  ASP618  TYR619  PRO620  LYS621  CYS622 
 ASP623  PHE694  ASN695  SER759  ASP760  ASP761  ALA762  ILE779  LEU786  VAL792 
 PHE793  MET794  SER795  GLU796  ALA797  LYS798  CYS799  TRP800  GLU811  SER814 

> <Gold.Protein.RotatedAtoms>
  151.3174  133.4054  159.2651 H   0  0  0  0  0  0  0  0  0  0  0  0  # atno 6907 bound_to 6896
  151.0063  134.9362  159.7992 H   0  0  0  0  0  0  0  0  0  0  0  0  # atno 6908 bound_to 6896
  152.5289  134.3139  159.9176 H   0  0  0  0  0  0  0  0  0  0  0  0  # atno 6909 bound_to 6896
  144.7350  140.3221  143.6169 H   0  0  0  0  0  0  0  0  0  0  0  0  # atno 7974 bound_to 7965
  154.5825  140.0672  156.9124 H   0  0  0  0  0  0  0  0  0  0  0  0  # atno 8008 bound_to 7997
  155.2437  140.3346  155.4271 H   0  0  0  0  0  0  0  0  0  0  0  0  # atno 8009 bound_to 7997
  156.2199  140.1794  156.7485 H   0  0  0  0  0  0  0  0  0  0  0  0  # atno 8010 bound_to 7997
  140.4776  144.0666  150.6255 H   0  0  0  0  0  0  0  0  0  0  0  0  # atno 10167 bound_to 10162
  156.5538  130.4708  149.6439 H   0  0  0  0  0  0  0  0  0  0  0  0  # atno 10718 bound_to 10713
  154.1293  135.6522  153.4919 H   0  0  0  0  0  0  0  0  0  0  0  0  # atno 10763 bound_to 10752
  153.0200  135.5289  154.7017 H   0  0  0  0  0  0  0  0  0  0  0  0  # atno 10764 bound_to 10752
  154.6247  135.2969  155.0256 H   0  0  0  0  0  0  0  0  0  0  0  0  # atno 10765 bound_to 10752
  140.1387  134.8753  157.2302 H   0  0  0  0  0  0  0  0  0  0  0  0  # atno 11005 bound_to 11000
  145.7558  139.1808  143.2295 LP  0  0  0  0  0  0  0  0  0  0  0  0  # atno 17320 bound_to 7965
  146.1025  140.7527  142.9542 LP  0  0  0  0  0  0  0  0  0  0  0  0  # atno 17321 bound_to 7965
  140.3899  143.2758  152.0073 LP  0  0  0  0  0  0  0  0  0  0  0  0  # atno 17342 bound_to 10162
  139.4828  144.6086  151.7475 LP  0  0  0  0  0  0  0  0  0  0  0  0  # atno 17343 bound_to 10162
  156.2861  130.7098  151.1935 LP  0  0  0  0  0  0  0  0  0  0  0  0  # atno 17370 bound_to 10713
  157.7382  131.0543  150.5307 LP  0  0  0  0  0  0  0  0  0  0  0  0  # atno 17371 bound_to 10713
  140.2749  134.3416  155.7361 LP  0  0  0  0  0  0  0  0  0  0  0  0  # atno 17394 bound_to 11000
  141.2182  133.7445  156.9278 LP  0  0  0  0  0  0  0  0  0  0  0  0  # atno 17395 bound_to 11000

$$$$
