AV-unprocessed.smi:541|AV-procd|sdf|2872|dock1
  -GOLD-   2262023363D 1   1.00000     0.00000
 Structure written by MMmdl.
 42 44  0  0  0  0  0  0  0  0  2 V2000
  148.0389  141.5014  154.4291 C   0  0  0  0  0  0  0  0  0  0  0  0
  148.9465  140.2695  154.4367 C   0  0  0  0  0  0  0  0  0  0  0  0
  150.2344  140.6504  154.8896 O   0  0  0  0  0  0  0  0  0  0  0  0
  150.3428  140.6378  156.3028 C   0  0  0  0  0  0  0  0  0  0  0  0
  151.6465  141.3419  156.7056 C   0  0  0  0  0  0  0  0  0  0  0  0
  152.1599  140.8505  157.9818 N   0  0  0  0  0  0  0  0  0  0  0  0
  152.4147  141.5289  159.1423 C   0  0  0  0  0  0  0  0  0  0  0  0
  152.1874  142.9015  159.3410 N   0  0  0  0  0  0  0  0  0  0  0  0
  152.0666  144.0116  158.3946 C   0  0  0  0  0  0  0  0  0  0  0  0
  151.4045  145.1827  159.1128 C   0  0  0  0  0  0  0  0  0  0  0  0
  151.9210  145.0080  160.5229 C   0  0  0  0  0  0  0  0  0  0  0  0
  151.9445  143.4887  160.6598 C   0  0  0  0  0  0  0  0  0  0  0  0
  152.9154  140.7623  160.1156 N   0  0  0  0  0  0  0  0  0  0  0  0
  152.9650  139.5014  159.5493 C   0  0  0  0  0  0  0  0  0  0  0  0
  152.5083  139.5236  158.2704 C   0  0  0  0  0  0  0  0  0  0  0  0
  152.4268  138.3185  157.4112 C   0  0  0  0  0  0  0  0  0  0  0  0
  151.9851  138.3801  156.2656 O   0  0  0  0  0  0  0  0  0  0  0  0
  152.8833  137.1942  158.0487 N   0  5  0  0  0  0  0  0  0  0  0  0
  153.3597  137.1319  159.3401 C   0  0  0  0  0  0  0  0  0  0  0  0
  153.7540  136.0765  159.8379 O   0  0  0  0  0  0  0  0  0  0  0  0
  153.4019  138.2679  160.1041 N   0  0  0  0  0  0  0  0  0  0  0  0
  153.8968  138.2317  161.4833 C   0  0  0  0  0  0  0  0  0  0  0  0
  147.0361  141.2444  154.0875 H   0  0  0  0  0  0  0  0  0  0  0  0
  148.4313  142.2716  153.7647 H   0  0  0  0  0  0  0  0  0  0  0  0
  147.9532  141.9309  155.4276 H   0  0  0  0  0  0  0  0  0  0  0  0
  148.5287  139.5038  155.0922 H   0  0  0  0  0  0  0  0  0  0  0  0
  149.0094  139.8480  153.4324 H   0  0  0  0  0  0  0  0  0  0  0  0
  149.4823  141.1384  156.7475 H   0  0  0  0  0  0  0  0  0  0  0  0
  150.3396  139.6102  156.6689 H   0  0  0  0  0  0  0  0  0  0  0  0
  152.4041  141.1996  155.9366 H   0  0  0  0  0  0  0  0  0  0  0  0
  151.5203  142.4189  156.7416 H   0  0  0  0  0  0  0  0  0  0  0  0
  153.0659  144.3050  158.0717 H   0  0  0  0  0  0  0  0  0  0  0  0
  151.4882  143.7362  157.5150 H   0  0  0  0  0  0  0  0  0  0  0  0
  151.6588  146.1493  158.6773 H   0  0  0  0  0  0  0  0  0  0  0  0
  150.3192  145.0715  159.0936 H   0  0  0  0  0  0  0  0  0  0  0  0
  152.9327  145.4082  160.6034 H   0  0  0  0  0  0  0  0  0  0  0  0
  151.2983  145.4949  161.2738 H   0  0  0  0  0  0  0  0  0  0  0  0
  150.9804  143.1293  161.0220 H   0  0  0  0  0  0  0  0  0  0  0  0
  152.7038  143.1719  161.3759 H   0  0  0  0  0  0  0  0  0  0  0  0
  153.3066  137.5377  162.0835 H   0  0  0  0  0  0  0  0  0  0  0  0
  153.8506  139.2042  161.9730 H   0  0  0  0  0  0  0  0  0  0  0  0
  154.9369  137.9040  161.5065 H   0  0  0  0  0  0  0  0  0  0  0  0
  1  2  1  0  0  0  0
  1 23  1  0  0  0  0
  1 24  1  0  0  0  0
  1 25  1  0  0  0  0
  2  3  1  0  0  0  0
  2 26  1  0  0  0  0
  2 27  1  0  0  0  0
  3  4  1  0  0  0  0
  4  5  1  0  0  0  0
  4 28  1  0  0  0  0
  4 29  1  0  0  0  0
  5  6  1  0  0  0  0
  5 30  1  0  0  0  0
  5 31  1  0  0  0  0
  6 15  1  0  0  0  0
  6  7  1  0  0  0  0
  7  8  1  0  0  0  0
  7 13  2  0  0  0  0
  8 12  1  0  0  0  0
  8  9  1  0  0  0  0
  9 10  1  0  0  0  0
  9 32  1  0  0  0  0
  9 33  1  0  0  0  0
 10 11  1  0  0  0  0
 10 34  1  0  0  0  0
 10 35  1  0  0  0  0
 11 12  1  0  0  0  0
 11 36  1  0  0  0  0
 11 37  1  0  0  0  0
 12 38  1  0  0  0  0
 12 39  1  0  0  0  0
 13 14  1  0  0  0  0
 14 21  1  0  0  0  0
 14 15  2  0  0  0  0
 15 16  1  0  0  0  0
 16 17  2  0  0  0  0
 16 18  1  0  0  0  0
 18 19  1  0  0  0  0
 19 20  2  0  0  0  0
 19 21  1  0  0  0  0
 21 22  1  0  0  0  0
 22 40  1  0  0  0  0
 22 41  1  0  0  0  0
 22 42  1  0  0  0  0
M  CHG  1  18  -1
M  END
> <s_m_source_file>
AV-unprocessed.smi

> <i_m_source_file_index>
541

> <i_lp_mmshare_version>
43012

> <i_f3d_flags>
0

> <s_epik_input>
W0NIM11uMWMoPU8pW25IXWMoPU8pYyhjMTIpbihbQ0gyXVtDSDJdT1tDSDJdW0NIM10pYyhuMilOM1tDSDJdW0NIMl1bQ0gyXVtDSDJdMw==

> <s_epik_cmdline>
J2VwaWtfcHl0aG9uJywgJy1waCcsICc3LjAnLCAnLXRuJywgJzgnLCAnLW1hJywgJzIwMCcsICctbWV0YWxfYmluZGluZycsICctaW1hZScsICc8aW5maWxlLm1hZT4nLCAnLW9tYWUnLCAnPG91dGZpbGUubWFlPic=

> <r_lp_tautomer_probability>
1

> <r_epik_Ionization_Penalty>
6.1404

> <r_epik_Ionization_Penalty_Charging>
0.0734613

> <r_epik_Ionization_Penalty_Neutral>
6.06694

> <r_epik_State_Penalty>
6.06401

> <r_epik_Charging_Adjusted_Penalty>
6.13747

> <i_epik_Tot_Q>
-1

> <i_epik_Tot_abs_Q>
1

> <r_epik_Metal_State_Penalty>
2.01234

> <b_epik_Metal_Only>
1

> <s_lp_Force_Field>
OPLS_2005

> <r_lp_Energy>
49.972

> <b_lp_Chiralities_Consistent>
1

> <s_lp_Variant>
AV-unprocessed.smi:541-2

> <Gold.Version>
5.8.1

> <Gold.Id.Protein>
6NUR|6NUR_protein|mol2

> <Gold.PLP.Fitness>
47.4468

> <Gold.PLP.PLP>
-42.5431

> <Gold.PLP.part.hbond>
-2.0000

> <Gold.PLP.part.metal>
0.0000

> <Gold.PLP.part.buried>
-6.6814

> <Gold.PLP.part.nonpolar>
-34.1707

> <Gold.PLP.part.repulsive>
0.0849

> <Gold.PLP.ligand.clash>
0.0000

> <Gold.PLP.ligand.torsion>
0.5903

> <Gold.PLP.Chemscore.Hbond>
1.9920

> <Gold.PLP.Chemscore.CHOScore>
0.0000

> <Gold.PLP.Chemscore.Metal>
0.0000

> <Gold.Chemscore.Hbonds>
donor molecule, donor type, donor heavy atom, donor atom, acceptor molecule, acceptor atom, score
      P1  H  6896  6908       L1    20  1.00
      P1  H  7989  7998       L1     3  0.88

> <Gold.PLP.Chemscore.Internal.Correction>
0.1082

> <Gold.Rescore>
     Score         DG    S(hbond)    S(metal)    S(lipo)     H(rot)  DE(clash)    DE(int)     intcor
     15.53     -17.33       1.81        0.00      85.42       1.64       0.36       1.45       ----

> <Gold.Chemscore.Fitness>
15.5293

> <Gold.Chemscore.DG>
-17.3337

> <Gold.Chemscore.ZeroCoef>
-5.4800

> <Gold.Chemscore.Hbond>
1.8122

> <Gold.Chemscore.Metal>
0.0000

> <Gold.Chemscore.Lipo>
85.4209

> <Gold.Chemscore.Internal_Hbond>
0.0000

> <Gold.Chemscore.DEClash>
0.3583

> <Gold.Chemscore.DEInternal>
1.4461

> <Gold.Chemscore.Rot>
1.6380

> <Gold.Chemscore.Internal.Correction>
   9.000000E+99

> <Gold.Chemscore.Hbonds>
donor molecule, donor type, donor heavy atom, donor atom, acceptor molecule, acceptor atom, score
      P1  H  6896  6908       L1    20  0.82
      P1  H  7989  7998       L1     3  0.78

> <Gold.Chemscore.Hbond.Weighted>
-6.0528

> <Gold.Chemscore.Metal.Weighted>
-0.0000

> <Gold.Chemscore.Lipo.Weighted>
-9.9942

> <Gold.Chemscore.Internal_Hbond.Weighted>
0.0000

> <Gold.Chemscore.DEClash.Weighted>
0.3583

> <Gold.Chemscore.DEInternal.Weighted>
1.4461

> <Gold.Chemscore.Rot.Weighted>
4.1934

> <Gold.Chemscore.Internal.Correction.Weighted>
   9.000000E+99

> <Gold.Protein.RotatedTorsions>
[ 6907 6896 6895 6894 ] final  -70.75 input  -60.11 | X-H torsion
[ 7974 7965 7964 7962 ] final  143.73 input  175.53 | X-H torsion
[ 8008 7997 7996 7995 ] final   87.53 input   59.86 | X-H torsion
[ 10167 10162 10161 10158 ] final   -5.61 input  -65.29 | X-H torsion
[ 10718 10713 10712 10709 ] final   21.11 input   66.30 | X-H torsion
[ 10763 10752 10751 10750 ] final  -10.94 input  -60.55 | X-H torsion
[ 11005 11000 10999 10996 ] final   40.93 input  -57.11 | X-H torsion

> <Gold.Protein.ActiveResidues>
 VAL166  LYS551  ARG553  GLY616  TRP617  ASP618  TYR619  PRO620  LYS621  CYS622 
 ASP623  PHE694  ASN695  SER759  ASP760  ASP761  ALA762  ILE779  LEU786  VAL792 
 PHE793  MET794  SER795  GLU796  ALA797  LYS798  CYS799  TRP800  GLU811  SER814 

> <Gold.Protein.RotatedAtoms>
  150.7243  134.5407  159.5745 H   0  0  0  0  0  0  0  0  0  0  0  0  # atno 6907 bound_to 6896
  152.2918  134.7709  160.0385 H   0  0  0  0  0  0  0  0  0  0  0  0  # atno 6908 bound_to 6896
  151.8320  133.3374  159.3653 H   0  0  0  0  0  0  0  0  0  0  0  0  # atno 6909 bound_to 6896
  144.8896  139.5578  143.5805 H   0  0  0  0  0  0  0  0  0  0  0  0  # atno 7974 bound_to 7965
  155.9765  140.3381  155.6623 H   0  0  0  0  0  0  0  0  0  0  0  0  # atno 8008 bound_to 7997
  155.6606  140.0715  157.2573 H   0  0  0  0  0  0  0  0  0  0  0  0  # atno 8009 bound_to 7997
  154.4180  140.1709  156.1759 H   0  0  0  0  0  0  0  0  0  0  0  0  # atno 8010 bound_to 7997
  140.6969  143.6289  150.8542 H   0  0  0  0  0  0  0  0  0  0  0  0  # atno 10167 bound_to 10162
  157.1339  130.6603  149.5960 H   0  0  0  0  0  0  0  0  0  0  0  0  # atno 10718 bound_to 10713
  153.4765  135.7017  153.5963 H   0  0  0  0  0  0  0  0  0  0  0  0  # atno 10763 bound_to 10752
  153.4195  135.3829  155.2102 H   0  0  0  0  0  0  0  0  0  0  0  0  # atno 10764 bound_to 10752
  154.8723  135.3924  154.4209 H   0  0  0  0  0  0  0  0  0  0  0  0  # atno 10765 bound_to 10752
  140.1883  134.4018  155.8160 H   0  0  0  0  0  0  0  0  0  0  0  0  # atno 11005 bound_to 11000
  146.3045  139.7535  142.9066 LP  0  0  0  0  0  0  0  0  0  0  0  0  # atno 17320 bound_to 7965
  145.3807  141.0358  143.3179 LP  0  0  0  0  0  0  0  0  0  0  0  0  # atno 17321 bound_to 7965
  140.0008  143.5746  152.2876 LP  0  0  0  0  0  0  0  0  0  0  0  0  # atno 17342 bound_to 10162
  139.6435  144.7656  151.2291 LP  0  0  0  0  0  0  0  0  0  0  0  0  # atno 17343 bound_to 10162
  155.9802  130.4801  150.6759 LP  0  0  0  0  0  0  0  0  0  0  0  0  # atno 17370 bound_to 10713
  157.4367  131.0856  151.0984 LP  0  0  0  0  0  0  0  0  0  0  0  0  # atno 17371 bound_to 10713
  141.2225  133.7034  156.8052 LP  0  0  0  0  0  0  0  0  0  0  0  0  # atno 17394 bound_to 11000
  140.2188  134.8772  157.3355 LP  0  0  0  0  0  0  0  0  0  0  0  0  # atno 17395 bound_to 11000

$$$$
