AV-unprocessed.smi:3258|AV-procd|sdf|12470|dock5
  -GOLD-   2272018373D 1   1.00000     0.00000
 Structure written by MMmdl.
 38 39  0  0  0  0  0  0  0  0  1 V2000
  148.2723  131.9304  154.7430 C   0  0  0  0  0  0  0  0  0  0  0  0
  147.5049  132.9754  153.9164 C   0  0  2  0  0  0  0  0  0  0  0  0
  147.0459  132.4470  152.5396 C   0  0  0  0  0  0  0  0  0  0  0  0
  146.0119  133.2704  151.9393 N   0  0  0  0  0  0  0  0  0  0  0  0
  146.0971  134.5855  151.5337 C   0  0  0  0  0  0  0  0  0  0  0  0
  144.8769  134.9354  151.0308 C   0  0  0  0  0  0  0  0  0  0  0  0
  144.1014  133.7505  151.1710 C   0  0  0  0  0  0  0  0  0  0  0  0
  144.7837  132.7549  151.7136 N   0  0  0  0  0  0  0  0  0  0  0  0
  148.3420  134.1597  153.7465 N   0  0  0  0  0  0  0  0  0  0  0  0
  149.0397  134.7594  154.7216 C   0  0  0  0  0  0  0  0  0  0  0  0
  149.0583  134.3768  155.8918 O   0  0  0  0  0  0  0  0  0  0  0  0
  149.7070  135.8300  154.2687 N   0  0  0  0  0  0  0  0  0  0  0  0
  150.5497  136.7047  155.0781 C   0  0  0  0  0  0  0  0  0  0  0  0
  150.4405  138.1768  154.6381 C   0  0  1  0  0  0  0  0  0  0  0  0
  149.2096  138.9121  155.1333 C   0  0  0  0  0  0  0  0  0  0  0  0
  149.6242  140.3718  154.9730 C   0  0  0  0  0  0  0  0  0  0  0  0
  151.0396  140.3977  155.1373 O   0  0  0  0  0  0  0  0  0  0  0  0
  151.5493  139.0692  155.1940 C   0  0  0  0  0  0  0  0  0  0  0  0
  147.6484  131.0667  154.9738 H   0  0  0  0  0  0  0  0  0  0  0  0
  148.6056  132.3495  155.6929 H   0  0  0  0  0  0  0  0  0  0  0  0
  149.1529  131.5716  154.2092 H   0  0  0  0  0  0  0  0  0  0  0  0
  146.6208  133.2574  154.4916 H   0  0  0  0  0  0  0  0  0  0  0  0
  147.8869  132.4111  151.8460 H   0  0  0  0  0  0  0  0  0  0  0  0
  146.6762  131.4240  152.6303 H   0  0  0  0  0  0  0  0  0  0  0  0
  147.0087  135.1557  151.6378 H   0  0  0  0  0  0  0  0  0  0  0  0
  144.5830  135.8917  150.6244 H   0  0  0  0  0  0  0  0  0  0  0  0
  143.0702  133.5851  150.8958 H   0  0  0  0  0  0  0  0  0  0  0  0
  148.3902  134.5518  152.8174 H   0  0  0  0  0  0  0  0  0  0  0  0
  149.6241  136.0605  153.2893 H   0  0  0  0  0  0  0  0  0  0  0  0
  150.3129  136.6001  156.1383 H   0  0  0  0  0  0  0  0  0  0  0  0
  151.5801  136.3679  154.9632 H   0  0  0  0  0  0  0  0  0  0  0  0
  150.4659  138.2329  153.5484 H   0  0  0  0  0  0  0  0  0  0  0  0
  148.3059  138.6665  154.5748 H   0  0  0  0  0  0  0  0  0  0  0  0
  149.0313  138.6887  156.1863 H   0  0  0  0  0  0  0  0  0  0  0  0
  149.3864  140.7270  153.9695 H   0  0  0  0  0  0  0  0  0  0  0  0
  149.1272  141.0256  155.6899 H   0  0  0  0  0  0  0  0  0  0  0  0
  151.7559  138.8250  156.2371 H   0  0  0  0  0  0  0  0  0  0  0  0
  152.4808  138.9765  154.6350 H   0  0  0  0  0  0  0  0  0  0  0  0
  1  2  1  0  0  0  0
  1 19  1  0  0  0  0
  1 20  1  0  0  0  0
  1 21  1  0  0  0  0
  2  3  1  0  0  0  0
  2  9  1  0  0  0  0
  2 22  1  0  0  0  0
  3  4  1  0  0  0  0
  3 23  1  0  0  0  0
  3 24  1  0  0  0  0
  4  8  1  0  0  0  0
  4  5  1  0  0  0  0
  5  6  2  0  0  0  0
  5 25  1  0  0  0  0
  6  7  1  0  0  0  0
  6 26  1  0  0  0  0
  7  8  2  0  0  0  0
  7 27  1  0  0  0  0
  9 10  1  0  0  0  0
  9 28  1  0  0  0  0
 10 11  2  0  0  0  0
 10 12  1  0  0  0  0
 12 13  1  0  0  0  0
 12 29  1  0  0  0  0
 13 14  1  0  0  0  0
 13 30  1  0  0  0  0
 13 31  1  0  0  0  0
 14 18  1  0  0  0  0
 14 15  1  0  0  0  0
 14 32  1  0  0  0  0
 15 16  1  0  0  0  0
 15 33  1  0  0  0  0
 15 34  1  0  0  0  0
 16 17  1  0  0  0  0
 16 35  1  0  0  0  0
 16 36  1  0  0  0  0
 17 18  1  0  0  0  0
 18 37  1  0  0  0  0
 18 38  1  0  0  0  0
M  END
> <s_m_source_file>
AV-unprocessed.smi

> <i_m_source_file_index>
3258

> <i_lp_mmshare_version>
43012

> <i_f3d_flags>
0

> <s_epik_input>
bjFbY0hdW2NIXVtjSF1uMVtDSDJdW0NAQEhdKFtDSDNdKVtOSF1DKD1PKVtOSF1bQ0gyXVtDQEBIXTJbQ0gyXVtDSDJdT1tDSDJdMg==

> <s_epik_cmdline>
J2VwaWtfcHl0aG9uJywgJy1waCcsICc3LjAnLCAnLXRuJywgJzgnLCAnLW1hJywgJzIwMCcsICctbWV0YWxfYmluZGluZycsICctaW1hZScsICc8aW5maWxlLm1hZT4nLCAnLW9tYWUnLCAnPG91dGZpbGUubWFlPic=

> <r_lp_tautomer_probability>
1

> <r_epik_Ionization_Penalty>
6.85079e-05

> <r_epik_Ionization_Penalty_Charging>
0

> <r_epik_Ionization_Penalty_Neutral>
6.85079e-05

> <r_epik_State_Penalty>
-0

> <r_epik_Charging_Adjusted_Penalty>
0

> <i_epik_Tot_Q>
0

> <i_epik_Tot_abs_Q>
0

> <r_epik_Metal_State_Penalty>
-0

> <b_epik_Metal_Only>
0

> <s_lp_Force_Field>
OPLS_2005

> <r_lp_Energy>
15.6708

> <b_lp_Chiralities_Consistent>
1

> <s_lp_Variant>
AV-unprocessed.smi:3258-3

> <Gold.Version>
5.8.1

> <Gold.Id.Protein>
6NUR|6NUR_protein|mol2

> <Gold.PLP.Fitness>
41.3955

> <Gold.PLP.PLP>
-28.4412

> <Gold.PLP.part.hbond>
-3.6557

> <Gold.PLP.part.metal>
0.0000

> <Gold.PLP.part.buried>
-1.9028

> <Gold.PLP.part.nonpolar>
-23.6535

> <Gold.PLP.part.repulsive>
0.2247

> <Gold.PLP.ligand.clash>
0.0000

> <Gold.PLP.ligand.torsion>
0.5639

> <Gold.PLP.Chemscore.Hbond>
2.6820

> <Gold.PLP.Chemscore.CHOScore>
1.9984

> <Gold.PLP.Chemscore.Metal>
0.0000

> <Gold.Chemscore.Hbonds>
donor molecule, donor type, donor heavy atom, donor atom, acceptor molecule, acceptor atom, score
      L1  H     9    28       P1  7948  0.83
      L1  H    12    29       P1  7948  0.90
      P1  H  7989  7998       L1    17  1.00
      L1  C     5    25       P1  7948  1.00
      L1  C     7    27       P1 10186  0.83

> <Gold.PLP.Chemscore.Internal.Correction>
0.0411

> <Gold.Rescore>
     Score         DG    S(hbond)    S(metal)    S(lipo)     H(rot)  DE(clash)    DE(int)     intcor
     11.26     -13.08       1.69        0.00      57.65       1.87       0.02       1.80       ----

> <Gold.Chemscore.Fitness>
11.2565

> <Gold.Chemscore.DG>
-13.0751

> <Gold.Chemscore.ZeroCoef>
-5.4800

> <Gold.Chemscore.Hbond>
1.6896

> <Gold.Chemscore.Metal>
0.0000

> <Gold.Chemscore.Lipo>
57.6499

> <Gold.Chemscore.Internal_Hbond>
0.0000

> <Gold.Chemscore.DEClash>
0.0234

> <Gold.Chemscore.DEInternal>
1.7951

> <Gold.Chemscore.Rot>
1.8724

> <Gold.Chemscore.Internal.Correction>
   9.000000E+99

> <Gold.Chemscore.Hbonds>
donor molecule, donor type, donor heavy atom, donor atom, acceptor molecule, acceptor atom, score
      L1  H     9    28       P1  7948  0.25
      L1  H    12    29       P1  7948  0.17
      P1  H  7989  7998       L1    17  0.10

> <Gold.Chemscore.Hbond.Weighted>
-5.6433

> <Gold.Chemscore.Metal.Weighted>
-0.0000

> <Gold.Chemscore.Lipo.Weighted>
-6.7450

> <Gold.Chemscore.Internal_Hbond.Weighted>
0.0000

> <Gold.Chemscore.DEClash.Weighted>
0.0234

> <Gold.Chemscore.DEInternal.Weighted>
1.7951

> <Gold.Chemscore.Rot.Weighted>
4.7933

> <Gold.Chemscore.Internal.Correction.Weighted>
   9.000000E+99

> <Gold.Protein.RotatedTorsions>
[ 6907 6896 6895 6894 ] final -130.66 input  -60.11 | X-H torsion
[ 7974 7965 7964 7962 ] final -153.87 input  175.53 | X-H torsion
[ 8008 7997 7996 7995 ] final   64.48 input   59.86 | X-H torsion
[ 10167 10162 10161 10158 ] final   -0.98 input  -65.29 | X-H torsion
[ 10718 10713 10712 10709 ] final -172.25 input   66.30 | X-H torsion
[ 10763 10752 10751 10750 ] final   21.46 input  -60.55 | X-H torsion
[ 11005 11000 10999 10996 ] final   94.24 input  -57.11 | X-H torsion

> <Gold.Protein.ActiveResidues>
 VAL166  LYS551  ARG553  GLY616  TRP617  ASP618  TYR619  PRO620  LYS621  CYS622 
 ASP623  PHE694  ASN695  SER759  ASP760  ASP761  ALA762  ILE779  LEU786  VAL792 
 PHE793  MET794  SER795  GLU796  ALA797  LYS798  CYS799  TRP800  GLU811  SER814 

> <Gold.Protein.RotatedAtoms>
  150.9422  133.6644  159.2788 H   0  0  0  0  0  0  0  0  0  0  0  0  # atno 6907 bound_to 6896
  151.4029  135.0972  159.9571 H   0  0  0  0  0  0  0  0  0  0  0  0  # atno 6908 bound_to 6896
  152.5074  133.8912  159.7449 H   0  0  0  0  0  0  0  0  0  0  0  0  # atno 6909 bound_to 6896
  144.7718  140.4466  143.5902 H   0  0  0  0  0  0  0  0  0  0  0  0  # atno 7974 bound_to 7965
  155.6466  140.3497  155.4733 H   0  0  0  0  0  0  0  0  0  0  0  0  # atno 8008 bound_to 7997
  155.9882  140.1188  157.0686 H   0  0  0  0  0  0  0  0  0  0  0  0  # atno 8009 bound_to 7997
  154.4211  140.1124  156.5515 H   0  0  0  0  0  0  0  0  0  0  0  0  # atno 8010 bound_to 7997
  140.6791  143.6829  150.8090 H   0  0  0  0  0  0  0  0  0  0  0  0  # atno 10167 bound_to 10162
  156.7528  130.9384  151.3115 H   0  0  0  0  0  0  0  0  0  0  0  0  # atno 10718 bound_to 10713
  153.0994  135.6668  153.9702 H   0  0  0  0  0  0  0  0  0  0  0  0  # atno 10763 bound_to 10752
  153.9277  135.3007  155.3448 H   0  0  0  0  0  0  0  0  0  0  0  0  # atno 10764 bound_to 10752
  154.7414  135.5078  153.9204 H   0  0  0  0  0  0  0  0  0  0  0  0  # atno 10765 bound_to 10752
  139.8801  134.8834  156.3835 H   0  0  0  0  0  0  0  0  0  0  0  0  # atno 11005 bound_to 11000
  145.6301  139.1535  143.2974 LP  0  0  0  0  0  0  0  0  0  0  0  0  # atno 17320 bound_to 7965
  146.1870  140.6406  142.9163 LP  0  0  0  0  0  0  0  0  0  0  0  0  # atno 17321 bound_to 7965
  140.0527  143.5233  152.2666 LP  0  0  0  0  0  0  0  0  0  0  0  0  # atno 17342 bound_to 10162
  139.6101  144.7606  151.2971 LP  0  0  0  0  0  0  0  0  0  0  0  0  # atno 17343 bound_to 10162
  157.6769  130.9103  150.0173 LP  0  0  0  0  0  0  0  0  0  0  0  0  # atno 17370 bound_to 10713
  156.1390  130.3642  149.9612 LP  0  0  0  0  0  0  0  0  0  0  0  0  # atno 17371 bound_to 10713
  140.9382  133.7532  156.0112 LP  0  0  0  0  0  0  0  0  0  0  0  0  # atno 17394 bound_to 11000
  140.8251  134.3244  157.5368 LP  0  0  0  0  0  0  0  0  0  0  0  0  # atno 17395 bound_to 11000

$$$$
