AV-unprocessed.smi:344|AV-procd|sdf|2390|dock10
  -GOLD-   2262022323D 1   1.00000     0.00000
 Structure written by MMmdl.
 37 38  0  0  0  0  0  0  0  0  2 V2000
  146.5104  137.0279  152.4080 N   0  0  0  0  0  0  0  0  0  0  0  0
  145.9276  138.1217  151.9083 C   0  0  0  0  0  0  0  0  0  0  0  0
  144.7065  138.2640  151.8889 O   0  0  0  0  0  0  0  0  0  0  0  0
  146.8440  139.2058  151.3353 C   0  0  0  0  0  0  0  0  0  0  0  0
  147.5001  139.9842  152.4391 C   0  0  0  0  0  0  0  0  0  0  0  0
  147.4034  141.3327  152.6692 C   0  0  0  0  0  0  0  0  0  0  0  0
  148.3222  141.8148  154.0665 S   0  0  0  0  0  0  0  0  0  0  0  0
  148.8329  140.1407  154.2947 C   0  0  0  0  0  0  0  0  0  0  0  0
  149.6264  139.7042  155.2850 N   0  5  0  0  0  0  0  0  0  0  0  0
  150.7838  140.3553  155.5532 C   0  0  0  0  0  0  0  0  0  0  0  0
  151.9334  140.0602  155.2232 O   0  0  0  0  0  0  0  0  0  0  0  0
  150.5480  141.6165  156.3895 C   0  0  0  0  0  0  0  0  0  0  0  0
  151.4288  141.6374  157.6522 C   0  0  0  0  0  0  0  0  0  0  0  0
  151.2945  142.9383  158.4633 C   0  0  0  0  0  0  0  0  0  0  0  0
  152.0511  144.1184  157.8493 C   0  0  0  0  0  0  0  0  0  0  0  0
  152.2112  145.1267  158.9919 C   0  0  0  0  0  0  0  0  0  0  0  0
  152.1177  144.3178  160.2947 C   0  0  0  0  0  0  0  0  0  0  0  0
  151.8683  142.8625  159.8818 C   0  0  0  0  0  0  0  0  0  0  0  0
  148.3145  139.3285  153.3674 N   0  0  0  0  0  0  0  0  0  0  0  0
  145.9450  136.2974  152.8149 H   0  0  0  0  0  0  0  0  0  0  0  0
  147.5176  136.9468  152.3950 H   0  0  0  0  0  0  0  0  0  0  0  0
  147.5898  138.7377  150.6915 H   0  0  0  0  0  0  0  0  0  0  0  0
  146.2610  139.8702  150.6964 H   0  0  0  0  0  0  0  0  0  0  0  0
  146.8454  142.0671  152.1080 H   0  0  0  0  0  0  0  0  0  0  0  0
  150.7677  142.4889  155.7727 H   0  0  0  0  0  0  0  0  0  0  0  0
  149.4928  141.6940  156.6574 H   0  0  0  0  0  0  0  0  0  0  0  0
  151.1884  140.7836  158.2878 H   0  0  0  0  0  0  0  0  0  0  0  0
  152.4721  141.5115  157.3590 H   0  0  0  0  0  0  0  0  0  0  0  0
  150.2400  143.2113  158.5299 H   0  0  0  0  0  0  0  0  0  0  0  0
  153.0368  143.7923  157.5136 H   0  0  0  0  0  0  0  0  0  0  0  0
  151.5342  144.5434  156.9884 H   0  0  0  0  0  0  0  0  0  0  0  0
  153.1534  145.6701  158.9145 H   0  0  0  0  0  0  0  0  0  0  0  0
  151.4065  145.8620  158.9574 H   0  0  0  0  0  0  0  0  0  0  0  0
  153.0236  144.4079  160.8951 H   0  0  0  0  0  0  0  0  0  0  0  0
  151.2881  144.6862  160.8992 H   0  0  0  0  0  0  0  0  0  0  0  0
  151.2044  142.3451  160.5750 H   0  0  0  0  0  0  0  0  0  0  0  0
  152.8160  142.3219  159.8699 H   0  0  0  0  0  0  0  0  0  0  0  0
  1  2  1  0  0  0  0
  1 20  1  0  0  0  0
  1 21  1  0  0  0  0
  2  3  2  0  0  0  0
  2  4  1  0  0  0  0
  4  5  1  0  0  0  0
  4 22  1  0  0  0  0
  4 23  1  0  0  0  0
  5 19  1  0  0  0  0
  5  6  2  0  0  0  0
  6  7  1  0  0  0  0
  6 24  1  0  0  0  0
  7  8  1  0  0  0  0
  8  9  1  0  0  0  0
  8 19  2  0  0  0  0
  9 10  1  0  0  0  0
 10 11  2  0  0  0  0
 10 12  1  0  0  0  0
 12 13  1  0  0  0  0
 12 25  1  0  0  0  0
 12 26  1  0  0  0  0
 13 14  1  0  0  0  0
 13 27  1  0  0  0  0
 13 28  1  0  0  0  0
 14 18  1  0  0  0  0
 14 15  1  0  0  0  0
 14 29  1  0  0  0  0
 15 16  1  0  0  0  0
 15 30  1  0  0  0  0
 15 31  1  0  0  0  0
 16 17  1  0  0  0  0
 16 32  1  0  0  0  0
 16 33  1  0  0  0  0
 17 18  1  0  0  0  0
 17 34  1  0  0  0  0
 17 35  1  0  0  0  0
 18 36  1  0  0  0  0
 18 37  1  0  0  0  0
M  CHG  1   9  -1
M  END
> <s_m_source_file>
AV-unprocessed.smi

> <i_m_source_file_index>
344

> <i_lp_mmshare_version>
43012

> <i_f3d_flags>
0

> <s_epik_input>
W05IMl1DKD1PKVtDSDJdYzFbY0hdc2MobjEpW05IXUMoPU8pW0NIMl1bQ0gyXVtDSF0yW0NIMl1bQ0gyXVtDSDJdW0NIMl0y

> <s_epik_cmdline>
J2VwaWtfcHl0aG9uJywgJy1waCcsICc3LjAnLCAnLXRuJywgJzgnLCAnLW1hJywgJzIwMCcsICctbWV0YWxfYmluZGluZycsICctaW1hZScsICc8aW5maWxlLm1hZT4nLCAnLW9tYWUnLCAnPG91dGZpbGUubWFlPic=

> <r_lp_tautomer_probability>
1

> <r_epik_Ionization_Penalty>
5.48595

> <r_epik_Ionization_Penalty_Charging>
4.99802

> <r_epik_Ionization_Penalty_Neutral>
0.48793

> <r_epik_State_Penalty>
4.99789

> <r_epik_Charging_Adjusted_Penalty>
9.99592

> <i_epik_Tot_Q>
-1

> <i_epik_Tot_abs_Q>
1

> <r_epik_Metal_State_Penalty>
1.11866

> <b_epik_Metal_Only>
1

> <s_lp_Force_Field>
OPLS_2005

> <r_lp_Energy>
17.7805

> <b_lp_Chiralities_Consistent>
1

> <s_lp_Variant>
AV-unprocessed.smi:344-2

> <Gold.Version>
5.8.1

> <Gold.Id.Protein>
6NUR|6NUR_protein|mol2

> <Gold.PLP.Fitness>
46.4632

> <Gold.PLP.PLP>
-43.1451

> <Gold.PLP.part.hbond>
-2.0000

> <Gold.PLP.part.metal>
0.0000

> <Gold.PLP.part.buried>
-4.4472

> <Gold.PLP.part.nonpolar>
-39.2597

> <Gold.PLP.part.repulsive>
0.8694

> <Gold.PLP.ligand.clash>
0.0000

> <Gold.PLP.ligand.torsion>
1.5154

> <Gold.PLP.Chemscore.Hbond>
1.8320

> <Gold.PLP.Chemscore.CHOScore>
0.2126

> <Gold.PLP.Chemscore.Metal>
0.0000

> <Gold.Chemscore.Hbonds>
donor molecule, donor type, donor heavy atom, donor atom, acceptor molecule, acceptor atom, score
      L1  H     1    21       P1  7948  1.00
      P1  H  7989  7998       L1    11  0.47

> <Gold.PLP.Chemscore.Internal.Correction>
0.2150

> <Gold.Rescore>
     Score         DG    S(hbond)    S(metal)    S(lipo)     H(rot)  DE(clash)    DE(int)     intcor
     15.85     -17.88       1.94        0.00     103.04       2.39       0.07       1.96       ----

> <Gold.Chemscore.Fitness>
15.8476

> <Gold.Chemscore.DG>
-17.8781

> <Gold.Chemscore.ZeroCoef>
-5.4800

> <Gold.Chemscore.Hbond>
1.9350

> <Gold.Chemscore.Metal>
0.0000

> <Gold.Chemscore.Lipo>
103.0360

> <Gold.Chemscore.Internal_Hbond>
0.0000

> <Gold.Chemscore.DEClash>
0.0695

> <Gold.Chemscore.DEInternal>
1.9609

> <Gold.Chemscore.Rot>
2.3907

> <Gold.Chemscore.Internal.Correction>
   9.000000E+99

> <Gold.Chemscore.Hbonds>
donor molecule, donor type, donor heavy atom, donor atom, acceptor molecule, acceptor atom, score
      L1  H     1    21       P1  7948  0.96
      P1  H  7989  7998       L1    11  0.03

> <Gold.Chemscore.Hbond.Weighted>
-6.4630

> <Gold.Chemscore.Metal.Weighted>
-0.0000

> <Gold.Chemscore.Lipo.Weighted>
-12.0552

> <Gold.Chemscore.Internal_Hbond.Weighted>
0.0000

> <Gold.Chemscore.DEClash.Weighted>
0.0695

> <Gold.Chemscore.DEInternal.Weighted>
1.9609

> <Gold.Chemscore.Rot.Weighted>
6.1201

> <Gold.Chemscore.Internal.Correction.Weighted>
   9.000000E+99

> <Gold.Protein.RotatedTorsions>
[ 6907 6896 6895 6894 ] final -103.32 input  -60.11 | X-H torsion
[ 7974 7965 7964 7962 ] final    9.78 input  175.53 | X-H torsion
[ 8008 7997 7996 7995 ] final  -94.59 input   59.86 | X-H torsion
[ 10167 10162 10161 10158 ] final -126.51 input  -65.29 | X-H torsion
[ 10718 10713 10712 10709 ] final  163.56 input   66.30 | X-H torsion
[ 10763 10752 10751 10750 ] final -149.13 input  -60.55 | X-H torsion
[ 11005 11000 10999 10996 ] final   99.84 input  -57.11 | X-H torsion

> <Gold.Protein.ActiveResidues>
 VAL166  LYS551  ARG553  GLY616  TRP617  ASP618  TYR619  PRO620  LYS621  CYS622 
 ASP623  PHE694  ASN695  SER759  ASP760  ASP761  ALA762  ILE779  LEU786  VAL792 
 PHE793  MET794  SER795  GLU796  ALA797  LYS798  CYS799  TRP800  GLU811  SER814 

> <Gold.Protein.RotatedAtoms>
  150.7235  134.0446  159.3777 H   0  0  0  0  0  0  0  0  0  0  0  0  # atno 6907 bound_to 6896
  151.8421  135.0584  160.0458 H   0  0  0  0  0  0  0  0  0  0  0  0  # atno 6908 bound_to 6896
  152.2854  133.5474  159.5560 H   0  0  0  0  0  0  0  0  0  0  0  0  # atno 6909 bound_to 6896
  146.2398  139.9732  142.8444 H   0  0  0  0  0  0  0  0  0  0  0  0  # atno 7974 bound_to 7965
  154.7504  140.0488  157.0888 H   0  0  0  0  0  0  0  0  0  0  0  0  # atno 8008 bound_to 7997
  155.0065  140.3131  155.4827 H   0  0  0  0  0  0  0  0  0  0  0  0  # atno 8009 bound_to 7997
  156.2884  140.2192  156.5177 H   0  0  0  0  0  0  0  0  0  0  0  0  # atno 8010 bound_to 7997
  139.9706  143.5849  152.2414 H   0  0  0  0  0  0  0  0  0  0  0  0  # atno 10167 bound_to 10162
  157.1068  131.0457  151.2474 H   0  0  0  0  0  0  0  0  0  0  0  0  # atno 10718 bound_to 10713
  154.8194  135.3317  154.7081 H   0  0  0  0  0  0  0  0  0  0  0  0  # atno 10763 bound_to 10752
  153.7716  135.6925  153.4910 H   0  0  0  0  0  0  0  0  0  0  0  0  # atno 10764 bound_to 10752
  153.2041  135.4505  155.0250 H   0  0  0  0  0  0  0  0  0  0  0  0  # atno 10765 bound_to 10752
  139.8770  134.9113  156.4666 H   0  0  0  0  0  0  0  0  0  0  0  0  # atno 11005 bound_to 11000
  145.1661  140.9697  143.4349 LP  0  0  0  0  0  0  0  0  0  0  0  0  # atno 17320 bound_to 7965
  145.0071  139.3544  143.6138 LP  0  0  0  0  0  0  0  0  0  0  0  0  # atno 17321 bound_to 7965
  139.6484  144.7659  151.2198 LP  0  0  0  0  0  0  0  0  0  0  0  0  # atno 17342 bound_to 10162
  140.7523  143.6201  150.8521 LP  0  0  0  0  0  0  0  0  0  0  0  0  # atno 17343 bound_to 10162
  157.4593  130.7644  149.7222 LP  0  0  0  0  0  0  0  0  0  0  0  0  # atno 17370 bound_to 10713
  155.9860  130.3978  150.3234 LP  0  0  0  0  0  0  0  0  0  0  0  0  # atno 17371 bound_to 10713
  140.8826  133.7907  155.9483 LP  0  0  0  0  0  0  0  0  0  0  0  0  # atno 17394 bound_to 11000
  140.8838  134.2579  157.5130 LP  0  0  0  0  0  0  0  0  0  0  0  0  # atno 17395 bound_to 11000

$$$$
