AV-unprocessed.smi:2172|AV-procd|sdf|8837|dock3
  -GOLD-   2272012 33D 1   1.00000     0.00000
 Structure written by MMmdl.
 37 39  0  0  0  0  0  0  0  0  2 V2000
  151.4724  136.4467  154.1766 O   0  0  0  0  0  0  0  0  0  0  0  0
  151.7533  137.7481  154.6419 C   0  0  0  0  0  0  0  0  0  0  0  0
  150.5900  138.6706  154.4826 C   0  0  0  0  0  0  0  0  0  0  0  0
  149.4100  138.3701  153.8706 N   0  3  0  0  0  0  0  0  0  0  0  0
  148.5555  139.4717  153.9249 C   0  0  0  0  0  0  0  0  0  0  0  0
  147.2608  139.6438  153.4450 C   0  0  0  0  0  0  0  0  0  0  0  0
  146.6656  140.9027  153.6674 C   0  0  0  0  0  0  0  0  0  0  0  0
  147.3550  141.9319  154.3408 C   0  0  0  0  0  0  0  0  0  0  0  0
  148.6675  141.7455  154.8224 C   0  0  0  0  0  0  0  0  0  0  0  0
  149.2484  140.4964  154.6020 C   0  0  0  0  0  0  0  0  0  0  0  0
  150.4984  139.9564  154.9291 N   0  0  0  0  0  0  0  0  0  0  0  0
  151.4775  140.7740  155.6637 C   0  0  0  0  0  0  0  0  0  0  0  0
  151.4691  140.5096  157.1828 C   0  0  1  0  0  0  0  0  0  0  0  0
  152.5214  139.6316  157.5331 O   0  0  0  0  0  0  0  0  0  0  0  0
  151.5211  141.8120  157.9659 C   0  0  0  0  0  0  0  0  0  0  0  0
  152.5040  142.0155  158.9599 C   0  0  0  0  0  0  0  0  0  0  0  0
  152.5515  143.2285  159.6740 C   0  0  0  0  0  0  0  0  0  0  0  0
  151.6194  144.2470  159.3964 C   0  0  0  0  0  0  0  0  0  0  0  0
  151.6812  145.7348  160.2678 Cl  0  0  0  0  0  0  0  0  0  0  0  0
  150.6389  144.0506  158.4046 C   0  0  0  0  0  0  0  0  0  0  0  0
  150.5910  142.8372  157.6905 C   0  0  0  0  0  0  0  0  0  0  0  0
  151.2990  136.4886  153.2485 H   0  0  0  0  0  0  0  0  0  0  0  0
  152.0390  137.6983  155.6927 H   0  0  0  0  0  0  0  0  0  0  0  0
  152.6095  138.1441  154.0949 H   0  0  0  0  0  0  0  0  0  0  0  0
  146.7310  138.8575  152.9275 H   0  0  0  0  0  0  0  0  0  0  0  0
  145.6609  141.0836  153.3137 H   0  0  0  0  0  0  0  0  0  0  0  0
  146.8683  142.8847  154.4902 H   0  0  0  0  0  0  0  0  0  0  0  0
  149.1873  142.5435  155.3315 H   0  0  0  0  0  0  0  0  0  0  0  0
  152.4690  140.6172  155.2385 H   0  0  0  0  0  0  0  0  0  0  0  0
  151.2314  141.8188  155.4699 H   0  0  0  0  0  0  0  0  0  0  0  0
  150.5431  139.9952  157.4428 H   0  0  0  0  0  0  0  0  0  0  0  0
  152.5535  139.5654  158.4754 H   0  0  0  0  0  0  0  0  0  0  0  0
  153.2273  141.2429  159.1766 H   0  0  0  0  0  0  0  0  0  0  0  0
  153.3052  143.3769  160.4333 H   0  0  0  0  0  0  0  0  0  0  0  0
  149.9240  144.8309  158.1886 H   0  0  0  0  0  0  0  0  0  0  0  0
  149.8379  142.6982  156.9286 H   0  0  0  0  0  0  0  0  0  0  0  0
  149.2049  137.4728  153.4508 H   0  0  0  0  0  0  0  0  0  0  0  0
  1  2  1  0  0  0  0
  1 22  1  0  0  0  0
  2  3  1  0  0  0  0
  2 23  1  0  0  0  0
  2 24  1  0  0  0  0
  3 11  1  0  0  0  0
  3  4  2  0  0  0  0
  4  5  1  0  0  0  0
  4 37  1  0  0  0  0
  5 10  2  0  0  0  0
  5  6  1  0  0  0  0
  6  7  2  0  0  0  0
  6 25  1  0  0  0  0
  7  8  1  0  0  0  0
  7 26  1  0  0  0  0
  8  9  2  0  0  0  0
  8 27  1  0  0  0  0
  9 10  1  0  0  0  0
  9 28  1  0  0  0  0
 10 11  1  0  0  0  0
 11 12  1  0  0  0  0
 12 13  1  0  0  0  0
 12 29  1  0  0  0  0
 12 30  1  0  0  0  0
 13 14  1  0  0  0  0
 13 15  1  0  0  0  0
 13 31  1  0  0  0  0
 14 32  1  0  0  0  0
 15 21  1  0  0  0  0
 15 16  2  0  0  0  0
 16 17  1  0  0  0  0
 16 33  1  0  0  0  0
 17 18  2  0  0  0  0
 17 34  1  0  0  0  0
 18 19  1  0  0  0  0
 18 20  1  0  0  0  0
 20 21  2  0  0  0  0
 20 35  1  0  0  0  0
 21 36  1  0  0  0  0
M  CHG  1   4   1
M  END
> <s_m_source_file>
AV-unprocessed.smi

> <i_m_source_file_index>
2172

> <i_lp_mmshare_version>
43012

> <i_f3d_flags>
0

> <s_epik_input>
W2NIXTFbY0hdW2NIXVtjSF1jKGMxMiluKGMobjIpW0NIMl1bT0hdKVtDSDJdW0NASF0oW09IXSljM1tjSF1bY0hdYyhDbClbY0hdW2NIXTM=

> <s_epik_cmdline>
J2VwaWtfcHl0aG9uJywgJy1waCcsICc3LjAnLCAnLXRuJywgJzgnLCAnLW1hJywgJzIwMCcsICctbWV0YWxfYmluZGluZycsICctaW1hZScsICc8aW5maWxlLm1hZT4nLCAnLW9tYWUnLCAnPG91dGZpbGUubWFlPic=

> <r_epik_Ionization_Penalty>
1.35643

> <r_epik_Ionization_Penalty_Charging>
1.35557

> <r_epik_Ionization_Penalty_Neutral>
0.000858184

> <r_epik_State_Penalty>
1.43401

> <r_epik_Charging_Adjusted_Penalty>
2.78958

> <i_epik_Tot_Q>
1

> <i_epik_Tot_abs_Q>
1

> <r_epik_Metal_State_Penalty>
5.47166

> <b_epik_Metal_Only>
0

> <s_lp_Force_Field>
OPLS_2005

> <r_lp_Energy>
14.493

> <b_lp_Chiralities_Consistent>
1

> <s_lp_Variant>
AV-unprocessed.smi:2172-4

> <Gold.Version>
5.8.1

> <Gold.Id.Protein>
6NUR|6NUR_protein|mol2

> <Gold.PLP.Fitness>
61.7493

> <Gold.PLP.PLP>
-48.7216

> <Gold.PLP.part.hbond>
-4.5129

> <Gold.PLP.part.metal>
0.0000

> <Gold.PLP.part.buried>
0.8000

> <Gold.PLP.part.nonpolar>
-45.9648

> <Gold.PLP.part.repulsive>
0.0457

> <Gold.PLP.ligand.clash>
0.0000

> <Gold.PLP.ligand.torsion>
1.0027

> <Gold.PLP.Chemscore.Hbond>
5.0000

> <Gold.PLP.Chemscore.CHOScore>
0.0000

> <Gold.PLP.Chemscore.Metal>
0.0000

> <Gold.Chemscore.Hbonds>
donor molecule, donor type, donor heavy atom, donor atom, acceptor molecule, acceptor atom, score
      L1  H     1    22       P1  7949  1.00
      L1  H     4    37       P1  7948  2.00
      P1  H  7997  8009       L1    14  0.84
      P1  H 10752 10763       L1     1  1.00

> <Gold.PLP.Chemscore.Internal.Correction>
0.0330

> <Gold.Rescore>
     Score         DG    S(hbond)    S(metal)    S(lipo)     H(rot)  DE(clash)    DE(int)     intcor
     22.01     -23.86       2.99        0.00     130.73       2.70       0.87       0.99       ----

> <Gold.Chemscore.Fitness>
22.0076

> <Gold.Chemscore.DG>
-23.8621

> <Gold.Chemscore.ZeroCoef>
-5.4800

> <Gold.Chemscore.Hbond>
2.9909

> <Gold.Chemscore.Metal>
0.0000

> <Gold.Chemscore.Lipo>
130.7252

> <Gold.Chemscore.Internal_Hbond>
0.0000

> <Gold.Chemscore.DEClash>
0.8686

> <Gold.Chemscore.DEInternal>
0.9859

> <Gold.Chemscore.Rot>
2.6963

> <Gold.Chemscore.Internal.Correction>
   9.000000E+99

> <Gold.Chemscore.Hbonds>
donor molecule, donor type, donor heavy atom, donor atom, acceptor molecule, acceptor atom, score
      L1  H     1    22       P1  7949  0.65
      L1  H     4    37       P1  7948  0.91
      P1  H  7997  8009       L1    14  0.63
      P1  H 10752 10763       L1     1  0.28

> <Gold.Chemscore.Hbond.Weighted>
-9.9897

> <Gold.Chemscore.Metal.Weighted>
-0.0000

> <Gold.Chemscore.Lipo.Weighted>
-15.2948

> <Gold.Chemscore.Internal_Hbond.Weighted>
0.0000

> <Gold.Chemscore.DEClash.Weighted>
0.8686

> <Gold.Chemscore.DEInternal.Weighted>
0.9859

> <Gold.Chemscore.Rot.Weighted>
6.9024

> <Gold.Chemscore.Internal.Correction.Weighted>
   9.000000E+99

> <Gold.Protein.RotatedTorsions>
[ 6907 6896 6895 6894 ] final   39.49 input  -60.11 | X-H torsion
[ 7974 7965 7964 7962 ] final   85.81 input  175.53 | X-H torsion
[ 8008 7997 7996 7995 ] final  175.42 input   59.86 | X-H torsion
[ 10167 10162 10161 10158 ] final   85.36 input  -65.29 | X-H torsion
[ 10718 10713 10712 10709 ] final  136.32 input   66.30 | X-H torsion
[ 10763 10752 10751 10750 ] final   51.35 input  -60.55 | X-H torsion
[ 11005 11000 10999 10996 ] final   25.16 input  -57.11 | X-H torsion

> <Gold.Protein.ActiveResidues>
 VAL166  LYS551  ARG553  GLY616  TRP617  ASP618  TYR619  PRO620  LYS621  CYS622 
 ASP623  PHE694  ASN695  SER759  ASP760  ASP761  ALA762  ILE779  LEU786  VAL792 
 PHE793  MET794  SER795  GLU796  ALA797  LYS798  CYS799  TRP800  GLU811  SER814 

> <Gold.Protein.RotatedAtoms>
  152.1702  134.8840  160.0534 H   0  0  0  0  0  0  0  0  0  0  0  0  # atno 6907 bound_to 6896
  151.9803  133.3750  159.4113 H   0  0  0  0  0  0  0  0  0  0  0  0  # atno 6908 bound_to 6896
  150.6900  134.3968  159.5145 H   0  0  0  0  0  0  0  0  0  0  0  0  # atno 6909 bound_to 6896
  145.5806  139.2325  143.2355 H   0  0  0  0  0  0  0  0  0  0  0  0  # atno 7974 bound_to 7965
  156.0872  140.1409  156.9638 H   0  0  0  0  0  0  0  0  0  0  0  0  # atno 8008 bound_to 7997
  154.4620  140.0940  156.6966 H   0  0  0  0  0  0  0  0  0  0  0  0  # atno 8009 bound_to 7997
  155.4979  140.3450  155.4368 H   0  0  0  0  0  0  0  0  0  0  0  0  # atno 8010 bound_to 7997
  139.8985  144.6343  150.8662 H   0  0  0  0  0  0  0  0  0  0  0  0  # atno 10167 bound_to 10162
  157.4479  131.1063  151.0068 H   0  0  0  0  0  0  0  0  0  0  0  0  # atno 10718 bound_to 10713
  152.9785  135.5848  154.4402 H   0  0  0  0  0  0  0  0  0  0  0  0  # atno 10763 bound_to 10752
  154.4004  135.2768  155.2102 H   0  0  0  0  0  0  0  0  0  0  0  0  # atno 10764 bound_to 10752
  154.3935  135.6120  153.5911 H   0  0  0  0  0  0  0  0  0  0  0  0  # atno 10765 bound_to 10752
  140.3508  134.2230  155.7680 H   0  0  0  0  0  0  0  0  0  0  0  0  # atno 11005 bound_to 11000
  146.1718  140.6633  142.9229 LP  0  0  0  0  0  0  0  0  0  0  0  0  # atno 17320 bound_to 7965
  144.7395  140.4904  143.6879 LP  0  0  0  0  0  0  0  0  0  0  0  0  # atno 17321 bound_to 7965
  140.7712  143.3455  151.2120 LP  0  0  0  0  0  0  0  0  0  0  0  0  # atno 17342 bound_to 10162
  139.7046  143.9476  152.2921 LP  0  0  0  0  0  0  0  0  0  0  0  0  # atno 17343 bound_to 10162
  157.0908  130.5941  149.5439 LP  0  0  0  0  0  0  0  0  0  0  0  0  # atno 17370 bound_to 10713
  155.9975  130.5046  150.7535 LP  0  0  0  0  0  0  0  0  0  0  0  0  # atno 17371 bound_to 10713
  141.2012  133.7967  157.0450 LP  0  0  0  0  0  0  0  0  0  0  0  0  # atno 17394 bound_to 11000
  140.0704  134.9705  157.1458 LP  0  0  0  0  0  0  0  0  0  0  0  0  # atno 17395 bound_to 11000

$$$$
