AV-unprocessed.smi:767|AV-procd|sdf|3663|dock3
  -GOLD-   22720 1 73D 1   1.00000     0.00000
 Structure written by MMmdl.
 47 49  0  0  0  0  0  0  0  0  1 V2000
  152.3002  141.3441  159.3481 C   0  0  0  0  0  0  0  0  0  0  0  0
  151.6830  140.8762  158.0466 C   0  0  0  0  0  0  0  0  0  0  0  0
  150.3337  141.1593  157.7483 C   0  0  0  0  0  0  0  0  0  0  0  0
  149.8038  140.6921  156.5300 C   0  0  0  0  0  0  0  0  0  0  0  0
  150.6387  139.9594  155.6620 C   0  0  0  0  0  0  0  0  0  0  0  0
  150.1081  139.4080  154.3494 C   0  0  0  0  0  0  0  0  0  0  0  0
  148.5697  139.3082  154.3006 C   0  0  0  0  0  0  0  0  0  0  0  0
  148.0993  138.0496  153.7294 N   0  0  0  0  0  0  0  0  0  0  0  0
  146.9448  137.4464  154.0421 C   0  0  0  0  0  0  0  0  0  0  0  0
  146.1511  137.8674  154.8835 O   0  0  0  0  0  0  0  0  0  0  0  0
  146.7490  136.3415  153.3110 N   0  0  0  0  0  0  0  0  0  0  0  0
  145.5580  135.4906  153.3968 C   0  0  2  0  0  0  0  0  0  0  0  0
  145.8924  134.0395  153.7520 C   0  0  2  0  0  0  0  0  0  0  0  0
  147.0576  133.3269  154.3376 C   0  0  0  0  0  0  0  0  0  0  0  0
  147.0264  132.0957  153.3916 C   0  0  0  0  0  0  0  0  0  0  0  0
  146.0810  132.4228  152.3407 O   0  0  0  0  0  0  0  0  0  0  0  0
  146.1279  133.8338  152.2699 C   0  0  1  0  0  0  0  0  0  0  0  0
  145.0411  134.9032  152.0230 C   0  0  0  0  0  0  0  0  0  0  0  0
  143.5801  134.4222  151.9689 C   0  0  0  0  0  0  0  0  0  0  0  0
  145.2449  135.7651  150.7723 C   0  0  0  0  0  0  0  0  0  0  0  0
  151.9763  139.7364  156.0526 C   0  0  0  0  0  0  0  0  0  0  0  0
  152.4926  140.1790  157.2191 N   0  0  0  0  0  0  0  0  0  0  0  0
  151.8213  142.2597  159.6968 H   0  0  0  0  0  0  0  0  0  0  0  0
  153.3651  141.5455  159.2270 H   0  0  0  0  0  0  0  0  0  0  0  0
  152.1805  140.5800  160.1164 H   0  0  0  0  0  0  0  0  0  0  0  0
  149.7168  141.7175  158.4371 H   0  0  0  0  0  0  0  0  0  0  0  0
  148.7728  140.8851  156.2720 H   0  0  0  0  0  0  0  0  0  0  0  0
  150.4624  140.0377  153.5328 H   0  0  0  0  0  0  0  0  0  0  0  0
  150.5427  138.4223  154.1782 H   0  0  0  0  0  0  0  0  0  0  0  0
  148.1726  139.3666  155.3144 H   0  0  0  0  0  0  0  0  0  0  0  0
  148.1482  140.1545  153.7562 H   0  0  0  0  0  0  0  0  0  0  0  0
  148.6820  137.6259  153.0223 H   0  0  0  0  0  0  0  0  0  0  0  0
  147.4562  136.0766  152.6412 H   0  0  0  0  0  0  0  0  0  0  0  0
  144.7620  135.9046  154.0182 H   0  0  0  0  0  0  0  0  0  0  0  0
  144.9781  133.5564  154.1055 H   0  0  0  0  0  0  0  0  0  0  0  0
  147.9831  133.8956  154.2386 H   0  0  0  0  0  0  0  0  0  0  0  0
  146.9104  133.0576  155.3837 H   0  0  0  0  0  0  0  0  0  0  0  0
  148.0138  131.9066  152.9687 H   0  0  0  0  0  0  0  0  0  0  0  0
  146.7000  131.1923  153.9075 H   0  0  0  0  0  0  0  0  0  0  0  0
  147.1129  134.1640  151.9239 H   0  0  0  0  0  0  0  0  0  0  0  0
  143.4065  133.7857  151.1006 H   0  0  0  0  0  0  0  0  0  0  0  0
  142.8902  135.2637  151.8984 H   0  0  0  0  0  0  0  0  0  0  0  0
  143.2786  133.8476  152.8429 H   0  0  0  0  0  0  0  0  0  0  0  0
  144.9347  135.2426  149.8670 H   0  0  0  0  0  0  0  0  0  0  0  0
  146.2913  136.0350  150.6325 H   0  0  0  0  0  0  0  0  0  0  0  0
  144.6758  136.6934  150.8298 H   0  0  0  0  0  0  0  0  0  0  0  0
  152.6486  139.1761  155.4195 H   0  0  0  0  0  0  0  0  0  0  0  0
  1  2  1  0  0  0  0
  1 23  1  0  0  0  0
  1 24  1  0  0  0  0
  1 25  1  0  0  0  0
  2 22  1  0  0  0  0
  2  3  2  0  0  0  0
  3  4  1  0  0  0  0
  3 26  1  0  0  0  0
  4  5  2  0  0  0  0
  4 27  1  0  0  0  0
  5  6  1  0  0  0  0
  5 21  1  0  0  0  0
  6  7  1  0  0  0  0
  6 28  1  0  0  0  0
  6 29  1  0  0  0  0
  7  8  1  0  0  0  0
  7 30  1  0  0  0  0
  7 31  1  0  0  0  0
  8  9  1  0  0  0  0
  8 32  1  0  0  0  0
  9 10  2  0  0  0  0
  9 11  1  0  0  0  0
 11 12  1  0  0  0  0
 11 33  1  0  0  0  0
 12 18  1  0  0  0  0
 12 13  1  0  0  0  0
 12 34  1  0  0  0  0
 13 17  1  0  0  0  0
 13 14  1  0  0  0  0
 13 35  1  0  0  0  0
 14 15  1  0  0  0  0
 14 36  1  0  0  0  0
 14 37  1  0  0  0  0
 15 16  1  0  0  0  0
 15 38  1  0  0  0  0
 15 39  1  0  0  0  0
 16 17  1  0  0  0  0
 17 18  1  0  0  0  0
 17 40  1  0  0  0  0
 18 19  1  0  0  0  0
 18 20  1  0  0  0  0
 19 41  1  0  0  0  0
 19 42  1  0  0  0  0
 19 43  1  0  0  0  0
 20 44  1  0  0  0  0
 20 45  1  0  0  0  0
 20 46  1  0  0  0  0
 21 22  2  0  0  0  0
 21 47  1  0  0  0  0
M  END
> <s_m_source_file>
AV-unprocessed.smi

> <i_m_source_file_index>
767

> <i_lp_mmshare_version>
43012

> <i_f3d_flags>
0

> <s_epik_input>
W0NIM11jMVtjSF1bY0hdYyhbY0hdbjEpW0NIMl1bQ0gyXVtOSF1DKD1PKVtOSF1bQ0BIXTJDKFtDSDNdKShbQ0gzXSlbQ0BIXShbQ0BASF0yMylPW0NIMl1bQ0gyXTM=

> <s_epik_cmdline>
J2VwaWtfcHl0aG9uJywgJy1waCcsICc3LjAnLCAnLXRuJywgJzgnLCAnLW1hJywgJzIwMCcsICctbWV0YWxfYmluZGluZycsICctaW1hZScsICc8aW5maWxlLm1hZT4nLCAnLW9tYWUnLCAnPG91dGZpbGUubWFlPic=

> <r_epik_Ionization_Penalty>
0.0567523

> <r_epik_Ionization_Penalty_Charging>
0

> <r_epik_Ionization_Penalty_Neutral>
0.0567523

> <r_epik_State_Penalty>
0.0489186

> <r_epik_Charging_Adjusted_Penalty>
0.0489186

> <i_epik_Tot_Q>
0

> <i_epik_Tot_abs_Q>
0

> <r_epik_Metal_State_Penalty>
0.044622

> <b_epik_Metal_Only>
0

> <s_lp_Force_Field>
OPLS_2005

> <r_lp_Energy>
58.7335

> <b_lp_Chiralities_Consistent>
1

> <s_lp_Variant>
AV-unprocessed.smi:767-7

> <Gold.Version>
5.8.1

> <Gold.Id.Protein>
6NUR|6NUR_protein|mol2

> <Gold.PLP.Fitness>
38.1107

> <Gold.PLP.PLP>
-30.7944

> <Gold.PLP.part.hbond>
-3.0000

> <Gold.PLP.part.metal>
0.0000

> <Gold.PLP.part.buried>
-3.8065

> <Gold.PLP.part.nonpolar>
-24.7372

> <Gold.PLP.part.repulsive>
0.1970

> <Gold.PLP.ligand.clash>
0.0000

> <Gold.PLP.ligand.torsion>
0.9327

> <Gold.PLP.Chemscore.Hbond>
2.9680

> <Gold.PLP.Chemscore.CHOScore>
0.0000

> <Gold.PLP.Chemscore.Metal>
0.0000

> <Gold.Chemscore.Hbonds>
donor molecule, donor type, donor heavy atom, donor atom, acceptor molecule, acceptor atom, score
      L1  H     8    32       P1  7948  0.99
      L1  H    11    33       P1  7948  1.00
      P1  H  7997  8010       L1    22  0.98

> <Gold.PLP.Chemscore.Internal.Correction>
0.2777

> <Gold.Rescore>
     Score         DG    S(hbond)    S(metal)    S(lipo)     H(rot)  DE(clash)    DE(int)     intcor
     19.85     -20.79       2.77        0.00      83.51       1.45       0.03       0.91       ----

> <Gold.Chemscore.Fitness>
19.8521

> <Gold.Chemscore.DG>
-20.7867

> <Gold.Chemscore.ZeroCoef>
-5.4800

> <Gold.Chemscore.Hbond>
2.7686

> <Gold.Chemscore.Metal>
0.0000

> <Gold.Chemscore.Lipo>
83.5119

> <Gold.Chemscore.Internal_Hbond>
0.0000

> <Gold.Chemscore.DEClash>
0.0291

> <Gold.Chemscore.DEInternal>
0.9055

> <Gold.Chemscore.Rot>
1.4497

> <Gold.Chemscore.Internal.Correction>
   9.000000E+99

> <Gold.Chemscore.Hbonds>
donor molecule, donor type, donor heavy atom, donor atom, acceptor molecule, acceptor atom, score
      L1  H     8    32       P1  7948  0.93
      L1  H    11    33       P1  7948  0.98
      P1  H  7997  8010       L1    22  0.23

> <Gold.Chemscore.Hbond.Weighted>
-9.2471

> <Gold.Chemscore.Metal.Weighted>
-0.0000

> <Gold.Chemscore.Lipo.Weighted>
-9.7709

> <Gold.Chemscore.Internal_Hbond.Weighted>
0.0000

> <Gold.Chemscore.DEClash.Weighted>
0.0291

> <Gold.Chemscore.DEInternal.Weighted>
0.9055

> <Gold.Chemscore.Rot.Weighted>
3.7112

> <Gold.Chemscore.Internal.Correction.Weighted>
   9.000000E+99

> <Gold.Protein.RotatedTorsions>
[ 6907 6896 6895 6894 ] final  122.88 input  -60.11 | X-H torsion
[ 7974 7965 7964 7962 ] final   32.40 input  175.53 | X-H torsion
[ 8008 7997 7996 7995 ] final   49.41 input   59.86 | X-H torsion
[ 10167 10162 10161 10158 ] final  -84.99 input  -65.29 | X-H torsion
[ 10718 10713 10712 10709 ] final -152.26 input   66.30 | X-H torsion
[ 10763 10752 10751 10750 ] final  -29.17 input  -60.55 | X-H torsion
[ 11005 11000 10999 10996 ] final  138.66 input  -57.11 | X-H torsion

> <Gold.Protein.ActiveResidues>
 VAL166  LYS551  ARG553  GLY616  TRP617  ASP618  TYR619  PRO620  LYS621  CYS622 
 ASP623  PHE694  ASN695  SER759  ASP760  ASP761  ALA762  ILE779  LEU786  VAL792 
 PHE793  MET794  SER795  GLU796  ALA797  LYS798  CYS799  TRP800  GLU811  SER814 

> <Gold.Protein.RotatedAtoms>
  152.4207  133.7112  159.6479 H   0  0  0  0  0  0  0  0  0  0  0  0  # atno 6907 bound_to 6896
  150.8083  133.8457  159.3200 H   0  0  0  0  0  0  0  0  0  0  0  0  # atno 6908 bound_to 6896
  151.6174  135.1037  160.0146 H   0  0  0  0  0  0  0  0  0  0  0  0  # atno 6909 bound_to 6896
  146.1489  139.6531  142.9112 H   0  0  0  0  0  0  0  0  0  0  0  0  # atno 7974 bound_to 7965
  155.4017  140.3438  155.4257 H   0  0  0  0  0  0  0  0  0  0  0  0  # atno 8008 bound_to 7997
  156.1500  140.1568  156.8818 H   0  0  0  0  0  0  0  0  0  0  0  0  # atno 8009 bound_to 7997
  154.5044  140.0806  156.7844 H   0  0  0  0  0  0  0  0  0  0  0  0  # atno 8010 bound_to 7997
  140.4080  143.2634  151.9055 H   0  0  0  0  0  0  0  0  0  0  0  0  # atno 10167 bound_to 10162
  156.4702  130.8254  151.2484 H   0  0  0  0  0  0  0  0  0  0  0  0  # atno 10718 bound_to 10713
  153.7602  135.6920  153.4927 H   0  0  0  0  0  0  0  0  0  0  0  0  # atno 10763 bound_to 10752
  153.1943  135.4459  155.0187 H   0  0  0  0  0  0  0  0  0  0  0  0  # atno 10764 bound_to 10752
  154.8156  135.3397  154.7118 H   0  0  0  0  0  0  0  0  0  0  0  0  # atno 10765 bound_to 10752
  140.0199  134.9401  157.0453 H   0  0  0  0  0  0  0  0  0  0  0  0  # atno 11005 bound_to 11000
  145.4871  141.0438  143.2613 LP  0  0  0  0  0  0  0  0  0  0  0  0  # atno 17320 bound_to 7965
  144.7879  139.6388  143.7126 LP  0  0  0  0  0  0  0  0  0  0  0  0  # atno 17321 bound_to 7965
  139.4783  144.5566  151.8305 LP  0  0  0  0  0  0  0  0  0  0  0  0  # atno 17342 bound_to 10162
  140.4668  144.1644  150.5913 LP  0  0  0  0  0  0  0  0  0  0  0  0  # atno 17343 bound_to 10162
  157.7492  131.0079  150.3207 LP  0  0  0  0  0  0  0  0  0  0  0  0  # atno 17370 bound_to 10713
  156.3627  130.3849  149.7239 LP  0  0  0  0  0  0  0  0  0  0  0  0  # atno 17371 bound_to 10713
  140.4405  134.1686  155.7173 LP  0  0  0  0  0  0  0  0  0  0  0  0  # atno 17394 bound_to 11000
  141.1767  133.8499  157.1396 LP  0  0  0  0  0  0  0  0  0  0  0  0  # atno 17395 bound_to 11000

$$$$
