AV-unprocessed.smi:1846|AV-procd|sdf|7514|dock5
  -GOLD-   22720 9223D 1   1.00000     0.00000
 Structure written by MMmdl.
 37 38  0  0  0  0  0  0  0  0  1 V2000
  151.9174  145.5865  159.9273 C   0  0  0  0  0  0  0  0  0  0  0  0
  152.4471  144.5615  158.9138 C   0  0  0  0  0  0  0  0  0  0  0  0
  152.2871  143.1823  159.3973 N   0  0  0  0  0  0  0  0  0  0  0  0
  153.0696  142.8642  160.5999 C   0  0  0  0  0  0  0  0  0  0  0  0
  154.0191  141.6795  160.3629 C   0  0  0  0  0  0  0  0  0  0  0  0
  151.4665  142.3068  158.7626 C   0  0  0  0  0  0  0  0  0  0  0  0
  151.3083  141.1539  159.1712 O   0  0  0  0  0  0  0  0  0  0  0  0
  150.7337  142.7561  157.4813 C   0  0  0  0  0  0  0  0  0  0  0  0
  150.5935  141.6374  156.4867 C   0  0  0  0  0  0  0  0  0  0  0  0
  151.5184  140.6614  156.2055 C   0  0  0  0  0  0  0  0  0  0  0  0
  150.9467  139.5499  154.9918 S   0  0  0  0  0  0  0  0  0  0  0  0
  149.4453  140.4752  154.9002 C   0  0  0  0  0  0  0  0  0  0  0  0
  148.3300  140.1985  154.0552 N   0  0  0  0  0  0  0  0  0  0  0  0
  148.1429  138.8898  153.4367 C   0  0  0  0  0  0  0  0  0  0  0  0
  146.8480  139.0411  152.6449 C   0  0  0  0  0  0  0  0  0  0  0  0
  146.4845  140.4120  152.9159 N   0  0  0  0  0  0  0  0  0  0  0  0
  147.3412  141.0495  153.7170 C   0  0  0  0  0  0  0  0  0  0  0  0
  147.2138  142.2218  154.0648 O   0  0  0  0  0  0  0  0  0  0  0  0
  149.4233  141.5245  155.7287 N   0  0  0  0  0  0  0  0  0  0  0  0
  152.0572  146.6022  159.5575 H   0  0  0  0  0  0  0  0  0  0  0  0
  152.4426  145.5049  160.8792 H   0  0  0  0  0  0  0  0  0  0  0  0
  150.8529  145.4494  160.1186 H   0  0  0  0  0  0  0  0  0  0  0  0
  151.9367  144.6886  157.9576 H   0  0  0  0  0  0  0  0  0  0  0  0
  153.4970  144.7701  158.7039 H   0  0  0  0  0  0  0  0  0  0  0  0
  153.6524  143.7361  160.9012 H   0  0  0  0  0  0  0  0  0  0  0  0
  152.4202  142.6615  161.4516 H   0  0  0  0  0  0  0  0  0  0  0  0
  154.5895  141.4569  161.2649 H   0  0  0  0  0  0  0  0  0  0  0  0
  154.7321  141.9016  159.5686 H   0  0  0  0  0  0  0  0  0  0  0  0
  153.4826  140.7744  160.0803 H   0  0  0  0  0  0  0  0  0  0  0  0
  149.7456  143.1432  157.7253 H   0  0  0  0  0  0  0  0  0  0  0  0
  151.2904  143.5823  157.0381 H   0  0  0  0  0  0  0  0  0  0  0  0
  152.4957  140.5250  156.6438 H   0  0  0  0  0  0  0  0  0  0  0  0
  148.9831  138.6480  152.7840 H   0  0  0  0  0  0  0  0  0  0  0  0
  148.0572  138.1122  154.1970 H   0  0  0  0  0  0  0  0  0  0  0  0
  147.0005  138.8876  151.5760 H   0  0  0  0  0  0  0  0  0  0  0  0
  146.0707  138.3611  152.9956 H   0  0  0  0  0  0  0  0  0  0  0  0
  145.6566  140.8394  152.5264 H   0  0  0  0  0  0  0  0  0  0  0  0
  1  2  1  0  0  0  0
  1 20  1  0  0  0  0
  1 21  1  0  0  0  0
  1 22  1  0  0  0  0
  2  3  1  0  0  0  0
  2 23  1  0  0  0  0
  2 24  1  0  0  0  0
  3  4  1  0  0  0  0
  3  6  1  0  0  0  0
  4  5  1  0  0  0  0
  4 25  1  0  0  0  0
  4 26  1  0  0  0  0
  5 27  1  0  0  0  0
  5 28  1  0  0  0  0
  5 29  1  0  0  0  0
  6  7  2  0  0  0  0
  6  8  1  0  0  0  0
  8  9  1  0  0  0  0
  8 30  1  0  0  0  0
  8 31  1  0  0  0  0
  9 19  1  0  0  0  0
  9 10  2  0  0  0  0
 10 11  1  0  0  0  0
 10 32  1  0  0  0  0
 11 12  1  0  0  0  0
 12 13  1  0  0  0  0
 12 19  2  0  0  0  0
 13 17  1  0  0  0  0
 13 14  1  0  0  0  0
 14 15  1  0  0  0  0
 14 33  1  0  0  0  0
 14 34  1  0  0  0  0
 15 16  1  0  0  0  0
 15 35  1  0  0  0  0
 15 36  1  0  0  0  0
 16 17  1  0  0  0  0
 16 37  1  0  0  0  0
 17 18  2  0  0  0  0
M  END
> <s_m_source_file>
AV-unprocessed.smi

> <i_m_source_file_index>
1846

> <i_lp_mmshare_version>
43012

> <i_f3d_flags>
0

> <s_epik_input>
W0NIM11bQ0gyXU4oW0NIMl1bQ0gzXSlDKD1PKVtDSDJdYzFbY0hdc2MobjEpTjJbQ0gyXVtDSDJdW05IXUMyPU8=

> <s_epik_cmdline>
J2VwaWtfcHl0aG9uJywgJy1waCcsICc3LjAnLCAnLXRuJywgJzgnLCAnLW1hJywgJzIwMCcsICctbWV0YWxfYmluZGluZycsICctaW1hZScsICc8aW5maWxlLm1hZT4nLCAnLW9tYWUnLCAnPG91dGZpbGUubWFlPic=

> <r_lp_tautomer_probability>
1

> <r_epik_Ionization_Penalty>
0.000125664

> <r_epik_Ionization_Penalty_Charging>
0

> <r_epik_Ionization_Penalty_Neutral>
0.000125664

> <r_epik_State_Penalty>
-0

> <r_epik_Charging_Adjusted_Penalty>
0

> <i_epik_Tot_Q>
0

> <i_epik_Tot_abs_Q>
0

> <r_epik_Metal_State_Penalty>
-0

> <b_epik_Metal_Only>
0

> <s_lp_Force_Field>
OPLS_2005

> <r_lp_Energy>
40.7708

> <b_lp_Chiralities_Consistent>
1

> <s_lp_Variant>
AV-unprocessed.smi:1846-1

> <Gold.Version>
5.8.1

> <Gold.Id.Protein>
6NUR|6NUR_protein|mol2

> <Gold.PLP.Fitness>
46.6077

> <Gold.PLP.PLP>
-45.7673

> <Gold.PLP.part.hbond>
-1.0000

> <Gold.PLP.part.metal>
0.0000

> <Gold.PLP.part.buried>
-2.6472

> <Gold.PLP.part.nonpolar>
-42.2356

> <Gold.PLP.part.repulsive>
0.2734

> <Gold.PLP.ligand.clash>
0.0000

> <Gold.PLP.ligand.torsion>
0.8396

> <Gold.PLP.Chemscore.Hbond>
0.8320

> <Gold.PLP.Chemscore.CHOScore>
0.0000

> <Gold.PLP.Chemscore.Metal>
0.0000

> <Gold.Chemscore.Hbonds>
donor molecule, donor type, donor heavy atom, donor atom, acceptor molecule, acceptor atom, score
      L1  H    16    37       P1 10175  0.71

> <Gold.PLP.Chemscore.Internal.Correction>
0.0236

> <Gold.Rescore>
     Score         DG    S(hbond)    S(metal)    S(lipo)     H(rot)  DE(clash)    DE(int)     intcor
     13.32     -15.28       1.00        0.00      91.60       1.66       0.02       1.94       ----

> <Gold.Chemscore.Fitness>
13.3174

> <Gold.Chemscore.DG>
-15.2768

> <Gold.Chemscore.ZeroCoef>
-5.4800

> <Gold.Chemscore.Hbond>
0.9954

> <Gold.Chemscore.Metal>
0.0000

> <Gold.Chemscore.Lipo>
91.5984

> <Gold.Chemscore.Internal_Hbond>
0.0000

> <Gold.Chemscore.DEClash>
0.0189

> <Gold.Chemscore.DEInternal>
1.9406

> <Gold.Chemscore.Rot>
1.6581

> <Gold.Chemscore.Internal.Correction>
   9.000000E+99

> <Gold.Chemscore.Hbonds>
donor molecule, donor type, donor heavy atom, donor atom, acceptor molecule, acceptor atom, score
      L1  H    16    37       P1 10175  0.13

> <Gold.Chemscore.Hbond.Weighted>
-3.3245

> <Gold.Chemscore.Metal.Weighted>
-0.0000

> <Gold.Chemscore.Lipo.Weighted>
-10.7170

> <Gold.Chemscore.Internal_Hbond.Weighted>
0.0000

> <Gold.Chemscore.DEClash.Weighted>
0.0189

> <Gold.Chemscore.DEInternal.Weighted>
1.9406

> <Gold.Chemscore.Rot.Weighted>
4.2447

> <Gold.Chemscore.Internal.Correction.Weighted>
   9.000000E+99

> <Gold.Protein.RotatedTorsions>
[ 6907 6896 6895 6894 ] final    2.07 input  -60.11 | X-H torsion
[ 7974 7965 7964 7962 ] final   16.94 input  175.53 | X-H torsion
[ 8008 7997 7996 7995 ] final  118.94 input   59.86 | X-H torsion
[ 10167 10162 10161 10158 ] final -100.26 input  -65.29 | X-H torsion
[ 10718 10713 10712 10709 ] final  170.84 input   66.30 | X-H torsion
[ 10763 10752 10751 10750 ] final  -45.38 input  -60.55 | X-H torsion
[ 11005 11000 10999 10996 ] final -171.73 input  -57.11 | X-H torsion

> <Gold.Protein.ActiveResidues>
 VAL166  LYS551  ARG553  GLY616  TRP617  ASP618  TYR619  PRO620  LYS621  CYS622 
 ASP623  PHE694  ASN695  SER759  ASP760  ASP761  ALA762  ILE779  LEU786  VAL792 
 PHE793  MET794  SER795  GLU796  ALA797  LYS798  CYS799  TRP800  GLU811  SER814 

> <Gold.Protein.RotatedAtoms>
  151.6029  135.1046  160.0063 H   0  0  0  0  0  0  0  0  0  0  0  0  # atno 6907 bound_to 6896
  152.4248  133.7173  159.6524 H   0  0  0  0  0  0  0  0  0  0  0  0  # atno 6908 bound_to 6896
  150.8137  133.8303  159.3192 H   0  0  0  0  0  0  0  0  0  0  0  0  # atno 6909 bound_to 6896
  146.2234  139.8675  142.8593 H   0  0  0  0  0  0  0  0  0  0  0  0  # atno 7974 bound_to 7965
  156.2571  140.2864  156.0913 H   0  0  0  0  0  0  0  0  0  0  0  0  # atno 8008 bound_to 7997
  155.1459  140.0396  157.2827 H   0  0  0  0  0  0  0  0  0  0  0  0  # atno 8009 bound_to 7997
  154.6495  140.2541  155.7236 H   0  0  0  0  0  0  0  0  0  0  0  0  # atno 8010 bound_to 7997
  140.2538  143.3454  152.0690 H   0  0  0  0  0  0  0  0  0  0  0  0  # atno 10167 bound_to 10162
  157.0022  131.0179  151.2827 H   0  0  0  0  0  0  0  0  0  0  0  0  # atno 10718 bound_to 10713
  154.0276  135.6661  153.4778 H   0  0  0  0  0  0  0  0  0  0  0  0  # atno 10763 bound_to 10752
  153.0554  135.5059  154.7964 H   0  0  0  0  0  0  0  0  0  0  0  0  # atno 10764 bound_to 10752
  154.6899  135.3059  154.9460 H   0  0  0  0  0  0  0  0  0  0  0  0  # atno 10765 bound_to 10752
  140.5049  134.5857  157.5000 H   0  0  0  0  0  0  0  0  0  0  0  0  # atno 11005 bound_to 11000
  145.2642  141.0087  143.3809 LP  0  0  0  0  0  0  0  0  0  0  0  0  # atno 17320 bound_to 7965
  144.9275  139.4338  143.6511 LP  0  0  0  0  0  0  0  0  0  0  0  0  # atno 17321 bound_to 7965
  139.5038  144.6762  151.6122 LP  0  0  0  0  0  0  0  0  0  0  0  0  # atno 17342 bound_to 10162
  140.6019  143.9593  150.6392 LP  0  0  0  0  0  0  0  0  0  0  0  0  # atno 17343 bound_to 10162
  157.5382  130.8102  149.7996 LP  0  0  0  0  0  0  0  0  0  0  0  0  # atno 17370 bound_to 10713
  156.0167  130.3811  150.2090 LP  0  0  0  0  0  0  0  0  0  0  0  0  # atno 17371 bound_to 10713
  139.9692  134.7322  156.0076 LP  0  0  0  0  0  0  0  0  0  0  0  0  # atno 17394 bound_to 11000
  141.1416  133.6563  156.3746 LP  0  0  0  0  0  0  0  0  0  0  0  0  # atno 17395 bound_to 11000

$$$$
