AV-unprocessed.smi:3136|AV-procd|sdf|11951|dock1
  -GOLD-   2272017343D 1   1.00000     0.00000
 Structure written by MMmdl.
 40 40  0  0  0  0  0  0  0  0  2 V2000
  143.9915  133.9026  151.0105 C   0  0  0  0  0  0  0  0  0  0  0  0
  144.4385  135.0696  150.1199 C   0  0  0  0  0  0  0  0  0  0  0  0
  144.6908  136.2756  150.9004 N   0  0  0  0  0  0  0  0  0  0  0  0
  145.2967  136.3064  152.0976 C   0  0  0  0  0  0  0  0  0  0  0  0
  145.6985  135.2974  152.6771 O   0  0  0  0  0  0  0  0  0  0  0  0
  145.4737  137.6864  152.7378 C   0  0  0  0  0  0  0  0  0  0  0  0
  146.4832  138.5643  151.9787 C   0  0  0  0  0  0  0  0  0  0  0  0
  147.7498  138.6874  152.7284 N   0  3  0  0  0  0  0  0  0  0  0  0
  147.6567  139.4736  153.9795 C   0  0  1  0  0  0  0  0  0  0  0  0
  147.4151  138.5091  155.1550 C   0  0  0  0  0  0  0  0  0  0  0  0
  148.9221  140.3547  154.1592 C   0  0  1  0  0  0  0  0  0  0  0  0
  148.6813  141.5569  155.0923 C   0  0  0  0  0  0  0  0  0  0  0  0
  150.0678  139.5836  154.6257 N   0  0  0  0  0  0  0  0  0  0  0  0
  150.5556  138.3921  154.1288 C   0  0  0  0  0  0  0  0  0  0  0  0
  151.6425  138.0500  154.8809 C   0  0  0  0  0  0  0  0  0  0  0  0
  151.7472  139.1084  155.8254 C   0  0  0  0  0  0  0  0  0  0  0  0
  150.8055  140.0247  155.6699 N   0  0  0  0  0  0  0  0  0  0  0  0
  143.8453  132.9989  150.4187 H   0  0  0  0  0  0  0  0  0  0  0  0
  143.0496  134.1232  151.5138 H   0  0  0  0  0  0  0  0  0  0  0  0
  144.7371  133.6813  151.7749 H   0  0  0  0  0  0  0  0  0  0  0  0
  145.3592  134.8030  149.6005 H   0  0  0  0  0  0  0  0  0  0  0  0
  143.6927  135.2664  149.3481 H   0  0  0  0  0  0  0  0  0  0  0  0
  144.3840  137.1492  150.4974 H   0  0  0  0  0  0  0  0  0  0  0  0
  144.5076  138.1923  152.7826 H   0  0  0  0  0  0  0  0  0  0  0  0
  145.8025  137.5446  153.7680 H   0  0  0  0  0  0  0  0  0  0  0  0
  146.6952  138.1383  150.9968 H   0  0  0  0  0  0  0  0  0  0  0  0
  146.0676  139.5603  151.8173 H   0  0  0  0  0  0  0  0  0  0  0  0
  148.0713  137.7589  152.9620 H   0  0  0  0  0  0  0  0  0  0  0  0
  146.7873  140.1314  153.9236 H   0  0  0  0  0  0  0  0  0  0  0  0
  147.2266  139.0429  156.0866 H   0  0  0  0  0  0  0  0  0  0  0  0
  148.2731  137.8547  155.3138 H   0  0  0  0  0  0  0  0  0  0  0  0
  146.5454  137.8778  154.9697 H   0  0  0  0  0  0  0  0  0  0  0  0
  149.1951  140.7507  153.1796 H   0  0  0  0  0  0  0  0  0  0  0  0
  147.9225  142.2294  154.6925 H   0  0  0  0  0  0  0  0  0  0  0  0
  149.5935  142.1408  155.2204 H   0  0  0  0  0  0  0  0  0  0  0  0
  148.3515  141.2367  156.0814 H   0  0  0  0  0  0  0  0  0  0  0  0
  150.0939  137.8907  153.2908 H   0  0  0  0  0  0  0  0  0  0  0  0
  152.2688  137.1768  154.7724 H   0  0  0  0  0  0  0  0  0  0  0  0
  152.4743  139.2374  156.6137 H   0  0  0  0  0  0  0  0  0  0  0  0
  148.4367  139.1231  152.1296 H   0  0  0  0  0  0  0  0  0  0  0  0
  1  2  1  0  0  0  0
  1 18  1  0  0  0  0
  1 19  1  0  0  0  0
  1 20  1  0  0  0  0
  2  3  1  0  0  0  0
  2 21  1  0  0  0  0
  2 22  1  0  0  0  0
  3  4  1  0  0  0  0
  3 23  1  0  0  0  0
  4  5  2  0  0  0  0
  4  6  1  0  0  0  0
  6  7  1  0  0  0  0
  6 24  1  0  0  0  0
  6 25  1  0  0  0  0
  7  8  1  0  0  0  0
  7 26  1  0  0  0  0
  7 27  1  0  0  0  0
  8  9  1  0  0  0  0
  8 28  1  0  0  0  0
  8 40  1  0  0  0  0
  9 10  1  0  0  0  0
  9 11  1  0  0  0  0
  9 29  1  0  0  0  0
 10 30  1  0  0  0  0
 10 31  1  0  0  0  0
 10 32  1  0  0  0  0
 11 12  1  0  0  0  0
 11 13  1  0  0  0  0
 11 33  1  0  0  0  0
 12 34  1  0  0  0  0
 12 35  1  0  0  0  0
 12 36  1  0  0  0  0
 13 17  1  0  0  0  0
 13 14  1  0  0  0  0
 14 15  2  0  0  0  0
 14 37  1  0  0  0  0
 15 16  1  0  0  0  0
 15 38  1  0  0  0  0
 16 17  2  0  0  0  0
 16 39  1  0  0  0  0
M  CHG  1   8   1
M  END
> <s_m_source_file>
AV-unprocessed.smi

> <i_m_source_file_index>
3136

> <i_lp_mmshare_version>
43012

> <i_f3d_flags>
0

> <s_epik_input>
W0NIM11bQ0gyXVtOSF1DKD1PKVtDSDJdW0NIMl1bTkhdW0NASF0oW0NIM10pW0NASF0oW0NIM10pbjFbY0hdW2NIXVtjSF1uMQ==

> <s_epik_cmdline>
J2VwaWtfcHl0aG9uJywgJy1waCcsICc3LjAnLCAnLXRuJywgJzgnLCAnLW1hJywgJzIwMCcsICctbWV0YWxfYmluZGluZycsICctaW1hZScsICc8aW5maWxlLm1hZT4nLCAnLW9tYWUnLCAnPG91dGZpbGUubWFlPic=

> <r_lp_tautomer_probability>
1

> <r_epik_Ionization_Penalty>
0.00463447

> <r_epik_Ionization_Penalty_Charging>
0.00462393

> <r_epik_Ionization_Penalty_Neutral>
1.05394e-05

> <r_epik_State_Penalty>
-0

> <r_epik_Charging_Adjusted_Penalty>
0.00462393

> <i_epik_Tot_Q>
1

> <i_epik_Tot_abs_Q>
1

> <r_epik_Metal_State_Penalty>
-0

> <b_epik_Metal_Only>
0

> <s_lp_Force_Field>
OPLS_2005

> <r_lp_Energy>
12.3637

> <b_lp_Chiralities_Consistent>
1

> <s_lp_Variant>
AV-unprocessed.smi:3136-4

> <Gold.Version>
5.8.1

> <Gold.Id.Protein>
6NUR|6NUR_protein|mol2

> <Gold.PLP.Fitness>
45.0697

> <Gold.PLP.PLP>
-32.6819

> <Gold.PLP.part.hbond>
-3.7478

> <Gold.PLP.part.metal>
0.0000

> <Gold.PLP.part.buried>
-1.0976

> <Gold.PLP.part.nonpolar>
-27.8725

> <Gold.PLP.part.repulsive>
0.2243

> <Gold.PLP.ligand.clash>
0.0000

> <Gold.PLP.ligand.torsion>
1.5345

> <Gold.PLP.Chemscore.Hbond>
3.6640

> <Gold.PLP.Chemscore.CHOScore>
1.2962

> <Gold.PLP.Chemscore.Metal>
0.0000

> <Gold.Chemscore.Hbonds>
donor molecule, donor type, donor heavy atom, donor atom, acceptor molecule, acceptor atom, score
      L1  H     3    23       P1 10171  1.00
      L1  H     8    28       P1  7948  1.19
      L1  H     8    40       P1  7957  1.00
      L1  C    14    37       P1  7948  1.00
      L1  C    14    37       P1  7949  0.04

> <Gold.PLP.Chemscore.Internal.Correction>
0.5761

> <Gold.Rescore>
     Score         DG    S(hbond)    S(metal)    S(lipo)     H(rot)  DE(clash)    DE(int)     intcor
     14.59     -17.49       2.82        0.00      72.74       2.32       0.19       2.71       ----

> <Gold.Chemscore.Fitness>
14.5947

> <Gold.Chemscore.DG>
-17.4943

> <Gold.Chemscore.ZeroCoef>
-5.4800

> <Gold.Chemscore.Hbond>
2.8242

> <Gold.Chemscore.Metal>
0.0000

> <Gold.Chemscore.Lipo>
72.7357

> <Gold.Chemscore.Internal_Hbond>
0.0000

> <Gold.Chemscore.DEClash>
0.1870

> <Gold.Chemscore.DEInternal>
2.7125

> <Gold.Chemscore.Rot>
2.3159

> <Gold.Chemscore.Internal.Correction>
   9.000000E+99

> <Gold.Chemscore.Hbonds>
donor molecule, donor type, donor heavy atom, donor atom, acceptor molecule, acceptor atom, score
      L1  H     3    23       P1 10171  1.00
      L1  H     8    28       P1  7948  0.57
      L1  H     8    40       P1  7957  1.00

> <Gold.Chemscore.Hbond.Weighted>
-9.4328

> <Gold.Chemscore.Metal.Weighted>
-0.0000

> <Gold.Chemscore.Lipo.Weighted>
-8.5101

> <Gold.Chemscore.Internal_Hbond.Weighted>
0.0000

> <Gold.Chemscore.DEClash.Weighted>
0.1870

> <Gold.Chemscore.DEInternal.Weighted>
2.7125

> <Gold.Chemscore.Rot.Weighted>
5.9286

> <Gold.Chemscore.Internal.Correction.Weighted>
   9.000000E+99

> <Gold.Protein.RotatedTorsions>
[ 6907 6896 6895 6894 ] final  -54.49 input  -60.11 | X-H torsion
[ 7974 7965 7964 7962 ] final  -64.89 input  175.53 | X-H torsion
[ 8008 7997 7996 7995 ] final -158.24 input   59.86 | X-H torsion
[ 10167 10162 10161 10158 ] final   65.78 input  -65.29 | X-H torsion
[ 10718 10713 10712 10709 ] final -103.71 input   66.30 | X-H torsion
[ 10763 10752 10751 10750 ] final -165.28 input  -60.55 | X-H torsion
[ 11005 11000 10999 10996 ] final  -77.95 input  -57.11 | X-H torsion

> <Gold.Protein.ActiveResidues>
 VAL166  LYS551  ARG553  GLY616  TRP617  ASP618  TYR619  PRO620  LYS621  CYS622 
 ASP623  PHE694  ASN695  SER759  ASP760  ASP761  ALA762  ILE779  LEU786  VAL792 
 PHE793  MET794  SER795  GLU796  ALA797  LYS798  CYS799  TRP800  GLU811  SER814 

> <Gold.Protein.RotatedAtoms>
  150.8333  134.7596  159.6871 H   0  0  0  0  0  0  0  0  0  0  0  0  # atno 6907 bound_to 6896
  152.4434  134.5541  159.9885 H   0  0  0  0  0  0  0  0  0  0  0  0  # atno 6908 bound_to 6896
  151.5697  133.3354  159.3023 H   0  0  0  0  0  0  0  0  0  0  0  0  # atno 6909 bound_to 6896
  145.7611  140.8861  143.0429 H   0  0  0  0  0  0  0  0  0  0  0  0  # atno 7974 bound_to 7965
  155.7446  140.0818  157.2230 H   0  0  0  0  0  0  0  0  0  0  0  0  # atno 8008 bound_to 7997
  154.4018  140.1571  156.2710 H   0  0  0  0  0  0  0  0  0  0  0  0  # atno 8009 bound_to 7997
  155.8988  140.3411  155.6013 H   0  0  0  0  0  0  0  0  0  0  0  0  # atno 8010 bound_to 7997
  140.1076  144.4848  150.6998 H   0  0  0  0  0  0  0  0  0  0  0  0  # atno 10167 bound_to 10162
  156.0276  130.5480  150.7292 H   0  0  0  0  0  0  0  0  0  0  0  0  # atno 10718 bound_to 10713
  154.6947  135.2977  154.9429 H   0  0  0  0  0  0  0  0  0  0  0  0  # atno 10763 bound_to 10752
  154.0380  135.6661  153.4791 H   0  0  0  0  0  0  0  0  0  0  0  0  # atno 10764 bound_to 10752
  153.0637  135.5100  154.8058 H   0  0  0  0  0  0  0  0  0  0  0  0  # atno 10765 bound_to 10752
  141.1663  133.7043  156.7897 H   0  0  0  0  0  0  0  0  0  0  0  0  # atno 11005 bound_to 11000
  144.6830  139.9724  143.7482 LP  0  0  0  0  0  0  0  0  0  0  0  0  # atno 17320 bound_to 7965
  146.0263  139.3295  143.0782 LP  0  0  0  0  0  0  0  0  0  0  0  0  # atno 17321 bound_to 7965
  140.6944  143.2394  151.5043 LP  0  0  0  0  0  0  0  0  0  0  0  0  # atno 17342 bound_to 10162
  139.5637  144.2094  152.1731 LP  0  0  0  0  0  0  0  0  0  0  0  0  # atno 17343 bound_to 10162
  157.4889  131.0909  151.0450 LP  0  0  0  0  0  0  0  0  0  0  0  0  # atno 17370 bound_to 10713
  157.0863  130.5923  149.5430 LP  0  0  0  0  0  0  0  0  0  0  0  0  # atno 17371 bound_to 10713
  140.2334  134.8668  157.3500 LP  0  0  0  0  0  0  0  0  0  0  0  0  # atno 17394 bound_to 11000
  140.1868  134.4421  155.7739 LP  0  0  0  0  0  0  0  0  0  0  0  0  # atno 17395 bound_to 11000

$$$$
