AV-unprocessed.smi:1870|AV-procd|sdf|7596|dock1
  -GOLD-   22720 9313D 1   1.00000     0.00000
 Structure written by MMmdl.
 48 50  0  0  0  0  0  0  0  0  2 V2000
  151.5146  137.0409  155.8994 C   0  0  0  0  0  0  0  0  0  0  0  0
  150.2587  136.5820  156.5898 C   0  0  0  0  0  0  0  0  0  0  0  0
  149.4346  135.8755  155.8876 N   0  0  0  0  0  0  0  0  0  0  0  0
  148.2607  135.3885  156.4294 N   0  0  0  0  0  0  0  0  0  0  0  0
  147.4874  134.5342  155.5165 C   0  0  0  0  0  0  0  0  0  0  0  0
  146.5162  135.3461  154.6290 C   0  0  1  0  0  0  0  0  0  0  0  0
  147.2069  136.4743  154.1325 O   0  0  0  0  0  0  0  0  0  0  0  0
  145.9666  134.5359  153.4330 C   0  0  0  0  0  0  0  0  0  0  0  0
  147.0001  134.1642  152.4267 N   0  3  2  0  0  0  0  0  0  0  0  0
  146.5072  133.9960  151.0335 C   0  0  0  0  0  0  0  0  0  0  0  0
  145.4942  132.8424  150.9253 C   0  0  0  0  0  0  0  0  0  0  0  0
  145.9492  131.5955  151.6680 C   0  0  0  0  0  0  0  0  0  0  0  0
  145.2708  130.3770  151.4620 C   0  0  0  0  0  0  0  0  0  0  0  0
  145.6492  129.2260  152.1789 C   0  0  0  0  0  0  0  0  0  0  0  0
  146.7052  129.2902  153.1077 C   0  0  0  0  0  0  0  0  0  0  0  0
  147.3853  130.5049  153.3186 C   0  0  0  0  0  0  0  0  0  0  0  0
  147.0131  131.6618  152.6032 C   0  0  0  0  0  0  0  0  0  0  0  0
  147.7747  132.9642  152.8337 C   0  0  0  0  0  0  0  0  0  0  0  0
  147.8378  135.6268  157.7039 C   0  0  0  0  0  0  0  0  0  0  0  0
  146.7720  135.1902  158.1401 O   0  0  0  0  0  0  0  0  0  0  0  0
  148.7766  136.4254  158.4945 C   0  0  0  0  0  0  0  0  0  0  0  0
  148.3871  136.6715  159.8455 C   0  0  0  0  0  0  0  0  0  0  0  0
  148.0556  136.8851  160.9338 N   0  0  0  0  0  0  0  0  0  0  0  0
  149.9428  136.8896  157.9806 C   0  0  0  0  0  0  0  0  0  0  0  0
  150.9538  137.7169  158.7623 C   0  0  0  0  0  0  0  0  0  0  0  0
  151.5353  138.1278  155.8178 H   0  0  0  0  0  0  0  0  0  0  0  0
  151.5975  136.6326  154.8911 H   0  0  0  0  0  0  0  0  0  0  0  0
  152.3990  136.7254  156.4532 H   0  0  0  0  0  0  0  0  0  0  0  0
  148.1737  133.9601  154.8912 H   0  0  0  0  0  0  0  0  0  0  0  0
  146.9260  133.7910  156.0866 H   0  0  0  0  0  0  0  0  0  0  0  0
  145.7067  135.7094  155.2583 H   0  0  0  0  0  0  0  0  0  0  0  0
  147.7776  136.1973  153.4317 H   0  0  0  0  0  0  0  0  0  0  0  0
  145.4926  133.6307  153.8158 H   0  0  0  0  0  0  0  0  0  0  0  0
  145.1734  135.0835  152.9272 H   0  0  0  0  0  0  0  0  0  0  0  0
  146.0870  134.9183  150.6358 H   0  0  0  0  0  0  0  0  0  0  0  0
  147.3676  133.7762  150.3994 H   0  0  0  0  0  0  0  0  0  0  0  0
  144.5272  133.1489  151.3268 H   0  0  0  0  0  0  0  0  0  0  0  0
  145.3258  132.5977  149.8761 H   0  0  0  0  0  0  0  0  0  0  0  0
  144.4524  130.3238  150.7587 H   0  0  0  0  0  0  0  0  0  0  0  0
  145.1261  128.2944  152.0196 H   0  0  0  0  0  0  0  0  0  0  0  0
  146.9941  128.4067  153.6580 H   0  0  0  0  0  0  0  0  0  0  0  0
  148.1980  130.5442  154.0293 H   0  0  0  0  0  0  0  0  0  0  0  0
  148.6951  132.9251  152.2496 H   0  0  0  0  0  0  0  0  0  0  0  0
  148.0784  133.0441  153.8785 H   0  0  0  0  0  0  0  0  0  0  0  0
  150.5880  137.9871  159.7525 H   0  0  0  0  0  0  0  0  0  0  0  0
  151.1827  138.6452  158.2379 H   0  0  0  0  0  0  0  0  0  0  0  0
  151.8808  137.1577  158.8936 H   0  0  0  0  0  0  0  0  0  0  0  0
  147.6558  134.9326  152.4121 H   0  0  0  0  0  0  0  0  0  0  0  0
  1  2  1  0  0  0  0
  1 26  1  0  0  0  0
  1 27  1  0  0  0  0
  1 28  1  0  0  0  0
  2 24  1  0  0  0  0
  2  3  2  0  0  0  0
  3  4  1  0  0  0  0
  4  5  1  0  0  0  0
  4 19  1  0  0  0  0
  5  6  1  0  0  0  0
  5 29  1  0  0  0  0
  5 30  1  0  0  0  0
  6  7  1  0  0  0  0
  6  8  1  0  0  0  0
  6 31  1  0  0  0  0
  7 32  1  0  0  0  0
  8  9  1  0  0  0  0
  8 33  1  0  0  0  0
  8 34  1  0  0  0  0
  9 18  1  0  0  0  0
  9 10  1  0  0  0  0
  9 48  1  0  0  0  0
 10 11  1  0  0  0  0
 10 35  1  0  0  0  0
 10 36  1  0  0  0  0
 11 12  1  0  0  0  0
 11 37  1  0  0  0  0
 11 38  1  0  0  0  0
 12 17  2  0  0  0  0
 12 13  1  0  0  0  0
 13 14  2  0  0  0  0
 13 39  1  0  0  0  0
 14 15  1  0  0  0  0
 14 40  1  0  0  0  0
 15 16  2  0  0  0  0
 15 41  1  0  0  0  0
 16 17  1  0  0  0  0
 16 42  1  0  0  0  0
 17 18  1  0  0  0  0
 18 43  1  0  0  0  0
 18 44  1  0  0  0  0
 19 20  2  0  0  0  0
 19 21  1  0  0  0  0
 21 22  1  0  0  0  0
 21 24  2  0  0  0  0
 22 23  3  0  0  0  0
 24 25  1  0  0  0  0
 25 45  1  0  0  0  0
 25 46  1  0  0  0  0
 25 47  1  0  0  0  0
M  CHG  1   9   1
M  END
> <s_m_source_file>
AV-unprocessed.smi

> <i_m_source_file_index>
1870

> <i_lp_mmshare_version>
43012

> <i_f3d_flags>
0

> <s_epik_input>
TiNDYyhjMVtDSDNdKWMoPU8pbihuYzFbQ0gzXSlbQ0gyXVtDQEhdKFtPSF0pW0NIMl1OKFtDSDJdW0NIMl0yKVtDSDJdYyhjMjMpW2NIXVtjSF1bY0hdW2NIXTM=

> <s_epik_cmdline>
J2VwaWtfcHl0aG9uJywgJy1waCcsICc3LjAnLCAnLXRuJywgJzgnLCAnLW1hJywgJzIwMCcsICctbWV0YWxfYmluZGluZycsICctaW1hZScsICc8aW5maWxlLm1hZT4nLCAnLW9tYWUnLCAnPG91dGZpbGUubWFlPic=

> <r_epik_Ionization_Penalty>
0.0122865

> <r_epik_Ionization_Penalty_Charging>
0.0122864

> <r_epik_Ionization_Penalty_Neutral>
1.48087e-07

> <r_epik_State_Penalty>
0.00950248

> <r_epik_Charging_Adjusted_Penalty>
0.0217889

> <i_epik_Tot_Q>
1

> <i_epik_Tot_abs_Q>
1

> <r_epik_Metal_State_Penalty>
0.00950248

> <b_epik_Metal_Only>
0

> <s_lp_Force_Field>
OPLS_2005

> <r_lp_Energy>
37.2352

> <b_lp_Chiralities_Consistent>
1

> <s_lp_Variant>
AV-unprocessed.smi:1870-4

> <Gold.Version>
5.8.1

> <Gold.Id.Protein>
6NUR|6NUR_protein|mol2

> <Gold.PLP.Fitness>
45.4105

> <Gold.PLP.PLP>
-32.5570

> <Gold.PLP.part.hbond>
-4.0000

> <Gold.PLP.part.metal>
0.0000

> <Gold.PLP.part.buried>
-5.3934

> <Gold.PLP.part.nonpolar>
-23.3340

> <Gold.PLP.part.repulsive>
0.0768

> <Gold.PLP.ligand.clash>
0.0000

> <Gold.PLP.ligand.torsion>
0.7660

> <Gold.PLP.Chemscore.Hbond>
4.7440

> <Gold.PLP.Chemscore.CHOScore>
0.0000

> <Gold.PLP.Chemscore.Metal>
0.0000

> <Gold.Chemscore.Hbonds>
donor molecule, donor type, donor heavy atom, donor atom, acceptor molecule, acceptor atom, score
      L1  H     7    32       P1  7948  1.00
      L1  H     9    48       P1  7948  2.00
      P1  H  6931  6943       L1    23  1.00
      P1  H  6934  6947       L1    23  0.25

> <Gold.PLP.Chemscore.Internal.Correction>
0.1534

> <Gold.Rescore>
     Score         DG    S(hbond)    S(metal)    S(lipo)     H(rot)  DE(clash)    DE(int)     intcor
     20.79     -21.70       3.43        0.00      88.15       2.16       0.08       0.83       ----

> <Gold.Chemscore.Fitness>
20.7877

> <Gold.Chemscore.DG>
-21.7009

> <Gold.Chemscore.ZeroCoef>
-5.4800

> <Gold.Chemscore.Hbond>
3.4263

> <Gold.Chemscore.Metal>
0.0000

> <Gold.Chemscore.Lipo>
88.1530

> <Gold.Chemscore.Internal_Hbond>
0.0000

> <Gold.Chemscore.DEClash>
0.0843

> <Gold.Chemscore.DEInternal>
0.8289

> <Gold.Chemscore.Rot>
2.1628

> <Gold.Chemscore.Internal.Correction>
   9.000000E+99

> <Gold.Chemscore.Hbonds>
donor molecule, donor type, donor heavy atom, donor atom, acceptor molecule, acceptor atom, score
      L1  H     7    32       P1  7948  0.98
      L1  H     9    48       P1  7948  0.94
      P1  H  6931  6943       L1    23  0.91
      P1  H  6934  6947       L1    23  0.13

> <Gold.Chemscore.Hbond.Weighted>
-11.4437

> <Gold.Chemscore.Metal.Weighted>
-0.0000

> <Gold.Chemscore.Lipo.Weighted>
-10.3139

> <Gold.Chemscore.Internal_Hbond.Weighted>
0.0000

> <Gold.Chemscore.DEClash.Weighted>
0.0843

> <Gold.Chemscore.DEInternal.Weighted>
0.8289

> <Gold.Chemscore.Rot.Weighted>
5.5367

> <Gold.Chemscore.Internal.Correction.Weighted>
   9.000000E+99

> <Gold.Protein.RotatedTorsions>
[ 6907 6896 6895 6894 ] final  -87.77 input  -60.11 | X-H torsion
[ 7974 7965 7964 7962 ] final   28.26 input  175.53 | X-H torsion
[ 8008 7997 7996 7995 ] final   26.73 input   59.86 | X-H torsion
[ 10167 10162 10161 10158 ] final  119.06 input  -65.29 | X-H torsion
[ 10718 10713 10712 10709 ] final -127.84 input   66.30 | X-H torsion
[ 10763 10752 10751 10750 ] final    0.52 input  -60.55 | X-H torsion
[ 11005 11000 10999 10996 ] final -111.57 input  -57.11 | X-H torsion

> <Gold.Protein.ActiveResidues>
 VAL166  LYS551  ARG553  GLY616  TRP617  ASP618  TYR619  PRO620  LYS621  CYS622 
 ASP623  PHE694  ASN695  SER759  ASP760  ASP761  ALA762  ILE779  LEU786  VAL792 
 PHE793  MET794  SER795  GLU796  ALA797  LYS798  CYS799  TRP800  GLU811  SER814 

> <Gold.Protein.RotatedAtoms>
  150.6867  134.2845  159.4640 H   0  0  0  0  0  0  0  0  0  0  0  0  # atno 6907 bound_to 6896
  152.0756  134.9502  160.0583 H   0  0  0  0  0  0  0  0  0  0  0  0  # atno 6908 bound_to 6896
  152.0875  133.4149  159.4566 H   0  0  0  0  0  0  0  0  0  0  0  0  # atno 6909 bound_to 6896
  146.1739  139.7080  142.8948 H   0  0  0  0  0  0  0  0  0  0  0  0  # atno 7974 bound_to 7965
  155.0319  140.3159  155.4755 H   0  0  0  0  0  0  0  0  0  0  0  0  # atno 8008 bound_to 7997
  156.2872  140.2178  156.5383 H   0  0  0  0  0  0  0  0  0  0  0  0  # atno 8009 bound_to 7997
  154.7363  140.0477  157.0759 H   0  0  0  0  0  0  0  0  0  0  0  0  # atno 8010 bound_to 7997
  139.6071  144.7072  151.2929 H   0  0  0  0  0  0  0  0  0  0  0  0  # atno 10167 bound_to 10162
  156.1894  130.6785  151.0405 H   0  0  0  0  0  0  0  0  0  0  0  0  # atno 10718 bound_to 10713
  153.3197  135.6968  153.7042 H   0  0  0  0  0  0  0  0  0  0  0  0  # atno 10763 bound_to 10752
  153.5887  135.3484  155.2903 H   0  0  0  0  0  0  0  0  0  0  0  0  # atno 10764 bound_to 10752
  154.8595  135.4312  154.2357 H   0  0  0  0  0  0  0  0  0  0  0  0  # atno 10765 bound_to 10752
  141.0727  133.9353  157.2453 H   0  0  0  0  0  0  0  0  0  0  0  0  # atno 11005 bound_to 11000
  145.4266  141.0411  143.2934 LP  0  0  0  0  0  0  0  0  0  0  0  0  # atno 17320 bound_to 7965
  144.8205  139.5800  143.6989 LP  0  0  0  0  0  0  0  0  0  0  0  0  # atno 17321 bound_to 7965
  140.7292  143.6914  150.7919 LP  0  0  0  0  0  0  0  0  0  0  0  0  # atno 17342 bound_to 10162
  140.0501  143.5258  152.2677 LP  0  0  0  0  0  0  0  0  0  0  0  0  # atno 17343 bound_to 10162
  157.6920  131.0807  150.7081 LP  0  0  0  0  0  0  0  0  0  0  0  0  # atno 17370 bound_to 10713
  156.7137  130.4659  149.5540 LP  0  0  0  0  0  0  0  0  0  0  0  0  # atno 17371 bound_to 10713
  139.9539  135.0169  156.9074 LP  0  0  0  0  0  0  0  0  0  0  0  0  # atno 17394 bound_to 11000
  140.5640  134.0507  155.7408 LP  0  0  0  0  0  0  0  0  0  0  0  0  # atno 17395 bound_to 11000

$$$$
