AV-unprocessed.smi:728|AV-procd|sdf|3518|dock8
  -GOLD-   22720 0513D 1   1.00000     0.00000
 Structure written by MMmdl.
 39 40  0  0  0  0  0  0  0  0  1 V2000
  156.9257  140.0662  166.3505 C   0  0  0  0  0  0  0  0  0  0  0  0
  157.1992  140.4418  164.8861 C   0  0  0  0  0  0  0  0  0  0  0  0
  156.8585  141.9096  164.5912 C   0  0  0  0  0  0  0  0  0  0  0  0
  156.5087  139.5201  163.9307 C   0  0  0  0  0  0  0  0  0  0  0  0
  155.8379  139.8572  162.8307 N   0  0  0  0  0  0  0  0  0  0  0  0
  155.5568  138.6317  162.3062 C   0  0  0  0  0  0  0  0  0  0  0  0
  154.7907  138.4506  161.0344 C   0  0  0  0  0  0  0  0  0  0  0  0
  154.4831  139.8068  160.3974 C   0  0  0  0  0  0  0  0  0  0  0  0
  154.7170  139.9944  159.2036 O   0  0  0  0  0  0  0  0  0  0  0  0
  153.9644  140.7434  161.2077 N   0  0  0  0  0  0  0  0  0  0  0  0
  153.6446  142.1138  160.8223 C   0  0  0  0  0  0  0  0  0  0  0  0
  152.8994  142.8331  161.9661 C   0  0  0  0  0  0  0  0  0  0  0  0
  152.4715  144.2516  161.5561 C   0  0  0  0  0  0  0  0  0  0  0  0
  151.6271  144.2318  160.2722 C   0  0  0  0  0  0  0  0  0  0  0  0
  152.3719  143.5232  159.1299 C   0  0  0  0  0  0  0  0  0  0  0  0
  152.7946  142.1025  159.5375 C   0  0  0  0  0  0  0  0  0  0  0  0
  156.0157  137.5909  162.9910 N   0  0  0  0  0  0  0  0  0  0  0  0
  156.6834  138.1836  164.0722 O   0  0  0  0  0  0  0  0  0  0  0  0
  157.2266  139.0381  166.5547 H   0  0  0  0  0  0  0  0  0  0  0  0
  155.8665  140.1583  166.5941 H   0  0  0  0  0  0  0  0  0  0  0  0
  157.4796  140.7129  167.0314 H   0  0  0  0  0  0  0  0  0  0  0  0
  158.2713  140.3209  164.7232 H   0  0  0  0  0  0  0  0  0  0  0  0
  157.1274  142.1763  163.5684 H   0  0  0  0  0  0  0  0  0  0  0  0
  157.3972  142.5810  165.2601 H   0  0  0  0  0  0  0  0  0  0  0  0
  155.7918  142.1008  164.7148 H   0  0  0  0  0  0  0  0  0  0  0  0
  155.3645  137.8358  160.3390 H   0  0  0  0  0  0  0  0  0  0  0  0
  153.8615  137.9166  161.2380 H   0  0  0  0  0  0  0  0  0  0  0  0
  153.8087  140.4961  162.1743 H   0  0  0  0  0  0  0  0  0  0  0  0
  154.5708  142.6517  160.6104 H   0  0  0  0  0  0  0  0  0  0  0  0
  152.0170  142.2579  162.2508 H   0  0  0  0  0  0  0  0  0  0  0  0
  153.5318  142.8860  162.8532 H   0  0  0  0  0  0  0  0  0  0  0  0
  151.9081  144.7180  162.3648 H   0  0  0  0  0  0  0  0  0  0  0  0
  153.3575  144.8685  161.4010 H   0  0  0  0  0  0  0  0  0  0  0  0
  150.6818  143.7225  160.4636 H   0  0  0  0  0  0  0  0  0  0  0  0
  151.3757  145.2508  159.9768 H   0  0  0  0  0  0  0  0  0  0  0  0
  151.7395  143.4829  158.2425 H   0  0  0  0  0  0  0  0  0  0  0  0
  153.2544  144.1021  158.8546 H   0  0  0  0  0  0  0  0  0  0  0  0
  153.3530  141.6382  158.7238 H   0  0  0  0  0  0  0  0  0  0  0  0
  151.9035  141.4914  159.6886 H   0  0  0  0  0  0  0  0  0  0  0  0
  1  2  1  0  0  0  0
  1 19  1  0  0  0  0
  1 20  1  0  0  0  0
  1 21  1  0  0  0  0
  2  3  1  0  0  0  0
  2  4  1  0  0  0  0
  2 22  1  0  0  0  0
  3 23  1  0  0  0  0
  3 24  1  0  0  0  0
  3 25  1  0  0  0  0
  4 18  1  0  0  0  0
  4  5  2  0  0  0  0
  5  6  1  0  0  0  0
  6  7  1  0  0  0  0
  6 17  2  0  0  0  0
  7  8  1  0  0  0  0
  7 26  1  0  0  0  0
  7 27  1  0  0  0  0
  8  9  2  0  0  0  0
  8 10  1  0  0  0  0
 10 11  1  0  0  0  0
 10 28  1  0  0  0  0
 11 16  1  0  0  0  0
 11 12  1  0  0  0  0
 11 29  1  0  0  0  0
 12 13  1  0  0  0  0
 12 30  1  0  0  0  0
 12 31  1  0  0  0  0
 13 14  1  0  0  0  0
 13 32  1  0  0  0  0
 13 33  1  0  0  0  0
 14 15  1  0  0  0  0
 14 34  1  0  0  0  0
 14 35  1  0  0  0  0
 15 16  1  0  0  0  0
 15 36  1  0  0  0  0
 15 37  1  0  0  0  0
 16 38  1  0  0  0  0
 16 39  1  0  0  0  0
 17 18  1  0  0  0  0
M  END
> <s_m_source_file>
AV-unprocessed.smi

> <i_m_source_file_index>
728

> <i_lp_mmshare_version>
43012

> <i_f3d_flags>
0

> <s_epik_input>
W0NIM11bQ0hdKFtDSDNdKWMxbmMobm8xKVtDSDJdQyg9TylbTkhdW0NIXTJbQ0gyXVtDSDJdW0NIMl1bQ0gyXVtDSDJdMg==

> <s_epik_cmdline>
J2VwaWtfcHl0aG9uJywgJy1waCcsICc3LjAnLCAnLXRuJywgJzgnLCAnLW1hJywgJzIwMCcsICctbWV0YWxfYmluZGluZycsICctaW1hZScsICc8aW5maWxlLm1hZT4nLCAnLW9tYWUnLCAnPG91dGZpbGUubWFlPic=

> <r_lp_tautomer_probability>
1

> <r_epik_Ionization_Penalty>
6.23623e-08

> <r_epik_Ionization_Penalty_Charging>
0

> <r_epik_Ionization_Penalty_Neutral>
6.23623e-08

> <r_epik_State_Penalty>
-0

> <r_epik_Charging_Adjusted_Penalty>
0

> <i_epik_Tot_Q>
0

> <i_epik_Tot_abs_Q>
0

> <r_epik_Metal_State_Penalty>
-0

> <b_epik_Metal_Only>
0

> <s_lp_Force_Field>
OPLS_2005

> <r_lp_Energy>
7.21718

> <b_lp_Chiralities_Consistent>
1

> <s_lp_Variant>
AV-unprocessed.smi:728-1

> <Gold.Version>
5.8.1

> <Gold.Id.Protein>
6NUR|6NUR_protein|mol2

> <Gold.PLP.Fitness>
39.2928

> <Gold.PLP.PLP>
-37.0289

> <Gold.PLP.part.hbond>
-1.0000

> <Gold.PLP.part.metal>
0.0000

> <Gold.PLP.part.buried>
-4.9785

> <Gold.PLP.part.nonpolar>
-30.5596

> <Gold.PLP.part.repulsive>
0.0431

> <Gold.PLP.ligand.clash>
0.0000

> <Gold.PLP.ligand.torsion>
0.3894

> <Gold.PLP.Chemscore.Hbond>
0.9760

> <Gold.PLP.Chemscore.CHOScore>
0.0000

> <Gold.PLP.Chemscore.Metal>
0.0000

> <Gold.Chemscore.Hbonds>
donor molecule, donor type, donor heavy atom, donor atom, acceptor molecule, acceptor atom, score
      P1  H  7997  8010       L1     9  0.94

> <Gold.PLP.Chemscore.Internal.Correction>
0.1148

> <Gold.Rescore>
     Score         DG    S(hbond)    S(metal)    S(lipo)     H(rot)  DE(clash)    DE(int)     intcor
     14.65     -14.94       0.96        0.00      89.33       1.63       0.02       0.27       ----

> <Gold.Chemscore.Fitness>
14.6522

> <Gold.Chemscore.DG>
-14.9445

> <Gold.Chemscore.ZeroCoef>
-5.4800

> <Gold.Chemscore.Hbond>
0.9560

> <Gold.Chemscore.Metal>
0.0000

> <Gold.Chemscore.Lipo>
89.3286

> <Gold.Chemscore.Internal_Hbond>
0.0000

> <Gold.Chemscore.DEClash>
0.0234

> <Gold.Chemscore.DEInternal>
0.2688

> <Gold.Chemscore.Rot>
1.6329

> <Gold.Chemscore.Internal.Correction>
   9.000000E+99

> <Gold.Chemscore.Hbonds>
donor molecule, donor type, donor heavy atom, donor atom, acceptor molecule, acceptor atom, score
      P1  H  7997  8010       L1     9  0.90

> <Gold.Chemscore.Hbond.Weighted>
-3.1932

> <Gold.Chemscore.Metal.Weighted>
-0.0000

> <Gold.Chemscore.Lipo.Weighted>
-10.4514

> <Gold.Chemscore.Internal_Hbond.Weighted>
0.0000

> <Gold.Chemscore.DEClash.Weighted>
0.0234

> <Gold.Chemscore.DEInternal.Weighted>
0.2688

> <Gold.Chemscore.Rot.Weighted>
4.1802

> <Gold.Chemscore.Internal.Correction.Weighted>
   9.000000E+99

> <Gold.Protein.RotatedTorsions>
[ 6907 6896 6895 6894 ] final  -81.77 input  -60.11 | X-H torsion
[ 7974 7965 7964 7962 ] final   59.98 input  175.53 | X-H torsion
[ 8008 7997 7996 7995 ] final  -13.13 input   59.86 | X-H torsion
[ 10167 10162 10161 10158 ] final   69.63 input  -65.29 | X-H torsion
[ 10718 10713 10712 10709 ] final  -15.79 input   66.30 | X-H torsion
[ 10763 10752 10751 10750 ] final -152.57 input  -60.55 | X-H torsion
[ 11005 11000 10999 10996 ] final  -73.64 input  -57.11 | X-H torsion

> <Gold.Protein.ActiveResidues>
 VAL166  LYS551  ARG553  GLY616  TRP617  ASP618  TYR619  PRO620  LYS621  CYS622 
 ASP623  PHE694  ASN695  SER759  ASP760  ASP761  ALA762  ILE779  LEU786  VAL792 
 PHE793  MET794  SER795  GLU796  ALA797  LYS798  CYS799  TRP800  GLU811  SER814 

> <Gold.Protein.RotatedAtoms>
  150.6907  134.3767  159.5015 H   0  0  0  0  0  0  0  0  0  0  0  0  # atno 6907 bound_to 6896
  152.1576  134.8936  160.0553 H   0  0  0  0  0  0  0  0  0  0  0  0  # atno 6908 bound_to 6896
  152.0010  133.3790  159.4218 H   0  0  0  0  0  0  0  0  0  0  0  0  # atno 6909 bound_to 6896
  145.9011  139.3582  143.0592 H   0  0  0  0  0  0  0  0  0  0  0  0  # atno 7974 bound_to 7965
  154.5319  140.2258  155.8790 H   0  0  0  0  0  0  0  0  0  0  0  0  # atno 8008 bound_to 7997
  156.1772  140.3108  155.9044 H   0  0  0  0  0  0  0  0  0  0  0  0  # atno 8009 bound_to 7997
  155.3435  140.0451  157.3036 H   0  0  0  0  0  0  0  0  0  0  0  0  # atno 8010 bound_to 7997
  140.0657  144.5195  150.7263 H   0  0  0  0  0  0  0  0  0  0  0  0  # atno 10167 bound_to 10162
  156.5967  130.4813  149.6256 H   0  0  0  0  0  0  0  0  0  0  0  0  # atno 10718 bound_to 10713
  154.7985  135.3233  154.7607 H   0  0  0  0  0  0  0  0  0  0  0  0  # atno 10763 bound_to 10752
  153.8280  135.6882  153.4822 H   0  0  0  0  0  0  0  0  0  0  0  0  # atno 10764 bound_to 10752
  153.1689  135.4631  154.9818 H   0  0  0  0  0  0  0  0  0  0  0  0  # atno 10765 bound_to 10752
  141.1625  133.6885  156.7243 H   0  0  0  0  0  0  0  0  0  0  0  0  # atno 11005 bound_to 11000
  145.8790  140.9374  143.0611 LP  0  0  0  0  0  0  0  0  0  0  0  0  # atno 17320 bound_to 7965
  144.6736  140.0754  143.7471 LP  0  0  0  0  0  0  0  0  0  0  0  0  # atno 17321 bound_to 7965
  140.7150  143.2537  151.4462 LP  0  0  0  0  0  0  0  0  0  0  0  0  # atno 17342 bound_to 10162
  139.5866  144.1590  152.2037 LP  0  0  0  0  0  0  0  0  0  0  0  0  # atno 17343 bound_to 10162
  156.2503  130.6903  151.1639 LP  0  0  0  0  0  0  0  0  0  0  0  0  # atno 17370 bound_to 10713
  157.7290  131.0627  150.5795 LP  0  0  0  0  0  0  0  0  0  0  0  0  # atno 17371 bound_to 10713
  140.2793  134.8330  157.3918 LP  0  0  0  0  0  0  0  0  0  0  0  0  # atno 17394 bound_to 11000
  140.1448  134.4925  155.8004 LP  0  0  0  0  0  0  0  0  0  0  0  0  # atno 17395 bound_to 11000

$$$$
