AV-unprocessed.smi:107|AV-procd|sdf|1027|dock9
  -GOLD-   2262018 33D 1   1.00000     0.00000
 Structure written by MMmdl.
 30 31  0  0  0  0  0  0  0  0  2 V2000
  151.5632  144.8100  158.6477 C   0  0  0  0  0  0  0  0  0  0  0  0
  151.5183  143.2921  158.6690 C   0  0  0  0  0  0  0  0  0  0  0  0
  150.7241  142.5822  157.8367 C   0  0  0  0  0  0  0  0  0  0  0  0
  150.6895  141.1992  157.8592 N   0  0  0  0  0  0  0  0  0  0  0  0
  149.8094  140.4352  156.8995 C   0  0  2  0  0  0  0  0  0  0  0  0
  150.5394  140.1544  155.5922 C   0  0  0  0  0  0  0  0  0  0  0  0
  149.3939  140.1202  154.5874 C   0  0  2  0  0  0  0  0  0  0  0  0
  149.7504  140.8413  153.4225 O   0  0  0  0  0  0  0  0  0  0  0  0
  148.1726  140.6923  155.3495 C   0  0  2  0  0  0  0  0  0  0  0  0
  147.3680  141.7872  154.6238 C   0  0  0  0  0  0  0  0  0  0  0  0
  148.2258  142.8325  154.2174 O   0  0  0  0  0  0  0  0  0  0  0  0
  148.7170  141.2193  156.5536 O   0  0  0  0  0  0  0  0  0  0  0  0
  151.5309  140.4889  158.7536 C   0  0  0  0  0  0  0  0  0  0  0  0
  151.5092  139.2583  158.7170 O   0  0  0  0  0  0  0  0  0  0  0  0
  152.3284  141.1965  159.6041 N   0  5  0  0  0  0  0  0  0  0  0  0
  152.3675  142.5603  159.6171 C   0  0  0  0  0  0  0  0  0  0  0  0
  153.0906  143.1861  160.3919 O   0  0  0  0  0  0  0  0  0  0  0  0
  150.8865  145.2163  157.8956 H   0  0  0  0  0  0  0  0  0  0  0  0
  152.5712  145.1573  158.4188 H   0  0  0  0  0  0  0  0  0  0  0  0
  151.2714  145.2134  159.6178 H   0  0  0  0  0  0  0  0  0  0  0  0
  150.1054  143.1147  157.1295 H   0  0  0  0  0  0  0  0  0  0  0  0
  149.4557  139.5393  157.4133 H   0  0  0  0  0  0  0  0  0  0  0  0
  151.2265  140.9764  155.3826 H   0  0  0  0  0  0  0  0  0  0  0  0
  151.1050  139.2241  155.6522 H   0  0  0  0  0  0  0  0  0  0  0  0
  149.1851  139.0906  154.2944 H   0  0  0  0  0  0  0  0  0  0  0  0
  149.7145  140.2539  152.6833 H   0  0  0  0  0  0  0  0  0  0  0  0
  147.5180  139.8582  155.6091 H   0  0  0  0  0  0  0  0  0  0  0  0
  146.8305  141.3809  153.7662 H   0  0  0  0  0  0  0  0  0  0  0  0
  146.6308  142.2292  155.2945 H   0  0  0  0  0  0  0  0  0  0  0  0
  148.4206  143.3704  154.9694 H   0  0  0  0  0  0  0  0  0  0  0  0
  1  2  1  0  0  0  0
  1 18  1  0  0  0  0
  1 19  1  0  0  0  0
  1 20  1  0  0  0  0
  2 16  1  0  0  0  0
  2  3  2  0  0  0  0
  3  4  1  0  0  0  0
  3 21  1  0  0  0  0
  4  5  1  0  0  0  0
  4 13  1  0  0  0  0
  5 12  1  0  0  0  0
  5  6  1  0  0  0  0
  5 22  1  0  0  0  0
  6  7  1  0  0  0  0
  6 23  1  0  0  0  0
  6 24  1  0  0  0  0
  7  8  1  0  0  0  0
  7  9  1  0  0  0  0
  7 25  1  0  0  0  0
  8 26  1  0  0  0  0
  9 10  1  0  0  0  0
  9 12  1  0  0  0  0
  9 27  1  0  0  0  0
 10 11  1  0  0  0  0
 10 28  1  0  0  0  0
 10 29  1  0  0  0  0
 11 30  1  0  0  0  0
 13 14  2  0  0  0  0
 13 15  1  0  0  0  0
 15 16  1  0  0  0  0
 16 17  2  0  0  0  0
M  CHG  1  15  -1
M  END
> <s_m_source_file>
AV-unprocessed.smi

> <i_m_source_file_index>
107

> <i_lp_mmshare_version>
43012

> <i_f3d_flags>
0

> <s_epik_input>
Tz1jMVtuSF1jKD1PKW4oW2NIXWMxW0NIM10pW0NAQEhdMltDSDJdW0NAQEhdKFtPSF0pW0NASF0oTzIpW0NIMl1bT0hd

> <s_epik_cmdline>
J2VwaWtfcHl0aG9uJywgJy1waCcsICc3LjAnLCAnLXRuJywgJzgnLCAnLW1hJywgJzIwMCcsICctbWV0YWxfYmluZGluZycsICctaW1hZScsICc8aW5maWxlLm1hZT4nLCAnLW9tYWUnLCAnPG91dGZpbGUubWFlPic=

> <r_lp_tautomer_probability>
0.999537

> <r_epik_Ionization_Penalty>
3.66603

> <r_epik_Ionization_Penalty_Charging>
1.09773e-07

> <r_epik_Ionization_Penalty_Neutral>
3.66603

> <r_epik_State_Penalty>
3.66562

> <r_epik_Charging_Adjusted_Penalty>
3.66562

> <i_epik_Tot_Q>
-1

> <i_epik_Tot_abs_Q>
1

> <r_epik_Metal_State_Penalty>
0.234536

> <b_epik_Metal_Only>
1

> <s_epik_Chemistry_Notes>
This compound contains an acetal/aminal-like group ( X-CH(R)-Y where X, Y are N, S, or O) that may be acid/base labile, releasing an aldehyde.

> <s_lp_Force_Field>
OPLS_2005

> <r_lp_Energy>
40.7454

> <b_lp_Chiralities_Consistent>
1

> <s_lp_Variant>
AV-unprocessed.smi:107-15

> <Gold.Version>
5.8.1

> <Gold.Id.Protein>
6NUR|6NUR_protein|mol2

> <Gold.PLP.Fitness>
43.9789

> <Gold.PLP.PLP>
-33.3327

> <Gold.PLP.part.hbond>
-4.6498

> <Gold.PLP.part.metal>
0.0000

> <Gold.PLP.part.buried>
-2.2646

> <Gold.PLP.part.nonpolar>
-25.0590

> <Gold.PLP.part.repulsive>
0.0891

> <Gold.PLP.ligand.clash>
0.0000

> <Gold.PLP.ligand.torsion>
0.7493

> <Gold.PLP.Chemscore.Hbond>
3.0402

> <Gold.PLP.Chemscore.CHOScore>
1.0000

> <Gold.PLP.Chemscore.Metal>
0.0000

> <Gold.Chemscore.Hbonds>
donor molecule, donor type, donor heavy atom, donor atom, acceptor molecule, acceptor atom, score
      L1  H     8    26       P1  7957  0.98
      L1  H    11    30       P1  8028  1.00
      P1  H  7989  7998       L1     8  0.21
      P1  H  8011  8017       L1     8  0.65
      L1  C     3    21       P1  8028  1.00

> <Gold.PLP.Chemscore.Internal.Correction>
0.0242

> <Gold.Rescore>
     Score         DG    S(hbond)    S(metal)    S(lipo)     H(rot)  DE(clash)    DE(int)     intcor
     11.14     -11.80       2.04        0.00      54.65       2.69       0.14       0.51       ----

> <Gold.Chemscore.Fitness>
11.1425

> <Gold.Chemscore.DG>
-11.7958

> <Gold.Chemscore.ZeroCoef>
-5.4800

> <Gold.Chemscore.Hbond>
2.0361

> <Gold.Chemscore.Metal>
0.0000

> <Gold.Chemscore.Lipo>
54.6516

> <Gold.Chemscore.Internal_Hbond>
0.0000

> <Gold.Chemscore.DEClash>
0.1407

> <Gold.Chemscore.DEInternal>
0.5127

> <Gold.Chemscore.Rot>
2.6871

> <Gold.Chemscore.Internal.Correction>
   9.000000E+99

> <Gold.Chemscore.Hbonds>
donor molecule, donor type, donor heavy atom, donor atom, acceptor molecule, acceptor atom, score
      L1  H     8    26       P1  7957  0.88
      L1  H    11    30       P1  8028  0.92
      P1  H  7989  7998       L1     8  0.01
      P1  H  8011  8017       L1     8  0.06

> <Gold.Chemscore.Hbond.Weighted>
-6.8006

> <Gold.Chemscore.Metal.Weighted>
-0.0000

> <Gold.Chemscore.Lipo.Weighted>
-6.3942

> <Gold.Chemscore.Internal_Hbond.Weighted>
0.0000

> <Gold.Chemscore.DEClash.Weighted>
0.1407

> <Gold.Chemscore.DEInternal.Weighted>
0.5127

> <Gold.Chemscore.Rot.Weighted>
6.8791

> <Gold.Chemscore.Internal.Correction.Weighted>
   9.000000E+99

> <Gold.Protein.RotatedTorsions>
[ 6907 6896 6895 6894 ] final   57.93 input  -60.11 | X-H torsion
[ 7974 7965 7964 7962 ] final   25.88 input  175.53 | X-H torsion
[ 8008 7997 7996 7995 ] final -156.59 input   59.86 | X-H torsion
[ 10167 10162 10161 10158 ] final  -73.26 input  -65.29 | X-H torsion
[ 10718 10713 10712 10709 ] final   21.52 input   66.30 | X-H torsion
[ 10763 10752 10751 10750 ] final -125.94 input  -60.55 | X-H torsion
[ 11005 11000 10999 10996 ] final -128.04 input  -57.11 | X-H torsion

> <Gold.Protein.ActiveResidues>
 VAL166  LYS551  ARG553  GLY616  TRP617  ASP618  TYR619  PRO620  LYS621  CYS622 
 ASP623  PHE694  ASN695  SER759  ASP760  ASP761  ALA762  ILE779  LEU786  VAL792 
 PHE793  MET794  SER795  GLU796  ALA797  LYS798  CYS799  TRP800  GLU811  SER814 

> <Gold.Protein.RotatedAtoms>
  152.3777  134.6638  160.0153 H   0  0  0  0  0  0  0  0  0  0  0  0  # atno 6907 bound_to 6896
  151.6911  133.3305  159.3251 H   0  0  0  0  0  0  0  0  0  0  0  0  # atno 6908 bound_to 6896
  150.7723  134.6633  159.6396 H   0  0  0  0  0  0  0  0  0  0  0  0  # atno 6909 bound_to 6896
  146.1866  139.7405  142.8862 H   0  0  0  0  0  0  0  0  0  0  0  0  # atno 7974 bound_to 7965
  155.7195  140.0788  157.2337 H   0  0  0  0  0  0  0  0  0  0  0  0  # atno 8008 bound_to 7997
  154.4047  140.1615  156.2440 H   0  0  0  0  0  0  0  0  0  0  0  0  # atno 8009 bound_to 7997
  155.9209  140.3398  155.6175 H   0  0  0  0  0  0  0  0  0  0  0  0  # atno 8010 bound_to 7997
  140.5125  143.2343  151.7569 H   0  0  0  0  0  0  0  0  0  0  0  0  # atno 10167 bound_to 10162
  157.1396  130.6626  149.5977 H   0  0  0  0  0  0  0  0  0  0  0  0  # atno 10718 bound_to 10713
  154.8741  135.4012  154.3350 H   0  0  0  0  0  0  0  0  0  0  0  0  # atno 10763 bound_to 10752
  153.4158  135.7022  153.6333 H   0  0  0  0  0  0  0  0  0  0  0  0  # atno 10764 bound_to 10752
  153.5017  135.3726  155.2513 H   0  0  0  0  0  0  0  0  0  0  0  0  # atno 10765 bound_to 10752
  140.9550  134.1014  157.4025 H   0  0  0  0  0  0  0  0  0  0  0  0  # atno 11005 bound_to 11000
  145.3919  141.0373  143.3119 LP  0  0  0  0  0  0  0  0  0  0  0  0  # atno 17320 bound_to 7965
  144.8409  139.5474  143.6901 LP  0  0  0  0  0  0  0  0  0  0  0  0  # atno 17321 bound_to 7965
  139.4900  144.4370  151.9808 LP  0  0  0  0  0  0  0  0  0  0  0  0  # atno 17342 bound_to 10162
  140.3463  144.3143  150.5957 LP  0  0  0  0  0  0  0  0  0  0  0  0  # atno 17343 bound_to 10162
  155.9791  130.4782  150.6696 LP  0  0  0  0  0  0  0  0  0  0  0  0  # atno 17370 bound_to 10713
  157.4319  131.0850  151.1030 LP  0  0  0  0  0  0  0  0  0  0  0  0  # atno 17371 bound_to 10713
  139.8859  135.0077  156.6465 LP  0  0  0  0  0  0  0  0  0  0  0  0  # atno 17394 bound_to 11000
  140.7549  133.8866  155.8375 LP  0  0  0  0  0  0  0  0  0  0  0  0  # atno 17395 bound_to 11000

$$$$
