AV-unprocessed.smi:2711|AV-procd|sdf|10473|dock7
  -GOLD-   2272014513D 1   1.00000     0.00000
 Structure written by MMmdl.
 33 34  0  0  0  0  0  0  0  0  2 V2000
  146.7208  133.7720  162.3159 C   0  0  0  0  0  0  0  0  0  0  0  0
  147.2445  135.0497  161.7529 C   0  0  0  0  0  0  0  0  0  0  0  0
  147.1861  136.2982  162.3160 C   0  0  0  0  0  0  0  0  0  0  0  0
  147.7707  137.2952  161.5334 N   0  0  0  0  0  0  0  0  0  0  0  0
  148.2834  136.8375  160.3863 C   0  0  0  0  0  0  0  0  0  0  0  0
  148.8832  137.6317  159.4845 N   0  5  0  0  0  0  0  0  0  0  0  0
  150.1213  137.3286  159.0322 C   0  0  0  0  0  0  0  0  0  0  0  0
  150.4692  136.2675  158.5086 O   0  0  0  0  0  0  0  0  0  0  0  0
  151.0130  138.3169  159.1976 N   0  0  0  0  0  0  0  0  0  0  0  0
  152.4215  138.2764  158.8078 C   0  0  0  0  0  0  0  0  0  0  0  0
  153.3397  139.0957  159.7339 C   0  0  0  0  0  0  0  0  0  0  0  0
  154.2684  138.5443  160.3272 O   0  0  0  0  0  0  0  0  0  0  0  0
  153.1031  140.4188  159.8533 N   0  0  0  0  0  0  0  0  0  0  0  0
  152.0469  141.1634  159.1688 C   0  0  0  0  0  0  0  0  0  0  0  0
  152.3507  142.6401  159.4236 C   0  0  0  0  0  0  0  0  0  0  0  0
  153.1437  142.6384  160.7231 C   0  0  0  0  0  0  0  0  0  0  0  0
  153.8965  141.3079  160.6995 C   0  0  0  0  0  0  0  0  0  0  0  0
  148.0469  135.0973  160.2061 S   0  0  0  0  0  0  0  0  0  0  0  0
  147.4028  133.3744  163.0673 H   0  0  0  0  0  0  0  0  0  0  0  0
  146.6004  133.0189  161.5369 H   0  0  0  0  0  0  0  0  0  0  0  0
  145.7498  133.9249  162.7870 H   0  0  0  0  0  0  0  0  0  0  0  0
  146.7480  136.5684  163.2654 H   0  0  0  0  0  0  0  0  0  0  0  0
  150.6827  139.1702  159.6235 H   0  0  0  0  0  0  0  0  0  0  0  0
  152.7451  137.2357  158.8295 H   0  0  0  0  0  0  0  0  0  0  0  0
  152.5229  138.6163  157.7760 H   0  0  0  0  0  0  0  0  0  0  0  0
  152.0133  140.9493  158.0997 H   0  0  0  0  0  0  0  0  0  0  0  0
  151.0830  140.8932  159.6026 H   0  0  0  0  0  0  0  0  0  0  0  0
  152.9739  143.0295  158.6174 H   0  0  0  0  0  0  0  0  0  0  0  0
  151.4510  143.2541  159.4769 H   0  0  0  0  0  0  0  0  0  0  0  0
  153.8073  143.4984  160.8163 H   0  0  0  0  0  0  0  0  0  0  0  0
  152.4554  142.6540  161.5693 H   0  0  0  0  0  0  0  0  0  0  0  0
  154.0269  140.9079  161.7063 H   0  0  0  0  0  0  0  0  0  0  0  0
  154.8843  141.4333  160.2536 H   0  0  0  0  0  0  0  0  0  0  0  0
  1  2  1  0  0  0  0
  1 19  1  0  0  0  0
  1 20  1  0  0  0  0
  1 21  1  0  0  0  0
  2 18  1  0  0  0  0
  2  3  2  0  0  0  0
  3  4  1  0  0  0  0
  3 22  1  0  0  0  0
  4  5  2  0  0  0  0
  5  6  1  0  0  0  0
  5 18  1  0  0  0  0
  6  7  1  0  0  0  0
  7  8  2  0  0  0  0
  7  9  1  0  0  0  0
  9 10  1  0  0  0  0
  9 23  1  0  0  0  0
 10 11  1  0  0  0  0
 10 24  1  0  0  0  0
 10 25  1  0  0  0  0
 11 12  2  0  0  0  0
 11 13  1  0  0  0  0
 13 17  1  0  0  0  0
 13 14  1  0  0  0  0
 14 15  1  0  0  0  0
 14 26  1  0  0  0  0
 14 27  1  0  0  0  0
 15 16  1  0  0  0  0
 15 28  1  0  0  0  0
 15 29  1  0  0  0  0
 16 17  1  0  0  0  0
 16 30  1  0  0  0  0
 16 31  1  0  0  0  0
 17 32  1  0  0  0  0
 17 33  1  0  0  0  0
M  CHG  1   6  -1
M  END
> <s_m_source_file>
AV-unprocessed.smi

> <i_m_source_file_index>
2711

> <i_lp_mmshare_version>
43012

> <i_f3d_flags>
0

> <s_epik_input>
W0NIM11jMVtjSF1uYyhzMSlbTkhdQyg9TylbTkhdW0NIMl1DKD1PKU4yW0NIMl1bQ0gyXVtDSDJdW0NIMl0y

> <s_epik_cmdline>
J2VwaWtfcHl0aG9uJywgJy1waCcsICc3LjAnLCAnLXRuJywgJzgnLCAnLW1hJywgJzIwMCcsICctbWV0YWxfYmluZGluZycsICctaW1hZScsICc8aW5maWxlLm1hZT4nLCAnLW9tYWUnLCAnPG91dGZpbGUubWFlPic=

> <r_lp_tautomer_probability>
1

> <r_epik_Ionization_Penalty>
6.8506

> <r_epik_Ionization_Penalty_Charging>
5.74941

> <r_epik_Ionization_Penalty_Neutral>
1.10119

> <r_epik_State_Penalty>
5.74937

> <r_epik_Charging_Adjusted_Penalty>
11.4988

> <i_epik_Tot_Q>
-1

> <i_epik_Tot_abs_Q>
1

> <r_epik_Metal_State_Penalty>
1.72493

> <b_epik_Metal_Only>
1

> <s_lp_Force_Field>
OPLS_2005

> <r_lp_Energy>
20.4432

> <b_lp_Chiralities_Consistent>
1

> <s_lp_Variant>
AV-unprocessed.smi:2711-2

> <Gold.Version>
5.8.1

> <Gold.Id.Protein>
6NUR|6NUR_protein|mol2

> <Gold.PLP.Fitness>
43.3778

> <Gold.PLP.PLP>
-38.0099

> <Gold.PLP.part.hbond>
-4.1874

> <Gold.PLP.part.metal>
0.0000

> <Gold.PLP.part.buried>
-3.4630

> <Gold.PLP.part.nonpolar>
-29.8318

> <Gold.PLP.part.repulsive>
0.1818

> <Gold.PLP.ligand.clash>
0.0000

> <Gold.PLP.ligand.torsion>
1.1750

> <Gold.PLP.Chemscore.Hbond>
2.5660

> <Gold.PLP.Chemscore.CHOScore>
0.0000

> <Gold.PLP.Chemscore.Metal>
0.0000

> <Gold.Chemscore.Hbonds>
donor molecule, donor type, donor heavy atom, donor atom, acceptor molecule, acceptor atom, score
      P1  H  6896  6908       L1     8  0.82
      P1  H  6931  6943       L1     4  0.78
      P1  H  6934  6947       L1     4  0.67

> <Gold.PLP.Chemscore.Internal.Correction>
0.0200

> <Gold.Rescore>
     Score         DG    S(hbond)    S(metal)    S(lipo)     H(rot)  DE(clash)    DE(int)     intcor
     15.63     -17.00       1.99        0.00      70.31       1.31       0.04       1.34       ----

> <Gold.Chemscore.Fitness>
15.6305

> <Gold.Chemscore.DG>
-17.0039

> <Gold.Chemscore.ZeroCoef>
-5.4800

> <Gold.Chemscore.Hbond>
1.9880

> <Gold.Chemscore.Metal>
0.0000

> <Gold.Chemscore.Lipo>
70.3080

> <Gold.Chemscore.Internal_Hbond>
0.0000

> <Gold.Chemscore.DEClash>
0.0358

> <Gold.Chemscore.DEInternal>
1.3376

> <Gold.Chemscore.Rot>
1.3056

> <Gold.Chemscore.Internal.Correction>
   9.000000E+99

> <Gold.Chemscore.Hbonds>
donor molecule, donor type, donor heavy atom, donor atom, acceptor molecule, acceptor atom, score
      P1  H  6896  6908       L1     8  0.79
      P1  H  6931  6943       L1     4  0.11
      P1  H  6934  6947       L1     4  0.15

> <Gold.Chemscore.Hbond.Weighted>
-6.6400

> <Gold.Chemscore.Metal.Weighted>
-0.0000

> <Gold.Chemscore.Lipo.Weighted>
-8.2260

> <Gold.Chemscore.Internal_Hbond.Weighted>
0.0000

> <Gold.Chemscore.DEClash.Weighted>
0.0358

> <Gold.Chemscore.DEInternal.Weighted>
1.3376

> <Gold.Chemscore.Rot.Weighted>
3.3422

> <Gold.Chemscore.Internal.Correction.Weighted>
   9.000000E+99

> <Gold.Protein.RotatedTorsions>
[ 6907 6896 6895 6894 ] final -179.21 input  -60.11 | X-H torsion
[ 7974 7965 7964 7962 ] final -146.42 input  175.53 | X-H torsion
[ 8008 7997 7996 7995 ] final   54.46 input   59.86 | X-H torsion
[ 10167 10162 10161 10158 ] final -149.36 input  -65.29 | X-H torsion
[ 10718 10713 10712 10709 ] final   -6.74 input   66.30 | X-H torsion
[ 10763 10752 10751 10750 ] final  -81.90 input  -60.55 | X-H torsion
[ 11005 11000 10999 10996 ] final   58.77 input  -57.11 | X-H torsion

> <Gold.Protein.ActiveResidues>
 VAL166  LYS551  ARG553  GLY616  TRP617  ASP618  TYR619  PRO620  LYS621  CYS622 
 ASP623  PHE694  ASN695  SER759  ASP760  ASP761  ALA762  ILE779  LEU786  VAL792 
 PHE793  MET794  SER795  GLU796  ALA797  LYS798  CYS799  TRP800  GLU811  SER814 

> <Gold.Protein.RotatedAtoms>
  151.6497  133.3321  159.3148 H   0  0  0  0  0  0  0  0  0  0  0  0  # atno 6907 bound_to 6896
  150.7966  134.7034  159.6572 H   0  0  0  0  0  0  0  0  0  0  0  0  # atno 6908 bound_to 6896
  152.4054  134.6220  160.0104 H   0  0  0  0  0  0  0  0  0  0  0  0  # atno 6909 bound_to 6896
  144.8161  140.5458  143.5610 H   0  0  0  0  0  0  0  0  0  0  0  0  # atno 7974 bound_to 7965
  155.4850  140.3469  155.4346 H   0  0  0  0  0  0  0  0  0  0  0  0  # atno 8008 bound_to 7997
  156.1014  140.1436  156.9490 H   0  0  0  0  0  0  0  0  0  0  0  0  # atno 8009 bound_to 7997
  154.4696  140.0905  156.7089 H   0  0  0  0  0  0  0  0  0  0  0  0  # atno 8010 bound_to 7997
  139.7449  143.8605  152.2572 H   0  0  0  0  0  0  0  0  0  0  0  0  # atno 10167 bound_to 10162
  156.7275  130.5170  149.5853 H   0  0  0  0  0  0  0  0  0  0  0  0  # atno 10718 bound_to 10713
  154.5692  135.5610  153.7079 H   0  0  0  0  0  0  0  0  0  0  0  0  # atno 10763 bound_to 10752
  153.0043  135.6293  154.2138 H   0  0  0  0  0  0  0  0  0  0  0  0  # atno 10764 bound_to 10752
  154.2077  135.2875  155.2949 H   0  0  0  0  0  0  0  0  0  0  0  0  # atno 10765 bound_to 10752
  140.0353  134.5953  155.9453 H   0  0  0  0  0  0  0  0  0  0  0  0  # atno 11005 bound_to 11000
  145.5212  139.1476  143.3551 LP  0  0  0  0  0  0  0  0  0  0  0  0  # atno 17320 bound_to 7965
  146.2464  140.5353  142.8912 LP  0  0  0  0  0  0  0  0  0  0  0  0  # atno 17321 bound_to 7965
  139.8567  144.7138  150.9149 LP  0  0  0  0  0  0  0  0  0  0  0  0  # atno 17342 bound_to 10162
  140.7791  143.3852  151.1405 LP  0  0  0  0  0  0  0  0  0  0  0  0  # atno 17343 bound_to 10162
  156.1552  130.6337  151.0647 LP  0  0  0  0  0  0  0  0  0  0  0  0  # atno 17370 bound_to 10713
  157.6872  131.0821  150.7208 LP  0  0  0  0  0  0  0  0  0  0  0  0  # atno 17371 bound_to 10713
  141.1854  133.6555  156.5195 LP  0  0  0  0  0  0  0  0  0  0  0  0  # atno 17394 bound_to 11000
  140.4158  134.7231  157.4862 LP  0  0  0  0  0  0  0  0  0  0  0  0  # atno 17395 bound_to 11000

$$$$
