AV-unprocessed.smi:2588|AV-procd|sdf|10149|dock5
  -GOLD-   2272014163D 1   1.00000     0.00000
 Structure written by MMmdl.
 40 41  0  0  0  0  0  0  0  0  2 V2000
  143.5329  136.2369  152.4006 C   0  0  0  0  0  0  0  0  0  0  0  0
  144.7217  136.8135  151.6026 C   0  0  0  0  0  0  0  0  0  0  0  0
  145.7051  135.6624  151.3005 C   0  0  0  0  0  0  0  0  0  0  0  0
  145.3806  137.9647  152.3036 N   0  3  2  0  0  0  0  0  0  0  0  0
  146.4993  138.5716  151.5223 C   0  0  0  0  0  0  0  0  0  0  0  0
  147.1021  139.8061  152.2203 C   0  0  0  0  0  0  0  0  0  0  0  0
  147.5729  139.4928  153.6465 C   0  0  2  0  0  0  0  0  0  0  0  0
  148.7455  138.6201  153.6139 N   0  0  0  0  0  0  0  0  0  0  0  0
  149.9743  138.9471  154.0417 C   0  0  0  0  0  0  0  0  0  0  0  0
  150.2667  140.0610  154.4761 O   0  0  0  0  0  0  0  0  0  0  0  0
  151.0369  137.8462  153.9602 C   0  0  0  0  0  0  0  0  0  0  0  0
  151.7651  137.6970  155.2201 N   0  0  0  0  0  0  0  0  0  0  0  0
  151.7518  136.4831  155.8333 N   0  0  0  0  0  0  0  0  0  0  0  0
  152.4345  136.4981  156.9179 C   0  0  0  0  0  0  0  0  0  0  0  0
  153.1961  138.0376  157.3399 S   0  0  0  0  0  0  0  0  0  0  0  0
  152.4818  138.7118  155.8495 C   0  0  0  0  0  0  0  0  0  0  0  0
  152.6331  139.8788  155.4898 O   0  0  0  0  0  0  0  0  0  0  0  0
  146.4005  138.8627  154.4187 C   0  0  0  0  0  0  0  0  0  0  0  0
  145.8212  137.6369  153.6916 C   0  0  0  0  0  0  0  0  0  0  0  0
  143.1532  135.3262  151.9361 H   0  0  0  0  0  0  0  0  0  0  0  0
  142.6878  136.9231  152.4418 H   0  0  0  0  0  0  0  0  0  0  0  0
  143.8226  135.9868  153.4217 H   0  0  0  0  0  0  0  0  0  0  0  0
  144.3356  137.1783  150.6496 H   0  0  0  0  0  0  0  0  0  0  0  0
  145.1803  134.7901  150.9097 H   0  0  0  0  0  0  0  0  0  0  0  0
  146.2383  135.3479  152.1985 H   0  0  0  0  0  0  0  0  0  0  0  0
  146.4395  135.9308  150.5415 H   0  0  0  0  0  0  0  0  0  0  0  0
  147.2701  137.8193  151.3483 H   0  0  0  0  0  0  0  0  0  0  0  0
  146.1556  138.9027  150.5442 H   0  0  0  0  0  0  0  0  0  0  0  0
  147.9291  140.2024  151.6294 H   0  0  0  0  0  0  0  0  0  0  0  0
  146.3518  140.5971  152.2558 H   0  0  0  0  0  0  0  0  0  0  0  0
  147.8624  140.4266  154.1316 H   0  0  0  0  0  0  0  0  0  0  0  0
  148.6082  137.6857  153.2563 H   0  0  0  0  0  0  0  0  0  0  0  0
  150.5766  136.8912  153.6999 H   0  0  0  0  0  0  0  0  0  0  0  0
  151.7249  138.0883  153.1486 H   0  0  0  0  0  0  0  0  0  0  0  0
  152.5853  135.6573  157.5949 H   0  0  0  0  0  0  0  0  0  0  0  0
  146.7049  138.5848  155.4281 H   0  0  0  0  0  0  0  0  0  0  0  0
  145.6130  139.6075  154.5421 H   0  0  0  0  0  0  0  0  0  0  0  0
  144.9856  137.2836  154.2922 H   0  0  0  0  0  0  0  0  0  0  0  0
  146.5544  136.8290  153.6627 H   0  0  0  0  0  0  0  0  0  0  0  0
  144.6750  138.6819  152.3934 H   0  0  0  0  0  0  0  0  0  0  0  0
  1  2  1  0  0  0  0
  1 20  1  0  0  0  0
  1 21  1  0  0  0  0
  1 22  1  0  0  0  0
  2  3  1  0  0  0  0
  2  4  1  0  0  0  0
  2 23  1  0  0  0  0
  3 24  1  0  0  0  0
  3 25  1  0  0  0  0
  3 26  1  0  0  0  0
  4 19  1  0  0  0  0
  4  5  1  0  0  0  0
  4 40  1  0  0  0  0
  5  6  1  0  0  0  0
  5 27  1  0  0  0  0
  5 28  1  0  0  0  0
  6  7  1  0  0  0  0
  6 29  1  0  0  0  0
  6 30  1  0  0  0  0
  7  8  1  0  0  0  0
  7 18  1  0  0  0  0
  7 31  1  0  0  0  0
  8  9  1  0  0  0  0
  8 32  1  0  0  0  0
  9 10  2  0  0  0  0
  9 11  1  0  0  0  0
 11 12  1  0  0  0  0
 11 33  1  0  0  0  0
 11 34  1  0  0  0  0
 12 16  1  0  0  0  0
 12 13  1  0  0  0  0
 13 14  2  0  0  0  0
 14 15  1  0  0  0  0
 14 35  1  0  0  0  0
 15 16  1  0  0  0  0
 16 17  2  0  0  0  0
 18 19  1  0  0  0  0
 18 36  1  0  0  0  0
 18 37  1  0  0  0  0
 19 38  1  0  0  0  0
 19 39  1  0  0  0  0
M  CHG  1   4   1
M  END
> <s_m_source_file>
AV-unprocessed.smi

> <i_m_source_file_index>
2588

> <i_lp_mmshare_version>
43012

> <i_f3d_flags>
0

> <s_epik_input>
W0NIM11bQ0hdKFtDSDNdKU4xW0NIMl1bQ0gyXVtDSF0oW0NIMl1bQ0gyXTEpW05IXUMoPU8pW0NIMl1uMm5bY0hdc2MyPU8=

> <s_epik_cmdline>
J2VwaWtfcHl0aG9uJywgJy1waCcsICc3LjAnLCAnLXRuJywgJzgnLCAnLW1hJywgJzIwMCcsICctbWV0YWxfYmluZGluZycsICctaW1hZScsICc8aW5maWxlLm1hZT4nLCAnLW9tYWUnLCAnPG91dGZpbGUubWFlPic=

> <r_lp_tautomer_probability>
1

> <r_epik_Ionization_Penalty>
0.00923155

> <r_epik_Ionization_Penalty_Charging>
0.00923117

> <r_epik_Ionization_Penalty_Neutral>
3.88423e-07

> <r_epik_State_Penalty>
0.0069994

> <r_epik_Charging_Adjusted_Penalty>
0.0162306

> <i_epik_Tot_Q>
1

> <i_epik_Tot_abs_Q>
1

> <r_epik_Metal_State_Penalty>
0.0069994

> <b_epik_Metal_Only>
0

> <s_lp_Force_Field>
OPLS_2005

> <r_lp_Energy>
20.7245

> <b_lp_Chiralities_Consistent>
1

> <s_lp_Variant>
AV-unprocessed.smi:2588-2

> <Gold.Version>
5.8.1

> <Gold.Id.Protein>
6NUR|6NUR_protein|mol2

> <Gold.PLP.Fitness>
46.4215

> <Gold.PLP.PLP>
-29.3109

> <Gold.PLP.part.hbond>
-7.5185

> <Gold.PLP.part.metal>
0.0000

> <Gold.PLP.part.buried>
5.2700

> <Gold.PLP.part.nonpolar>
-28.7173

> <Gold.PLP.part.repulsive>
0.1806

> <Gold.PLP.ligand.clash>
0.0000

> <Gold.PLP.ligand.torsion>
0.1470

> <Gold.PLP.Chemscore.Hbond>
5.7892

> <Gold.PLP.Chemscore.CHOScore>
0.0000

> <Gold.PLP.Chemscore.Metal>
0.0000

> <Gold.Chemscore.Hbonds>
donor molecule, donor type, donor heavy atom, donor atom, acceptor molecule, acceptor atom, score
      L1  H     4    40       P1 10175  1.98
      L1  H     8    32       P1  7948  1.00
      P1  H  7989  7998       L1    10  1.00
      P1  H  7997  8010       L1    17  1.00
      P1  H 10752 10765       L1    13  0.90

> <Gold.PLP.Chemscore.Internal.Correction>
0.0370

> <Gold.Rescore>
     Score         DG    S(hbond)    S(metal)    S(lipo)     H(rot)  DE(clash)    DE(int)     intcor
     17.42     -20.28       3.74        0.00      60.68       1.88       2.56       0.31       ----

> <Gold.Chemscore.Fitness>
17.4168

> <Gold.Chemscore.DG>
-20.2797

> <Gold.Chemscore.ZeroCoef>
-5.4800

> <Gold.Chemscore.Hbond>
3.7431

> <Gold.Chemscore.Metal>
0.0000

> <Gold.Chemscore.Lipo>
60.6792

> <Gold.Chemscore.Internal_Hbond>
0.0000

> <Gold.Chemscore.DEClash>
2.5572

> <Gold.Chemscore.DEInternal>
0.3057

> <Gold.Chemscore.Rot>
1.8756

> <Gold.Chemscore.Internal.Correction>
   9.000000E+99

> <Gold.Chemscore.Hbonds>
donor molecule, donor type, donor heavy atom, donor atom, acceptor molecule, acceptor atom, score
      L1  H     4    40       P1 10175  0.92
      L1  H     8    32       P1  7948  0.88
      P1  H  7989  7998       L1    10  0.81
      P1  H  7997  8010       L1    17  0.26
      P1  H 10752 10765       L1    13  0.05

> <Gold.Chemscore.Hbond.Weighted>
-12.5018

> <Gold.Chemscore.Metal.Weighted>
-0.0000

> <Gold.Chemscore.Lipo.Weighted>
-7.0995

> <Gold.Chemscore.Internal_Hbond.Weighted>
0.0000

> <Gold.Chemscore.DEClash.Weighted>
2.5572

> <Gold.Chemscore.DEInternal.Weighted>
0.3057

> <Gold.Chemscore.Rot.Weighted>
4.8015

> <Gold.Chemscore.Internal.Correction.Weighted>
   9.000000E+99

> <Gold.Protein.RotatedTorsions>
[ 6907 6896 6895 6894 ] final   74.01 input  -60.11 | X-H torsion
[ 7974 7965 7964 7962 ] final  162.58 input  175.53 | X-H torsion
[ 8008 7997 7996 7995 ] final   93.26 input   59.86 | X-H torsion
[ 10167 10162 10161 10158 ] final  -72.11 input  -65.29 | X-H torsion
[ 10718 10713 10712 10709 ] final  137.16 input   66.30 | X-H torsion
[ 10763 10752 10751 10750 ] final -170.41 input  -60.55 | X-H torsion
[ 11005 11000 10999 10996 ] final -107.13 input  -57.11 | X-H torsion

> <Gold.Protein.ActiveResidues>
 VAL166  LYS551  ARG553  GLY616  TRP617  ASP618  TYR619  PRO620  LYS621  CYS622 
 ASP623  PHE694  ASN695  SER759  ASP760  ASP761  ALA762  ILE779  LEU786  VAL792 
 PHE793  MET794  SER795  GLU796  ALA797  LYS798  CYS799  TRP800  GLU811  SER814 

> <Gold.Protein.RotatedAtoms>
  152.4954  134.4335  159.9519 H   0  0  0  0  0  0  0  0  0  0  0  0  # atno 6907 bound_to 6896
  151.4315  133.3663  159.2777 H   0  0  0  0  0  0  0  0  0  0  0  0  # atno 6908 bound_to 6896
  150.9151  134.8592  159.7511 H   0  0  0  0  0  0  0  0  0  0  0  0  # atno 6909 bound_to 6896
  144.7630  139.8059  143.6325 H   0  0  0  0  0  0  0  0  0  0  0  0  # atno 7974 bound_to 7965
  156.0447  140.3315  155.7283 H   0  0  0  0  0  0  0  0  0  0  0  0  # atno 8008 bound_to 7997
  155.5691  140.0626  157.2828 H   0  0  0  0  0  0  0  0  0  0  0  0  # atno 8009 bound_to 7997
  154.4408  140.1864  156.0849 H   0  0  0  0  0  0  0  0  0  0  0  0  # atno 8010 bound_to 7997
  140.5218  143.2331  151.7416 H   0  0  0  0  0  0  0  0  0  0  0  0  # atno 10167 bound_to 10162
  157.4390  131.1056  151.0165 H   0  0  0  0  0  0  0  0  0  0  0  0  # atno 10718 bound_to 10713
  154.6418  135.2899  155.0095 H   0  0  0  0  0  0  0  0  0  0  0  0  # atno 10763 bound_to 10752
  154.1219  135.6547  153.4908 H   0  0  0  0  0  0  0  0  0  0  0  0  # atno 10764 bound_to 10752
  153.0330  135.5289  154.7287 H   0  0  0  0  0  0  0  0  0  0  0  0  # atno 10765 bound_to 10752
  141.0970  133.8953  157.1939 H   0  0  0  0  0  0  0  0  0  0  0  0  # atno 11005 bound_to 11000
  146.1711  139.4863  142.9927 LP  0  0  0  0  0  0  0  0  0  0  0  0  # atno 17320 bound_to 7965
  145.6558  141.0252  143.1735 LP  0  0  0  0  0  0  0  0  0  0  0  0  # atno 17321 bound_to 7965
  139.4926  144.4243  151.9943 LP  0  0  0  0  0  0  0  0  0  0  0  0  # atno 17342 bound_to 10162
  140.3340  144.3282  150.5981 LP  0  0  0  0  0  0  0  0  0  0  0  0  # atno 17343 bound_to 10162
  157.1035  130.5991  149.5465 LP  0  0  0  0  0  0  0  0  0  0  0  0  # atno 17370 bound_to 10713
  155.9941  130.5004  150.7408 LP  0  0  0  0  0  0  0  0  0  0  0  0  # atno 17371 bound_to 10713
  139.9809  135.0098  156.9747 LP  0  0  0  0  0  0  0  0  0  0  0  0  # atno 17394 bound_to 11000
  140.5116  134.0996  155.7271 LP  0  0  0  0  0  0  0  0  0  0  0  0  # atno 17395 bound_to 11000

$$$$
