AV-unprocessed.smi:2214|AV-procd|sdf|8959|dock2
  -GOLD-   2272012173D 1   1.00000     0.00000
 Structure written by MMmdl.
 41 42  0  0  0  0  0  0  0  0  1 V2000
  151.6854  145.3972  160.1694 C   0  0  0  0  0  0  0  0  0  0  0  0
  151.9717  143.9318  159.9125 C   0  0  0  0  0  0  0  0  0  0  0  0
  152.7047  143.1751  160.8479 C   0  0  0  0  0  0  0  0  0  0  0  0
  152.9634  141.8144  160.6018 C   0  0  0  0  0  0  0  0  0  0  0  0
  152.4913  141.2060  159.4227 C   0  0  0  0  0  0  0  0  0  0  0  0
  152.8251  139.5343  159.1410 Cl  0  0  0  0  0  0  0  0  0  0  0  0
  151.7562  141.9518  158.4750 C   0  0  0  0  0  0  0  0  0  0  0  0
  151.3267  141.2882  157.3460 O   0  0  0  0  0  0  0  0  0  0  0  0
  150.7612  142.0451  156.2847 C   0  0  0  0  0  0  0  0  0  0  0  0
  149.9893  141.0811  155.3717 C   0  0  1  0  0  0  0  0  0  0  0  0
  150.9039  140.1020  154.9230 O   0  0  0  0  0  0  0  0  0  0  0  0
  148.8222  140.3836  156.1099 C   0  0  0  0  0  0  0  0  0  0  0  0
  147.6149  141.2243  156.1390 N   0  0  0  0  0  0  0  0  0  0  0  0
  147.0290  141.4300  157.3999 C   0  0  0  0  0  0  0  0  0  0  0  0
  145.9729  142.1610  157.5464 N   0  0  0  0  0  0  0  0  0  0  0  0
  145.3894  142.7731  156.4332 C   0  0  0  0  0  0  0  0  0  0  0  0
  144.1545  143.6095  156.7176 C   0  0  0  0  0  0  0  0  0  0  0  0
  145.9127  142.6192  155.1859 C   0  0  0  0  0  0  0  0  0  0  0  0
  145.3211  143.2625  153.9378 C   0  0  0  0  0  0  0  0  0  0  0  0
  147.1174  141.7931  155.0040 C   0  0  0  0  0  0  0  0  0  0  0  0
  147.6492  141.6201  153.9056 O   0  0  0  0  0  0  0  0  0  0  0  0
  151.4995  143.3226  158.7319 C   0  0  0  0  0  0  0  0  0  0  0  0
  152.1834  145.7477  161.0737 H   0  0  0  0  0  0  0  0  0  0  0  0
  150.6133  145.5572  160.2860 H   0  0  0  0  0  0  0  0  0  0  0  0
  152.0345  146.0034  159.3331 H   0  0  0  0  0  0  0  0  0  0  0  0
  153.0706  143.6325  161.7556 H   0  0  0  0  0  0  0  0  0  0  0  0
  153.5263  141.2366  161.3201 H   0  0  0  0  0  0  0  0  0  0  0  0
  150.0810  142.7937  156.6947 H   0  0  0  0  0  0  0  0  0  0  0  0
  151.5374  142.5620  155.7175 H   0  0  0  0  0  0  0  0  0  0  0  0
  149.6294  141.6362  154.5041 H   0  0  0  0  0  0  0  0  0  0  0  0
  150.4190  139.4004  154.5159 H   0  0  0  0  0  0  0  0  0  0  0  0
  148.6214  139.3992  155.6823 H   0  0  0  0  0  0  0  0  0  0  0  0
  149.1149  140.1596  157.1378 H   0  0  0  0  0  0  0  0  0  0  0  0
  147.5293  140.9380  158.2363 H   0  0  0  0  0  0  0  0  0  0  0  0
  143.2944  143.2209  156.1716 H   0  0  0  0  0  0  0  0  0  0  0  0
  144.3188  144.6453  156.4199 H   0  0  0  0  0  0  0  0  0  0  0  0
  143.9063  143.6031  157.7797 H   0  0  0  0  0  0  0  0  0  0  0  0
  146.0512  143.9285  153.4768 H   0  0  0  0  0  0  0  0  0  0  0  0
  144.4244  143.8464  154.1392 H   0  0  0  0  0  0  0  0  0  0  0  0
  145.0556  142.4953  153.2094 H   0  0  0  0  0  0  0  0  0  0  0  0
  150.9375  143.9274  158.0364 H   0  0  0  0  0  0  0  0  0  0  0  0
  1  2  1  0  0  0  0
  1 23  1  0  0  0  0
  1 24  1  0  0  0  0
  1 25  1  0  0  0  0
  2 22  1  0  0  0  0
  2  3  2  0  0  0  0
  3  4  1  0  0  0  0
  3 26  1  0  0  0  0
  4  5  2  0  0  0  0
  4 27  1  0  0  0  0
  5  6  1  0  0  0  0
  5  7  1  0  0  0  0
  7  8  1  0  0  0  0
  7 22  2  0  0  0  0
  8  9  1  0  0  0  0
  9 10  1  0  0  0  0
  9 28  1  0  0  0  0
  9 29  1  0  0  0  0
 10 11  1  0  0  0  0
 10 12  1  0  0  0  0
 10 30  1  0  0  0  0
 11 31  1  0  0  0  0
 12 13  1  0  0  0  0
 12 32  1  0  0  0  0
 12 33  1  0  0  0  0
 13 20  1  0  0  0  0
 13 14  1  0  0  0  0
 14 15  2  0  0  0  0
 14 34  1  0  0  0  0
 15 16  1  0  0  0  0
 16 17  1  0  0  0  0
 16 18  2  0  0  0  0
 17 35  1  0  0  0  0
 17 36  1  0  0  0  0
 17 37  1  0  0  0  0
 18 19  1  0  0  0  0
 18 20  1  0  0  0  0
 19 38  1  0  0  0  0
 19 39  1  0  0  0  0
 19 40  1  0  0  0  0
 20 21  2  0  0  0  0
 22 41  1  0  0  0  0
M  END
> <s_m_source_file>
AV-unprocessed.smi

> <i_m_source_file_index>
2214

> <i_lp_mmshare_version>
43012

> <i_f3d_flags>
0

> <s_epik_input>
W0NIM11jMVtjSF1bY0hdYyhDbCljKFtjSF0xKU9bQ0gyXVtDQEhdKFtPSF0pW0NIMl1uMltjSF1uYyhbQ0gzXSljKFtDSDNdKWMyPU8=

> <s_epik_cmdline>
J2VwaWtfcHl0aG9uJywgJy1waCcsICc3LjAnLCAnLXRuJywgJzgnLCAnLW1hJywgJzIwMCcsICctbWV0YWxfYmluZGluZycsICctaW1hZScsICc8aW5maWxlLm1hZT4nLCAnLW9tYWUnLCAnPG91dGZpbGUubWFlPic=

> <r_lp_tautomer_probability>
1

> <r_epik_Ionization_Penalty>
3.50205e-05

> <r_epik_Ionization_Penalty_Charging>
7.87908e-08

> <r_epik_Ionization_Penalty_Neutral>
3.49418e-05

> <r_epik_State_Penalty>
-0

> <r_epik_Charging_Adjusted_Penalty>
7.87908e-08

> <i_epik_Tot_Q>
0

> <i_epik_Tot_abs_Q>
0

> <r_epik_Metal_State_Penalty>
-0

> <b_epik_Metal_Only>
0

> <s_lp_Force_Field>
OPLS_2005

> <r_lp_Energy>
22.3765

> <b_lp_Chiralities_Consistent>
1

> <s_lp_Variant>
AV-unprocessed.smi:2214-2

> <Gold.Version>
5.8.1

> <Gold.Id.Protein>
6NUR|6NUR_protein|mol2

> <Gold.PLP.Fitness>
48.1457

> <Gold.PLP.PLP>
-45.9914

> <Gold.PLP.part.hbond>
-1.2279

> <Gold.PLP.part.metal>
0.0000

> <Gold.PLP.part.buried>
-6.9417

> <Gold.PLP.part.nonpolar>
-38.1373

> <Gold.PLP.part.repulsive>
0.3040

> <Gold.PLP.ligand.clash>
0.0000

> <Gold.PLP.ligand.torsion>
0.4664

> <Gold.PLP.Chemscore.Hbond>
1.0000

> <Gold.PLP.Chemscore.CHOScore>
0.0000

> <Gold.PLP.Chemscore.Metal>
0.0000

> <Gold.Chemscore.Hbonds>
donor molecule, donor type, donor heavy atom, donor atom, acceptor molecule, acceptor atom, score
      P1  H  7989  7998       L1    11  1.00

> <Gold.PLP.Chemscore.Internal.Correction>
0.0872

> <Gold.Rescore>
     Score         DG    S(hbond)    S(metal)    S(lipo)     H(rot)  DE(clash)    DE(int)     intcor
     13.78     -15.55       0.78        0.00     115.31       2.35       0.38       1.40       ----

> <Gold.Chemscore.Fitness>
13.7755

> <Gold.Chemscore.DG>
-15.5518

> <Gold.Chemscore.ZeroCoef>
-5.4800

> <Gold.Chemscore.Hbond>
0.7765

> <Gold.Chemscore.Metal>
0.0000

> <Gold.Chemscore.Lipo>
115.3138

> <Gold.Chemscore.Internal_Hbond>
0.0000

> <Gold.Chemscore.DEClash>
0.3756

> <Gold.Chemscore.DEInternal>
1.4006

> <Gold.Chemscore.Rot>
2.3490

> <Gold.Chemscore.Internal.Correction>
   9.000000E+99

> <Gold.Chemscore.Hbonds>
donor molecule, donor type, donor heavy atom, donor atom, acceptor molecule, acceptor atom, score
      P1  H  7989  7998       L1    11  0.12

> <Gold.Chemscore.Hbond.Weighted>
-2.5936

> <Gold.Chemscore.Metal.Weighted>
-0.0000

> <Gold.Chemscore.Lipo.Weighted>
-13.4917

> <Gold.Chemscore.Internal_Hbond.Weighted>
0.0000

> <Gold.Chemscore.DEClash.Weighted>
0.3756

> <Gold.Chemscore.DEInternal.Weighted>
1.4006

> <Gold.Chemscore.Rot.Weighted>
6.0136

> <Gold.Chemscore.Internal.Correction.Weighted>
   9.000000E+99

> <Gold.Protein.RotatedTorsions>
[ 6907 6896 6895 6894 ] final   54.98 input  -60.11 | X-H torsion
[ 7974 7965 7964 7962 ] final -110.04 input  175.53 | X-H torsion
[ 8008 7997 7996 7995 ] final  166.94 input   59.86 | X-H torsion
[ 10167 10162 10161 10158 ] final  -32.87 input  -65.29 | X-H torsion
[ 10718 10713 10712 10709 ] final  137.69 input   66.30 | X-H torsion
[ 10763 10752 10751 10750 ] final  -53.48 input  -60.55 | X-H torsion
[ 11005 11000 10999 10996 ] final -150.03 input  -57.11 | X-H torsion

> <Gold.Protein.ActiveResidues>
 VAL166  LYS551  ARG553  GLY616  TRP617  ASP618  TYR619  PRO620  LYS621  CYS622 
 ASP623  PHE694  ASN695  SER759  ASP760  ASP761  ALA762  ILE779  LEU786  VAL792 
 PHE793  MET794  SER795  GLU796  ALA797  LYS798  CYS799  TRP800  GLU811  SER814 

> <Gold.Protein.RotatedAtoms>
  152.3494  134.7027  160.0240 H   0  0  0  0  0  0  0  0  0  0  0  0  # atno 6907 bound_to 6896
  151.7386  133.3315  159.3367 H   0  0  0  0  0  0  0  0  0  0  0  0  # atno 6908 bound_to 6896
  150.7530  134.6232  159.6191 H   0  0  0  0  0  0  0  0  0  0  0  0  # atno 6909 bound_to 6896
  145.1731  140.8935  143.3523 H   0  0  0  0  0  0  0  0  0  0  0  0  # atno 7974 bound_to 7965
  156.1676  140.1630  156.8503 H   0  0  0  0  0  0  0  0  0  0  0  0  # atno 8008 bound_to 7997
  154.5224  140.0775  156.8230 H   0  0  0  0  0  0  0  0  0  0  0  0  # atno 8009 bound_to 7997
  155.3579  140.3393  155.4242 H   0  0  0  0  0  0  0  0  0  0  0  0  # atno 8010 bound_to 7997
  140.7214  143.3662  151.1865 H   0  0  0  0  0  0  0  0  0  0  0  0  # atno 10167 bound_to 10162
  157.4333  131.1050  151.0225 H   0  0  0  0  0  0  0  0  0  0  0  0  # atno 10718 bound_to 10713
  154.1595  135.6477  153.4982 H   0  0  0  0  0  0  0  0  0  0  0  0  # atno 10763 bound_to 10752
  153.0114  135.5357  154.6725 H   0  0  0  0  0  0  0  0  0  0  0  0  # atno 10764 bound_to 10752
  154.6035  135.2946  155.0482 H   0  0  0  0  0  0  0  0  0  0  0  0  # atno 10765 bound_to 10752
  140.7445  134.3477  157.5140 H   0  0  0  0  0  0  0  0  0  0  0  0  # atno 11005 bound_to 11000
  145.0212  139.3422  143.6071 LP  0  0  0  0  0  0  0  0  0  0  0  0  # atno 17320 bound_to 7965
  146.3465  139.9514  142.8728 LP  0  0  0  0  0  0  0  0  0  0  0  0  # atno 17321 bound_to 7965
  139.7225  143.9201  152.2990 LP  0  0  0  0  0  0  0  0  0  0  0  0  # atno 17342 bound_to 10162
  139.8963  144.6937  150.8715 LP  0  0  0  0  0  0  0  0  0  0  0  0  # atno 17343 bound_to 10162
  157.1114  130.6023  149.5483 LP  0  0  0  0  0  0  0  0  0  0  0  0  # atno 17370 bound_to 10713
  155.9921  130.4978  150.7327 LP  0  0  0  0  0  0  0  0  0  0  0  0  # atno 17371 bound_to 10713
  139.8799  134.9102  156.3009 LP  0  0  0  0  0  0  0  0  0  0  0  0  # atno 17394 bound_to 11000
  140.9807  133.7269  156.0667 LP  0  0  0  0  0  0  0  0  0  0  0  0  # atno 17395 bound_to 11000

$$$$
