AV-unprocessed.smi:486|AV-procd|sdf|2695|dock7
  -GOLD-   2262023123D 1   1.00000     0.00000
 Structure written by MMmdl.
 43 45  0  0  0  0  0  0  0  0  1 V2000
  144.9803  142.8007  154.9201 C   0  0  0  0  0  0  0  0  0  0  0  0
  145.4855  141.5112  155.2341 O   0  0  0  0  0  0  0  0  0  0  0  0
  146.7952  141.2306  154.9081 C   0  0  0  0  0  0  0  0  0  0  0  0
  147.2749  139.9457  155.2286 C   0  0  0  0  0  0  0  0  0  0  0  0
  148.5997  139.5758  154.9296 C   0  0  0  0  0  0  0  0  0  0  0  0
  149.4785  140.4824  154.3051 C   0  0  0  0  0  0  0  0  0  0  0  0
  150.7589  140.0399  154.0501 O   0  0  0  0  0  0  0  0  0  0  0  0
  151.2894  139.0036  154.8663 C   0  0  0  0  0  0  0  0  0  0  0  0
  152.0136  139.6386  156.0638 C   0  0  2  0  0  0  0  0  0  0  0  0
  153.0955  138.8028  156.4252 O   0  0  0  0  0  0  0  0  0  0  0  0
  151.0783  139.8074  157.2787 C   0  0  0  0  0  0  0  0  0  0  0  0
  151.6759  140.5989  158.3462 N   0  0  0  0  0  0  0  0  0  0  0  0
  152.2930  140.1530  159.4679 C   0  0  0  0  0  0  0  0  0  0  0  0
  152.4482  138.6935  159.7566 C   0  0  0  0  0  0  0  0  0  0  0  0
  152.7562  141.0939  160.2909 N   0  0  0  0  0  0  0  0  0  0  0  0
  152.4085  142.2623  159.6406 C   0  0  0  0  0  0  0  0  0  0  0  0
  152.6219  143.6120  160.0016 C   0  0  0  0  0  0  0  0  0  0  0  0
  152.1718  144.6545  159.1648 C   0  0  0  0  0  0  0  0  0  0  0  0
  151.5028  144.3629  157.9584 C   0  0  0  0  0  0  0  0  0  0  0  0
  151.2795  143.0250  157.5802 C   0  0  0  0  0  0  0  0  0  0  0  0
  151.7314  141.9879  158.4182 C   0  0  0  0  0  0  0  0  0  0  0  0
  149.0007  141.7759  153.9803 C   0  0  0  0  0  0  0  0  0  0  0  0
  147.6744  142.1456  154.2781 C   0  0  0  0  0  0  0  0  0  0  0  0
  143.9377  142.8645  155.2314 H   0  0  0  0  0  0  0  0  0  0  0  0
  145.0155  142.9918  153.8469 H   0  0  0  0  0  0  0  0  0  0  0  0
  145.5295  143.5834  155.4454 H   0  0  0  0  0  0  0  0  0  0  0  0
  146.6197  139.2341  155.7094 H   0  0  0  0  0  0  0  0  0  0  0  0
  148.9452  138.5843  155.1836 H   0  0  0  0  0  0  0  0  0  0  0  0
  150.4598  138.3941  155.2283 H   0  0  0  0  0  0  0  0  0  0  0  0
  151.9638  138.3523  154.3072 H   0  0  0  0  0  0  0  0  0  0  0  0
  152.4055  140.6142  155.7750 H   0  0  0  0  0  0  0  0  0  0  0  0
  152.9480  138.4869  157.3037 H   0  0  0  0  0  0  0  0  0  0  0  0
  150.1445  140.2816  156.9750 H   0  0  0  0  0  0  0  0  0  0  0  0
  150.8024  138.8321  157.6817 H   0  0  0  0  0  0  0  0  0  0  0  0
  152.9082  138.5442  160.7341 H   0  0  0  0  0  0  0  0  0  0  0  0
  153.0831  138.2266  159.0037 H   0  0  0  0  0  0  0  0  0  0  0  0
  151.4773  138.1991  159.7578 H   0  0  0  0  0  0  0  0  0  0  0  0
  153.1328  143.8456  160.9239 H   0  0  0  0  0  0  0  0  0  0  0  0
  152.3405  145.6823  159.4506 H   0  0  0  0  0  0  0  0  0  0  0  0
  151.1597  145.1671  157.3241 H   0  0  0  0  0  0  0  0  0  0  0  0
  150.7638  142.7983  156.6589 H   0  0  0  0  0  0  0  0  0  0  0  0
  149.6329  142.5065  153.4993 H   0  0  0  0  0  0  0  0  0  0  0  0
  147.3551  143.1413  154.0114 H   0  0  0  0  0  0  0  0  0  0  0  0
  1  2  1  0  0  0  0
  1 24  1  0  0  0  0
  1 25  1  0  0  0  0
  1 26  1  0  0  0  0
  2  3  1  0  0  0  0
  3 23  1  0  0  0  0
  3  4  2  0  0  0  0
  4  5  1  0  0  0  0
  4 27  1  0  0  0  0
  5  6  2  0  0  0  0
  5 28  1  0  0  0  0
  6  7  1  0  0  0  0
  6 22  1  0  0  0  0
  7  8  1  0  0  0  0
  8  9  1  0  0  0  0
  8 29  1  0  0  0  0
  8 30  1  0  0  0  0
  9 10  1  0  0  0  0
  9 11  1  0  0  0  0
  9 31  1  0  0  0  0
 10 32  1  0  0  0  0
 11 12  1  0  0  0  0
 11 33  1  0  0  0  0
 11 34  1  0  0  0  0
 12 21  1  0  0  0  0
 12 13  1  0  0  0  0
 13 14  1  0  0  0  0
 13 15  2  0  0  0  0
 14 35  1  0  0  0  0
 14 36  1  0  0  0  0
 14 37  1  0  0  0  0
 15 16  1  0  0  0  0
 16 21  2  0  0  0  0
 16 17  1  0  0  0  0
 17 18  2  0  0  0  0
 17 38  1  0  0  0  0
 18 19  1  0  0  0  0
 18 39  1  0  0  0  0
 19 20  2  0  0  0  0
 19 40  1  0  0  0  0
 20 21  1  0  0  0  0
 20 41  1  0  0  0  0
 22 23  2  0  0  0  0
 22 42  1  0  0  0  0
 23 43  1  0  0  0  0
M  END
> <s_m_source_file>
AV-unprocessed.smi

> <i_m_source_file_index>
486

> <i_lp_mmshare_version>
43012

> <i_f3d_flags>
0

> <s_epik_input>
W0NIM11PYzFbY0hdW2NIXWMoW2NIXVtjSF0xKU9bQ0gyXVtDQEhdKFtPSF0pW0NIMl1uKGMobjIpW0NIM10pYyhjMjMpW2NIXVtjSF1bY0hdW2NIXTM=

> <s_epik_cmdline>
J2VwaWtfcHl0aG9uJywgJy1waCcsICc3LjAnLCAnLXRuJywgJzgnLCAnLW1hJywgJzIwMCcsICctbWV0YWxfYmluZGluZycsICctaW1hZScsICc8aW5maWxlLm1hZT4nLCAnLW9tYWUnLCAnPG91dGZpbGUubWFlPic=

> <r_lp_tautomer_probability>
1

> <r_epik_Ionization_Penalty>
0.114052

> <r_epik_Ionization_Penalty_Charging>
0

> <r_epik_Ionization_Penalty_Neutral>
0.114052

> <r_epik_State_Penalty>
0.103717

> <r_epik_Charging_Adjusted_Penalty>
0.103717

> <i_epik_Tot_Q>
0

> <i_epik_Tot_abs_Q>
0

> <r_epik_Metal_State_Penalty>
0.000113338

> <b_epik_Metal_Only>
0

> <s_lp_Force_Field>
OPLS_2005

> <r_lp_Energy>
19.9985

> <b_lp_Chiralities_Consistent>
1

> <s_lp_Variant>
AV-unprocessed.smi:486-1

> <Gold.Version>
5.8.1

> <Gold.Id.Protein>
6NUR|6NUR_protein|mol2

> <Gold.PLP.Fitness>
51.4446

> <Gold.PLP.PLP>
-47.9568

> <Gold.PLP.part.hbond>
-1.9521

> <Gold.PLP.part.metal>
0.0000

> <Gold.PLP.part.buried>
-4.3663

> <Gold.PLP.part.nonpolar>
-42.4623

> <Gold.PLP.part.repulsive>
0.5167

> <Gold.PLP.ligand.clash>
0.0000

> <Gold.PLP.ligand.torsion>
1.3154

> <Gold.PLP.Chemscore.Hbond>
2.0000

> <Gold.PLP.Chemscore.CHOScore>
0.0000

> <Gold.PLP.Chemscore.Metal>
0.0000

> <Gold.Chemscore.Hbonds>
donor molecule, donor type, donor heavy atom, donor atom, acceptor molecule, acceptor atom, score
      P1  H  7989  7998       L1     7  0.47
      P1  H  7997  8008       L1    10  0.85

> <Gold.PLP.Chemscore.Internal.Correction>
0.1187

> <Gold.Rescore>
     Score         DG    S(hbond)    S(metal)    S(lipo)     H(rot)  DE(clash)    DE(int)     intcor
     17.39     -19.00       1.40        0.00     126.00       2.30       0.40       1.21       ----

> <Gold.Chemscore.Fitness>
17.3897

> <Gold.Chemscore.DG>
-19.0034

> <Gold.Chemscore.ZeroCoef>
-5.4800

> <Gold.Chemscore.Hbond>
1.3998

> <Gold.Chemscore.Metal>
0.0000

> <Gold.Chemscore.Lipo>
126.0018

> <Gold.Chemscore.Internal_Hbond>
0.0000

> <Gold.Chemscore.DEClash>
0.4029

> <Gold.Chemscore.DEInternal>
1.2109

> <Gold.Chemscore.Rot>
2.3023

> <Gold.Chemscore.Internal.Correction>
   9.000000E+99

> <Gold.Chemscore.Hbonds>
donor molecule, donor type, donor heavy atom, donor atom, acceptor molecule, acceptor atom, score
      P1  H  7989  7998       L1     7  0.44
      P1  H  7997  8008       L1    10  0.11

> <Gold.Chemscore.Hbond.Weighted>
-4.6752

> <Gold.Chemscore.Metal.Weighted>
-0.0000

> <Gold.Chemscore.Lipo.Weighted>
-14.7422

> <Gold.Chemscore.Internal_Hbond.Weighted>
0.0000

> <Gold.Chemscore.DEClash.Weighted>
0.4029

> <Gold.Chemscore.DEInternal.Weighted>
1.2109

> <Gold.Chemscore.Rot.Weighted>
5.8940

> <Gold.Chemscore.Internal.Correction.Weighted>
   9.000000E+99

> <Gold.Protein.RotatedTorsions>
[ 6907 6896 6895 6894 ] final -153.67 input  -60.11 | X-H torsion
[ 7974 7965 7964 7962 ] final -123.39 input  175.53 | X-H torsion
[ 8008 7997 7996 7995 ] final  -47.81 input   59.86 | X-H torsion
[ 10167 10162 10161 10158 ] final  132.87 input  -65.29 | X-H torsion
[ 10718 10713 10712 10709 ] final  -85.74 input   66.30 | X-H torsion
[ 10763 10752 10751 10750 ] final   28.38 input  -60.55 | X-H torsion
[ 11005 11000 10999 10996 ] final   29.93 input  -57.11 | X-H torsion

> <Gold.Protein.ActiveResidues>
 VAL166  LYS551  ARG553  GLY616  TRP617  ASP618  TYR619  PRO620  LYS621  CYS622 
 ASP623  PHE694  ASN695  SER759  ASP760  ASP761  ALA762  ILE779  LEU786  VAL792 
 PHE793  MET794  SER795  GLU796  ALA797  LYS798  CYS799  TRP800  GLU811  SER814 

> <Gold.Protein.RotatedAtoms>
  151.2460  133.4375  159.2609 H   0  0  0  0  0  0  0  0  0  0  0  0  # atno 6907 bound_to 6896
  151.0661  134.9769  159.8295 H   0  0  0  0  0  0  0  0  0  0  0  0  # atno 6908 bound_to 6896
  152.5405  134.2407  159.8914 H   0  0  0  0  0  0  0  0  0  0  0  0  # atno 6909 bound_to 6896
  145.0192  140.7973  143.4391 H   0  0  0  0  0  0  0  0  0  0  0  0  # atno 7974 bound_to 7965
  154.4021  140.1337  156.4236 H   0  0  0  0  0  0  0  0  0  0  0  0  # atno 8008 bound_to 7997
  155.7619  140.3486  155.5182 H   0  0  0  0  0  0  0  0  0  0  0  0  # atno 8009 bound_to 7997
  155.8851  140.0994  157.1449 H   0  0  0  0  0  0  0  0  0  0  0  0  # atno 8010 bound_to 7997
  139.5321  144.6642  151.4915 H   0  0  0  0  0  0  0  0  0  0  0  0  # atno 10167 bound_to 10162
  155.9994  130.4741  150.4609 H   0  0  0  0  0  0  0  0  0  0  0  0  # atno 10718 bound_to 10713
  153.0495  135.6514  154.0729 H   0  0  0  0  0  0  0  0  0  0  0  0  # atno 10763 bound_to 10752
  154.0420  135.2902  155.3355 H   0  0  0  0  0  0  0  0  0  0  0  0  # atno 10764 bound_to 10752
  154.6775  135.5332  153.8285 H   0  0  0  0  0  0  0  0  0  0  0  0  # atno 10765 bound_to 10752
  140.2998  134.2770  155.7756 H   0  0  0  0  0  0  0  0  0  0  0  0  # atno 11005 bound_to 11000
  145.1919  139.2297  143.5238 LP  0  0  0  0  0  0  0  0  0  0  0  0  # atno 17320 bound_to 7965
  146.3483  140.1716  142.8589 LP  0  0  0  0  0  0  0  0  0  0  0  0  # atno 17321 bound_to 7965
  140.6505  143.8706  150.6781 LP  0  0  0  0  0  0  0  0  0  0  0  0  # atno 17342 bound_to 10162
  140.2069  143.3914  152.1748 LP  0  0  0  0  0  0  0  0  0  0  0  0  # atno 17343 bound_to 10162
  157.2633  131.0571  151.2306 LP  0  0  0  0  0  0  0  0  0  0  0  0  # atno 17370 bound_to 10713
  157.3413  130.7035  149.6383 LP  0  0  0  0  0  0  0  0  0  0  0  0  # atno 17371 bound_to 10713
  141.2130  133.7638  156.9749 LP  0  0  0  0  0  0  0  0  0  0  0  0  # atno 17394 bound_to 11000
  140.1120  134.9471  157.2079 LP  0  0  0  0  0  0  0  0  0  0  0  0  # atno 17395 bound_to 11000

$$$$
