AV-unprocessed.smi:72|AV-procd|sdf|715|dock9
  -GOLD-   2262017 43D 1   1.00000     0.00000
 Structure written by MMmdl.
 28 29  0  0  0  0  0  0  0  0  2 V2000
  152.0944  140.6462  159.0614 N   0  0  0  0  0  0  0  0  0  0  0  0
  151.4702  140.7452  157.9708 C   0  0  0  0  0  0  0  0  0  0  0  0
  150.3640  141.6677  157.8473 N   0  0  0  0  0  0  0  0  0  0  0  0
  149.7109  141.6806  156.7262 C   0  0  0  0  0  0  0  0  0  0  0  0
  150.0324  140.7701  155.6303 N   0  0  0  0  0  0  0  0  0  0  0  0
  149.2741  140.8105  154.3077 C   0  0  2  0  0  0  0  0  0  0  0  0
  148.4844  141.9689  154.2495 O   0  0  0  0  0  0  0  0  0  0  0  0
  147.1000  141.6786  154.4399 C   0  0  2  0  0  0  0  0  0  0  0  0
  146.7281  141.7123  155.9406 C   0  0  0  0  0  0  0  0  0  0  0  0
  146.9907  142.9935  156.4723 O   0  0  0  0  0  0  0  0  0  0  0  0
  146.9885  140.3042  153.7731 C   0  0  2  0  0  0  0  0  0  0  0  0
  145.8681  139.5593  154.2090 O   0  0  0  0  0  0  0  0  0  0  0  0
  148.2987  139.6197  154.1386 C   0  0  1  0  0  0  0  0  0  0  0  0
  148.6860  138.7654  153.0809 O   0  0  0  0  0  0  0  0  0  0  0  0
  151.2011  139.9654  155.7430 C   0  0  0  0  0  0  0  0  0  0  0  0
  151.5595  139.3138  154.7626 O   0  0  0  0  0  0  0  0  0  0  0  0
  151.8852  139.9577  156.9210 N   0  5  0  0  0  0  0  0  0  0  0  0
  150.0559  140.8610  153.5481 H   0  0  0  0  0  0  0  0  0  0  0  0
  146.4892  142.4036  153.9003 H   0  0  0  0  0  0  0  0  0  0  0  0
  146.9249  140.4474  152.6928 H   0  0  0  0  0  0  0  0  0  0  0  0
  148.2018  139.0717  155.0774 H   0  0  0  0  0  0  0  0  0  0  0  0
  152.8459  139.9736  159.0136 H   0  0  0  0  0  0  0  0  0  0  0  0
  148.8869  142.3701  156.5438 H   0  0  0  0  0  0  0  0  0  0  0  0
  145.6605  141.5400  156.0744 H   0  0  0  0  0  0  0  0  0  0  0  0
  147.2405  140.9434  156.5167 H   0  0  0  0  0  0  0  0  0  0  0  0
  147.8219  143.2926  156.1367 H   0  0  0  0  0  0  0  0  0  0  0  0
  145.1087  139.8648  153.7362 H   0  0  0  0  0  0  0  0  0  0  0  0
  149.2912  139.2381  152.5287 H   0  0  0  0  0  0  0  0  0  0  0  0
  1  2  2  0  0  0  0
  1 22  1  0  0  0  0
  2 17  1  0  0  0  0
  2  3  1  0  0  0  0
  3  4  2  0  0  0  0
  4  5  1  0  0  0  0
  4 23  1  0  0  0  0
  5  6  1  0  0  0  0
  5 15  1  0  0  0  0
  6 18  1  0  0  0  0
  6 13  1  0  0  0  0
  6  7  1  0  0  0  0
  7  8  1  0  0  0  0
  8 19  1  0  0  0  0
  8  9  1  0  0  0  0
  8 11  1  0  0  0  0
  9 10  1  0  0  0  0
  9 24  1  0  0  0  0
  9 25  1  0  0  0  0
 10 26  1  0  0  0  0
 11 20  1  0  0  0  0
 11 12  1  0  0  0  0
 11 13  1  0  0  0  0
 12 27  1  0  0  0  0
 13 21  1  0  0  0  0
 13 14  1  0  0  0  0
 14 28  1  0  0  0  0
 15 16  2  0  0  0  0
 15 17  1  0  0  0  0
M  CHG  1  17  -1
M  END
> <s_m_source_file>
AV-unprocessed.smi

> <i_m_source_file_index>
72

> <i_lp_mmshare_version>
43012

> <i_f3d_flags>
0

> <s_epik_input>
W05IMl1jMW5bY0hdbihjKD1PKW4xKVtDQEBIXTJPW0NASF0oW0NIMl1bT0hdKVtDQEBIXShbT0hdKVtDQEhdMltPSF0=

> <s_epik_cmdline>
J2VwaWtfcHl0aG9uJywgJy1waCcsICc3LjAnLCAnLXRuJywgJzgnLCAnLW1hJywgJzIwMCcsICctbWV0YWxfYmluZGluZycsICctaW1hZScsICc8aW5maWxlLm1hZT4nLCAnLW9tYWUnLCAnPG91dGZpbGUubWFlPic=

> <r_lp_tautomer_probability>
7.17554e-07

> <r_epik_Ionization_Penalty>
12.8705

> <r_epik_Ionization_Penalty_Charging>
5.64144

> <r_epik_Ionization_Penalty_Neutral>
7.22905

> <r_epik_State_Penalty>
3.30104

> <r_epik_Charging_Adjusted_Penalty>
8.94249

> <i_epik_Tot_Q>
-1

> <i_epik_Tot_abs_Q>
1

> <r_epik_Metal_State_Penalty>
0.529074

> <b_epik_Metal_Only>
1

> <s_epik_Chemistry_Notes>
This compound contains an acetal/aminal-like group ( X-CH(R)-Y where X, Y are N, S, or O) that may be acid/base labile, releasing an aldehyde.

> <s_lp_Force_Field>
OPLS_2005

> <r_lp_Energy>
34.2271

> <b_lp_Chiralities_Consistent>
1

> <s_lp_Variant>
AV-unprocessed.smi:72-53

> <Gold.Version>
5.8.1

> <Gold.Id.Protein>
6NUR|6NUR_protein|mol2

> <Gold.PLP.Fitness>
38.3233

> <Gold.PLP.PLP>
-25.1926

> <Gold.PLP.part.hbond>
-5.9725

> <Gold.PLP.part.metal>
0.0000

> <Gold.PLP.part.buried>
-2.0637

> <Gold.PLP.part.nonpolar>
-18.0056

> <Gold.PLP.part.repulsive>
0.3988

> <Gold.PLP.ligand.clash>
0.0000

> <Gold.PLP.ligand.torsion>
0.4630

> <Gold.PLP.Chemscore.Hbond>
3.6880

> <Gold.PLP.Chemscore.CHOScore>
0.9656

> <Gold.PLP.Chemscore.Metal>
0.0000

> <Gold.Chemscore.Hbonds>
donor molecule, donor type, donor heavy atom, donor atom, acceptor molecule, acceptor atom, score
      L1  H    10    26       P1  8028  0.79
      L1  H    12    27       P1 10175  1.00
      L1  H    14    28       P1  7957  0.99
      P1  H  7989  7998       L1    16  0.85
      P1  H  8011  8017       L1     7  0.02
      L1  C     4    23       P1  8028  1.00

> <Gold.PLP.Chemscore.Internal.Correction>
0.0960

> <Gold.Rescore>
     Score         DG    S(hbond)    S(metal)    S(lipo)     H(rot)  DE(clash)    DE(int)     intcor
      4.28      -4.79       2.17        0.00      20.60       4.04       0.12       0.39       ----

> <Gold.Chemscore.Fitness>
4.2833

> <Gold.Chemscore.DG>
-4.7873

> <Gold.Chemscore.ZeroCoef>
-5.4800

> <Gold.Chemscore.Hbond>
2.1678

> <Gold.Chemscore.Metal>
0.0000

> <Gold.Chemscore.Lipo>
20.5975

> <Gold.Chemscore.Internal_Hbond>
0.0000

> <Gold.Chemscore.DEClash>
0.1154

> <Gold.Chemscore.DEInternal>
0.3886

> <Gold.Chemscore.Rot>
4.0403

> <Gold.Chemscore.Internal.Correction>
   9.000000E+99

> <Gold.Chemscore.Hbonds>
donor molecule, donor type, donor heavy atom, donor atom, acceptor molecule, acceptor atom, score
      L1  H    10    26       P1  8028  0.13
      L1  H    12    27       P1 10175  0.96
      L1  H    14    28       P1  7957  0.93
      P1  H  7989  7998       L1    16  0.14
      P1  H  7997  8009       L1    17  0.01

> <Gold.Chemscore.Hbond.Weighted>
-7.2405

> <Gold.Chemscore.Metal.Weighted>
-0.0000

> <Gold.Chemscore.Lipo.Weighted>
-2.4099

> <Gold.Chemscore.Internal_Hbond.Weighted>
0.0000

> <Gold.Chemscore.DEClash.Weighted>
0.1154

> <Gold.Chemscore.DEInternal.Weighted>
0.3886

> <Gold.Chemscore.Rot.Weighted>
10.3431

> <Gold.Chemscore.Internal.Correction.Weighted>
   9.000000E+99

> <Gold.Protein.RotatedTorsions>
[ 6907 6896 6895 6894 ] final    7.68 input  -60.11 | X-H torsion
[ 7974 7965 7964 7962 ] final -116.15 input  175.53 | X-H torsion
[ 8008 7997 7996 7995 ] final -163.41 input   59.86 | X-H torsion
[ 10167 10162 10161 10158 ] final -117.14 input  -65.29 | X-H torsion
[ 10718 10713 10712 10709 ] final -160.83 input   66.30 | X-H torsion
[ 10763 10752 10751 10750 ] final   11.29 input  -60.55 | X-H torsion
[ 11005 11000 10999 10996 ] final  104.41 input  -57.11 | X-H torsion

> <Gold.Protein.ActiveResidues>
 VAL166  LYS551  ARG553  GLY616  TRP617  ASP618  TYR619  PRO620  LYS621  CYS622 
 ASP623  PHE694  ASN695  SER759  ASP760  ASP761  ALA762  ILE779  LEU786  VAL792 
 PHE793  MET794  SER795  GLU796  ALA797  LYS798  CYS799  TRP800  GLU811  SER814 

> <Gold.Protein.RotatedAtoms>
  151.6938  135.0942  160.0238 H   0  0  0  0  0  0  0  0  0  0  0  0  # atno 6907 bound_to 6896
  152.3762  133.6480  159.6134 H   0  0  0  0  0  0  0  0  0  0  0  0  # atno 6908 bound_to 6896
  150.7711  133.9105  159.3409 H   0  0  0  0  0  0  0  0  0  0  0  0  # atno 6909 bound_to 6896
  145.1001  140.8546  143.3931 H   0  0  0  0  0  0  0  0  0  0  0  0  # atno 7974 bound_to 7965
  155.8209  140.0919  157.1849 H   0  0  0  0  0  0  0  0  0  0  0  0  # atno 8008 bound_to 7997
  154.3979  140.1437  156.3559 H   0  0  0  0  0  0  0  0  0  0  0  0  # atno 8009 bound_to 7997
  155.8267  140.3444  155.5549 H   0  0  0  0  0  0  0  0  0  0  0  0  # atno 8010 bound_to 7997
  140.0716  143.4872  152.1976 H   0  0  0  0  0  0  0  0  0  0  0  0  # atno 10167 bound_to 10162
  156.5877  130.8757  151.2881 H   0  0  0  0  0  0  0  0  0  0  0  0  # atno 10718 bound_to 10713
  153.1942  135.6847  153.8313 H   0  0  0  0  0  0  0  0  0  0  0  0  # atno 10763 bound_to 10752
  153.7602  135.3211  155.3337 H   0  0  0  0  0  0  0  0  0  0  0  0  # atno 10764 bound_to 10752
  154.8135  135.4701  154.0679 H   0  0  0  0  0  0  0  0  0  0  0  0  # atno 10765 bound_to 10752
  139.8792  134.9299  156.5358 H   0  0  0  0  0  0  0  0  0  0  0  0  # atno 11005 bound_to 11000
  145.0965  139.2853  143.5708 LP  0  0  0  0  0  0  0  0  0  0  0  0  # atno 17320 bound_to 7965
  146.3530  140.0518  142.8635 LP  0  0  0  0  0  0  0  0  0  0  0  0  # atno 17321 bound_to 7965
  139.5833  144.7520  151.3585 LP  0  0  0  0  0  0  0  0  0  0  0  0  # atno 17342 bound_to 10162
  140.7123  143.7359  150.7589 LP  0  0  0  0  0  0  0  0  0  0  0  0  # atno 17343 bound_to 10162
  157.7311  130.9695  150.1865 LP  0  0  0  0  0  0  0  0  0  0  0  0  # atno 17370 bound_to 10713
  156.2576  130.3707  149.8164 LP  0  0  0  0  0  0  0  0  0  0  0  0  # atno 17371 bound_to 10713
  140.8347  133.8251  155.9017 LP  0  0  0  0  0  0  0  0  0  0  0  0  # atno 17394 bound_to 11000
  140.9295  134.2040  157.4873 LP  0  0  0  0  0  0  0  0  0  0  0  0  # atno 17395 bound_to 11000

$$$$
