AV-unprocessed.smi:1046|AV-procd|sdf|4554|dock8
  -GOLD-   22720 2583D 1   1.00000     0.00000
 Structure written by MMmdl.
 54 56  0  0  0  0  0  0  0  0  3 V2000
  152.6609  143.4449  161.4613 C   0  0  0  0  0  0  0  0  0  0  0  0
  152.1531  142.9464  160.1197 C   0  0  0  0  0  0  0  0  0  0  0  0
  152.6572  141.7317  159.6023 C   0  0  0  0  0  0  0  0  0  0  0  0
  152.2115  141.2344  158.3583 C   0  0  0  0  0  0  0  0  0  0  0  0
  152.5621  140.0851  157.6706 N   0  0  0  0  0  0  0  0  0  0  0  0
  151.8085  140.1839  156.5796 C   0  0  0  0  0  0  0  0  0  0  0  0
  151.0041  141.2601  156.4821 N   0  0  0  0  0  0  0  0  0  0  0  0
  150.0959  141.5834  155.3966 C   0  0  0  0  0  0  0  0  0  0  0  0
  149.4197  140.3316  154.8055 C   0  0  2  0  0  0  0  0  0  0  0  0
  150.2927  139.7278  153.8701 O   0  0  0  0  0  0  0  0  0  0  0  0
  148.0960  140.6800  154.0965 C   0  0  0  0  0  0  0  0  0  0  0  0
  147.2914  139.4786  153.7535 N   0  3  2  0  0  0  0  0  0  0  0  0
  147.0219  139.3787  152.2977 C   0  0  0  0  0  0  0  0  0  0  0  0
  146.2740  138.0781  151.9545 C   0  0  0  0  0  0  0  0  0  0  0  0
  145.0165  137.9606  152.7357 N   0  3  1  0  0  0  0  0  0  0  0  0
  144.2110  136.7613  152.3889 C   0  0  0  0  0  0  0  0  0  0  0  0
  142.8464  136.7387  153.0991 C   0  0  0  0  0  0  0  0  0  0  0  0
  142.3059  135.4348  153.0644 O   0  0  0  0  0  0  0  0  0  0  0  0
  145.2864  138.0586  154.1913 C   0  0  0  0  0  0  0  0  0  0  0  0
  146.0337  139.3596  154.5350 C   0  0  0  0  0  0  0  0  0  0  0  0
  151.2405  141.9917  157.6405 C   0  0  0  0  0  0  0  0  0  0  0  0
  150.7321  143.2020  158.1438 C   0  0  0  0  0  0  0  0  0  0  0  0
  151.1871  143.6839  159.3891 C   0  0  0  0  0  0  0  0  0  0  0  0
  150.6321  144.9915  159.9251 C   0  0  0  0  0  0  0  0  0  0  0  0
  153.4028  142.7667  161.8840 H   0  0  0  0  0  0  0  0  0  0  0  0
  151.8398  143.5279  162.1737 H   0  0  0  0  0  0  0  0  0  0  0  0
  153.1268  144.4247  161.3532 H   0  0  0  0  0  0  0  0  0  0  0  0
  153.3936  141.1703  160.1585 H   0  0  0  0  0  0  0  0  0  0  0  0
  151.8392  139.4276  155.8087 H   0  0  0  0  0  0  0  0  0  0  0  0
  149.3435  142.2733  155.7809 H   0  0  0  0  0  0  0  0  0  0  0  0
  150.6484  142.1224  154.6253 H   0  0  0  0  0  0  0  0  0  0  0  0
  149.2431  139.6214  155.6124 H   0  0  0  0  0  0  0  0  0  0  0  0
  149.8558  139.6910  153.0317 H   0  0  0  0  0  0  0  0  0  0  0  0
  147.4962  141.3511  154.7134 H   0  0  0  0  0  0  0  0  0  0  0  0
  148.3308  141.2337  153.1857 H   0  0  0  0  0  0  0  0  0  0  0  0
  146.4387  140.2429  151.9754 H   0  0  0  0  0  0  0  0  0  0  0  0
  147.9624  139.4073  151.7461 H   0  0  0  0  0  0  0  0  0  0  0  0
  146.0603  138.0638  150.8863 H   0  0  0  0  0  0  0  0  0  0  0  0
  146.9123  137.2171  152.1600 H   0  0  0  0  0  0  0  0  0  0  0  0
  144.0768  136.7127  151.3073 H   0  0  0  0  0  0  0  0  0  0  0  0
  144.7553  135.8577  152.6680 H   0  0  0  0  0  0  0  0  0  0  0  0
  142.9112  137.0833  154.1305 H   0  0  0  0  0  0  0  0  0  0  0  0
  142.1547  137.4083  152.5873 H   0  0  0  0  0  0  0  0  0  0  0  0
  142.5816  134.9725  153.8424 H   0  0  0  0  0  0  0  0  0  0  0  0
  144.3460  138.0281  154.7431 H   0  0  0  0  0  0  0  0  0  0  0  0
  145.8711  137.1945  154.5120 H   0  0  0  0  0  0  0  0  0  0  0  0
  146.2450  139.3708  155.6035 H   0  0  0  0  0  0  0  0  0  0  0  0
  145.3952  140.2208  154.3313 H   0  0  0  0  0  0  0  0  0  0  0  0
  149.9987  143.7554  157.5765 H   0  0  0  0  0  0  0  0  0  0  0  0
  149.8798  145.4095  159.2555 H   0  0  0  0  0  0  0  0  0  0  0  0
  151.4294  145.7271  160.0335 H   0  0  0  0  0  0  0  0  0  0  0  0
  150.1653  144.8399  160.8986 H   0  0  0  0  0  0  0  0  0  0  0  0
  147.8672  138.6827  153.9912 H   0  0  0  0  0  0  0  0  0  0  0  0
  144.4420  138.7578  152.4996 H   0  0  0  0  0  0  0  0  0  0  0  0
  1  2  1  0  0  0  0
  1 25  1  0  0  0  0
  1 26  1  0  0  0  0
  1 27  1  0  0  0  0
  2 23  1  0  0  0  0
  2  3  2  0  0  0  0
  3  4  1  0  0  0  0
  3 28  1  0  0  0  0
  4 21  2  0  0  0  0
  4  5  1  0  0  0  0
  5  6  2  0  0  0  0
  6  7  1  0  0  0  0
  6 29  1  0  0  0  0
  7  8  1  0  0  0  0
  7 21  1  0  0  0  0
  8  9  1  0  0  0  0
  8 30  1  0  0  0  0
  8 31  1  0  0  0  0
  9 10  1  0  0  0  0
  9 11  1  0  0  0  0
  9 32  1  0  0  0  0
 10 33  1  0  0  0  0
 11 12  1  0  0  0  0
 11 34  1  0  0  0  0
 11 35  1  0  0  0  0
 12 20  1  0  0  0  0
 12 13  1  0  0  0  0
 12 53  1  0  0  0  0
 13 14  1  0  0  0  0
 13 36  1  0  0  0  0
 13 37  1  0  0  0  0
 14 15  1  0  0  0  0
 14 38  1  0  0  0  0
 14 39  1  0  0  0  0
 15 16  1  0  0  0  0
 15 19  1  0  0  0  0
 15 54  1  0  0  0  0
 16 17  1  0  0  0  0
 16 40  1  0  0  0  0
 16 41  1  0  0  0  0
 17 18  1  0  0  0  0
 17 42  1  0  0  0  0
 17 43  1  0  0  0  0
 18 44  1  0  0  0  0
 19 20  1  0  0  0  0
 19 45  1  0  0  0  0
 19 46  1  0  0  0  0
 20 47  1  0  0  0  0
 20 48  1  0  0  0  0
 21 22  1  0  0  0  0
 22 23  2  0  0  0  0
 22 49  1  0  0  0  0
 23 24  1  0  0  0  0
 24 50  1  0  0  0  0
 24 51  1  0  0  0  0
 24 52  1  0  0  0  0
M  CHG  1  12   1
M  CHG  1  15   1
M  END
> <s_m_source_file>
AV-unprocessed.smi

> <i_m_source_file_index>
1046

> <i_lp_mmshare_version>
43012

> <i_f3d_flags>
0

> <s_epik_input>
W0NIM11jKFtjSF0xKWMoW0NIM10pW2NIXWMoYzEyKW4oW2NIXW4yKVtDSDJdW0NASF0oW09IXSlbQ0gyXU4zW0NIMl1bQ0gyXU4oW0NIMl1bQ0gyXTMpW0NIMl1bQ0gyXVtPSF0=

> <s_epik_cmdline>
J2VwaWtfcHl0aG9uJywgJy1waCcsICc3LjAnLCAnLXRuJywgJzgnLCAnLW1hJywgJzIwMCcsICctbWV0YWxfYmluZGluZycsICctaW1hZScsICc8aW5maWxlLm1hZT4nLCAnLW9tYWUnLCAnPG91dGZpbGUubWFlPic=

> <r_epik_Ionization_Penalty>
3.17398

> <r_epik_Ionization_Penalty_Charging>
3.09061

> <r_epik_Ionization_Penalty_Neutral>
0.0833726

> <r_epik_State_Penalty>
2.17606

> <r_epik_Charging_Adjusted_Penalty>
5.26667

> <i_epik_Tot_Q>
2

> <i_epik_Tot_abs_Q>
2

> <r_epik_Metal_State_Penalty>
2.08587

> <b_epik_Metal_Only>
0

> <s_lp_Force_Field>
OPLS_2005

> <r_lp_Energy>
27.9633

> <b_lp_Chiralities_Consistent>
1

> <s_lp_Variant>
AV-unprocessed.smi:1046-7

> <Gold.Version>
5.8.1

> <Gold.Id.Protein>
6NUR|6NUR_protein|mol2

> <Gold.PLP.Fitness>
60.7318

> <Gold.PLP.PLP>
-48.4852

> <Gold.PLP.part.hbond>
-4.3302

> <Gold.PLP.part.metal>
0.0000

> <Gold.PLP.part.buried>
-3.0261

> <Gold.PLP.part.nonpolar>
-40.5265

> <Gold.PLP.part.repulsive>
0.0000

> <Gold.PLP.ligand.clash>
0.0000

> <Gold.PLP.ligand.torsion>
1.4437

> <Gold.PLP.Chemscore.Hbond>
4.9600

> <Gold.PLP.Chemscore.CHOScore>
0.0000

> <Gold.PLP.Chemscore.Metal>
0.0000

> <Gold.Chemscore.Hbonds>
donor molecule, donor type, donor heavy atom, donor atom, acceptor molecule, acceptor atom, score
      L1  H    10    33       P1  7957  1.00
      L1  H    15    54       P1 10175  2.00
      P1  H  7989  7998       L1    10  0.94
      P1  H  7997  8009       L1     5  0.77

> <Gold.PLP.Chemscore.Internal.Correction>
0.2540

> <Gold.Rescore>
     Score         DG    S(hbond)    S(metal)    S(lipo)     H(rot)  DE(clash)    DE(int)     intcor
     20.39     -22.00       3.14        0.00     123.32       3.28       0.12       1.49       ----

> <Gold.Chemscore.Fitness>
20.3906

> <Gold.Chemscore.DG>
-21.9988

> <Gold.Chemscore.ZeroCoef>
-5.4800

> <Gold.Chemscore.Hbond>
3.1418

> <Gold.Chemscore.Metal>
0.0000

> <Gold.Chemscore.Lipo>
123.3247

> <Gold.Chemscore.Internal_Hbond>
0.0000

> <Gold.Chemscore.DEClash>
0.1220

> <Gold.Chemscore.DEInternal>
1.4862

> <Gold.Chemscore.Rot>
3.2828

> <Gold.Chemscore.Internal.Correction>
   9.000000E+99

> <Gold.Chemscore.Hbonds>
donor molecule, donor type, donor heavy atom, donor atom, acceptor molecule, acceptor atom, score
      L1  H    10    33       P1  7957  0.98
      L1  H    15    54       P1 10175  1.00
      P1  H  7989  7998       L1    10  0.15
      P1  H  7997  8009       L1     5  0.12

> <Gold.Chemscore.Hbond.Weighted>
-10.4938

> <Gold.Chemscore.Metal.Weighted>
-0.0000

> <Gold.Chemscore.Lipo.Weighted>
-14.4290

> <Gold.Chemscore.Internal_Hbond.Weighted>
0.0000

> <Gold.Chemscore.DEClash.Weighted>
0.1220

> <Gold.Chemscore.DEInternal.Weighted>
1.4862

> <Gold.Chemscore.Rot.Weighted>
8.4039

> <Gold.Chemscore.Internal.Correction.Weighted>
   9.000000E+99

> <Gold.Protein.RotatedTorsions>
[ 6907 6896 6895 6894 ] final  -50.72 input  -60.11 | X-H torsion
[ 7974 7965 7964 7962 ] final -165.60 input  175.53 | X-H torsion
[ 8008 7997 7996 7995 ] final  176.52 input   59.86 | X-H torsion
[ 10167 10162 10161 10158 ] final   15.83 input  -65.29 | X-H torsion
[ 10718 10713 10712 10709 ] final  -56.60 input   66.30 | X-H torsion
[ 10763 10752 10751 10750 ] final  109.61 input  -60.55 | X-H torsion
[ 11005 11000 10999 10996 ] final  165.59 input  -57.11 | X-H torsion

> <Gold.Protein.ActiveResidues>
 VAL166  LYS551  ARG553  GLY616  TRP617  ASP618  TYR619  PRO620  LYS621  CYS622 
 ASP623  PHE694  ASN695  SER759  ASP760  ASP761  ALA762  ILE779  LEU786  VAL792 
 PHE793  MET794  SER795  GLU796  ALA797  LYS798  CYS799  TRP800  GLU811  SER814 

> <Gold.Protein.RotatedAtoms>
  150.8680  134.8047  159.7132 H   0  0  0  0  0  0  0  0  0  0  0  0  # atno 6907 bound_to 6896
  152.4694  134.4993  159.9729 H   0  0  0  0  0  0  0  0  0  0  0  0  # atno 6908 bound_to 6896
  151.5086  133.3451  159.2916 H   0  0  0  0  0  0  0  0  0  0  0  0  # atno 6909 bound_to 6896
  144.7266  140.2790  143.6239 H   0  0  0  0  0  0  0  0  0  0  0  0  # atno 7974 bound_to 7965
  156.0756  140.1381  156.9776 H   0  0  0  0  0  0  0  0  0  0  0  0  # atno 8008 bound_to 7997
  154.4556  140.0963  156.6797 H   0  0  0  0  0  0  0  0  0  0  0  0  # atno 8009 bound_to 7997
  155.5159  140.3455  155.4399 H   0  0  0  0  0  0  0  0  0  0  0  0  # atno 8010 bound_to 7997
  140.5840  143.8926  150.6814 H   0  0  0  0  0  0  0  0  0  0  0  0  # atno 10167 bound_to 10162
  156.1276  130.4161  150.0327 H   0  0  0  0  0  0  0  0  0  0  0  0  # atno 10718 bound_to 10713
  153.4372  135.3774  155.2206 H   0  0  0  0  0  0  0  0  0  0  0  0  # atno 10763 bound_to 10752
  154.8752  135.3854  154.4196 H   0  0  0  0  0  0  0  0  0  0  0  0  # atno 10764 bound_to 10752
  153.4737  135.7087  153.6042 H   0  0  0  0  0  0  0  0  0  0  0  0  # atno 10765 bound_to 10752
  140.2577  134.7927  157.3561 H   0  0  0  0  0  0  0  0  0  0  0  0  # atno 11005 bound_to 11000
  145.7968  139.1948  143.2071 LP  0  0  0  0  0  0  0  0  0  0  0  0  # atno 17320 bound_to 7965
  146.0710  140.7869  142.9688 LP  0  0  0  0  0  0  0  0  0  0  0  0  # atno 17321 bound_to 7965
  140.2433  143.3648  152.1468 LP  0  0  0  0  0  0  0  0  0  0  0  0  # atno 17342 bound_to 10162
  139.5186  144.7008  151.5498 LP  0  0  0  0  0  0  0  0  0  0  0  0  # atno 17343 bound_to 10162
  156.8248  130.9371  151.3640 LP  0  0  0  0  0  0  0  0  0  0  0  0  # atno 17370 bound_to 10713
  157.6456  130.8842  149.9532 LP  0  0  0  0  0  0  0  0  0  0  0  0  # atno 17371 bound_to 10713
  140.1495  134.4868  155.7972 LP  0  0  0  0  0  0  0  0  0  0  0  0  # atno 17394 bound_to 11000
  141.2194  133.6857  156.7353 LP  0  0  0  0  0  0  0  0  0  0  0  0  # atno 17395 bound_to 11000

$$$$
