AV-unprocessed.smi:21|AV-procd|sdf|163|dock9
  -GOLD-   2262015403D 1   1.00000     0.00000
 Structure written by MMmdl.
 61 64  0  0  0  0  0  0  0  0  1 V2000
  153.0659  143.2082  162.8711 C   0  0  0  0  0  0  0  0  0  0  0  0
  152.3614  142.4037  161.9388 O   0  0  0  0  0  0  0  0  0  0  0  0
  152.9479  142.3915  160.6448 C   0  0  1  0  0  0  0  0  0  0  0  0
  152.3176  141.2875  159.7809 C   0  0  0  0  0  0  0  0  0  0  0  0
  151.6519  142.0372  158.6156 C   0  0  2  0  0  0  0  0  0  0  0  0
  151.5553  141.2050  157.3187 C   0  0  0  0  0  0  0  0  0  0  0  0
  151.2438  139.7964  157.5790 N   0  0  0  0  0  0  0  0  0  0  0  0
  152.3143  138.8235  157.3982 C   0  0  0  0  0  0  0  0  0  0  0  0
  149.9533  139.3774  157.7337 C   0  0  0  0  0  0  0  0  0  0  0  0
  148.9728  140.0519  157.0746 N   0  0  0  0  0  0  0  0  0  0  0  0
  147.6923  139.6919  157.1843 C   0  0  0  0  0  0  0  0  0  0  0  0
  147.1664  138.6965  157.8965 N   0  0  0  0  0  0  0  0  0  0  0  0
  148.1332  138.0101  158.5678 C   0  0  0  0  0  0  0  0  0  0  0  0
  149.5350  138.2759  158.5460 C   0  0  0  0  0  0  0  0  0  0  0  0
  150.1867  137.3477  159.3542 N   0  0  0  0  0  0  0  0  0  0  0  0
  149.2349  136.5895  159.8230 C   0  0  0  0  0  0  0  0  0  0  0  0
  147.9695  136.9142  159.3971 N   0  0  0  0  0  0  0  0  0  0  0  0
  146.7341  136.2420  159.7625 C   0  0  0  0  0  0  0  0  0  0  0  0
  146.3004  136.5022  161.2274 C   0  0  2  0  0  0  0  0  0  0  0  0
  147.3170  135.8957  162.2291 C   0  0  0  0  0  0  0  0  0  0  0  0
  148.2542  136.8553  162.6708 O   0  0  0  0  0  0  0  0  0  0  0  0
  144.8567  135.9759  161.4592 C   0  0  1  0  0  0  0  0  0  0  0  0
  144.2755  136.2219  162.8413 C   0  0  0  0  0  0  0  0  0  0  0  0
  142.7816  136.0367  162.6054 C   0  0  0  0  0  0  0  0  0  0  0  0
  142.5467  136.5013  161.2823 O   0  0  0  0  0  0  0  0  0  0  0  0
  143.7838  136.6476  160.5921 C   0  0  0  0  0  0  0  0  0  0  0  0
  152.4159  143.2683  158.4905 N   0  0  0  0  0  0  0  0  0  0  0  0
  151.7444  144.3029  157.7148 C   0  0  0  0  0  0  0  0  0  0  0  0
  152.6414  143.6762  159.8629 C   0  0  0  0  0  0  0  0  0  0  0  0
  154.0246  142.2230  160.7090 H   0  0  0  0  0  0  0  0  0  0  0  0
  150.6406  142.2991  158.9329 H   0  0  0  0  0  0  0  0  0  0  0  0
  152.5693  143.1619  163.8402 H   0  0  0  0  0  0  0  0  0  0  0  0
  153.0935  144.2530  162.5605 H   0  0  0  0  0  0  0  0  0  0  0  0
  154.0895  142.8550  163.0024 H   0  0  0  0  0  0  0  0  0  0  0  0
  153.1031  140.6245  159.4169 H   0  0  0  0  0  0  0  0  0  0  0  0
  151.6000  140.6769  160.3304 H   0  0  0  0  0  0  0  0  0  0  0  0
  150.7523  141.5953  156.6941 H   0  0  0  0  0  0  0  0  0  0  0  0
  152.4578  141.3318  156.7213 H   0  0  0  0  0  0  0  0  0  0  0  0
  152.3095  138.0866  158.2017 H   0  0  0  0  0  0  0  0  0  0  0  0
  153.2894  139.3111  157.4068 H   0  0  0  0  0  0  0  0  0  0  0  0
  152.2099  138.3095  156.4423 H   0  0  0  0  0  0  0  0  0  0  0  0
  146.9897  140.2872  156.6203 H   0  0  0  0  0  0  0  0  0  0  0  0
  149.4308  135.7652  160.4934 H   0  0  0  0  0  0  0  0  0  0  0  0
  145.9693  136.5828  159.0648 H   0  0  0  0  0  0  0  0  0  0  0  0
  146.8509  135.1716  159.5895 H   0  0  0  0  0  0  0  0  0  0  0  0
  146.2954  137.5839  161.3714 H   0  0  0  0  0  0  0  0  0  0  0  0
  146.8037  135.4607  163.0873 H   0  0  0  0  0  0  0  0  0  0  0  0
  147.9004  135.0955  161.7761 H   0  0  0  0  0  0  0  0  0  0  0  0
  148.5402  136.6185  163.5401 H   0  0  0  0  0  0  0  0  0  0  0  0
  144.8313  134.9021  161.2655 H   0  0  0  0  0  0  0  0  0  0  0  0
  144.6580  135.5384  163.5993 H   0  0  0  0  0  0  0  0  0  0  0  0
  144.4788  137.2436  163.1652 H   0  0  0  0  0  0  0  0  0  0  0  0
  142.5170  134.9799  162.6552 H   0  0  0  0  0  0  0  0  0  0  0  0
  142.1730  136.5740  163.3329 H   0  0  0  0  0  0  0  0  0  0  0  0
  143.9867  137.7139  160.4824 H   0  0  0  0  0  0  0  0  0  0  0  0
  143.7220  136.2122  159.5945 H   0  0  0  0  0  0  0  0  0  0  0  0
  152.3344  145.2200  157.7086 H   0  0  0  0  0  0  0  0  0  0  0  0
  150.7626  144.5351  158.1293 H   0  0  0  0  0  0  0  0  0  0  0  0
  151.6118  143.9924  156.6787 H   0  0  0  0  0  0  0  0  0  0  0  0
  151.7356  144.1351  160.2636 H   0  0  0  0  0  0  0  0  0  0  0  0
  153.4445  144.4102  159.9376 H   0  0  0  0  0  0  0  0  0  0  0  0
  1  2  1  0  0  0  0
  1 32  1  0  0  0  0
  1 33  1  0  0  0  0
  1 34  1  0  0  0  0
  2  3  1  0  0  0  0
  3 30  1  0  0  0  0
  3 29  1  0  0  0  0
  3  4  1  0  0  0  0
  4  5  1  0  0  0  0
  4 35  1  0  0  0  0
  4 36  1  0  0  0  0
  5 31  1  0  0  0  0
  5  6  1  0  0  0  0
  5 27  1  0  0  0  0
  6  7  1  0  0  0  0
  6 37  1  0  0  0  0
  6 38  1  0  0  0  0
  7  8  1  0  0  0  0
  7  9  1  0  0  0  0
  8 39  1  0  0  0  0
  8 40  1  0  0  0  0
  8 41  1  0  0  0  0
  9 14  1  0  0  0  0
  9 10  2  0  0  0  0
 10 11  1  0  0  0  0
 11 12  2  0  0  0  0
 11 42  1  0  0  0  0
 12 13  1  0  0  0  0
 13 17  1  0  0  0  0
 13 14  2  0  0  0  0
 14 15  1  0  0  0  0
 15 16  2  0  0  0  0
 16 17  1  0  0  0  0
 16 43  1  0  0  0  0
 17 18  1  0  0  0  0
 18 19  1  0  0  0  0
 18 44  1  0  0  0  0
 18 45  1  0  0  0  0
 19 20  1  0  0  0  0
 19 22  1  0  0  0  0
 19 46  1  0  0  0  0
 20 21  1  0  0  0  0
 20 47  1  0  0  0  0
 20 48  1  0  0  0  0
 21 49  1  0  0  0  0
 22 26  1  0  0  0  0
 22 23  1  0  0  0  0
 22 50  1  0  0  0  0
 23 24  1  0  0  0  0
 23 51  1  0  0  0  0
 23 52  1  0  0  0  0
 24 25  1  0  0  0  0
 24 53  1  0  0  0  0
 24 54  1  0  0  0  0
 25 26  1  0  0  0  0
 26 55  1  0  0  0  0
 26 56  1  0  0  0  0
 27 28  1  0  0  0  0
 27 29  1  0  0  0  0
 28 57  1  0  0  0  0
 28 58  1  0  0  0  0
 28 59  1  0  0  0  0
 29 60  1  0  0  0  0
 29 61  1  0  0  0  0
M  END
> <s_m_source_file>
AV-unprocessed.smi

> <i_m_source_file_index>
21

> <i_lp_mmshare_version>
43012

> <i_f3d_flags>
0

> <s_epik_input>
W0NIM11PW0NASF0xW0NIMl1bQ0BIXShOKFtDSDNdKVtDSDJdMSlbQ0gyXU4oW0NIM10pYyhuW2NIXW4yKWMoYzIzKW5bY0hdbjNbQ0gyXVtDQEhdKFtDSDJdW09IXSlbQ0BASF00W0NIMl1bQ0gyXU9bQ0gyXTQ=

> <s_epik_cmdline>
J2VwaWtfcHl0aG9uJywgJy1waCcsICc3LjAnLCAnLXRuJywgJzgnLCAnLW1hJywgJzIwMCcsICctbWV0YWxfYmluZGluZycsICctaW1hZScsICc8aW5maWxlLm1hZT4nLCAnLW9tYWUnLCAnPG91dGZpbGUubWFlPic=

> <r_lp_tautomer_probability>
1

> <r_epik_Ionization_Penalty>
2.17574

> <r_epik_Ionization_Penalty_Charging>
0

> <r_epik_Ionization_Penalty_Neutral>
2.17574

> <r_epik_State_Penalty>
2.31336

> <r_epik_Charging_Adjusted_Penalty>
2.31336

> <i_epik_Tot_Q>
0

> <i_epik_Tot_abs_Q>
0

> <r_epik_Metal_State_Penalty>
2.31025

> <b_epik_Metal_Only>
0

> <s_lp_Force_Field>
OPLS_2005

> <r_lp_Energy>
69.6605

> <b_lp_Chiralities_Consistent>
1

> <s_lp_Variant>
AV-unprocessed.smi:21-43

> <Gold.Version>
5.8.1

> <Gold.Id.Protein>
6NUR|6NUR_protein|mol2

> <Gold.PLP.Fitness>
46.8831

> <Gold.PLP.PLP>
-46.0080

> <Gold.PLP.part.hbond>
-2.1620

> <Gold.PLP.part.metal>
0.0000

> <Gold.PLP.part.buried>
-7.2904

> <Gold.PLP.part.nonpolar>
-37.2832

> <Gold.PLP.part.repulsive>
0.1355

> <Gold.PLP.ligand.clash>
0.0000

> <Gold.PLP.ligand.torsion>
1.7985

> <Gold.PLP.Chemscore.Hbond>
1.2695

> <Gold.PLP.Chemscore.CHOScore>
0.0000

> <Gold.PLP.Chemscore.Metal>
0.0000

> <Gold.Chemscore.Hbonds>
donor molecule, donor type, donor heavy atom, donor atom, acceptor molecule, acceptor atom, score
      P1  H  6931  6943       L1    21  0.99
      P1  H  6933  6945       L1     2  0.03

> <Gold.PLP.Chemscore.Internal.Correction>
0.6636

> <Gold.Rescore>
     Score         DG    S(hbond)    S(metal)    S(lipo)     H(rot)  DE(clash)    DE(int)     intcor
     14.08     -16.45       1.66        0.00     112.16       3.00       0.45       1.92       ----

> <Gold.Chemscore.Fitness>
14.0804

> <Gold.Chemscore.DG>
-16.4520

> <Gold.Chemscore.ZeroCoef>
-5.4800

> <Gold.Chemscore.Hbond>
1.6579

> <Gold.Chemscore.Metal>
0.0000

> <Gold.Chemscore.Lipo>
112.1593

> <Gold.Chemscore.Internal_Hbond>
0.0000

> <Gold.Chemscore.DEClash>
0.4521

> <Gold.Chemscore.DEInternal>
1.9194

> <Gold.Chemscore.Rot>
3.0031

> <Gold.Chemscore.Internal.Correction>
   9.000000E+99

> <Gold.Chemscore.Hbonds>
donor molecule, donor type, donor heavy atom, donor atom, acceptor molecule, acceptor atom, score
      P1  H  6931  6943       L1    21  0.88
      P1  H  6933  6945       L1     2  0.08

> <Gold.Chemscore.Hbond.Weighted>
-5.5373

> <Gold.Chemscore.Metal.Weighted>
-0.0000

> <Gold.Chemscore.Lipo.Weighted>
-13.1226

> <Gold.Chemscore.Internal_Hbond.Weighted>
0.0000

> <Gold.Chemscore.DEClash.Weighted>
0.4521

> <Gold.Chemscore.DEInternal.Weighted>
1.9194

> <Gold.Chemscore.Rot.Weighted>
7.6880

> <Gold.Chemscore.Internal.Correction.Weighted>
   9.000000E+99

> <Gold.Protein.RotatedTorsions>
[ 6907 6896 6895 6894 ] final   10.25 input  -60.11 | X-H torsion
[ 7974 7965 7964 7962 ] final -144.93 input  175.53 | X-H torsion
[ 8008 7997 7996 7995 ] final  173.16 input   59.86 | X-H torsion
[ 10167 10162 10161 10158 ] final  158.86 input  -65.29 | X-H torsion
[ 10718 10713 10712 10709 ] final  100.95 input   66.30 | X-H torsion
[ 10763 10752 10751 10750 ] final   90.48 input  -60.55 | X-H torsion
[ 11005 11000 10999 10996 ] final  120.51 input  -57.11 | X-H torsion

> <Gold.Protein.ActiveResidues>
 VAL166  LYS551  ARG553  GLY616  TRP617  ASP618  TYR619  PRO620  LYS621  CYS622 
 ASP623  PHE694  ASN695  SER759  ASP760  ASP761  ALA762  ILE779  LEU786  VAL792 
 PHE793  MET794  SER795  GLU796  ALA797  LYS798  CYS799  TRP800  GLU811  SER814 

> <Gold.Protein.RotatedAtoms>
  151.7353  135.0866  160.0306 H   0  0  0  0  0  0  0  0  0  0  0  0  # atno 6907 bound_to 6896
  152.3515  133.6180  159.5956 H   0  0  0  0  0  0  0  0  0  0  0  0  # atno 6908 bound_to 6896
  150.7543  133.9483  159.3519 H   0  0  0  0  0  0  0  0  0  0  0  0  # atno 6909 bound_to 6896
  144.8263  140.5648  143.5545 H   0  0  0  0  0  0  0  0  0  0  0  0  # atno 7974 bound_to 7965
  156.1103  140.1467  156.9348 H   0  0  0  0  0  0  0  0  0  0  0  0  # atno 8008 bound_to 7997
  154.4762  140.0894  156.7311 H   0  0  0  0  0  0  0  0  0  0  0  0  # atno 8009 bound_to 7997
  155.4608  140.3438  155.4315 H   0  0  0  0  0  0  0  0  0  0  0  0  # atno 8010 bound_to 7997
  139.4829  144.4785  151.8478 H   0  0  0  0  0  0  0  0  0  0  0  0  # atno 10167 bound_to 10162
  157.6841  131.0713  150.5179 H   0  0  0  0  0  0  0  0  0  0  0  0  # atno 10718 bound_to 10713
  153.1981  135.4432  155.0232 H   0  0  0  0  0  0  0  0  0  0  0  0  # atno 10763 bound_to 10752
  154.8130  135.3303  154.7255 H   0  0  0  0  0  0  0  0  0  0  0  0  # atno 10764 bound_to 10752
  153.7702  135.6985  153.4963 H   0  0  0  0  0  0  0  0  0  0  0  0  # atno 10765 bound_to 10752
  139.9188  134.9635  156.7817 H   0  0  0  0  0  0  0  0  0  0  0  0  # atno 11005 bound_to 11000
  145.4993  139.1484  143.3666 LP  0  0  0  0  0  0  0  0  0  0  0  0  # atno 17320 bound_to 7965
  146.2568  140.5133  142.8870 LP  0  0  0  0  0  0  0  0  0  0  0  0  # atno 17321 bound_to 7965
  140.4259  144.2181  150.5887 LP  0  0  0  0  0  0  0  0  0  0  0  0  # atno 17342 bound_to 10162
  140.4828  143.2373  151.8931 LP  0  0  0  0  0  0  0  0  0  0  0  0  # atno 17343 bound_to 10162
  156.5493  130.4227  149.6115 LP  0  0  0  0  0  0  0  0  0  0  0  0  # atno 17370 bound_to 10713
  156.2916  130.7127  151.1978 LP  0  0  0  0  0  0  0  0  0  0  0  0  # atno 17371 bound_to 10713
  140.6538  133.9707  155.7769 LP  0  0  0  0  0  0  0  0  0  0  0  0  # atno 17394 bound_to 11000
  141.0690  134.0234  157.3553 LP  0  0  0  0  0  0  0  0  0  0  0  0  # atno 17395 bound_to 11000

$$$$
