AV-unprocessed.smi:2542|AV-procd|sdf|9991|dock1
  -GOLD-   2272014 43D 1   1.00000     0.00000
 Structure written by MMmdl.
 41 42  0  0  0  0  0  0  0  0  1 V2000
  144.2242  137.1965  152.0815 C   0  0  0  0  0  0  0  0  0  0  0  0
  145.5714  136.5153  151.7620 C   0  0  0  0  0  0  0  0  0  0  0  0
  146.2335  137.3235  150.6198 C   0  0  0  0  0  0  0  0  0  0  0  0
  146.4862  136.5981  153.0112 C   0  0  0  0  0  0  0  0  0  0  0  0
  147.0741  137.9244  153.1680 N   0  0  0  0  0  0  0  0  0  0  0  0
  147.7161  138.3642  154.2606 C   0  0  0  0  0  0  0  0  0  0  0  0
  147.8554  137.6678  155.2673 O   0  0  0  0  0  0  0  0  0  0  0  0
  148.2889  139.8016  154.2219 C   0  0  0  0  0  0  0  0  0  0  0  0
  149.7652  139.8011  154.2830 C   0  0  0  0  0  0  0  0  0  0  0  0
  150.9219  139.8010  154.3318 N   0  0  0  0  0  0  0  0  0  0  0  0
  147.7976  140.5453  152.9509 C   0  0  0  0  0  0  0  0  0  0  0  0
  146.9545  141.7404  153.4131 C   0  0  0  0  0  0  0  0  0  0  0  0
  146.5226  141.3979  154.8338 C   0  0  0  0  0  0  0  0  0  0  0  0
  147.7206  140.6340  155.3952 C   0  0  0  0  0  0  0  0  0  0  0  0
  145.3257  135.0427  151.3779 C   0  0  0  0  0  0  0  0  0  0  0  0
  146.3780  134.1150  151.1784 C   0  0  0  0  0  0  0  0  0  0  0  0
  146.0619  132.7821  150.8486 C   0  0  0  0  0  0  0  0  0  0  0  0
  144.7991  132.3298  150.7079 N   0  0  0  0  0  0  0  0  0  0  0  0
  143.7948  133.2095  150.8972 C   0  0  0  0  0  0  0  0  0  0  0  0
  144.0032  134.5621  151.2310 C   0  0  0  0  0  0  0  0  0  0  0  0
  144.3623  138.2477  152.3371 H   0  0  0  0  0  0  0  0  0  0  0  0
  143.7170  136.7279  152.9249 H   0  0  0  0  0  0  0  0  0  0  0  0
  143.5478  137.1531  151.2271 H   0  0  0  0  0  0  0  0  0  0  0  0
  146.3922  138.3619  150.9129 H   0  0  0  0  0  0  0  0  0  0  0  0
  145.6109  137.3377  149.7244 H   0  0  0  0  0  0  0  0  0  0  0  0
  147.2086  136.9207  150.3433 H   0  0  0  0  0  0  0  0  0  0  0  0
  145.9244  136.3301  153.9078 H   0  0  0  0  0  0  0  0  0  0  0  0
  147.3027  135.8785  152.9356 H   0  0  0  0  0  0  0  0  0  0  0  0
  146.9987  138.5490  152.3774 H   0  0  0  0  0  0  0  0  0  0  0  0
  148.6298  140.8850  152.3333 H   0  0  0  0  0  0  0  0  0  0  0  0
  147.1916  139.9015  152.3108 H   0  0  0  0  0  0  0  0  0  0  0  0
  147.5739  142.6382  153.4296 H   0  0  0  0  0  0  0  0  0  0  0  0
  146.1081  141.9358  152.7542 H   0  0  0  0  0  0  0  0  0  0  0  0
  146.2740  142.2815  155.4222 H   0  0  0  0  0  0  0  0  0  0  0  0
  145.6429  140.7536  154.8109 H   0  0  0  0  0  0  0  0  0  0  0  0
  147.4446  140.0312  156.2618 H   0  0  0  0  0  0  0  0  0  0  0  0
  148.4684  141.3500  155.7398 H   0  0  0  0  0  0  0  0  0  0  0  0
  147.4169  134.3898  151.2742 H   0  0  0  0  0  0  0  0  0  0  0  0
  146.8485  132.0580  150.6946 H   0  0  0  0  0  0  0  0  0  0  0  0
  142.7926  132.8242  150.7821 H   0  0  0  0  0  0  0  0  0  0  0  0
  143.1534  135.2125  151.3752 H   0  0  0  0  0  0  0  0  0  0  0  0
  1  2  1  0  0  0  0
  1 21  1  0  0  0  0
  1 22  1  0  0  0  0
  1 23  1  0  0  0  0
  2  3  1  0  0  0  0
  2  4  1  0  0  0  0
  2 15  1  0  0  0  0
  3 24  1  0  0  0  0
  3 25  1  0  0  0  0
  3 26  1  0  0  0  0
  4  5  1  0  0  0  0
  4 27  1  0  0  0  0
  4 28  1  0  0  0  0
  5  6  1  0  0  0  0
  5 29  1  0  0  0  0
  6  7  2  0  0  0  0
  6  8  1  0  0  0  0
  8 14  1  0  0  0  0
  8  9  1  0  0  0  0
  8 11  1  0  0  0  0
  9 10  3  0  0  0  0
 11 12  1  0  0  0  0
 11 30  1  0  0  0  0
 11 31  1  0  0  0  0
 12 13  1  0  0  0  0
 12 32  1  0  0  0  0
 12 33  1  0  0  0  0
 13 14  1  0  0  0  0
 13 34  1  0  0  0  0
 13 35  1  0  0  0  0
 14 36  1  0  0  0  0
 14 37  1  0  0  0  0
 15 20  1  0  0  0  0
 15 16  2  0  0  0  0
 16 17  1  0  0  0  0
 16 38  1  0  0  0  0
 17 18  2  0  0  0  0
 17 39  1  0  0  0  0
 18 19  1  0  0  0  0
 19 20  2  0  0  0  0
 19 40  1  0  0  0  0
 20 41  1  0  0  0  0
M  END
> <s_m_source_file>
AV-unprocessed.smi

> <i_m_source_file_index>
2542

> <i_lp_mmshare_version>
43012

> <i_f3d_flags>
0

> <s_epik_input>
W2NIXTFbY0hdbltjSF1bY0hdYzFDKFtDSDNdKShbQ0gzXSlbQ0gyXVtOSF1DKD1PKUMyKEMjTilbQ0gyXVtDSDJdW0NIMl1bQ0gyXTI=

> <s_epik_cmdline>
J2VwaWtfcHl0aG9uJywgJy1waCcsICc3LjAnLCAnLXRuJywgJzgnLCAnLW1hJywgJzIwMCcsICctbWV0YWxfYmluZGluZycsICctaW1hZScsICc8aW5maWxlLm1hZT4nLCAnLW9tYWUnLCAnPG91dGZpbGUubWFlPic=

> <r_epik_Ionization_Penalty>
0.0480096

> <r_epik_Ionization_Penalty_Charging>
0

> <r_epik_Ionization_Penalty_Neutral>
0.0480096

> <r_epik_State_Penalty>
0.04092

> <r_epik_Charging_Adjusted_Penalty>
0.04092

> <i_epik_Tot_Q>
0

> <i_epik_Tot_abs_Q>
0

> <r_epik_Metal_State_Penalty>
0.0377989

> <b_epik_Metal_Only>
0

> <s_lp_Force_Field>
OPLS_2005

> <r_lp_Energy>
29.6926

> <b_lp_Chiralities_Consistent>
1

> <s_lp_Variant>
AV-unprocessed.smi:2542-1

> <Gold.Version>
5.8.1

> <Gold.Id.Protein>
6NUR|6NUR_protein|mol2

> <Gold.PLP.Fitness>
33.0900

> <Gold.PLP.PLP>
-28.1306

> <Gold.PLP.part.hbond>
-2.0000

> <Gold.PLP.part.metal>
0.0000

> <Gold.PLP.part.buried>
4.9977

> <Gold.PLP.part.nonpolar>
-31.1574

> <Gold.PLP.part.repulsive>
0.3269

> <Gold.PLP.ligand.clash>
0.8248

> <Gold.PLP.ligand.torsion>
0.5746

> <Gold.PLP.Chemscore.Hbond>
1.0000

> <Gold.PLP.Chemscore.CHOScore>
1.2978

> <Gold.PLP.Chemscore.Metal>
0.0000

> <Gold.Chemscore.Hbonds>
donor molecule, donor type, donor heavy atom, donor atom, acceptor molecule, acceptor atom, score
      P1  H  7989  7998       L1    10  0.99
      L1  C    17    39       P1 10747  1.00
      L1  C    19    40       P1 10186  0.45

> <Gold.PLP.Chemscore.Internal.Correction>
0.0400

> <Gold.Rescore>
     Score         DG    S(hbond)    S(metal)    S(lipo)     H(rot)  DE(clash)    DE(int)     intcor
     11.76     -13.79       1.00        0.00      75.20       1.49       1.39       0.64       ----

> <Gold.Chemscore.Fitness>
11.7557

> <Gold.Chemscore.DG>
-13.7896

> <Gold.Chemscore.ZeroCoef>
-5.4800

> <Gold.Chemscore.Hbond>
0.9953

> <Gold.Chemscore.Metal>
0.0000

> <Gold.Chemscore.Lipo>
75.2026

> <Gold.Chemscore.Internal_Hbond>
0.0000

> <Gold.Chemscore.DEClash>
1.3924

> <Gold.Chemscore.DEInternal>
0.6415

> <Gold.Chemscore.Rot>
1.4897

> <Gold.Chemscore.Internal.Correction>
   9.000000E+99

> <Gold.Chemscore.Hbonds>
donor molecule, donor type, donor heavy atom, donor atom, acceptor molecule, acceptor atom, score
      P1  H  7989  7998       L1    10  0.86

> <Gold.Chemscore.Hbond.Weighted>
-3.3244

> <Gold.Chemscore.Metal.Weighted>
-0.0000

> <Gold.Chemscore.Lipo.Weighted>
-8.7987

> <Gold.Chemscore.Internal_Hbond.Weighted>
0.0000

> <Gold.Chemscore.DEClash.Weighted>
1.3924

> <Gold.Chemscore.DEInternal.Weighted>
0.6415

> <Gold.Chemscore.Rot.Weighted>
3.8136

> <Gold.Chemscore.Internal.Correction.Weighted>
   9.000000E+99

> <Gold.Protein.RotatedTorsions>
[ 6907 6896 6895 6894 ] final -101.30 input  -60.11 | X-H torsion
[ 7974 7965 7964 7962 ] final  -70.71 input  175.53 | X-H torsion
[ 8008 7997 7996 7995 ] final  -47.32 input   59.86 | X-H torsion
[ 10167 10162 10161 10158 ] final  118.20 input  -65.29 | X-H torsion
[ 10718 10713 10712 10709 ] final  154.17 input   66.30 | X-H torsion
[ 10763 10752 10751 10750 ] final  -86.27 input  -60.55 | X-H torsion
[ 11005 11000 10999 10996 ] final  -95.56 input  -57.11 | X-H torsion

> <Gold.Protein.ActiveResidues>
 VAL166  LYS551  ARG553  GLY616  TRP617  ASP618  TYR619  PRO620  LYS621  CYS622 
 ASP623  PHE694  ASN695  SER759  ASP760  ASP761  ALA762  ILE779  LEU786  VAL792 
 PHE793  MET794  SER795  GLU796  ALA797  LYS798  CYS799  TRP800  GLU811  SER814 

> <Gold.Protein.RotatedAtoms>
  150.7149  134.0755  159.3879 H   0  0  0  0  0  0  0  0  0  0  0  0  # atno 6907 bound_to 6896
  151.8738  135.0477  160.0491 H   0  0  0  0  0  0  0  0  0  0  0  0  # atno 6908 bound_to 6896
  152.2622  133.5272  159.5425 H   0  0  0  0  0  0  0  0  0  0  0  0  # atno 6909 bound_to 6896
  145.6875  140.9165  143.0799 H   0  0  0  0  0  0  0  0  0  0  0  0  # atno 7974 bound_to 7965
  154.4015  140.1349  156.4155 H   0  0  0  0  0  0  0  0  0  0  0  0  # atno 8008 bound_to 7997
  155.7693  140.3484  155.5218 H   0  0  0  0  0  0  0  0  0  0  0  0  # atno 8009 bound_to 7997
  155.8783  140.0983  157.1493 H   0  0  0  0  0  0  0  0  0  0  0  0  # atno 8010 bound_to 7997
  139.6127  144.7085  151.2807 H   0  0  0  0  0  0  0  0  0  0  0  0  # atno 10167 bound_to 10162
  157.2351  131.0747  151.1828 H   0  0  0  0  0  0  0  0  0  0  0  0  # atno 10718 bound_to 10713
  154.6206  135.5455  153.7571 H   0  0  0  0  0  0  0  0  0  0  0  0  # atno 10763 bound_to 10752
  153.0236  135.6411  154.1447 H   0  0  0  0  0  0  0  0  0  0  0  0  # atno 10764 bound_to 10752
  154.1381  135.2910  155.3148 H   0  0  0  0  0  0  0  0  0  0  0  0  # atno 10765 bound_to 10752
  141.1438  133.8035  157.0452 H   0  0  0  0  0  0  0  0  0  0  0  0  # atno 11005 bound_to 11000
  144.7007  139.8777  143.7445 LP  0  0  0  0  0  0  0  0  0  0  0  0  # atno 17320 bound_to 7965
  146.0911  139.3901  143.0405 LP  0  0  0  0  0  0  0  0  0  0  0  0  # atno 17321 bound_to 7965
  140.7330  143.6806  150.8004 LP  0  0  0  0  0  0  0  0  0  0  0  0  # atno 17342 bound_to 10162
  140.0404  143.5352  152.2720 LP  0  0  0  0  0  0  0  0  0  0  0  0  # atno 17343 bound_to 10162
  157.3437  130.7046  149.6397 LP  0  0  0  0  0  0  0  0  0  0  0  0  # atno 17370 bound_to 10713
  155.9673  130.4272  150.4735 LP  0  0  0  0  0  0  0  0  0  0  0  0  # atno 17371 bound_to 10713
  140.0667  134.9725  157.1398 LP  0  0  0  0  0  0  0  0  0  0  0  0  # atno 17394 bound_to 11000
  140.3769  134.2329  155.7173 LP  0  0  0  0  0  0  0  0  0  0  0  0  # atno 17395 bound_to 11000

$$$$
