AV-unprocessed.smi:1510|AV-procd|sdf|6097|dock6
  -GOLD-   22720 6223D 1   1.00000     0.00000
 Structure written by MMmdl.
 33 34  0  0  0  0  0  0  0  0  1 V2000
  150.1834  140.1221  154.6921 O   0  0  0  0  0  0  0  0  0  0  0  0
  149.5188  141.1263  154.9525 C   0  0  0  0  0  0  0  0  0  0  0  0
  148.2482  141.4637  154.1577 C   0  0  0  0  0  0  0  0  0  0  0  0
  147.3830  140.3005  153.9143 N   0  0  0  0  0  0  0  0  0  0  0  0
  147.3056  139.9215  152.5827 N   0  0  0  0  0  0  0  0  0  0  0  0
  146.5909  138.9026  152.2431 C   0  0  0  0  0  0  0  0  0  0  0  0
  146.5464  138.5596  150.9142 O   0  0  0  0  0  0  0  0  0  0  0  0
  145.8563  138.1409  153.2290 C   0  0  0  0  0  0  0  0  0  0  0  0
  145.9345  138.5204  154.5231 C   0  0  0  0  0  0  0  0  0  0  0  0
  146.7382  139.6697  154.9436 C   0  0  0  0  0  0  0  0  0  0  0  0
  146.8289  140.0365  156.1151 O   0  0  0  0  0  0  0  0  0  0  0  0
  149.8549  141.9951  155.9157 N   0  0  0  0  0  0  0  0  0  0  0  0
  151.0309  141.8682  156.7650 C   0  0  0  0  0  0  0  0  0  0  0  0
  151.0225  142.9398  157.8634 C   0  0  1  0  0  0  0  0  0  0  0  0
  151.8898  142.5909  159.0704 C   0  0  0  0  0  0  0  0  0  0  0  0
  152.1536  143.9588  159.6574 C   0  0  0  0  0  0  0  0  0  0  0  0
  152.3078  144.8186  158.4048 C   0  0  0  0  0  0  0  0  0  0  0  0
  151.5633  144.1660  157.3783 O   0  0  0  0  0  0  0  0  0  0  0  0
  145.6468  138.6855  150.6535 H   0  0  0  0  0  0  0  0  0  0  0  0
  147.6904  142.2431  154.6803 H   0  0  0  0  0  0  0  0  0  0  0  0
  148.5518  141.9098  153.2090 H   0  0  0  0  0  0  0  0  0  0  0  0
  145.2623  137.2910  152.9270 H   0  0  0  0  0  0  0  0  0  0  0  0
  145.3908  137.9611  155.2703 H   0  0  0  0  0  0  0  0  0  0  0  0
  149.2659  142.8017  156.0645 H   0  0  0  0  0  0  0  0  0  0  0  0
  151.0399  140.8754  157.2177 H   0  0  0  0  0  0  0  0  0  0  0  0
  151.9329  141.9551  156.1571 H   0  0  0  0  0  0  0  0  0  0  0  0
  150.0018  143.1295  158.2004 H   0  0  0  0  0  0  0  0  0  0  0  0
  151.3970  141.9126  159.7674 H   0  0  0  0  0  0  0  0  0  0  0  0
  152.8282  142.1344  158.7519 H   0  0  0  0  0  0  0  0  0  0  0  0
  151.2893  144.2883  160.2359 H   0  0  0  0  0  0  0  0  0  0  0  0
  153.0298  143.9877  160.3057 H   0  0  0  0  0  0  0  0  0  0  0  0
  151.9562  145.8387  158.5615 H   0  0  0  0  0  0  0  0  0  0  0  0
  153.3529  144.8650  158.0970 H   0  0  0  0  0  0  0  0  0  0  0  0
  1  2  2  0  0  0  0
  2  3  1  0  0  0  0
  2 12  1  0  0  0  0
  3 20  1  0  0  0  0
  3 21  1  0  0  0  0
  3  4  1  0  0  0  0
  4  5  1  0  0  0  0
  4 10  1  0  0  0  0
  5  6  2  0  0  0  0
  6  7  1  0  0  0  0
  6  8  1  0  0  0  0
  7 19  1  0  0  0  0
  8 22  1  0  0  0  0
  8  9  2  0  0  0  0
  9 23  1  0  0  0  0
  9 10  1  0  0  0  0
 10 11  2  0  0  0  0
 12 13  1  0  0  0  0
 12 24  1  0  0  0  0
 13 14  1  0  0  0  0
 13 25  1  0  0  0  0
 13 26  1  0  0  0  0
 14 18  1  0  0  0  0
 14 15  1  0  0  0  0
 14 27  1  0  0  0  0
 15 16  1  0  0  0  0
 15 28  1  0  0  0  0
 15 29  1  0  0  0  0
 16 17  1  0  0  0  0
 16 30  1  0  0  0  0
 16 31  1  0  0  0  0
 17 18  1  0  0  0  0
 17 32  1  0  0  0  0
 17 33  1  0  0  0  0
M  END
> <s_m_source_file>
AV-unprocessed.smi

> <i_m_source_file_index>
1510

> <i_lp_mmshare_version>
43012

> <i_f3d_flags>
0

> <s_epik_input>
TzFbQ0gyXVtDSDJdW0NIMl1bQ0BIXTFbQ0gyXVtOSF1DKD1PKVtDSDJdbjJbbkhdYyg9TylbY0hdW2NIXWMyPU8=

> <s_epik_cmdline>
J2VwaWtfcHl0aG9uJywgJy1waCcsICc3LjAnLCAnLXRuJywgJzgnLCAnLW1hJywgJzIwMCcsICctbWV0YWxfYmluZGluZycsICctaW1hZScsICc8aW5maWxlLm1hZT4nLCAnLW9tYWUnLCAnPG91dGZpbGUubWFlPic=

> <r_lp_tautomer_probability>
0.9996

> <r_epik_Ionization_Penalty>
2.13037

> <r_epik_Ionization_Penalty_Charging>
3.76e-08

> <r_epik_Ionization_Penalty_Neutral>
2.13037

> <r_epik_State_Penalty>
1.70753

> <r_epik_Charging_Adjusted_Penalty>
1.70753

> <i_epik_Tot_Q>
0

> <i_epik_Tot_abs_Q>
0

> <r_epik_Metal_State_Penalty>
1.70753

> <b_epik_Metal_Only>
0

> <s_lp_Force_Field>
OPLS_2005

> <r_lp_Energy>
28.362

> <b_lp_Chiralities_Consistent>
1

> <s_lp_Variant>
AV-unprocessed.smi:1510-4

> <Gold.Version>
5.8.1

> <Gold.Id.Protein>
6NUR|6NUR_protein|mol2

> <Gold.PLP.Fitness>
45.4535

> <Gold.PLP.PLP>
-34.6071

> <Gold.PLP.part.hbond>
-4.1863

> <Gold.PLP.part.metal>
0.0000

> <Gold.PLP.part.buried>
-7.3141

> <Gold.PLP.part.nonpolar>
-27.6327

> <Gold.PLP.part.repulsive>
3.9368

> <Gold.PLP.ligand.clash>
0.0000

> <Gold.PLP.ligand.torsion>
0.5301

> <Gold.PLP.Chemscore.Hbond>
3.9680

> <Gold.PLP.Chemscore.CHOScore>
0.0000

> <Gold.PLP.Chemscore.Metal>
0.0000

> <Gold.Chemscore.Hbonds>
donor molecule, donor type, donor heavy atom, donor atom, acceptor molecule, acceptor atom, score
      L1  H     7    19       P1 10171  1.00
      L1  H    12    24       P1  8028  0.96
      P1  H  7954  7966       L1     7  0.96
      P1  H  7989  7998       L1     1  1.00

> <Gold.PLP.Chemscore.Internal.Correction>
0.0025

> <Gold.Rescore>
     Score         DG    S(hbond)    S(metal)    S(lipo)     H(rot)  DE(clash)    DE(int)     intcor
     16.04     -18.09       3.42        0.00      69.02       2.69       1.56       0.49       ----

> <Gold.Chemscore.Fitness>
16.0371

> <Gold.Chemscore.DG>
-18.0899

> <Gold.Chemscore.ZeroCoef>
-5.4800

> <Gold.Chemscore.Hbond>
3.4222

> <Gold.Chemscore.Metal>
0.0000

> <Gold.Chemscore.Lipo>
69.0224

> <Gold.Chemscore.Internal_Hbond>
0.0000

> <Gold.Chemscore.DEClash>
1.5585

> <Gold.Chemscore.DEInternal>
0.4942

> <Gold.Chemscore.Rot>
2.6937

> <Gold.Chemscore.Internal.Correction>
   9.000000E+99

> <Gold.Chemscore.Hbonds>
donor molecule, donor type, donor heavy atom, donor atom, acceptor molecule, acceptor atom, score
      L1  H     7    19       P1 10171  0.99
      L1  H    12    24       P1  8028  0.89
      P1  H  7954  7966       L1     7  0.86
      P1  H  7989  7998       L1     1  0.32

> <Gold.Chemscore.Hbond.Weighted>
-11.4302

> <Gold.Chemscore.Metal.Weighted>
-0.0000

> <Gold.Chemscore.Lipo.Weighted>
-8.0756

> <Gold.Chemscore.Internal_Hbond.Weighted>
0.0000

> <Gold.Chemscore.DEClash.Weighted>
1.5585

> <Gold.Chemscore.DEInternal.Weighted>
0.4942

> <Gold.Chemscore.Rot.Weighted>
6.8959

> <Gold.Chemscore.Internal.Correction.Weighted>
   9.000000E+99

> <Gold.Protein.RotatedTorsions>
[ 6907 6896 6895 6894 ] final  120.23 input  -60.11 | X-H torsion
[ 7974 7965 7964 7962 ] final -113.04 input  175.53 | X-H torsion
[ 8008 7997 7996 7995 ] final   74.91 input   59.86 | X-H torsion
[ 10167 10162 10161 10158 ] final   69.62 input  -65.29 | X-H torsion
[ 10718 10713 10712 10709 ] final   20.74 input   66.30 | X-H torsion
[ 10763 10752 10751 10750 ] final   67.01 input  -60.55 | X-H torsion
[ 11005 11000 10999 10996 ] final -147.79 input  -57.11 | X-H torsion

> <Gold.Protein.ActiveResidues>
 VAL166  LYS551  ARG553  GLY616  TRP617  ASP618  TYR619  PRO620  LYS621  CYS622 
 ASP623  PHE694  ASN695  SER759  ASP760  ASP761  ALA762  ILE779  LEU786  VAL792 
 PHE793  MET794  SER795  GLU796  ALA797  LYS798  CYS799  TRP800  GLU811  SER814 

> <Gold.Protein.RotatedAtoms>
  152.4413  133.7453  159.6663 H   0  0  0  0  0  0  0  0  0  0  0  0  # atno 6907 bound_to 6896
  150.8304  133.8090  159.3107 H   0  0  0  0  0  0  0  0  0  0  0  0  # atno 6908 bound_to 6896
  151.5745  135.1063  160.0054 H   0  0  0  0  0  0  0  0  0  0  0  0  # atno 6909 bound_to 6896
  145.1367  140.8755  143.3726 H   0  0  0  0  0  0  0  0  0  0  0  0  # atno 7974 bound_to 7965
  155.8053  140.3475  155.5426 H   0  0  0  0  0  0  0  0  0  0  0  0  # atno 8008 bound_to 7997
  155.8496  140.0954  157.1703 H   0  0  0  0  0  0  0  0  0  0  0  0  # atno 8009 bound_to 7997
  154.4007  140.1379  156.3815 H   0  0  0  0  0  0  0  0  0  0  0  0  # atno 8010 bound_to 7997
  140.0658  144.5194  150.7262 H   0  0  0  0  0  0  0  0  0  0  0  0  # atno 10167 bound_to 10162
  157.1287  130.6581  149.5945 H   0  0  0  0  0  0  0  0  0  0  0  0  # atno 10718 bound_to 10713
  153.0166  135.5299  154.6913 H   0  0  0  0  0  0  0  0  0  0  0  0  # atno 10763 bound_to 10752
  154.6047  135.2872  155.0500 H   0  0  0  0  0  0  0  0  0  0  0  0  # atno 10764 bound_to 10752
  154.1544  135.6558  153.5023 H   0  0  0  0  0  0  0  0  0  0  0  0  # atno 10765 bound_to 10752
  140.7680  134.3222  157.5083 H   0  0  0  0  0  0  0  0  0  0  0  0  # atno 11005 bound_to 11000
  145.0576  139.3131  143.5897 LP  0  0  0  0  0  0  0  0  0  0  0  0  # atno 17320 bound_to 7965
  146.3509  140.0007  142.8676 LP  0  0  0  0  0  0  0  0  0  0  0  0  # atno 17321 bound_to 7965
  140.7150  143.2536  151.4464 LP  0  0  0  0  0  0  0  0  0  0  0  0  # atno 17342 bound_to 10162
  139.5866  144.1592  152.2036 LP  0  0  0  0  0  0  0  0  0  0  0  0  # atno 17343 bound_to 10162
  155.9812  130.4818  150.6817 LP  0  0  0  0  0  0  0  0  0  0  0  0  # atno 17370 bound_to 10713
  157.4411  131.0861  151.0942 LP  0  0  0  0  0  0  0  0  0  0  0  0  # atno 17371 bound_to 10713
  139.8760  134.9243  156.3346 LP  0  0  0  0  0  0  0  0  0  0  0  0  # atno 17394 bound_to 11000
  140.9601  133.7394  156.0389 LP  0  0  0  0  0  0  0  0  0  0  0  0  # atno 17395 bound_to 11000

$$$$
