AV-unprocessed.smi:3056|AV-procd|sdf|11659|dock3
  -GOLD-   2272017 63D 1   1.00000     0.00000
 Structure written by MMmdl.
 47 48  0  0  0  0  0  0  0  0  1 V2000
  151.3114  144.8258  160.0822 C   0  0  0  0  0  0  0  0  0  0  0  0
  152.0267  143.5067  160.0295 C   0  0  0  0  0  0  0  0  0  0  0  0
  151.6246  142.3182  159.3567 C   0  0  0  0  0  0  0  0  0  0  0  0
  152.4794  141.3222  159.5180 N   0  0  0  0  0  0  0  0  0  0  0  0
  153.4610  141.8374  160.2927 N   0  0  0  0  0  0  0  0  0  0  0  0
  154.5829  141.0065  160.7153 C   0  0  2  0  0  0  0  0  0  0  0  0
  154.6273  139.7183  159.8698 C   0  0  0  0  0  0  0  0  0  0  0  0
  154.5559  140.7337  162.2471 C   0  0  1  0  0  0  0  0  0  0  0  0
  155.7519  139.8899  162.7226 C   0  0  0  0  0  0  0  0  0  0  0  0
  154.6340  141.9952  162.9882 N   0  0  0  0  0  0  0  0  0  0  0  0
  154.8625  141.8560  164.4391 C   0  0  0  0  0  0  0  0  0  0  0  0
  154.9137  143.1761  165.2346 C   0  0  0  0  0  0  0  0  0  0  0  0
  154.7876  144.2440  164.6326 O   0  0  0  0  0  0  0  0  0  0  0  0
  155.0794  143.1255  166.5786 N   0  0  0  0  0  0  0  0  0  0  0  0
  155.2589  141.8719  167.3163 C   0  0  0  0  0  0  0  0  0  0  0  0
  156.6744  141.8649  167.9190 C   0  0  0  0  0  0  0  0  0  0  0  0
  156.8404  143.0033  168.7613 O   0  0  0  0  0  0  0  0  0  0  0  0
  156.6449  144.2432  168.0828 C   0  0  2  0  0  0  0  0  0  0  0  0
  156.8722  145.3793  169.0861 C   0  0  0  0  0  0  0  0  0  0  0  0
  155.2260  144.2738  167.4796 C   0  0  0  0  0  0  0  0  0  0  0  0
  153.2105  143.1554  160.6135 C   0  0  0  0  0  0  0  0  0  0  0  0
  150.3301  144.7749  159.6102 H   0  0  0  0  0  0  0  0  0  0  0  0
  151.8731  145.6082  159.5717 H   0  0  0  0  0  0  0  0  0  0  0  0
  151.1562  145.1576  161.1091 H   0  0  0  0  0  0  0  0  0  0  0  0
  150.7380  142.1490  158.7634 H   0  0  0  0  0  0  0  0  0  0  0  0
  155.4919  141.5660  160.4877 H   0  0  0  0  0  0  0  0  0  0  0  0
  155.5595  139.1734  160.0164 H   0  0  0  0  0  0  0  0  0  0  0  0
  154.5587  139.9472  158.8057 H   0  0  0  0  0  0  0  0  0  0  0  0
  153.8055  139.0463  160.1188 H   0  0  0  0  0  0  0  0  0  0  0  0
  153.6463  140.1873  162.5004 H   0  0  0  0  0  0  0  0  0  0  0  0
  155.7177  138.8800  162.3145 H   0  0  0  0  0  0  0  0  0  0  0  0
  155.7564  139.7883  163.8087 H   0  0  0  0  0  0  0  0  0  0  0  0
  156.7011  140.3390  162.4280 H   0  0  0  0  0  0  0  0  0  0  0  0
  153.8179  142.5540  162.7855 H   0  0  0  0  0  0  0  0  0  0  0  0
  154.0529  141.2529  164.8507 H   0  0  0  0  0  0  0  0  0  0  0  0
  155.7823  141.2968  164.5974 H   0  0  0  0  0  0  0  0  0  0  0  0
  154.5116  141.8067  168.1084 H   0  0  0  0  0  0  0  0  0  0  0  0
  155.1180  140.9862  166.6955 H   0  0  0  0  0  0  0  0  0  0  0  0
  156.8301  140.9624  168.5099 H   0  0  0  0  0  0  0  0  0  0  0  0
  157.4319  141.8678  167.1334 H   0  0  0  0  0  0  0  0  0  0  0  0
  157.3839  144.3308  167.2843 H   0  0  0  0  0  0  0  0  0  0  0  0
  156.7438  146.3528  168.6126 H   0  0  0  0  0  0  0  0  0  0  0  0
  157.8815  145.3404  169.4963 H   0  0  0  0  0  0  0  0  0  0  0  0
  156.1712  145.3165  169.9189 H   0  0  0  0  0  0  0  0  0  0  0  0
  155.0612  145.2362  166.9992 H   0  0  0  0  0  0  0  0  0  0  0  0
  154.4767  144.2043  168.2700 H   0  0  0  0  0  0  0  0  0  0  0  0
  153.8853  143.7273  161.2334 H   0  0  0  0  0  0  0  0  0  0  0  0
  1  2  1  0  0  0  0
  1 22  1  0  0  0  0
  1 23  1  0  0  0  0
  1 24  1  0  0  0  0
  2 21  2  0  0  0  0
  2  3  1  0  0  0  0
  3  4  2  0  0  0  0
  3 25  1  0  0  0  0
  4  5  1  0  0  0  0
  5  6  1  0  0  0  0
  5 21  1  0  0  0  0
  6  7  1  0  0  0  0
  6  8  1  0  0  0  0
  6 26  1  0  0  0  0
  7 27  1  0  0  0  0
  7 28  1  0  0  0  0
  7 29  1  0  0  0  0
  8  9  1  0  0  0  0
  8 10  1  0  0  0  0
  8 30  1  0  0  0  0
  9 31  1  0  0  0  0
  9 32  1  0  0  0  0
  9 33  1  0  0  0  0
 10 11  1  0  0  0  0
 10 34  1  0  0  0  0
 11 12  1  0  0  0  0
 11 35  1  0  0  0  0
 11 36  1  0  0  0  0
 12 13  2  0  0  0  0
 12 14  1  0  0  0  0
 14 20  1  0  0  0  0
 14 15  1  0  0  0  0
 15 16  1  0  0  0  0
 15 37  1  0  0  0  0
 15 38  1  0  0  0  0
 16 17  1  0  0  0  0
 16 39  1  0  0  0  0
 16 40  1  0  0  0  0
 17 18  1  0  0  0  0
 18 19  1  0  0  0  0
 18 20  1  0  0  0  0
 18 41  1  0  0  0  0
 19 42  1  0  0  0  0
 19 43  1  0  0  0  0
 19 44  1  0  0  0  0
 20 45  1  0  0  0  0
 20 46  1  0  0  0  0
 21 47  1  0  0  0  0
M  END
> <s_m_source_file>
AV-unprocessed.smi

> <i_m_source_file_index>
3056

> <i_lp_mmshare_version>
43012

> <i_f3d_flags>
0

> <s_epik_input>
W0NIM11jMVtjSF1ubihbY0hdMSlbQ0BIXShbQ0gzXSlbQ0BIXShbQ0gzXSlbTkhdW0NIMl1DKD1PKU4yW0NIMl1bQ0gyXU9bQ0BASF0oW0NIM10pW0NIMl0y

> <s_epik_cmdline>
J2VwaWtfcHl0aG9uJywgJy1waCcsICc3LjAnLCAnLXRuJywgJzgnLCAnLW1hJywgJzIwMCcsICctbWV0YWxfYmluZGluZycsICctaW1hZScsICc8aW5maWxlLm1hZT4nLCAnLW9tYWUnLCAnPG91dGZpbGUubWFlPic=

> <r_lp_tautomer_probability>
1

> <r_epik_Ionization_Penalty>
0.667689

> <r_epik_Ionization_Penalty_Charging>
0

> <r_epik_Ionization_Penalty_Neutral>
0.667689

> <r_epik_State_Penalty>
0.684601

> <r_epik_Charging_Adjusted_Penalty>
0.684601

> <i_epik_Tot_Q>
0

> <i_epik_Tot_abs_Q>
0

> <r_epik_Metal_State_Penalty>
0.681448

> <b_epik_Metal_Only>
0

> <s_lp_Force_Field>
OPLS_2005

> <r_lp_Energy>
30.5855

> <b_lp_Chiralities_Consistent>
1

> <s_lp_Variant>
AV-unprocessed.smi:3056-15

> <Gold.Version>
5.8.1

> <Gold.Id.Protein>
6NUR|6NUR_protein|mol2

> <Gold.PLP.Fitness>
42.9595

> <Gold.PLP.PLP>
-43.3967

> <Gold.PLP.part.hbond>
-1.0000

> <Gold.PLP.part.metal>
0.0000

> <Gold.PLP.part.buried>
-1.5635

> <Gold.PLP.part.nonpolar>
-39.1002

> <Gold.PLP.part.repulsive>
0.0974

> <Gold.PLP.ligand.clash>
0.0000

> <Gold.PLP.ligand.torsion>
0.3064

> <Gold.PLP.Chemscore.Hbond>
0.0000

> <Gold.PLP.Chemscore.CHOScore>
0.0000

> <Gold.PLP.Chemscore.Metal>
0.0000

> <Gold.PLP.Chemscore.Internal.Correction>
0.1755

> <Gold.Rescore>
     Score         DG    S(hbond)    S(metal)    S(lipo)     H(rot)  DE(clash)    DE(int)     intcor
     11.12     -14.14       0.00        0.00     110.75       1.68       1.71       1.31       ----

> <Gold.Chemscore.Fitness>
11.1176

> <Gold.Chemscore.DG>
-14.1390

> <Gold.Chemscore.ZeroCoef>
-5.4800

> <Gold.Chemscore.Hbond>
0.0000

> <Gold.Chemscore.Metal>
0.0000

> <Gold.Chemscore.Lipo>
110.7525

> <Gold.Chemscore.Internal_Hbond>
0.0000

> <Gold.Chemscore.DEClash>
1.7136

> <Gold.Chemscore.DEInternal>
1.3078

> <Gold.Chemscore.Rot>
1.6793

> <Gold.Chemscore.Internal.Correction>
   9.000000E+99

> <Gold.Chemscore.Hbond.Weighted>
-0.0000

> <Gold.Chemscore.Metal.Weighted>
-0.0000

> <Gold.Chemscore.Lipo.Weighted>
-12.9580

> <Gold.Chemscore.Internal_Hbond.Weighted>
0.0000

> <Gold.Chemscore.DEClash.Weighted>
1.7136

> <Gold.Chemscore.DEInternal.Weighted>
1.3078

> <Gold.Chemscore.Rot.Weighted>
4.2990

> <Gold.Chemscore.Internal.Correction.Weighted>
   9.000000E+99

> <Gold.Protein.RotatedTorsions>
[ 6907 6896 6895 6894 ] final  -89.02 input  -60.11 | X-H torsion
[ 7974 7965 7964 7962 ] final   77.85 input  175.53 | X-H torsion
[ 8008 7997 7996 7995 ] final   91.81 input   59.86 | X-H torsion
[ 10167 10162 10161 10158 ] final   27.44 input  -65.29 | X-H torsion
[ 10718 10713 10712 10709 ] final   25.31 input   66.30 | X-H torsion
[ 10763 10752 10751 10750 ] final -125.47 input  -60.55 | X-H torsion
[ 11005 11000 10999 10996 ] final  -89.11 input  -57.11 | X-H torsion

> <Gold.Protein.ActiveResidues>
 VAL166  LYS551  ARG553  GLY616  TRP617  ASP618  TYR619  PRO620  LYS621  CYS622 
 ASP623  PHE694  ASN695  SER759  ASP760  ASP761  ALA762  ILE779  LEU786  VAL792 
 PHE793  MET794  SER795  GLU796  ALA797  LYS798  CYS799  TRP800  GLU811  SER814 

> <Gold.Protein.RotatedAtoms>
  150.6871  134.2652  159.4565 H   0  0  0  0  0  0  0  0  0  0  0  0  # atno 6907 bound_to 6896
  152.0579  134.9610  160.0584 H   0  0  0  0  0  0  0  0  0  0  0  0  # atno 6908 bound_to 6896
  152.1049  133.4235  159.4641 H   0  0  0  0  0  0  0  0  0  0  0  0  # atno 6909 bound_to 6896
  145.6847  139.2534  143.1794 H   0  0  0  0  0  0  0  0  0  0  0  0  # atno 7974 bound_to 7965
  156.0280  140.3333  155.7109 H   0  0  0  0  0  0  0  0  0  0  0  0  # atno 8008 bound_to 7997
  155.5926  140.0647  157.2772 H   0  0  0  0  0  0  0  0  0  0  0  0  # atno 8009 bound_to 7997
  154.4342  140.1824  156.1078 H   0  0  0  0  0  0  0  0  0  0  0  0  # atno 8010 bound_to 7997
  140.4938  144.0424  150.6307 H   0  0  0  0  0  0  0  0  0  0  0  0  # atno 10167 bound_to 10162
  157.1917  130.6849  149.6152 H   0  0  0  0  0  0  0  0  0  0  0  0  # atno 10718 bound_to 10713
  154.8736  135.4028  154.3273 H   0  0  0  0  0  0  0  0  0  0  0  0  # atno 10763 bound_to 10752
  153.4092  135.7020  153.6376 H   0  0  0  0  0  0  0  0  0  0  0  0  # atno 10764 bound_to 10752
  153.5086  135.3712  155.2546 H   0  0  0  0  0  0  0  0  0  0  0  0  # atno 10765 bound_to 10752
  141.1590  133.7610  156.9547 H   0  0  0  0  0  0  0  0  0  0  0  0  # atno 11005 bound_to 11000
  146.0934  140.7629  142.9584 LP  0  0  0  0  0  0  0  0  0  0  0  0  # atno 17320 bound_to 7965
  144.7015  140.3673  143.7152 LP  0  0  0  0  0  0  0  0  0  0  0  0  # atno 17321 bound_to 7965
  140.3701  143.2859  152.0288 LP  0  0  0  0  0  0  0  0  0  0  0  0  # atno 17342 bound_to 10162
  139.4857  144.6237  151.7207 LP  0  0  0  0  0  0  0  0  0  0  0  0  # atno 17343 bound_to 10162
  155.9711  130.4612  150.6102 LP  0  0  0  0  0  0  0  0  0  0  0  0  # atno 17370 bound_to 10713
  157.3854  131.0787  151.1440 LP  0  0  0  0  0  0  0  0  0  0  0  0  # atno 17371 bound_to 10713
  140.1233  134.9403  157.2234 LP  0  0  0  0  0  0  0  0  0  0  0  0  # atno 17394 bound_to 11000
  140.3044  134.3095  155.7282 LP  0  0  0  0  0  0  0  0  0  0  0  0  # atno 17395 bound_to 11000

$$$$
