AV-unprocessed.smi:1041|AV-procd|sdf|4535|dock6
  -GOLD-   22720 2563D 1   1.00000     0.00000
 Structure written by MMmdl.
 51 52  0  0  0  0  0  0  0  0  2 V2000
  153.5698  141.9697  160.7715 C   0  0  0  0  0  0  0  0  0  0  0  0
  153.1922  142.7375  159.6426 O   0  0  0  0  0  0  0  0  0  0  0  0
  151.8680  143.2364  159.7420 C   0  0  0  0  0  0  0  0  0  0  0  0
  151.2609  143.4237  158.3412 C   0  0  0  0  0  0  0  0  0  0  0  0
  150.7289  142.2130  157.7121 N   0  0  0  0  0  0  0  0  0  0  0  0
  150.9996  142.1586  156.2732 C   0  0  0  0  0  0  0  0  0  0  0  0
  150.4741  140.8693  155.6189 C   0  0  0  0  0  0  0  0  0  0  0  0
  148.9635  140.7019  155.8613 C   0  0  0  0  0  0  0  0  0  0  0  0
  148.4367  139.3898  155.2517 C   0  0  0  0  0  0  0  0  0  0  0  0
  148.8803  138.2370  156.0231 N   0  0  0  0  0  0  0  0  0  0  0  0
  148.0833  137.2444  156.4420 C   0  0  0  0  0  0  0  0  0  0  0  0
  146.8701  137.2179  156.2368 O   0  0  0  0  0  0  0  0  0  0  0  0
  148.7640  136.1023  157.1984 C   0  0  0  0  0  0  0  0  0  0  0  0
  148.3728  135.9640  158.6692 C   0  0  0  0  0  0  0  0  0  0  0  0
  148.0492  134.7704  159.2458 C   0  0  0  0  0  0  0  0  0  0  0  0
  148.0334  133.4576  158.4809 C   0  0  0  0  0  0  0  0  0  0  0  0
  147.7056  134.6895  160.6060 N   0  0  0  0  0  0  0  0  0  0  0  0
  147.6992  135.7514  161.3181 C   0  0  0  0  0  0  0  0  0  0  0  0
  147.3321  135.6573  162.7836 C   0  0  0  0  0  0  0  0  0  0  0  0
  148.0126  137.0018  160.8354 N   0  5  0  0  0  0  0  0  0  0  0  0
  148.3464  137.1654  159.5235 C   0  0  0  0  0  0  0  0  0  0  0  0
  148.6158  138.2697  159.0528 O   0  0  0  0  0  0  0  0  0  0  0  0
  148.6852  140.8133  157.3746 C   0  0  0  0  0  0  0  0  0  0  0  0
  149.2885  142.1073  157.9456 C   0  0  0  0  0  0  0  0  0  0  0  0
  154.5960  141.6228  160.6521 H   0  0  0  0  0  0  0  0  0  0  0  0
  152.9298  141.0936  160.8830 H   0  0  0  0  0  0  0  0  0  0  0  0
  153.5182  142.5606  161.6867 H   0  0  0  0  0  0  0  0  0  0  0  0
  151.2425  142.5742  160.3432 H   0  0  0  0  0  0  0  0  0  0  0  0
  151.8979  144.2013  160.2507 H   0  0  0  0  0  0  0  0  0  0  0  0
  150.4407  144.1348  158.4487 H   0  0  0  0  0  0  0  0  0  0  0  0
  151.9857  143.9071  157.6842 H   0  0  0  0  0  0  0  0  0  0  0  0
  150.5596  143.0266  155.7796 H   0  0  0  0  0  0  0  0  0  0  0  0
  152.0722  142.2075  156.0919 H   0  0  0  0  0  0  0  0  0  0  0  0
  150.6834  140.8885  154.5490 H   0  0  0  0  0  0  0  0  0  0  0  0
  151.0124  140.0118  156.0249 H   0  0  0  0  0  0  0  0  0  0  0  0
  148.4550  141.5295  155.3636 H   0  0  0  0  0  0  0  0  0  0  0  0
  147.3459  139.4003  155.2276 H   0  0  0  0  0  0  0  0  0  0  0  0
  148.7786  139.2898  154.2200 H   0  0  0  0  0  0  0  0  0  0  0  0
  149.8657  138.1780  156.2345 H   0  0  0  0  0  0  0  0  0  0  0  0
  148.5439  135.1583  156.6986 H   0  0  0  0  0  0  0  0  0  0  0  0
  149.8422  136.2207  157.0890 H   0  0  0  0  0  0  0  0  0  0  0  0
  147.2948  133.4892  157.6801 H   0  0  0  0  0  0  0  0  0  0  0  0
  147.7771  132.6237  159.1352 H   0  0  0  0  0  0  0  0  0  0  0  0
  149.0110  133.2509  158.0459 H   0  0  0  0  0  0  0  0  0  0  0  0
  146.6329  136.4491  163.0544 H   0  0  0  0  0  0  0  0  0  0  0  0
  148.2248  135.7574  163.4016 H   0  0  0  0  0  0  0  0  0  0  0  0
  146.8631  134.6988  163.0094 H   0  0  0  0  0  0  0  0  0  0  0  0
  147.6127  140.7980  157.5705 H   0  0  0  0  0  0  0  0  0  0  0  0
  149.1074  139.9527  157.8955 H   0  0  0  0  0  0  0  0  0  0  0  0
  149.0870  142.1419  159.0169 H   0  0  0  0  0  0  0  0  0  0  0  0
  148.7792  142.9684  157.5097 H   0  0  0  0  0  0  0  0  0  0  0  0
  1  2  1  0  0  0  0
  1 25  1  0  0  0  0
  1 26  1  0  0  0  0
  1 27  1  0  0  0  0
  2  3  1  0  0  0  0
  3  4  1  0  0  0  0
  3 28  1  0  0  0  0
  3 29  1  0  0  0  0
  4  5  1  0  0  0  0
  4 30  1  0  0  0  0
  4 31  1  0  0  0  0
  5 24  1  0  0  0  0
  5  6  1  0  0  0  0
  6  7  1  0  0  0  0
  6 32  1  0  0  0  0
  6 33  1  0  0  0  0
  7  8  1  0  0  0  0
  7 34  1  0  0  0  0
  7 35  1  0  0  0  0
  8  9  1  0  0  0  0
  8 23  1  0  0  0  0
  8 36  1  0  0  0  0
  9 10  1  0  0  0  0
  9 37  1  0  0  0  0
  9 38  1  0  0  0  0
 10 11  1  0  0  0  0
 10 39  1  0  0  0  0
 11 12  2  0  0  0  0
 11 13  1  0  0  0  0
 13 14  1  0  0  0  0
 13 40  1  0  0  0  0
 13 41  1  0  0  0  0
 14 21  1  0  0  0  0
 14 15  2  0  0  0  0
 15 16  1  0  0  0  0
 15 17  1  0  0  0  0
 16 42  1  0  0  0  0
 16 43  1  0  0  0  0
 16 44  1  0  0  0  0
 17 18  2  0  0  0  0
 18 19  1  0  0  0  0
 18 20  1  0  0  0  0
 19 45  1  0  0  0  0
 19 46  1  0  0  0  0
 19 47  1  0  0  0  0
 20 21  1  0  0  0  0
 21 22  2  0  0  0  0
 23 24  1  0  0  0  0
 23 48  1  0  0  0  0
 23 49  1  0  0  0  0
 24 50  1  0  0  0  0
 24 51  1  0  0  0  0
M  CHG  1  20  -1
M  END
> <s_m_source_file>
AV-unprocessed.smi

> <i_m_source_file_index>
1041

> <i_lp_mmshare_version>
43012

> <i_f3d_flags>
0

> <s_epik_input>
W0NIM11PW0NIMl1bQ0gyXU4xW0NIMl1bQ0gyXVtDSF0oW0NIMl1bQ0gyXTEpW0NIMl1bTkhdQyg9TylbQ0gyXWMyYyhbQ0gzXSluYyhbQ0gzXSlbbkhdYzI9Tw==

> <s_epik_cmdline>
J2VwaWtfcHl0aG9uJywgJy1waCcsICc3LjAnLCAnLXRuJywgJzgnLCAnLW1hJywgJzIwMCcsICctbWV0YWxfYmluZGluZycsICctaW1hZScsICc8aW5maWxlLm1hZT4nLCAnLW9tYWUnLCAnPG91dGZpbGUubWFlPic=

> <r_lp_tautomer_probability>
0.839158

> <r_epik_Ionization_Penalty>
9.04559

> <r_epik_Ionization_Penalty_Charging>
6.70107e-08

> <r_epik_Ionization_Penalty_Neutral>
9.04559

> <r_epik_State_Penalty>
7.10582

> <r_epik_Charging_Adjusted_Penalty>
7.10582

> <i_epik_Tot_Q>
-1

> <i_epik_Tot_abs_Q>
1

> <r_epik_Metal_State_Penalty>
3.46994

> <b_epik_Metal_Only>
1

> <s_lp_Force_Field>
OPLS_2005

> <r_lp_Energy>
32.0623

> <b_lp_Chiralities_Consistent>
1

> <s_lp_Variant>
AV-unprocessed.smi:1041-8

> <Gold.Version>
5.8.1

> <Gold.Id.Protein>
6NUR|6NUR_protein|mol2

> <Gold.PLP.Fitness>
39.3774

> <Gold.PLP.PLP>
-33.9825

> <Gold.PLP.part.hbond>
-3.6186

> <Gold.PLP.part.metal>
0.0000

> <Gold.PLP.part.buried>
-4.9530

> <Gold.PLP.part.nonpolar>
-25.3122

> <Gold.PLP.part.repulsive>
0.0823

> <Gold.PLP.ligand.clash>
0.0000

> <Gold.PLP.ligand.torsion>
1.0967

> <Gold.PLP.Chemscore.Hbond>
2.5103

> <Gold.PLP.Chemscore.CHOScore>
0.0000

> <Gold.PLP.Chemscore.Metal>
0.0000

> <Gold.Chemscore.Hbonds>
donor molecule, donor type, donor heavy atom, donor atom, acceptor molecule, acceptor atom, score
      P1  H  6931  6943       L1    20  1.92
      P1  H  6934  6947       L1    20  0.53

> <Gold.PLP.Chemscore.Internal.Correction>
0.0573

> <Gold.Rescore>
     Score         DG    S(hbond)    S(metal)    S(lipo)     H(rot)  DE(clash)    DE(int)     intcor
     11.26     -12.06       0.86        0.00      81.65       2.28       0.08       0.73       ----

> <Gold.Chemscore.Fitness>
11.2562

> <Gold.Chemscore.DG>
-12.0642

> <Gold.Chemscore.ZeroCoef>
-5.4800

> <Gold.Chemscore.Hbond>
0.8598

> <Gold.Chemscore.Metal>
0.0000

> <Gold.Chemscore.Lipo>
81.6529

> <Gold.Chemscore.Internal_Hbond>
0.0000

> <Gold.Chemscore.DEClash>
0.0774

> <Gold.Chemscore.DEInternal>
0.7306

> <Gold.Chemscore.Rot>
2.2816

> <Gold.Chemscore.Internal.Correction>
   9.000000E+99

> <Gold.Chemscore.Hbonds>
donor molecule, donor type, donor heavy atom, donor atom, acceptor molecule, acceptor atom, score
      P1  H  6931  6943       L1    20  0.63
      P1  H  6934  6947       L1    20  0.02

> <Gold.Chemscore.Hbond.Weighted>
-2.8717

> <Gold.Chemscore.Metal.Weighted>
-0.0000

> <Gold.Chemscore.Lipo.Weighted>
-9.5534

> <Gold.Chemscore.Internal_Hbond.Weighted>
0.0000

> <Gold.Chemscore.DEClash.Weighted>
0.0774

> <Gold.Chemscore.DEInternal.Weighted>
0.7306

> <Gold.Chemscore.Rot.Weighted>
5.8409

> <Gold.Chemscore.Internal.Correction.Weighted>
   9.000000E+99

> <Gold.Protein.RotatedTorsions>
[ 6907 6896 6895 6894 ] final  -22.83 input  -60.11 | X-H torsion
[ 7974 7965 7964 7962 ] final  -19.47 input  175.53 | X-H torsion
[ 8008 7997 7996 7995 ] final -106.56 input   59.86 | X-H torsion
[ 10167 10162 10161 10158 ] final -169.67 input  -65.29 | X-H torsion
[ 10718 10713 10712 10709 ] final   55.56 input   66.30 | X-H torsion
[ 10763 10752 10751 10750 ] final   75.64 input  -60.55 | X-H torsion
[ 11005 11000 10999 10996 ] final -143.08 input  -57.11 | X-H torsion

> <Gold.Protein.ActiveResidues>
 VAL166  LYS551  ARG553  GLY616  TRP617  ASP618  TYR619  PRO620  LYS621  CYS622 
 ASP623  PHE694  ASN695  SER759  ASP760  ASP761  ALA762  ILE779  LEU786  VAL792 
 PHE793  MET794  SER795  GLU796  ALA797  LYS798  CYS799  TRP800  GLU811  SER814 

> <Gold.Protein.RotatedAtoms>
  151.2129  135.0488  159.8918 H   0  0  0  0  0  0  0  0  0  0  0  0  # atno 6907 bound_to 6896
  152.5423  134.0725  159.8210 H   0  0  0  0  0  0  0  0  0  0  0  0  # atno 6908 bound_to 6896
  151.0881  133.5289  159.2648 H   0  0  0  0  0  0  0  0  0  0  0  0  # atno 6909 bound_to 6896
  146.1839  140.4067  142.8484 H   0  0  0  0  0  0  0  0  0  0  0  0  # atno 7974 bound_to 7965
  154.9164  140.0408  157.1974 H   0  0  0  0  0  0  0  0  0  0  0  0  # atno 8008 bound_to 7997
  154.8297  140.2897  155.5709 H   0  0  0  0  0  0  0  0  0  0  0  0  # atno 8009 bound_to 7997
  156.2986  140.2503  156.3220 H   0  0  0  0  0  0  0  0  0  0  0  0  # atno 8010 bound_to 7997
  139.5908  144.1216  152.1632 H   0  0  0  0  0  0  0  0  0  0  0  0  # atno 10167 bound_to 10162
  157.5355  130.8660  149.8748 H   0  0  0  0  0  0  0  0  0  0  0  0  # atno 10718 bound_to 10713
  153.0669  135.4981  154.8219 H   0  0  0  0  0  0  0  0  0  0  0  0  # atno 10763 bound_to 10752
  154.6966  135.2994  154.9404 H   0  0  0  0  0  0  0  0  0  0  0  0  # atno 10764 bound_to 10752
  154.0142  135.6750  153.4820 H   0  0  0  0  0  0  0  0  0  0  0  0  # atno 10765 bound_to 10752
  140.8161  134.2687  157.4920 H   0  0  0  0  0  0  0  0  0  0  0  0  # atno 11005 bound_to 11000
  144.8363  140.6787  143.6258 LP  0  0  0  0  0  0  0  0  0  0  0  0  # atno 17320 bound_to 7965
  145.3995  139.1600  143.4185 LP  0  0  0  0  0  0  0  0  0  0  0  0  # atno 17321 bound_to 7965
  140.0790  144.5716  150.7136 LP  0  0  0  0  0  0  0  0  0  0  0  0  # atno 17342 bound_to 10162
  140.7172  143.2555  151.4397 LP  0  0  0  0  0  0  0  0  0  0  0  0  # atno 17343 bound_to 10162
  156.0455  130.3729  150.1327 LP  0  0  0  0  0  0  0  0  0  0  0  0  # atno 17370 bound_to 10713
  156.9510  130.9775  151.3498 LP  0  0  0  0  0  0  0  0  0  0  0  0  # atno 17371 bound_to 10713
  139.8711  134.9510  156.4071 LP  0  0  0  0  0  0  0  0  0  0  0  0  # atno 17394 bound_to 11000
  140.9147  133.7686  155.9834 LP  0  0  0  0  0  0  0  0  0  0  0  0  # atno 17395 bound_to 11000

$$$$
