AV-unprocessed.smi:3139|AV-procd|sdf|11956|dock9
  -GOLD-   2272017353D 1   1.00000     0.00000
 Structure written by MMmdl.
 33 33  0  0  0  0  0  0  0  0  2 V2000
  152.4006  144.7462  158.2503 C   0  0  0  0  0  0  0  0  0  0  0  0
  152.0928  143.2686  158.5703 C   0  0  2  0  0  0  0  0  0  0  0  0
  150.6107  142.9075  158.3752 C   0  0  0  0  0  0  0  0  0  0  0  0
  149.7681  143.2230  159.2167 O   0  0  0  0  0  0  0  0  0  0  0  0
  150.3087  142.2532  157.2426 N   0  0  0  0  0  0  0  0  0  0  0  0
  148.9710  141.8359  156.8214 C   0  0  0  0  0  0  0  0  0  0  0  0
  148.9404  140.4457  156.1236 C   0  0  0  0  0  0  0  0  0  0  0  0
  149.6436  139.4107  157.0252 C   0  0  0  0  0  0  0  0  0  0  0  0
  147.4740  140.0011  155.9006 C   0  0  0  0  0  0  0  0  0  0  0  0
  149.7012  140.4981  154.7725 C   0  0  0  0  0  0  0  0  0  0  0  0
  149.2827  141.2654  153.8765 O   0  0  0  0  0  0  0  0  0  0  0  0
  150.6988  139.7519  154.6515 O   0  5  0  0  0  0  0  0  0  0  0  0
  152.5404  142.8878  159.9058 N   0  0  0  0  0  0  0  0  0  0  0  0
  152.1920  143.4628  161.1114 C   0  0  0  0  0  0  0  0  0  0  0  0
  152.8816  142.8107  162.0930 C   0  0  0  0  0  0  0  0  0  0  0  0
  153.6489  141.8467  161.3824 C   0  0  0  0  0  0  0  0  0  0  0  0
  153.4500  141.8996  160.0757 N   0  0  0  0  0  0  0  0  0  0  0  0
  152.1213  144.9916  157.2251 H   0  0  0  0  0  0  0  0  0  0  0  0
  153.4660  144.9528  158.3557 H   0  0  0  0  0  0  0  0  0  0  0  0
  151.8649  145.4295  158.9107 H   0  0  0  0  0  0  0  0  0  0  0  0
  152.6599  142.6643  157.8602 H   0  0  0  0  0  0  0  0  0  0  0  0
  151.0616  142.0459  156.6024 H   0  0  0  0  0  0  0  0  0  0  0  0
  148.3508  141.8140  157.7185 H   0  0  0  0  0  0  0  0  0  0  0  0
  148.5136  142.5886  156.1772 H   0  0  0  0  0  0  0  0  0  0  0  0
  149.1342  139.3152  157.9846 H   0  0  0  0  0  0  0  0  0  0  0  0
  150.6771  139.6916  157.2337 H   0  0  0  0  0  0  0  0  0  0  0  0
  149.6586  138.4223  156.5638 H   0  0  0  0  0  0  0  0  0  0  0  0
  146.9185  140.0008  156.8388 H   0  0  0  0  0  0  0  0  0  0  0  0
  147.4149  138.9913  155.4923 H   0  0  0  0  0  0  0  0  0  0  0  0
  146.9470  140.6647  155.2141 H   0  0  0  0  0  0  0  0  0  0  0  0
  151.4898  144.2815  161.1693 H   0  0  0  0  0  0  0  0  0  0  0  0
  152.8477  142.9984  163.1558 H   0  0  0  0  0  0  0  0  0  0  0  0
  154.3430  141.1177  161.7738 H   0  0  0  0  0  0  0  0  0  0  0  0
  1  2  1  0  0  0  0
  1 18  1  0  0  0  0
  1 19  1  0  0  0  0
  1 20  1  0  0  0  0
  2  3  1  0  0  0  0
  2 13  1  0  0  0  0
  2 21  1  0  0  0  0
  3  4  2  0  0  0  0
  3  5  1  0  0  0  0
  5  6  1  0  0  0  0
  5 22  1  0  0  0  0
  6  7  1  0  0  0  0
  6 23  1  0  0  0  0
  6 24  1  0  0  0  0
  7  8  1  0  0  0  0
  7  9  1  0  0  0  0
  7 10  1  0  0  0  0
  8 25  1  0  0  0  0
  8 26  1  0  0  0  0
  8 27  1  0  0  0  0
  9 28  1  0  0  0  0
  9 29  1  0  0  0  0
  9 30  1  0  0  0  0
 10 11  2  0  0  0  0
 10 12  1  0  0  0  0
 13 17  1  0  0  0  0
 13 14  1  0  0  0  0
 14 15  2  0  0  0  0
 14 31  1  0  0  0  0
 15 16  1  0  0  0  0
 15 32  1  0  0  0  0
 16 17  2  0  0  0  0
 16 33  1  0  0  0  0
M  CHG  1  12  -1
M  END
> <s_m_source_file>
AV-unprocessed.smi

> <i_m_source_file_index>
3139

> <i_lp_mmshare_version>
43012

> <i_f3d_flags>
0

> <s_epik_input>
bjFbY0hdW2NIXVtjSF1uMVtDQEhdKFtDSDNdKUMoPU8pW05IXVtDSDJdQyhbQ0gzXSkoW0NIM10pQyg9TylbT0hd

> <s_epik_cmdline>
J2VwaWtfcHl0aG9uJywgJy1waCcsICc3LjAnLCAnLXRuJywgJzgnLCAnLW1hJywgJzIwMCcsICctbWV0YWxfYmluZGluZycsICctaW1hZScsICc8aW5maWxlLm1hZT4nLCAnLW9tYWUnLCAnPG91dGZpbGUubWFlPic=

> <r_lp_tautomer_probability>
1

> <r_epik_Ionization_Penalty>
0.00184643

> <r_epik_Ionization_Penalty_Charging>
0.00181045

> <r_epik_Ionization_Penalty_Neutral>
3.59763e-05

> <r_epik_State_Penalty>
0.00122842

> <r_epik_Charging_Adjusted_Penalty>
0.00303887

> <i_epik_Tot_Q>
-1

> <i_epik_Tot_abs_Q>
1

> <r_epik_Metal_State_Penalty>
-0

> <b_epik_Metal_Only>
0

> <s_lp_Force_Field>
OPLS_2005

> <r_lp_Energy>
5.55707

> <b_lp_Chiralities_Consistent>
1

> <s_lp_Variant>
AV-unprocessed.smi:3139-1

> <Gold.Version>
5.8.1

> <Gold.Id.Protein>
6NUR|6NUR_protein|mol2

> <Gold.PLP.Fitness>
41.2872

> <Gold.PLP.PLP>
-37.0963

> <Gold.PLP.part.hbond>
-4.2391

> <Gold.PLP.part.metal>
0.0000

> <Gold.PLP.part.buried>
-4.6594

> <Gold.PLP.part.nonpolar>
-29.0598

> <Gold.PLP.part.repulsive>
0.9884

> <Gold.PLP.ligand.clash>
0.0000

> <Gold.PLP.ligand.torsion>
0.6446

> <Gold.PLP.Chemscore.Hbond>
1.7840

> <Gold.PLP.Chemscore.CHOScore>
0.0000

> <Gold.PLP.Chemscore.Metal>
0.0000

> <Gold.Chemscore.Hbonds>
donor molecule, donor type, donor heavy atom, donor atom, acceptor molecule, acceptor atom, score
      P1  H  7989  7998       L1    12  0.80
      P1  H  8011  8017       L1    11  0.83

> <Gold.PLP.Chemscore.Internal.Correction>
0.1281

> <Gold.Rescore>
     Score         DG    S(hbond)    S(metal)    S(lipo)     H(rot)  DE(clash)    DE(int)     intcor
     12.55     -13.45       1.62        0.00      72.84       2.32       0.10       0.80       ----

> <Gold.Chemscore.Fitness>
12.5468

> <Gold.Chemscore.DG>
-13.4509

> <Gold.Chemscore.ZeroCoef>
-5.4800

> <Gold.Chemscore.Hbond>
1.6165

> <Gold.Chemscore.Metal>
0.0000

> <Gold.Chemscore.Lipo>
72.8353

> <Gold.Chemscore.Internal_Hbond>
0.0000

> <Gold.Chemscore.DEClash>
0.1012

> <Gold.Chemscore.DEInternal>
0.8030

> <Gold.Chemscore.Rot>
2.3241

> <Gold.Chemscore.Internal.Correction>
   9.000000E+99

> <Gold.Chemscore.Hbonds>
donor molecule, donor type, donor heavy atom, donor atom, acceptor molecule, acceptor atom, score
      P1  H  7989  7998       L1    12  0.12
      P1  H  8011  8017       L1    11  0.80

> <Gold.Chemscore.Hbond.Weighted>
-5.3990

> <Gold.Chemscore.Metal.Weighted>
-0.0000

> <Gold.Chemscore.Lipo.Weighted>
-8.5217

> <Gold.Chemscore.Internal_Hbond.Weighted>
0.0000

> <Gold.Chemscore.DEClash.Weighted>
0.1012

> <Gold.Chemscore.DEInternal.Weighted>
0.8030

> <Gold.Chemscore.Rot.Weighted>
5.9498

> <Gold.Chemscore.Internal.Correction.Weighted>
   9.000000E+99

> <Gold.Protein.RotatedTorsions>
[ 6907 6896 6895 6894 ] final -132.84 input  -60.11 | X-H torsion
[ 7974 7965 7964 7962 ] final  -50.99 input  175.53 | X-H torsion
[ 8008 7997 7996 7995 ] final  125.08 input   59.86 | X-H torsion
[ 10167 10162 10161 10158 ] final   60.40 input  -65.29 | X-H torsion
[ 10718 10713 10712 10709 ] final -108.66 input   66.30 | X-H torsion
[ 10763 10752 10751 10750 ] final   -2.39 input  -60.55 | X-H torsion
[ 11005 11000 10999 10996 ] final   33.87 input  -57.11 | X-H torsion

> <Gold.Protein.ActiveResidues>
 VAL166  LYS551  ARG553  GLY616  TRP617  ASP618  TYR619  PRO620  LYS621  CYS622 
 ASP623  PHE694  ASN695  SER759  ASP760  ASP761  ALA762  ILE779  LEU786  VAL792 
 PHE793  MET794  SER795  GLU796  ALA797  LYS798  CYS799  TRP800  GLU811  SER814 

> <Gold.Protein.RotatedAtoms>
  150.9670  133.6384  159.2744 H   0  0  0  0  0  0  0  0  0  0  0  0  # atno 6907 bound_to 6896
  151.3686  135.0917  159.9468 H   0  0  0  0  0  0  0  0  0  0  0  0  # atno 6908 bound_to 6896
  152.5169  133.9229  159.7597 H   0  0  0  0  0  0  0  0  0  0  0  0  # atno 6909 bound_to 6896
  145.9239  140.7809  142.9633 H   0  0  0  0  0  0  0  0  0  0  0  0  # atno 7974 bound_to 7965
  156.2822  140.2724  156.1892 H   0  0  0  0  0  0  0  0  0  0  0  0  # atno 8008 bound_to 7997
  155.0476  140.0386  157.2550 H   0  0  0  0  0  0  0  0  0  0  0  0  # atno 8009 bound_to 7997
  154.7222  140.2690  155.6537 H   0  0  0  0  0  0  0  0  0  0  0  0  # atno 8010 bound_to 7997
  140.1660  144.4323  150.6685 H   0  0  0  0  0  0  0  0  0  0  0  0  # atno 10167 bound_to 10162
  156.0497  130.5724  150.7993 H   0  0  0  0  0  0  0  0  0  0  0  0  # atno 10718 bound_to 10713
  153.3574  135.6988  153.6740 H   0  0  0  0  0  0  0  0  0  0  0  0  # atno 10763 bound_to 10752
  153.5442  135.3567  155.2732 H   0  0  0  0  0  0  0  0  0  0  0  0  # atno 10764 bound_to 10752
  154.8663  135.4211  154.2823 H   0  0  0  0  0  0  0  0  0  0  0  0  # atno 10765 bound_to 10752
  140.2586  134.3218  155.7865 H   0  0  0  0  0  0  0  0  0  0  0  0  # atno 11005 bound_to 11000
  144.6756  140.2019  143.7386 LP  0  0  0  0  0  0  0  0  0  0  0  0  # atno 17320 bound_to 7965
  145.8514  139.2177  143.1770 LP  0  0  0  0  0  0  0  0  0  0  0  0  # atno 17321 bound_to 7965
  140.6612  143.2253  151.5850 LP  0  0  0  0  0  0  0  0  0  0  0  0  # atno 17342 bound_to 10162
  139.5359  144.2782  152.1250 LP  0  0  0  0  0  0  0  0  0  0  0  0  # atno 17343 bound_to 10162
  157.5410  131.0940  150.9827 LP  0  0  0  0  0  0  0  0  0  0  0  0  # atno 17370 bound_to 10713
  157.0109  130.5636  149.5321 LP  0  0  0  0  0  0  0  0  0  0  0  0  # atno 17371 bound_to 10713
  141.2193  133.7396  156.9151 LP  0  0  0  0  0  0  0  0  0  0  0  0  # atno 17394 bound_to 11000
  140.1487  134.9245  157.2563 LP  0  0  0  0  0  0  0  0  0  0  0  0  # atno 17395 bound_to 11000

$$$$
