AV-unprocessed.smi:1301|AV-procd|sdf|5424|dock8
  -GOLD-   22720 4583D 1   1.00000     0.00000
 Structure written by MMmdl.
 44 45  0  0  0  0  0  0  0  0  3 V2000
  147.4493  134.8008  162.3762 C   0  0  0  0  0  0  0  0  0  0  0  0
  147.4653  135.7718  161.2458 C   0  0  0  0  0  0  0  0  0  0  0  0
  148.3079  135.9482  160.1852 C   0  0  0  0  0  0  0  0  0  0  0  0
  147.7343  137.0508  159.4953 C   0  0  0  0  0  0  0  0  0  0  0  0
  148.2112  137.6189  158.3771 N   0  5  0  0  0  0  0  0  0  0  0  0
  147.6877  138.7823  157.9285 C   0  0  0  0  0  0  0  0  0  0  0  0
  146.6540  139.3238  158.3269 O   0  0  0  0  0  0  0  0  0  0  0  0
  148.4154  139.3580  156.9611 N   0  0  0  0  0  0  0  0  0  0  0  0
  148.1293  140.6320  156.3022 C   0  0  2  0  0  0  0  0  0  0  0  0
  149.2800  141.0080  155.3537 C   0  0  0  0  0  0  0  0  0  0  0  0
  150.5574  141.3899  156.1248 C   0  0  0  0  0  0  0  0  0  0  0  0
  150.2992  142.4855  157.0948 N   0  3  2  0  0  0  0  0  0  0  0  0
  151.5448  142.9547  157.7553 C   0  0  0  0  0  0  0  0  0  0  0  0
  151.2815  143.7627  159.0451 C   0  0  0  0  0  0  0  0  0  0  0  0
  151.0408  145.2529  158.7503 C   0  0  0  0  0  0  0  0  0  0  0  0
  152.4443  143.5938  160.0345 C   0  0  0  0  0  0  0  0  0  0  0  0
  149.2242  142.1236  158.0567 C   0  0  0  0  0  0  0  0  0  0  0  0
  147.9199  141.7684  157.3223 C   0  0  0  0  0  0  0  0  0  0  0  0
  146.6492  137.5131  160.0934 N   0  0  0  0  0  0  0  0  0  0  0  0
  146.4665  136.6945  161.2142 O   0  0  0  0  0  0  0  0  0  0  0  0
  148.1470  135.1066  163.1555 H   0  0  0  0  0  0  0  0  0  0  0  0
  147.7361  133.8059  162.0352 H   0  0  0  0  0  0  0  0  0  0  0  0
  146.4555  134.7315  162.8192 H   0  0  0  0  0  0  0  0  0  0  0  0
  149.1907  135.3775  159.9389 H   0  0  0  0  0  0  0  0  0  0  0  0
  149.2461  138.8673  156.6640 H   0  0  0  0  0  0  0  0  0  0  0  0
  147.2208  140.5101  155.7098 H   0  0  0  0  0  0  0  0  0  0  0  0
  149.4882  140.1863  154.6673 H   0  0  0  0  0  0  0  0  0  0  0  0
  148.9725  141.8505  154.7327 H   0  0  0  0  0  0  0  0  0  0  0  0
  150.9584  140.5227  156.6521 H   0  0  0  0  0  0  0  0  0  0  0  0
  151.3198  141.7037  155.4107 H   0  0  0  0  0  0  0  0  0  0  0  0
  152.1848  142.0953  157.9617 H   0  0  0  0  0  0  0  0  0  0  0  0
  152.1057  143.5890  157.0670 H   0  0  0  0  0  0  0  0  0  0  0  0
  150.3930  143.3716  159.5396 H   0  0  0  0  0  0  0  0  0  0  0  0
  151.8998  145.7029  158.2520 H   0  0  0  0  0  0  0  0  0  0  0  0
  150.8625  145.8101  159.6706 H   0  0  0  0  0  0  0  0  0  0  0  0
  150.1699  145.3988  158.1110 H   0  0  0  0  0  0  0  0  0  0  0  0
  153.3780  143.9759  159.6206 H   0  0  0  0  0  0  0  0  0  0  0  0
  152.5970  142.5441  160.2871 H   0  0  0  0  0  0  0  0  0  0  0  0
  152.2504  144.1287  160.9648 H   0  0  0  0  0  0  0  0  0  0  0  0
  149.5507  141.2851  158.6739 H   0  0  0  0  0  0  0  0  0  0  0  0
  149.0264  142.9515  158.7359 H   0  0  0  0  0  0  0  0  0  0  0  0
  147.5509  142.6532  156.8018 H   0  0  0  0  0  0  0  0  0  0  0  0
  147.1471  141.5029  158.0443 H   0  0  0  0  0  0  0  0  0  0  0  0
  149.9562  143.2638  156.5504 H   0  0  0  0  0  0  0  0  0  0  0  0
  1  2  1  0  0  0  0
  1 21  1  0  0  0  0
  1 22  1  0  0  0  0
  1 23  1  0  0  0  0
  2 20  1  0  0  0  0
  2  3  2  0  0  0  0
  3  4  1  0  0  0  0
  3 24  1  0  0  0  0
  4  5  1  0  0  0  0
  4 19  2  0  0  0  0
  5  6  1  0  0  0  0
  6  7  2  0  0  0  0
  6  8  1  0  0  0  0
  8  9  1  0  0  0  0
  8 25  1  0  0  0  0
  9 18  1  0  0  0  0
  9 10  1  0  0  0  0
  9 26  1  0  0  0  0
 10 11  1  0  0  0  0
 10 27  1  0  0  0  0
 10 28  1  0  0  0  0
 11 12  1  0  0  0  0
 11 29  1  0  0  0  0
 11 30  1  0  0  0  0
 12 13  1  0  0  0  0
 12 17  1  0  0  0  0
 12 44  1  0  0  0  0
 13 14  1  0  0  0  0
 13 31  1  0  0  0  0
 13 32  1  0  0  0  0
 14 15  1  0  0  0  0
 14 16  1  0  0  0  0
 14 33  1  0  0  0  0
 15 34  1  0  0  0  0
 15 35  1  0  0  0  0
 15 36  1  0  0  0  0
 16 37  1  0  0  0  0
 16 38  1  0  0  0  0
 16 39  1  0  0  0  0
 17 18  1  0  0  0  0
 17 40  1  0  0  0  0
 17 41  1  0  0  0  0
 18 42  1  0  0  0  0
 18 43  1  0  0  0  0
 19 20  1  0  0  0  0
M  CHG  1   5  -1
M  CHG  1  12   1
M  END
> <s_m_source_file>
AV-unprocessed.smi

> <i_m_source_file_index>
1301

> <i_lp_mmshare_version>
43012

> <i_f3d_flags>
0

> <s_epik_input>
W0NIM11jMVtjSF1jKG5vMSlbTkhdQyg9TylbTkhdW0NIXTJbQ0gyXVtDSDJdTihbQ0gyXVtDSDJdMilbQ0gyXVtDSF0oW0NIM10pW0NIM10=

> <s_epik_cmdline>
J2VwaWtfcHl0aG9uJywgJy1waCcsICc3LjAnLCAnLXRuJywgJzgnLCAnLW1hJywgJzIwMCcsICctbWV0YWxfYmluZGluZycsICctaW1hZScsICc8aW5maWxlLm1hZT4nLCAnLW9tYWUnLCAnPG91dGZpbGUubWFlPic=

> <r_epik_Ionization_Penalty>
6.28597

> <r_epik_Ionization_Penalty_Charging>
6.28587

> <r_epik_Ionization_Penalty_Neutral>
9.69304e-05

> <r_epik_State_Penalty>
6.28524

> <r_epik_Charging_Adjusted_Penalty>
12.5711

> <i_epik_Tot_Q>
0

> <i_epik_Tot_abs_Q>
2

> <r_epik_Metal_State_Penalty>
2.21973

> <b_epik_Metal_Only>
1

> <s_lp_Force_Field>
OPLS_2005

> <r_lp_Energy>
6.70583

> <b_lp_Chiralities_Consistent>
1

> <s_lp_Variant>
AV-unprocessed.smi:1301-4

> <Gold.Version>
5.8.1

> <Gold.Id.Protein>
6NUR|6NUR_protein|mol2

> <Gold.PLP.Fitness>
41.1684

> <Gold.PLP.PLP>
-33.3195

> <Gold.PLP.part.hbond>
-3.0000

> <Gold.PLP.part.metal>
0.0000

> <Gold.PLP.part.buried>
-5.5154

> <Gold.PLP.part.nonpolar>
-26.5153

> <Gold.PLP.part.repulsive>
0.0590

> <Gold.PLP.ligand.clash>
0.0000

> <Gold.PLP.ligand.torsion>
0.6387

> <Gold.PLP.Chemscore.Hbond>
3.0000

> <Gold.PLP.Chemscore.CHOScore>
0.0000

> <Gold.PLP.Chemscore.Metal>
0.0000

> <Gold.Chemscore.Hbonds>
donor molecule, donor type, donor heavy atom, donor atom, acceptor molecule, acceptor atom, score
      L1  H    12    44       P1  8028  2.00
      P1  H  6934  6947       L1    19  1.00

> <Gold.PLP.Chemscore.Internal.Correction>
0.1264

> <Gold.Rescore>
     Score         DG    S(hbond)    S(metal)    S(lipo)     H(rot)  DE(clash)    DE(int)     intcor
     14.60     -18.12       1.87        0.00      85.56       1.41       0.04       3.49       ----

> <Gold.Chemscore.Fitness>
14.5967

> <Gold.Chemscore.DG>
-18.1216

> <Gold.Chemscore.ZeroCoef>
-5.4800

> <Gold.Chemscore.Hbond>
1.8658

> <Gold.Chemscore.Metal>
0.0000

> <Gold.Chemscore.Lipo>
85.5557

> <Gold.Chemscore.Internal_Hbond>
0.0000

> <Gold.Chemscore.DEClash>
0.0358

> <Gold.Chemscore.DEInternal>
3.4890

> <Gold.Chemscore.Rot>
1.4063

> <Gold.Chemscore.Internal.Correction>
   9.000000E+99

> <Gold.Chemscore.Hbonds>
donor molecule, donor type, donor heavy atom, donor atom, acceptor molecule, acceptor atom, score
      L1  H    12    44       P1  8028  0.95
      P1  H  6934  6947       L1    19  0.13

> <Gold.Chemscore.Hbond.Weighted>
-6.2318

> <Gold.Chemscore.Metal.Weighted>
-0.0000

> <Gold.Chemscore.Lipo.Weighted>
-10.0100

> <Gold.Chemscore.Internal_Hbond.Weighted>
0.0000

> <Gold.Chemscore.DEClash.Weighted>
0.0358

> <Gold.Chemscore.DEInternal.Weighted>
3.4890

> <Gold.Chemscore.Rot.Weighted>
3.6002

> <Gold.Chemscore.Internal.Correction.Weighted>
   9.000000E+99

> <Gold.Protein.RotatedTorsions>
[ 6907 6896 6895 6894 ] final  -29.86 input  -60.11 | X-H torsion
[ 7974 7965 7964 7962 ] final   86.35 input  175.53 | X-H torsion
[ 8008 7997 7996 7995 ] final   76.79 input   59.86 | X-H torsion
[ 10167 10162 10161 10158 ] final -145.98 input  -65.29 | X-H torsion
[ 10718 10713 10712 10709 ] final   87.37 input   66.30 | X-H torsion
[ 10763 10752 10751 10750 ] final  153.29 input  -60.55 | X-H torsion
[ 11005 11000 10999 10996 ] final   30.43 input  -57.11 | X-H torsion

> <Gold.Protein.ActiveResidues>
 VAL166  LYS551  ARG553  GLY616  TRP617  ASP618  TYR619  PRO620  LYS621  CYS622 
 ASP623  PHE694  ASN695  SER759  ASP760  ASP761  ALA762  ILE779  LEU786  VAL792 
 PHE793  MET794  SER795  GLU796  ALA797  LYS798  CYS799  TRP800  GLU811  SER814 

> <Gold.Protein.RotatedAtoms>
  151.1134  135.0039  159.8504 H   0  0  0  0  0  0  0  0  0  0  0  0  # atno 6907 bound_to 6896
  152.5444  134.1808  159.8645 H   0  0  0  0  0  0  0  0  0  0  0  0  # atno 6908 bound_to 6896
  151.1861  133.4651  159.2627 H   0  0  0  0  0  0  0  0  0  0  0  0  # atno 6909 bound_to 6896
  145.5734  139.2316  143.2393 H   0  0  0  0  0  0  0  0  0  0  0  0  # atno 7974 bound_to 7965
  155.8323  140.3465  155.5580 H   0  0  0  0  0  0  0  0  0  0  0  0  # atno 8008 bound_to 7997
  155.8228  140.0915  157.1858 H   0  0  0  0  0  0  0  0  0  0  0  0  # atno 8009 bound_to 7997
  154.4004  140.1427  156.3508 H   0  0  0  0  0  0  0  0  0  0  0  0  # atno 8010 bound_to 7997
  139.7756  143.8175  152.2631 H   0  0  0  0  0  0  0  0  0  0  0  0  # atno 10167 bound_to 10162
  157.6939  131.0253  150.3113 H   0  0  0  0  0  0  0  0  0  0  0  0  # atno 10718 bound_to 10713
  154.1338  135.2825  155.3178 H   0  0  0  0  0  0  0  0  0  0  0  0  # atno 10763 bound_to 10752
  154.6336  135.5426  153.7712 H   0  0  0  0  0  0  0  0  0  0  0  0  # atno 10764 bound_to 10752
  153.0273  135.6469  154.1487 H   0  0  0  0  0  0  0  0  0  0  0  0  # atno 10765 bound_to 10752
  140.2944  134.2827  155.7768 H   0  0  0  0  0  0  0  0  0  0  0  0  # atno 11005 bound_to 11000
  146.1768  140.6560  142.9208 LP  0  0  0  0  0  0  0  0  0  0  0  0  # atno 17320 bound_to 7965
  144.7427  140.4985  143.6858 LP  0  0  0  0  0  0  0  0  0  0  0  0  # atno 17321 bound_to 7965
  139.8222  144.7290  150.9557 LP  0  0  0  0  0  0  0  0  0  0  0  0  # atno 17342 bound_to 10162
  140.7816  143.4148  151.0935 LP  0  0  0  0  0  0  0  0  0  0  0  0  # atno 17343 bound_to 10162
  156.3614  130.3847  149.7248 LP  0  0  0  0  0  0  0  0  0  0  0  0  # atno 17370 bound_to 10713
  156.4693  130.7989  151.3007 LP  0  0  0  0  0  0  0  0  0  0  0  0  # atno 17371 bound_to 10713
  141.2140  133.7606  156.9673 LP  0  0  0  0  0  0  0  0  0  0  0  0  # atno 17394 bound_to 11000
  140.1166  134.9443  157.2143 LP  0  0  0  0  0  0  0  0  0  0  0  0  # atno 17395 bound_to 11000

$$$$
