AV-unprocessed.smi:365|AV-procd|sdf|2427|dock5
  -GOLD-   2262022363D 1   1.00000     0.00000
 Structure written by MMmdl.
 53 54  0  0  0  0  0  0  0  0  1 V2000
  148.5721  135.5269  155.3110 C   0  0  0  0  0  0  0  0  0  0  0  0
  147.2832  136.2395  154.8695 C   0  0  2  0  0  0  0  0  0  0  0  0
  146.9351  135.7631  153.5325 N   0  0  0  0  0  0  0  0  0  0  0  0
  145.8246  135.0742  153.2143 C   0  0  0  0  0  0  0  0  0  0  0  0
  144.9901  134.7511  154.0614 O   0  0  0  0  0  0  0  0  0  0  0  0
  145.5978  134.6927  151.7316 C   0  0  0  0  0  0  0  0  0  0  0  0
  145.5263  135.9894  150.8999 C   0  0  0  0  0  0  0  0  0  0  0  0
  144.2559  133.9409  151.6101 C   0  0  0  0  0  0  0  0  0  0  0  0
  146.7258  133.7940  151.1711 C   0  0  0  0  0  0  0  0  0  0  0  0
  147.5474  137.7530  154.8396 C   0  0  0  0  0  0  0  0  0  0  0  0
  146.9807  138.5044  155.6349 O   0  0  0  0  0  0  0  0  0  0  0  0
  148.4177  138.1835  153.9140 N   0  0  0  0  0  0  0  0  0  0  0  0
  148.8436  139.5692  153.7469 C   0  0  0  0  0  0  0  0  0  0  0  0
  149.5780  140.1611  154.9438 C   0  0  0  0  0  0  0  0  0  0  0  0
  150.6765  139.4782  155.4996 C   0  0  0  0  0  0  0  0  0  0  0  0
  151.3386  140.0283  156.6138 C   0  0  0  0  0  0  0  0  0  0  0  0
  150.8813  141.2572  157.1557 C   0  0  0  0  0  0  0  0  0  0  0  0
  151.5025  141.8677  158.2709 N   0  0  0  0  0  0  0  0  0  0  0  0
  151.1754  143.2730  158.5173 C   0  0  0  0  0  0  0  0  0  0  0  0
  152.1573  143.8922  159.5261 C   0  0  0  0  0  0  0  0  0  0  0  0
  152.1857  143.1096  160.7140 O   0  0  0  0  0  0  0  0  0  0  0  0
  152.6474  141.7888  160.4575 C   0  0  0  0  0  0  0  0  0  0  0  0
  151.6880  141.0792  159.4871 C   0  0  0  0  0  0  0  0  0  0  0  0
  149.8219  141.9083  156.6162 N   0  0  0  0  0  0  0  0  0  0  0  0
  149.1908  141.3767  155.5488 C   0  0  0  0  0  0  0  0  0  0  0  0
  148.8839  135.8523  156.3043 H   0  0  0  0  0  0  0  0  0  0  0  0
  149.3984  135.7154  154.6239 H   0  0  0  0  0  0  0  0  0  0  0  0
  148.4226  134.4476  155.3563 H   0  0  0  0  0  0  0  0  0  0  0  0
  146.4788  136.0057  155.5699 H   0  0  0  0  0  0  0  0  0  0  0  0
  147.5715  136.0013  152.7860 H   0  0  0  0  0  0  0  0  0  0  0  0
  145.3524  135.7723  149.8454 H   0  0  0  0  0  0  0  0  0  0  0  0
  146.4555  136.5574  150.9669 H   0  0  0  0  0  0  0  0  0  0  0  0
  144.7180  136.6423  151.2327 H   0  0  0  0  0  0  0  0  0  0  0  0
  143.4145  134.5534  151.9377 H   0  0  0  0  0  0  0  0  0  0  0  0
  144.2527  133.0294  152.2098 H   0  0  0  0  0  0  0  0  0  0  0  0
  144.0588  133.6515  150.5774 H   0  0  0  0  0  0  0  0  0  0  0  0
  146.5346  133.5301  150.1303 H   0  0  0  0  0  0  0  0  0  0  0  0
  146.8131  132.8595  151.7274 H   0  0  0  0  0  0  0  0  0  0  0  0
  147.6951  134.2940  151.1997 H   0  0  0  0  0  0  0  0  0  0  0  0
  148.8360  137.4992  153.3007 H   0  0  0  0  0  0  0  0  0  0  0  0
  149.5081  139.6151  152.8840 H   0  0  0  0  0  0  0  0  0  0  0  0
  147.9807  140.1917  153.5039 H   0  0  0  0  0  0  0  0  0  0  0  0
  151.0105  138.5408  155.0794 H   0  0  0  0  0  0  0  0  0  0  0  0
  152.1744  139.4882  157.0309 H   0  0  0  0  0  0  0  0  0  0  0  0
  151.2067  143.8621  157.6009 H   0  0  0  0  0  0  0  0  0  0  0  0
  150.1566  143.3335  158.9017 H   0  0  0  0  0  0  0  0  0  0  0  0
  153.1593  143.9638  159.0995 H   0  0  0  0  0  0  0  0  0  0  0  0
  151.8463  144.9065  159.7769 H   0  0  0  0  0  0  0  0  0  0  0  0
  153.6598  141.8181  160.0514 H   0  0  0  0  0  0  0  0  0  0  0  0
  152.6992  141.2418  161.3988 H   0  0  0  0  0  0  0  0  0  0  0  0
  150.7201  140.9207  159.9640 H   0  0  0  0  0  0  0  0  0  0  0  0
  152.1037  140.1006  159.2460 H   0  0  0  0  0  0  0  0  0  0  0  0
  148.3503  141.9444  155.1778 H   0  0  0  0  0  0  0  0  0  0  0  0
  1  2  1  0  0  0  0
  1 26  1  0  0  0  0
  1 27  1  0  0  0  0
  1 28  1  0  0  0  0
  2  3  1  0  0  0  0
  2 10  1  0  0  0  0
  2 29  1  0  0  0  0
  3  4  1  0  0  0  0
  3 30  1  0  0  0  0
  4  5  2  0  0  0  0
  4  6  1  0  0  0  0
  6  7  1  0  0  0  0
  6  8  1  0  0  0  0
  6  9  1  0  0  0  0
  7 31  1  0  0  0  0
  7 32  1  0  0  0  0
  7 33  1  0  0  0  0
  8 34  1  0  0  0  0
  8 35  1  0  0  0  0
  8 36  1  0  0  0  0
  9 37  1  0  0  0  0
  9 38  1  0  0  0  0
  9 39  1  0  0  0  0
 10 11  2  0  0  0  0
 10 12  1  0  0  0  0
 12 13  1  0  0  0  0
 12 40  1  0  0  0  0
 13 14  1  0  0  0  0
 13 41  1  0  0  0  0
 13 42  1  0  0  0  0
 14 25  1  0  0  0  0
 14 15  2  0  0  0  0
 15 16  1  0  0  0  0
 15 43  1  0  0  0  0
 16 17  2  0  0  0  0
 16 44  1  0  0  0  0
 17 18  1  0  0  0  0
 17 24  1  0  0  0  0
 18 23  1  0  0  0  0
 18 19  1  0  0  0  0
 19 20  1  0  0  0  0
 19 45  1  0  0  0  0
 19 46  1  0  0  0  0
 20 21  1  0  0  0  0
 20 47  1  0  0  0  0
 20 48  1  0  0  0  0
 21 22  1  0  0  0  0
 22 23  1  0  0  0  0
 22 49  1  0  0  0  0
 22 50  1  0  0  0  0
 23 51  1  0  0  0  0
 23 52  1  0  0  0  0
 24 25  2  0  0  0  0
 25 53  1  0  0  0  0
M  END
> <s_m_source_file>
AV-unprocessed.smi

> <i_m_source_file_index>
365

> <i_lp_mmshare_version>
43012

> <i_f3d_flags>
0

> <s_epik_input>
W0NIM11DKFtDSDNdKShbQ0gzXSlDKD1PKVtOSF1bQ0BASF0oW0NIM10pQyg9TylbTkhdW0NIMl1jMVtjSF1bY0hdYyhuW2NIXTEpTjJbQ0gyXVtDSDJdT1tDSDJdW0NIMl0y

> <s_epik_cmdline>
J2VwaWtfcHl0aG9uJywgJy1waCcsICc3LjAnLCAnLXRuJywgJzgnLCAnLW1hJywgJzIwMCcsICctbWV0YWxfYmluZGluZycsICctaW1hZScsICc8aW5maWxlLm1hZT4nLCAnLW9tYWUnLCAnPG91dGZpbGUubWFlPic=

> <r_lp_tautomer_probability>
1

> <r_epik_Ionization_Penalty>
0.00484327

> <r_epik_Ionization_Penalty_Charging>
0

> <r_epik_Ionization_Penalty_Neutral>
0.00484327

> <r_epik_State_Penalty>
0.0035131

> <r_epik_Charging_Adjusted_Penalty>
0.0035131

> <i_epik_Tot_Q>
0

> <i_epik_Tot_abs_Q>
0

> <r_epik_Metal_State_Penalty>
-0

> <b_epik_Metal_Only>
0

> <s_lp_Force_Field>
OPLS_2005

> <r_lp_Energy>
21.7768

> <b_lp_Chiralities_Consistent>
1

> <s_lp_Variant>
AV-unprocessed.smi:365-1

> <Gold.Version>
5.8.1

> <Gold.Id.Protein>
6NUR|6NUR_protein|mol2

> <Gold.PLP.Fitness>
46.6388

> <Gold.PLP.PLP>
-40.3449

> <Gold.PLP.part.hbond>
-2.0000

> <Gold.PLP.part.metal>
0.0000

> <Gold.PLP.part.buried>
-1.1005

> <Gold.PLP.part.nonpolar>
-37.7689

> <Gold.PLP.part.repulsive>
0.6604

> <Gold.PLP.ligand.clash>
0.0000

> <Gold.PLP.ligand.torsion>
0.4426

> <Gold.PLP.Chemscore.Hbond>
2.0000

> <Gold.PLP.Chemscore.CHOScore>
0.2194

> <Gold.PLP.Chemscore.Metal>
0.0000

> <Gold.Chemscore.Hbonds>
donor molecule, donor type, donor heavy atom, donor atom, acceptor molecule, acceptor atom, score
      L1  H     3    30       P1  7948  1.00
      L1  H    12    40       P1  7948  1.00
      L1  C    25    53       P1  8028  0.11

> <Gold.PLP.Chemscore.Internal.Correction>
0.5209

> <Gold.Rescore>
     Score         DG    S(hbond)    S(metal)    S(lipo)     H(rot)  DE(clash)    DE(int)     intcor
     16.69     -18.72       1.98        0.00     101.32       2.04       1.46       0.56       ----

> <Gold.Chemscore.Fitness>
16.6939

> <Gold.Chemscore.DG>
-18.7175

> <Gold.Chemscore.ZeroCoef>
-5.4800

> <Gold.Chemscore.Hbond>
1.9751

> <Gold.Chemscore.Metal>
0.0000

> <Gold.Chemscore.Lipo>
101.3219

> <Gold.Chemscore.Internal_Hbond>
0.0000

> <Gold.Chemscore.DEClash>
1.4623

> <Gold.Chemscore.DEInternal>
0.5612

> <Gold.Chemscore.Rot>
2.0367

> <Gold.Chemscore.Internal.Correction>
   9.000000E+99

> <Gold.Chemscore.Hbonds>
donor molecule, donor type, donor heavy atom, donor atom, acceptor molecule, acceptor atom, score
      L1  H     3    30       P1  7948  1.00
      L1  H    12    40       P1  7948  0.99

> <Gold.Chemscore.Hbond.Weighted>
-6.5968

> <Gold.Chemscore.Metal.Weighted>
-0.0000

> <Gold.Chemscore.Lipo.Weighted>
-11.8547

> <Gold.Chemscore.Internal_Hbond.Weighted>
0.0000

> <Gold.Chemscore.DEClash.Weighted>
1.4623

> <Gold.Chemscore.DEInternal.Weighted>
0.5612

> <Gold.Chemscore.Rot.Weighted>
5.2140

> <Gold.Chemscore.Internal.Correction.Weighted>
   9.000000E+99

> <Gold.Protein.RotatedTorsions>
[ 6907 6896 6895 6894 ] final  109.88 input  -60.11 | X-H torsion
[ 7974 7965 7964 7962 ] final   76.04 input  175.53 | X-H torsion
[ 8008 7997 7996 7995 ] final   85.98 input   59.86 | X-H torsion
[ 10167 10162 10161 10158 ] final  -61.02 input  -65.29 | X-H torsion
[ 10718 10713 10712 10709 ] final  139.11 input   66.30 | X-H torsion
[ 10763 10752 10751 10750 ] final   -9.25 input  -60.55 | X-H torsion
[ 11005 11000 10999 10996 ] final  153.30 input  -57.11 | X-H torsion

> <Gold.Protein.ActiveResidues>
 VAL166  LYS551  ARG553  GLY616  TRP617  ASP618  TYR619  PRO620  LYS621  CYS622 
 ASP623  PHE694  ASN695  SER759  ASP760  ASP761  ALA762  ILE779  LEU786  VAL792 
 PHE793  MET794  SER795  GLU796  ALA797  LYS798  CYS799  TRP800  GLU811  SER814 

> <Gold.Protein.RotatedAtoms>
  152.5046  133.8880  159.7379 H   0  0  0  0  0  0  0  0  0  0  0  0  # atno 6907 bound_to 6896
  150.9326  133.6740  159.2814 H   0  0  0  0  0  0  0  0  0  0  0  0  # atno 6908 bound_to 6896
  151.4079  135.0985  159.9629 H   0  0  0  0  0  0  0  0  0  0  0  0  # atno 6909 bound_to 6896
  145.7080  139.2605  143.1667 H   0  0  0  0  0  0  0  0  0  0  0  0  # atno 7974 bound_to 7965
  155.9569  140.3396  155.6456 H   0  0  0  0  0  0  0  0  0  0  0  0  # atno 8008 bound_to 7997
  155.6848  140.0742  157.2489 H   0  0  0  0  0  0  0  0  0  0  0  0  # atno 8009 bound_to 7997
  154.4134  140.1668  156.2010 H   0  0  0  0  0  0  0  0  0  0  0  0  # atno 8010 bound_to 7997
  140.6033  143.2367  151.5878 H   0  0  0  0  0  0  0  0  0  0  0  0  # atno 10167 bound_to 10162
  157.4179  131.1035  151.0384 H   0  0  0  0  0  0  0  0  0  0  0  0  # atno 10718 bound_to 10713
  153.4521  135.7015  153.6102 H   0  0  0  0  0  0  0  0  0  0  0  0  # atno 10763 bound_to 10752
  153.4433  135.3775  155.2241 H   0  0  0  0  0  0  0  0  0  0  0  0  # atno 10764 bound_to 10752
  154.8728  135.3979  154.3935 H   0  0  0  0  0  0  0  0  0  0  0  0  # atno 10765 bound_to 10752
  140.1385  134.8754  157.2300 H   0  0  0  0  0  0  0  0  0  0  0  0  # atno 11005 bound_to 11000
  146.0738  140.7839  142.9675 LP  0  0  0  0  0  0  0  0  0  0  0  0  # atno 17320 bound_to 7965
  144.6950  140.3383  143.7203 LP  0  0  0  0  0  0  0  0  0  0  0  0  # atno 17321 bound_to 7965
  139.5307  144.2925  152.1140 LP  0  0  0  0  0  0  0  0  0  0  0  0  # atno 17342 bound_to 10162
  140.2110  144.4563  150.6386 LP  0  0  0  0  0  0  0  0  0  0  0  0  # atno 17343 bound_to 10162
  157.1325  130.6108  149.5533 LP  0  0  0  0  0  0  0  0  0  0  0  0  # atno 17370 bound_to 10713
  155.9871  130.4909  150.7110 LP  0  0  0  0  0  0  0  0  0  0  0  0  # atno 17371 bound_to 10713
  140.2752  134.3414  155.7360 LP  0  0  0  0  0  0  0  0  0  0  0  0  # atno 17394 bound_to 11000
  141.2182  133.7446  156.9281 LP  0  0  0  0  0  0  0  0  0  0  0  0  # atno 17395 bound_to 11000

$$$$
