AV-unprocessed.smi:3303|AV-procd|sdf|12666|dock3
  -GOLD-   2272019 03D 1   1.00000     0.00000
 Structure written by MMmdl.
 45 46  0  0  0  0  0  0  0  0  3 V2000
  147.0968  140.0394  153.5383 C   0  0  0  0  0  0  0  0  0  0  0  0
  147.8088  141.2475  154.1732 C   0  0  1  0  0  0  0  0  0  0  0  0
  147.2593  142.5809  153.6253 C   0  0  0  0  0  0  0  0  0  0  0  0
  145.8926  142.8795  154.1294 N   0  3  2  0  0  0  0  0  0  0  0  0
  145.3331  144.0800  153.4616 C   0  0  0  0  0  0  0  0  0  0  0  0
  145.8452  142.9343  155.6217 C   0  0  1  0  0  0  0  0  0  0  0  0
  144.4300  143.2210  156.1609 C   0  0  0  0  0  0  0  0  0  0  0  0
  146.3671  141.6131  156.2289 C   0  0  0  0  0  0  0  0  0  0  0  0
  147.7625  141.2153  155.7154 C   0  0  2  0  0  0  0  0  0  0  0  0
  148.8092  142.0888  156.2980 N   0  3  0  0  0  0  0  0  0  0  0  0
  150.1946  141.6926  155.9751 C   0  0  0  0  0  0  0  0  0  0  0  0
  150.9882  141.3610  157.2458 C   0  0  0  0  0  0  0  0  0  0  0  0
  151.3759  142.6094  158.0150 C   0  0  0  0  0  0  0  0  0  0  0  0
  152.5270  142.6284  158.8312 C   0  0  0  0  0  0  0  0  0  0  0  0
  152.8317  143.8118  159.5319 C   0  0  0  0  0  0  0  0  0  0  0  0
  151.9771  144.9223  159.3915 C   0  0  0  0  0  0  0  0  0  0  0  0
  150.8515  144.8008  158.5528 C   0  0  0  0  0  0  0  0  0  0  0  0
  150.5500  143.6707  157.8767 N   0  0  0  0  0  0  0  0  0  0  0  0
  146.0307  140.0264  153.7653 H   0  0  0  0  0  0  0  0  0  0  0  0
  147.5230  139.1009  153.8940 H   0  0  0  0  0  0  0  0  0  0  0  0
  147.2013  140.0510  152.4529 H   0  0  0  0  0  0  0  0  0  0  0  0
  148.8538  141.1705  153.8681 H   0  0  0  0  0  0  0  0  0  0  0  0
  147.9258  143.3999  153.9005 H   0  0  0  0  0  0  0  0  0  0  0  0
  147.2518  142.5465  152.5347 H   0  0  0  0  0  0  0  0  0  0  0  0
  145.8349  144.9876  153.7998 H   0  0  0  0  0  0  0  0  0  0  0  0
  144.2651  144.1823  153.6508 H   0  0  0  0  0  0  0  0  0  0  0  0
  145.4509  144.0117  152.3795 H   0  0  0  0  0  0  0  0  0  0  0  0
  146.4969  143.7464  155.9480 H   0  0  0  0  0  0  0  0  0  0  0  0
  144.4072  143.1547  157.2492 H   0  0  0  0  0  0  0  0  0  0  0  0
  143.7033  142.5059  155.7733 H   0  0  0  0  0  0  0  0  0  0  0  0
  144.0886  144.2241  155.9057 H   0  0  0  0  0  0  0  0  0  0  0  0
  146.3835  141.6805  157.3179 H   0  0  0  0  0  0  0  0  0  0  0  0
  145.6627  140.8131  155.9969 H   0  0  0  0  0  0  0  0  0  0  0  0
  147.9558  140.1923  156.0439 H   0  0  0  0  0  0  0  0  0  0  0  0
  148.6640  143.0311  155.9645 H   0  0  0  0  0  0  0  0  0  0  0  0
  150.1700  140.8259  155.3128 H   0  0  0  0  0  0  0  0  0  0  0  0
  150.6846  142.5028  155.4328 H   0  0  0  0  0  0  0  0  0  0  0  0
  150.4019  140.7074  157.8935 H   0  0  0  0  0  0  0  0  0  0  0  0
  151.8939  140.8086  156.9904 H   0  0  0  0  0  0  0  0  0  0  0  0
  153.1627  141.7598  158.9218 H   0  0  0  0  0  0  0  0  0  0  0  0
  153.7039  143.8662  160.1667 H   0  0  0  0  0  0  0  0  0  0  0  0
  152.1789  145.8456  159.9141 H   0  0  0  0  0  0  0  0  0  0  0  0
  150.1743  145.6318  158.4224 H   0  0  0  0  0  0  0  0  0  0  0  0
  148.7094  142.0851  157.3033 H   0  0  0  0  0  0  0  0  0  0  0  0
  145.3095  142.1036  153.8479 H   0  0  0  0  0  0  0  0  0  0  0  0
  1  2  1  0  0  0  0
  1 19  1  0  0  0  0
  1 20  1  0  0  0  0
  1 21  1  0  0  0  0
  2  9  1  0  0  0  0
  2  3  1  0  0  0  0
  2 22  1  0  0  0  0
  3  4  1  0  0  0  0
  3 23  1  0  0  0  0
  3 24  1  0  0  0  0
  4  5  1  0  0  0  0
  4  6  1  0  0  0  0
  4 45  1  0  0  0  0
  5 25  1  0  0  0  0
  5 26  1  0  0  0  0
  5 27  1  0  0  0  0
  6  7  1  0  0  0  0
  6  8  1  0  0  0  0
  6 28  1  0  0  0  0
  7 29  1  0  0  0  0
  7 30  1  0  0  0  0
  7 31  1  0  0  0  0
  8  9  1  0  0  0  0
  8 32  1  0  0  0  0
  8 33  1  0  0  0  0
  9 10  1  0  0  0  0
  9 34  1  0  0  0  0
 10 11  1  0  0  0  0
 10 35  1  0  0  0  0
 10 44  1  0  0  0  0
 11 12  1  0  0  0  0
 11 36  1  0  0  0  0
 11 37  1  0  0  0  0
 12 13  1  0  0  0  0
 12 38  1  0  0  0  0
 12 39  1  0  0  0  0
 13 18  1  0  0  0  0
 13 14  2  0  0  0  0
 14 15  1  0  0  0  0
 14 40  1  0  0  0  0
 15 16  2  0  0  0  0
 15 41  1  0  0  0  0
 16 17  1  0  0  0  0
 16 42  1  0  0  0  0
 17 18  2  0  0  0  0
 17 43  1  0  0  0  0
M  CHG  1   4   1
M  CHG  1  10   1
M  END
> <s_m_source_file>
AV-unprocessed.smi

> <i_m_source_file_index>
3303

> <i_lp_mmshare_version>
43012

> <i_f3d_flags>
0

> <s_epik_input>
W0NIM11bQ0BASF0xW0NIMl1OKFtDSDNdKVtDQEBIXShbQ0gzXSlbQ0gyXVtDQEhdMVtOSF1bQ0gyXVtDSDJdYzJbY0hdW2NIXVtjSF1bY0hdbjI=

> <s_epik_cmdline>
J2VwaWtfcHl0aG9uJywgJy1waCcsICc3LjAnLCAnLXRuJywgJzgnLCAnLW1hJywgJzIwMCcsICctbWV0YWxfYmluZGluZycsICctaW1hZScsICc8aW5maWxlLm1hZT4nLCAnLW9tYWUnLCAnPG91dGZpbGUubWFlPic=

> <r_epik_Ionization_Penalty>
0.0769462

> <r_epik_Ionization_Penalty_Charging>
0.0759813

> <r_epik_Ionization_Penalty_Neutral>
0.000964829

> <r_epik_State_Penalty>
0.0654373

> <r_epik_Charging_Adjusted_Penalty>
0.141419

> <i_epik_Tot_Q>
2

> <i_epik_Tot_abs_Q>
2

> <r_epik_Metal_State_Penalty>
0.0656439

> <b_epik_Metal_Only>
0

> <s_lp_Force_Field>
OPLS_2005

> <r_lp_Energy>
35.1377

> <b_lp_Chiralities_Consistent>
1

> <s_lp_Variant>
AV-unprocessed.smi:3303-10

> <Gold.Version>
5.8.1

> <Gold.Id.Protein>
6NUR|6NUR_protein|mol2

> <Gold.PLP.Fitness>
44.3015

> <Gold.PLP.PLP>
-36.8940

> <Gold.PLP.part.hbond>
-1.0000

> <Gold.PLP.part.metal>
0.0000

> <Gold.PLP.part.buried>
-6.5079

> <Gold.PLP.part.nonpolar>
-31.1545

> <Gold.PLP.part.repulsive>
1.3198

> <Gold.PLP.ligand.clash>
0.0000

> <Gold.PLP.ligand.torsion>
0.8094

> <Gold.PLP.Chemscore.Hbond>
2.0000

> <Gold.PLP.Chemscore.CHOScore>
1.0000

> <Gold.PLP.Chemscore.Metal>
0.0000

> <Gold.Chemscore.Hbonds>
donor molecule, donor type, donor heavy atom, donor atom, acceptor molecule, acceptor atom, score
      L1  H    10    35       P1  8028  2.00
      L1  C    17    43       P1  8029  0.95

> <Gold.PLP.Chemscore.Internal.Correction>
0.0263

> <Gold.Rescore>
     Score         DG    S(hbond)    S(metal)    S(lipo)     H(rot)  DE(clash)    DE(int)     intcor
     15.42     -18.47       0.99        0.00     112.83       1.37       1.01       2.05       ----

> <Gold.Chemscore.Fitness>
15.4176

> <Gold.Chemscore.DG>
-18.4730

> <Gold.Chemscore.ZeroCoef>
-5.4800

> <Gold.Chemscore.Hbond>
0.9911

> <Gold.Chemscore.Metal>
0.0000

> <Gold.Chemscore.Lipo>
112.8298

> <Gold.Chemscore.Internal_Hbond>
0.0000

> <Gold.Chemscore.DEClash>
1.0087

> <Gold.Chemscore.DEInternal>
2.0467

> <Gold.Chemscore.Rot>
1.3744

> <Gold.Chemscore.Internal.Correction>
   9.000000E+99

> <Gold.Chemscore.Hbonds>
donor molecule, donor type, donor heavy atom, donor atom, acceptor molecule, acceptor atom, score
      L1  H    10    35       P1  8028  0.99

> <Gold.Chemscore.Hbond.Weighted>
-3.3103

> <Gold.Chemscore.Metal.Weighted>
-0.0000

> <Gold.Chemscore.Lipo.Weighted>
-13.2011

> <Gold.Chemscore.Internal_Hbond.Weighted>
0.0000

> <Gold.Chemscore.DEClash.Weighted>
1.0087

> <Gold.Chemscore.DEInternal.Weighted>
2.0467

> <Gold.Chemscore.Rot.Weighted>
3.5185

> <Gold.Chemscore.Internal.Correction.Weighted>
   9.000000E+99

> <Gold.Protein.RotatedTorsions>
[ 6907 6896 6895 6894 ] final  162.68 input  -60.11 | X-H torsion
[ 7974 7965 7964 7962 ] final  -59.94 input  175.53 | X-H torsion
[ 8008 7997 7996 7995 ] final    5.85 input   59.86 | X-H torsion
[ 10167 10162 10161 10158 ] final   94.72 input  -65.29 | X-H torsion
[ 10718 10713 10712 10709 ] final  -58.75 input   66.30 | X-H torsion
[ 10763 10752 10751 10750 ] final   92.86 input  -60.55 | X-H torsion
[ 11005 11000 10999 10996 ] final  -91.67 input  -57.11 | X-H torsion

> <Gold.Protein.ActiveResidues>
 VAL166  LYS551  ARG553  GLY616  TRP617  ASP618  TYR619  PRO620  LYS621  CYS622 
 ASP623  PHE694  ASN695  SER759  ASP760  ASP761  ALA762  ILE779  LEU786  VAL792 
 PHE793  MET794  SER795  GLU796  ALA797  LYS798  CYS799  TRP800  GLU811  SER814 

> <Gold.Protein.RotatedAtoms>
  151.9367  133.3626  159.3950 H   0  0  0  0  0  0  0  0  0  0  0  0  # atno 6907 bound_to 6896
  150.7006  134.4481  159.5333 H   0  0  0  0  0  0  0  0  0  0  0  0  # atno 6908 bound_to 6896
  152.2131  134.8483  160.0546 H   0  0  0  0  0  0  0  0  0  0  0  0  # atno 6909 bound_to 6896
  145.8214  140.8537  143.0130 H   0  0  0  0  0  0  0  0  0  0  0  0  # atno 7974 bound_to 7965
  154.7335  140.2735  155.6435 H   0  0  0  0  0  0  0  0  0  0  0  0  # atno 8008 bound_to 7997
  156.2856  140.2711  156.1968 H   0  0  0  0  0  0  0  0  0  0  0  0  # atno 8009 bound_to 7997
  155.0350  140.0371  157.2478 H   0  0  0  0  0  0  0  0  0  0  0  0  # atno 8010 bound_to 7997
  139.8057  144.6795  150.9707 H   0  0  0  0  0  0  0  0  0  0  0  0  # atno 10167 bound_to 10162
  156.1112  130.4175  150.0620 H   0  0  0  0  0  0  0  0  0  0  0  0  # atno 10718 bound_to 10713
  153.2238  135.4346  155.0519 H   0  0  0  0  0  0  0  0  0  0  0  0  # atno 10763 bound_to 10752
  154.8263  135.3363  154.6888 H   0  0  0  0  0  0  0  0  0  0  0  0  # atno 10764 bound_to 10752
  153.7318  135.7010  153.5043 H   0  0  0  0  0  0  0  0  0  0  0  0  # atno 10765 bound_to 10752
  141.1539  133.7771  156.9912 H   0  0  0  0  0  0  0  0  0  0  0  0  # atno 11005 bound_to 11000
  144.6747  140.0539  143.7478 LP  0  0  0  0  0  0  0  0  0  0  0  0  # atno 17320 bound_to 7965
  145.9670  139.2842  143.1121 LP  0  0  0  0  0  0  0  0  0  0  0  0  # atno 17321 bound_to 7965
  140.7819  143.4236  151.0802 LP  0  0  0  0  0  0  0  0  0  0  0  0  # atno 17342 bound_to 10162
  139.7906  143.8224  152.3151 LP  0  0  0  0  0  0  0  0  0  0  0  0  # atno 17343 bound_to 10162
  156.8583  130.9483  151.3620 LP  0  0  0  0  0  0  0  0  0  0  0  0  # atno 17370 bound_to 10713
  157.6293  130.8716  149.9245 LP  0  0  0  0  0  0  0  0  0  0  0  0  # atno 17371 bound_to 10713
  140.1002  134.9540  157.1911 LP  0  0  0  0  0  0  0  0  0  0  0  0  # atno 17394 bound_to 11000
  140.3329  134.2790  155.7225 LP  0  0  0  0  0  0  0  0  0  0  0  0  # atno 17395 bound_to 11000

$$$$
