AV-unprocessed.smi:3133|AV-procd|sdf|11937|dock10
  -GOLD-   2272017323D 1   1.00000     0.00000
 Structure written by MMmdl.
 32 33  0  0  0  0  0  0  0  0  1 V2000
  148.8936  141.6625  154.4157 C   0  0  0  0  0  0  0  0  0  0  0  0
  149.4896  140.8133  155.5572 C   0  0  2  0  0  0  0  0  0  0  0  0
  150.7164  141.4668  156.2168 C   0  0  0  0  0  0  0  0  0  0  0  0
  151.7592  140.8314  156.3762 O   0  0  0  0  0  0  0  0  0  0  0  0
  150.5775  142.7502  156.5876 N   0  0  0  0  0  0  0  0  0  0  0  0
  151.6028  143.5640  157.2327 C   0  0  0  0  0  0  0  0  0  0  0  0
  151.3898  143.6499  158.7531 C   0  0  2  0  0  0  0  0  0  0  0  0
  152.1277  144.7960  159.4485 C   0  0  0  0  0  0  0  0  0  0  0  0
  152.2742  144.2570  160.8525 C   0  0  0  0  0  0  0  0  0  0  0  0
  152.5636  142.7840  160.5842 C   0  0  0  0  0  0  0  0  0  0  0  0
  151.8663  142.4629  159.3832 O   0  0  0  0  0  0  0  0  0  0  0  0
  149.8035  139.4580  155.1197 N   0  0  0  0  0  0  0  0  0  0  0  0
  149.2748  138.2912  155.4950 C   0  0  0  0  0  0  0  0  0  0  0  0
  149.8337  137.2360  154.9193 N   0  0  0  0  0  0  0  0  0  0  0  0
  150.7727  137.8656  154.1525 C   0  0  0  0  0  0  0  0  0  0  0  0
  150.8032  139.1951  154.2412 N   0  0  0  0  0  0  0  0  0  0  0  0
  148.6062  142.6532  154.7698 H   0  0  0  0  0  0  0  0  0  0  0  0
  147.9993  141.1908  154.0077 H   0  0  0  0  0  0  0  0  0  0  0  0
  149.5989  141.7968  153.5944 H   0  0  0  0  0  0  0  0  0  0  0  0
  148.7235  140.7306  156.3298 H   0  0  0  0  0  0  0  0  0  0  0  0
  149.6886  143.1971  156.4167 H   0  0  0  0  0  0  0  0  0  0  0  0
  152.5681  143.1004  157.0285 H   0  0  0  0  0  0  0  0  0  0  0  0
  151.6486  144.5628  156.7954 H   0  0  0  0  0  0  0  0  0  0  0  0
  150.3239  143.7257  158.9742 H   0  0  0  0  0  0  0  0  0  0  0  0
  153.1129  144.9463  159.0049 H   0  0  0  0  0  0  0  0  0  0  0  0
  151.5857  145.7410  159.4059 H   0  0  0  0  0  0  0  0  0  0  0  0
  153.0611  144.7503  161.4237 H   0  0  0  0  0  0  0  0  0  0  0  0
  151.3345  144.3645  161.3960 H   0  0  0  0  0  0  0  0  0  0  0  0
  153.6303  142.6319  160.4151 H   0  0  0  0  0  0  0  0  0  0  0  0
  152.2561  142.1413  161.4095 H   0  0  0  0  0  0  0  0  0  0  0  0
  148.4672  138.2116  156.2079 H   0  0  0  0  0  0  0  0  0  0  0  0
  151.4576  137.3272  153.5141 H   0  0  0  0  0  0  0  0  0  0  0  0
  1  2  1  0  0  0  0
  1 17  1  0  0  0  0
  1 18  1  0  0  0  0
  1 19  1  0  0  0  0
  2  3  1  0  0  0  0
  2 12  1  0  0  0  0
  2 20  1  0  0  0  0
  3  4  2  0  0  0  0
  3  5  1  0  0  0  0
  5  6  1  0  0  0  0
  5 21  1  0  0  0  0
  6  7  1  0  0  0  0
  6 22  1  0  0  0  0
  6 23  1  0  0  0  0
  7 11  1  0  0  0  0
  7  8  1  0  0  0  0
  7 24  1  0  0  0  0
  8  9  1  0  0  0  0
  8 25  1  0  0  0  0
  8 26  1  0  0  0  0
  9 10  1  0  0  0  0
  9 27  1  0  0  0  0
  9 28  1  0  0  0  0
 10 11  1  0  0  0  0
 10 29  1  0  0  0  0
 10 30  1  0  0  0  0
 12 16  1  0  0  0  0
 12 13  1  0  0  0  0
 13 14  2  0  0  0  0
 13 31  1  0  0  0  0
 14 15  1  0  0  0  0
 15 16  2  0  0  0  0
 15 32  1  0  0  0  0
M  END
> <s_m_source_file>
AV-unprocessed.smi

> <i_m_source_file_index>
3133

> <i_lp_mmshare_version>
43012

> <i_f3d_flags>
0

> <s_epik_input>
bjFbY0hdbltjSF1uMVtDQEhdKFtDSDNdKUMoPU8pW05IXVtDSDJdW0NAQEhdMltDSDJdW0NIMl1bQ0gyXU8y

> <s_epik_cmdline>
J2VwaWtfcHl0aG9uJywgJy1waCcsICc3LjAnLCAnLXRuJywgJzgnLCAnLW1hJywgJzIwMCcsICctbWV0YWxfYmluZGluZycsICctaW1hZScsICc8aW5maWxlLm1hZT4nLCAnLW9tYWUnLCAnPG91dGZpbGUubWFlPic=

> <r_lp_tautomer_probability>
1

> <r_epik_Ionization_Penalty>
1.2027e-05

> <r_epik_Ionization_Penalty_Charging>
0

> <r_epik_Ionization_Penalty_Neutral>
1.2027e-05

> <r_epik_State_Penalty>
-0

> <r_epik_Charging_Adjusted_Penalty>
0

> <i_epik_Tot_Q>
0

> <i_epik_Tot_abs_Q>
0

> <r_epik_Metal_State_Penalty>
-0

> <b_epik_Metal_Only>
0

> <s_lp_Force_Field>
OPLS_2005

> <r_lp_Energy>
23.5717

> <b_lp_Chiralities_Consistent>
1

> <s_lp_Variant>
AV-unprocessed.smi:3133-1

> <Gold.Version>
5.8.1

> <Gold.Id.Protein>
6NUR|6NUR_protein|mol2

> <Gold.PLP.Fitness>
39.6832

> <Gold.PLP.PLP>
-32.0660

> <Gold.PLP.part.hbond>
-2.0000

> <Gold.PLP.part.metal>
0.0000

> <Gold.PLP.part.buried>
-1.2057

> <Gold.PLP.part.nonpolar>
-28.6242

> <Gold.PLP.part.repulsive>
0.4058

> <Gold.PLP.ligand.clash>
0.0000

> <Gold.PLP.ligand.torsion>
0.4702

> <Gold.PLP.Chemscore.Hbond>
1.8160

> <Gold.PLP.Chemscore.CHOScore>
1.0000

> <Gold.PLP.Chemscore.Metal>
0.0000

> <Gold.Chemscore.Hbonds>
donor molecule, donor type, donor heavy atom, donor atom, acceptor molecule, acceptor atom, score
      L1  H     5    21       P1  8028  0.86
      P1  H  7989  7998       L1    16  1.00
      L1  C    15    32       P1  7949  1.00

> <Gold.PLP.Chemscore.Internal.Correction>
0.1096

> <Gold.Rescore>
     Score         DG    S(hbond)    S(metal)    S(lipo)     H(rot)  DE(clash)    DE(int)     intcor
     11.73     -14.14       1.74        0.00      73.67       2.26       0.54       1.87       ----

> <Gold.Chemscore.Fitness>
11.7275

> <Gold.Chemscore.DG>
-14.1378

> <Gold.Chemscore.ZeroCoef>
-5.4800

> <Gold.Chemscore.Hbond>
1.7404

> <Gold.Chemscore.Metal>
0.0000

> <Gold.Chemscore.Lipo>
73.6711

> <Gold.Chemscore.Internal_Hbond>
0.0000

> <Gold.Chemscore.DEClash>
0.5397

> <Gold.Chemscore.DEInternal>
1.8706

> <Gold.Chemscore.Rot>
2.2558

> <Gold.Chemscore.Internal.Correction>
   9.000000E+99

> <Gold.Chemscore.Hbonds>
donor molecule, donor type, donor heavy atom, donor atom, acceptor molecule, acceptor atom, score
      L1  H     5    21       P1  8028  0.85
      P1  H  7989  7998       L1    16  0.82

> <Gold.Chemscore.Hbond.Weighted>
-5.8130

> <Gold.Chemscore.Metal.Weighted>
-0.0000

> <Gold.Chemscore.Lipo.Weighted>
-8.6195

> <Gold.Chemscore.Internal_Hbond.Weighted>
0.0000

> <Gold.Chemscore.DEClash.Weighted>
0.5397

> <Gold.Chemscore.DEInternal.Weighted>
1.8706

> <Gold.Chemscore.Rot.Weighted>
5.7747

> <Gold.Chemscore.Internal.Correction.Weighted>
   9.000000E+99

> <Gold.Protein.RotatedTorsions>
[ 6907 6896 6895 6894 ] final   29.13 input  -60.11 | X-H torsion
[ 7974 7965 7964 7962 ] final  -18.76 input  175.53 | X-H torsion
[ 8008 7997 7996 7995 ] final   79.92 input   59.86 | X-H torsion
[ 10167 10162 10161 10158 ] final   35.32 input  -65.29 | X-H torsion
[ 10718 10713 10712 10709 ] final -179.24 input   66.30 | X-H torsion
[ 10763 10752 10751 10750 ] final  116.44 input  -60.55 | X-H torsion
[ 11005 11000 10999 10996 ] final  169.37 input  -57.11 | X-H torsion

> <Gold.Protein.ActiveResidues>
 VAL166  LYS551  ARG553  GLY616  TRP617  ASP618  TYR619  PRO620  LYS621  CYS622 
 ASP623  PHE694  ASN695  SER759  ASP760  ASP761  ALA762  ILE779  LEU786  VAL792 
 PHE793  MET794  SER795  GLU796  ALA797  LYS798  CYS799  TRP800  GLU811  SER814 

> <Gold.Protein.RotatedAtoms>
  152.0271  134.9789  160.0571 H   0  0  0  0  0  0  0  0  0  0  0  0  # atno 6907 bound_to 6896
  152.1281  133.4387  159.4716 H   0  0  0  0  0  0  0  0  0  0  0  0  # atno 6908 bound_to 6896
  150.6854  134.2372  159.4501 H   0  0  0  0  0  0  0  0  0  0  0  0  # atno 6909 bound_to 6896
  146.1876  140.3966  142.8470 H   0  0  0  0  0  0  0  0  0  0  0  0  # atno 7974 bound_to 7965
  155.8763  140.3446  155.5856 H   0  0  0  0  0  0  0  0  0  0  0  0  # atno 8008 bound_to 7997
  155.7770  140.0853  157.2098 H   0  0  0  0  0  0  0  0  0  0  0  0  # atno 8009 bound_to 7997
  154.4021  140.1508  156.2995 H   0  0  0  0  0  0  0  0  0  0  0  0  # atno 8010 bound_to 7997
  140.4233  144.1429  150.6150 H   0  0  0  0  0  0  0  0  0  0  0  0  # atno 10167 bound_to 10162
  156.8562  130.9736  151.3088 H   0  0  0  0  0  0  0  0  0  0  0  0  # atno 10718 bound_to 10713
  153.5372  135.3566  155.2702 H   0  0  0  0  0  0  0  0  0  0  0  0  # atno 10763 bound_to 10752
  154.8721  135.4082  154.3084 H   0  0  0  0  0  0  0  0  0  0  0  0  # atno 10764 bound_to 10752
  153.3784  135.7067  153.6652 H   0  0  0  0  0  0  0  0  0  0  0  0  # atno 10765 bound_to 10752
  140.2970  134.7626  157.3885 H   0  0  0  0  0  0  0  0  0  0  0  0  # atno 11005 bound_to 11000
  144.8426  140.6880  143.6220 LP  0  0  0  0  0  0  0  0  0  0  0  0  # atno 17320 bound_to 7965
  145.3891  139.1620  143.4238 LP  0  0  0  0  0  0  0  0  0  0  0  0  # atno 17321 bound_to 7965
  140.4509  143.2487  151.9349 LP  0  0  0  0  0  0  0  0  0  0  0  0  # atno 17342 bound_to 10162
  139.4783  144.5563  151.8309 LP  0  0  0  0  0  0  0  0  0  0  0  0  # atno 17343 bound_to 10162
  157.6276  130.8703  149.9216 LP  0  0  0  0  0  0  0  0  0  0  0  0  # atno 17370 bound_to 10713
  156.0801  130.3674  150.0597 LP  0  0  0  0  0  0  0  0  0  0  0  0  # atno 17371 bound_to 10713
  140.1144  134.5303  155.8238 LP  0  0  0  0  0  0  0  0  0  0  0  0  # atno 17394 bound_to 11000
  141.2135  133.6735  156.6748 LP  0  0  0  0  0  0  0  0  0  0  0  0  # atno 17395 bound_to 11000

$$$$
