AV-unprocessed.smi:2026|AV-procd|sdf|8204|dock9
  -GOLD-   2272010463D 1   1.00000     0.00000
 Structure written by MMmdl.
 47 49  0  0  0  0  0  0  0  0  2 V2000
  152.1814  145.3757  160.1676 C   0  0  0  0  0  0  0  0  0  0  0  0
  151.8539  144.0250  159.5545 C   0  0  0  0  0  0  0  0  0  0  0  0
  151.0857  143.9914  158.3689 C   0  0  0  0  0  0  0  0  0  0  0  0
  150.8006  142.7412  157.8330 C   0  0  0  0  0  0  0  0  0  0  0  0
  150.0810  142.3796  156.6923 N   0  3  0  0  0  0  0  0  0  0  0  0
  150.0717  141.0233  156.5723 C   0  0  0  0  0  0  0  0  0  0  0  0
  150.7731  140.5130  157.6205 N   0  0  0  0  0  0  0  0  0  0  0  0
  151.0659  139.1117  157.9547 C   0  0  0  0  0  0  0  0  0  0  0  0
  149.7979  138.3072  158.3014 C   0  0  1  0  0  0  0  0  0  0  0  0
  149.2023  137.8537  157.1012 O   0  0  0  0  0  0  0  0  0  0  0  0
  150.1217  137.0851  159.1849 C   0  0  0  0  0  0  0  0  0  0  0  0
  148.9577  136.2092  159.3526 N   0  0  0  0  0  0  0  0  0  0  0  0
  148.7419  135.0892  158.6405 C   0  0  0  0  0  0  0  0  0  0  0  0
  149.4762  134.6210  157.7717 O   0  0  0  0  0  0  0  0  0  0  0  0
  147.5761  134.5592  159.0338 N   0  0  0  0  0  0  0  0  0  0  0  0
  146.9229  135.3361  160.0703 C   0  0  0  0  0  0  0  0  0  0  0  0
  145.5712  135.8826  159.5768 C   0  0  0  0  0  0  0  0  0  0  0  0
  146.7836  134.5176  161.3664 C   0  0  0  0  0  0  0  0  0  0  0  0
  147.9562  136.4433  160.2113 C   0  0  0  0  0  0  0  0  0  0  0  0
  147.8510  137.3912  160.9901 O   0  0  0  0  0  0  0  0  0  0  0  0
  151.2492  141.5486  158.4338 C   0  0  0  0  0  0  0  0  0  0  0  0
  152.0101  141.5652  159.6010 C   0  0  0  0  0  0  0  0  0  0  0  0
  152.3124  142.8270  160.1612 C   0  0  0  0  0  0  0  0  0  0  0  0
  153.1435  142.8745  161.4321 C   0  0  0  0  0  0  0  0  0  0  0  0
  151.7154  146.1897  159.6116 H   0  0  0  0  0  0  0  0  0  0  0  0
  153.2585  145.5446  160.1669 H   0  0  0  0  0  0  0  0  0  0  0  0
  151.8224  145.4280  161.1957 H   0  0  0  0  0  0  0  0  0  0  0  0
  150.7357  144.8993  157.8996 H   0  0  0  0  0  0  0  0  0  0  0  0
  149.5964  140.4550  155.7858 H   0  0  0  0  0  0  0  0  0  0  0  0
  151.6228  138.6484  157.1401 H   0  0  0  0  0  0  0  0  0  0  0  0
  151.7391  139.1262  158.8129 H   0  0  0  0  0  0  0  0  0  0  0  0
  149.0948  138.9678  158.8108 H   0  0  0  0  0  0  0  0  0  0  0  0
  148.7254  138.5707  156.7120 H   0  0  0  0  0  0  0  0  0  0  0  0
  150.9787  136.5357  158.7906 H   0  0  0  0  0  0  0  0  0  0  0  0
  150.4330  137.4231  160.1750 H   0  0  0  0  0  0  0  0  0  0  0  0
  147.1779  133.7144  158.6502 H   0  0  0  0  0  0  0  0  0  0  0  0
  145.0823  136.4807  160.3466 H   0  0  0  0  0  0  0  0  0  0  0  0
  144.8935  135.0704  159.3121 H   0  0  0  0  0  0  0  0  0  0  0  0
  145.6881  136.5132  158.6940 H   0  0  0  0  0  0  0  0  0  0  0  0
  146.3108  135.1040  162.1554 H   0  0  0  0  0  0  0  0  0  0  0  0
  147.7524  134.1829  161.7400 H   0  0  0  0  0  0  0  0  0  0  0  0
  146.1704  133.6304  161.2049 H   0  0  0  0  0  0  0  0  0  0  0  0
  152.3631  140.6558  160.0635 H   0  0  0  0  0  0  0  0  0  0  0  0
  153.4599  141.8774  161.7402 H   0  0  0  0  0  0  0  0  0  0  0  0
  152.5674  143.3092  162.2495 H   0  0  0  0  0  0  0  0  0  0  0  0
  154.0409  143.4752  161.2819 H   0  0  0  0  0  0  0  0  0  0  0  0
  149.6311  143.0098  156.0409 H   0  0  0  0  0  0  0  0  0  0  0  0
  1  2  1  0  0  0  0
  1 25  1  0  0  0  0
  1 26  1  0  0  0  0
  1 27  1  0  0  0  0
  2 23  1  0  0  0  0
  2  3  2  0  0  0  0
  3  4  1  0  0  0  0
  3 28  1  0  0  0  0
  4 21  2  0  0  0  0
  4  5  1  0  0  0  0
  5  6  2  0  0  0  0
  5 47  1  0  0  0  0
  6  7  1  0  0  0  0
  6 29  1  0  0  0  0
  7  8  1  0  0  0  0
  7 21  1  0  0  0  0
  8  9  1  0  0  0  0
  8 30  1  0  0  0  0
  8 31  1  0  0  0  0
  9 10  1  0  0  0  0
  9 11  1  0  0  0  0
  9 32  1  0  0  0  0
 10 33  1  0  0  0  0
 11 12  1  0  0  0  0
 11 34  1  0  0  0  0
 11 35  1  0  0  0  0
 12 19  1  0  0  0  0
 12 13  1  0  0  0  0
 13 14  2  0  0  0  0
 13 15  1  0  0  0  0
 15 16  1  0  0  0  0
 15 36  1  0  0  0  0
 16 17  1  0  0  0  0
 16 18  1  0  0  0  0
 16 19  1  0  0  0  0
 17 37  1  0  0  0  0
 17 38  1  0  0  0  0
 17 39  1  0  0  0  0
 18 40  1  0  0  0  0
 18 41  1  0  0  0  0
 18 42  1  0  0  0  0
 19 20  2  0  0  0  0
 21 22  1  0  0  0  0
 22 23  2  0  0  0  0
 22 43  1  0  0  0  0
 23 24  1  0  0  0  0
 24 44  1  0  0  0  0
 24 45  1  0  0  0  0
 24 46  1  0  0  0  0
M  CHG  1   5   1
M  END
> <s_m_source_file>
AV-unprocessed.smi

> <i_m_source_file_index>
2026

> <i_lp_mmshare_version>
43012

> <i_f3d_flags>
0

> <s_epik_input>
W0NIM11jKFtjSF0xKWMoW0NIM10pW2NIXWMoYzEyKW4oW2NIXW4yKVtDSDJdW0NASF0oW09IXSlbQ0gyXU4oQzM9TylDKD1PKVtOSF1DMyhbQ0gzXSlbQ0gzXQ==

> <s_epik_cmdline>
J2VwaWtfcHl0aG9uJywgJy1waCcsICc3LjAnLCAnLXRuJywgJzgnLCAnLW1hJywgJzIwMCcsICctbWV0YWxfYmluZGluZycsICctaW1hZScsICc8aW5maWxlLm1hZT4nLCAnLW9tYWUnLCAnPG91dGZpbGUubWFlPic=

> <r_lp_tautomer_probability>
1

> <r_epik_Ionization_Penalty>
1.08255

> <r_epik_Ionization_Penalty_Charging>
1.08249

> <r_epik_Ionization_Penalty_Neutral>
6.65731e-05

> <r_epik_State_Penalty>
1.13805

> <r_epik_Charging_Adjusted_Penalty>
2.22054

> <i_epik_Tot_Q>
1

> <i_epik_Tot_abs_Q>
1

> <r_epik_Metal_State_Penalty>
1.29676

> <b_epik_Metal_Only>
0

> <s_lp_Force_Field>
OPLS_2005

> <r_lp_Energy>
29.7067

> <b_lp_Chiralities_Consistent>
1

> <s_lp_Variant>
AV-unprocessed.smi:2026-4

> <Gold.Version>
5.8.1

> <Gold.Id.Protein>
6NUR|6NUR_protein|mol2

> <Gold.PLP.Fitness>
51.6766

> <Gold.PLP.PLP>
-40.3509

> <Gold.PLP.part.hbond>
-4.0000

> <Gold.PLP.part.metal>
0.0000

> <Gold.PLP.part.buried>
-4.4177

> <Gold.PLP.part.nonpolar>
-32.5733

> <Gold.PLP.part.repulsive>
0.0885

> <Gold.PLP.ligand.clash>
0.0000

> <Gold.PLP.ligand.torsion>
0.6069

> <Gold.PLP.Chemscore.Hbond>
4.1710

> <Gold.PLP.Chemscore.CHOScore>
0.0000

> <Gold.PLP.Chemscore.Metal>
0.0000

> <Gold.Chemscore.Hbonds>
donor molecule, donor type, donor heavy atom, donor atom, acceptor molecule, acceptor atom, score
      L1  H     5    47       P1  8028  1.98
      P1  H  6896  6908       L1    14  0.33
      P1  H  6931  6943       L1    20  0.82
      P1  H  6934  6947       L1    20  0.77

> <Gold.PLP.Chemscore.Internal.Correction>
0.0266

> <Gold.Rescore>
     Score         DG    S(hbond)    S(metal)    S(lipo)     H(rot)  DE(clash)    DE(int)     intcor
     19.23     -19.93       2.65        0.00     102.35       2.49       0.06       0.64       ----

> <Gold.Chemscore.Fitness>
19.2320

> <Gold.Chemscore.DG>
-19.9304

> <Gold.Chemscore.ZeroCoef>
-5.4800

> <Gold.Chemscore.Hbond>
2.6520

> <Gold.Chemscore.Metal>
0.0000

> <Gold.Chemscore.Lipo>
102.3456

> <Gold.Chemscore.Internal_Hbond>
0.0000

> <Gold.Chemscore.DEClash>
0.0589

> <Gold.Chemscore.DEInternal>
0.6395

> <Gold.Chemscore.Rot>
2.4929

> <Gold.Chemscore.Internal.Correction>
   9.000000E+99

> <Gold.Chemscore.Hbonds>
donor molecule, donor type, donor heavy atom, donor atom, acceptor molecule, acceptor atom, score
      L1  H     5    47       P1  8028  0.94
      P1  H  6896  6908       L1    14  0.01
      P1  H  6931  6943       L1    20  0.81
      P1  H  6934  6947       L1    20  0.76

> <Gold.Chemscore.Hbond.Weighted>
-8.8578

> <Gold.Chemscore.Metal.Weighted>
-0.0000

> <Gold.Chemscore.Lipo.Weighted>
-11.9744

> <Gold.Chemscore.Internal_Hbond.Weighted>
0.0000

> <Gold.Chemscore.DEClash.Weighted>
0.0589

> <Gold.Chemscore.DEInternal.Weighted>
0.6395

> <Gold.Chemscore.Rot.Weighted>
6.3819

> <Gold.Chemscore.Internal.Correction.Weighted>
   9.000000E+99

> <Gold.Protein.RotatedTorsions>
[ 6907 6896 6895 6894 ] final  127.64 input  -60.11 | X-H torsion
[ 7974 7965 7964 7962 ] final -100.11 input  175.53 | X-H torsion
[ 8008 7997 7996 7995 ] final   70.24 input   59.86 | X-H torsion
[ 10167 10162 10161 10158 ] final  107.00 input  -65.29 | X-H torsion
[ 10718 10713 10712 10709 ] final  -79.99 input   66.30 | X-H torsion
[ 10763 10752 10751 10750 ] final -117.52 input  -60.55 | X-H torsion
[ 11005 11000 10999 10996 ] final -128.49 input  -57.11 | X-H torsion

> <Gold.Protein.ActiveResidues>
 VAL166  LYS551  ARG553  GLY616  TRP617  ASP618  TYR619  PRO620  LYS621  CYS622 
 ASP623  PHE694  ASN695  SER759  ASP760  ASP761  ALA762  ILE779  LEU786  VAL792 
 PHE793  MET794  SER795  GLU796  ALA797  LYS798  CYS799  TRP800  GLU811  SER814 

> <Gold.Protein.RotatedAtoms>
  152.3794  133.6525  159.6149 H   0  0  0  0  0  0  0  0  0  0  0  0  # atno 6907 bound_to 6896
  150.7729  133.9139  159.3386 H   0  0  0  0  0  0  0  0  0  0  0  0  # atno 6908 bound_to 6896
  151.6947  135.0941  160.0291 H   0  0  0  0  0  0  0  0  0  0  0  0  # atno 6909 bound_to 6896
  145.2989  140.9372  143.2835 H   0  0  0  0  0  0  0  0  0  0  0  0  # atno 7974 bound_to 7965
  155.7358  140.3491  155.5081 H   0  0  0  0  0  0  0  0  0  0  0  0  # atno 8008 bound_to 7997
  155.9140  140.1055  157.1279 H   0  0  0  0  0  0  0  0  0  0  0  0  # atno 8009 bound_to 7997
  154.4060  140.1262  156.4581 H   0  0  0  0  0  0  0  0  0  0  0  0  # atno 8010 bound_to 7997
  139.6962  144.7101  151.1262 H   0  0  0  0  0  0  0  0  0  0  0  0  # atno 10167 bound_to 10162
  156.0080  130.4561  150.3732 H   0  0  0  0  0  0  0  0  0  0  0  0  # atno 10718 bound_to 10713
  154.8558  135.4306  154.1993 H   0  0  0  0  0  0  0  0  0  0  0  0  # atno 10763 bound_to 10752
  153.3044  135.6971  153.7179 H   0  0  0  0  0  0  0  0  0  0  0  0  # atno 10764 bound_to 10752
  153.6297  135.3487  155.3012 H   0  0  0  0  0  0  0  0  0  0  0  0  # atno 10765 bound_to 10752
  140.9512  134.1063  157.4060 H   0  0  0  0  0  0  0  0  0  0  0  0  # atno 11005 bound_to 11000
  144.9110  139.4528  143.6587 LP  0  0  0  0  0  0  0  0  0  0  0  0  # atno 17320 bound_to 7965
  146.3159  139.7919  142.8984 LP  0  0  0  0  0  0  0  0  0  0  0  0  # atno 17321 bound_to 7965
  140.7697  143.5488  150.9228 LP  0  0  0  0  0  0  0  0  0  0  0  0  # atno 17342 bound_to 10162
  139.9167  143.6654  152.3105 LP  0  0  0  0  0  0  0  0  0  0  0  0  # atno 17343 bound_to 10162
  157.1816  131.0393  151.2745 LP  0  0  0  0  0  0  0  0  0  0  0  0  # atno 17370 bound_to 10713
  157.4141  130.7401  149.6861 LP  0  0  0  0  0  0  0  0  0  0  0  0  # atno 17371 bound_to 10713
  139.8848  135.0066  156.6393 LP  0  0  0  0  0  0  0  0  0  0  0  0  # atno 17394 bound_to 11000
  140.7600  133.8826  155.8411 LP  0  0  0  0  0  0  0  0  0  0  0  0  # atno 17395 bound_to 11000

$$$$
