AV-unprocessed.smi:3|AV-procd|sdf|31|dock6
  -GOLD-   2262015143D 1   1.00000     0.00000
 Structure written by MMmdl.
 33 35  0  0  0  0  0  0  0  0  1 V2000
  150.5200  141.8217  156.6139 C   0  0  0  0  0  0  0  0  0  0  0  0
  151.4727  141.2807  157.5724 N   0  0  0  0  0  0  0  0  0  0  0  0
  152.3028  140.1449  157.1780 C   0  0  0  0  0  0  0  0  0  0  0  0
  152.0064  139.6879  155.7515 C   0  0  1  0  0  0  0  0  0  0  0  0
  152.8887  138.6170  155.0916 C   0  0  0  0  0  0  0  0  0  0  0  0
  151.6399  138.0659  154.3965 C   0  0  1  0  0  0  0  0  0  0  0  0
  151.5289  136.6648  154.2851 O   0  0  0  0  0  0  0  0  0  0  0  0
  150.8197  138.7485  155.4965 C   0  0  0  0  0  0  0  0  0  0  0  0
  151.8758  142.0435  158.6902 C   0  0  0  0  0  0  0  0  0  0  0  0
  151.3269  143.2775  158.8255 N   0  0  0  0  0  0  0  0  0  0  0  0
  151.7012  144.0269  159.8925 C   0  0  0  0  0  0  0  0  0  0  0  0
  152.5729  143.6980  160.8761 N   0  0  0  0  0  0  0  0  0  0  0  0
  153.1309  142.4565  160.7695 C   0  0  0  0  0  0  0  0  0  0  0  0
  153.9931  141.8818  161.6015 N   0  0  0  0  0  0  0  0  0  0  0  0
  154.2380  140.6591  161.1037 C   0  0  0  0  0  0  0  0  0  0  0  0
  153.5144  140.3834  159.8815 C   0  0  0  0  0  0  0  0  0  0  0  0
  152.8001  141.6073  159.6836 C   0  0  0  0  0  0  0  0  0  0  0  0
  151.9174  140.5408  155.0753 H   0  0  0  0  0  0  0  0  0  0  0  0
  151.4770  138.5319  153.4232 H   0  0  0  0  0  0  0  0  0  0  0  0
  149.8022  142.4845  157.0976 H   0  0  0  0  0  0  0  0  0  0  0  0
  149.9561  141.0125  156.1493 H   0  0  0  0  0  0  0  0  0  0  0  0
  151.0346  142.3670  155.8229 H   0  0  0  0  0  0  0  0  0  0  0  0
  153.3616  140.3762  157.2951 H   0  0  0  0  0  0  0  0  0  0  0  0
  152.1100  139.3272  157.8730 H   0  0  0  0  0  0  0  0  0  0  0  0
  153.6487  139.0149  154.4185 H   0  0  0  0  0  0  0  0  0  0  0  0
  153.3200  137.9174  155.8102 H   0  0  0  0  0  0  0  0  0  0  0  0
  151.2104  136.4807  153.4144 H   0  0  0  0  0  0  0  0  0  0  0  0
  150.6089  138.0892  156.3406 H   0  0  0  0  0  0  0  0  0  0  0  0
  149.9164  139.2493  155.1469 H   0  0  0  0  0  0  0  0  0  0  0  0
  151.2475  145.0041  159.9677 H   0  0  0  0  0  0  0  0  0  0  0  0
  154.9124  139.9746  161.6032 H   0  0  0  0  0  0  0  0  0  0  0  0
  153.5234  139.4776  159.2903 H   0  0  0  0  0  0  0  0  0  0  0  0
  152.7566  144.3571  161.6190 H   0  0  0  0  0  0  0  0  0  0  0  0
  1  2  1  0  0  0  0
  1 20  1  0  0  0  0
  1 21  1  0  0  0  0
  1 22  1  0  0  0  0
  2  3  1  0  0  0  0
  2  9  1  0  0  0  0
  3  4  1  0  0  0  0
  3 23  1  0  0  0  0
  3 24  1  0  0  0  0
  4 18  1  0  0  0  0
  4  8  1  0  0  0  0
  4  5  1  0  0  0  0
  5  6  1  0  0  0  0
  5 25  1  0  0  0  0
  5 26  1  0  0  0  0
  6 19  1  0  0  0  0
  6  7  1  0  0  0  0
  6  8  1  0  0  0  0
  7 27  1  0  0  0  0
  8 28  1  0  0  0  0
  8 29  1  0  0  0  0
  9 17  2  0  0  0  0
  9 10  1  0  0  0  0
 10 11  2  0  0  0  0
 11 12  1  0  0  0  0
 11 30  1  0  0  0  0
 12 13  1  0  0  0  0
 12 33  1  0  0  0  0
 13 17  1  0  0  0  0
 13 14  2  0  0  0  0
 14 15  1  0  0  0  0
 15 16  2  0  0  0  0
 15 31  1  0  0  0  0
 16 17  1  0  0  0  0
 16 32  1  0  0  0  0
M  END
> <s_m_source_file>
AV-unprocessed.smi

> <i_m_source_file_index>
3

> <i_lp_mmshare_version>
43012

> <i_f3d_flags>
0

> <s_epik_input>
W25IXTFbY0hdW2NIXWMoYzEyKWMobltjSF1uMilOKFtDSDNdKVtDSDJdW0NASF0zW0NIMl1bQ0BASF0oW09IXSlbQ0gyXTM=

> <s_epik_cmdline>
J2VwaWtfcHl0aG9uJywgJy1waCcsICc3LjAnLCAnLXRuJywgJzgnLCAnLW1hJywgJzIwMCcsICctbWV0YWxfYmluZGluZycsICctaW1hZScsICc8aW5maWxlLm1hZT4nLCAnLW9tYWUnLCAnPG91dGZpbGUubWFlPic=

> <r_lp_tautomer_probability>
1.75997e-05

> <r_epik_Ionization_Penalty>
5.52529

> <r_epik_Ionization_Penalty_Charging>
0

> <r_epik_Ionization_Penalty_Neutral>
5.52529

> <r_epik_State_Penalty>
8.99615

> <r_epik_Charging_Adjusted_Penalty>
8.99615

> <i_epik_Tot_Q>
0

> <i_epik_Tot_abs_Q>
0

> <r_epik_Metal_State_Penalty>
6.01519

> <b_epik_Metal_Only>
1

> <s_lp_Force_Field>
OPLS_2005

> <r_lp_Energy>
25.1021

> <b_lp_Chiralities_Consistent>
1

> <s_lp_Variant>
AV-unprocessed.smi:3-5

> <Gold.Version>
5.8.1

> <Gold.Id.Protein>
6NUR|6NUR_protein|mol2

> <Gold.PLP.Fitness>
44.0369

> <Gold.PLP.PLP>
-38.6930

> <Gold.PLP.part.hbond>
-2.8561

> <Gold.PLP.part.metal>
0.0000

> <Gold.PLP.part.buried>
-5.2475

> <Gold.PLP.part.nonpolar>
-31.0288

> <Gold.PLP.part.repulsive>
0.1042

> <Gold.PLP.ligand.clash>
1.2939

> <Gold.PLP.ligand.torsion>
0.3196

> <Gold.PLP.Chemscore.Hbond>
2.0000

> <Gold.PLP.Chemscore.CHOScore>
0.0000

> <Gold.PLP.Chemscore.Metal>
0.0000

> <Gold.Chemscore.Hbonds>
donor molecule, donor type, donor heavy atom, donor atom, acceptor molecule, acceptor atom, score
      L1  H     7    27       P1  7949  1.00
      P1  H 10752 10763       L1     7  0.75

> <Gold.PLP.Chemscore.Internal.Correction>
1.2770

> <Gold.Rescore>
     Score         DG    S(hbond)    S(metal)    S(lipo)     H(rot)  DE(clash)    DE(int)     intcor
     12.10     -13.90       1.52        0.00      68.74       1.84       0.14       1.66       ----

> <Gold.Chemscore.Fitness>
12.0998

> <Gold.Chemscore.DG>
-13.8995

> <Gold.Chemscore.ZeroCoef>
-5.4800

> <Gold.Chemscore.Hbond>
1.5227

> <Gold.Chemscore.Metal>
0.0000

> <Gold.Chemscore.Lipo>
68.7434

> <Gold.Chemscore.Internal_Hbond>
0.0000

> <Gold.Chemscore.DEClash>
0.1378

> <Gold.Chemscore.DEInternal>
1.6619

> <Gold.Chemscore.Rot>
1.8396

> <Gold.Chemscore.Internal.Correction>
   9.000000E+99

> <Gold.Chemscore.Hbonds>
donor molecule, donor type, donor heavy atom, donor atom, acceptor molecule, acceptor atom, score
      L1  H     7    27       P1  7949  0.49
      P1  H 10752 10763       L1     7  0.09

> <Gold.Chemscore.Hbond.Weighted>
-5.0860

> <Gold.Chemscore.Metal.Weighted>
-0.0000

> <Gold.Chemscore.Lipo.Weighted>
-8.0430

> <Gold.Chemscore.Internal_Hbond.Weighted>
0.0000

> <Gold.Chemscore.DEClash.Weighted>
0.1378

> <Gold.Chemscore.DEInternal.Weighted>
1.6619

> <Gold.Chemscore.Rot.Weighted>
4.7095

> <Gold.Chemscore.Internal.Correction.Weighted>
   9.000000E+99

> <Gold.Protein.RotatedTorsions>
[ 6907 6896 6895 6894 ] final  -94.20 input  -60.11 | X-H torsion
[ 7974 7965 7964 7962 ] final -137.38 input  175.53 | X-H torsion
[ 8008 7997 7996 7995 ] final  -89.94 input   59.86 | X-H torsion
[ 10167 10162 10161 10158 ] final  133.23 input  -65.29 | X-H torsion
[ 10718 10713 10712 10709 ] final  178.84 input   66.30 | X-H torsion
[ 10763 10752 10751 10750 ] final   32.78 input  -60.55 | X-H torsion
[ 11005 11000 10999 10996 ] final    6.65 input  -57.11 | X-H torsion

> <Gold.Protein.ActiveResidues>
 VAL166  LYS551  ARG553  GLY616  TRP617  ASP618  TYR619  PRO620  LYS621  CYS622 
 ASP623  PHE694  ASN695  SER759  ASP760  ASP761  ALA762  ILE779  LEU786  VAL792 
 PHE793  MET794  SER795  GLU796  ALA797  LYS798  CYS799  TRP800  GLU811  SER814 

> <Gold.Protein.RotatedAtoms>
  150.6937  134.1849  159.4262 H   0  0  0  0  0  0  0  0  0  0  0  0  # atno 6907 bound_to 6896
  151.9822  135.0020  160.0567 H   0  0  0  0  0  0  0  0  0  0  0  0  # atno 6908 bound_to 6896
  152.1744  133.4630  159.4962 H   0  0  0  0  0  0  0  0  0  0  0  0  # atno 6909 bound_to 6896
  144.8847  140.6557  143.5184 H   0  0  0  0  0  0  0  0  0  0  0  0  # atno 7974 bound_to 7965
  154.6926  140.0536  157.0378 H   0  0  0  0  0  0  0  0  0  0  0  0  # atno 8008 bound_to 7997
  155.0796  140.3208  155.4587 H   0  0  0  0  0  0  0  0  0  0  0  0  # atno 8009 bound_to 7997
  156.2733  140.2067  156.5923 H   0  0  0  0  0  0  0  0  0  0  0  0  # atno 8010 bound_to 7997
  139.5306  144.6625  151.4966 H   0  0  0  0  0  0  0  0  0  0  0  0  # atno 10167 bound_to 10162
  156.8846  130.9827  151.3057 H   0  0  0  0  0  0  0  0  0  0  0  0  # atno 10718 bound_to 10713
  153.0245  135.6404  154.1408 H   0  0  0  0  0  0  0  0  0  0  0  0  # atno 10763 bound_to 10752
  154.1139  135.2851  155.3226 H   0  0  0  0  0  0  0  0  0  0  0  0  # atno 10764 bound_to 10752
  154.6312  135.5492  153.7745 H   0  0  0  0  0  0  0  0  0  0  0  0  # atno 10765 bound_to 10752
  140.5571  134.0228  155.7958 H   0  0  0  0  0  0  0  0  0  0  0  0  # atno 11005 bound_to 11000
  145.3891  139.1620  143.4239 LP  0  0  0  0  0  0  0  0  0  0  0  0  # atno 17320 bound_to 7965
  146.3017  140.3978  142.8702 LP  0  0  0  0  0  0  0  0  0  0  0  0  # atno 17321 bound_to 7965
  140.6481  143.8754  150.6757 LP  0  0  0  0  0  0  0  0  0  0  0  0  # atno 17342 bound_to 10162
  140.2110  143.3884  152.1718 LP  0  0  0  0  0  0  0  0  0  0  0  0  # atno 17343 bound_to 10162
  157.6120  130.8590  149.8967 LP  0  0  0  0  0  0  0  0  0  0  0  0  # atno 17370 bound_to 10713
  156.0660  130.3692  150.0878 LP  0  0  0  0  0  0  0  0  0  0  0  0  # atno 17371 bound_to 10713
  141.1137  133.9575  157.2862 LP  0  0  0  0  0  0  0  0  0  0  0  0  # atno 17394 bound_to 11000
  139.9426  135.0189  156.8755 LP  0  0  0  0  0  0  0  0  0  0  0  0  # atno 17395 bound_to 11000

$$$$
