AV-unprocessed.smi:2128|AV-procd|sdf|8681|dock9
  -GOLD-   2272011433D 1   1.00000     0.00000
 Structure written by MMmdl.
 50 52  0  0  0  0  0  0  0  0  1 V2000
  151.2677  145.5913  158.9390 O   0  0  0  0  0  0  0  0  0  0  0  0
  151.7118  144.4540  158.7987 C   0  0  0  0  0  0  0  0  0  0  0  0
  151.2431  143.6003  157.6061 C   0  0  0  0  0  0  0  0  0  0  0  0
  151.6951  142.2008  157.6037 N   0  0  0  0  0  0  0  0  0  0  0  0
  151.0913  141.3334  156.6591 C   0  0  0  0  0  0  0  0  0  0  0  0
  151.7989  140.2297  156.1197 C   0  0  0  0  0  0  0  0  0  0  0  0
  151.1675  139.3920  155.1804 C   0  0  0  0  0  0  0  0  0  0  0  0
  149.8345  139.6689  154.8011 C   0  0  0  0  0  0  0  0  0  0  0  0
  149.0976  138.9124  153.8503 N   0  0  0  0  0  0  0  0  0  0  0  0
  147.8348  139.1016  153.4314 C   0  0  0  0  0  0  0  0  0  0  0  0
  147.0880  140.0031  153.8116 O   0  0  0  0  0  0  0  0  0  0  0  0
  147.4898  138.1903  152.5099 N   0  0  0  0  0  0  0  0  0  0  0  0
  146.2130  138.1393  151.8016 C   0  0  0  0  0  0  0  0  0  0  0  0
  146.1663  136.9905  150.7749 C   0  0  0  0  0  0  0  0  0  0  0  0
  145.3900  135.7697  151.2462 C   0  0  0  0  0  0  0  0  0  0  0  0
  144.1824  135.8783  151.8342 C   0  0  0  0  0  0  0  0  0  0  0  0
  143.3543  134.6976  152.3084 C   0  0  0  0  0  0  0  0  0  0  0  0
  143.8571  133.3619  151.7358 C   0  0  0  0  0  0  0  0  0  0  0  0
  145.3872  133.2758  151.7923 C   0  0  0  0  0  0  0  0  0  0  0  0
  146.0440  134.4157  150.9934 C   0  0  0  0  0  0  0  0  0  0  0  0
  149.2143  140.7933  155.3784 C   0  0  0  0  0  0  0  0  0  0  0  0
  149.8157  141.5963  156.2802 N   0  0  0  0  0  0  0  0  0  0  0  0
  152.2325  141.6269  158.8408 C   0  0  0  0  0  0  0  0  0  0  0  0
  153.1846  142.6094  159.5364 C   0  0  0  0  0  0  0  0  0  0  0  0
  152.5891  143.9315  159.6693 N   0  0  0  0  0  0  0  0  0  0  0  0
  150.1528  143.6322  157.5710 H   0  0  0  0  0  0  0  0  0  0  0  0
  151.6128  144.0957  156.7081 H   0  0  0  0  0  0  0  0  0  0  0  0
  152.8140  140.0046  156.4088 H   0  0  0  0  0  0  0  0  0  0  0  0
  151.7224  138.5661  154.7634 H   0  0  0  0  0  0  0  0  0  0  0  0
  149.6150  138.1815  153.3844 H   0  0  0  0  0  0  0  0  0  0  0  0
  148.1719  137.4888  152.2608 H   0  0  0  0  0  0  0  0  0  0  0  0
  145.4284  137.9883  152.5432 H   0  0  0  0  0  0  0  0  0  0  0  0
  145.9897  139.0950  151.3253 H   0  0  0  0  0  0  0  0  0  0  0  0
  145.7242  137.3604  149.8487 H   0  0  0  0  0  0  0  0  0  0  0  0
  147.1802  136.6795  150.5209 H   0  0  0  0  0  0  0  0  0  0  0  0
  143.7570  136.8557  152.0097 H   0  0  0  0  0  0  0  0  0  0  0  0
  143.3922  134.6780  153.3980 H   0  0  0  0  0  0  0  0  0  0  0  0
  142.3121  134.8525  152.0288 H   0  0  0  0  0  0  0  0  0  0  0  0
  143.4087  132.5302  152.2798 H   0  0  0  0  0  0  0  0  0  0  0  0
  143.5318  133.2643  150.6992 H   0  0  0  0  0  0  0  0  0  0  0  0
  145.7105  133.3300  152.8330 H   0  0  0  0  0  0  0  0  0  0  0  0
  145.7275  132.3118  151.4137 H   0  0  0  0  0  0  0  0  0  0  0  0
  145.9805  134.2068  149.9250 H   0  0  0  0  0  0  0  0  0  0  0  0
  147.1043  134.4579  151.2408 H   0  0  0  0  0  0  0  0  0  0  0  0
  148.2007  141.0573  155.1138 H   0  0  0  0  0  0  0  0  0  0  0  0
  151.4031  141.3742  159.5034 H   0  0  0  0  0  0  0  0  0  0  0  0
  152.7820  140.7053  158.6431 H   0  0  0  0  0  0  0  0  0  0  0  0
  153.4623  142.2365  160.5225 H   0  0  0  0  0  0  0  0  0  0  0  0
  154.1068  142.7066  158.9617 H   0  0  0  0  0  0  0  0  0  0  0  0
  152.8799  144.4956  160.4547 H   0  0  0  0  0  0  0  0  0  0  0  0
  1  2  2  0  0  0  0
  2 25  1  0  0  0  0
  2  3  1  0  0  0  0
  3  4  1  0  0  0  0
  3 26  1  0  0  0  0
  3 27  1  0  0  0  0
  4  5  1  0  0  0  0
  4 23  1  0  0  0  0
  5 22  1  0  0  0  0
  5  6  2  0  0  0  0
  6  7  1  0  0  0  0
  6 28  1  0  0  0  0
  7  8  2  0  0  0  0
  7 29  1  0  0  0  0
  8  9  1  0  0  0  0
  8 21  1  0  0  0  0
  9 10  1  0  0  0  0
  9 30  1  0  0  0  0
 10 11  2  0  0  0  0
 10 12  1  0  0  0  0
 12 13  1  0  0  0  0
 12 31  1  0  0  0  0
 13 14  1  0  0  0  0
 13 32  1  0  0  0  0
 13 33  1  0  0  0  0
 14 15  1  0  0  0  0
 14 34  1  0  0  0  0
 14 35  1  0  0  0  0
 15 20  1  0  0  0  0
 15 16  2  0  0  0  0
 16 17  1  0  0  0  0
 16 36  1  0  0  0  0
 17 18  1  0  0  0  0
 17 37  1  0  0  0  0
 17 38  1  0  0  0  0
 18 19  1  0  0  0  0
 18 39  1  0  0  0  0
 18 40  1  0  0  0  0
 19 20  1  0  0  0  0
 19 41  1  0  0  0  0
 19 42  1  0  0  0  0
 20 43  1  0  0  0  0
 20 44  1  0  0  0  0
 21 22  2  0  0  0  0
 21 45  1  0  0  0  0
 23 24  1  0  0  0  0
 23 46  1  0  0  0  0
 23 47  1  0  0  0  0
 24 25  1  0  0  0  0
 24 48  1  0  0  0  0
 24 49  1  0  0  0  0
 25 50  1  0  0  0  0
M  END
> <s_m_source_file>
AV-unprocessed.smi

> <i_m_source_file_index>
2128

> <i_lp_mmshare_version>
43012

> <i_f3d_flags>
0

> <s_epik_input>
Tz1DMVtDSDJdTihbQ0gyXVtDSDJdW05IXTEpYzJbY0hdW2NIXWMoW2NIXW4yKVtOSF1DKD1PKVtOSF1bQ0gyXVtDSDJdQzM9W0NIXVtDSDJdW0NIMl1bQ0gyXVtDSDJdMw==

> <s_epik_cmdline>
J2VwaWtfcHl0aG9uJywgJy1waCcsICc3LjAnLCAnLXRuJywgJzgnLCAnLW1hJywgJzIwMCcsICctbWV0YWxfYmluZGluZycsICctaW1hZScsICc8aW5maWxlLm1hZT4nLCAnLW9tYWUnLCAnPG91dGZpbGUubWFlPic=

> <r_lp_tautomer_probability>
1

> <r_epik_Ionization_Penalty>
0.0211825

> <r_epik_Ionization_Penalty_Charging>
0

> <r_epik_Ionization_Penalty_Neutral>
0.0211825

> <r_epik_State_Penalty>
0.0169697

> <r_epik_Charging_Adjusted_Penalty>
0.0169697

> <i_epik_Tot_Q>
0

> <i_epik_Tot_abs_Q>
0

> <r_epik_Metal_State_Penalty>
0.0163833

> <b_epik_Metal_Only>
0

> <s_lp_Force_Field>
OPLS_2005

> <r_lp_Energy>
24.085

> <b_lp_Chiralities_Consistent>
1

> <s_lp_Variant>
AV-unprocessed.smi:2128-1

> <Gold.Version>
5.8.1

> <Gold.Id.Protein>
6NUR|6NUR_protein|mol2

> <Gold.PLP.Fitness>
50.3522

> <Gold.PLP.PLP>
-49.5260

> <Gold.PLP.part.hbond>
-3.9141

> <Gold.PLP.part.metal>
0.0000

> <Gold.PLP.part.buried>
-0.6154

> <Gold.PLP.part.nonpolar>
-45.7938

> <Gold.PLP.part.repulsive>
0.5481

> <Gold.PLP.ligand.clash>
0.0000

> <Gold.PLP.ligand.torsion>
1.1794

> <Gold.PLP.Chemscore.Hbond>
1.0000

> <Gold.PLP.Chemscore.CHOScore>
0.0000

> <Gold.PLP.Chemscore.Metal>
0.0000

> <Gold.Chemscore.Hbonds>
donor molecule, donor type, donor heavy atom, donor atom, acceptor molecule, acceptor atom, score
      L1  H    12    31       P1  7948  0.96

> <Gold.PLP.Chemscore.Internal.Correction>
0.1849

> <Gold.Rescore>
     Score         DG    S(hbond)    S(metal)    S(lipo)     H(rot)  DE(clash)    DE(int)     intcor
     13.54     -17.57       1.00        0.00     105.64       1.41       1.51       2.52       ----

> <Gold.Chemscore.Fitness>
13.5427

> <Gold.Chemscore.DG>
-17.5701

> <Gold.Chemscore.ZeroCoef>
-5.4800

> <Gold.Chemscore.Hbond>
0.9989

> <Gold.Chemscore.Metal>
0.0000

> <Gold.Chemscore.Lipo>
105.6398

> <Gold.Chemscore.Internal_Hbond>
0.0000

> <Gold.Chemscore.DEClash>
1.5057

> <Gold.Chemscore.DEInternal>
2.5217

> <Gold.Chemscore.Rot>
1.4087

> <Gold.Chemscore.Internal.Correction>
   9.000000E+99

> <Gold.Chemscore.Hbonds>
donor molecule, donor type, donor heavy atom, donor atom, acceptor molecule, acceptor atom, score
      L1  H    12    31       P1  7948  0.90

> <Gold.Chemscore.Hbond.Weighted>
-3.3364

> <Gold.Chemscore.Metal.Weighted>
-0.0000

> <Gold.Chemscore.Lipo.Weighted>
-12.3599

> <Gold.Chemscore.Internal_Hbond.Weighted>
0.0000

> <Gold.Chemscore.DEClash.Weighted>
1.5057

> <Gold.Chemscore.DEInternal.Weighted>
2.5217

> <Gold.Chemscore.Rot.Weighted>
3.6061

> <Gold.Chemscore.Internal.Correction.Weighted>
   9.000000E+99

> <Gold.Protein.RotatedTorsions>
[ 6907 6896 6895 6894 ] final  121.86 input  -60.11 | X-H torsion
[ 7974 7965 7964 7962 ] final -166.49 input  175.53 | X-H torsion
[ 8008 7997 7996 7995 ] final -119.90 input   59.86 | X-H torsion
[ 10167 10162 10161 10158 ] final -163.47 input  -65.29 | X-H torsion
[ 10718 10713 10712 10709 ] final -148.02 input   66.30 | X-H torsion
[ 10763 10752 10751 10750 ] final    2.09 input  -60.55 | X-H torsion
[ 11005 11000 10999 10996 ] final -100.34 input  -57.11 | X-H torsion

> <Gold.Protein.ActiveResidues>
 VAL166  LYS551  ARG553  GLY616  TRP617  ASP618  TYR619  PRO620  LYS621  CYS622 
 ASP623  PHE694  ASN695  SER759  ASP760  ASP761  ALA762  ILE779  LEU786  VAL792 
 PHE793  MET794  SER795  GLU796  ALA797  LYS798  CYS799  TRP800  GLU811  SER814 

> <Gold.Protein.RotatedAtoms>
  152.4288  133.7242  159.6550 H   0  0  0  0  0  0  0  0  0  0  0  0  # atno 6907 bound_to 6896
  150.8166  133.8315  159.3163 H   0  0  0  0  0  0  0  0  0  0  0  0  # atno 6908 bound_to 6896
  151.6010  135.1049  160.0112 H   0  0  0  0  0  0  0  0  0  0  0  0  # atno 6909 bound_to 6896
  144.7244  140.2658  143.6258 H   0  0  0  0  0  0  0  0  0  0  0  0  # atno 7974 bound_to 7965
  155.1232  140.0399  157.2755 H   0  0  0  0  0  0  0  0  0  0  0  0  # atno 8008 bound_to 7997
  154.6598  140.2588  155.7095 H   0  0  0  0  0  0  0  0  0  0  0  0  # atno 8009 bound_to 7997
  156.2614  140.2819  156.1066 H   0  0  0  0  0  0  0  0  0  0  0  0  # atno 8010 bound_to 7997
  139.6318  144.0425  152.2022 H   0  0  0  0  0  0  0  0  0  0  0  0  # atno 10167 bound_to 10162
  156.4150  130.8000  151.2220 H   0  0  0  0  0  0  0  0  0  0  0  0  # atno 10718 bound_to 10713
  153.2999  135.6955  153.7213 H   0  0  0  0  0  0  0  0  0  0  0  0  # atno 10763 bound_to 10752
  153.6131  135.3441  155.2986 H   0  0  0  0  0  0  0  0  0  0  0  0  # atno 10764 bound_to 10752
  154.8548  135.4368  154.2107 H   0  0  0  0  0  0  0  0  0  0  0  0  # atno 10765 bound_to 10752
  141.1274  133.8391  157.1089 H   0  0  0  0  0  0  0  0  0  0  0  0  # atno 11005 bound_to 11000
  145.8091  139.1996  143.2003 LP  0  0  0  0  0  0  0  0  0  0  0  0  # atno 17320 bound_to 7965
  146.0611  140.7969  142.9734 LP  0  0  0  0  0  0  0  0  0  0  0  0  # atno 17321 bound_to 7965
  140.0092  144.6236  150.7662 LP  0  0  0  0  0  0  0  0  0  0  0  0  # atno 17342 bound_to 10162
  140.7443  143.2859  151.3465 LP  0  0  0  0  0  0  0  0  0  0  0  0  # atno 17343 bound_to 10162
  157.7507  131.0246  150.3883 LP  0  0  0  0  0  0  0  0  0  0  0  0  # atno 17370 bound_to 10713
  156.4188  130.3949  149.6839 LP  0  0  0  0  0  0  0  0  0  0  0  0  # atno 17371 bound_to 10713
  140.0287  134.9911  157.0738 LP  0  0  0  0  0  0  0  0  0  0  0  0  # atno 17394 bound_to 11000
  140.4320  134.1770  155.7168 LP  0  0  0  0  0  0  0  0  0  0  0  0  # atno 17395 bound_to 11000

$$$$
