AV-unprocessed.smi:1787|AV-procd|sdf|7206|dock2
  -GOLD-   22720 8443D 1   1.00000     0.00000
 Structure written by MMmdl.
 44 46  0  0  0  0  0  0  0  0  1 V2000
  144.7453  136.4313  152.9337 O   0  0  0  0  0  0  0  0  0  0  0  0
  145.9410  136.3254  152.6632 C   0  0  0  0  0  0  0  0  0  0  0  0
  146.8543  137.2468  152.9929 N   0  0  0  0  0  0  0  0  0  0  0  0
  146.5699  138.4836  153.7149 C   0  0  0  0  0  0  0  0  0  0  0  0
  147.8527  139.0825  154.3765 C   0  0  1  0  0  0  0  0  0  0  0  0
  149.0116  138.1539  154.1986 N   0  0  0  0  0  0  0  0  0  0  0  0
  150.3450  138.7736  154.2116 C   0  0  0  0  0  0  0  0  0  0  0  0
  151.4675  137.7567  153.9420 C   0  0  0  0  0  0  0  0  0  0  0  0
  151.4015  136.7034  154.8935 O   0  0  0  0  0  0  0  0  0  0  0  0
  150.1530  136.0262  154.8562 C   0  0  0  0  0  0  0  0  0  0  0  0
  149.0148  137.0218  155.1357 C   0  0  0  0  0  0  0  0  0  0  0  0
  148.0869  140.4898  153.7540 C   0  0  0  0  0  0  0  0  0  0  0  0
  147.0144  141.4574  154.2672 C   0  0  0  0  0  0  0  0  0  0  0  0
  146.5765  140.9400  155.9435 S   0  0  0  0  0  0  0  0  0  0  0  0
  147.5317  139.4001  155.8592 C   0  0  0  0  0  0  0  0  0  0  0  0
  146.5064  135.3030  151.9986 N   0  0  0  0  0  0  0  0  0  0  0  0
  145.8974  134.1315  151.4706 C   0  0  0  0  0  0  0  0  0  0  0  0
  144.4881  134.0828  151.4427 C   0  0  0  0  0  0  0  0  0  0  0  0
  143.8492  132.9451  150.9142 C   0  0  0  0  0  0  0  0  0  0  0  0
  144.6495  131.8953  150.4250 C   0  0  0  0  0  0  0  0  0  0  0  0
  145.9984  131.9284  150.4327 N   0  0  0  0  0  0  0  0  0  0  0  0
  146.6051  133.0228  150.9414 C   0  0  0  0  0  0  0  0  0  0  0  0
  147.8167  137.0853  152.7334 H   0  0  0  0  0  0  0  0  0  0  0  0
  146.1095  139.1945  153.0291 H   0  0  0  0  0  0  0  0  0  0  0  0
  145.7936  138.2857  154.4533 H   0  0  0  0  0  0  0  0  0  0  0  0
  150.4307  139.5368  153.4420 H   0  0  0  0  0  0  0  0  0  0  0  0
  150.5356  139.2578  155.1687 H   0  0  0  0  0  0  0  0  0  0  0  0
  151.3871  137.3514  152.9320 H   0  0  0  0  0  0  0  0  0  0  0  0
  152.4414  138.2409  154.0151 H   0  0  0  0  0  0  0  0  0  0  0  0
  150.0178  135.5472  153.8852 H   0  0  0  0  0  0  0  0  0  0  0  0
  150.1552  135.2349  155.6061 H   0  0  0  0  0  0  0  0  0  0  0  0
  149.1062  137.3857  156.1599 H   0  0  0  0  0  0  0  0  0  0  0  0
  148.0818  136.4652  155.0823 H   0  0  0  0  0  0  0  0  0  0  0  0
  149.0319  140.9155  154.0831 H   0  0  0  0  0  0  0  0  0  0  0  0
  148.1213  140.4705  152.6643 H   0  0  0  0  0  0  0  0  0  0  0  0
  147.3658  142.4894  154.2628 H   0  0  0  0  0  0  0  0  0  0  0  0
  146.1230  141.4172  153.6413 H   0  0  0  0  0  0  0  0  0  0  0  0
  146.9895  138.5927  156.3524 H   0  0  0  0  0  0  0  0  0  0  0  0
  148.4380  139.5717  156.4374 H   0  0  0  0  0  0  0  0  0  0  0  0
  147.4934  135.3959  151.8079 H   0  0  0  0  0  0  0  0  0  0  0  0
  143.9005  134.9057  151.8230 H   0  0  0  0  0  0  0  0  0  0  0  0
  142.7718  132.8793  150.8833 H   0  0  0  0  0  0  0  0  0  0  0  0
  144.1941  131.0076  150.0115 H   0  0  0  0  0  0  0  0  0  0  0  0
  147.6820  132.9942  150.8962 H   0  0  0  0  0  0  0  0  0  0  0  0
  1  2  2  0  0  0  0
  2  3  1  0  0  0  0
  2 16  1  0  0  0  0
  3  4  1  0  0  0  0
  3 23  1  0  0  0  0
  4  5  1  0  0  0  0
  4 24  1  0  0  0  0
  4 25  1  0  0  0  0
  5 15  1  0  0  0  0
  5  6  1  0  0  0  0
  5 12  1  0  0  0  0
  6 11  1  0  0  0  0
  6  7  1  0  0  0  0
  7  8  1  0  0  0  0
  7 26  1  0  0  0  0
  7 27  1  0  0  0  0
  8  9  1  0  0  0  0
  8 28  1  0  0  0  0
  8 29  1  0  0  0  0
  9 10  1  0  0  0  0
 10 11  1  0  0  0  0
 10 30  1  0  0  0  0
 10 31  1  0  0  0  0
 11 32  1  0  0  0  0
 11 33  1  0  0  0  0
 12 13  1  0  0  0  0
 12 34  1  0  0  0  0
 12 35  1  0  0  0  0
 13 14  1  0  0  0  0
 13 36  1  0  0  0  0
 13 37  1  0  0  0  0
 14 15  1  0  0  0  0
 15 38  1  0  0  0  0
 15 39  1  0  0  0  0
 16 17  1  0  0  0  0
 16 40  1  0  0  0  0
 17 22  1  0  0  0  0
 17 18  2  0  0  0  0
 18 19  1  0  0  0  0
 18 41  1  0  0  0  0
 19 20  2  0  0  0  0
 19 42  1  0  0  0  0
 20 21  1  0  0  0  0
 20 43  1  0  0  0  0
 21 22  2  0  0  0  0
 22 44  1  0  0  0  0
M  END
> <s_m_source_file>
AV-unprocessed.smi

> <i_m_source_file_index>
1787

> <i_lp_mmshare_version>
43012

> <i_f3d_flags>
0

> <s_epik_input>
W2NIXTFuW2NIXVtjSF1bY0hdYzFbTkhdQyg9TylbTkhdW0NIMl1bQ0BdMihbQ0gyXVtDSDJdU1tDSDJdMilOM1tDSDJdW0NIMl1PW0NIMl1bQ0gyXTM=

> <s_epik_cmdline>
J2VwaWtfcHl0aG9uJywgJy1waCcsICc3LjAnLCAnLXRuJywgJzgnLCAnLW1hJywgJzIwMCcsICctbWV0YWxfYmluZGluZycsICctaW1hZScsICc8aW5maWxlLm1hZT4nLCAnLW9tYWUnLCAnPG91dGZpbGUubWFlPic=

> <r_epik_Ionization_Penalty>
0.024212

> <r_epik_Ionization_Penalty_Charging>
0

> <r_epik_Ionization_Penalty_Neutral>
0.024212

> <r_epik_State_Penalty>
0.0155843

> <r_epik_Charging_Adjusted_Penalty>
0.0155843

> <i_epik_Tot_Q>
0

> <i_epik_Tot_abs_Q>
0

> <r_epik_Metal_State_Penalty>
0.01557

> <b_epik_Metal_Only>
0

> <s_lp_Force_Field>
OPLS_2005

> <r_lp_Energy>
57.3635

> <b_lp_Chiralities_Consistent>
1

> <s_lp_Variant>
AV-unprocessed.smi:1787-1

> <Gold.Version>
5.8.1

> <Gold.Id.Protein>
6NUR|6NUR_protein|mol2

> <Gold.PLP.Fitness>
38.8840

> <Gold.PLP.PLP>
-31.3314

> <Gold.PLP.part.hbond>
-3.0000

> <Gold.PLP.part.metal>
0.0000

> <Gold.PLP.part.buried>
-3.9904

> <Gold.PLP.part.nonpolar>
-26.4212

> <Gold.PLP.part.repulsive>
1.1868

> <Gold.PLP.ligand.clash>
0.0000

> <Gold.PLP.ligand.torsion>
1.9370

> <Gold.PLP.Chemscore.Hbond>
2.9920

> <Gold.PLP.Chemscore.CHOScore>
0.7955

> <Gold.PLP.Chemscore.Metal>
0.0000

> <Gold.Chemscore.Hbonds>
donor molecule, donor type, donor heavy atom, donor atom, acceptor molecule, acceptor atom, score
      L1  H     3    23       P1  7948  1.00
      L1  H    16    40       P1  7948  1.00
      P1  H 10752 10763       L1     9  1.00
      L1  C    22    44       P1 10747  0.79

> <Gold.PLP.Chemscore.Internal.Correction>
0.0640

> <Gold.Rescore>
     Score         DG    S(hbond)    S(metal)    S(lipo)     H(rot)  DE(clash)    DE(int)     intcor
     15.67     -19.34       2.44        0.00      80.42       1.44       0.30       3.36       ----

> <Gold.Chemscore.Fitness>
15.6731

> <Gold.Chemscore.DG>
-19.3405

> <Gold.Chemscore.ZeroCoef>
-5.4800

> <Gold.Chemscore.Hbond>
2.4400

> <Gold.Chemscore.Metal>
0.0000

> <Gold.Chemscore.Lipo>
80.4183

> <Gold.Chemscore.Internal_Hbond>
0.0000

> <Gold.Chemscore.DEClash>
0.3029

> <Gold.Chemscore.DEInternal>
3.3646

> <Gold.Chemscore.Rot>
1.4445

> <Gold.Chemscore.Internal.Correction>
   9.000000E+99

> <Gold.Chemscore.Hbonds>
donor molecule, donor type, donor heavy atom, donor atom, acceptor molecule, acceptor atom, score
      L1  H     3    23       P1  7948  0.94
      L1  H    16    40       P1  7948  0.95
      P1  H 10752 10763       L1     9  0.71

> <Gold.Chemscore.Hbond.Weighted>
-8.1495

> <Gold.Chemscore.Metal.Weighted>
-0.0000

> <Gold.Chemscore.Lipo.Weighted>
-9.4089

> <Gold.Chemscore.Internal_Hbond.Weighted>
0.0000

> <Gold.Chemscore.DEClash.Weighted>
0.3029

> <Gold.Chemscore.DEInternal.Weighted>
3.3646

> <Gold.Chemscore.Rot.Weighted>
3.6980

> <Gold.Chemscore.Internal.Correction.Weighted>
   9.000000E+99

> <Gold.Protein.RotatedTorsions>
[ 6907 6896 6895 6894 ] final -155.55 input  -60.11 | X-H torsion
[ 7974 7965 7964 7962 ] final -133.17 input  175.53 | X-H torsion
[ 8008 7997 7996 7995 ] final  -30.05 input   59.86 | X-H torsion
[ 10167 10162 10161 10158 ] final   59.39 input  -65.29 | X-H torsion
[ 10718 10713 10712 10709 ] final    9.31 input   66.30 | X-H torsion
[ 10763 10752 10751 10750 ] final   74.77 input  -60.55 | X-H torsion
[ 11005 11000 10999 10996 ] final   95.54 input  -57.11 | X-H torsion

> <Gold.Protein.ActiveResidues>
 VAL166  LYS551  ARG553  GLY616  TRP617  ASP618  TYR619  PRO620  LYS621  CYS622 
 ASP623  PHE694  ASN695  SER759  ASP760  ASP761  ALA762  ILE779  LEU786  VAL792 
 PHE793  MET794  SER795  GLU796  ALA797  LYS798  CYS799  TRP800  GLU811  SER814 

> <Gold.Protein.RotatedAtoms>
  151.2742  133.4240  159.2622 H   0  0  0  0  0  0  0  0  0  0  0  0  # atno 6907 bound_to 6896
  151.0418  134.9612  159.8176 H   0  0  0  0  0  0  0  0  0  0  0  0  # atno 6908 bound_to 6896
  152.5366  134.2700  159.9020 H   0  0  0  0  0  0  0  0  0  0  0  0  # atno 6909 bound_to 6896
  144.9218  140.7023  143.4960 H   0  0  0  0  0  0  0  0  0  0  0  0  # atno 7974 bound_to 7965
  154.4265  140.1801  156.1346 H   0  0  0  0  0  0  0  0  0  0  0  0  # atno 8008 bound_to 7997
  156.0040  140.3357  155.6849 H   0  0  0  0  0  0  0  0  0  0  0  0  # atno 8009 bound_to 7997
  155.6203  140.0659  157.2671 H   0  0  0  0  0  0  0  0  0  0  0  0  # atno 8010 bound_to 7997
  140.1770  144.4220  150.6633 H   0  0  0  0  0  0  0  0  0  0  0  0  # atno 10167 bound_to 10162
  156.9644  130.5945  149.5664 H   0  0  0  0  0  0  0  0  0  0  0  0  # atno 10718 bound_to 10713
  153.0609  135.5013  154.8091 H   0  0  0  0  0  0  0  0  0  0  0  0  # atno 10763 bound_to 10752
  154.6881  135.2979  154.9521 H   0  0  0  0  0  0  0  0  0  0  0  0  # atno 10764 bound_to 10752
  154.0285  135.6733  153.4831 H   0  0  0  0  0  0  0  0  0  0  0  0  # atno 10765 bound_to 10752
  139.8788  134.8904  156.4026 H   0  0  0  0  0  0  0  0  0  0  0  0  # atno 11005 bound_to 11000
  145.3283  139.1767  143.4550 LP  0  0  0  0  0  0  0  0  0  0  0  0  # atno 17320 bound_to 7965
  146.3208  140.3310  142.8640 LP  0  0  0  0  0  0  0  0  0  0  0  0  # atno 17321 bound_to 7965
  140.6545  143.2234  151.6001 LP  0  0  0  0  0  0  0  0  0  0  0  0  # atno 17342 bound_to 10162
  139.5313  144.2909  152.1153 LP  0  0  0  0  0  0  0  0  0  0  0  0  # atno 17343 bound_to 10162
  156.0309  130.5400  150.8530 LP  0  0  0  0  0  0  0  0  0  0  0  0  # atno 17370 bound_to 10713
  157.5636  131.0946  150.9523 LP  0  0  0  0  0  0  0  0  0  0  0  0  # atno 17371 bound_to 10713
  140.9256  133.7614  155.9960 LP  0  0  0  0  0  0  0  0  0  0  0  0  # atno 17394 bound_to 11000
  140.8390  134.3089  157.5321 LP  0  0  0  0  0  0  0  0  0  0  0  0  # atno 17395 bound_to 11000

$$$$
