AV-unprocessed.smi:1602|AV-procd|sdf|6440|dock7
  -GOLD-   22720 7 83D 1   1.00000     0.00000
 Structure written by MMmdl.
 36 37  0  0  0  0  0  0  0  0  1 V2000
  149.7594  140.2127  157.5984 C   0  0  0  0  0  0  0  0  0  0  0  0
  151.1832  140.7815  157.5529 C   0  0  1  0  0  0  0  0  0  0  0  0
  151.6554  141.2785  158.9332 C   0  0  0  0  0  0  0  0  0  0  0  0
  151.5526  142.7200  159.0717 N   0  0  0  0  0  0  0  0  0  0  0  0
  152.5489  143.6263  159.3689 C   0  0  0  0  0  0  0  0  0  0  0  0
  151.9785  144.8669  159.3810 C   0  0  0  0  0  0  0  0  0  0  0  0
  150.6115  144.6129  159.0777 C   0  0  0  0  0  0  0  0  0  0  0  0
  150.3589  143.3266  158.8966 N   0  0  0  0  0  0  0  0  0  0  0  0
  152.0935  139.7513  157.0468 N   0  0  0  0  0  0  0  0  0  0  0  0
  152.0852  139.3528  155.3692 S   0  0  0  0  0  0  0  0  0  0  0  0
  150.9950  140.0948  154.7179 O   0  0  0  0  0  0  0  0  0  0  0  0
  153.4651  139.4454  154.8686 O   0  0  0  0  0  0  0  0  0  0  0  0
  151.6384  137.6842  155.4755 N   0  0  0  0  0  0  0  0  0  0  0  0
  151.7338  137.0365  156.7962 C   0  0  0  0  0  0  0  0  0  0  0  0
  151.5389  135.5161  156.6820 C   0  0  0  0  0  0  0  0  0  0  0  0
  150.3193  135.2289  156.0155 O   0  0  0  0  0  0  0  0  0  0  0  0
  150.3238  135.7314  154.6882 C   0  0  0  0  0  0  0  0  0  0  0  0
  150.4595  137.2627  154.7017 C   0  0  0  0  0  0  0  0  0  0  0  0
  149.0480  140.9657  157.9383 H   0  0  0  0  0  0  0  0  0  0  0  0
  149.6927  139.3610  158.2762 H   0  0  0  0  0  0  0  0  0  0  0  0
  149.4387  139.8797  156.6107 H   0  0  0  0  0  0  0  0  0  0  0  0
  151.1831  141.6213  156.8560 H   0  0  0  0  0  0  0  0  0  0  0  0
  151.0579  140.8192  159.7220 H   0  0  0  0  0  0  0  0  0  0  0  0
  152.6894  140.9820  159.1152 H   0  0  0  0  0  0  0  0  0  0  0  0
  153.5696  143.3170  159.5394 H   0  0  0  0  0  0  0  0  0  0  0  0
  152.4636  145.8120  159.5744 H   0  0  0  0  0  0  0  0  0  0  0  0
  149.8007  145.3202  158.9850 H   0  0  0  0  0  0  0  0  0  0  0  0
  153.0321  139.7979  157.4418 H   0  0  0  0  0  0  0  0  0  0  0  0
  152.7005  137.2500  157.2513 H   0  0  0  0  0  0  0  0  0  0  0  0
  150.9726  137.4611  157.4518 H   0  0  0  0  0  0  0  0  0  0  0  0
  152.3746  135.0570  156.1514 H   0  0  0  0  0  0  0  0  0  0  0  0
  151.5115  135.0681  157.6755 H   0  0  0  0  0  0  0  0  0  0  0  0
  151.1344  135.2758  154.1172 H   0  0  0  0  0  0  0  0  0  0  0  0
  149.3930  135.4438  154.1990 H   0  0  0  0  0  0  0  0  0  0  0  0
  149.5698  137.7152  155.1414 H   0  0  0  0  0  0  0  0  0  0  0  0
  150.5366  137.6341  153.6799 H   0  0  0  0  0  0  0  0  0  0  0  0
  1  2  1  0  0  0  0
  1 19  1  0  0  0  0
  1 20  1  0  0  0  0
  1 21  1  0  0  0  0
  2  3  1  0  0  0  0
  2  9  1  0  0  0  0
  2 22  1  0  0  0  0
  3  4  1  0  0  0  0
  3 23  1  0  0  0  0
  3 24  1  0  0  0  0
  4  8  1  0  0  0  0
  4  5  1  0  0  0  0
  5  6  2  0  0  0  0
  5 25  1  0  0  0  0
  6  7  1  0  0  0  0
  6 26  1  0  0  0  0
  7  8  2  0  0  0  0
  7 27  1  0  0  0  0
  9 10  1  0  0  0  0
  9 28  1  0  0  0  0
 10 11  2  0  0  0  0
 10 12  2  0  0  0  0
 10 13  1  0  0  0  0
 13 18  1  0  0  0  0
 13 14  1  0  0  0  0
 14 15  1  0  0  0  0
 14 29  1  0  0  0  0
 14 30  1  0  0  0  0
 15 16  1  0  0  0  0
 15 31  1  0  0  0  0
 15 32  1  0  0  0  0
 16 17  1  0  0  0  0
 17 18  1  0  0  0  0
 17 33  1  0  0  0  0
 17 34  1  0  0  0  0
 18 35  1  0  0  0  0
 18 36  1  0  0  0  0
M  END
> <s_m_source_file>
AV-unprocessed.smi

> <i_m_source_file_index>
1602

> <i_lp_mmshare_version>
43012

> <i_f3d_flags>
0

> <s_epik_input>
bjFbY0hdW2NIXVtjSF1uMVtDSDJdW0NAQEhdKFtDSDNdKVtOSF1TKD1PKSg9TylOMltDSDJdW0NIMl1PW0NIMl1bQ0gyXTI=

> <s_epik_cmdline>
J2VwaWtfcHl0aG9uJywgJy1waCcsICc3LjAnLCAnLXRuJywgJzgnLCAnLW1hJywgJzIwMCcsICctbWV0YWxfYmluZGluZycsICctaW1hZScsICc8aW5maWxlLm1hZT4nLCAnLW9tYWUnLCAnPG91dGZpbGUubWFlPic=

> <r_lp_tautomer_probability>
1

> <r_epik_Ionization_Penalty>
0.114248

> <r_epik_Ionization_Penalty_Charging>
0

> <r_epik_Ionization_Penalty_Neutral>
0.114248

> <r_epik_State_Penalty>
0.103909

> <r_epik_Charging_Adjusted_Penalty>
0.103909

> <i_epik_Tot_Q>
0

> <i_epik_Tot_abs_Q>
0

> <r_epik_Metal_State_Penalty>
0.436178

> <b_epik_Metal_Only>
0

> <s_lp_Force_Field>
OPLS_2005

> <r_lp_Energy>
8.02202

> <b_lp_Chiralities_Consistent>
1

> <s_lp_Variant>
AV-unprocessed.smi:1602-2

> <Gold.Version>
5.8.1

> <Gold.Id.Protein>
6NUR|6NUR_protein|mol2

> <Gold.PLP.Fitness>
40.2000

> <Gold.PLP.PLP>
-32.6918

> <Gold.PLP.part.hbond>
-3.6213

> <Gold.PLP.part.metal>
0.0000

> <Gold.PLP.part.buried>
-5.1707

> <Gold.PLP.part.nonpolar>
-25.7888

> <Gold.PLP.part.repulsive>
0.2963

> <Gold.PLP.ligand.clash>
0.0020

> <Gold.PLP.ligand.torsion>
1.1140

> <Gold.PLP.Chemscore.Hbond>
2.0000

> <Gold.PLP.Chemscore.CHOScore>
1.0000

> <Gold.PLP.Chemscore.Metal>
0.0000

> <Gold.Chemscore.Hbonds>
donor molecule, donor type, donor heavy atom, donor atom, acceptor molecule, acceptor atom, score
      P1  H  7989  7998       L1    11  1.00
      P1  H  7997  8008       L1    12  1.00
      L1  C     7    27       P1  8029  0.76

> <Gold.PLP.Chemscore.Internal.Correction>
0.7382

> <Gold.Rescore>
     Score         DG    S(hbond)    S(metal)    S(lipo)     H(rot)  DE(clash)    DE(int)     intcor
     13.67     -14.73       1.83        0.00      69.77       1.97       0.01       1.05       ----

> <Gold.Chemscore.Fitness>
13.6740

> <Gold.Chemscore.DG>
-14.7341

> <Gold.Chemscore.ZeroCoef>
-5.4800

> <Gold.Chemscore.Hbond>
1.8330

> <Gold.Chemscore.Metal>
0.0000

> <Gold.Chemscore.Lipo>
69.7732

> <Gold.Chemscore.Internal_Hbond>
0.0000

> <Gold.Chemscore.DEClash>
0.0075

> <Gold.Chemscore.DEInternal>
1.0526

> <Gold.Chemscore.Rot>
1.9654

> <Gold.Chemscore.Internal.Correction>
   9.000000E+99

> <Gold.Chemscore.Hbonds>
donor molecule, donor type, donor heavy atom, donor atom, acceptor molecule, acceptor atom, score
      P1  H  7989  7998       L1    11  0.59
      P1  H  7997  8008       L1    12  0.93

> <Gold.Chemscore.Hbond.Weighted>
-6.1221

> <Gold.Chemscore.Metal.Weighted>
-0.0000

> <Gold.Chemscore.Lipo.Weighted>
-8.1635

> <Gold.Chemscore.Internal_Hbond.Weighted>
0.0000

> <Gold.Chemscore.DEClash.Weighted>
0.0075

> <Gold.Chemscore.DEInternal.Weighted>
1.0526

> <Gold.Chemscore.Rot.Weighted>
5.0315

> <Gold.Chemscore.Internal.Correction.Weighted>
   9.000000E+99

> <Gold.Protein.RotatedTorsions>
[ 6907 6896 6895 6894 ] final  -82.55 input  -60.11 | X-H torsion
[ 7974 7965 7964 7962 ] final   54.90 input  175.53 | X-H torsion
[ 8008 7997 7996 7995 ] final  -10.37 input   59.86 | X-H torsion
[ 10167 10162 10161 10158 ] final  -85.69 input  -65.29 | X-H torsion
[ 10718 10713 10712 10709 ] final  -68.04 input   66.30 | X-H torsion
[ 10763 10752 10751 10750 ] final  134.61 input  -60.55 | X-H torsion
[ 11005 11000 10999 10996 ] final  113.71 input  -57.11 | X-H torsion

> <Gold.Protein.ActiveResidues>
 VAL166  LYS551  ARG553  GLY616  TRP617  ASP618  TYR619  PRO620  LYS621  CYS622 
 ASP623  PHE694  ASN695  SER759  ASP760  ASP761  ALA762  ILE779  LEU786  VAL792 
 PHE793  MET794  SER795  GLU796  ALA797  LYS798  CYS799  TRP800  GLU811  SER814 

> <Gold.Protein.RotatedAtoms>
  150.6896  134.3648  159.4966 H   0  0  0  0  0  0  0  0  0  0  0  0  # atno 6907 bound_to 6896
  152.1472  134.9014  160.0559 H   0  0  0  0  0  0  0  0  0  0  0  0  # atno 6908 bound_to 6896
  152.0125  133.3832  159.4262 H   0  0  0  0  0  0  0  0  0  0  0  0  # atno 6909 bound_to 6896
  145.9560  139.4015  143.0277 H   0  0  0  0  0  0  0  0  0  0  0  0  # atno 7974 bound_to 7965
  154.5561  140.2330  155.8409 H   0  0  0  0  0  0  0  0  0  0  0  0  # atno 8008 bound_to 7997
  156.1989  140.3058  155.9445 H   0  0  0  0  0  0  0  0  0  0  0  0  # atno 8009 bound_to 7997
  155.2978  140.0429  157.3018 H   0  0  0  0  0  0  0  0  0  0  0  0  # atno 8010 bound_to 7997
  140.4014  143.2661  151.9138 H   0  0  0  0  0  0  0  0  0  0  0  0  # atno 10167 bound_to 10162
  156.0526  130.4288  150.1942 H   0  0  0  0  0  0  0  0  0  0  0  0  # atno 10718 bound_to 10713
  153.8264  135.3109  155.3415 H   0  0  0  0  0  0  0  0  0  0  0  0  # atno 10763 bound_to 10752
  154.7991  135.4737  154.0236 H   0  0  0  0  0  0  0  0  0  0  0  0  # atno 10764 bound_to 10752
  153.1661  135.6869  153.8763 H   0  0  0  0  0  0  0  0  0  0  0  0  # atno 10765 bound_to 10752
  139.8960  134.9555  156.6780 H   0  0  0  0  0  0  0  0  0  0  0  0  # atno 11005 bound_to 11000
  145.8106  140.9728  143.0951 LP  0  0  0  0  0  0  0  0  0  0  0  0  # atno 17320 bound_to 7965
  144.6805  139.9916  143.7484 LP  0  0  0  0  0  0  0  0  0  0  0  0  # atno 17321 bound_to 7965
  139.4784  144.5630  151.8209 LP  0  0  0  0  0  0  0  0  0  0  0  0  # atno 17342 bound_to 10162
  140.4736  144.1551  150.5921 LP  0  0  0  0  0  0  0  0  0  0  0  0  # atno 17343 bound_to 10162
  157.0023  130.9926  151.3387 LP  0  0  0  0  0  0  0  0  0  0  0  0  # atno 17370 bound_to 10713
  157.5466  130.8155  149.8094 LP  0  0  0  0  0  0  0  0  0  0  0  0  # atno 17371 bound_to 10713
  140.7321  133.9050  155.8219 LP  0  0  0  0  0  0  0  0  0  0  0  0  # atno 17394 bound_to 11000
  141.0145  134.0975  157.4187 LP  0  0  0  0  0  0  0  0  0  0  0  0  # atno 17395 bound_to 11000

$$$$
