AV-unprocessed.smi:1406|AV-procd|sdf|5718|dock10
  -GOLD-   22720 5353D 1   1.00000     0.00000
 Structure written by MMmdl.
 41 43  0  0  0  0  0  0  0  0  2 V2000
  150.9948  137.9765  154.5713 C   0  0  0  0  0  0  0  0  0  0  0  0
  150.6738  138.8608  155.7933 C   0  0  1  0  0  0  0  0  0  0  0  0
  151.9311  139.4613  156.4419 C   0  0  0  0  0  0  0  0  0  0  0  0
  153.0292  139.3737  155.8916 O   0  0  0  0  0  0  0  0  0  0  0  0
  151.7530  140.0778  157.6209 N   0  0  0  0  0  0  0  0  0  0  0  0
  152.8030  140.7506  158.3809 C   0  0  2  0  0  0  0  0  0  0  0  0
  153.0250  140.1761  159.7961 C   0  0  0  0  0  0  0  0  0  0  0  0
  153.2120  141.4058  160.6905 C   0  0  0  0  0  0  0  0  0  0  0  0
  152.3521  142.4092  160.0525 N   0  3  1  0  0  0  0  0  0  0  0  0
  152.4594  143.8152  160.4924 C   0  0  0  0  0  0  0  0  0  0  0  0
  151.3409  144.6282  159.8048 C   0  0  0  0  0  0  0  0  0  0  0  0
  151.3348  144.4371  158.2704 C   0  0  0  0  0  0  0  0  0  0  0  0
  151.3501  142.9436  157.8778 C   0  0  0  0  0  0  0  0  0  0  0  0
  152.5220  142.2533  158.5978 C   0  0  2  0  0  0  0  0  0  0  0  0
  149.7213  139.9173  155.4738 N   0  0  0  0  0  0  0  0  0  0  0  0
  148.4625  140.0903  155.8831 C   0  0  0  0  0  0  0  0  0  0  0  0
  147.8976  141.2019  155.4337 N   0  0  0  0  0  0  0  0  0  0  0  0
  148.9379  141.7090  154.7078 C   0  0  0  0  0  0  0  0  0  0  0  0
  150.0570  140.9854  154.7078 N   0  0  0  0  0  0  0  0  0  0  0  0
  151.6707  137.1640  154.8403 H   0  0  0  0  0  0  0  0  0  0  0  0
  151.4639  138.5432  153.7658 H   0  0  0  0  0  0  0  0  0  0  0  0
  150.0870  137.5248  154.1705 H   0  0  0  0  0  0  0  0  0  0  0  0
  150.2013  138.2189  156.5387 H   0  0  0  0  0  0  0  0  0  0  0  0
  150.8193  140.1057  158.0041 H   0  0  0  0  0  0  0  0  0  0  0  0
  153.7316  140.6644  157.8127 H   0  0  0  0  0  0  0  0  0  0  0  0
  152.1420  139.6249  160.1240 H   0  0  0  0  0  0  0  0  0  0  0  0
  153.8743  139.4936  159.8430 H   0  0  0  0  0  0  0  0  0  0  0  0
  152.9262  141.2216  161.7264 H   0  0  0  0  0  0  0  0  0  0  0  0
  154.2500  141.7418  160.6700 H   0  0  0  0  0  0  0  0  0  0  0  0
  152.3542  143.8716  161.5763 H   0  0  0  0  0  0  0  0  0  0  0  0
  153.4430  144.2149  160.2407 H   0  0  0  0  0  0  0  0  0  0  0  0
  150.3759  144.3147  160.2049 H   0  0  0  0  0  0  0  0  0  0  0  0
  151.4434  145.6858  160.0499 H   0  0  0  0  0  0  0  0  0  0  0  0
  150.4651  144.9300  157.8348 H   0  0  0  0  0  0  0  0  0  0  0  0
  152.2104  144.9297  157.8452 H   0  0  0  0  0  0  0  0  0  0  0  0
  150.4034  142.4770  158.1537 H   0  0  0  0  0  0  0  0  0  0  0  0
  151.4526  142.8429  156.7966 H   0  0  0  0  0  0  0  0  0  0  0  0
  153.4389  142.7777  158.3195 H   0  0  0  0  0  0  0  0  0  0  0  0
  147.9501  139.3924  156.5287 H   0  0  0  0  0  0  0  0  0  0  0  0
  148.8712  142.6434  154.1698 H   0  0  0  0  0  0  0  0  0  0  0  0
  151.4065  142.1177  160.2555 H   0  0  0  0  0  0  0  0  0  0  0  0
  1  2  1  0  0  0  0
  1 20  1  0  0  0  0
  1 21  1  0  0  0  0
  1 22  1  0  0  0  0
  2  3  1  0  0  0  0
  2 15  1  0  0  0  0
  2 23  1  0  0  0  0
  3  4  2  0  0  0  0
  3  5  1  0  0  0  0
  5  6  1  0  0  0  0
  5 24  1  0  0  0  0
  6 14  1  0  0  0  0
  6  7  1  0  0  0  0
  6 25  1  0  0  0  0
  7  8  1  0  0  0  0
  7 26  1  0  0  0  0
  7 27  1  0  0  0  0
  8  9  1  0  0  0  0
  8 28  1  0  0  0  0
  8 29  1  0  0  0  0
  9 14  1  0  0  0  0
  9 10  1  0  0  0  0
  9 41  1  0  0  0  0
 10 11  1  0  0  0  0
 10 30  1  0  0  0  0
 10 31  1  0  0  0  0
 11 12  1  0  0  0  0
 11 32  1  0  0  0  0
 11 33  1  0  0  0  0
 12 13  1  0  0  0  0
 12 34  1  0  0  0  0
 12 35  1  0  0  0  0
 13 14  1  0  0  0  0
 13 36  1  0  0  0  0
 13 37  1  0  0  0  0
 14 38  1  0  0  0  0
 15 19  1  0  0  0  0
 15 16  1  0  0  0  0
 16 17  2  0  0  0  0
 16 39  1  0  0  0  0
 17 18  1  0  0  0  0
 18 19  2  0  0  0  0
 18 40  1  0  0  0  0
M  CHG  1   9   1
M  END
> <s_m_source_file>
AV-unprocessed.smi

> <i_m_source_file_index>
1406

> <i_lp_mmshare_version>
43012

> <i_f3d_flags>
0

> <s_epik_input>
bjFbY0hdbltjSF1uMVtDQEhdKFtDSDNdKUMoPU8pW05IXVtDQEhdKFtDSDJdW0NIMl0yKVtDQEBIXShOMjMpW0NIMl1bQ0gyXVtDSDJdW0NIMl0z

> <s_epik_cmdline>
J2VwaWtfcHl0aG9uJywgJy1waCcsICc3LjAnLCAnLXRuJywgJzgnLCAnLW1hJywgJzIwMCcsICctbWV0YWxfYmluZGluZycsICctaW1hZScsICc8aW5maWxlLm1hZT4nLCAnLW9tYWUnLCAnPG91dGZpbGUubWFlPic=

> <r_lp_tautomer_probability>
1

> <r_epik_Ionization_Penalty>
0.00197066

> <r_epik_Ionization_Penalty_Charging>
0.00196223

> <r_epik_Ionization_Penalty_Neutral>
8.43107e-06

> <r_epik_State_Penalty>
0.00133866

> <r_epik_Charging_Adjusted_Penalty>
0.00330089

> <i_epik_Tot_Q>
1

> <i_epik_Tot_abs_Q>
1

> <r_epik_Metal_State_Penalty>
-0

> <b_epik_Metal_Only>
0

> <s_lp_Force_Field>
OPLS_2005

> <r_lp_Energy>
46.7011

> <b_lp_Chiralities_Consistent>
1

> <s_lp_Variant>
AV-unprocessed.smi:1406-10

> <Gold.Version>
5.8.1

> <Gold.Id.Protein>
6NUR|6NUR_protein|mol2

> <Gold.PLP.Fitness>
41.9158

> <Gold.PLP.PLP>
-35.0767

> <Gold.PLP.part.hbond>
-2.0000

> <Gold.PLP.part.metal>
0.0000

> <Gold.PLP.part.buried>
-4.1826

> <Gold.PLP.part.nonpolar>
-28.2866

> <Gold.PLP.part.repulsive>
0.3506

> <Gold.PLP.ligand.clash>
0.0000

> <Gold.PLP.ligand.torsion>
0.2030

> <Gold.PLP.Chemscore.Hbond>
1.6720

> <Gold.PLP.Chemscore.CHOScore>
0.7099

> <Gold.PLP.Chemscore.Metal>
0.0000

> <Gold.Chemscore.Hbonds>
donor molecule, donor type, donor heavy atom, donor atom, acceptor molecule, acceptor atom, score
      P1  H  7989  7998       L1    19  0.67
      P1  H  7997  8009       L1     4  1.00
      L1  C    18    40       P1  8028  0.71

> <Gold.PLP.Chemscore.Internal.Correction>
0.0996

> <Gold.Rescore>
     Score         DG    S(hbond)    S(metal)    S(lipo)     H(rot)  DE(clash)    DE(int)     intcor
     17.33     -17.48       1.82        0.00      91.76       1.89       0.05       0.10       ----

> <Gold.Chemscore.Fitness>
17.3306

> <Gold.Chemscore.DG>
-17.4772

> <Gold.Chemscore.ZeroCoef>
-5.4800

> <Gold.Chemscore.Hbond>
1.8235

> <Gold.Chemscore.Metal>
0.0000

> <Gold.Chemscore.Lipo>
91.7635

> <Gold.Chemscore.Internal_Hbond>
0.0000

> <Gold.Chemscore.DEClash>
0.0460

> <Gold.Chemscore.DEInternal>
0.1006

> <Gold.Chemscore.Rot>
1.8865

> <Gold.Chemscore.Internal.Correction>
   9.000000E+99

> <Gold.Chemscore.Hbonds>
donor molecule, donor type, donor heavy atom, donor atom, acceptor molecule, acceptor atom, score
      P1  H  7989  7998       L1    19  0.64
      P1  H  7997  8009       L1     4  0.96

> <Gold.Chemscore.Hbond.Weighted>
-6.0904

> <Gold.Chemscore.Metal.Weighted>
-0.0000

> <Gold.Chemscore.Lipo.Weighted>
-10.7363

> <Gold.Chemscore.Internal_Hbond.Weighted>
0.0000

> <Gold.Chemscore.DEClash.Weighted>
0.0460

> <Gold.Chemscore.DEInternal.Weighted>
0.1006

> <Gold.Chemscore.Rot.Weighted>
4.8295

> <Gold.Chemscore.Internal.Correction.Weighted>
   9.000000E+99

> <Gold.Protein.RotatedTorsions>
[ 6907 6896 6895 6894 ] final  -52.98 input  -60.11 | X-H torsion
[ 7974 7965 7964 7962 ] final  -31.03 input  175.53 | X-H torsion
[ 8008 7997 7996 7995 ] final -150.92 input   59.86 | X-H torsion
[ 10167 10162 10161 10158 ] final  -51.82 input  -65.29 | X-H torsion
[ 10718 10713 10712 10709 ] final    4.51 input   66.30 | X-H torsion
[ 10763 10752 10751 10750 ] final  -40.34 input  -60.55 | X-H torsion
[ 11005 11000 10999 10996 ] final   87.66 input  -57.11 | X-H torsion

> <Gold.Protein.ActiveResidues>
 VAL166  LYS551  ARG553  GLY616  TRP617  ASP618  TYR619  PRO620  LYS621  CYS622 
 ASP623  PHE694  ASN695  SER759  ASP760  ASP761  ALA762  ILE779  LEU786  VAL792 
 PHE793  MET794  SER795  GLU796  ALA797  LYS798  CYS799  TRP800  GLU811  SER814 

> <Gold.Protein.RotatedAtoms>
  150.8468  134.7779  159.6976 H   0  0  0  0  0  0  0  0  0  0  0  0  # atno 6907 bound_to 6896
  152.4543  134.5323  159.9824 H   0  0  0  0  0  0  0  0  0  0  0  0  # atno 6908 bound_to 6896
  151.5452  133.3388  159.2978 H   0  0  0  0  0  0  0  0  0  0  0  0  # atno 6909 bound_to 6896
  146.1098  140.5616  142.8783 H   0  0  0  0  0  0  0  0  0  0  0  0  # atno 7974 bound_to 7965
  155.6312  140.0691  157.2648 H   0  0  0  0  0  0  0  0  0  0  0  0  # atno 8008 bound_to 7997
  154.4205  140.1767  156.1523 H   0  0  0  0  0  0  0  0  0  0  0  0  # atno 8009 bound_to 7997
  155.9931  140.3343  155.6775 H   0  0  0  0  0  0  0  0  0  0  0  0  # atno 8010 bound_to 7997
  140.6569  143.2606  151.4558 H   0  0  0  0  0  0  0  0  0  0  0  0  # atno 10167 bound_to 10162
  156.8937  130.5696  149.5649 H   0  0  0  0  0  0  0  0  0  0  0  0  # atno 10718 bound_to 10713
  153.9444  135.6758  153.4744 H   0  0  0  0  0  0  0  0  0  0  0  0  # atno 10763 bound_to 10752
  153.0915  135.4872  154.8696 H   0  0  0  0  0  0  0  0  0  0  0  0  # atno 10764 bound_to 10752
  154.7360  135.3149  154.8770 H   0  0  0  0  0  0  0  0  0  0  0  0  # atno 10765 bound_to 10752
  139.8914  134.8437  156.2891 H   0  0  0  0  0  0  0  0  0  0  0  0  # atno 11005 bound_to 11000
  144.7502  140.5171  143.6807 LP  0  0  0  0  0  0  0  0  0  0  0  0  # atno 17320 bound_to 7965
  145.5687  139.1482  143.3301 LP  0  0  0  0  0  0  0  0  0  0  0  0  # atno 17321 bound_to 7965
  139.5794  144.1745  152.1947 LP  0  0  0  0  0  0  0  0  0  0  0  0  # atno 17342 bound_to 10162
  140.1066  144.5494  150.6953 LP  0  0  0  0  0  0  0  0  0  0  0  0  # atno 17343 bound_to 10162
  156.0616  130.5668  150.9205 LP  0  0  0  0  0  0  0  0  0  0  0  0  # atno 17370 bound_to 10713
  157.6068  131.0938  150.8864 LP  0  0  0  0  0  0  0  0  0  0  0  0  # atno 17371 bound_to 10713
  140.9988  133.7164  156.0928 LP  0  0  0  0  0  0  0  0  0  0  0  0  # atno 17394 bound_to 11000
  140.7526  134.4028  157.5539 LP  0  0  0  0  0  0  0  0  0  0  0  0  # atno 17395 bound_to 11000

$$$$
