AV-unprocessed.smi:246|AV-procd|sdf|1884|dock10
  -GOLD-   2262020533D 1   1.00000     0.00000
 Structure written by MMmdl.
 57 60  0  0  0  0  0  0  0  0  1 V2000
  145.5216  131.7584  149.9411 C   0  0  0  0  0  0  0  0  0  0  0  0
  144.1486  132.4384  149.8479 C   0  0  0  0  0  0  0  0  0  0  0  0
  144.2386  133.8401  150.0607 O   0  0  0  0  0  0  0  0  0  0  0  0
  144.2199  134.2257  151.4274 C   0  0  0  0  0  0  0  0  0  0  0  0
  144.6386  135.6948  151.5335 C   0  0  0  0  0  0  0  0  0  0  0  0
  144.4391  136.1297  152.8697 O   0  0  0  0  0  0  0  0  0  0  0  0
  144.8969  137.4504  153.1193 C   0  0  1  0  0  0  0  0  0  0  0  0
  144.5819  137.9477  154.5329 C   0  0  0  0  0  0  0  0  0  0  0  0
  145.6784  138.9796  154.8098 C   0  0  0  0  0  0  0  0  0  0  0  0
  146.7928  138.6093  153.9438 N   0  0  0  0  0  0  0  0  0  0  0  0
  148.0826  138.8906  154.2687 C   0  0  0  0  0  0  0  0  0  0  0  0
  149.0591  138.0789  153.7824 N   0  0  0  0  0  0  0  0  0  0  0  0
  150.3436  138.3115  154.0651 C   0  0  0  0  0  0  0  0  0  0  0  0
  150.8700  139.2856  154.8075 N   0  0  0  0  0  0  0  0  0  0  0  0
  149.8997  140.1005  155.3094 C   0  0  0  0  0  0  0  0  0  0  0  0
  148.4952  139.9773  155.0981 C   0  0  0  0  0  0  0  0  0  0  0  0
  147.8347  140.9938  155.7819 N   0  0  0  0  0  0  0  0  0  0  0  0
  148.7879  141.6783  156.3512 C   0  0  0  0  0  0  0  0  0  0  0  0
  150.0605  141.2157  156.1113 N   0  0  0  0  0  0  0  0  0  0  0  0
  151.3017  141.7885  156.5990 C   0  0  0  0  0  0  0  0  0  0  0  0
  151.0864  142.8431  157.7057 C   0  0  2  0  0  0  0  0  0  0  0  0
  151.0963  144.1123  157.0833 O   0  0  0  0  0  0  0  0  0  0  0  0
  152.1515  142.8211  158.8253 C   0  0  1  0  0  0  0  0  0  0  0  0
  151.8636  143.7660  159.9953 C   0  0  0  0  0  0  0  0  0  0  0  0
  152.5996  143.1352  161.1677 C   0  0  0  0  0  0  0  0  0  0  0  0
  152.9368  141.7255  160.6785 C   0  0  0  0  0  0  0  0  0  0  0  0
  152.1793  141.5660  159.4892 O   0  0  0  0  0  0  0  0  0  0  0  0
  146.4244  137.4984  153.0803 C   0  0  0  0  0  0  0  0  0  0  0  0
  144.5002  138.1484  152.3796 H   0  0  0  0  0  0  0  0  0  0  0  0
  145.4204  130.6754  149.8678 H   0  0  0  0  0  0  0  0  0  0  0  0
  146.0048  131.9828  150.8922 H   0  0  0  0  0  0  0  0  0  0  0  0
  146.1888  132.0772  149.1413 H   0  0  0  0  0  0  0  0  0  0  0  0
  143.6635  132.2175  148.8962 H   0  0  0  0  0  0  0  0  0  0  0  0
  143.5026  132.0306  150.6256 H   0  0  0  0  0  0  0  0  0  0  0  0
  143.2361  134.0849  151.8747 H   0  0  0  0  0  0  0  0  0  0  0  0
  144.9248  133.6066  151.9839 H   0  0  0  0  0  0  0  0  0  0  0  0
  145.6950  135.7907  151.2783 H   0  0  0  0  0  0  0  0  0  0  0  0
  144.0729  136.3022  150.8260 H   0  0  0  0  0  0  0  0  0  0  0  0
  143.5783  138.3623  154.6297 H   0  0  0  0  0  0  0  0  0  0  0  0
  144.6748  137.1226  155.2406 H   0  0  0  0  0  0  0  0  0  0  0  0
  145.3432  139.9816  154.5398 H   0  0  0  0  0  0  0  0  0  0  0  0
  145.9469  138.9823  155.8670 H   0  0  0  0  0  0  0  0  0  0  0  0
  151.0506  137.6181  153.6341 H   0  0  0  0  0  0  0  0  0  0  0  0
  148.5875  142.5515  156.9546 H   0  0  0  0  0  0  0  0  0  0  0  0
  151.9329  140.9783  156.9670 H   0  0  0  0  0  0  0  0  0  0  0  0
  151.8258  142.2313  155.7511 H   0  0  0  0  0  0  0  0  0  0  0  0
  150.0996  142.7057  158.1496 H   0  0  0  0  0  0  0  0  0  0  0  0
  150.3255  144.1872  156.5420 H   0  0  0  0  0  0  0  0  0  0  0  0
  153.1414  143.0303  158.4147 H   0  0  0  0  0  0  0  0  0  0  0  0
  152.1844  144.7891  159.7971 H   0  0  0  0  0  0  0  0  0  0  0  0
  150.7937  143.7859  160.2078 H   0  0  0  0  0  0  0  0  0  0  0  0
  153.5080  143.6850  161.4164 H   0  0  0  0  0  0  0  0  0  0  0  0
  151.9660  143.1126  162.0550 H   0  0  0  0  0  0  0  0  0  0  0  0
  153.9984  141.6441  160.4410 H   0  0  0  0  0  0  0  0  0  0  0  0
  152.6904  140.9550  161.4094 H   0  0  0  0  0  0  0  0  0  0  0  0
  146.8478  136.5772  153.4835 H   0  0  0  0  0  0  0  0  0  0  0  0
  146.7896  137.6337  152.0619 H   0  0  0  0  0  0  0  0  0  0  0  0
  1  2  1  0  0  0  0
  1 30  1  0  0  0  0
  1 31  1  0  0  0  0
  1 32  1  0  0  0  0
  2  3  1  0  0  0  0
  2 33  1  0  0  0  0
  2 34  1  0  0  0  0
  3  4  1  0  0  0  0
  4  5  1  0  0  0  0
  4 35  1  0  0  0  0
  4 36  1  0  0  0  0
  5  6  1  0  0  0  0
  5 37  1  0  0  0  0
  5 38  1  0  0  0  0
  6  7  1  0  0  0  0
  7 29  1  0  0  0  0
  7 28  1  0  0  0  0
  7  8  1  0  0  0  0
  8  9  1  0  0  0  0
  8 39  1  0  0  0  0
  8 40  1  0  0  0  0
  9 10  1  0  0  0  0
  9 41  1  0  0  0  0
  9 42  1  0  0  0  0
 10 11  1  0  0  0  0
 10 28  1  0  0  0  0
 11 16  1  0  0  0  0
 11 12  2  0  0  0  0
 12 13  1  0  0  0  0
 13 14  2  0  0  0  0
 13 43  1  0  0  0  0
 14 15  1  0  0  0  0
 15 19  1  0  0  0  0
 15 16  2  0  0  0  0
 16 17  1  0  0  0  0
 17 18  2  0  0  0  0
 18 19  1  0  0  0  0
 18 44  1  0  0  0  0
 19 20  1  0  0  0  0
 20 21  1  0  0  0  0
 20 45  1  0  0  0  0
 20 46  1  0  0  0  0
 21 22  1  0  0  0  0
 21 23  1  0  0  0  0
 21 47  1  0  0  0  0
 22 48  1  0  0  0  0
 23 27  1  0  0  0  0
 23 24  1  0  0  0  0
 23 49  1  0  0  0  0
 24 25  1  0  0  0  0
 24 50  1  0  0  0  0
 24 51  1  0  0  0  0
 25 26  1  0  0  0  0
 25 52  1  0  0  0  0
 25 53  1  0  0  0  0
 26 27  1  0  0  0  0
 26 54  1  0  0  0  0
 26 55  1  0  0  0  0
 28 56  1  0  0  0  0
 28 57  1  0  0  0  0
M  END
> <s_m_source_file>
AV-unprocessed.smi

> <i_m_source_file_index>
246

> <i_lp_mmshare_version>
43012

> <i_f3d_flags>
0

> <s_epik_input>
W0NIM11bQ0gyXU9bQ0gyXVtDSDJdT1tDQEhdMVtDSDJdW0NIMl1OKFtDSDJdMSljKG5bY0hdbjIpYyhjMjMpbltjSF1uM1tDSDJdW0NASF0oW09IXSlbQ0BASF00W0NIMl1bQ0gyXVtDSDJdTzQ=

> <s_epik_cmdline>
J2VwaWtfcHl0aG9uJywgJy1waCcsICc3LjAnLCAnLXRuJywgJzgnLCAnLW1hJywgJzIwMCcsICctbWV0YWxfYmluZGluZycsICctaW1hZScsICc8aW5maWxlLm1hZT4nLCAnLW9tYWUnLCAnPG91dGZpbGUubWFlPic=

> <r_lp_tautomer_probability>
1

> <r_epik_Ionization_Penalty>
0.0024631

> <r_epik_Ionization_Penalty_Charging>
0

> <r_epik_Ionization_Penalty_Neutral>
0.0024631

> <r_epik_State_Penalty>
0.00162428

> <r_epik_Charging_Adjusted_Penalty>
0.00162428

> <i_epik_Tot_Q>
0

> <i_epik_Tot_abs_Q>
0

> <r_epik_Metal_State_Penalty>
-0

> <b_epik_Metal_Only>
0

> <s_lp_Force_Field>
OPLS_2005

> <r_lp_Energy>
49.6926

> <b_lp_Chiralities_Consistent>
1

> <s_lp_Variant>
AV-unprocessed.smi:246-5

> <Gold.Version>
5.8.1

> <Gold.Id.Protein>
6NUR|6NUR_protein|mol2

> <Gold.PLP.Fitness>
50.8456

> <Gold.PLP.PLP>
-43.0014

> <Gold.PLP.part.hbond>
-2.0000

> <Gold.PLP.part.metal>
0.0000

> <Gold.PLP.part.buried>
-6.4812

> <Gold.PLP.part.nonpolar>
-38.5788

> <Gold.PLP.part.repulsive>
5.1143

> <Gold.PLP.ligand.clash>
0.0000

> <Gold.PLP.ligand.torsion>
1.0467

> <Gold.PLP.Chemscore.Hbond>
2.0000

> <Gold.PLP.Chemscore.CHOScore>
1.1225

> <Gold.PLP.Chemscore.Metal>
0.0000

> <Gold.Chemscore.Hbonds>
donor molecule, donor type, donor heavy atom, donor atom, acceptor molecule, acceptor atom, score
      L1  H    22    48       P1  8028  1.00
      P1  H  7989  7998       L1    14  0.39
      L1  C    13    43       P1  7949  0.59
      L1  C    18    44       P1  8028  0.66

> <Gold.PLP.Chemscore.Internal.Correction>
0.5699

> <Gold.Rescore>
     Score         DG    S(hbond)    S(metal)    S(lipo)     H(rot)  DE(clash)    DE(int)     intcor
     11.47     -14.24       1.17        0.00     109.26       3.10       1.67       1.11       ----

> <Gold.Chemscore.Fitness>
11.4701

> <Gold.Chemscore.DG>
-14.2441

> <Gold.Chemscore.ZeroCoef>
-5.4800

> <Gold.Chemscore.Hbond>
1.1748

> <Gold.Chemscore.Metal>
0.0000

> <Gold.Chemscore.Lipo>
109.2562

> <Gold.Chemscore.Internal_Hbond>
0.0000

> <Gold.Chemscore.DEClash>
1.6674

> <Gold.Chemscore.DEInternal>
1.1066

> <Gold.Chemscore.Rot>
3.1026

> <Gold.Chemscore.Internal.Correction>
   9.000000E+99

> <Gold.Chemscore.Hbonds>
donor molecule, donor type, donor heavy atom, donor atom, acceptor molecule, acceptor atom, score
      L1  H    22    48       P1  8028  1.00
      P1  H  7989  7998       L1    14  0.02

> <Gold.Chemscore.Hbond.Weighted>
-3.9237

> <Gold.Chemscore.Metal.Weighted>
-0.0000

> <Gold.Chemscore.Lipo.Weighted>
-12.7830

> <Gold.Chemscore.Internal_Hbond.Weighted>
0.0000

> <Gold.Chemscore.DEClash.Weighted>
1.6674

> <Gold.Chemscore.DEInternal.Weighted>
1.1066

> <Gold.Chemscore.Rot.Weighted>
7.9426

> <Gold.Chemscore.Internal.Correction.Weighted>
   9.000000E+99

> <Gold.Protein.RotatedTorsions>
[ 6907 6896 6895 6894 ] final  114.86 input  -60.11 | X-H torsion
[ 7974 7965 7964 7962 ] final   63.02 input  175.53 | X-H torsion
[ 8008 7997 7996 7995 ] final   58.21 input   59.86 | X-H torsion
[ 10167 10162 10161 10158 ] final  112.96 input  -65.29 | X-H torsion
[ 10718 10713 10712 10709 ] final -156.19 input   66.30 | X-H torsion
[ 10763 10752 10751 10750 ] final  -22.97 input  -60.55 | X-H torsion
[ 11005 11000 10999 10996 ] final  -34.55 input  -57.11 | X-H torsion

> <Gold.Protein.ActiveResidues>
 VAL166  LYS551  ARG553  GLY616  TRP617  ASP618  TYR619  PRO620  LYS621  CYS622 
 ASP623  PHE694  ASN695  SER759  ASP760  ASP761  ALA762  ILE779  LEU786  VAL792 
 PHE793  MET794  SER795  GLU796  ALA797  LYS798  CYS799  TRP800  GLU811  SER814 

> <Gold.Protein.RotatedAtoms>
  152.4777  133.8177  159.7036 H   0  0  0  0  0  0  0  0  0  0  0  0  # atno 6907 bound_to 6896
  150.8804  133.7370  159.2940 H   0  0  0  0  0  0  0  0  0  0  0  0  # atno 6908 bound_to 6896
  151.4876  135.1059  159.9847 H   0  0  0  0  0  0  0  0  0  0  0  0  # atno 6909 bound_to 6896
  145.8666  139.3350  143.0787 H   0  0  0  0  0  0  0  0  0  0  0  0  # atno 7974 bound_to 7965
  155.5463  140.3485  155.4458 H   0  0  0  0  0  0  0  0  0  0  0  0  # atno 8008 bound_to 7997
  156.0615  140.1341  156.9961 H   0  0  0  0  0  0  0  0  0  0  0  0  # atno 8009 bound_to 7997
  154.4482  140.0984  156.6509 H   0  0  0  0  0  0  0  0  0  0  0  0  # atno 8010 bound_to 7997
  139.6496  144.7128  151.2073 H   0  0  0  0  0  0  0  0  0  0  0  0  # atno 10167 bound_to 10162
  156.5231  130.8487  151.2689 H   0  0  0  0  0  0  0  0  0  0  0  0  # atno 10718 bound_to 10713
  153.6603  135.6976  153.5179 H   0  0  0  0  0  0  0  0  0  0  0  0  # atno 10763 bound_to 10752
  153.2636  135.4237  155.0918 H   0  0  0  0  0  0  0  0  0  0  0  0  # atno 10764 bound_to 10752
  154.8453  135.3561  154.6148 H   0  0  0  0  0  0  0  0  0  0  0  0  # atno 10765 bound_to 10752
  140.9725  133.7101  156.1547 H   0  0  0  0  0  0  0  0  0  0  0  0  # atno 11005 bound_to 11000
  145.9186  140.9131  143.0417 LP  0  0  0  0  0  0  0  0  0  0  0  0  # atno 17320 bound_to 7965
  144.6726  140.1257  143.7447 LP  0  0  0  0  0  0  0  0  0  0  0  0  # atno 17321 bound_to 7965
  140.7531  143.6172  150.8548 LP  0  0  0  0  0  0  0  0  0  0  0  0  # atno 17342 bound_to 10162
  139.9818  143.5942  152.2940 LP  0  0  0  0  0  0  0  0  0  0  0  0  # atno 17343 bound_to 10162
  157.7434  130.9910  150.2587 LP  0  0  0  0  0  0  0  0  0  0  0  0  # atno 17370 bound_to 10713
  156.3131  130.3775  149.7643 LP  0  0  0  0  0  0  0  0  0  0  0  0  # atno 17371 bound_to 10713
  140.7308  134.4257  157.5566 LP  0  0  0  0  0  0  0  0  0  0  0  0  # atno 17394 bound_to 11000
  139.8918  134.8771  156.2303 LP  0  0  0  0  0  0  0  0  0  0  0  0  # atno 17395 bound_to 11000

$$$$
