AV-unprocessed.smi:3329|AV-procd|sdf|12795|dock5
  -GOLD-   2272019153D 1   1.00000     0.00000
 Structure written by MMmdl.
 42 43  0  0  0  0  0  0  0  0  2 V2000
  144.5139  132.2641  149.5381 C   0  0  0  0  0  0  0  0  0  0  0  0
  144.2434  133.2885  150.6023 C   0  0  0  0  0  0  0  0  0  0  0  0
  143.5252  133.1136  151.8190 C   0  0  0  0  0  0  0  0  0  0  0  0
  143.4648  134.2192  152.5435 N   0  0  0  0  0  0  0  0  0  0  0  0
  144.1413  135.1352  151.8193 N   0  0  0  0  0  0  0  0  0  0  0  0
  144.2762  136.4930  152.3165 C   0  0  0  0  0  0  0  0  0  0  0  0
  145.6981  137.0497  152.1310 C   0  0  0  0  0  0  0  0  0  0  0  0
  145.6727  138.4810  151.7702 N   0  3  0  0  0  0  0  0  0  0  0  0
  146.9211  139.2082  152.0771 C   0  0  0  0  0  0  0  0  0  0  0  0
  147.4046  138.9498  153.5054 C   0  0  0  0  0  0  0  0  0  0  0  0
  146.6518  138.4504  154.3416 O   0  0  0  0  0  0  0  0  0  0  0  0
  148.6733  139.3022  153.7695 N   0  0  0  0  0  0  0  0  0  0  0  0
  149.3674  139.1703  155.0517 C   0  0  1  0  0  0  0  0  0  0  0  0
  149.3210  137.6786  155.4213 C   0  0  0  0  0  0  0  0  0  0  0  0
  150.7854  139.5596  154.9094 C   0  0  0  0  0  0  0  0  0  0  0  0
  151.8956  139.8656  154.7951 N   0  0  0  0  0  0  0  0  0  0  0  0
  148.7011  139.9722  156.1728 C   0  0  0  0  0  0  0  0  0  0  0  0
  149.1027  141.3862  156.5377 C   0  0  0  0  0  0  0  0  0  0  0  0
  149.4069  140.2479  157.4828 C   0  0  0  0  0  0  0  0  0  0  0  0
  144.6159  134.6025  150.6392 C   0  0  0  0  0  0  0  0  0  0  0  0
  143.6152  132.0338  148.9658 H   0  0  0  0  0  0  0  0  0  0  0  0
  144.8739  131.3272  149.9636 H   0  0  0  0  0  0  0  0  0  0  0  0
  145.2687  132.6039  148.8284 H   0  0  0  0  0  0  0  0  0  0  0  0
  143.0489  132.2201  152.1949 H   0  0  0  0  0  0  0  0  0  0  0  0
  143.5507  137.1277  151.8057 H   0  0  0  0  0  0  0  0  0  0  0  0
  144.0070  136.4976  153.3736 H   0  0  0  0  0  0  0  0  0  0  0  0
  146.2636  136.9259  153.0553 H   0  0  0  0  0  0  0  0  0  0  0  0
  146.2265  136.4889  151.3587 H   0  0  0  0  0  0  0  0  0  0  0  0
  145.5004  138.5556  150.7773 H   0  0  0  0  0  0  0  0  0  0  0  0
  147.6992  138.9062  151.3746 H   0  0  0  0  0  0  0  0  0  0  0  0
  146.7576  140.2791  151.9476 H   0  0  0  0  0  0  0  0  0  0  0  0
  149.2101  139.7078  153.0165 H   0  0  0  0  0  0  0  0  0  0  0  0
  149.8418  137.4880  156.3606 H   0  0  0  0  0  0  0  0  0  0  0  0
  149.7974  137.0647  154.6558 H   0  0  0  0  0  0  0  0  0  0  0  0
  148.2950  137.3265  155.5376 H   0  0  0  0  0  0  0  0  0  0  0  0
  147.6385  139.7551  156.2679 H   0  0  0  0  0  0  0  0  0  0  0  0
  149.9425  141.8403  156.0160 H   0  0  0  0  0  0  0  0  0  0  0  0
  148.3081  142.0738  156.8195 H   0  0  0  0  0  0  0  0  0  0  0  0
  148.8161  140.1802  158.3938 H   0  0  0  0  0  0  0  0  0  0  0  0
  150.4468  139.9430  157.5808 H   0  0  0  0  0  0  0  0  0  0  0  0
  145.1766  135.1943  149.9307 H   0  0  0  0  0  0  0  0  0  0  0  0
  144.9120  138.9286  152.2611 H   0  0  0  0  0  0  0  0  0  0  0  0
  1  2  1  0  0  0  0
  1 21  1  0  0  0  0
  1 22  1  0  0  0  0
  1 23  1  0  0  0  0
  2 20  2  0  0  0  0
  2  3  1  0  0  0  0
  3  4  2  0  0  0  0
  3 24  1  0  0  0  0
  4  5  1  0  0  0  0
  5  6  1  0  0  0  0
  5 20  1  0  0  0  0
  6  7  1  0  0  0  0
  6 25  1  0  0  0  0
  6 26  1  0  0  0  0
  7  8  1  0  0  0  0
  7 27  1  0  0  0  0
  7 28  1  0  0  0  0
  8  9  1  0  0  0  0
  8 29  1  0  0  0  0
  8 42  1  0  0  0  0
  9 10  1  0  0  0  0
  9 30  1  0  0  0  0
  9 31  1  0  0  0  0
 10 11  2  0  0  0  0
 10 12  1  0  0  0  0
 12 13  1  0  0  0  0
 12 32  1  0  0  0  0
 13 14  1  0  0  0  0
 13 15  1  0  0  0  0
 13 17  1  0  0  0  0
 14 33  1  0  0  0  0
 14 34  1  0  0  0  0
 14 35  1  0  0  0  0
 15 16  3  0  0  0  0
 17 19  1  0  0  0  0
 17 18  1  0  0  0  0
 17 36  1  0  0  0  0
 18 19  1  0  0  0  0
 18 37  1  0  0  0  0
 18 38  1  0  0  0  0
 19 39  1  0  0  0  0
 19 40  1  0  0  0  0
 20 41  1  0  0  0  0
M  CHG  1   8   1
M  END
> <s_m_source_file>
AV-unprocessed.smi

> <i_m_source_file_index>
3329

> <i_lp_mmshare_version>
43012

> <i_f3d_flags>
0

> <s_epik_input>
W0NIM11jMVtjSF1ubihbY0hdMSlbQ0gyXVtDSDJdW05IXVtDSDJdQyg9TylbTkhdW0NAQF0oW0NIM10pKEMjTilbQ0hdMltDSDJdW0NIMl0y

> <s_epik_cmdline>
J2VwaWtfcHl0aG9uJywgJy1waCcsICc3LjAnLCAnLXRuJywgJzgnLCAnLW1hJywgJzIwMCcsICctbWV0YWxfYmluZGluZycsICctaW1hZScsICc8aW5maWxlLm1hZT4nLCAnLW9tYWUnLCAnPG91dGZpbGUubWFlPic=

> <r_lp_tautomer_probability>
1

> <r_epik_Ionization_Penalty>
0.350291

> <r_epik_Ionization_Penalty_Charging>
0.350239

> <r_epik_Ionization_Penalty_Neutral>
5.12768e-05

> <r_epik_State_Penalty>
0.347656

> <r_epik_Charging_Adjusted_Penalty>
0.697895

> <i_epik_Tot_Q>
1

> <i_epik_Tot_abs_Q>
1

> <r_epik_Metal_State_Penalty>
0.371739

> <b_epik_Metal_Only>
0

> <s_lp_Force_Field>
OPLS_2005

> <r_lp_Energy>
10.54

> <b_lp_Chiralities_Consistent>
1

> <s_lp_Variant>
AV-unprocessed.smi:3329-1

> <Gold.Version>
5.8.1

> <Gold.Id.Protein>
6NUR|6NUR_protein|mol2

> <Gold.PLP.Fitness>
49.4589

> <Gold.PLP.PLP>
-34.4097

> <Gold.PLP.part.hbond>
-4.0000

> <Gold.PLP.part.metal>
0.0000

> <Gold.PLP.part.buried>
-3.2509

> <Gold.PLP.part.nonpolar>
-27.8229

> <Gold.PLP.part.repulsive>
0.4737

> <Gold.PLP.ligand.clash>
0.0000

> <Gold.PLP.ligand.torsion>
1.6182

> <Gold.PLP.Chemscore.Hbond>
4.5024

> <Gold.PLP.Chemscore.CHOScore>
1.0520

> <Gold.PLP.Chemscore.Metal>
0.0000

> <Gold.Chemscore.Hbonds>
donor molecule, donor type, donor heavy atom, donor atom, acceptor molecule, acceptor atom, score
      L1  H     8    29       P1 10171  0.62
      L1  H     8    42       P1 10175  1.98
      L1  H    12    32       P1  7957  1.00
      P1  H  7989  7998       L1    16  0.76
      L1  C     3    24       P1 10957  0.05
      L1  C    20    41       P1  7921  1.00

> <Gold.PLP.Chemscore.Internal.Correction>
1.6226

> <Gold.Rescore>
     Score         DG    S(hbond)    S(metal)    S(lipo)     H(rot)  DE(clash)    DE(int)     intcor
     13.39     -17.56       3.09        0.00      67.57       2.40       0.02       4.15       ----

> <Gold.Chemscore.Fitness>
13.3859

> <Gold.Chemscore.DG>
-17.5558

> <Gold.Chemscore.ZeroCoef>
-5.4800

> <Gold.Chemscore.Hbond>
3.0861

> <Gold.Chemscore.Metal>
0.0000

> <Gold.Chemscore.Lipo>
67.5653

> <Gold.Chemscore.Internal_Hbond>
0.0000

> <Gold.Chemscore.DEClash>
0.0200

> <Gold.Chemscore.DEInternal>
4.1499

> <Gold.Chemscore.Rot>
2.3972

> <Gold.Chemscore.Internal.Correction>
   9.000000E+99

> <Gold.Chemscore.Hbonds>
donor molecule, donor type, donor heavy atom, donor atom, acceptor molecule, acceptor atom, score
      L1  H     8    29       P1 10171  0.62
      L1  H     8    42       P1 10175  0.92
      L1  H    12    32       P1  7957  0.97
      P1  H  7989  7998       L1    16  0.11

> <Gold.Chemscore.Hbond.Weighted>
-10.3075

> <Gold.Chemscore.Metal.Weighted>
-0.0000

> <Gold.Chemscore.Lipo.Weighted>
-7.9051

> <Gold.Chemscore.Internal_Hbond.Weighted>
0.0000

> <Gold.Chemscore.DEClash.Weighted>
0.0200

> <Gold.Chemscore.DEInternal.Weighted>
4.1499

> <Gold.Chemscore.Rot.Weighted>
6.1369

> <Gold.Chemscore.Internal.Correction.Weighted>
   9.000000E+99

> <Gold.Protein.RotatedTorsions>
[ 6907 6896 6895 6894 ] final -174.71 input  -60.11 | X-H torsion
[ 7974 7965 7964 7962 ] final   -5.08 input  175.53 | X-H torsion
[ 8008 7997 7996 7995 ] final  -78.80 input   59.86 | X-H torsion
[ 10167 10162 10161 10158 ] final   36.77 input  -65.29 | X-H torsion
[ 10718 10713 10712 10709 ] final  -27.21 input   66.30 | X-H torsion
[ 10763 10752 10751 10750 ] final  -33.52 input  -60.55 | X-H torsion
[ 11005 11000 10999 10996 ] final  -31.09 input  -57.11 | X-H torsion

> <Gold.Protein.ActiveResidues>
 VAL166  LYS551  ARG553  GLY616  TRP617  ASP618  TYR619  PRO620  LYS621  CYS622 
 ASP623  PHE694  ASN695  SER759  ASP760  ASP761  ALA762  ILE779  LEU786  VAL792 
 PHE793  MET794  SER795  GLU796  ALA797  LYS798  CYS799  TRP800  GLU811  SER814 

> <Gold.Protein.RotatedAtoms>
  151.5768  133.3383  159.3000 H   0  0  0  0  0  0  0  0  0  0  0  0  # atno 6907 bound_to 6896
  150.8336  134.7603  159.6885 H   0  0  0  0  0  0  0  0  0  0  0  0  # atno 6908 bound_to 6896
  152.4416  134.5586  159.9939 H   0  0  0  0  0  0  0  0  0  0  0  0  # atno 6909 bound_to 6896
  146.2360  140.1968  142.8333 H   0  0  0  0  0  0  0  0  0  0  0  0  # atno 7974 bound_to 7965
  154.5724  140.0688  156.8984 H   0  0  0  0  0  0  0  0  0  0  0  0  # atno 8008 bound_to 7997
  155.2610  140.3358  155.4255 H   0  0  0  0  0  0  0  0  0  0  0  0  # atno 8009 bound_to 7997
  156.2128  140.1766  156.7641 H   0  0  0  0  0  0  0  0  0  0  0  0  # atno 8010 bound_to 7997
  140.4096  144.1610  150.6138 H   0  0  0  0  0  0  0  0  0  0  0  0  # atno 10167 bound_to 10162
  156.4411  130.4464  149.7052 H   0  0  0  0  0  0  0  0  0  0  0  0  # atno 10718 bound_to 10713
  153.8315  135.6865  153.4814 H   0  0  0  0  0  0  0  0  0  0  0  0  # atno 10763 bound_to 10752
  153.1508  135.4619  154.9632 H   0  0  0  0  0  0  0  0  0  0  0  0  # atno 10764 bound_to 10752
  154.7884  135.3293  154.7778 H   0  0  0  0  0  0  0  0  0  0  0  0  # atno 10765 bound_to 10752
  140.9439  133.7262  156.1117 H   0  0  0  0  0  0  0  0  0  0  0  0  # atno 11005 bound_to 11000
  144.9814  140.8462  143.5395 LP  0  0  0  0  0  0  0  0  0  0  0  0  # atno 17320 bound_to 7965
  145.1962  139.2275  143.5217 LP  0  0  0  0  0  0  0  0  0  0  0  0  # atno 17321 bound_to 7965
  140.4652  143.2434  151.9165 LP  0  0  0  0  0  0  0  0  0  0  0  0  # atno 17342 bound_to 10162
  139.4783  144.5427  151.8504 LP  0  0  0  0  0  0  0  0  0  0  0  0  # atno 17343 bound_to 10162
  156.3916  130.7630  151.2631 LP  0  0  0  0  0  0  0  0  0  0  0  0  # atno 17370 bound_to 10713
  157.7506  131.0266  150.3969 LP  0  0  0  0  0  0  0  0  0  0  0  0  # atno 17371 bound_to 10713
  140.7696  134.3847  157.5510 LP  0  0  0  0  0  0  0  0  0  0  0  0  # atno 17394 bound_to 11000
  139.8828  134.9014  156.2809 LP  0  0  0  0  0  0  0  0  0  0  0  0  # atno 17395 bound_to 11000

$$$$
