AV-unprocessed.smi:17|AV-procd|sdf|106|dock10
  -GOLD-   2262015263D 1   1.00000     0.00000
 Structure written by MMmdl.
 57 59  0  0  0  0  0  0  0  0  1 V2000
  146.1575  142.6175  154.6872 C   0  0  0  0  0  0  0  0  0  0  0  0
  147.0724  141.6967  155.5117 C   0  0  0  0  0  0  0  0  0  0  0  0
  147.6955  140.6318  154.7221 N   0  0  0  0  0  0  0  0  0  0  0  0
  146.9605  139.4966  154.5970 C   0  0  0  0  0  0  0  0  0  0  0  0
  146.5525  138.8898  155.7395 N   0  0  0  0  0  0  0  0  0  0  0  0
  145.8407  137.7611  155.6867 C   0  0  0  0  0  0  0  0  0  0  0  0
  145.4359  137.0801  154.6134 N   0  0  0  0  0  0  0  0  0  0  0  0
  145.8448  137.6821  153.4599 C   0  0  0  0  0  0  0  0  0  0  0  0
  146.6110  138.8781  153.3607 C   0  0  0  0  0  0  0  0  0  0  0  0
  146.8448  139.1752  152.0234 N   0  0  0  0  0  0  0  0  0  0  0  0
  146.2512  138.2139  151.3720 C   0  0  0  0  0  0  0  0  0  0  0  0
  145.6097  137.2809  152.1551 N   0  0  0  0  0  0  0  0  0  0  0  0
  144.8711  136.1128  151.6960 C   0  0  0  0  0  0  0  0  0  0  0  0
  145.6458  134.7721  151.8229 C   0  0  1  0  0  0  0  0  0  0  0  0
  145.2784  134.0027  153.1135 C   0  0  0  0  0  0  0  0  0  0  0  0
  143.8848  134.0286  153.3395 O   0  0  0  0  0  0  0  0  0  0  0  0
  145.4846  133.8712  150.5699 C   0  0  1  0  0  0  0  0  0  0  0  0
  146.3732  132.6383  150.5555 C   0  0  0  0  0  0  0  0  0  0  0  0
  145.6914  131.7594  149.5134 C   0  0  0  0  0  0  0  0  0  0  0  0
  144.3036  132.0559  149.6122 O   0  0  0  0  0  0  0  0  0  0  0  0
  144.1094  133.2094  150.4243 C   0  0  0  0  0  0  0  0  0  0  0  0
  149.1456  140.4514  154.8987 C   0  0  1  0  0  0  0  0  0  0  0  0
  149.8721  141.7525  155.2904 C   0  0  0  0  0  0  0  0  0  0  0  0
  149.5211  139.2930  155.8485 C   0  0  0  0  0  0  0  0  0  0  0  0
  151.3498  139.0556  155.9477 S   0  0  0  0  0  0  0  0  0  0  0  0
  151.5253  137.2896  155.4680 C   0  0  0  0  0  0  0  0  0  0  0  0
  151.9971  139.8819  154.9178 O   0  0  0  0  0  0  0  0  0  0  0  0
  151.7592  139.1999  157.3529 O   0  0  0  0  0  0  0  0  0  0  0  0
  145.7818  143.4344  155.3031 H   0  0  0  0  0  0  0  0  0  0  0  0
  145.2928  142.0858  154.2895 H   0  0  0  0  0  0  0  0  0  0  0  0
  146.6979  143.0569  153.8481 H   0  0  0  0  0  0  0  0  0  0  0  0
  147.8637  142.3054  155.9504 H   0  0  0  0  0  0  0  0  0  0  0  0
  146.5201  141.2750  156.3507 H   0  0  0  0  0  0  0  0  0  0  0  0
  145.5557  137.3442  156.6414 H   0  0  0  0  0  0  0  0  0  0  0  0
  146.2641  138.1654  150.2937 H   0  0  0  0  0  0  0  0  0  0  0  0
  143.9327  136.0651  152.2486 H   0  0  0  0  0  0  0  0  0  0  0  0
  144.5829  136.2803  150.6577 H   0  0  0  0  0  0  0  0  0  0  0  0
  146.7042  135.0276  151.8951 H   0  0  0  0  0  0  0  0  0  0  0  0
  145.6251  132.9699  153.0753 H   0  0  0  0  0  0  0  0  0  0  0  0
  145.7465  134.4581  153.9853 H   0  0  0  0  0  0  0  0  0  0  0  0
  143.6501  133.2700  153.8529 H   0  0  0  0  0  0  0  0  0  0  0  0
  145.6749  134.4532  149.6672 H   0  0  0  0  0  0  0  0  0  0  0  0
  147.4121  132.8474  150.3027 H   0  0  0  0  0  0  0  0  0  0  0  0
  146.3542  132.1444  151.5281 H   0  0  0  0  0  0  0  0  0  0  0  0
  146.0328  132.0229  148.5116 H   0  0  0  0  0  0  0  0  0  0  0  0
  145.8857  130.6984  149.6707 H   0  0  0  0  0  0  0  0  0  0  0  0
  143.7313  132.8838  151.3943 H   0  0  0  0  0  0  0  0  0  0  0  0
  143.3694  133.8751  149.9800 H   0  0  0  0  0  0  0  0  0  0  0  0
  149.5378  140.1773  153.9188 H   0  0  0  0  0  0  0  0  0  0  0  0
  150.9530  141.6101  155.2830 H   0  0  0  0  0  0  0  0  0  0  0  0
  149.5965  142.0829  156.2921 H   0  0  0  0  0  0  0  0  0  0  0  0
  149.6502  142.5616  154.5943 H   0  0  0  0  0  0  0  0  0  0  0  0
  149.1850  139.5230  156.8596 H   0  0  0  0  0  0  0  0  0  0  0  0
  149.0504  138.3505  155.5717 H   0  0  0  0  0  0  0  0  0  0  0  0
  152.5786  137.0117  155.4933 H   0  0  0  0  0  0  0  0  0  0  0  0
  151.1367  137.1449  154.4602 H   0  0  0  0  0  0  0  0  0  0  0  0
  150.9701  136.6639  156.1662 H   0  0  0  0  0  0  0  0  0  0  0  0
  1  2  1  0  0  0  0
  1 29  1  0  0  0  0
  1 30  1  0  0  0  0
  1 31  1  0  0  0  0
  2  3  1  0  0  0  0
  2 32  1  0  0  0  0
  2 33  1  0  0  0  0
  3  4  1  0  0  0  0
  3 22  1  0  0  0  0
  4  9  1  0  0  0  0
  4  5  2  0  0  0  0
  5  6  1  0  0  0  0
  6  7  2  0  0  0  0
  6 34  1  0  0  0  0
  7  8  1  0  0  0  0
  8 12  1  0  0  0  0
  8  9  2  0  0  0  0
  9 10  1  0  0  0  0
 10 11  2  0  0  0  0
 11 12  1  0  0  0  0
 11 35  1  0  0  0  0
 12 13  1  0  0  0  0
 13 14  1  0  0  0  0
 13 36  1  0  0  0  0
 13 37  1  0  0  0  0
 14 15  1  0  0  0  0
 14 17  1  0  0  0  0
 14 38  1  0  0  0  0
 15 16  1  0  0  0  0
 15 39  1  0  0  0  0
 15 40  1  0  0  0  0
 16 41  1  0  0  0  0
 17 21  1  0  0  0  0
 17 18  1  0  0  0  0
 17 42  1  0  0  0  0
 18 19  1  0  0  0  0
 18 43  1  0  0  0  0
 18 44  1  0  0  0  0
 19 20  1  0  0  0  0
 19 45  1  0  0  0  0
 19 46  1  0  0  0  0
 20 21  1  0  0  0  0
 21 47  1  0  0  0  0
 21 48  1  0  0  0  0
 22 23  1  0  0  0  0
 22 24  1  0  0  0  0
 22 49  1  0  0  0  0
 23 50  1  0  0  0  0
 23 51  1  0  0  0  0
 23 52  1  0  0  0  0
 24 25  1  0  0  0  0
 24 53  1  0  0  0  0
 24 54  1  0  0  0  0
 25 26  1  0  0  0  0
 25 27  2  0  0  0  0
 25 28  2  0  0  0  0
 26 55  1  0  0  0  0
 26 56  1  0  0  0  0
 26 57  1  0  0  0  0
M  END
> <s_m_source_file>
AV-unprocessed.smi

> <i_m_source_file_index>
17

> <i_lp_mmshare_version>
43012

> <i_f3d_flags>
0

> <s_epik_input>
W0NIM11TKD1PKSg9TylbQ0gyXVtDQEBIXShbQ0gzXSlOKFtDSDJdW0NIM10pYyhuW2NIXW4xKWMoYzEyKW5bY0hdbjJbQ0gyXVtDQEhdKFtDSDJdW09IXSlbQ0BASF0zW0NIMl1bQ0gyXU9bQ0gyXTM=

> <s_epik_cmdline>
J2VwaWtfcHl0aG9uJywgJy1waCcsICc3LjAnLCAnLXRuJywgJzgnLCAnLW1hJywgJzIwMCcsICctbWV0YWxfYmluZGluZycsICctaW1hZScsICc8aW5maWxlLm1hZT4nLCAnLW9tYWUnLCAnPG91dGZpbGUubWFlPic=

> <r_lp_tautomer_probability>
1

> <r_epik_Ionization_Penalty>
0.00119955

> <r_epik_Ionization_Penalty_Charging>
0

> <r_epik_Ionization_Penalty_Neutral>
0.00119955

> <r_epik_State_Penalty>
0.000665399

> <r_epik_Charging_Adjusted_Penalty>
0.000665399

> <i_epik_Tot_Q>
0

> <i_epik_Tot_abs_Q>
0

> <r_epik_Metal_State_Penalty>
-0

> <b_epik_Metal_Only>
0

> <s_lp_Force_Field>
OPLS_2005

> <r_lp_Energy>
32.9267

> <b_lp_Chiralities_Consistent>
1

> <s_lp_Variant>
AV-unprocessed.smi:17-8

> <Gold.Version>
5.8.1

> <Gold.Id.Protein>
6NUR|6NUR_protein|mol2

> <Gold.PLP.Fitness>
41.6362

> <Gold.PLP.PLP>
-38.0467

> <Gold.PLP.part.hbond>
-2.6593

> <Gold.PLP.part.metal>
0.0000

> <Gold.PLP.part.buried>
-1.9040

> <Gold.PLP.part.nonpolar>
-35.6338

> <Gold.PLP.part.repulsive>
1.4006

> <Gold.PLP.ligand.clash>
0.0000

> <Gold.PLP.ligand.torsion>
2.6051

> <Gold.PLP.Chemscore.Hbond>
2.0200

> <Gold.PLP.Chemscore.CHOScore>
0.4519

> <Gold.PLP.Chemscore.Metal>
0.0000

> <Gold.Chemscore.Hbonds>
donor molecule, donor type, donor heavy atom, donor atom, acceptor molecule, acceptor atom, score
      L1  H    16    41       P1 10957  1.00
      P1  H  7989  7998       L1    27  0.88
      P1  H 10785 10796       L1    20  0.10
      L1  C    11    35       P1 10171  0.42

> <Gold.PLP.Chemscore.Internal.Correction>
1.3840

> <Gold.Rescore>
     Score         DG    S(hbond)    S(metal)    S(lipo)     H(rot)  DE(clash)    DE(int)     intcor
      7.00     -12.05       2.00        0.00      81.82       3.79       0.81       4.24       ----

> <Gold.Chemscore.Fitness>
6.9963

> <Gold.Chemscore.DG>
-12.0450

> <Gold.Chemscore.ZeroCoef>
-5.4800

> <Gold.Chemscore.Hbond>
2.0039

> <Gold.Chemscore.Metal>
0.0000

> <Gold.Chemscore.Lipo>
81.8212

> <Gold.Chemscore.Internal_Hbond>
0.0000

> <Gold.Chemscore.DEClash>
0.8103

> <Gold.Chemscore.DEInternal>
4.2385

> <Gold.Chemscore.Rot>
3.7894

> <Gold.Chemscore.Internal.Correction>
   9.000000E+99

> <Gold.Chemscore.Hbonds>
donor molecule, donor type, donor heavy atom, donor atom, acceptor molecule, acceptor atom, score
      L1  H    16    41       P1 10957  0.93
      P1  H  7989  7998       L1    27  0.87
      P1  H 10785 10796       L1    20  0.05

> <Gold.Chemscore.Hbond.Weighted>
-6.6929

> <Gold.Chemscore.Metal.Weighted>
-0.0000

> <Gold.Chemscore.Lipo.Weighted>
-9.5731

> <Gold.Chemscore.Internal_Hbond.Weighted>
0.0000

> <Gold.Chemscore.DEClash.Weighted>
0.8103

> <Gold.Chemscore.DEInternal.Weighted>
4.2385

> <Gold.Chemscore.Rot.Weighted>
9.7010

> <Gold.Chemscore.Internal.Correction.Weighted>
   9.000000E+99

> <Gold.Protein.RotatedTorsions>
[ 6907 6896 6895 6894 ] final  -51.90 input  -60.11 | X-H torsion
[ 7974 7965 7964 7962 ] final -109.58 input  175.53 | X-H torsion
[ 8008 7997 7996 7995 ] final -122.57 input   59.86 | X-H torsion
[ 10167 10162 10161 10158 ] final    6.70 input  -65.29 | X-H torsion
[ 10718 10713 10712 10709 ] final  136.34 input   66.30 | X-H torsion
[ 10763 10752 10751 10750 ] final  170.62 input  -60.55 | X-H torsion
[ 11005 11000 10999 10996 ] final -114.76 input  -57.11 | X-H torsion

> <Gold.Protein.ActiveResidues>
 VAL166  LYS551  ARG553  GLY616  TRP617  ASP618  TYR619  PRO620  LYS621  CYS622 
 ASP623  PHE694  ASN695  SER759  ASP760  ASP761  ALA762  ILE779  LEU786  VAL792 
 PHE793  MET794  SER795  GLU796  ALA797  LYS798  CYS799  TRP800  GLU811  SER814 

> <Gold.Protein.RotatedAtoms>
  150.8568  134.7909  159.7051 H   0  0  0  0  0  0  0  0  0  0  0  0  # atno 6907 bound_to 6896
  152.4617  134.5166  159.9779 H   0  0  0  0  0  0  0  0  0  0  0  0  # atno 6908 bound_to 6896
  151.5277  133.3416  159.2948 H   0  0  0  0  0  0  0  0  0  0  0  0  # atno 6909 bound_to 6896
  145.1788  140.8961  143.3492 H   0  0  0  0  0  0  0  0  0  0  0  0  # atno 7974 bound_to 7965
  155.1663  140.0407  157.2853 H   0  0  0  0  0  0  0  0  0  0  0  0  # atno 8008 bound_to 7997
  154.6300  140.2522  155.7418 H   0  0  0  0  0  0  0  0  0  0  0  0  # atno 8009 bound_to 7997
  156.2480  140.2877  156.0648 H   0  0  0  0  0  0  0  0  0  0  0  0  # atno 8010 bound_to 7997
  140.6413  143.7767  150.7433 H   0  0  0  0  0  0  0  0  0  0  0  0  # atno 10167 bound_to 10162
  157.4476  131.1063  151.0071 H   0  0  0  0  0  0  0  0  0  0  0  0  # atno 10718 bound_to 10713
  154.4002  135.2755  155.2101 H   0  0  0  0  0  0  0  0  0  0  0  0  # atno 10763 bound_to 10752
  154.4131  135.6018  153.5968 H   0  0  0  0  0  0  0  0  0  0  0  0  # atno 10764 bound_to 10752
  152.9831  135.5954  154.4268 H   0  0  0  0  0  0  0  0  0  0  0  0  # atno 10765 bound_to 10752
  141.0531  133.9656  157.2802 H   0  0  0  0  0  0  0  0  0  0  0  0  # atno 11005 bound_to 11000
  145.0157  139.3469  143.6097 LP  0  0  0  0  0  0  0  0  0  0  0  0  # atno 17320 bound_to 7965
  146.3456  139.9437  142.8737 LP  0  0  0  0  0  0  0  0  0  0  0  0  # atno 17321 bound_to 7965
  140.1399  143.4450  152.2200 LP  0  0  0  0  0  0  0  0  0  0  0  0  # atno 17342 bound_to 10162
  139.5622  144.7413  151.4121 LP  0  0  0  0  0  0  0  0  0  0  0  0  # atno 17343 bound_to 10162
  157.0912  130.5943  149.5440 LP  0  0  0  0  0  0  0  0  0  0  0  0  # atno 17370 bound_to 10713
  155.9974  130.5045  150.7532 LP  0  0  0  0  0  0  0  0  0  0  0  0  # atno 17371 bound_to 10713
  139.9367  135.0195  156.8578 LP  0  0  0  0  0  0  0  0  0  0  0  0  # atno 17394 bound_to 11000
  140.6017  134.0166  155.7540 LP  0  0  0  0  0  0  0  0  0  0  0  0  # atno 17395 bound_to 11000

$$$$
