AV-unprocessed.smi:15|AV-procd|sdf|83|dock1
  -GOLD-   2262015213D 1   1.00000     0.00000
 Structure written by MMmdl.
 53 56  0  0  0  0  0  0  0  0  1 V2000
  148.5529  140.1099  157.2151 C   0  0  0  0  0  0  0  0  0  0  0  0
  149.2659  141.3917  156.7640 C   0  0  0  0  0  0  0  0  0  0  0  0
  150.7158  141.3478  156.9745 N   0  0  0  0  0  0  0  0  0  0  0  0
  151.5081  142.5659  156.7843 C   0  0  0  0  0  0  0  0  0  0  0  0
  151.2595  143.6302  157.8684 C   0  0  2  0  0  0  0  0  0  0  0  0
  152.3959  144.6403  157.9933 C   0  0  0  0  0  0  0  0  0  0  0  0
  152.2134  145.1877  159.3980 C   0  0  0  0  0  0  0  0  0  0  0  0
  151.4199  144.0924  160.1177 C   0  0  0  0  0  0  0  0  0  0  0  0
  151.2514  143.0510  159.1637 O   0  0  0  0  0  0  0  0  0  0  0  0
  151.3519  140.1990  156.6245 C   0  0  0  0  0  0  0  0  0  0  0  0
  151.6670  139.9736  155.3203 N   0  0  0  0  0  0  0  0  0  0  0  0
  152.3147  138.8610  154.9631 C   0  0  0  0  0  0  0  0  0  0  0  0
  152.7345  137.8567  155.7341 N   0  0  0  0  0  0  0  0  0  0  0  0
  152.4129  138.0701  157.0420 C   0  0  0  0  0  0  0  0  0  0  0  0
  151.7311  139.2032  157.5693 C   0  0  0  0  0  0  0  0  0  0  0  0
  151.5808  139.0639  158.9443 N   0  0  0  0  0  0  0  0  0  0  0  0
  152.1508  137.9218  159.2148 C   0  0  0  0  0  0  0  0  0  0  0  0
  152.6640  137.2500  158.1284 N   0  0  0  0  0  0  0  0  0  0  0  0
  153.3491  135.9669  158.1399 C   0  0  0  0  0  0  0  0  0  0  0  0
  154.8658  136.0294  157.8216 C   0  0  1  0  0  0  0  0  0  0  0  0
  154.9650  136.3886  156.4537 O   0  0  0  0  0  0  0  0  0  0  0  0
  155.6577  137.0367  158.6434 C   0  0  0  0  0  0  0  0  0  0  0  0
  157.0940  136.5543  158.4654 C   0  0  0  0  0  0  0  0  0  0  0  0
  157.0093  135.1375  158.3573 O   0  0  0  0  0  0  0  0  0  0  0  0
  155.6654  134.7362  158.0962 C   0  0  2  0  0  0  0  0  0  0  0  0
  155.6071  133.6507  157.0102 C   0  0  0  0  0  0  0  0  0  0  0  0
  147.4952  140.1493  156.9553 H   0  0  0  0  0  0  0  0  0  0  0  0
  148.6150  139.9712  158.2943 H   0  0  0  0  0  0  0  0  0  0  0  0
  148.9802  139.2300  156.7336 H   0  0  0  0  0  0  0  0  0  0  0  0
  149.0616  141.5328  155.7015 H   0  0  0  0  0  0  0  0  0  0  0  0
  148.8447  142.2554  157.2792 H   0  0  0  0  0  0  0  0  0  0  0  0
  152.5682  142.3175  156.7394 H   0  0  0  0  0  0  0  0  0  0  0  0
  151.2807  143.0005  155.8121 H   0  0  0  0  0  0  0  0  0  0  0  0
  150.3204  144.1594  157.6967 H   0  0  0  0  0  0  0  0  0  0  0  0
  153.3592  144.1334  157.9190 H   0  0  0  0  0  0  0  0  0  0  0  0
  152.3611  145.4148  157.2265 H   0  0  0  0  0  0  0  0  0  0  0  0
  153.1710  145.3902  159.8785 H   0  0  0  0  0  0  0  0  0  0  0  0
  151.6422  146.1167  159.3802 H   0  0  0  0  0  0  0  0  0  0  0  0
  151.9369  143.7181  161.0014 H   0  0  0  0  0  0  0  0  0  0  0  0
  150.4427  144.4650  160.4272 H   0  0  0  0  0  0  0  0  0  0  0  0
  152.5280  138.7623  153.9089 H   0  0  0  0  0  0  0  0  0  0  0  0
  152.2061  137.5316  160.2209 H   0  0  0  0  0  0  0  0  0  0  0  0
  153.1940  135.5142  159.1202 H   0  0  0  0  0  0  0  0  0  0  0  0
  152.8473  135.3139  157.4244 H   0  0  0  0  0  0  0  0  0  0  0  0
  155.6218  137.0628  156.3687 H   0  0  0  0  0  0  0  0  0  0  0  0
  155.5109  138.0710  158.3298 H   0  0  0  0  0  0  0  0  0  0  0  0
  155.3996  136.9689  159.6995 H   0  0  0  0  0  0  0  0  0  0  0  0
  157.5186  136.9501  157.5420 H   0  0  0  0  0  0  0  0  0  0  0  0
  157.7407  136.8534  159.2902 H   0  0  0  0  0  0  0  0  0  0  0  0
  155.3276  134.2971  159.0337 H   0  0  0  0  0  0  0  0  0  0  0  0
  154.5779  133.3527  156.8092 H   0  0  0  0  0  0  0  0  0  0  0  0
  156.1528  132.7616  157.3261 H   0  0  0  0  0  0  0  0  0  0  0  0
  156.0507  133.9909  156.0742 H   0  0  0  0  0  0  0  0  0  0  0  0
  1  2  1  0  0  0  0
  1 27  1  0  0  0  0
  1 28  1  0  0  0  0
  1 29  1  0  0  0  0
  2  3  1  0  0  0  0
  2 30  1  0  0  0  0
  2 31  1  0  0  0  0
  3  4  1  0  0  0  0
  3 10  1  0  0  0  0
  4  5  1  0  0  0  0
  4 32  1  0  0  0  0
  4 33  1  0  0  0  0
  5  9  1  0  0  0  0
  5  6  1  0  0  0  0
  5 34  1  0  0  0  0
  6  7  1  0  0  0  0
  6 35  1  0  0  0  0
  6 36  1  0  0  0  0
  7  8  1  0  0  0  0
  7 37  1  0  0  0  0
  7 38  1  0  0  0  0
  8  9  1  0  0  0  0
  8 39  1  0  0  0  0
  8 40  1  0  0  0  0
 10 15  1  0  0  0  0
 10 11  2  0  0  0  0
 11 12  1  0  0  0  0
 12 13  2  0  0  0  0
 12 41  1  0  0  0  0
 13 14  1  0  0  0  0
 14 18  1  0  0  0  0
 14 15  2  0  0  0  0
 15 16  1  0  0  0  0
 16 17  2  0  0  0  0
 17 18  1  0  0  0  0
 17 42  1  0  0  0  0
 18 19  1  0  0  0  0
 19 20  1  0  0  0  0
 19 43  1  0  0  0  0
 19 44  1  0  0  0  0
 20 25  1  0  0  0  0
 20 21  1  0  0  0  0
 20 22  1  0  0  0  0
 21 45  1  0  0  0  0
 22 23  1  0  0  0  0
 22 46  1  0  0  0  0
 22 47  1  0  0  0  0
 23 24  1  0  0  0  0
 23 48  1  0  0  0  0
 23 49  1  0  0  0  0
 24 25  1  0  0  0  0
 25 26  1  0  0  0  0
 25 50  1  0  0  0  0
 26 51  1  0  0  0  0
 26 52  1  0  0  0  0
 26 53  1  0  0  0  0
M  END
> <s_m_source_file>
AV-unprocessed.smi

> <i_m_source_file_index>
15

> <i_lp_mmshare_version>
43012

> <i_f3d_flags>
0

> <s_epik_input>
TzFbQ0gyXVtDSDJdW0NIMl1bQ0BIXTFbQ0gyXU4oW0NIMl1bQ0gzXSljKG5bY0hdbjIpYyhjMjMpbltjSF1uM1tDSDJdW0NAQF00KFtPSF0pW0NIMl1bQ0gyXU9bQ0BIXTRbQ0gzXQ==

> <s_epik_cmdline>
J2VwaWtfcHl0aG9uJywgJy1waCcsICc3LjAnLCAnLXRuJywgJzgnLCAnLW1hJywgJzIwMCcsICctbWV0YWxfYmluZGluZycsICctaW1hZScsICc8aW5maWxlLm1hZT4nLCAnLW9tYWUnLCAnPG91dGZpbGUubWFlPic=

> <r_lp_tautomer_probability>
1

> <r_epik_Ionization_Penalty>
0.00360814

> <r_epik_Ionization_Penalty_Charging>
0

> <r_epik_Ionization_Penalty_Neutral>
0.00360814

> <r_epik_State_Penalty>
0.00237482

> <r_epik_Charging_Adjusted_Penalty>
0.00237482

> <i_epik_Tot_Q>
0

> <i_epik_Tot_abs_Q>
0

> <r_epik_Metal_State_Penalty>
-0

> <b_epik_Metal_Only>
0

> <s_lp_Force_Field>
OPLS_2005

> <r_lp_Energy>
48.2804

> <b_lp_Chiralities_Consistent>
1

> <s_lp_Variant>
AV-unprocessed.smi:15-5

> <Gold.Version>
5.8.1

> <Gold.Id.Protein>
6NUR|6NUR_protein|mol2

> <Gold.PLP.Fitness>
39.2975

> <Gold.PLP.PLP>
-37.0091

> <Gold.PLP.part.hbond>
-2.6412

> <Gold.PLP.part.metal>
0.0000

> <Gold.PLP.part.buried>
-8.0993

> <Gold.PLP.part.nonpolar>
-27.0707

> <Gold.PLP.part.repulsive>
0.0788

> <Gold.PLP.ligand.clash>
0.0000

> <Gold.PLP.ligand.torsion>
2.0273

> <Gold.PLP.Chemscore.Hbond>
1.7440

> <Gold.PLP.Chemscore.CHOScore>
0.0000

> <Gold.PLP.Chemscore.Metal>
0.0000

> <Gold.Chemscore.Hbonds>
donor molecule, donor type, donor heavy atom, donor atom, acceptor molecule, acceptor atom, score
      P1  H  7989  7998       L1    11  0.88
      P1  H 10752 10764       L1    21  0.88

> <Gold.PLP.Chemscore.Internal.Correction>
1.1109

> <Gold.Rescore>
     Score         DG    S(hbond)    S(metal)    S(lipo)     H(rot)  DE(clash)    DE(int)     intcor
     10.83     -14.77       1.59        0.00      87.47       2.44       1.76       2.19       ----

> <Gold.Chemscore.Fitness>
10.8263

> <Gold.Chemscore.DG>
-14.7702

> <Gold.Chemscore.ZeroCoef>
-5.4800

> <Gold.Chemscore.Hbond>
1.5901

> <Gold.Chemscore.Metal>
0.0000

> <Gold.Chemscore.Lipo>
87.4677

> <Gold.Chemscore.Internal_Hbond>
0.0000

> <Gold.Chemscore.DEClash>
1.7552

> <Gold.Chemscore.DEInternal>
2.1887

> <Gold.Chemscore.Rot>
2.4431

> <Gold.Chemscore.Internal.Correction>
   9.000000E+99

> <Gold.Chemscore.Hbonds>
donor molecule, donor type, donor heavy atom, donor atom, acceptor molecule, acceptor atom, score
      P1  H  7989  7998       L1    11  0.16
      P1  H 10752 10764       L1    21  0.85

> <Gold.Chemscore.Hbond.Weighted>
-5.3109

> <Gold.Chemscore.Metal.Weighted>
-0.0000

> <Gold.Chemscore.Lipo.Weighted>
-10.2337

> <Gold.Chemscore.Internal_Hbond.Weighted>
0.0000

> <Gold.Chemscore.DEClash.Weighted>
1.7552

> <Gold.Chemscore.DEInternal.Weighted>
2.1887

> <Gold.Chemscore.Rot.Weighted>
6.2544

> <Gold.Chemscore.Internal.Correction.Weighted>
   9.000000E+99

> <Gold.Protein.RotatedTorsions>
[ 6907 6896 6895 6894 ] final  -95.37 input  -60.11 | X-H torsion
[ 7974 7965 7964 7962 ] final   80.12 input  175.53 | X-H torsion
[ 8008 7997 7996 7995 ] final   78.91 input   59.86 | X-H torsion
[ 10167 10162 10161 10158 ] final -106.64 input  -65.29 | X-H torsion
[ 10718 10713 10712 10709 ] final  -39.08 input   66.30 | X-H torsion
[ 10763 10752 10751 10750 ] final   58.97 input  -60.55 | X-H torsion
[ 11005 11000 10999 10996 ] final -131.22 input  -57.11 | X-H torsion

> <Gold.Protein.ActiveResidues>
 VAL166  LYS551  ARG553  GLY616  TRP617  ASP618  TYR619  PRO620  LYS621  CYS622 
 ASP623  PHE694  ASN695  SER759  ASP760  ASP761  ALA762  ILE779  LEU786  VAL792 
 PHE793  MET794  SER795  GLU796  ALA797  LYS798  CYS799  TRP800  GLU811  SER814 

> <Gold.Protein.RotatedAtoms>
  150.6962  134.1668  159.4196 H   0  0  0  0  0  0  0  0  0  0  0  0  # atno 6907 bound_to 6896
  151.9647  135.0104  160.0559 H   0  0  0  0  0  0  0  0  0  0  0  0  # atno 6908 bound_to 6896
  152.1895  133.4728  159.5037 H   0  0  0  0  0  0  0  0  0  0  0  0  # atno 6909 bound_to 6896
  145.6554  139.2458  143.1953 H   0  0  0  0  0  0  0  0  0  0  0  0  # atno 7974 bound_to 7965
  155.8623  140.3453  155.5765 H   0  0  0  0  0  0  0  0  0  0  0  0  # atno 8008 bound_to 7997
  155.7919  140.0873  157.2023 H   0  0  0  0  0  0  0  0  0  0  0  0  # atno 8009 bound_to 7997
  154.4012  140.1481  156.3160 H   0  0  0  0  0  0  0  0  0  0  0  0  # atno 8010 bound_to 7997
  140.1856  143.3932  152.1247 H   0  0  0  0  0  0  0  0  0  0  0  0  # atno 10167 bound_to 10162
  156.2965  130.4234  149.8186 H   0  0  0  0  0  0  0  0  0  0  0  0  # atno 10718 bound_to 10713
  152.9883  135.5588  154.5638 H   0  0  0  0  0  0  0  0  0  0  0  0  # atno 10763 bound_to 10752
  154.5052  135.2799  155.1390 H   0  0  0  0  0  0  0  0  0  0  0  0  # atno 10764 bound_to 10752
  154.2805  135.6346  153.5398 H   0  0  0  0  0  0  0  0  0  0  0  0  # atno 10765 bound_to 10752
  140.9277  134.1360  157.4261 H   0  0  0  0  0  0  0  0  0  0  0  0  # atno 11005 bound_to 11000
  146.1170  140.7358  142.9476 LP  0  0  0  0  0  0  0  0  0  0  0  0  # atno 17320 bound_to 7965
  144.7108  140.4030  143.7082 LP  0  0  0  0  0  0  0  0  0  0  0  0  # atno 17321 bound_to 7965
  139.5277  144.7123  151.5167 LP  0  0  0  0  0  0  0  0  0  0  0  0  # atno 17342 bound_to 10162
  140.6490  143.8735  150.6767 LP  0  0  0  0  0  0  0  0  0  0  0  0  # atno 17343 bound_to 10162
  156.5580  130.8371  151.3320 LP  0  0  0  0  0  0  0  0  0  0  0  0  # atno 17370 bound_to 10713
  157.7356  130.9766  150.2093 LP  0  0  0  0  0  0  0  0  0  0  0  0  # atno 17371 bound_to 10713
  139.8789  134.9994  156.5953 LP  0  0  0  0  0  0  0  0  0  0  0  0  # atno 17394 bound_to 11000
  140.7903  133.8587  155.8641 LP  0  0  0  0  0  0  0  0  0  0  0  0  # atno 17395 bound_to 11000

$$$$
