AV-unprocessed.smi:2935|AV-procd|sdf|11256|dock5
  -GOLD-   2272016153D 1   1.00000     0.00000
 Structure written by MMmdl.
 36 37  0  0  0  0  0  0  0  0  1 V2000
  152.5148  144.7078  157.6378 C   0  0  0  0  0  0  0  0  0  0  0  0
  151.6843  143.7210  158.4862 C   0  0  0  0  0  0  0  0  0  0  0  0
  151.4660  142.4282  157.6675 C   0  0  0  0  0  0  0  0  0  0  0  0
  151.9229  141.3643  158.0891 O   0  0  0  0  0  0  0  0  0  0  0  0
  150.7523  142.5365  156.5298 N   0  0  0  0  0  0  0  0  0  0  0  0
  150.4216  141.5110  155.6079 C   0  0  0  0  0  0  0  0  0  0  0  0
  149.3257  141.6650  154.7150 C   0  0  0  0  0  0  0  0  0  0  0  0
  149.3295  140.4961  154.0082 C   0  0  0  0  0  0  0  0  0  0  0  0
  150.3753  139.7279  154.4811 N   0  0  0  0  0  0  0  0  0  0  0  0
  150.7855  138.4025  154.0531 C   0  0  0  0  0  0  0  0  0  0  0  0
  150.4067  137.3430  155.0895 C   0  0  0  0  0  0  0  0  0  0  0  0
  149.6890  136.3008  154.6620 N   0  0  0  0  0  0  0  0  0  0  0  0
  150.7548  137.4660  156.2615 O   0  0  0  0  0  0  0  0  0  0  0  0
  151.0524  140.3533  155.4689 N   0  0  0  0  0  0  0  0  0  0  0  0
  152.3430  143.4716  159.8611 C   0  0  0  0  0  0  0  0  0  0  0  0
  151.9186  144.6444  160.7473 C   0  0  0  0  0  0  0  0  0  0  0  0
  150.5700  145.1210  160.1984 C   0  0  0  0  0  0  0  0  0  0  0  0
  150.3355  144.3585  158.8867 C   0  0  0  0  0  0  0  0  0  0  0  0
  152.6589  145.6587  158.1512 H   0  0  0  0  0  0  0  0  0  0  0  0
  152.0275  144.9262  156.6866 H   0  0  0  0  0  0  0  0  0  0  0  0
  153.5038  144.3050  157.4154 H   0  0  0  0  0  0  0  0  0  0  0  0
  150.4122  143.4586  156.2997 H   0  0  0  0  0  0  0  0  0  0  0  0
  148.6447  142.4965  154.6098 H   0  0  0  0  0  0  0  0  0  0  0  0
  148.6813  140.1480  153.2173 H   0  0  0  0  0  0  0  0  0  0  0  0
  150.3059  138.1798  153.0992 H   0  0  0  0  0  0  0  0  0  0  0  0
  151.8631  138.3894  153.8811 H   0  0  0  0  0  0  0  0  0  0  0  0
  149.4092  135.5823  155.3143 H   0  0  0  0  0  0  0  0  0  0  0  0
  149.4213  136.2398  153.6904 H   0  0  0  0  0  0  0  0  0  0  0  0
  151.9669  142.5500  160.3095 H   0  0  0  0  0  0  0  0  0  0  0  0
  153.4286  143.3842  159.8010 H   0  0  0  0  0  0  0  0  0  0  0  0
  151.8595  144.3602  161.7983 H   0  0  0  0  0  0  0  0  0  0  0  0
  152.6500  145.4497  160.6694 H   0  0  0  0  0  0  0  0  0  0  0  0
  149.7624  144.9284  160.9053 H   0  0  0  0  0  0  0  0  0  0  0  0
  150.5964  146.1968  160.0214 H   0  0  0  0  0  0  0  0  0  0  0  0
  149.9368  145.0124  158.1097 H   0  0  0  0  0  0  0  0  0  0  0  0
  149.5831  143.5879  159.0650 H   0  0  0  0  0  0  0  0  0  0  0  0
  1  2  1  0  0  0  0
  1 19  1  0  0  0  0
  1 20  1  0  0  0  0
  1 21  1  0  0  0  0
  2 18  1  0  0  0  0
  2  3  1  0  0  0  0
  2 15  1  0  0  0  0
  3  4  2  0  0  0  0
  3  5  1  0  0  0  0
  5  6  1  0  0  0  0
  5 22  1  0  0  0  0
  6 14  2  0  0  0  0
  6  7  1  0  0  0  0
  7  8  2  0  0  0  0
  7 23  1  0  0  0  0
  8  9  1  0  0  0  0
  8 24  1  0  0  0  0
  9 10  1  0  0  0  0
  9 14  1  0  0  0  0
 10 11  1  0  0  0  0
 10 25  1  0  0  0  0
 10 26  1  0  0  0  0
 11 12  1  0  0  0  0
 11 13  2  0  0  0  0
 12 27  1  0  0  0  0
 12 28  1  0  0  0  0
 15 16  1  0  0  0  0
 15 29  1  0  0  0  0
 15 30  1  0  0  0  0
 16 17  1  0  0  0  0
 16 31  1  0  0  0  0
 16 32  1  0  0  0  0
 17 18  1  0  0  0  0
 17 33  1  0  0  0  0
 17 34  1  0  0  0  0
 18 35  1  0  0  0  0
 18 36  1  0  0  0  0
M  END
> <s_m_source_file>
AV-unprocessed.smi

> <i_m_source_file_index>
2935

> <i_lp_mmshare_version>
43012

> <i_f3d_flags>
0

> <s_epik_input>
W0NIMl0xW0NIMl1bQ0gyXVtDSDJdQzEoW0NIM10pQyg9TylbTkhdYzJbY0hdW2NIXW4objIpW0NIMl1DKD1PKVtOSDJd

> <s_epik_cmdline>
J2VwaWtfcHl0aG9uJywgJy1waCcsICc3LjAnLCAnLXRuJywgJzgnLCAnLW1hJywgJzIwMCcsICctbWV0YWxfYmluZGluZycsICctaW1hZScsICc8aW5maWxlLm1hZT4nLCAnLW9tYWUnLCAnPG91dGZpbGUubWFlPic=

> <r_lp_tautomer_probability>
1

> <r_epik_Ionization_Penalty>
1.6611e-05

> <r_epik_Ionization_Penalty_Charging>
0

> <r_epik_Ionization_Penalty_Neutral>
1.6611e-05

> <r_epik_State_Penalty>
-0

> <r_epik_Charging_Adjusted_Penalty>
0

> <i_epik_Tot_Q>
0

> <i_epik_Tot_abs_Q>
0

> <r_epik_Metal_State_Penalty>
-0

> <b_epik_Metal_Only>
0

> <s_lp_Force_Field>
OPLS_2005

> <r_lp_Energy>
27.108

> <b_lp_Chiralities_Consistent>
1

> <s_lp_Variant>
AV-unprocessed.smi:2935-1

> <Gold.Version>
5.8.1

> <Gold.Id.Protein>
6NUR|6NUR_protein|mol2

> <Gold.PLP.Fitness>
46.7602

> <Gold.PLP.PLP>
-39.5264

> <Gold.PLP.part.hbond>
-2.9097

> <Gold.PLP.part.metal>
0.0000

> <Gold.PLP.part.buried>
-2.5003

> <Gold.PLP.part.nonpolar>
-33.7272

> <Gold.PLP.part.repulsive>
0.1322

> <Gold.PLP.ligand.clash>
0.0000

> <Gold.PLP.ligand.torsion>
0.3533

> <Gold.PLP.Chemscore.Hbond>
2.0000

> <Gold.PLP.Chemscore.CHOScore>
0.6304

> <Gold.PLP.Chemscore.Metal>
0.0000

> <Gold.Chemscore.Hbonds>
donor molecule, donor type, donor heavy atom, donor atom, acceptor molecule, acceptor atom, score
      L1  H     5    22       P1  8028  0.89
      L1  H    12    28       P1  7948  1.00
      L1  C     8    24       P1  7957  0.72

> <Gold.PLP.Chemscore.Internal.Correction>
0.0491

> <Gold.Rescore>
     Score         DG    S(hbond)    S(metal)    S(lipo)     H(rot)  DE(clash)    DE(int)     intcor
     15.82     -17.63       1.90        0.00      91.42       1.91       0.03       1.78       ----

> <Gold.Chemscore.Fitness>
15.8211

> <Gold.Chemscore.DG>
-17.6302

> <Gold.Chemscore.ZeroCoef>
-5.4800

> <Gold.Chemscore.Hbond>
1.9001

> <Gold.Chemscore.Metal>
0.0000

> <Gold.Chemscore.Lipo>
91.4151

> <Gold.Chemscore.Internal_Hbond>
0.0000

> <Gold.Chemscore.DEClash>
0.0290

> <Gold.Chemscore.DEInternal>
1.7801

> <Gold.Chemscore.Rot>
1.9108

> <Gold.Chemscore.Internal.Correction>
   9.000000E+99

> <Gold.Chemscore.Hbonds>
donor molecule, donor type, donor heavy atom, donor atom, acceptor molecule, acceptor atom, score
      L1  H     5    22       P1  8028  0.84
      L1  H    12    28       P1  7948  0.74

> <Gold.Chemscore.Hbond.Weighted>
-6.3463

> <Gold.Chemscore.Metal.Weighted>
-0.0000

> <Gold.Chemscore.Lipo.Weighted>
-10.6956

> <Gold.Chemscore.Internal_Hbond.Weighted>
0.0000

> <Gold.Chemscore.DEClash.Weighted>
0.0290

> <Gold.Chemscore.DEInternal.Weighted>
1.7801

> <Gold.Chemscore.Rot.Weighted>
4.8916

> <Gold.Chemscore.Internal.Correction.Weighted>
   9.000000E+99

> <Gold.Protein.RotatedTorsions>
[ 6907 6896 6895 6894 ] final  168.62 input  -60.11 | X-H torsion
[ 7974 7965 7964 7962 ] final  -91.83 input  175.53 | X-H torsion
[ 8008 7997 7996 7995 ] final -103.84 input   59.86 | X-H torsion
[ 10167 10162 10161 10158 ] final   19.98 input  -65.29 | X-H torsion
[ 10718 10713 10712 10709 ] final  160.71 input   66.30 | X-H torsion
[ 10763 10752 10751 10750 ] final   76.21 input  -60.55 | X-H torsion
[ 11005 11000 10999 10996 ] final  174.90 input  -57.11 | X-H torsion

> <Gold.Protein.ActiveResidues>
 VAL166  LYS551  ARG553  GLY616  TRP617  ASP618  TYR619  PRO620  LYS621  CYS622 
 ASP623  PHE694  ASN695  SER759  ASP760  ASP761  ALA762  ILE779  LEU786  VAL792 
 PHE793  MET794  SER795  GLU796  ALA797  LYS798  CYS799  TRP800  GLU811  SER814 

> <Gold.Protein.RotatedAtoms>
  151.8448  133.3430  159.3654 H   0  0  0  0  0  0  0  0  0  0  0  0  # atno 6907 bound_to 6896
  150.7224  134.5356  159.5731 H   0  0  0  0  0  0  0  0  0  0  0  0  # atno 6908 bound_to 6896
  152.2837  134.7800  160.0442 H   0  0  0  0  0  0  0  0  0  0  0  0  # atno 6909 bound_to 6896
  145.4079  140.9542  143.2251 H   0  0  0  0  0  0  0  0  0  0  0  0  # atno 7974 bound_to 7965
  154.8766  140.0421  157.1757 H   0  0  0  0  0  0  0  0  0  0  0  0  # atno 8008 bound_to 7997
  154.8683  140.2954  155.5476 H   0  0  0  0  0  0  0  0  0  0  0  0  # atno 8009 bound_to 7997
  156.2999  140.2434  156.3667 H   0  0  0  0  0  0  0  0  0  0  0  0  # atno 8010 bound_to 7997
  140.5538  143.9461  150.6596 H   0  0  0  0  0  0  0  0  0  0  0  0  # atno 10167 bound_to 10162
  157.1466  131.0554  151.2300 H   0  0  0  0  0  0  0  0  0  0  0  0  # atno 10718 bound_to 10713
  153.0709  135.4960  154.8302 H   0  0  0  0  0  0  0  0  0  0  0  0  # atno 10763 bound_to 10752
  154.7021  135.3003  154.9328 H   0  0  0  0  0  0  0  0  0  0  0  0  # atno 10764 bound_to 10752
  154.0049  135.6761  153.4814 H   0  0  0  0  0  0  0  0  0  0  0  0  # atno 10765 bound_to 10752
  140.3563  134.7152  157.4301 H   0  0  0  0  0  0  0  0  0  0  0  0  # atno 11005 bound_to 11000
  144.8329  139.5598  143.6935 LP  0  0  0  0  0  0  0  0  0  0  0  0  # atno 17320 bound_to 7965
  146.2719  139.6658  142.9290 LP  0  0  0  0  0  0  0  0  0  0  0  0  # atno 17321 bound_to 7965
  140.2894  143.3335  152.1077 LP  0  0  0  0  0  0  0  0  0  0  0  0  # atno 17342 bound_to 10162
  139.5039  144.6764  151.6117 LP  0  0  0  0  0  0  0  0  0  0  0  0  # atno 17343 bound_to 10162
  157.4258  130.7463  149.6950 LP  0  0  0  0  0  0  0  0  0  0  0  0  # atno 17370 bound_to 10713
  155.9778  130.4058  150.3688 LP  0  0  0  0  0  0  0  0  0  0  0  0  # atno 17371 bound_to 10713
  140.0662  134.5926  155.8692 LP  0  0  0  0  0  0  0  0  0  0  0  0  # atno 17394 bound_to 11000
  141.1997  133.6608  156.5860 LP  0  0  0  0  0  0  0  0  0  0  0  0  # atno 17395 bound_to 11000

$$$$
