AV-unprocessed.smi:1079|AV-procd|sdf|4704|dock6
  -GOLD-   22720 3223D 1   1.00000     0.00000
 Structure written by MMmdl.
 44 45  0  0  0  0  0  0  0  0  1 V2000
  144.0672  134.2499  151.4078 C   0  0  0  0  0  0  0  0  0  0  0  0
  145.4035  134.6537  151.6460 O   0  0  0  0  0  0  0  0  0  0  0  0
  145.6785  135.9522  151.1464 C   0  0  0  0  0  0  0  0  0  0  0  0
  144.7948  136.9787  151.8746 C   0  0  0  0  0  0  0  0  0  0  0  0
  145.4310  137.5416  153.0506 N   0  0  0  0  0  0  0  0  0  0  0  0
  146.5814  138.3359  153.0097 C   0  0  0  0  0  0  0  0  0  0  0  0
  147.1517  138.5965  151.7723 N   0  0  0  0  0  0  0  0  0  0  0  0
  147.1589  138.8219  154.1489 C   0  0  0  0  0  0  0  0  0  0  0  0
  148.2960  139.6509  154.1040 N   0  0  0  0  0  0  0  0  0  0  0  0
  149.5996  139.0091  154.3346 C   0  0  0  0  0  0  0  0  0  0  0  0
  150.3201  139.5616  155.5528 C   0  0  0  0  0  0  0  0  0  0  0  0
  149.6324  140.3922  156.4627 C   0  0  0  0  0  0  0  0  0  0  0  0
  150.2918  140.8964  157.6001 C   0  0  0  0  0  0  0  0  0  0  0  0
  151.6426  140.5731  157.8318 C   0  0  0  0  0  0  0  0  0  0  0  0
  152.3331  139.7449  156.9260 C   0  0  0  0  0  0  0  0  0  0  0  0
  151.6735  139.2400  155.7885 C   0  0  0  0  0  0  0  0  0  0  0  0
  148.2040  140.9895  153.8906 C   0  0  0  0  0  0  0  0  0  0  0  0
  146.8202  141.6425  153.7908 C   0  0  0  0  0  0  0  0  0  0  0  0
  149.1927  141.7174  153.8006 O   0  0  0  0  0  0  0  0  0  0  0  0
  146.5655  138.5439  155.4645 C   0  0  0  0  0  0  0  0  0  0  0  0
  146.9834  138.9609  156.5440 O   0  0  0  0  0  0  0  0  0  0  0  0
  145.4334  137.7344  155.4372 N   0  0  0  0  0  0  0  0  0  0  0  0
  144.8431  137.2076  154.2944 C   0  0  0  0  0  0  0  0  0  0  0  0
  143.8517  136.4855  154.4058 O   0  0  0  0  0  0  0  0  0  0  0  0
  145.0059  137.5085  156.3237 H   0  0  0  0  0  0  0  0  0  0  0  0
  143.9111  133.2480  151.8078 H   0  0  0  0  0  0  0  0  0  0  0  0
  143.8466  134.2249  150.3398 H   0  0  0  0  0  0  0  0  0  0  0  0
  143.3599  134.9211  151.8965 H   0  0  0  0  0  0  0  0  0  0  0  0
  146.7291  136.1918  151.3161 H   0  0  0  0  0  0  0  0  0  0  0  0
  145.5079  135.9911  150.0695 H   0  0  0  0  0  0  0  0  0  0  0  0
  144.5174  137.8046  151.2209 H   0  0  0  0  0  0  0  0  0  0  0  0
  143.8462  136.5411  152.1911 H   0  0  0  0  0  0  0  0  0  0  0  0
  146.7543  138.2275  150.9201 H   0  0  0  0  0  0  0  0  0  0  0  0
  147.8624  139.3055  151.6601 H   0  0  0  0  0  0  0  0  0  0  0  0
  149.4928  137.9272  154.4304 H   0  0  0  0  0  0  0  0  0  0  0  0
  150.2464  139.1515  153.4678 H   0  0  0  0  0  0  0  0  0  0  0  0
  148.5948  140.6400  156.2925 H   0  0  0  0  0  0  0  0  0  0  0  0
  149.7613  141.5299  158.2954 H   0  0  0  0  0  0  0  0  0  0  0  0
  152.1482  140.9598  158.7044 H   0  0  0  0  0  0  0  0  0  0  0  0
  153.3688  139.4956  157.1039 H   0  0  0  0  0  0  0  0  0  0  0  0
  152.2084  138.6024  155.1000 H   0  0  0  0  0  0  0  0  0  0  0  0
  146.1796  141.3398  154.6197 H   0  0  0  0  0  0  0  0  0  0  0  0
  146.3324  141.3756  152.8533 H   0  0  0  0  0  0  0  0  0  0  0  0
  146.9083  142.7291  153.8216 H   0  0  0  0  0  0  0  0  0  0  0  0
  1  2  1  0  0  0  0
  1 26  1  0  0  0  0
  1 27  1  0  0  0  0
  1 28  1  0  0  0  0
  2  3  1  0  0  0  0
  3  4  1  0  0  0  0
  3 29  1  0  0  0  0
  3 30  1  0  0  0  0
  4  5  1  0  0  0  0
  4 31  1  0  0  0  0
  4 32  1  0  0  0  0
  5 23  1  0  0  0  0
  5  6  1  0  0  0  0
  6  7  1  0  0  0  0
  6  8  2  0  0  0  0
  7 33  1  0  0  0  0
  7 34  1  0  0  0  0
  8  9  1  0  0  0  0
  8 20  1  0  0  0  0
  9 10  1  0  0  0  0
  9 17  1  0  0  0  0
 10 11  1  0  0  0  0
 10 35  1  0  0  0  0
 10 36  1  0  0  0  0
 11 16  1  0  0  0  0
 11 12  2  0  0  0  0
 12 13  1  0  0  0  0
 12 37  1  0  0  0  0
 13 14  2  0  0  0  0
 13 38  1  0  0  0  0
 14 15  1  0  0  0  0
 14 39  1  0  0  0  0
 15 16  2  0  0  0  0
 15 40  1  0  0  0  0
 16 41  1  0  0  0  0
 17 18  1  0  0  0  0
 17 19  2  0  0  0  0
 18 42  1  0  0  0  0
 18 43  1  0  0  0  0
 18 44  1  0  0  0  0
 20 21  2  0  0  0  0
 20 22  1  0  0  0  0
 22 25  1  0  0  0  0
 22 23  1  0  0  0  0
 23 24  2  0  0  0  0
M  END
> <s_m_source_file>
AV-unprocessed.smi

> <i_m_source_file_index>
1079

> <i_lp_mmshare_version>
43012

> <i_f3d_flags>
0

> <s_epik_input>
W0NIM11PW0NIMl1bQ0gyXW4xYyhbTkgyXSljKGMoPU8pW25IXWMxPU8pTihDKD1PKVtDSDNdKVtDSDJdYzJbY0hdW2NIXVtjSF1bY0hdW2NIXTI=

> <s_epik_cmdline>
J2VwaWtfcHl0aG9uJywgJy1waCcsICc3LjAnLCAnLXRuJywgJzgnLCAnLW1hJywgJzIwMCcsICctbWV0YWxfYmluZGluZycsICctaW1hZScsICc8aW5maWxlLm1hZT4nLCAnLW9tYWUnLCAnPG91dGZpbGUubWFlPic=

> <r_lp_tautomer_probability>
1

> <r_epik_Ionization_Penalty>
1.40243e-05

> <r_epik_Ionization_Penalty_Charging>
7.95939e-06

> <r_epik_Ionization_Penalty_Neutral>
6.06489e-06

> <r_epik_State_Penalty>
-0

> <r_epik_Charging_Adjusted_Penalty>
7.95939e-06

> <i_epik_Tot_Q>
0

> <i_epik_Tot_abs_Q>
0

> <r_epik_Metal_State_Penalty>
0.00752988

> <b_epik_Metal_Only>
0

> <s_epik_Chemistry_Notes>
This compound has an imine and may undergo hydrolysis.

> <s_lp_Force_Field>
OPLS_2005

> <r_lp_Energy>
29.3793

> <b_lp_Chiralities_Consistent>
1

> <s_lp_Variant>
AV-unprocessed.smi:1079-1

> <Gold.Version>
5.8.1

> <Gold.Id.Protein>
6NUR|6NUR_protein|mol2

> <Gold.PLP.Fitness>
35.8383

> <Gold.PLP.PLP>
-32.2370

> <Gold.PLP.part.hbond>
-3.9659

> <Gold.PLP.part.metal>
0.0000

> <Gold.PLP.part.buried>
-0.7092

> <Gold.PLP.part.nonpolar>
-28.0947

> <Gold.PLP.part.repulsive>
0.4792

> <Gold.PLP.ligand.clash>
0.0000

> <Gold.PLP.ligand.torsion>
1.8540

> <Gold.PLP.Chemscore.Hbond>
1.6400

> <Gold.PLP.Chemscore.CHOScore>
0.0000

> <Gold.PLP.Chemscore.Metal>
0.0000

> <Gold.Chemscore.Hbonds>
donor molecule, donor type, donor heavy atom, donor atom, acceptor molecule, acceptor atom, score
      L1  H     7    34       P1  7957  1.00
      P1  H  8011  8017       L1    19  0.62

> <Gold.PLP.Chemscore.Internal.Correction>
2.3892

> <Gold.Rescore>
     Score         DG    S(hbond)    S(metal)    S(lipo)     H(rot)  DE(clash)    DE(int)     intcor
      8.55     -13.04       1.55        0.00      64.52       2.02       1.21       3.28       ----

> <Gold.Chemscore.Fitness>
8.5532

> <Gold.Chemscore.DG>
-13.0433

> <Gold.Chemscore.ZeroCoef>
-5.4800

> <Gold.Chemscore.Hbond>
1.5501

> <Gold.Chemscore.Metal>
0.0000

> <Gold.Chemscore.Lipo>
64.5249

> <Gold.Chemscore.Internal_Hbond>
0.0000

> <Gold.Chemscore.DEClash>
1.2144

> <Gold.Chemscore.DEInternal>
3.2757

> <Gold.Chemscore.Rot>
2.0170

> <Gold.Chemscore.Internal.Correction>
   9.000000E+99

> <Gold.Chemscore.Hbonds>
donor molecule, donor type, donor heavy atom, donor atom, acceptor molecule, acceptor atom, score
      L1  H     7    34       P1  7957  0.96
      P1  H  8011  8017       L1    19  0.62

> <Gold.Chemscore.Hbond.Weighted>
-5.1775

> <Gold.Chemscore.Metal.Weighted>
-0.0000

> <Gold.Chemscore.Lipo.Weighted>
-7.5494

> <Gold.Chemscore.Internal_Hbond.Weighted>
0.0000

> <Gold.Chemscore.DEClash.Weighted>
1.2144

> <Gold.Chemscore.DEInternal.Weighted>
3.2757

> <Gold.Chemscore.Rot.Weighted>
5.1636

> <Gold.Chemscore.Internal.Correction.Weighted>
   9.000000E+99

> <Gold.Protein.RotatedTorsions>
[ 6907 6896 6895 6894 ] final   98.38 input  -60.11 | X-H torsion
[ 7974 7965 7964 7962 ] final -146.56 input  175.53 | X-H torsion
[ 8008 7997 7996 7995 ] final  -83.26 input   59.86 | X-H torsion
[ 10167 10162 10161 10158 ] final  131.85 input  -65.29 | X-H torsion
[ 10718 10713 10712 10709 ] final  -71.26 input   66.30 | X-H torsion
[ 10763 10752 10751 10750 ] final  167.52 input  -60.55 | X-H torsion
[ 11005 11000 10999 10996 ] final   97.13 input  -57.11 | X-H torsion

> <Gold.Protein.ActiveResidues>
 VAL166  LYS551  ARG553  GLY616  TRP617  ASP618  TYR619  PRO620  LYS621  CYS622 
 ASP623  PHE694  ASN695  SER759  ASP760  ASP761  ALA762  ILE779  LEU786  VAL792 
 PHE793  MET794  SER795  GLU796  ALA797  LYS798  CYS799  TRP800  GLU811  SER814 

> <Gold.Protein.RotatedAtoms>
  152.5410  134.0589  159.8143 H   0  0  0  0  0  0  0  0  0  0  0  0  # atno 6907 bound_to 6896
  151.0720  133.5451  159.2633 H   0  0  0  0  0  0  0  0  0  0  0  0  # atno 6908 bound_to 6896
  151.2310  135.0563  159.9042 H   0  0  0  0  0  0  0  0  0  0  0  0  # atno 6909 bound_to 6896
  144.8151  140.5439  143.5616 H   0  0  0  0  0  0  0  0  0  0  0  0  # atno 7974 bound_to 7965
  154.6172  140.0621  156.9570 H   0  0  0  0  0  0  0  0  0  0  0  0  # atno 8008 bound_to 7997
  155.1876  140.3304  155.4346 H   0  0  0  0  0  0  0  0  0  0  0  0  # atno 8009 bound_to 7997
  156.2411  140.1887  156.6968 H   0  0  0  0  0  0  0  0  0  0  0  0  # atno 8010 bound_to 7997
  139.5365  144.6688  151.4767 H   0  0  0  0  0  0  0  0  0  0  0  0  # atno 10167 bound_to 10162
  156.0370  130.4348  150.2418 H   0  0  0  0  0  0  0  0  0  0  0  0  # atno 10718 bound_to 10713
  154.3550  135.2753  155.2351 H   0  0  0  0  0  0  0  0  0  0  0  0  # atno 10763 bound_to 10752
  154.4564  135.5918  153.6229 H   0  0  0  0  0  0  0  0  0  0  0  0  # atno 10764 bound_to 10752
  152.9847  135.6054  154.3765 H   0  0  0  0  0  0  0  0  0  0  0  0  # atno 10765 bound_to 10752
  139.8777  134.8985  156.4261 H   0  0  0  0  0  0  0  0  0  0  0  0  # atno 11005 bound_to 11000
  145.5233  139.1476  143.3540 LP  0  0  0  0  0  0  0  0  0  0  0  0  # atno 17320 bound_to 7965
  146.2453  140.5374  142.8916 LP  0  0  0  0  0  0  0  0  0  0  0  0  # atno 17321 bound_to 7965
  140.6575  143.8569  150.6851 LP  0  0  0  0  0  0  0  0  0  0  0  0  # atno 17342 bound_to 10162
  140.1953  143.4003  152.1833 LP  0  0  0  0  0  0  0  0  0  0  0  0  # atno 17343 bound_to 10162
  157.0516  131.0064  151.3251 LP  0  0  0  0  0  0  0  0  0  0  0  0  # atno 17370 bound_to 10713
  157.5136  130.7954  149.7732 LP  0  0  0  0  0  0  0  0  0  0  0  0  # atno 17371 bound_to 10713
  140.9100  133.7719  155.9780 LP  0  0  0  0  0  0  0  0  0  0  0  0  # atno 17394 bound_to 11000
  140.8557  134.2901  157.5256 LP  0  0  0  0  0  0  0  0  0  0  0  0  # atno 17395 bound_to 11000

$$$$
