AV-unprocessed.smi:3258|AV-procd|sdf|12468|dock6
  -GOLD-   2272018363D 1   1.00000     0.00000
 Structure written by MMmdl.
 38 39  0  0  0  0  0  0  0  0  1 V2000
  148.6971  131.3918  153.2274 C   0  0  0  0  0  0  0  0  0  0  0  0
  147.7806  132.6093  153.0232 C   0  0  2  0  0  0  0  0  0  0  0  0
  147.1325  132.6562  151.6220 C   0  0  0  0  0  0  0  0  0  0  0  0
  146.0079  133.5713  151.5544 N   0  0  0  0  0  0  0  0  0  0  0  0
  146.0087  134.9377  151.7380 C   0  0  0  0  0  0  0  0  0  0  0  0
  144.7235  135.3697  151.5765 C   0  0  0  0  0  0  0  0  0  0  0  0
  143.9998  134.1783  151.2905 C   0  0  0  0  0  0  0  0  0  0  0  0
  144.7716  133.1034  151.2760 N   0  0  0  0  0  0  0  0  0  0  0  0
  148.5456  133.8296  153.2636 N   0  0  0  0  0  0  0  0  0  0  0  0
  149.3575  134.0406  154.3092 C   0  0  0  0  0  0  0  0  0  0  0  0
  149.5596  133.2184  155.2030 O   0  0  0  0  0  0  0  0  0  0  0  0
  149.9149  135.2588  154.2667 N   0  0  0  0  0  0  0  0  0  0  0  0
  150.8350  135.8031  155.2601 C   0  0  0  0  0  0  0  0  0  0  0  0
  151.5938  137.0326  154.7262 C   0  0  2  0  0  0  0  0  0  0  0  0
  152.5440  137.6496  155.7323 C   0  0  0  0  0  0  0  0  0  0  0  0
  152.7758  139.0409  155.1473 C   0  0  0  0  0  0  0  0  0  0  0  0
  151.5973  139.3622  154.4131 O   0  0  0  0  0  0  0  0  0  0  0  0
  150.7208  138.2407  154.3841 C   0  0  0  0  0  0  0  0  0  0  0  0
  148.1440  130.4560  153.1455 H   0  0  0  0  0  0  0  0  0  0  0  0
  149.1572  131.4087  154.2160 H   0  0  0  0  0  0  0  0  0  0  0  0
  149.4977  131.3710  152.4873 H   0  0  0  0  0  0  0  0  0  0  0  0
  146.9871  132.5470  153.7706 H   0  0  0  0  0  0  0  0  0  0  0  0
  147.8627  132.9719  150.8757 H   0  0  0  0  0  0  0  0  0  0  0  0
  146.7981  131.6605  151.3253 H   0  0  0  0  0  0  0  0  0  0  0  0
  146.9136  135.4814  151.9669 H   0  0  0  0  0  0  0  0  0  0  0  0
  144.3565  136.3826  151.6509 H   0  0  0  0  0  0  0  0  0  0  0  0
  142.9443  134.0633  151.0931 H   0  0  0  0  0  0  0  0  0  0  0  0
  148.4446  134.5693  152.5840 H   0  0  0  0  0  0  0  0  0  0  0  0
  149.6822  135.8589  153.4889 H   0  0  0  0  0  0  0  0  0  0  0  0
  150.3103  136.0446  156.1862 H   0  0  0  0  0  0  0  0  0  0  0  0
  151.5480  135.0176  155.5116 H   0  0  0  0  0  0  0  0  0  0  0  0
  152.1657  136.7506  153.8404 H   0  0  0  0  0  0  0  0  0  0  0  0
  152.0629  137.7317  156.7082 H   0  0  0  0  0  0  0  0  0  0  0  0
  153.4674  137.0829  155.8548 H   0  0  0  0  0  0  0  0  0  0  0  0
  152.9785  139.7847  155.9184 H   0  0  0  0  0  0  0  0  0  0  0  0
  153.6205  139.0301  154.4579 H   0  0  0  0  0  0  0  0  0  0  0  0
  150.2291  138.1453  153.4156 H   0  0  0  0  0  0  0  0  0  0  0  0
  149.9498  138.3867  155.1420 H   0  0  0  0  0  0  0  0  0  0  0  0
  1  2  1  0  0  0  0
  1 19  1  0  0  0  0
  1 20  1  0  0  0  0
  1 21  1  0  0  0  0
  2  3  1  0  0  0  0
  2  9  1  0  0  0  0
  2 22  1  0  0  0  0
  3  4  1  0  0  0  0
  3 23  1  0  0  0  0
  3 24  1  0  0  0  0
  4  8  1  0  0  0  0
  4  5  1  0  0  0  0
  5  6  2  0  0  0  0
  5 25  1  0  0  0  0
  6  7  1  0  0  0  0
  6 26  1  0  0  0  0
  7  8  2  0  0  0  0
  7 27  1  0  0  0  0
  9 10  1  0  0  0  0
  9 28  1  0  0  0  0
 10 11  2  0  0  0  0
 10 12  1  0  0  0  0
 12 13  1  0  0  0  0
 12 29  1  0  0  0  0
 13 14  1  0  0  0  0
 13 30  1  0  0  0  0
 13 31  1  0  0  0  0
 14 18  1  0  0  0  0
 14 15  1  0  0  0  0
 14 32  1  0  0  0  0
 15 16  1  0  0  0  0
 15 33  1  0  0  0  0
 15 34  1  0  0  0  0
 16 17  1  0  0  0  0
 16 35  1  0  0  0  0
 16 36  1  0  0  0  0
 17 18  1  0  0  0  0
 18 37  1  0  0  0  0
 18 38  1  0  0  0  0
M  END
> <s_m_source_file>
AV-unprocessed.smi

> <i_m_source_file_index>
3258

> <i_lp_mmshare_version>
43012

> <i_f3d_flags>
0

> <s_epik_input>
bjFbY0hdW2NIXVtjSF1uMVtDSDJdW0NAQEhdKFtDSDNdKVtOSF1DKD1PKVtOSF1bQ0gyXVtDQEBIXTJbQ0gyXVtDSDJdT1tDSDJdMg==

> <s_epik_cmdline>
J2VwaWtfcHl0aG9uJywgJy1waCcsICc3LjAnLCAnLXRuJywgJzgnLCAnLW1hJywgJzIwMCcsICctbWV0YWxfYmluZGluZycsICctaW1hZScsICc8aW5maWxlLm1hZT4nLCAnLW9tYWUnLCAnPG91dGZpbGUubWFlPic=

> <r_lp_tautomer_probability>
1

> <r_epik_Ionization_Penalty>
6.85079e-05

> <r_epik_Ionization_Penalty_Charging>
0

> <r_epik_Ionization_Penalty_Neutral>
6.85079e-05

> <r_epik_State_Penalty>
-0

> <r_epik_Charging_Adjusted_Penalty>
0

> <i_epik_Tot_Q>
0

> <i_epik_Tot_abs_Q>
0

> <r_epik_Metal_State_Penalty>
-0

> <b_epik_Metal_Only>
0

> <s_lp_Force_Field>
OPLS_2005

> <r_lp_Energy>
16.0555

> <b_lp_Chiralities_Consistent>
1

> <s_lp_Variant>
AV-unprocessed.smi:3258-1

> <Gold.Version>
5.8.1

> <Gold.Id.Protein>
6NUR|6NUR_protein|mol2

> <Gold.PLP.Fitness>
46.0949

> <Gold.PLP.PLP>
-31.7215

> <Gold.PLP.part.hbond>
-3.0565

> <Gold.PLP.part.metal>
0.0000

> <Gold.PLP.part.buried>
0.1444

> <Gold.PLP.part.nonpolar>
-27.8895

> <Gold.PLP.part.repulsive>
0.2932

> <Gold.PLP.ligand.clash>
0.0000

> <Gold.PLP.ligand.torsion>
0.3379

> <Gold.PLP.Chemscore.Hbond>
3.0000

> <Gold.PLP.Chemscore.CHOScore>
2.0000

> <Gold.PLP.Chemscore.Metal>
0.0000

> <Gold.Chemscore.Hbonds>
donor molecule, donor type, donor heavy atom, donor atom, acceptor molecule, acceptor atom, score
      L1  H     9    28       P1  7948  0.85
      L1  H    12    29       P1  7948  0.85
      P1  H  7989  7998       L1    17  1.00
      L1  C     5    25       P1  7948  1.00
      L1  C     7    27       P1 10186  1.00

> <Gold.PLP.Chemscore.Internal.Correction>
0.0492

> <Gold.Rescore>
     Score         DG    S(hbond)    S(metal)    S(lipo)     H(rot)  DE(clash)    DE(int)     intcor
     14.93     -16.51       2.56        0.00      62.17       1.87       0.07       1.50       ----

> <Gold.Chemscore.Fitness>
14.9323

> <Gold.Chemscore.DG>
-16.5075

> <Gold.Chemscore.ZeroCoef>
-5.4800

> <Gold.Chemscore.Hbond>
2.5588

> <Gold.Chemscore.Metal>
0.0000

> <Gold.Chemscore.Lipo>
62.1744

> <Gold.Chemscore.Internal_Hbond>
0.0000

> <Gold.Chemscore.DEClash>
0.0742

> <Gold.Chemscore.DEInternal>
1.5011

> <Gold.Chemscore.Rot>
1.8724

> <Gold.Chemscore.Internal.Correction>
   9.000000E+99

> <Gold.Chemscore.Hbonds>
donor molecule, donor type, donor heavy atom, donor atom, acceptor molecule, acceptor atom, score
      L1  H     9    28       P1  7948  0.14
      L1  H    12    29       P1  7948  0.14
      P1  H  7989  7998       L1    17  0.91

> <Gold.Chemscore.Hbond.Weighted>
-8.5463

> <Gold.Chemscore.Metal.Weighted>
-0.0000

> <Gold.Chemscore.Lipo.Weighted>
-7.2744

> <Gold.Chemscore.Internal_Hbond.Weighted>
0.0000

> <Gold.Chemscore.DEClash.Weighted>
0.0742

> <Gold.Chemscore.DEInternal.Weighted>
1.5011

> <Gold.Chemscore.Rot.Weighted>
4.7933

> <Gold.Chemscore.Internal.Correction.Weighted>
   9.000000E+99

> <Gold.Protein.RotatedTorsions>
[ 6907 6896 6895 6894 ] final  125.48 input  -60.11 | X-H torsion
[ 7974 7965 7964 7962 ] final   42.37 input  175.53 | X-H torsion
[ 8008 7997 7996 7995 ] final  117.72 input   59.86 | X-H torsion
[ 10167 10162 10161 10158 ] final -156.21 input  -65.29 | X-H torsion
[ 10718 10713 10712 10709 ] final   80.05 input   66.30 | X-H torsion
[ 10763 10752 10751 10750 ] final  -24.47 input  -60.55 | X-H torsion
[ 11005 11000 10999 10996 ] final -138.91 input  -57.11 | X-H torsion

> <Gold.Protein.ActiveResidues>
 VAL166  LYS551  ARG553  GLY616  TRP617  ASP618  TYR619  PRO620  LYS621  CYS622 
 ASP623  PHE694  ASN695  SER759  ASP760  ASP761  ALA762  ILE779  LEU786  VAL792 
 PHE793  MET794  SER795  GLU796  ALA797  LYS798  CYS799  TRP800  GLU811  SER814 

> <Gold.Protein.RotatedAtoms>
  152.3988  133.6786  159.6298 H   0  0  0  0  0  0  0  0  0  0  0  0  # atno 6907 bound_to 6896
  150.7882  133.8828  159.3299 H   0  0  0  0  0  0  0  0  0  0  0  0  # atno 6908 bound_to 6896
  151.6598  135.0992  160.0228 H   0  0  0  0  0  0  0  0  0  0  0  0  # atno 6909 bound_to 6896
  146.0745  139.5307  142.9576 H   0  0  0  0  0  0  0  0  0  0  0  0  # atno 7974 bound_to 7965
  156.2509  140.2890  156.0722 H   0  0  0  0  0  0  0  0  0  0  0  0  # atno 8008 bound_to 7997
  155.1658  140.0400  157.2870 H   0  0  0  0  0  0  0  0  0  0  0  0  # atno 8009 bound_to 7997
  154.6360  140.2511  155.7384 H   0  0  0  0  0  0  0  0  0  0  0  0  # atno 8010 bound_to 7997
  139.6868  143.9487  152.2365 H   0  0  0  0  0  0  0  0  0  0  0  0  # atno 10167 bound_to 10162
  157.6795  130.9942  150.2022 H   0  0  0  0  0  0  0  0  0  0  0  0  # atno 10718 bound_to 10713
  153.6843  135.6965  153.5109 H   0  0  0  0  0  0  0  0  0  0  0  0  # atno 10763 bound_to 10752
  153.2461  135.4290  155.0748 H   0  0  0  0  0  0  0  0  0  0  0  0  # atno 10764 bound_to 10752
  154.8391  135.3520  154.6385 H   0  0  0  0  0  0  0  0  0  0  0  0  # atno 10765 bound_to 10752
  140.8570  134.2216  157.4729 H   0  0  0  0  0  0  0  0  0  0  0  0  # atno 11005 bound_to 11000
  145.6330  141.0300  143.1853 LP  0  0  0  0  0  0  0  0  0  0  0  0  # atno 17320 bound_to 7965
  144.7253  139.7896  143.7367 LP  0  0  0  0  0  0  0  0  0  0  0  0  # atno 17321 bound_to 7965
  139.9292  144.6752  150.8380 LP  0  0  0  0  0  0  0  0  0  0  0  0  # atno 17342 bound_to 10162
  140.7670  143.3320  151.2389 LP  0  0  0  0  0  0  0  0  0  0  0  0  # atno 17343 bound_to 10162
  156.2711  130.3722  149.8031 LP  0  0  0  0  0  0  0  0  0  0  0  0  # atno 17370 bound_to 10713
  156.5747  130.8440  151.3366 LP  0  0  0  0  0  0  0  0  0  0  0  0  # atno 17371 bound_to 10713
  139.8705  134.9711  156.4725 LP  0  0  0  0  0  0  0  0  0  0  0  0  # atno 17394 bound_to 11000
  140.8726  133.7977  155.9380 LP  0  0  0  0  0  0  0  0  0  0  0  0  # atno 17395 bound_to 11000

$$$$
