AV-unprocessed.smi:2226|AV-procd|sdf|9006|dock6
  -GOLD-   2272012213D 1   1.00000     0.00000
 Structure written by MMmdl.
 41 43  0  0  0  0  0  0  0  0  3 V2000
  143.9789  132.6982  148.9601 C   0  0  0  0  0  0  0  0  0  0  0  0
  143.8139  133.6195  150.1094 N   0  3  2  0  0  0  0  0  0  0  0  0
  144.9237  134.5846  150.3012 C   0  0  1  0  0  0  0  0  0  0  0  0
  144.4314  135.7356  151.2102 C   0  0  0  0  0  0  0  0  0  0  0  0
  143.8106  135.2616  152.5409 C   0  0  0  0  0  0  0  0  0  0  0  0
  142.9101  134.0209  152.3662 C   0  0  0  0  0  0  0  0  0  0  0  0
  143.4825  132.9604  151.3963 C   0  0  2  0  0  0  0  0  0  0  0  0
  144.6894  132.1580  151.9465 C   0  0  0  0  0  0  0  0  0  0  0  0
  146.0120  132.9555  152.0176 C   0  0  1  0  0  0  0  0  0  0  0  0
  147.1381  132.0260  152.1207 N   0  0  0  0  0  0  0  0  0  0  0  0
  147.4658  131.3074  153.2070 C   0  0  0  0  0  0  0  0  0  0  0  0
  146.8434  131.3465  154.2686 O   0  0  0  0  0  0  0  0  0  0  0  0
  148.5500  130.5462  152.9904 N   0  0  0  0  0  0  0  0  0  0  0  0
  149.1475  129.6767  153.9325 C   0  0  0  0  0  0  0  0  0  0  0  0
  150.1336  128.8286  153.6439 N   0  3  0  0  0  0  0  0  0  0  0  0
  150.4725  128.1426  154.7838 C   0  0  0  0  0  0  0  0  0  0  0  0
  149.6417  128.6209  155.7685 C   0  0  0  0  0  0  0  0  0  0  0  0
  148.8028  129.5862  155.2486 O   0  0  0  0  0  0  0  0  0  0  0  0
  146.2116  133.8738  150.7898 C   0  0  0  0  0  0  0  0  0  0  0  0
  144.8290  132.0283  149.0851 H   0  0  0  0  0  0  0  0  0  0  0  0
  144.1265  133.2633  148.0395 H   0  0  0  0  0  0  0  0  0  0  0  0
  143.0843  132.0884  148.8316 H   0  0  0  0  0  0  0  0  0  0  0  0
  145.1477  135.0323  149.3316 H   0  0  0  0  0  0  0  0  0  0  0  0
  145.2400  136.4410  151.4048 H   0  0  0  0  0  0  0  0  0  0  0  0
  143.6724  136.2979  150.6644 H   0  0  0  0  0  0  0  0  0  0  0  0
  144.5880  135.0663  153.2741 H   0  0  0  0  0  0  0  0  0  0  0  0
  143.2274  136.0733  152.9773 H   0  0  0  0  0  0  0  0  0  0  0  0
  142.6963  133.5741  153.3378 H   0  0  0  0  0  0  0  0  0  0  0  0
  141.9478  134.3540  151.9750 H   0  0  0  0  0  0  0  0  0  0  0  0
  142.6774  132.2481  151.2087 H   0  0  0  0  0  0  0  0  0  0  0  0
  144.4496  131.7535  152.9305 H   0  0  0  0  0  0  0  0  0  0  0  0
  144.8350  131.2867  151.3065 H   0  0  0  0  0  0  0  0  0  0  0  0
  145.9886  133.5769  152.9082 H   0  0  0  0  0  0  0  0  0  0  0  0
  147.7125  131.9238  151.2965 H   0  0  0  0  0  0  0  0  0  0  0  0
  150.5856  128.6825  152.7499 H   0  0  0  0  0  0  0  0  0  0  0  0
  151.2551  127.3974  154.7814 H   0  0  0  0  0  0  0  0  0  0  0  0
  149.5244  128.3982  156.8192 H   0  0  0  0  0  0  0  0  0  0  0  0
  146.6033  133.2797  149.9630 H   0  0  0  0  0  0  0  0  0  0  0  0
  146.9857  134.6118  151.0036 H   0  0  0  0  0  0  0  0  0  0  0  0
  143.0054  134.1779  149.8739 H   0  0  0  0  0  0  0  0  0  0  0  0
  148.9837  130.5912  152.0802 H   0  0  0  0  0  0  0  0  0  0  0  0
  1  2  1  0  0  0  0
  1 20  1  0  0  0  0
  1 21  1  0  0  0  0
  1 22  1  0  0  0  0
  2  7  1  0  0  0  0
  2  3  1  0  0  0  0
  2 40  1  0  0  0  0
  3 19  1  0  0  0  0
  3  4  1  0  0  0  0
  3 23  1  0  0  0  0
  4  5  1  0  0  0  0
  4 24  1  0  0  0  0
  4 25  1  0  0  0  0
  5  6  1  0  0  0  0
  5 26  1  0  0  0  0
  5 27  1  0  0  0  0
  6  7  1  0  0  0  0
  6 28  1  0  0  0  0
  6 29  1  0  0  0  0
  7  8  1  0  0  0  0
  7 30  1  0  0  0  0
  8  9  1  0  0  0  0
  8 31  1  0  0  0  0
  8 32  1  0  0  0  0
  9 10  1  0  0  0  0
  9 19  1  0  0  0  0
  9 33  1  0  0  0  0
 10 34  1  0  0  0  0
 10 11  1  0  0  0  0
 11 13  1  0  0  0  0
 11 12  2  0  0  0  0
 13 14  1  0  0  0  0
 13 41  1  0  0  0  0
 14 18  1  0  0  0  0
 14 15  2  0  0  0  0
 15 35  1  0  0  0  0
 15 16  1  0  0  0  0
 16 36  1  0  0  0  0
 16 17  2  0  0  0  0
 17 37  1  0  0  0  0
 17 18  1  0  0  0  0
 19 38  1  0  0  0  0
 19 39  1  0  0  0  0
M  CHG  1   2   1
M  CHG  1  15   1
M  END
> <s_m_source_file>
AV-unprocessed.smi

> <i_m_source_file_index>
2226

> <i_lp_mmshare_version>
43012

> <i_f3d_flags>
0

> <s_epik_input>
W0NIMl0xW0NIMl1bQ0gyXVtDQEhdKE4oW0NIM10pW0NIXTEyKVtDSDJdW0NASF0oW0NIMl0yKVtOSF1DKD1PKVtOSF1jM25bY0hdW2NIXW8z

> <s_epik_cmdline>
J2VwaWtfcHl0aG9uJywgJy1waCcsICc3LjAnLCAnLXRuJywgJzgnLCAnLW1hJywgJzIwMCcsICctbWV0YWxfYmluZGluZycsICctaW1hZScsICc8aW5maWxlLm1hZT4nLCAnLW9tYWUnLCAnPG91dGZpbGUubWFlPic=

> <r_epik_Ionization_Penalty>
6.92532

> <r_epik_Ionization_Penalty_Charging>
6.82059

> <r_epik_Ionization_Penalty_Neutral>
0.104727

> <r_epik_State_Penalty>
2.17671

> <r_epik_Charging_Adjusted_Penalty>
8.99731

> <i_epik_Tot_Q>
2

> <i_epik_Tot_abs_Q>
2

> <r_epik_Metal_State_Penalty>
2.20618

> <b_epik_Metal_Only>
0

> <s_lp_Force_Field>
OPLS_2005

> <r_lp_Energy>
47.1954

> <b_lp_Chiralities_Consistent>
1

> <s_lp_Variant>
AV-unprocessed.smi:2226-6

> <Gold.Version>
5.8.1

> <Gold.Id.Protein>
6NUR|6NUR_protein|mol2

> <Gold.PLP.Fitness>
43.9997

> <Gold.PLP.PLP>
-29.6302

> <Gold.PLP.part.hbond>
-4.0000

> <Gold.PLP.part.metal>
0.0000

> <Gold.PLP.part.buried>
-1.1851

> <Gold.PLP.part.nonpolar>
-24.0731

> <Gold.PLP.part.repulsive>
0.2439

> <Gold.PLP.ligand.clash>
0.0000

> <Gold.PLP.ligand.torsion>
0.1963

> <Gold.PLP.Chemscore.Hbond>
4.9185

> <Gold.PLP.Chemscore.CHOScore>
0.0000

> <Gold.PLP.Chemscore.Metal>
0.0000

> <Gold.Chemscore.Hbonds>
donor molecule, donor type, donor heavy atom, donor atom, acceptor molecule, acceptor atom, score
      L1  H     2    40       P1 10186  1.98
      L1  H    10    34       P1 10747  0.98
      L1  H    13    41       P1 10747  1.00
      L1  H    15    35       P1 10737  0.96

> <Gold.PLP.Chemscore.Internal.Correction>
0.0066

> <Gold.Rescore>
     Score         DG    S(hbond)    S(metal)    S(lipo)     H(rot)  DE(clash)    DE(int)     intcor
     18.72     -20.60       3.03        0.00      64.72       1.00       0.32       1.56       ----

> <Gold.Chemscore.Fitness>
18.7203

> <Gold.Chemscore.DG>
-20.5960

> <Gold.Chemscore.ZeroCoef>
-5.4800

> <Gold.Chemscore.Hbond>
3.0252

> <Gold.Chemscore.Metal>
0.0000

> <Gold.Chemscore.Lipo>
64.7155

> <Gold.Chemscore.Internal_Hbond>
0.0000

> <Gold.Chemscore.DEClash>
0.3158

> <Gold.Chemscore.DEInternal>
1.5599

> <Gold.Chemscore.Rot>
1.0000

> <Gold.Chemscore.Internal.Correction>
   9.000000E+99

> <Gold.Chemscore.Hbonds>
donor molecule, donor type, donor heavy atom, donor atom, acceptor molecule, acceptor atom, score
      L1  H     2    40       P1 10186  0.89
      L1  H    10    34       P1 10747  0.93
      L1  H    13    41       P1 10747  0.25
      L1  H    15    35       P1 10737  0.81

> <Gold.Chemscore.Hbond.Weighted>
-10.1043

> <Gold.Chemscore.Metal.Weighted>
-0.0000

> <Gold.Chemscore.Lipo.Weighted>
-7.5717

> <Gold.Chemscore.Internal_Hbond.Weighted>
0.0000

> <Gold.Chemscore.DEClash.Weighted>
0.3158

> <Gold.Chemscore.DEInternal.Weighted>
1.5599

> <Gold.Chemscore.Rot.Weighted>
2.5600

> <Gold.Chemscore.Internal.Correction.Weighted>
   9.000000E+99

> <Gold.Protein.RotatedTorsions>
[ 6907 6896 6895 6894 ] final  175.33 input  -60.11 | X-H torsion
[ 7974 7965 7964 7962 ] final   48.03 input  175.53 | X-H torsion
[ 8008 7997 7996 7995 ] final  158.54 input   59.86 | X-H torsion
[ 10167 10162 10161 10158 ] final   43.01 input  -65.29 | X-H torsion
[ 10718 10713 10712 10709 ] final  142.11 input   66.30 | X-H torsion
[ 10763 10752 10751 10750 ] final  105.09 input  -60.55 | X-H torsion
[ 11005 11000 10999 10996 ] final  -42.29 input  -57.11 | X-H torsion

> <Gold.Protein.ActiveResidues>
 VAL166  LYS551  ARG553  GLY616  TRP617  ASP618  TYR619  PRO620  LYS621  CYS622 
 ASP623  PHE694  ASN695  SER759  ASP760  ASP761  ALA762  ILE779  LEU786  VAL792 
 PHE793  MET794  SER795  GLU796  ALA797  LYS798  CYS799  TRP800  GLU811  SER814 

> <Gold.Protein.RotatedAtoms>
  151.7380  133.3320  159.3357 H   0  0  0  0  0  0  0  0  0  0  0  0  # atno 6907 bound_to 6896
  150.7585  134.6303  159.6192 H   0  0  0  0  0  0  0  0  0  0  0  0  # atno 6908 bound_to 6896
  152.3549  134.6956  160.0277 H   0  0  0  0  0  0  0  0  0  0  0  0  # atno 6909 bound_to 6896
  146.0242  139.4687  142.9878 H   0  0  0  0  0  0  0  0  0  0  0  0  # atno 7974 bound_to 7965
  156.2296  140.1855  156.7276 H   0  0  0  0  0  0  0  0  0  0  0  0  # atno 8008 bound_to 7997
  154.6000  140.0637  156.9383 H   0  0  0  0  0  0  0  0  0  0  0  0  # atno 8009 bound_to 7997
  155.2191  140.3306  155.4320 H   0  0  0  0  0  0  0  0  0  0  0  0  # atno 8010 bound_to 7997
  140.3487  144.2378  150.6148 H   0  0  0  0  0  0  0  0  0  0  0  0  # atno 10167 bound_to 10162
  157.3843  131.0996  151.0709 H   0  0  0  0  0  0  0  0  0  0  0  0  # atno 10718 bound_to 10713
  153.3747  135.3921  155.1814 H   0  0  0  0  0  0  0  0  0  0  0  0  # atno 10763 bound_to 10752
  154.8699  135.3711  154.4933 H   0  0  0  0  0  0  0  0  0  0  0  0  # atno 10764 bound_to 10752
  153.5404  135.7084  153.5700 H   0  0  0  0  0  0  0  0  0  0  0  0  # atno 10765 bound_to 10752
  141.0305  133.6822  156.2575 H   0  0  0  0  0  0  0  0  0  0  0  0  # atno 11005 bound_to 11000
  145.7144  141.0096  143.1436 LP  0  0  0  0  0  0  0  0  0  0  0  0  # atno 17320 bound_to 7965
  144.7003  139.8795  143.7446 LP  0  0  0  0  0  0  0  0  0  0  0  0  # atno 17321 bound_to 7965
  140.5240  143.2259  151.8344 LP  0  0  0  0  0  0  0  0  0  0  0  0  # atno 17342 bound_to 10162
  139.4829  144.4802  151.9315 LP  0  0  0  0  0  0  0  0  0  0  0  0  # atno 17343 bound_to 10162
  157.1766  130.6291  149.5658 LP  0  0  0  0  0  0  0  0  0  0  0  0  # atno 17370 bound_to 10713
  155.9783  130.4767  150.6646 LP  0  0  0  0  0  0  0  0  0  0  0  0  # atno 17371 bound_to 10713
  140.6414  134.5162  157.5570 LP  0  0  0  0  0  0  0  0  0  0  0  0  # atno 17394 bound_to 11000
  139.9205  134.8159  156.1227 LP  0  0  0  0  0  0  0  0  0  0  0  0  # atno 17395 bound_to 11000

$$$$
