AV-unprocessed.smi:3314|AV-procd|sdf|12738|dock6
  -GOLD-   2272019 83D 1   1.00000     0.00000
 Structure written by MMmdl.
 38 39  0  0  0  0  0  0  0  0  2 V2000
  153.7063  141.9822  162.1520 C   0  0  0  0  0  0  0  0  0  0  0  0
  152.9387  142.2904  160.8827 C   0  0  0  0  0  0  0  0  0  0  0  0
  152.6424  143.6651  160.5177 C   0  0  0  0  0  0  0  0  0  0  0  0
  151.9645  143.9179  159.3857 C   0  0  0  0  0  0  0  0  0  0  0  0
  151.6079  145.3165  158.9266 C   0  0  0  0  0  0  0  0  0  0  0  0
  151.5441  142.8823  158.5599 N   0  0  0  0  0  0  0  0  0  0  0  0
  151.7825  141.5269  158.8477 C   0  0  0  0  0  0  0  0  0  0  0  0
  151.3996  140.5199  158.1176 N   0  0  0  0  0  0  0  0  0  0  0  0
  150.7009  140.6759  156.9232 C   0  0  0  0  0  0  0  0  0  0  0  0
  149.5926  141.1847  156.7314 O   0  0  0  0  0  0  0  0  0  0  0  0
  151.4858  140.0959  155.7266 C   0  0  1  0  0  0  0  0  0  0  0  0
  151.9974  138.6478  155.9214 C   0  0  0  0  0  0  0  0  0  0  0  0
  150.8821  137.6720  155.8796 N   0  3  2  0  0  0  0  0  0  0  0  0
  151.3305  136.2829  156.1135 C   0  0  0  0  0  0  0  0  0  0  0  0
  150.1023  137.8173  154.6297 C   0  0  0  0  0  0  0  0  0  0  0  0
  149.6043  139.2631  154.4755 C   0  0  0  0  0  0  0  0  0  0  0  0
  150.7137  140.1597  154.5222 O   0  0  0  0  0  0  0  0  0  0  0  0
  152.5213  141.2850  160.0776 C   0  0  0  0  0  0  0  0  0  0  0  0
  153.9802  142.8960  162.6799 H   0  0  0  0  0  0  0  0  0  0  0  0
  154.6214  141.4370  161.9190 H   0  0  0  0  0  0  0  0  0  0  0  0
  153.1018  141.3701  162.8218 H   0  0  0  0  0  0  0  0  0  0  0  0
  152.9622  144.4792  161.1519 H   0  0  0  0  0  0  0  0  0  0  0  0
  150.9805  145.8083  159.6706 H   0  0  0  0  0  0  0  0  0  0  0  0
  151.0659  145.3030  157.9802 H   0  0  0  0  0  0  0  0  0  0  0  0
  152.5115  145.9118  158.7933 H   0  0  0  0  0  0  0  0  0  0  0  0
  152.3528  140.7428  155.5863 H   0  0  0  0  0  0  0  0  0  0  0  0
  152.7127  138.4070  155.1333 H   0  0  0  0  0  0  0  0  0  0  0  0
  152.5376  138.5545  156.8648 H   0  0  0  0  0  0  0  0  0  0  0  0
  152.0136  135.9531  155.3295 H   0  0  0  0  0  0  0  0  0  0  0  0
  150.4787  135.6023  156.1339 H   0  0  0  0  0  0  0  0  0  0  0  0
  151.8441  136.2017  157.0719 H   0  0  0  0  0  0  0  0  0  0  0  0
  150.7245  137.5440  153.7759 H   0  0  0  0  0  0  0  0  0  0  0  0
  149.2535  137.1329  154.6415 H   0  0  0  0  0  0  0  0  0  0  0  0
  149.0992  139.3834  153.5172 H   0  0  0  0  0  0  0  0  0  0  0  0
  148.8702  139.5059  155.2445 H   0  0  0  0  0  0  0  0  0  0  0  0
  152.7587  140.2755  160.3818 H   0  0  0  0  0  0  0  0  0  0  0  0
  151.0375  143.1565  157.7304 H   0  0  0  0  0  0  0  0  0  0  0  0
  150.2604  137.9078  156.6403 H   0  0  0  0  0  0  0  0  0  0  0  0
  1  2  1  0  0  0  0
  1 19  1  0  0  0  0
  1 20  1  0  0  0  0
  1 21  1  0  0  0  0
  2 18  2  0  0  0  0
  2  3  1  0  0  0  0
  3  4  2  0  0  0  0
  3 22  1  0  0  0  0
  4  5  1  0  0  0  0
  4  6  1  0  0  0  0
  5 23  1  0  0  0  0
  5 24  1  0  0  0  0
  5 25  1  0  0  0  0
  6  7  1  0  0  0  0
  6 37  1  0  0  0  0
  7  8  2  0  0  0  0
  7 18  1  0  0  0  0
  8  9  1  0  0  0  0
  9 10  2  0  0  0  0
  9 11  1  0  0  0  0
 11 17  1  0  0  0  0
 11 12  1  0  0  0  0
 11 26  1  0  0  0  0
 12 13  1  0  0  0  0
 12 27  1  0  0  0  0
 12 28  1  0  0  0  0
 13 14  1  0  0  0  0
 13 15  1  0  0  0  0
 13 38  1  0  0  0  0
 14 29  1  0  0  0  0
 14 30  1  0  0  0  0
 14 31  1  0  0  0  0
 15 16  1  0  0  0  0
 15 32  1  0  0  0  0
 15 33  1  0  0  0  0
 16 17  1  0  0  0  0
 16 34  1  0  0  0  0
 16 35  1  0  0  0  0
 18 36  1  0  0  0  0
M  CHG  1  13   1
M  END
> <s_m_source_file>
AV-unprocessed.smi

> <i_m_source_file_index>
3314

> <i_lp_mmshare_version>
43012

> <i_f3d_flags>
0

> <s_epik_input>
W0NIM11jMVtjSF1jKFtDSDNdKW5jKFtjSF0xKVtOSF1DKD1PKVtDQEBIXTJbQ0gyXU4oW0NIM10pW0NIMl1bQ0gyXU8y

> <s_epik_cmdline>
J2VwaWtfcHl0aG9uJywgJy1waCcsICc3LjAnLCAnLXRuJywgJzgnLCAnLW1hJywgJzIwMCcsICctbWV0YWxfYmluZGluZycsICctaW1hZScsICc8aW5maWxlLm1hZT4nLCAnLW9tYWUnLCAnPG91dGZpbGUubWFlPic=

> <r_epik_Ionization_Penalty>
0.519783

> <r_epik_Ionization_Penalty_Charging>
0.519783

> <r_epik_Ionization_Penalty_Neutral>
1.74183e-13

> <r_epik_State_Penalty>
2.39351

> <r_epik_Charging_Adjusted_Penalty>
2.91329

> <i_epik_Tot_Q>
1

> <i_epik_Tot_abs_Q>
1

> <r_epik_Metal_State_Penalty>
2.41924

> <b_epik_Metal_Only>
0

> <s_lp_Force_Field>
OPLS_2005

> <r_lp_Energy>
32.167

> <b_lp_Chiralities_Consistent>
1

> <s_lp_Variant>
AV-unprocessed.smi:3314-8

> <Gold.Version>
5.8.1

> <Gold.Id.Protein>
6NUR|6NUR_protein|mol2

> <Gold.PLP.Fitness>
39.2558

> <Gold.PLP.PLP>
-37.5914

> <Gold.PLP.part.hbond>
-0.9585

> <Gold.PLP.part.metal>
0.0000

> <Gold.PLP.part.buried>
-4.8030

> <Gold.PLP.part.nonpolar>
-32.9157

> <Gold.PLP.part.repulsive>
0.2478

> <Gold.PLP.ligand.clash>
0.0000

> <Gold.PLP.ligand.torsion>
0.6779

> <Gold.PLP.Chemscore.Hbond>
1.0000

> <Gold.PLP.Chemscore.CHOScore>
0.0000

> <Gold.PLP.Chemscore.Metal>
0.0000

> <Gold.Chemscore.Hbonds>
donor molecule, donor type, donor heavy atom, donor atom, acceptor molecule, acceptor atom, score
      P1  H  7989  7998       L1    17  1.00

> <Gold.PLP.Chemscore.Internal.Correction>
0.0203

> <Gold.Rescore>
     Score         DG    S(hbond)    S(metal)    S(lipo)     H(rot)  DE(clash)    DE(int)     intcor
     15.86     -17.69       0.97        0.00      98.51       1.00       0.01       1.83       ----

> <Gold.Chemscore.Fitness>
15.8594

> <Gold.Chemscore.DG>
-17.6947

> <Gold.Chemscore.ZeroCoef>
-5.4800

> <Gold.Chemscore.Hbond>
0.9728

> <Gold.Chemscore.Metal>
0.0000

> <Gold.Chemscore.Lipo>
98.5103

> <Gold.Chemscore.Internal_Hbond>
0.0000

> <Gold.Chemscore.DEClash>
0.0089

> <Gold.Chemscore.DEInternal>
1.8265

> <Gold.Chemscore.Rot>
1.0000

> <Gold.Chemscore.Internal.Correction>
   9.000000E+99

> <Gold.Chemscore.Hbonds>
donor molecule, donor type, donor heavy atom, donor atom, acceptor molecule, acceptor atom, score
      P1  H  7989  7998       L1    17  0.48

> <Gold.Chemscore.Hbond.Weighted>
-3.2490

> <Gold.Chemscore.Metal.Weighted>
-0.0000

> <Gold.Chemscore.Lipo.Weighted>
-11.5257

> <Gold.Chemscore.Internal_Hbond.Weighted>
0.0000

> <Gold.Chemscore.DEClash.Weighted>
0.0089

> <Gold.Chemscore.DEInternal.Weighted>
1.8265

> <Gold.Chemscore.Rot.Weighted>
2.5600

> <Gold.Chemscore.Internal.Correction.Weighted>
   9.000000E+99

> <Gold.Protein.RotatedTorsions>
[ 6907 6896 6895 6894 ] final   97.94 input  -60.11 | X-H torsion
[ 7974 7965 7964 7962 ] final  149.77 input  175.53 | X-H torsion
[ 8008 7997 7996 7995 ] final  -78.64 input   59.86 | X-H torsion
[ 10167 10162 10161 10158 ] final -162.90 input  -65.29 | X-H torsion
[ 10718 10713 10712 10709 ] final   47.34 input   66.30 | X-H torsion
[ 10763 10752 10751 10750 ] final  -11.43 input  -60.55 | X-H torsion
[ 11005 11000 10999 10996 ] final  103.14 input  -57.11 | X-H torsion

> <Gold.Protein.ActiveResidues>
 VAL166  LYS551  ARG553  GLY616  TRP617  ASP618  TYR619  PRO620  LYS621  CYS622 
 ASP623  PHE694  ASN695  SER759  ASP760  ASP761  ALA762  ILE779  LEU786  VAL792 
 PHE793  MET794  SER795  GLU796  ALA797  LYS798  CYS799  TRP800  GLU811  SER814 

> <Gold.Protein.RotatedAtoms>
  152.5416  134.0657  159.8171 H   0  0  0  0  0  0  0  0  0  0  0  0  # atno 6907 bound_to 6896
  151.0779  133.5406  159.2630 H   0  0  0  0  0  0  0  0  0  0  0  0  # atno 6908 bound_to 6896
  151.2245  135.0539  159.9017 H   0  0  0  0  0  0  0  0  0  0  0  0  # atno 6909 bound_to 6896
  144.8414  139.6322  143.6015 H   0  0  0  0  0  0  0  0  0  0  0  0  # atno 7974 bound_to 7965
  154.5709  140.0691  156.8962 H   0  0  0  0  0  0  0  0  0  0  0  0  # atno 8008 bound_to 7997
  155.2636  140.3360  155.4253 H   0  0  0  0  0  0  0  0  0  0  0  0  # atno 8009 bound_to 7997
  156.2117  140.1762  156.7665 H   0  0  0  0  0  0  0  0  0  0  0  0  # atno 8010 bound_to 7997
  139.6359  144.0351  152.2054 H   0  0  0  0  0  0  0  0  0  0  0  0  # atno 10167 bound_to 10162
  157.4575  130.8176  149.7851 H   0  0  0  0  0  0  0  0  0  0  0  0  # atno 10718 bound_to 10713
  153.4837  135.7017  153.5923 H   0  0  0  0  0  0  0  0  0  0  0  0  # atno 10763 bound_to 10752
  153.4126  135.3845  155.2060 H   0  0  0  0  0  0  0  0  0  0  0  0  # atno 10764 bound_to 10752
  154.8720  135.3908  154.4289 H   0  0  0  0  0  0  0  0  0  0  0  0  # atno 10765 bound_to 10752
  139.8782  134.9251  156.5164 H   0  0  0  0  0  0  0  0  0  0  0  0  # atno 11005 bound_to 11000
  146.2705  139.6625  142.9299 LP  0  0  0  0  0  0  0  0  0  0  0  0  # atno 17320 bound_to 7965
  145.4687  141.0435  143.2711 LP  0  0  0  0  0  0  0  0  0  0  0  0  # atno 17321 bound_to 7965
  140.0028  144.6281  150.7715 LP  0  0  0  0  0  0  0  0  0  0  0  0  # atno 17342 bound_to 10162
  140.7465  143.2891  151.3379 LP  0  0  0  0  0  0  0  0  0  0  0  0  # atno 17343 bound_to 10162
  156.0014  130.3878  150.2593 LP  0  0  0  0  0  0  0  0  0  0  0  0  # atno 17370 bound_to 10713
  157.0769  131.0132  151.3170 LP  0  0  0  0  0  0  0  0  0  0  0  0  # atno 17371 bound_to 10713
  140.8482  133.8152  155.9142 LP  0  0  0  0  0  0  0  0  0  0  0  0  # atno 17394 bound_to 11000
  140.9170  134.2189  157.4950 LP  0  0  0  0  0  0  0  0  0  0  0  0  # atno 17395 bound_to 11000

$$$$
