AV-unprocessed.smi:1762|AV-procd|sdf|7099|dock5
  -GOLD-   22720 8313D 1   1.00000     0.00000
 Structure written by MMmdl.
 52 53  0  0  0  0  0  0  0  0  1 V2000
  152.2569  138.0702  155.9600 C   0  0  0  0  0  0  0  0  0  0  0  0
  150.8677  137.4614  155.7387 C   0  0  2  0  0  0  0  0  0  0  0  0
  149.8137  138.5288  155.3916 C   0  0  0  0  0  0  0  0  0  0  0  0
  148.4642  137.9696  155.2580 N   0  0  0  0  0  0  0  0  0  0  0  0
  147.4529  138.9829  154.8445 C   0  0  2  0  0  0  0  0  0  0  0  0
  146.2117  138.3616  154.1611 C   0  0  0  0  0  0  0  0  0  0  0  0
  145.0775  138.6973  154.5042 O   0  0  0  0  0  0  0  0  0  0  0  0
  146.4453  137.4814  153.1744 N   0  0  0  0  0  0  0  0  0  0  0  0
  145.4151  136.8220  152.3815 C   0  0  0  0  0  0  0  0  0  0  0  0
  146.0300  135.9789  151.2518 C   0  0  0  0  0  0  0  0  0  0  0  0
  145.4727  134.5688  151.2174 C   0  0  0  0  0  0  0  0  0  0  0  0
  146.2926  133.4638  151.5311 C   0  0  0  0  0  0  0  0  0  0  0  0
  145.7293  132.1743  151.4798 C   0  0  0  0  0  0  0  0  0  0  0  0
  144.3752  132.0399  151.1171 C   0  0  0  0  0  0  0  0  0  0  0  0
  143.6419  133.2060  150.8200 C   0  0  0  0  0  0  0  0  0  0  0  0
  144.1724  134.4473  150.8663 N   0  0  0  0  0  0  0  0  0  0  0  0
  148.0182  140.1716  153.9958 C   0  0  0  0  0  0  0  0  0  0  0  0
  148.7033  141.2637  154.8427 C   0  0  0  0  0  0  0  0  0  0  0  0
  146.9860  140.8026  153.0408 C   0  0  0  0  0  0  0  0  0  0  0  0
  148.1341  137.2485  156.5005 C   0  0  0  0  0  0  0  0  0  0  0  0
  149.1897  136.1981  156.8995 C   0  0  1  0  0  0  0  0  0  0  0  0
  149.1525  134.9338  156.0231 C   0  0  0  0  0  0  0  0  0  0  0  0
  150.4881  136.7855  156.9326 O   0  0  0  0  0  0  0  0  0  0  0  0
  152.6057  138.5869  155.0655 H   0  0  0  0  0  0  0  0  0  0  0  0
  152.9865  137.2973  156.2024 H   0  0  0  0  0  0  0  0  0  0  0  0
  152.2474  138.7888  156.7800 H   0  0  0  0  0  0  0  0  0  0  0  0
  150.9393  136.7431  154.9216 H   0  0  0  0  0  0  0  0  0  0  0  0
  149.8173  139.3120  156.1519 H   0  0  0  0  0  0  0  0  0  0  0  0
  150.1349  138.9936  154.4619 H   0  0  0  0  0  0  0  0  0  0  0  0
  147.0779  139.4369  155.7646 H   0  0  0  0  0  0  0  0  0  0  0  0
  147.4053  137.2636  152.9495 H   0  0  0  0  0  0  0  0  0  0  0  0
  144.8305  136.1861  153.0471 H   0  0  0  0  0  0  0  0  0  0  0  0
  144.7247  137.5629  151.9746 H   0  0  0  0  0  0  0  0  0  0  0  0
  145.8506  136.4537  150.2862 H   0  0  0  0  0  0  0  0  0  0  0  0
  147.1135  135.9288  151.3697 H   0  0  0  0  0  0  0  0  0  0  0  0
  147.3292  133.5994  151.8035 H   0  0  0  0  0  0  0  0  0  0  0  0
  146.3251  131.3042  151.7134 H   0  0  0  0  0  0  0  0  0  0  0  0
  143.9098  131.0666  151.0670 H   0  0  0  0  0  0  0  0  0  0  0  0
  142.6018  133.1398  150.5368 H   0  0  0  0  0  0  0  0  0  0  0  0
  148.8232  139.7804  153.3760 H   0  0  0  0  0  0  0  0  0  0  0  0
  147.9874  141.8320  155.4376 H   0  0  0  0  0  0  0  0  0  0  0  0
  149.2286  141.9761  154.2060 H   0  0  0  0  0  0  0  0  0  0  0  0
  149.4379  140.8321  155.5230 H   0  0  0  0  0  0  0  0  0  0  0  0
  146.1784  141.2957  153.5808 H   0  0  0  0  0  0  0  0  0  0  0  0
  146.5396  140.0575  152.3823 H   0  0  0  0  0  0  0  0  0  0  0  0
  147.4561  141.5530  152.4047 H   0  0  0  0  0  0  0  0  0  0  0  0
  148.0262  137.9668  157.3153 H   0  0  0  0  0  0  0  0  0  0  0  0
  147.1804  136.7270  156.4264 H   0  0  0  0  0  0  0  0  0  0  0  0
  148.9748  135.8798  157.9200 H   0  0  0  0  0  0  0  0  0  0  0  0
  148.1900  134.4295  156.1115 H   0  0  0  0  0  0  0  0  0  0  0  0
  149.9247  134.2267  156.3269 H   0  0  0  0  0  0  0  0  0  0  0  0
  149.3026  135.1609  154.9678 H   0  0  0  0  0  0  0  0  0  0  0  0
  1  2  1  0  0  0  0
  1 24  1  0  0  0  0
  1 25  1  0  0  0  0
  1 26  1  0  0  0  0
  2 23  1  0  0  0  0
  2  3  1  0  0  0  0
  2 27  1  0  0  0  0
  3  4  1  0  0  0  0
  3 28  1  0  0  0  0
  3 29  1  0  0  0  0
  4  5  1  0  0  0  0
  4 20  1  0  0  0  0
  5  6  1  0  0  0  0
  5 17  1  0  0  0  0
  5 30  1  0  0  0  0
  6  7  2  0  0  0  0
  6  8  1  0  0  0  0
  8  9  1  0  0  0  0
  8 31  1  0  0  0  0
  9 10  1  0  0  0  0
  9 32  1  0  0  0  0
  9 33  1  0  0  0  0
 10 11  1  0  0  0  0
 10 34  1  0  0  0  0
 10 35  1  0  0  0  0
 11 16  1  0  0  0  0
 11 12  2  0  0  0  0
 12 13  1  0  0  0  0
 12 36  1  0  0  0  0
 13 14  2  0  0  0  0
 13 37  1  0  0  0  0
 14 15  1  0  0  0  0
 14 38  1  0  0  0  0
 15 16  2  0  0  0  0
 15 39  1  0  0  0  0
 17 18  1  0  0  0  0
 17 19  1  0  0  0  0
 17 40  1  0  0  0  0
 18 41  1  0  0  0  0
 18 42  1  0  0  0  0
 18 43  1  0  0  0  0
 19 44  1  0  0  0  0
 19 45  1  0  0  0  0
 19 46  1  0  0  0  0
 20 21  1  0  0  0  0
 20 47  1  0  0  0  0
 20 48  1  0  0  0  0
 21 22  1  0  0  0  0
 21 23  1  0  0  0  0
 21 49  1  0  0  0  0
 22 50  1  0  0  0  0
 22 51  1  0  0  0  0
 22 52  1  0  0  0  0
M  END
> <s_m_source_file>
AV-unprocessed.smi

> <i_m_source_file_index>
1762

> <i_lp_mmshare_version>
43012

> <i_f3d_flags>
0

> <s_epik_input>
W0NIM11bQ0BASF0xW0NIMl1OKFtDSDJdW0NASF0oTzEpW0NIM10pW0NAQEhdKFtDSF0oW0NIM10pW0NIM10pQyg9TylbTkhdW0NIMl1bQ0gyXWMyW2NIXVtjSF1bY0hdW2NIXW4y

> <s_epik_cmdline>
J2VwaWtfcHl0aG9uJywgJy1waCcsICc3LjAnLCAnLXRuJywgJzgnLCAnLW1hJywgJzIwMCcsICctbWV0YWxfYmluZGluZycsICctaW1hZScsICc8aW5maWxlLm1hZT4nLCAnLW9tYWUnLCAnPG91dGZpbGUubWFlPic=

> <r_epik_Ionization_Penalty>
0.0399736

> <r_epik_Ionization_Penalty_Charging>
0

> <r_epik_Ionization_Penalty_Neutral>
0.0399736

> <r_epik_State_Penalty>
0.0317634

> <r_epik_Charging_Adjusted_Penalty>
0.0317634

> <i_epik_Tot_Q>
0

> <i_epik_Tot_abs_Q>
0

> <r_epik_Metal_State_Penalty>
0.0307795

> <b_epik_Metal_Only>
0

> <s_lp_Force_Field>
OPLS_2005

> <r_lp_Energy>
28.4472

> <b_lp_Chiralities_Consistent>
1

> <s_lp_Variant>
AV-unprocessed.smi:1762-1

> <Gold.Version>
5.8.1

> <Gold.Id.Protein>
6NUR|6NUR_protein|mol2

> <Gold.PLP.Fitness>
43.7711

> <Gold.PLP.PLP>
-39.0797

> <Gold.PLP.part.hbond>
-2.0000

> <Gold.PLP.part.metal>
0.0000

> <Gold.PLP.part.buried>
-5.4633

> <Gold.PLP.part.nonpolar>
-33.3430

> <Gold.PLP.part.repulsive>
0.5140

> <Gold.PLP.ligand.clash>
0.0000

> <Gold.PLP.ligand.torsion>
2.1374

> <Gold.PLP.Chemscore.Hbond>
1.9033

> <Gold.PLP.Chemscore.CHOScore>
0.9669

> <Gold.PLP.Chemscore.Metal>
0.0000

> <Gold.Chemscore.Hbonds>
donor molecule, donor type, donor heavy atom, donor atom, acceptor molecule, acceptor atom, score
      L1  H     8    31       P1  7948  0.70
      L1  C    15    39       P1 10186  1.00

> <Gold.PLP.Chemscore.Internal.Correction>
0.3557

> <Gold.Rescore>
     Score         DG    S(hbond)    S(metal)    S(lipo)     H(rot)  DE(clash)    DE(int)     intcor
     16.48     -19.23       1.30        0.00     115.38       1.60       0.30       2.45       ----

> <Gold.Chemscore.Fitness>
16.4817

> <Gold.Chemscore.DG>
-19.2297

> <Gold.Chemscore.ZeroCoef>
-5.4800

> <Gold.Chemscore.Hbond>
1.3006

> <Gold.Chemscore.Metal>
0.0000

> <Gold.Chemscore.Lipo>
115.3826

> <Gold.Chemscore.Internal_Hbond>
0.0000

> <Gold.Chemscore.DEClash>
0.3015

> <Gold.Chemscore.DEInternal>
2.4465

> <Gold.Chemscore.Rot>
1.5993

> <Gold.Chemscore.Internal.Correction>
   9.000000E+99

> <Gold.Chemscore.Hbonds>
donor molecule, donor type, donor heavy atom, donor atom, acceptor molecule, acceptor atom, score
      L1  H     8    31       P1  7948  0.67

> <Gold.Chemscore.Hbond.Weighted>
-4.3440

> <Gold.Chemscore.Metal.Weighted>
-0.0000

> <Gold.Chemscore.Lipo.Weighted>
-13.4998

> <Gold.Chemscore.Internal_Hbond.Weighted>
0.0000

> <Gold.Chemscore.DEClash.Weighted>
0.3015

> <Gold.Chemscore.DEInternal.Weighted>
2.4465

> <Gold.Chemscore.Rot.Weighted>
4.0941

> <Gold.Chemscore.Internal.Correction.Weighted>
   9.000000E+99

> <Gold.Protein.RotatedTorsions>
[ 6907 6896 6895 6894 ] final -158.02 input  -60.11 | X-H torsion
[ 7974 7965 7964 7962 ] final   34.84 input  175.53 | X-H torsion
[ 8008 7997 7996 7995 ] final   -0.90 input   59.86 | X-H torsion
[ 10167 10162 10161 10158 ] final  -53.15 input  -65.29 | X-H torsion
[ 10718 10713 10712 10709 ] final  -86.11 input   66.30 | X-H torsion
[ 10763 10752 10751 10750 ] final   81.35 input  -60.55 | X-H torsion
[ 11005 11000 10999 10996 ] final   88.17 input  -57.11 | X-H torsion

> <Gold.Protein.ActiveResidues>
 VAL166  LYS551  ARG553  GLY616  TRP617  ASP618  TYR619  PRO620  LYS621  CYS622 
 ASP623  PHE694  ASN695  SER759  ASP760  ASP761  ALA762  ILE779  LEU786  VAL792 
 PHE793  MET794  SER795  GLU796  ALA797  LYS798  CYS799  TRP800  GLU811  SER814 

> <Gold.Protein.RotatedAtoms>
  151.3118  133.4077  159.2647 H   0  0  0  0  0  0  0  0  0  0  0  0  # atno 6907 bound_to 6896
  151.0108  134.9396  159.8016 H   0  0  0  0  0  0  0  0  0  0  0  0  # atno 6908 bound_to 6896
  152.5300  134.3082  159.9156 H   0  0  0  0  0  0  0  0  0  0  0  0  # atno 6909 bound_to 6896
  146.1325  139.6217  142.9217 H   0  0  0  0  0  0  0  0  0  0  0  0  # atno 7974 bound_to 7965
  154.6528  140.2572  155.7195 H   0  0  0  0  0  0  0  0  0  0  0  0  # atno 8008 bound_to 7997
  156.2583  140.2864  156.0889 H   0  0  0  0  0  0  0  0  0  0  0  0  # atno 8009 bound_to 7997
  155.1425  140.0380  157.2792 H   0  0  0  0  0  0  0  0  0  0  0  0  # atno 8010 bound_to 7997
  140.6500  143.2560  151.4751 H   0  0  0  0  0  0  0  0  0  0  0  0  # atno 10167 bound_to 10162
  155.9992  130.4753  150.4664 H   0  0  0  0  0  0  0  0  0  0  0  0  # atno 10718 bound_to 10713
  153.1110  135.4768  154.9034 H   0  0  0  0  0  0  0  0  0  0  0  0  # atno 10763 bound_to 10752
  154.7480  135.3099  154.8611 H   0  0  0  0  0  0  0  0  0  0  0  0  # atno 10764 bound_to 10752
  153.9201  135.6856  153.4801 H   0  0  0  0  0  0  0  0  0  0  0  0  # atno 10765 bound_to 10752
  139.8902  134.8470  156.2963 H   0  0  0  0  0  0  0  0  0  0  0  0  # atno 11005 bound_to 11000
  145.5230  141.0431  143.2425 LP  0  0  0  0  0  0  0  0  0  0  0  0  # atno 17320 bound_to 7965
  144.7705  139.6746  143.7197 LP  0  0  0  0  0  0  0  0  0  0  0  0  # atno 17321 bound_to 7965
  139.5714  144.1920  152.1841 LP  0  0  0  0  0  0  0  0  0  0  0  0  # atno 17342 bound_to 10162
  140.1217  144.5367  150.6858 LP  0  0  0  0  0  0  0  0  0  0  0  0  # atno 17343 bound_to 10162
  157.2683  131.0581  151.2276 LP  0  0  0  0  0  0  0  0  0  0  0  0  # atno 17370 bound_to 10713
  157.3365  130.7012  149.6356 LP  0  0  0  0  0  0  0  0  0  0  0  0  # atno 17371 bound_to 10713
  140.9943  133.7190  156.0861 LP  0  0  0  0  0  0  0  0  0  0  0  0  # atno 17394 bound_to 11000
  140.7584  134.3967  157.5530 LP  0  0  0  0  0  0  0  0  0  0  0  0  # atno 17395 bound_to 11000

$$$$
