AV-unprocessed.smi:33|AV-procd|sdf|212|dock2
  -GOLD-   2262015513D 1   1.00000     0.00000
 Structure written by MMmdl.
 67 72  0  0  0  0  0  0  0  0  1 V2000
  153.1933  140.5073  159.2957 O   0  0  0  0  0  0  0  0  0  0  0  0
  152.4704  141.3459  158.7538 C   0  0  0  0  0  0  0  0  0  0  0  0
  151.7736  141.1121  157.6247 O   0  0  0  0  0  0  0  0  0  0  0  0
  151.5239  139.7802  157.2071 C   0  0  0  0  0  0  0  0  0  0  0  0
  150.8990  139.8003  155.8070 C   0  0  1  0  0  0  0  0  0  0  0  0
  150.1301  138.6293  155.5788 O   0  0  0  0  0  0  0  0  0  0  0  0
  149.2405  138.8774  154.5354 C   0  0  1  0  0  0  0  0  0  0  0  0
  147.9612  138.1662  154.8327 N   0  0  0  0  0  0  0  0  0  0  0  0
  146.7211  138.7266  155.0443 C   0  0  0  0  0  0  0  0  0  0  0  0
  145.7626  137.8813  155.3120 N   0  0  0  0  0  0  0  0  0  0  0  0
  146.3889  136.6420  155.2746 C   0  0  0  0  0  0  0  0  0  0  0  0
  145.9492  135.3061  155.4778 C   0  0  0  0  0  0  0  0  0  0  0  0
  144.6697  134.9923  155.7910 N   0  0  0  0  0  0  0  0  0  0  0  0
  144.3817  134.6777  157.1977 C   0  0  0  0  0  0  0  0  0  0  0  0
  143.4246  133.9527  157.4755 O   0  0  0  0  0  0  0  0  0  0  0  0
  145.2740  135.1939  158.2909 C   0  0  0  0  0  0  0  0  0  0  0  0
  145.5602  134.3842  159.4119 C   0  0  0  0  0  0  0  0  0  0  0  0
  146.3843  134.8692  160.4460 C   0  0  0  0  0  0  0  0  0  0  0  0
  146.9119  136.1725  160.3748 C   0  0  0  0  0  0  0  0  0  0  0  0
  146.6073  136.9952  159.2736 C   0  0  0  0  0  0  0  0  0  0  0  0
  145.7835  136.5111  158.2393 C   0  0  0  0  0  0  0  0  0  0  0  0
  143.6883  134.9920  154.6954 C   0  0  0  0  0  0  0  0  0  0  0  0
  142.4951  135.1695  154.9495 O   0  0  0  0  0  0  0  0  0  0  0  0
  144.1340  134.8362  153.2687 C   0  0  0  0  0  0  0  0  0  0  0  0
  143.5015  135.5782  152.2470 C   0  0  0  0  0  0  0  0  0  0  0  0
  143.9022  135.4249  150.9056 C   0  0  0  0  0  0  0  0  0  0  0  0
  144.9249  134.5156  150.5747 C   0  0  0  0  0  0  0  0  0  0  0  0
  145.5407  133.7524  151.5847 C   0  0  0  0  0  0  0  0  0  0  0  0
  145.1411  133.9055  152.9264 C   0  0  0  0  0  0  0  0  0  0  0  0
  146.8640  134.3088  155.3613 N   0  0  0  0  0  0  0  0  0  0  0  0
  148.1335  134.6038  155.0675 C   0  0  0  0  0  0  0  0  0  0  0  0
  148.6852  135.8012  154.8589 N   0  0  0  0  0  0  0  0  0  0  0  0
  147.7687  136.8063  154.9722 C   0  0  0  0  0  0  0  0  0  0  0  0
  149.0110  140.3975  154.4614 C   0  0  2  0  0  0  0  0  0  0  0  0
  149.4293  140.9337  153.2223 O   0  0  0  0  0  0  0  0  0  0  0  0
  149.8928  140.9302  155.5828 C   0  0  1  0  0  0  0  0  0  0  0  0
  149.1505  141.1327  156.6729 F   0  0  0  0  0  0  0  0  0  0  0  0
  152.2779  142.7289  159.2782 C   0  0  0  0  0  0  0  0  0  0  0  0
  152.3458  142.9568  160.6727 C   0  0  0  0  0  0  0  0  0  0  0  0
  152.1717  144.2524  161.1970 C   0  0  0  0  0  0  0  0  0  0  0  0
  151.9259  145.3358  160.3337 C   0  0  0  0  0  0  0  0  0  0  0  0
  151.8539  145.1220  158.9448 C   0  0  0  0  0  0  0  0  0  0  0  0
  152.0291  143.8273  158.4184 C   0  0  0  0  0  0  0  0  0  0  0  0
  152.4443  139.1940  157.2033 H   0  0  0  0  0  0  0  0  0  0  0  0
  150.8379  139.3146  157.9158 H   0  0  0  0  0  0  0  0  0  0  0  0
  151.6774  139.8631  155.0442 H   0  0  0  0  0  0  0  0  0  0  0  0
  149.6014  138.4386  153.6038 H   0  0  0  0  0  0  0  0  0  0  0  0
  146.5504  139.7925  155.0030 H   0  0  0  0  0  0  0  0  0  0  0  0
  145.1610  133.3822  159.4772 H   0  0  0  0  0  0  0  0  0  0  0  0
  146.6107  134.2408  161.2948 H   0  0  0  0  0  0  0  0  0  0  0  0
  147.5442  136.5437  161.1678 H   0  0  0  0  0  0  0  0  0  0  0  0
  147.0039  137.9984  159.2227 H   0  0  0  0  0  0  0  0  0  0  0  0
  145.5516  137.1538  157.4020 H   0  0  0  0  0  0  0  0  0  0  0  0
  142.7150  136.2785  152.4890 H   0  0  0  0  0  0  0  0  0  0  0  0
  143.4234  136.0045  150.1302 H   0  0  0  0  0  0  0  0  0  0  0  0
  145.2317  134.3985  149.5458 H   0  0  0  0  0  0  0  0  0  0  0  0
  146.3189  133.0481  151.3304 H   0  0  0  0  0  0  0  0  0  0  0  0
  145.6178  133.3104  153.6923 H   0  0  0  0  0  0  0  0  0  0  0  0
  148.8042  133.7608  154.9911 H   0  0  0  0  0  0  0  0  0  0  0  0
  147.9602  140.6478  154.6178 H   0  0  0  0  0  0  0  0  0  0  0  0
  149.2839  140.2850  152.5505 H   0  0  0  0  0  0  0  0  0  0  0  0
  150.3716  141.8826  155.3520 H   0  0  0  0  0  0  0  0  0  0  0  0
  152.5345  142.1406  161.3552 H   0  0  0  0  0  0  0  0  0  0  0  0
  152.2278  144.4145  162.2633 H   0  0  0  0  0  0  0  0  0  0  0  0
  151.7927  146.3293  160.7359 H   0  0  0  0  0  0  0  0  0  0  0  0
  151.6649  145.9526  158.2808 H   0  0  0  0  0  0  0  0  0  0  0  0
  151.9682  143.6985  157.3477 H   0  0  0  0  0  0  0  0  0  0  0  0
  1  2  2  0  0  0  0
  2  3  1  0  0  0  0
  2 38  1  0  0  0  0
  3  4  1  0  0  0  0
  4  5  1  0  0  0  0
  4 44  1  0  0  0  0
  4 45  1  0  0  0  0
  5 36  1  0  0  0  0
  5  6  1  0  0  0  0
  5 46  1  0  0  0  0
  6  7  1  0  0  0  0
  7  8  1  0  0  0  0
  7 34  1  0  0  0  0
  7 47  1  0  0  0  0
  8 33  1  0  0  0  0
  8  9  1  0  0  0  0
  9 10  2  0  0  0  0
  9 48  1  0  0  0  0
 10 11  1  0  0  0  0
 11 33  2  0  0  0  0
 11 12  1  0  0  0  0
 12 13  1  0  0  0  0
 12 30  2  0  0  0  0
 13 14  1  0  0  0  0
 13 22  1  0  0  0  0
 14 15  2  0  0  0  0
 14 16  1  0  0  0  0
 16 21  1  0  0  0  0
 16 17  2  0  0  0  0
 17 18  1  0  0  0  0
 17 49  1  0  0  0  0
 18 19  2  0  0  0  0
 18 50  1  0  0  0  0
 19 20  1  0  0  0  0
 19 51  1  0  0  0  0
 20 21  2  0  0  0  0
 20 52  1  0  0  0  0
 21 53  1  0  0  0  0
 22 23  2  0  0  0  0
 22 24  1  0  0  0  0
 24 29  1  0  0  0  0
 24 25  2  0  0  0  0
 25 26  1  0  0  0  0
 25 54  1  0  0  0  0
 26 27  2  0  0  0  0
 26 55  1  0  0  0  0
 27 28  1  0  0  0  0
 27 56  1  0  0  0  0
 28 29  2  0  0  0  0
 28 57  1  0  0  0  0
 29 58  1  0  0  0  0
 30 31  1  0  0  0  0
 31 32  2  0  0  0  0
 31 59  1  0  0  0  0
 32 33  1  0  0  0  0
 34 35  1  0  0  0  0
 34 36  1  0  0  0  0
 34 60  1  0  0  0  0
 35 61  1  0  0  0  0
 36 37  1  0  0  0  0
 36 62  1  0  0  0  0
 38 43  1  0  0  0  0
 38 39  2  0  0  0  0
 39 40  1  0  0  0  0
 39 63  1  0  0  0  0
 40 41  2  0  0  0  0
 40 64  1  0  0  0  0
 41 42  1  0  0  0  0
 41 65  1  0  0  0  0
 42 43  2  0  0  0  0
 42 66  1  0  0  0  0
 43 67  1  0  0  0  0
M  END
> <s_m_source_file>
AV-unprocessed.smi

> <i_m_source_file_index>
33

> <i_lp_mmshare_version>
43012

> <i_f3d_flags>
0

> <s_epik_input>
W2NIXTFbY0hdW2NIXVtjSF1bY0hdYzFDKD1PKU9bQ0gyXVtDQEBIXTJPW0NASF0oW0NAQEhdKFtPSF0pW0NAQEhdMkYpbihbY0hdbjMpYyhjMzQpbltjSF1uYzROKEMoPU8pYzVbY0hdW2NIXVtjSF1bY0hdW2NIXTUpQyg9TyljNltjSF1bY0hdW2NIXVtjSF1bY0hdNg==

> <s_epik_cmdline>
J2VwaWtfcHl0aG9uJywgJy1waCcsICc3LjAnLCAnLXRuJywgJzgnLCAnLW1hJywgJzIwMCcsICctbWV0YWxfYmluZGluZycsICctaW1hZScsICc8aW5maWxlLm1hZT4nLCAnLW9tYWUnLCAnPG91dGZpbGUubWFlPic=

> <r_lp_tautomer_probability>
1

> <r_epik_Ionization_Penalty>
0.00067664

> <r_epik_Ionization_Penalty_Charging>
0

> <r_epik_Ionization_Penalty_Neutral>
0.00067664

> <r_epik_State_Penalty>
0.000428095

> <r_epik_Charging_Adjusted_Penalty>
0.000428095

> <i_epik_Tot_Q>
0

> <i_epik_Tot_abs_Q>
0

> <r_epik_Metal_State_Penalty>
-0

> <b_epik_Metal_Only>
0

> <s_epik_Chemistry_Notes>
This compound has an ester and may undergo hydrolysis at high or low pH. This compound contains an acetal/aminal-like group ( X-CH(R)-Y where X, Y are N, S, or O) that may be acid/base labile, releasing an aldehyde.

> <s_lp_Force_Field>
OPLS_2005

> <r_lp_Energy>
68.7921

> <b_lp_Chiralities_Consistent>
1

> <s_lp_Variant>
AV-unprocessed.smi:33-14

> <Gold.Version>
5.8.1

> <Gold.Id.Protein>
6NUR|6NUR_protein|mol2

> <Gold.PLP.Fitness>
62.4722

> <Gold.PLP.PLP>
-57.3325

> <Gold.PLP.part.hbond>
-3.7293

> <Gold.PLP.part.metal>
0.0000

> <Gold.PLP.part.buried>
-8.8342

> <Gold.PLP.part.nonpolar>
-45.7987

> <Gold.PLP.part.repulsive>
0.3512

> <Gold.PLP.ligand.clash>
0.0000

> <Gold.PLP.ligand.torsion>
4.0114

> <Gold.PLP.Chemscore.Hbond>
2.7701

> <Gold.PLP.Chemscore.CHOScore>
0.0000

> <Gold.PLP.Chemscore.Metal>
0.0000

> <Gold.Chemscore.Hbonds>
donor molecule, donor type, donor heavy atom, donor atom, acceptor molecule, acceptor atom, score
      L1  H    35    61       P1  7957  0.62
      P1  H  7989  7998       L1    35  0.12
      P1  H  8011  8017       L1    35  1.00
      P1  H 11000 11005       L1    15  0.42

> <Gold.PLP.Chemscore.Internal.Correction>
4.8520

> <Gold.Rescore>
     Score         DG    S(hbond)    S(metal)    S(lipo)     H(rot)  DE(clash)    DE(int)     intcor
     15.50     -22.25       2.20        0.00     135.70       2.52       0.14       6.60       ----

> <Gold.Chemscore.Fitness>
15.5039

> <Gold.Chemscore.DG>
-22.2507

> <Gold.Chemscore.ZeroCoef>
-5.4800

> <Gold.Chemscore.Hbond>
2.2026

> <Gold.Chemscore.Metal>
0.0000

> <Gold.Chemscore.Lipo>
135.7041

> <Gold.Chemscore.Internal_Hbond>
0.0000

> <Gold.Chemscore.DEClash>
0.1428

> <Gold.Chemscore.DEInternal>
6.6040

> <Gold.Chemscore.Rot>
2.5247

> <Gold.Chemscore.Internal.Correction>
   9.000000E+99

> <Gold.Chemscore.Hbonds>
donor molecule, donor type, donor heavy atom, donor atom, acceptor molecule, acceptor atom, score
      L1  H    35    61       P1  7957  0.61
      P1  H  7989  7998       L1    35  0.02
      P1  H  8011  8017       L1    35  0.45
      P1  H 11000 11005       L1    15  0.43

> <Gold.Chemscore.Hbond.Weighted>
-7.3566

> <Gold.Chemscore.Metal.Weighted>
-0.0000

> <Gold.Chemscore.Lipo.Weighted>
-15.8774

> <Gold.Chemscore.Internal_Hbond.Weighted>
0.0000

> <Gold.Chemscore.DEClash.Weighted>
0.1428

> <Gold.Chemscore.DEInternal.Weighted>
6.6040

> <Gold.Chemscore.Rot.Weighted>
6.4633

> <Gold.Chemscore.Internal.Correction.Weighted>
   9.000000E+99

> <Gold.Protein.RotatedTorsions>
[ 6907 6896 6895 6894 ] final -132.97 input  -60.11 | X-H torsion
[ 7974 7965 7964 7962 ] final  -13.64 input  175.53 | X-H torsion
[ 8008 7997 7996 7995 ] final  -35.34 input   59.86 | X-H torsion
[ 10167 10162 10161 10158 ] final  -56.27 input  -65.29 | X-H torsion
[ 10718 10713 10712 10709 ] final  -86.01 input   66.30 | X-H torsion
[ 10763 10752 10751 10750 ] final   11.75 input  -60.55 | X-H torsion
[ 11005 11000 10999 10996 ] final  -99.46 input  -57.11 | X-H torsion

> <Gold.Protein.ActiveResidues>
 VAL166  LYS551  ARG553  GLY616  TRP617  ASP618  TYR619  PRO620  LYS621  CYS622 
 ASP623  PHE694  ASN695  SER759  ASP760  ASP761  ALA762  ILE779  LEU786  VAL792 
 PHE793  MET794  SER795  GLU796  ALA797  LYS798  CYS799  TRP800  GLU811  SER814 

> <Gold.Protein.RotatedAtoms>
  150.9686  133.6368  159.2741 H   0  0  0  0  0  0  0  0  0  0  0  0  # atno 6907 bound_to 6896
  151.3665  135.0913  159.9461 H   0  0  0  0  0  0  0  0  0  0  0  0  # atno 6908 bound_to 6896
  152.5174  133.9249  159.7607 H   0  0  0  0  0  0  0  0  0  0  0  0  # atno 6909 bound_to 6896
  146.2106  140.3233  142.8392 H   0  0  0  0  0  0  0  0  0  0  0  0  # atno 7974 bound_to 7965
  154.4098  140.1660  156.2196 H   0  0  0  0  0  0  0  0  0  0  0  0  # atno 8008 bound_to 7997
  155.9375  140.3410  155.6276 H   0  0  0  0  0  0  0  0  0  0  0  0  # atno 8009 bound_to 7997
  155.7031  140.0747  157.2393 H   0  0  0  0  0  0  0  0  0  0  0  0  # atno 8010 bound_to 7997
  140.6327  143.2467  151.5199 H   0  0  0  0  0  0  0  0  0  0  0  0  # atno 10167 bound_to 10162
  155.9992  130.4750  150.4649 H   0  0  0  0  0  0  0  0  0  0  0  0  # atno 10718 bound_to 10713
  153.1893  135.6840  153.8374 H   0  0  0  0  0  0  0  0  0  0  0  0  # atno 10763 bound_to 10752
  153.7678  135.3200  155.3348 H   0  0  0  0  0  0  0  0  0  0  0  0  # atno 10764 bound_to 10752
  154.8108  135.4719  154.0608 H   0  0  0  0  0  0  0  0  0  0  0  0  # atno 10765 bound_to 10752
  141.1308  133.8323  157.0974 H   0  0  0  0  0  0  0  0  0  0  0  0  # atno 11005 bound_to 11000
  144.8904  140.7516  143.5930 LP  0  0  0  0  0  0  0  0  0  0  0  0  # atno 17320 bound_to 7965
  145.3155  139.1805  143.4615 LP  0  0  0  0  0  0  0  0  0  0  0  0  # atno 17321 bound_to 7965
  139.5540  144.2324  152.1579 LP  0  0  0  0  0  0  0  0  0  0  0  0  # atno 17342 bound_to 10162
  140.1572  144.5060  150.6653 LP  0  0  0  0  0  0  0  0  0  0  0  0  # atno 17343 bound_to 10162
  157.2669  131.0579  151.2284 LP  0  0  0  0  0  0  0  0  0  0  0  0  # atno 17370 bound_to 10713
  157.3379  130.7018  149.6363 LP  0  0  0  0  0  0  0  0  0  0  0  0  # atno 17371 bound_to 10713
  140.0354  134.9881  157.0861 LP  0  0  0  0  0  0  0  0  0  0  0  0  # atno 17394 bound_to 11000
  140.4218  134.1872  155.7165 LP  0  0  0  0  0  0  0  0  0  0  0  0  # atno 17395 bound_to 11000

$$$$
