AV-unprocessed.smi:1718|AV-procd|sdf|6923|dock7
  -GOLD-   22720 8133D 1   1.00000     0.00000
 Structure written by MMmdl.
 40 41  0  0  0  0  0  0  0  0  1 V2000
  152.1649  136.8721  156.3381 C   0  0  0  0  0  0  0  0  0  0  0  0
  152.0545  137.2904  157.8120 C   0  0  1  0  0  0  0  0  0  0  0  0
  153.3776  137.3614  158.3369 O   0  0  0  0  0  0  0  0  0  0  0  0
  153.4701  137.6201  159.7334 C   0  0  0  0  0  0  0  0  0  0  0  0
  154.5813  138.6493  159.9713 C   0  0  2  0  0  0  0  0  0  0  0  0
  154.5383  139.3141  161.3446 C   0  0  0  0  0  0  0  0  0  0  0  0
  155.3250  140.5798  161.0891 C   0  0  0  0  0  0  0  0  0  0  0  0
  154.9104  140.9409  159.6630 C   0  0  0  0  0  0  0  0  0  0  0  0
  154.4655  139.7306  159.0530 O   0  0  0  0  0  0  0  0  0  0  0  0
  151.3472  138.6477  157.9602 C   0  0  0  0  0  0  0  0  0  0  0  0
  150.2146  138.6911  158.4402 O   0  0  0  0  0  0  0  0  0  0  0  0
  152.0525  139.7162  157.5390 N   0  0  0  0  0  0  0  0  0  0  0  0
  151.6755  141.0686  157.4871 C   0  0  0  0  0  0  0  0  0  0  0  0
  151.9225  141.9810  158.4633 C   0  0  0  0  0  0  0  0  0  0  0  0
  151.4893  143.3639  158.3543 C   0  0  0  0  0  0  0  0  0  0  0  0
  151.8417  144.3941  159.4161 C   0  0  0  0  0  0  0  0  0  0  0  0
  152.6460  143.8762  160.3455 F   0  0  0  0  0  0  0  0  0  0  0  0
  152.4679  145.4269  158.8538 F   0  0  0  0  0  0  0  0  0  0  0  0
  150.7452  144.8529  160.0201 F   0  0  0  0  0  0  0  0  0  0  0  0
  150.8339  143.7006  157.2280 C   0  0  0  0  0  0  0  0  0  0  0  0
  150.5558  142.7636  156.2303 N   0  0  0  0  0  0  0  0  0  0  0  0
  150.9287  141.4652  156.2819 C   0  0  0  0  0  0  0  0  0  0  0  0
  150.6430  140.6999  155.3616 O   0  0  0  0  0  0  0  0  0  0  0  0
  150.0444  143.0907  155.4232 H   0  0  0  0  0  0  0  0  0  0  0  0
  151.1821  136.8092  155.8693 H   0  0  0  0  0  0  0  0  0  0  0  0
  152.6351  135.8924  156.2495 H   0  0  0  0  0  0  0  0  0  0  0  0
  152.7669  137.5773  155.7638 H   0  0  0  0  0  0  0  0  0  0  0  0
  151.4955  136.5183  158.3446 H   0  0  0  0  0  0  0  0  0  0  0  0
  152.5281  138.0169  160.1131 H   0  0  0  0  0  0  0  0  0  0  0  0
  153.6815  136.7004  160.2809 H   0  0  0  0  0  0  0  0  0  0  0  0
  155.5582  138.1874  159.8179 H   0  0  0  0  0  0  0  0  0  0  0  0
  153.5125  139.5604  161.6229 H   0  0  0  0  0  0  0  0  0  0  0  0
  154.9686  138.6936  162.1312 H   0  0  0  0  0  0  0  0  0  0  0  0
  155.1119  141.3708  161.8086 H   0  0  0  0  0  0  0  0  0  0  0  0
  156.3939  140.3650  161.1256 H   0  0  0  0  0  0  0  0  0  0  0  0
  154.0829  141.6508  159.6691 H   0  0  0  0  0  0  0  0  0  0  0  0
  155.7321  141.3856  159.1012 H   0  0  0  0  0  0  0  0  0  0  0  0
  152.9999  139.5337  157.2396 H   0  0  0  0  0  0  0  0  0  0  0  0
  152.4325  141.6997  159.3701 H   0  0  0  0  0  0  0  0  0  0  0  0
  150.4809  144.6965  157.0041 H   0  0  0  0  0  0  0  0  0  0  0  0
  1  2  1  0  0  0  0
  1 25  1  0  0  0  0
  1 26  1  0  0  0  0
  1 27  1  0  0  0  0
  2  3  1  0  0  0  0
  2 10  1  0  0  0  0
  2 28  1  0  0  0  0
  3  4  1  0  0  0  0
  4  5  1  0  0  0  0
  4 29  1  0  0  0  0
  4 30  1  0  0  0  0
  5  9  1  0  0  0  0
  5  6  1  0  0  0  0
  5 31  1  0  0  0  0
  6  7  1  0  0  0  0
  6 32  1  0  0  0  0
  6 33  1  0  0  0  0
  7  8  1  0  0  0  0
  7 34  1  0  0  0  0
  7 35  1  0  0  0  0
  8  9  1  0  0  0  0
  8 36  1  0  0  0  0
  8 37  1  0  0  0  0
 10 11  2  0  0  0  0
 10 12  1  0  0  0  0
 12 13  1  0  0  0  0
 12 38  1  0  0  0  0
 13 22  1  0  0  0  0
 13 14  2  0  0  0  0
 14 15  1  0  0  0  0
 14 39  1  0  0  0  0
 15 16  1  0  0  0  0
 15 20  2  0  0  0  0
 16 17  1  0  0  0  0
 16 18  1  0  0  0  0
 16 19  1  0  0  0  0
 20 21  1  0  0  0  0
 20 40  1  0  0  0  0
 21 24  1  0  0  0  0
 21 22  1  0  0  0  0
 22 23  2  0  0  0  0
M  END
> <s_m_source_file>
AV-unprocessed.smi

> <i_m_source_file_index>
1718

> <i_lp_mmshare_version>
43012

> <i_f3d_flags>
0

> <s_epik_input>
TzFbQ0gyXVtDSDJdW0NIMl1bQ0BIXTFbQ0gyXU9bQ0BASF0oW0NIM10pQyg9TylbTkhdYzJbY0hdYyhDKEYpKEYpRilbY0hdW25IXWMyPU8=

> <s_epik_cmdline>
J2VwaWtfcHl0aG9uJywgJy1waCcsICc3LjAnLCAnLXRuJywgJzgnLCAnLW1hJywgJzIwMCcsICctbWV0YWxfYmluZGluZycsICctaW1hZScsICc8aW5maWxlLm1hZT4nLCAnLW9tYWUnLCAnPG91dGZpbGUubWFlPic=

> <r_lp_tautomer_probability>
0.999

> <r_epik_Ionization_Penalty>
0.00894336

> <r_epik_Ionization_Penalty_Charging>
0.00894326

> <r_epik_Ionization_Penalty_Neutral>
1.00145e-07

> <r_epik_State_Penalty>
0.00676626

> <r_epik_Charging_Adjusted_Penalty>
0.0157095

> <i_epik_Tot_Q>
0

> <i_epik_Tot_abs_Q>
0

> <r_epik_Metal_State_Penalty>
0.321145

> <b_epik_Metal_Only>
0

> <s_lp_Force_Field>
OPLS_2005

> <r_lp_Energy>
34.2201

> <b_lp_Chiralities_Consistent>
1

> <s_lp_Variant>
AV-unprocessed.smi:1718-2

> <Gold.Version>
5.8.1

> <Gold.Id.Protein>
6NUR|6NUR_protein|mol2

> <Gold.PLP.Fitness>
42.3503

> <Gold.PLP.PLP>
-36.6747

> <Gold.PLP.part.hbond>
-3.0000

> <Gold.PLP.part.metal>
0.0000

> <Gold.PLP.part.buried>
-0.4960

> <Gold.PLP.part.nonpolar>
-31.4130

> <Gold.PLP.part.repulsive>
0.2526

> <Gold.PLP.ligand.clash>
0.0000

> <Gold.PLP.ligand.torsion>
1.5237

> <Gold.PLP.Chemscore.Hbond>
2.1764

> <Gold.PLP.Chemscore.CHOScore>
0.6909

> <Gold.PLP.Chemscore.Metal>
0.0000

> <Gold.Chemscore.Hbonds>
donor molecule, donor type, donor heavy atom, donor atom, acceptor molecule, acceptor atom, score
      L1  H    21    24       P1  8028  0.35
      P1  H  7989  7998       L1    23  0.70
      P1  H  7997  8010       L1     9  1.00
      L1  C    20    40       P1  8028  0.70

> <Gold.PLP.Chemscore.Internal.Correction>
0.1210

> <Gold.Rescore>
     Score         DG    S(hbond)    S(metal)    S(lipo)     H(rot)  DE(clash)    DE(int)     intcor
     15.65     -17.59       1.90        0.00      90.27       1.88       0.48       1.46       ----

> <Gold.Chemscore.Fitness>
15.6488

> <Gold.Chemscore.DG>
-17.5934

> <Gold.Chemscore.ZeroCoef>
-5.4800

> <Gold.Chemscore.Hbond>
1.9048

> <Gold.Chemscore.Metal>
0.0000

> <Gold.Chemscore.Lipo>
90.2686

> <Gold.Chemscore.Internal_Hbond>
0.0000

> <Gold.Chemscore.DEClash>
0.4847

> <Gold.Chemscore.DEInternal>
1.4599

> <Gold.Chemscore.Rot>
1.8790

> <Gold.Chemscore.Internal.Correction>
   9.000000E+99

> <Gold.Chemscore.Hbonds>
donor molecule, donor type, donor heavy atom, donor atom, acceptor molecule, acceptor atom, score
      L1  H    21    24       P1  8028  0.34
      P1  H  7989  7998       L1    23  0.66
      P1  H  7997  8010       L1     9  0.25

> <Gold.Chemscore.Hbond.Weighted>
-6.3621

> <Gold.Chemscore.Metal.Weighted>
-0.0000

> <Gold.Chemscore.Lipo.Weighted>
-10.5614

> <Gold.Chemscore.Internal_Hbond.Weighted>
0.0000

> <Gold.Chemscore.DEClash.Weighted>
0.4847

> <Gold.Chemscore.DEInternal.Weighted>
1.4599

> <Gold.Chemscore.Rot.Weighted>
4.8102

> <Gold.Chemscore.Internal.Correction.Weighted>
   9.000000E+99

> <Gold.Protein.RotatedTorsions>
[ 6907 6896 6895 6894 ] final  131.45 input  -60.11 | X-H torsion
[ 7974 7965 7964 7962 ] final   85.96 input  175.53 | X-H torsion
[ 8008 7997 7996 7995 ] final    4.46 input   59.86 | X-H torsion
[ 10167 10162 10161 10158 ] final  176.63 input  -65.29 | X-H torsion
[ 10718 10713 10712 10709 ] final  171.72 input   66.30 | X-H torsion
[ 10763 10752 10751 10750 ] final  -29.48 input  -60.55 | X-H torsion
[ 11005 11000 10999 10996 ] final   48.89 input  -57.11 | X-H torsion

> <Gold.Protein.ActiveResidues>
 VAL166  LYS551  ARG553  GLY616  TRP617  ASP618  TYR619  PRO620  LYS621  CYS622 
 ASP623  PHE694  ASN695  SER759  ASP760  ASP761  ALA762  ILE779  LEU786  VAL792 
 PHE793  MET794  SER795  GLU796  ALA797  LYS798  CYS799  TRP800  GLU811  SER814 

> <Gold.Protein.RotatedAtoms>
  152.3425  133.6083  159.5886 H   0  0  0  0  0  0  0  0  0  0  0  0  # atno 6907 bound_to 6896
  150.7487  133.9701  159.3552 H   0  0  0  0  0  0  0  0  0  0  0  0  # atno 6908 bound_to 6896
  151.7563  135.0821  160.0390 H   0  0  0  0  0  0  0  0  0  0  0  0  # atno 6909 bound_to 6896
  145.5786  139.2322  143.2366 H   0  0  0  0  0  0  0  0  0  0  0  0  # atno 7974 bound_to 7965
  154.7161  140.2702  155.6584 H   0  0  0  0  0  0  0  0  0  0  0  0  # atno 8008 bound_to 7997
  156.2810  140.2743  156.1743 H   0  0  0  0  0  0  0  0  0  0  0  0  # atno 8009 bound_to 7997
  155.0569  140.0371  157.2553 H   0  0  0  0  0  0  0  0  0  0  0  0  # atno 8010 bound_to 7997
  139.5222  144.2893  152.0478 H   0  0  0  0  0  0  0  0  0  0  0  0  # atno 10167 bound_to 10162
  156.9894  131.0143  151.2861 H   0  0  0  0  0  0  0  0  0  0  0  0  # atno 10718 bound_to 10713
  153.7653  135.6916  153.4917 H   0  0  0  0  0  0  0  0  0  0  0  0  # atno 10763 bound_to 10752
  153.1911  135.4471  155.0148 H   0  0  0  0  0  0  0  0  0  0  0  0  # atno 10764 bound_to 10752
  154.8138  135.3389  154.7166 H   0  0  0  0  0  0  0  0  0  0  0  0  # atno 10765 bound_to 10752
  140.1151  134.4903  155.8644 H   0  0  0  0  0  0  0  0  0  0  0  0  # atno 11005 bound_to 11000
  146.1733  140.6612  142.9223 LP  0  0  0  0  0  0  0  0  0  0  0  0  # atno 17320 bound_to 7965
  144.7404  140.4927  143.6873 LP  0  0  0  0  0  0  0  0  0  0  0  0  # atno 17321 bound_to 7965
  140.2344  144.4334  150.6286 LP  0  0  0  0  0  0  0  0  0  0  0  0  # atno 17342 bound_to 10162
  140.6333  143.2191  151.6449 LP  0  0  0  0  0  0  0  0  0  0  0  0  # atno 17343 bound_to 10162
  157.5469  130.8157  149.8097 LP  0  0  0  0  0  0  0  0  0  0  0  0  # atno 17370 bound_to 10713
  156.0213  130.3794  150.1954 LP  0  0  0  0  0  0  0  0  0  0  0  0  # atno 17371 bound_to 10713
  141.2139  133.6740  156.6780 LP  0  0  0  0  0  0  0  0  0  0  0  0  # atno 17394 bound_to 11000
  140.3039  134.8141  157.4121 LP  0  0  0  0  0  0  0  0  0  0  0  0  # atno 17395 bound_to 11000

$$$$
