AV-unprocessed.smi:527|AV-procd|sdf|2818|dock5
  -GOLD-   2262023303D 1   1.00000     0.00000
 Structure written by MMmdl.
 42 43  0  0  0  0  0  0  0  0  1 V2000
  150.1048  140.8665  156.7814 C   0  0  0  0  0  0  0  0  0  0  0  0
  150.6926  140.4984  155.4034 C   0  0  1  0  0  0  0  0  0  0  0  0
  151.9449  139.6087  155.5408 C   0  0  0  0  0  0  0  0  0  0  0  0
  151.5952  138.1750  155.9696 C   0  0  0  0  0  0  0  0  0  0  0  0
  150.5840  137.5388  155.0062 C   0  0  0  0  0  0  0  0  0  0  0  0
  149.3146  138.4019  154.8507 C   0  0  2  0  0  0  0  0  0  0  0  0
  148.4242  137.7876  153.8674 N   0  0  0  0  0  0  0  0  0  0  0  0
  147.1348  137.4796  154.0728 C   0  0  0  0  0  0  0  0  0  0  0  0
  146.5642  137.6403  155.1540 O   0  0  0  0  0  0  0  0  0  0  0  0
  146.5726  136.9832  152.9536 N   0  0  0  0  0  0  0  0  0  0  0  0
  145.3193  136.5075  152.8043 C   0  0  0  0  0  0  0  0  0  0  0  0
  144.4736  136.4555  153.7014 O   0  0  0  0  0  0  0  0  0  0  0  0
  144.9850  136.0154  151.3897 C   0  0  0  0  0  0  0  0  0  0  0  0
  145.2002  134.5885  151.2166 N   0  0  0  0  0  0  0  0  0  0  0  0
  146.3948  133.8959  151.3677 C   0  0  0  0  0  0  0  0  0  0  0  0
  146.1175  132.5725  151.1095 C   0  0  0  0  0  0  0  0  0  0  0  0
  144.7676  132.4283  150.7978 N   0  0  0  0  0  0  0  0  0  0  0  0
  144.2895  133.6630  150.8828 C   0  0  0  0  0  0  0  0  0  0  0  0
  149.6725  139.8507  154.4288 C   0  0  1  0  0  0  0  0  0  0  0  0
  148.4307  140.7365  154.2044 C   0  0  0  0  0  0  0  0  0  0  0  0
  149.6931  140.0009  157.2991 H   0  0  0  0  0  0  0  0  0  0  0  0
  149.3106  141.6076  156.6933 H   0  0  0  0  0  0  0  0  0  0  0  0
  150.8702  141.2990  157.4261 H   0  0  0  0  0  0  0  0  0  0  0  0
  151.0223  141.4359  154.9535 H   0  0  0  0  0  0  0  0  0  0  0  0
  152.4674  139.5747  154.5839 H   0  0  0  0  0  0  0  0  0  0  0  0
  152.6461  140.0495  156.2504 H   0  0  0  0  0  0  0  0  0  0  0  0
  152.5010  137.5690  156.0056 H   0  0  0  0  0  0  0  0  0  0  0  0
  151.1894  138.1752  156.9814 H   0  0  0  0  0  0  0  0  0  0  0  0
  151.0564  137.4007  154.0325 H   0  0  0  0  0  0  0  0  0  0  0  0
  150.3202  136.5425  155.3633 H   0  0  0  0  0  0  0  0  0  0  0  0
  148.7992  138.4437  155.8117 H   0  0  0  0  0  0  0  0  0  0  0  0
  148.8224  137.5904  152.9610 H   0  0  0  0  0  0  0  0  0  0  0  0
  147.1560  136.9657  152.1304 H   0  0  0  0  0  0  0  0  0  0  0  0
  143.9422  136.2422  151.1637 H   0  0  0  0  0  0  0  0  0  0  0  0
  145.5975  136.5505  150.6629 H   0  0  0  0  0  0  0  0  0  0  0  0
  147.3172  134.3872  151.6409 H   0  0  0  0  0  0  0  0  0  0  0  0
  146.7801  131.7197  151.1246 H   0  0  0  0  0  0  0  0  0  0  0  0
  143.2514  133.8996  150.7002 H   0  0  0  0  0  0  0  0  0  0  0  0
  150.1740  139.7847  153.4617 H   0  0  0  0  0  0  0  0  0  0  0  0
  147.7904  140.7617  155.0863 H   0  0  0  0  0  0  0  0  0  0  0  0
  147.8259  140.3742  153.3732 H   0  0  0  0  0  0  0  0  0  0  0  0
  148.7171  141.7617  153.9686 H   0  0  0  0  0  0  0  0  0  0  0  0
  1  2  1  0  0  0  0
  1 21  1  0  0  0  0
  1 22  1  0  0  0  0
  1 23  1  0  0  0  0
  2 19  1  0  0  0  0
  2  3  1  0  0  0  0
  2 24  1  0  0  0  0
  3  4  1  0  0  0  0
  3 25  1  0  0  0  0
  3 26  1  0  0  0  0
  4  5  1  0  0  0  0
  4 27  1  0  0  0  0
  4 28  1  0  0  0  0
  5  6  1  0  0  0  0
  5 29  1  0  0  0  0
  5 30  1  0  0  0  0
  6  7  1  0  0  0  0
  6 19  1  0  0  0  0
  6 31  1  0  0  0  0
  7  8  1  0  0  0  0
  7 32  1  0  0  0  0
  8  9  2  0  0  0  0
  8 10  1  0  0  0  0
 10 11  1  0  0  0  0
 10 33  1  0  0  0  0
 11 12  2  0  0  0  0
 11 13  1  0  0  0  0
 13 14  1  0  0  0  0
 13 34  1  0  0  0  0
 13 35  1  0  0  0  0
 14 18  1  0  0  0  0
 14 15  1  0  0  0  0
 15 16  2  0  0  0  0
 15 36  1  0  0  0  0
 16 17  1  0  0  0  0
 16 37  1  0  0  0  0
 17 18  2  0  0  0  0
 18 38  1  0  0  0  0
 19 20  1  0  0  0  0
 19 39  1  0  0  0  0
 20 40  1  0  0  0  0
 20 41  1  0  0  0  0
 20 42  1  0  0  0  0
M  END
> <s_m_source_file>
AV-unprocessed.smi

> <i_m_source_file_index>
527

> <i_lp_mmshare_version>
43012

> <i_f3d_flags>
0

> <s_epik_input>
W0NIM11bQ0BASF0xW0NIMl1bQ0gyXVtDSDJdW0NASF0oW0NASF0xW0NIM10pW05IXUMoPU8pW05IXUMoPU8pW0NIMl1uMltjSF1bY0hdbltjSF0y

> <s_epik_cmdline>
J2VwaWtfcHl0aG9uJywgJy1waCcsICc3LjAnLCAnLXRuJywgJzgnLCAnLW1hJywgJzIwMCcsICctbWV0YWxfYmluZGluZycsICctaW1hZScsICc8aW5maWxlLm1hZT4nLCAnLW9tYWUnLCAnPG91dGZpbGUubWFlPic=

> <r_lp_tautomer_probability>
1

> <r_epik_Ionization_Penalty>
0.172132

> <r_epik_Ionization_Penalty_Charging>
0.172105

> <r_epik_Ionization_Penalty_Neutral>
2.71747e-05

> <r_epik_State_Penalty>
0.161503

> <r_epik_Charging_Adjusted_Penalty>
0.333607

> <i_epik_Tot_Q>
0

> <i_epik_Tot_abs_Q>
0

> <r_epik_Metal_State_Penalty>
0.124763

> <b_epik_Metal_Only>
0

> <s_lp_Force_Field>
OPLS_2005

> <r_lp_Energy>
17.6389

> <b_lp_Chiralities_Consistent>
1

> <s_lp_Variant>
AV-unprocessed.smi:527-4

> <Gold.Version>
5.8.1

> <Gold.Id.Protein>
6NUR|6NUR_protein|mol2

> <Gold.PLP.Fitness>
43.7554

> <Gold.PLP.PLP>
-31.3663

> <Gold.PLP.part.hbond>
-2.0000

> <Gold.PLP.part.metal>
0.0000

> <Gold.PLP.part.buried>
-1.3996

> <Gold.PLP.part.nonpolar>
-28.1575

> <Gold.PLP.part.repulsive>
0.2915

> <Gold.PLP.ligand.clash>
0.0000

> <Gold.PLP.ligand.torsion>
0.4222

> <Gold.PLP.Chemscore.Hbond>
1.4080

> <Gold.PLP.Chemscore.CHOScore>
2.9984

> <Gold.PLP.Chemscore.Metal>
0.0000

> <Gold.Chemscore.Hbonds>
donor molecule, donor type, donor heavy atom, donor atom, acceptor molecule, acceptor atom, score
      L1  H     7    32       P1  7948  0.78
      L1  H    10    33       P1  7948  0.64
      L1  C    15    36       P1  7948  1.00
      L1  C    16    37       P1 10747  1.00
      L1  C    18    38       P1 10186  0.90

> <Gold.PLP.Chemscore.Internal.Correction>
0.0142

> <Gold.Rescore>
     Score         DG    S(hbond)    S(metal)    S(lipo)     H(rot)  DE(clash)    DE(int)     intcor
     13.19     -14.97       1.82        0.00      65.61       1.66       0.06       1.72       ----

> <Gold.Chemscore.Fitness>
13.1856

> <Gold.Chemscore.DG>
-14.9696

> <Gold.Chemscore.ZeroCoef>
-5.4800

> <Gold.Chemscore.Hbond>
1.8175

> <Gold.Chemscore.Metal>
0.0000

> <Gold.Chemscore.Lipo>
65.6084

> <Gold.Chemscore.Internal_Hbond>
0.0000

> <Gold.Chemscore.DEClash>
0.0593

> <Gold.Chemscore.DEInternal>
1.7247

> <Gold.Chemscore.Rot>
1.6629

> <Gold.Chemscore.Internal.Correction>
   9.000000E+99

> <Gold.Chemscore.Hbonds>
donor molecule, donor type, donor heavy atom, donor atom, acceptor molecule, acceptor atom, score
      L1  H     7    32       P1  7948  0.80
      L1  H    10    33       P1  7948  0.63

> <Gold.Chemscore.Hbond.Weighted>
-6.0703

> <Gold.Chemscore.Metal.Weighted>
-0.0000

> <Gold.Chemscore.Lipo.Weighted>
-7.6762

> <Gold.Chemscore.Internal_Hbond.Weighted>
0.0000

> <Gold.Chemscore.DEClash.Weighted>
0.0593

> <Gold.Chemscore.DEInternal.Weighted>
1.7247

> <Gold.Chemscore.Rot.Weighted>
4.2569

> <Gold.Chemscore.Internal.Correction.Weighted>
   9.000000E+99

> <Gold.Protein.RotatedTorsions>
[ 6907 6896 6895 6894 ] final -172.35 input  -60.11 | X-H torsion
[ 7974 7965 7964 7962 ] final -102.10 input  175.53 | X-H torsion
[ 8008 7997 7996 7995 ] final   -6.40 input   59.86 | X-H torsion
[ 10167 10162 10161 10158 ] final  -27.30 input  -65.29 | X-H torsion
[ 10718 10713 10712 10709 ] final  -40.73 input   66.30 | X-H torsion
[ 10763 10752 10751 10750 ] final -138.87 input  -60.55 | X-H torsion
[ 11005 11000 10999 10996 ] final   56.84 input  -57.11 | X-H torsion

> <Gold.Protein.ActiveResidues>
 VAL166  LYS551  ARG553  GLY616  TRP617  ASP618  TYR619  PRO620  LYS621  CYS622 
 ASP623  PHE694  ASN695  SER759  ASP760  ASP761  ALA762  ILE779  LEU786  VAL792 
 PHE793  MET794  SER795  GLU796  ALA797  LYS798  CYS799  TRP800  GLU811  SER814 

> <Gold.Protein.RotatedAtoms>
  151.5386  133.3436  159.2931 H   0  0  0  0  0  0  0  0  0  0  0  0  # atno 6907 bound_to 6896
  150.8549  134.7888  159.7049 H   0  0  0  0  0  0  0  0  0  0  0  0  # atno 6908 bound_to 6896
  152.4585  134.5245  159.9844 H   0  0  0  0  0  0  0  0  0  0  0  0  # atno 6909 bound_to 6896
  145.2731  140.9304  143.2975 H   0  0  0  0  0  0  0  0  0  0  0  0  # atno 7974 bound_to 7965
  154.5942  140.2434  155.7880 H   0  0  0  0  0  0  0  0  0  0  0  0  # atno 8008 bound_to 7997
  156.2268  140.2980  156.0040 H   0  0  0  0  0  0  0  0  0  0  0  0  # atno 8009 bound_to 7997
  155.2322  140.0404  157.2954 H   0  0  0  0  0  0  0  0  0  0  0  0  # atno 8010 bound_to 7997
  140.7278  143.4105  151.1114 H   0  0  0  0  0  0  0  0  0  0  0  0  # atno 10167 bound_to 10162
  156.2781  130.4214  149.8366 H   0  0  0  0  0  0  0  0  0  0  0  0  # atno 10718 bound_to 10713
  154.8625  135.3599  154.5455 H   0  0  0  0  0  0  0  0  0  0  0  0  # atno 10763 bound_to 10752
  153.6075  135.7010  153.5365 H   0  0  0  0  0  0  0  0  0  0  0  0  # atno 10764 bound_to 10752
  153.3238  135.4144  155.1400 H   0  0  0  0  0  0  0  0  0  0  0  0  # atno 10765 bound_to 10752
  140.0498  134.5753  155.9278 H   0  0  0  0  0  0  0  0  0  0  0  0  # atno 11005 bound_to 11000
  144.9318  139.4290  143.6491 LP  0  0  0  0  0  0  0  0  0  0  0  0  # atno 17320 bound_to 7965
  146.3240  139.8232  142.8922 LP  0  0  0  0  0  0  0  0  0  0  0  0  # atno 17321 bound_to 7965
  139.7737  143.8456  152.3125 LP  0  0  0  0  0  0  0  0  0  0  0  0  # atno 17342 bound_to 10162
  139.8383  144.7222  150.9363 LP  0  0  0  0  0  0  0  0  0  0  0  0  # atno 17343 bound_to 10162
  156.5824  130.8471  151.3386 LP  0  0  0  0  0  0  0  0  0  0  0  0  # atno 17370 bound_to 10713
  157.7305  130.9687  150.1838 LP  0  0  0  0  0  0  0  0  0  0  0  0  # atno 17371 bound_to 10713
  141.1925  133.6575  156.5503 LP  0  0  0  0  0  0  0  0  0  0  0  0  # atno 17394 bound_to 11000
  140.3936  134.7419  157.4736 LP  0  0  0  0  0  0  0  0  0  0  0  0  # atno 17395 bound_to 11000

$$$$
