AV-unprocessed.smi:54|AV-procd|sdf|554|dock9
  -GOLD-   2262016453D 1   1.00000     0.00000
 Structure written by MMmdl.
 43 45  0  0  0  0  0  0  0  0  2 V2000
  146.3463  136.9657  162.1541 C   0  0  0  0  0  0  0  0  0  0  0  0
  146.9344  135.8079  161.3310 C   0  0  0  0  0  0  0  0  0  0  0  0
  147.3911  134.6537  162.2387 C   0  0  0  0  0  0  0  0  0  0  0  0
  148.0916  136.3017  160.4508 C   0  0  0  0  0  0  0  0  0  0  0  0
  149.0382  136.8890  160.9793 O   0  0  0  0  0  0  0  0  0  0  0  0
  147.9582  136.0513  159.1294 N   0  0  0  0  0  0  0  0  0  0  0  0
  148.8179  136.3791  158.0744 C   0  0  0  0  0  0  0  0  0  0  0  0
  148.2748  137.1976  157.2059 N   0  0  0  0  0  0  0  0  0  0  0  0
  149.1213  137.4972  156.1553 C   0  0  0  0  0  0  0  0  0  0  0  0
  150.3969  137.0473  155.9542 C   0  0  0  0  0  0  0  0  0  0  0  0
  150.9468  137.5826  154.7962 N   0  0  0  0  0  0  0  0  0  0  0  0
  149.9534  138.3459  154.3434 C   0  0  0  0  0  0  0  0  0  0  0  0
  148.8233  138.3314  155.0823 N   0  0  0  0  0  0  0  0  0  0  0  0
  147.5502  139.0980  154.8607 C   0  0  1  0  0  0  0  0  0  0  0  0
  147.2275  139.7950  156.0241 O   0  0  0  0  0  0  0  0  0  0  0  0
  147.8620  141.0673  155.9998 C   0  0  2  0  0  0  0  0  0  0  0  0
  147.1574  142.0240  156.9737 C   0  0  0  0  0  0  0  0  0  0  0  0
  148.0979  142.8975  157.5610 O   0  0  0  0  0  0  0  0  0  0  0  0
  147.7239  141.4800  154.5294 C   0  0  1  0  0  0  0  0  0  0  0  0
  148.8224  142.2855  154.1519 O   0  0  0  0  0  0  0  0  0  0  0  0
  147.7386  140.1575  153.7595 C   0  0  2  0  0  0  0  0  0  0  0  0
  146.6817  140.1139  152.8226 O   0  0  0  0  0  0  0  0  0  0  0  0
  150.9479  136.1194  156.9695 C   0  0  0  0  0  0  0  0  0  0  0  0
  152.0903  135.6873  156.8287 O   0  0  0  0  0  0  0  0  0  0  0  0
  150.1083  135.8163  158.0043 N   0  5  0  0  0  0  0  0  0  0  0  0
  146.8151  138.3253  154.6320 H   0  0  0  0  0  0  0  0  0  0  0  0
  148.9172  140.9581  156.2579 H   0  0  0  0  0  0  0  0  0  0  0  0
  146.7881  142.0184  154.3698 H   0  0  0  0  0  0  0  0  0  0  0  0
  148.6827  139.9996  153.2357 H   0  0  0  0  0  0  0  0  0  0  0  0
  146.0243  137.7855  161.5106 H   0  0  0  0  0  0  0  0  0  0  0  0
  147.0730  137.3646  162.8631 H   0  0  0  0  0  0  0  0  0  0  0  0
  145.4769  136.6362  162.7235 H   0  0  0  0  0  0  0  0  0  0  0  0
  146.1455  135.4263  160.6806 H   0  0  0  0  0  0  0  0  0  0  0  0
  147.8217  133.8379  161.6565 H   0  0  0  0  0  0  0  0  0  0  0  0
  146.5510  134.2453  162.8012 H   0  0  0  0  0  0  0  0  0  0  0  0
  148.1418  134.9815  162.9591 H   0  0  0  0  0  0  0  0  0  0  0  0
  147.0860  135.6151  158.8694 H   0  0  0  0  0  0  0  0  0  0  0  0
  150.0578  138.9346  153.4442 H   0  0  0  0  0  0  0  0  0  0  0  0
  146.4329  142.6378  156.4375 H   0  0  0  0  0  0  0  0  0  0  0  0
  146.6123  141.4777  157.7439 H   0  0  0  0  0  0  0  0  0  0  0  0
  148.5054  143.4049  156.8756 H   0  0  0  0  0  0  0  0  0  0  0  0
  148.6566  143.1707  154.4388 H   0  0  0  0  0  0  0  0  0  0  0  0
  145.8834  140.3654  153.2607 H   0  0  0  0  0  0  0  0  0  0  0  0
  1  2  1  0  0  0  0
  1 30  1  0  0  0  0
  1 31  1  0  0  0  0
  1 32  1  0  0  0  0
  2  3  1  0  0  0  0
  2  4  1  0  0  0  0
  2 33  1  0  0  0  0
  3 34  1  0  0  0  0
  3 35  1  0  0  0  0
  3 36  1  0  0  0  0
  4  5  2  0  0  0  0
  4  6  1  0  0  0  0
  6 37  1  0  0  0  0
  6  7  1  0  0  0  0
  7 25  1  0  0  0  0
  7  8  2  0  0  0  0
  8  9  1  0  0  0  0
  9 13  1  0  0  0  0
  9 10  2  0  0  0  0
 10 11  1  0  0  0  0
 10 23  1  0  0  0  0
 11 12  2  0  0  0  0
 12 13  1  0  0  0  0
 12 38  1  0  0  0  0
 13 14  1  0  0  0  0
 14 26  1  0  0  0  0
 14 21  1  0  0  0  0
 14 15  1  0  0  0  0
 15 16  1  0  0  0  0
 16 27  1  0  0  0  0
 16 17  1  0  0  0  0
 16 19  1  0  0  0  0
 17 18  1  0  0  0  0
 17 39  1  0  0  0  0
 17 40  1  0  0  0  0
 18 41  1  0  0  0  0
 19 28  1  0  0  0  0
 19 20  1  0  0  0  0
 19 21  1  0  0  0  0
 20 42  1  0  0  0  0
 21 29  1  0  0  0  0
 21 22  1  0  0  0  0
 22 43  1  0  0  0  0
 23 24  2  0  0  0  0
 23 25  1  0  0  0  0
M  CHG  1  25  -1
M  END
> <s_m_source_file>
AV-unprocessed.smi

> <i_m_source_file_index>
54

> <i_lp_mmshare_version>
43012

> <i_f3d_flags>
0

> <s_epik_input>
W0NIM11bQ0hdKFtDSDNdKUMoPU8pW05IXWMobjEpW25IXWMoPU8pYyhjMTIpbltjSF1uMltDQEBIXTNPW0NASF0oW0NIMl1bT0hdKVtDQEBIXShbT0hdKVtDQEhdM1tPSF0=

> <s_epik_cmdline>
J2VwaWtfcHl0aG9uJywgJy1waCcsICc3LjAnLCAnLXRuJywgJzgnLCAnLW1hJywgJzIwMCcsICctbWV0YWxfYmluZGluZycsICctaW1hZScsICc8aW5maWxlLm1hZT4nLCAnLW9tYWUnLCAnPG91dGZpbGUubWFlPic=

> <r_lp_tautomer_probability>
0.85571

> <r_epik_Ionization_Penalty>
1.75936

> <r_epik_Ionization_Penalty_Charging>
4.55893e-11

> <r_epik_Ionization_Penalty_Neutral>
1.75936

> <r_epik_State_Penalty>
1.72072

> <r_epik_Charging_Adjusted_Penalty>
1.72072

> <i_epik_Tot_Q>
-1

> <i_epik_Tot_abs_Q>
1

> <r_epik_Metal_State_Penalty>
0.400338

> <b_epik_Metal_Only>
1

> <s_epik_Chemistry_Notes>
This compound contains an acetal/aminal-like group ( X-CH(R)-Y where X, Y are N, S, or O) that may be acid/base labile, releasing an aldehyde.

> <s_lp_Force_Field>
OPLS_2005

> <r_lp_Energy>
54.6298

> <b_lp_Chiralities_Consistent>
1

> <s_lp_Variant>
AV-unprocessed.smi:54-26

> <Gold.Version>
5.8.1

> <Gold.Id.Protein>
6NUR|6NUR_protein|mol2

> <Gold.PLP.Fitness>
48.8473

> <Gold.PLP.PLP>
-30.8373

> <Gold.PLP.part.hbond>
-7.8683

> <Gold.PLP.part.metal>
0.0000

> <Gold.PLP.part.buried>
-4.4252

> <Gold.PLP.part.nonpolar>
-19.6827

> <Gold.PLP.part.repulsive>
0.2593

> <Gold.PLP.ligand.clash>
0.0000

> <Gold.PLP.ligand.torsion>
1.4126

> <Gold.PLP.Chemscore.Hbond>
6.0076

> <Gold.PLP.Chemscore.CHOScore>
0.9169

> <Gold.PLP.Chemscore.Metal>
0.0000

> <Gold.Chemscore.Hbonds>
donor molecule, donor type, donor heavy atom, donor atom, acceptor molecule, acceptor atom, score
      L1  H    18    41       P1  8028  1.00
      L1  H    20    42       P1  8028  1.00
      L1  H    22    43       P1 10175  0.14
      P1  H  6896  6907       L1    25  1.68
      P1  H  6931  6943       L1     5  0.91
      P1  H  8011  8017       L1    20  0.24
      P1  H 10752 10765       L1    24  0.96
      L1  C    12    38       P1  7957  0.91

> <Gold.PLP.Chemscore.Internal.Correction>
0.0618

> <Gold.Rescore>
     Score         DG    S(hbond)    S(metal)    S(lipo)     H(rot)  DE(clash)    DE(int)     intcor
     13.03     -15.21       4.38        0.00      45.98       4.02       0.07       2.11       ----

> <Gold.Chemscore.Fitness>
13.0330

> <Gold.Chemscore.DG>
-15.2122

> <Gold.Chemscore.ZeroCoef>
-5.4800

> <Gold.Chemscore.Hbond>
4.3837

> <Gold.Chemscore.Metal>
0.0000

> <Gold.Chemscore.Lipo>
45.9812

> <Gold.Chemscore.Internal_Hbond>
0.0000

> <Gold.Chemscore.DEClash>
0.0706

> <Gold.Chemscore.DEInternal>
2.1086

> <Gold.Chemscore.Rot>
4.0192

> <Gold.Chemscore.Internal.Correction>
   9.000000E+99

> <Gold.Chemscore.Hbonds>
donor molecule, donor type, donor heavy atom, donor atom, acceptor molecule, acceptor atom, score
      L1  H    18    41       P1  8028  0.30
      L1  H    20    42       P1  8028  0.97
      L1  H    22    43       P1 10175  0.15
      P1  H  6896  6907       L1    25  0.74
      P1  H  6931  6943       L1     5  0.89
      P1  H  8011  8017       L1    20  0.12
      P1  H 10752 10765       L1    24  0.91

> <Gold.Chemscore.Hbond.Weighted>
-14.6417

> <Gold.Chemscore.Metal.Weighted>
-0.0000

> <Gold.Chemscore.Lipo.Weighted>
-5.3798

> <Gold.Chemscore.Internal_Hbond.Weighted>
0.0000

> <Gold.Chemscore.DEClash.Weighted>
0.0706

> <Gold.Chemscore.DEInternal.Weighted>
2.1086

> <Gold.Chemscore.Rot.Weighted>
10.2893

> <Gold.Chemscore.Internal.Correction.Weighted>
   9.000000E+99

> <Gold.Protein.RotatedTorsions>
[ 6907 6896 6895 6894 ] final  -57.91 input  -60.11 | X-H torsion
[ 7974 7965 7964 7962 ] final  -71.26 input  175.53 | X-H torsion
[ 8008 7997 7996 7995 ] final  111.68 input   59.86 | X-H torsion
[ 10167 10162 10161 10158 ] final  -73.50 input  -65.29 | X-H torsion
[ 10718 10713 10712 10709 ] final  162.07 input   66.30 | X-H torsion
[ 10763 10752 10751 10750 ] final -143.37 input  -60.55 | X-H torsion
[ 11005 11000 10999 10996 ] final   64.11 input  -57.11 | X-H torsion

> <Gold.Protein.ActiveResidues>
 VAL166  LYS551  ARG553  GLY616  TRP617  ASP618  TYR619  PRO620  LYS621  CYS622 
 ASP623  PHE694  ASN695  SER759  ASP760  ASP761  ALA762  ILE779  LEU786  VAL792 
 PHE793  MET794  SER795  GLU796  ALA797  LYS798  CYS799  TRP800  GLU811  SER814 

> <Gold.Protein.RotatedAtoms>
  150.8048  134.7166  159.6633 H   0  0  0  0  0  0  0  0  0  0  0  0  # atno 6907 bound_to 6896
  152.4167  134.6025  160.0014 H   0  0  0  0  0  0  0  0  0  0  0  0  # atno 6908 bound_to 6896
  151.6252  133.3299  159.3133 H   0  0  0  0  0  0  0  0  0  0  0  0  # atno 6909 bound_to 6896
  145.6803  140.9190  143.0836 H   0  0  0  0  0  0  0  0  0  0  0  0  # atno 7974 bound_to 7965
  156.2140  140.3014  155.9798 H   0  0  0  0  0  0  0  0  0  0  0  0  # atno 8008 bound_to 7997
  155.2651  140.0431  157.3018 H   0  0  0  0  0  0  0  0  0  0  0  0  # atno 8009 bound_to 7997
  154.5741  140.2356  155.8156 H   0  0  0  0  0  0  0  0  0  0  0  0  # atno 8010 bound_to 7997
  140.5105  143.2345  151.7601 H   0  0  0  0  0  0  0  0  0  0  0  0  # atno 10167 bound_to 10162
  157.1277  131.0508  151.2386 H   0  0  0  0  0  0  0  0  0  0  0  0  # atno 10718 bound_to 10713
  154.8472  135.3470  154.6177 H   0  0  0  0  0  0  0  0  0  0  0  0  # atno 10763 bound_to 10752
  153.6786  135.6981  153.5129 H   0  0  0  0  0  0  0  0  0  0  0  0  # atno 10764 bound_to 10752
  153.2686  135.4300  155.0922 H   0  0  0  0  0  0  0  0  0  0  0  0  # atno 10765 bound_to 10752
  139.9980  134.6486  155.9978 H   0  0  0  0  0  0  0  0  0  0  0  0  # atno 11005 bound_to 11000
  144.7028  139.8688  143.7439 LP  0  0  0  0  0  0  0  0  0  0  0  0  # atno 17320 bound_to 7965
  146.0970  139.3963  143.0370 LP  0  0  0  0  0  0  0  0  0  0  0  0  # atno 17321 bound_to 7965
  139.4895  144.4397  151.9779 LP  0  0  0  0  0  0  0  0  0  0  0  0  # atno 17342 bound_to 10162
  140.3489  144.3113  150.5953 LP  0  0  0  0  0  0  0  0  0  0  0  0  # atno 17343 bound_to 10162
  157.4420  130.7549  149.7078 LP  0  0  0  0  0  0  0  0  0  0  0  0  # atno 17370 bound_to 10713
  155.9814  130.4019  150.3470 LP  0  0  0  0  0  0  0  0  0  0  0  0  # atno 17371 bound_to 10713
  141.1620  133.6538  156.4350 LP  0  0  0  0  0  0  0  0  0  0  0  0  # atno 17394 bound_to 11000
  140.4781  134.6690  157.5159 LP  0  0  0  0  0  0  0  0  0  0  0  0  # atno 17395 bound_to 11000

$$$$
