AV-unprocessed.smi:123|AV-procd|sdf|1144|dock8
  -GOLD-   2262018273D 1   1.00000     0.00000
 Structure written by MMmdl.
 43 45  0  0  0  0  0  0  0  0  1 V2000
  152.2864  134.3185  154.7020 C   0  0  0  0  0  0  0  0  0  0  0  0
  150.8519  134.8295  154.5079 C   0  0  1  0  0  0  0  0  0  0  0  0
  150.8822  136.1640  153.9242 N   0  0  0  0  0  0  0  0  0  0  0  0
  151.6482  137.1978  154.3108 C   0  0  0  0  0  0  0  0  0  0  0  0
  152.4886  137.1120  155.2052 O   0  0  0  0  0  0  0  0  0  0  0  0
  151.4408  138.5477  153.5976 C   0  0  0  0  0  0  0  0  0  0  0  0
  150.7009  139.5536  154.3962 N   0  0  0  0  0  0  0  0  0  0  0  0
  149.2882  139.6011  154.2958 C   0  0  0  0  0  0  0  0  0  0  0  0
  148.6752  138.8445  153.5420 O   0  0  0  0  0  0  0  0  0  0  0  0
  148.6292  140.5843  155.1483 C   0  0  0  0  0  0  0  0  0  0  0  0
  147.2926  140.7156  155.1014 F   0  0  0  0  0  0  0  0  0  0  0  0
  149.3398  141.3615  155.9915 C   0  0  0  0  0  0  0  0  0  0  0  0
  150.7171  141.2825  156.1025 N   0  0  0  0  0  0  0  0  0  0  0  0
  151.4999  142.1401  157.0767 C   0  0  2  0  0  0  0  0  0  0  0  0
  152.1935  141.2609  158.1386 C   0  0  0  0  0  0  0  0  0  0  0  0
  151.7035  141.8522  159.4461 C   0  0  0  0  0  0  0  0  0  0  0  0
  150.3583  142.4391  159.0471 C   0  0  0  0  0  0  0  0  0  0  0  0
  150.6301  142.9919  157.7664 O   0  0  0  0  0  0  0  0  0  0  0  0
  151.4309  140.3864  155.2779 C   0  0  0  0  0  0  0  0  0  0  0  0
  152.6604  140.3180  155.3420 O   0  0  0  0  0  0  0  0  0  0  0  0
  150.0363  133.9210  153.6447 C   0  0  0  0  0  0  0  0  0  0  0  0
  150.1579  133.4951  152.3508 C   0  0  0  0  0  0  0  0  0  0  0  0
  149.0530  132.6335  152.1053 C   0  0  0  0  0  0  0  0  0  0  0  0
  148.3333  132.6030  153.2655 C   0  0  0  0  0  0  0  0  0  0  0  0
  148.9168  133.3852  154.2136 O   0  0  0  0  0  0  0  0  0  0  0  0
  152.2896  133.3287  155.1591 H   0  0  0  0  0  0  0  0  0  0  0  0
  152.8567  134.9827  155.3523 H   0  0  0  0  0  0  0  0  0  0  0  0
  152.8158  134.2479  153.7511 H   0  0  0  0  0  0  0  0  0  0  0  0
  150.3731  134.8772  155.4875 H   0  0  0  0  0  0  0  0  0  0  0  0
  150.2252  136.3327  153.1765 H   0  0  0  0  0  0  0  0  0  0  0  0
  152.4199  138.9353  153.3118 H   0  0  0  0  0  0  0  0  0  0  0  0
  150.9478  138.3548  152.6438 H   0  0  0  0  0  0  0  0  0  0  0  0
  148.7895  142.0673  156.5948 H   0  0  0  0  0  0  0  0  0  0  0  0
  152.1849  142.7269  156.4621 H   0  0  0  0  0  0  0  0  0  0  0  0
  151.8686  140.2239  158.0454 H   0  0  0  0  0  0  0  0  0  0  0  0
  153.2778  141.3017  158.0320 H   0  0  0  0  0  0  0  0  0  0  0  0
  151.6280  141.1155  160.2464 H   0  0  0  0  0  0  0  0  0  0  0  0
  152.3751  142.6471  159.7733 H   0  0  0  0  0  0  0  0  0  0  0  0
  149.6005  141.6579  158.9703 H   0  0  0  0  0  0  0  0  0  0  0  0
  150.0037  143.1976  159.7450 H   0  0  0  0  0  0  0  0  0  0  0  0
  150.9480  133.7672  151.6666 H   0  0  0  0  0  0  0  0  0  0  0  0
  148.8142  132.1043  151.1947 H   0  0  0  0  0  0  0  0  0  0  0  0
  147.4281  132.1011  153.5743 H   0  0  0  0  0  0  0  0  0  0  0  0
  1  2  1  0  0  0  0
  1 26  1  0  0  0  0
  1 27  1  0  0  0  0
  1 28  1  0  0  0  0
  2  3  1  0  0  0  0
  2 21  1  0  0  0  0
  2 29  1  0  0  0  0
  3  4  1  0  0  0  0
  3 30  1  0  0  0  0
  4  5  2  0  0  0  0
  4  6  1  0  0  0  0
  6  7  1  0  0  0  0
  6 31  1  0  0  0  0
  6 32  1  0  0  0  0
  7 19  1  0  0  0  0
  7  8  1  0  0  0  0
  8  9  2  0  0  0  0
  8 10  1  0  0  0  0
 10 11  1  0  0  0  0
 10 12  2  0  0  0  0
 12 13  1  0  0  0  0
 12 33  1  0  0  0  0
 13 14  1  0  0  0  0
 13 19  1  0  0  0  0
 14 18  1  0  0  0  0
 14 15  1  0  0  0  0
 14 34  1  0  0  0  0
 15 16  1  0  0  0  0
 15 35  1  0  0  0  0
 15 36  1  0  0  0  0
 16 17  1  0  0  0  0
 16 37  1  0  0  0  0
 16 38  1  0  0  0  0
 17 18  1  0  0  0  0
 17 39  1  0  0  0  0
 17 40  1  0  0  0  0
 19 20  2  0  0  0  0
 21 25  1  0  0  0  0
 21 22  2  0  0  0  0
 22 23  1  0  0  0  0
 22 41  1  0  0  0  0
 23 24  2  0  0  0  0
 23 42  1  0  0  0  0
 24 25  1  0  0  0  0
 24 43  1  0  0  0  0
M  END
> <s_m_source_file>
AV-unprocessed.smi

> <i_m_source_file_index>
123

> <i_lp_mmshare_version>
43012

> <i_f3d_flags>
0

> <s_epik_input>
bzFbY0hdW2NIXVtjSF1jMVtDQEhdKFtDSDNdKVtOSF1DKD1PKVtDSDJdbjJjKD1PKWMoRilbY0hdbihjMj1PKVtDQEBIXTNbQ0gyXVtDSDJdW0NIMl1PMw==

> <s_epik_cmdline>
J2VwaWtfcHl0aG9uJywgJy1waCcsICc3LjAnLCAnLXRuJywgJzgnLCAnLW1hJywgJzIwMCcsICctbWV0YWxfYmluZGluZycsICctaW1hZScsICc8aW5maWxlLm1hZT4nLCAnLW9tYWUnLCAnPG91dGZpbGUubWFlPic=

> <r_lp_tautomer_probability>
1

> <r_epik_Ionization_Penalty>
2.31906e-08

> <r_epik_Ionization_Penalty_Charging>
3.85846e-09

> <r_epik_Ionization_Penalty_Neutral>
1.93321e-08

> <r_epik_State_Penalty>
-0

> <r_epik_Charging_Adjusted_Penalty>
3.85846e-09

> <i_epik_Tot_Q>
0

> <i_epik_Tot_abs_Q>
0

> <r_epik_Metal_State_Penalty>
-0

> <b_epik_Metal_Only>
0

> <s_epik_Chemistry_Notes>
This compound contains an acetal/aminal-like group ( X-CH(R)-Y where X, Y are N, S, or O) that may be acid/base labile, releasing an aldehyde.

> <s_lp_Force_Field>
OPLS_2005

> <r_lp_Energy>
20.7844

> <b_lp_Chiralities_Consistent>
1

> <s_lp_Variant>
AV-unprocessed.smi:123-2

> <Gold.Version>
5.8.1

> <Gold.Id.Protein>
6NUR|6NUR_protein|mol2

> <Gold.PLP.Fitness>
50.3868

> <Gold.PLP.PLP>
-40.3678

> <Gold.PLP.part.hbond>
-3.1246

> <Gold.PLP.part.metal>
0.0000

> <Gold.PLP.part.buried>
-5.0231

> <Gold.PLP.part.nonpolar>
-33.7313

> <Gold.PLP.part.repulsive>
2.1608

> <Gold.PLP.ligand.clash>
0.0000

> <Gold.PLP.ligand.torsion>
0.7077

> <Gold.PLP.Chemscore.Hbond>
2.8000

> <Gold.PLP.Chemscore.CHOScore>
1.0000

> <Gold.PLP.Chemscore.Metal>
0.0000

> <Gold.Chemscore.Hbonds>
donor molecule, donor type, donor heavy atom, donor atom, acceptor molecule, acceptor atom, score
      L1  H     3    30       P1  7948  0.20
      P1  H  7997  8010       L1    20  1.00
      P1  H 10752 10763       L1     5  0.56
      L1  C    12    33       P1  8028  0.21

> <Gold.PLP.Chemscore.Internal.Correction>
0.0342

> <Gold.Rescore>
     Score         DG    S(hbond)    S(metal)    S(lipo)     H(rot)  DE(clash)    DE(int)     intcor
     11.34     -15.38       2.34        0.00      66.63       2.23       1.36       2.68       ----

> <Gold.Chemscore.Fitness>
11.3448

> <Gold.Chemscore.DG>
-15.3819

> <Gold.Chemscore.ZeroCoef>
-5.4800

> <Gold.Chemscore.Hbond>
2.3433

> <Gold.Chemscore.Metal>
0.0000

> <Gold.Chemscore.Lipo>
66.6329

> <Gold.Chemscore.Internal_Hbond>
0.0000

> <Gold.Chemscore.DEClash>
1.3581

> <Gold.Chemscore.DEInternal>
2.6791

> <Gold.Chemscore.Rot>
2.2347

> <Gold.Chemscore.Internal.Correction>
   9.000000E+99

> <Gold.Chemscore.Hbonds>
donor molecule, donor type, donor heavy atom, donor atom, acceptor molecule, acceptor atom, score
      P1  H  7997  8010       L1    20  0.98
      P1  H 10752 10763       L1     5  0.22

> <Gold.Chemscore.Hbond.Weighted>
-7.8267

> <Gold.Chemscore.Metal.Weighted>
-0.0000

> <Gold.Chemscore.Lipo.Weighted>
-7.7961

> <Gold.Chemscore.Internal_Hbond.Weighted>
0.0000

> <Gold.Chemscore.DEClash.Weighted>
1.3581

> <Gold.Chemscore.DEInternal.Weighted>
2.6791

> <Gold.Chemscore.Rot.Weighted>
5.7208

> <Gold.Chemscore.Internal.Correction.Weighted>
   9.000000E+99

> <Gold.Protein.RotatedTorsions>
[ 6907 6896 6895 6894 ] final -101.61 input  -60.11 | X-H torsion
[ 7974 7965 7964 7962 ] final  -87.85 input  175.53 | X-H torsion
[ 8008 7997 7996 7995 ] final   90.45 input   59.86 | X-H torsion
[ 10167 10162 10161 10158 ] final -120.60 input  -65.29 | X-H torsion
[ 10718 10713 10712 10709 ] final  -15.31 input   66.30 | X-H torsion
[ 10763 10752 10751 10750 ] final   86.80 input  -60.55 | X-H torsion
[ 11005 11000 10999 10996 ] final  -53.80 input  -57.11 | X-H torsion

> <Gold.Protein.ActiveResidues>
 VAL166  LYS551  ARG553  GLY616  TRP617  ASP618  TYR619  PRO620  LYS621  CYS622 
 ASP623  PHE694  ASN695  SER759  ASP760  ASP761  ALA762  ILE779  LEU786  VAL792 
 PHE793  MET794  SER795  GLU796  ALA797  LYS798  CYS799  TRP800  GLU811  SER814 

> <Gold.Protein.RotatedAtoms>
  150.7162  134.0707  159.3863 H   0  0  0  0  0  0  0  0  0  0  0  0  # atno 6907 bound_to 6896
  151.8689  135.0494  160.0486 H   0  0  0  0  0  0  0  0  0  0  0  0  # atno 6908 bound_to 6896
  152.2658  133.5302  159.5446 H   0  0  0  0  0  0  0  0  0  0  0  0  # atno 6909 bound_to 6896
  145.4610  140.9561  143.1969 H   0  0  0  0  0  0  0  0  0  0  0  0  # atno 7974 bound_to 7965
  156.0120  140.3349  155.6951 H   0  0  0  0  0  0  0  0  0  0  0  0  # atno 8008 bound_to 7997
  155.6143  140.0668  157.2714 H   0  0  0  0  0  0  0  0  0  0  0  0  # atno 8009 bound_to 7997
  154.4285  140.1788  156.1293 H   0  0  0  0  0  0  0  0  0  0  0  0  # atno 8010 bound_to 7997
  140.0341  143.5219  152.2162 H   0  0  0  0  0  0  0  0  0  0  0  0  # atno 10167 bound_to 10162
  156.6035  130.4830  149.6230 H   0  0  0  0  0  0  0  0  0  0  0  0  # atno 10718 bound_to 10713
  153.1606  135.4567  154.9766 H   0  0  0  0  0  0  0  0  0  0  0  0  # atno 10763 bound_to 10752
  154.7894  135.3215  154.7813 H   0  0  0  0  0  0  0  0  0  0  0  0  # atno 10764 bound_to 10752
  153.8304  135.6939  153.4870 H   0  0  0  0  0  0  0  0  0  0  0  0  # atno 10765 bound_to 10752
  141.0994  133.6620  156.4226 H   0  0  0  0  0  0  0  0  0  0  0  0  # atno 11005 bound_to 11000
  144.8003  139.6155  143.7075 LP  0  0  0  0  0  0  0  0  0  0  0  0  # atno 17320 bound_to 7965
  146.2451  139.6081  142.9465 LP  0  0  0  0  0  0  0  0  0  0  0  0  # atno 17321 bound_to 7965
  139.6057  144.7595  151.3068 LP  0  0  0  0  0  0  0  0  0  0  0  0  # atno 17342 bound_to 10162
  140.7289  143.6922  150.7912 LP  0  0  0  0  0  0  0  0  0  0  0  0  # atno 17343 bound_to 10162
  156.2449  130.6873  151.1590 LP  0  0  0  0  0  0  0  0  0  0  0  0  # atno 17370 bound_to 10713
  157.7273  131.0640  150.5871 LP  0  0  0  0  0  0  0  0  0  0  0  0  # atno 17371 bound_to 10713
  140.5060  134.6441  157.5266 LP  0  0  0  0  0  0  0  0  0  0  0  0  # atno 17394 bound_to 11000
  139.9840  134.7090  155.9807 LP  0  0  0  0  0  0  0  0  0  0  0  0  # atno 17395 bound_to 11000

$$$$
