AV-unprocessed.smi:2648|AV-procd|sdf|10286|dock9
  -GOLD-   2272014303D 1   1.00000     0.00000
 Structure written by MMmdl.
 33 34  0  0  0  0  0  0  0  0  2 V2000
  145.4805  138.2377  154.0275 O   0  0  0  0  0  0  0  0  0  0  0  0
  146.4628  137.7819  153.4425 C   0  0  0  0  0  0  0  0  0  0  0  0
  146.4684  136.5909  152.8265 N   0  0  0  0  0  0  0  0  0  0  0  0
  145.3289  135.6835  152.7611 C   0  0  0  0  0  0  0  0  0  0  0  0
  145.7666  134.2574  152.3805 C   0  0  0  0  0  0  0  0  0  0  0  0
  144.8003  133.6288  151.4768 N   0  0  0  0  0  0  0  0  0  0  0  0
  145.1335  132.9690  150.3598 C   0  0  0  0  0  0  0  0  0  0  0  0
  146.2623  132.7887  149.9043 O   0  0  0  0  0  0  0  0  0  0  0  0
  143.8672  132.4479  149.7158 C   0  0  0  0  0  0  0  0  0  0  0  0
  142.8987  132.9360  150.6740 N   0  0  0  0  0  0  0  0  0  0  0  0
  143.4705  133.6103  151.6801 C   0  0  0  0  0  0  0  0  0  0  0  0
  142.8692  134.1168  152.6263 O   0  0  0  0  0  0  0  0  0  0  0  0
  147.6610  138.3854  153.3534 N   0  0  0  0  0  0  0  0  0  0  0  0
  148.0464  139.6613  153.8488 C   0  0  0  0  0  0  0  0  0  0  0  0
  147.0811  140.6925  153.8254 C   0  0  0  0  0  0  0  0  0  0  0  0
  147.4138  141.9687  154.3239 C   0  0  0  0  0  0  0  0  0  0  0  0
  148.6460  142.1936  154.8280 N   0  3  0  0  0  0  0  0  0  0  0  0
  149.5973  141.2370  154.8841 C   0  0  0  0  0  0  0  0  0  0  0  0
  149.3228  139.9415  154.4004 C   0  0  0  0  0  0  0  0  0  0  0  0
  147.3181  136.2872  152.3735 H   0  0  0  0  0  0  0  0  0  0  0  0
  144.8004  135.6812  153.7163 H   0  0  0  0  0  0  0  0  0  0  0  0
  144.6267  136.0691  152.0214 H   0  0  0  0  0  0  0  0  0  0  0  0
  146.7533  134.2811  151.9144 H   0  0  0  0  0  0  0  0  0  0  0  0
  145.8799  133.6454  153.2772 H   0  0  0  0  0  0  0  0  0  0  0  0
  143.7099  132.8810  148.7275 H   0  0  0  0  0  0  0  0  0  0  0  0
  143.8633  131.3590  149.6576 H   0  0  0  0  0  0  0  0  0  0  0  0
  141.9061  132.7726  150.5857 H   0  0  0  0  0  0  0  0  0  0  0  0
  148.3976  137.8456  152.9232 H   0  0  0  0  0  0  0  0  0  0  0  0
  146.0941  140.5129  153.4240 H   0  0  0  0  0  0  0  0  0  0  0  0
  146.7355  142.8093  154.3362 H   0  0  0  0  0  0  0  0  0  0  0  0
  150.5420  141.5323  155.3172 H   0  0  0  0  0  0  0  0  0  0  0  0
  150.0913  139.1874  154.4741 H   0  0  0  0  0  0  0  0  0  0  0  0
  148.8662  143.1234  155.1859 H   0  0  0  0  0  0  0  0  0  0  0  0
  1  2  2  0  0  0  0
  2  3  1  0  0  0  0
  2 13  1  0  0  0  0
  3  4  1  0  0  0  0
  3 20  1  0  0  0  0
  4  5  1  0  0  0  0
  4 21  1  0  0  0  0
  4 22  1  0  0  0  0
  5  6  1  0  0  0  0
  5 23  1  0  0  0  0
  5 24  1  0  0  0  0
  6 11  1  0  0  0  0
  6  7  1  0  0  0  0
  7  8  2  0  0  0  0
  7  9  1  0  0  0  0
  9 10  1  0  0  0  0
  9 25  1  0  0  0  0
  9 26  1  0  0  0  0
 10 11  1  0  0  0  0
 10 27  1  0  0  0  0
 11 12  2  0  0  0  0
 13 14  1  0  0  0  0
 13 28  1  0  0  0  0
 14 19  1  0  0  0  0
 14 15  2  0  0  0  0
 15 16  1  0  0  0  0
 15 29  1  0  0  0  0
 16 17  2  0  0  0  0
 16 30  1  0  0  0  0
 17 18  1  0  0  0  0
 17 33  1  0  0  0  0
 18 19  2  0  0  0  0
 18 31  1  0  0  0  0
 19 32  1  0  0  0  0
M  CHG  1  17   1
M  END
> <s_m_source_file>
AV-unprocessed.smi

> <i_m_source_file_index>
2648

> <i_lp_mmshare_version>
43012

> <i_f3d_flags>
0

> <s_epik_input>
W2NIXTFbY0hdbltjSF1bY0hdYzFbTkhdQyg9TylbTkhdW0NIMl1bQ0gyXU4yQyg9TylbQ0gyXVtOSF1DMj1P

> <s_epik_cmdline>
J2VwaWtfcHl0aG9uJywgJy1waCcsICc3LjAnLCAnLXRuJywgJzgnLCAnLW1hJywgJzIwMCcsICctbWV0YWxfYmluZGluZycsICctaW1hZScsICc8aW5maWxlLm1hZT4nLCAnLW9tYWUnLCAnPG91dGZpbGUubWFlPic=

> <r_lp_tautomer_probability>
1

> <r_epik_Ionization_Penalty>
1.05701

> <r_epik_Ionization_Penalty_Charging>
1.05694

> <r_epik_Ionization_Penalty_Neutral>
7.31213e-05

> <r_epik_State_Penalty>
1.11031

> <r_epik_Charging_Adjusted_Penalty>
2.16725

> <i_epik_Tot_Q>
1

> <i_epik_Tot_abs_Q>
1

> <r_epik_Metal_State_Penalty>
1.22924

> <b_epik_Metal_Only>
0

> <s_lp_Force_Field>
OPLS_2005

> <r_lp_Energy>
27.1091

> <b_lp_Chiralities_Consistent>
1

> <s_lp_Variant>
AV-unprocessed.smi:2648-2

> <Gold.Version>
5.8.1

> <Gold.Id.Protein>
6NUR|6NUR_protein|mol2

> <Gold.PLP.Fitness>
43.8243

> <Gold.PLP.PLP>
-32.5527

> <Gold.PLP.part.hbond>
-4.0431

> <Gold.PLP.part.metal>
0.0000

> <Gold.PLP.part.buried>
-5.3966

> <Gold.PLP.part.nonpolar>
-24.3649

> <Gold.PLP.part.repulsive>
1.3779

> <Gold.PLP.ligand.clash>
0.0000

> <Gold.PLP.ligand.torsion>
0.7856

> <Gold.PLP.Chemscore.Hbond>
4.2773

> <Gold.PLP.Chemscore.CHOScore>
0.0000

> <Gold.PLP.Chemscore.Metal>
0.0000

> <Gold.Chemscore.Hbonds>
donor molecule, donor type, donor heavy atom, donor atom, acceptor molecule, acceptor atom, score
      L1  H     3    20       P1  7948  1.00
      L1  H    10    27       P1 10186  0.16
      L1  H    13    28       P1  7948  0.99
      L1  H    17    33       P1  8028  2.00

> <Gold.PLP.Chemscore.Internal.Correction>
0.0109

> <Gold.Rescore>
     Score         DG    S(hbond)    S(metal)    S(lipo)     H(rot)  DE(clash)    DE(int)     intcor
     14.43     -17.81       3.42        0.00      50.57       1.96       0.07       3.30       ----

> <Gold.Chemscore.Fitness>
14.4339

> <Gold.Chemscore.DG>
-17.8056

> <Gold.Chemscore.ZeroCoef>
-5.4800

> <Gold.Chemscore.Hbond>
3.4247

> <Gold.Chemscore.Metal>
0.0000

> <Gold.Chemscore.Lipo>
50.5735

> <Gold.Chemscore.Internal_Hbond>
0.0000

> <Gold.Chemscore.DEClash>
0.0738

> <Gold.Chemscore.DEInternal>
3.2979

> <Gold.Chemscore.Rot>
1.9648

> <Gold.Chemscore.Internal.Correction>
   9.000000E+99

> <Gold.Chemscore.Hbonds>
donor molecule, donor type, donor heavy atom, donor atom, acceptor molecule, acceptor atom, score
      L1  H     3    20       P1  7948  1.00
      L1  H    10    27       P1 10186  0.15
      L1  H    13    28       P1  7948  0.91
      L1  H    17    33       P1  8028  1.00

> <Gold.Chemscore.Hbond.Weighted>
-11.4384

> <Gold.Chemscore.Metal.Weighted>
-0.0000

> <Gold.Chemscore.Lipo.Weighted>
-5.9171

> <Gold.Chemscore.Internal_Hbond.Weighted>
0.0000

> <Gold.Chemscore.DEClash.Weighted>
0.0738

> <Gold.Chemscore.DEInternal.Weighted>
3.2979

> <Gold.Chemscore.Rot.Weighted>
5.0299

> <Gold.Chemscore.Internal.Correction.Weighted>
   9.000000E+99

> <Gold.Protein.RotatedTorsions>
[ 6907 6896 6895 6894 ] final  -77.43 input  -60.11 | X-H torsion
[ 7974 7965 7964 7962 ] final -146.37 input  175.53 | X-H torsion
[ 8008 7997 7996 7995 ] final -145.82 input   59.86 | X-H torsion
[ 10167 10162 10161 10158 ] final  -20.47 input  -65.29 | X-H torsion
[ 10718 10713 10712 10709 ] final  178.24 input   66.30 | X-H torsion
[ 10763 10752 10751 10750 ] final  -89.95 input  -60.55 | X-H torsion
[ 11005 11000 10999 10996 ] final   48.39 input  -57.11 | X-H torsion

> <Gold.Protein.ActiveResidues>
 VAL166  LYS551  ARG553  GLY616  TRP617  ASP618  TYR619  PRO620  LYS621  CYS622 
 ASP623  PHE694  ASN695  SER759  ASP760  ASP761  ALA762  ILE779  LEU786  VAL792 
 PHE793  MET794  SER795  GLU796  ALA797  LYS798  CYS799  TRP800  GLU811  SER814 

> <Gold.Protein.RotatedAtoms>
  150.6999  134.4424  159.5297 H   0  0  0  0  0  0  0  0  0  0  0  0  # atno 6907 bound_to 6896
  152.2131  134.8480  160.0504 H   0  0  0  0  0  0  0  0  0  0  0  0  # atno 6908 bound_to 6896
  151.9358  133.3589  159.3984 H   0  0  0  0  0  0  0  0  0  0  0  0  # atno 6909 bound_to 6896
  144.8164  140.5465  143.5608 H   0  0  0  0  0  0  0  0  0  0  0  0  # atno 7974 bound_to 7965
  155.5493  140.0615  157.2853 H   0  0  0  0  0  0  0  0  0  0  0  0  # atno 8008 bound_to 7997
  154.4426  140.1905  156.0715 H   0  0  0  0  0  0  0  0  0  0  0  0  # atno 8009 bound_to 7997
  156.0528  140.3282  155.7374 H   0  0  0  0  0  0  0  0  0  0  0  0  # atno 8010 bound_to 7997
  140.7276  143.4719  151.0235 H   0  0  0  0  0  0  0  0  0  0  0  0  # atno 10167 bound_to 10162
  156.8935  130.9855  151.3046 H   0  0  0  0  0  0  0  0  0  0  0  0  # atno 10718 bound_to 10713
  154.6607  135.5322  153.8014 H   0  0  0  0  0  0  0  0  0  0  0  0  # atno 10763 bound_to 10752
  153.0440  135.6505  154.0876 H   0  0  0  0  0  0  0  0  0  0  0  0  # atno 10764 bound_to 10752
  154.0785  135.2949  155.3275 H   0  0  0  0  0  0  0  0  0  0  0  0  # atno 10765 bound_to 10752
  140.1195  134.4849  155.8609 H   0  0  0  0  0  0  0  0  0  0  0  0  # atno 11005 bound_to 11000
  145.5205  139.1477  143.3555 LP  0  0  0  0  0  0  0  0  0  0  0  0  # atno 17320 bound_to 7965
  146.2467  140.5345  142.8911 LP  0  0  0  0  0  0  0  0  0  0  0  0  # atno 17321 bound_to 7965
  139.8412  143.7562  152.3180 LP  0  0  0  0  0  0  0  0  0  0  0  0  # atno 17342 bound_to 10162
  139.7711  144.7476  151.0223 LP  0  0  0  0  0  0  0  0  0  0  0  0  # atno 17343 bound_to 10162
  157.6070  130.8554  149.8890 LP  0  0  0  0  0  0  0  0  0  0  0  0  # atno 17370 bound_to 10713
  156.0617  130.3699  150.0967 LP  0  0  0  0  0  0  0  0  0  0  0  0  # atno 17371 bound_to 10713
  141.2148  133.6755  156.6860 LP  0  0  0  0  0  0  0  0  0  0  0  0  # atno 17394 bound_to 11000
  140.2984  134.8183  157.4077 LP  0  0  0  0  0  0  0  0  0  0  0  0  # atno 17395 bound_to 11000

$$$$
