AV-unprocessed.smi:2883|AV-procd|sdf|11079|dock4
  -GOLD-   2272015553D 1   1.00000     0.00000
 Structure written by MMmdl.
 39 41  0  0  0  0  0  0  0  0  1 V2000
  150.4843  144.0416  158.7615 C   0  0  0  0  0  0  0  0  0  0  0  0
  151.8440  144.4956  159.3429 C   0  0  0  0  0  0  0  0  0  0  0  0
  152.7778  144.7148  158.1287 C   0  0  0  0  0  0  0  0  0  0  0  0
  151.6630  145.8231  160.1013 C   0  0  0  0  0  0  0  0  0  0  0  0
  152.4207  143.4355  160.2966 C   0  0  0  0  0  0  0  0  0  0  0  0
  152.4753  143.7450  161.5990 N   0  0  0  0  0  0  0  0  0  0  0  0
  153.0952  142.8731  162.4219 C   0  0  0  0  0  0  0  0  0  0  0  0
  153.6965  141.6952  161.9378 C   0  0  0  0  0  0  0  0  0  0  0  0
  153.6223  141.4792  160.5477 C   0  0  0  0  0  0  0  0  0  0  0  0
  154.2112  140.3338  159.9946 N   0  0  0  0  0  0  0  0  0  0  0  0
  153.4099  139.1560  159.6792 C   0  0  2  0  0  0  0  0  0  0  0  0
  154.1961  138.0771  158.9232 C   0  0  0  0  0  0  0  0  0  0  0  0
  153.3380  137.8809  157.6674 C   0  0  1  0  0  0  0  0  0  0  0  0
  151.9898  137.2177  157.9806 C   0  0  0  0  0  0  0  0  0  0  0  0
  151.2330  138.3562  158.6644 C   0  0  0  0  0  0  0  0  0  0  0  0
  152.2861  139.4727  158.6781 C   0  0  2  0  0  0  0  0  0  0  0  0
  152.9271  139.2171  157.4384 O   0  0  0  0  0  0  0  0  0  0  0  0
  152.9982  142.3646  159.7369 N   0  0  0  0  0  0  0  0  0  0  0  0
  150.0939  144.7694  158.0493 H   0  0  0  0  0  0  0  0  0  0  0  0
  149.7268  143.9242  159.5371 H   0  0  0  0  0  0  0  0  0  0  0  0
  150.5739  143.0883  158.2394 H   0  0  0  0  0  0  0  0  0  0  0  0
  152.9501  143.7838  157.5870 H   0  0  0  0  0  0  0  0  0  0  0  0
  153.7508  145.1082  158.4259 H   0  0  0  0  0  0  0  0  0  0  0  0
  152.3515  145.4299  157.4242 H   0  0  0  0  0  0  0  0  0  0  0  0
  151.2583  146.6006  159.4525 H   0  0  0  0  0  0  0  0  0  0  0  0
  152.6126  146.1859  160.4963 H   0  0  0  0  0  0  0  0  0  0  0  0
  150.9798  145.7080  160.9435 H   0  0  0  0  0  0  0  0  0  0  0  0
  153.1173  143.1201  163.4729 H   0  0  0  0  0  0  0  0  0  0  0  0
  154.1929  141.0017  162.6004 H   0  0  0  0  0  0  0  0  0  0  0  0
  155.2175  140.2556  159.9636 H   0  0  0  0  0  0  0  0  0  0  0  0
  152.9792  138.7622  160.6009 H   0  0  0  0  0  0  0  0  0  0  0  0
  155.1921  138.4252  158.6446 H   0  0  0  0  0  0  0  0  0  0  0  0
  154.3093  137.1585  159.4998 H   0  0  0  0  0  0  0  0  0  0  0  0
  153.8738  137.4261  156.8338 H   0  0  0  0  0  0  0  0  0  0  0  0
  151.4808  136.9161  157.0645 H   0  0  0  0  0  0  0  0  0  0  0  0
  152.1001  136.3390  158.6171 H   0  0  0  0  0  0  0  0  0  0  0  0
  150.3673  138.6498  158.0695 H   0  0  0  0  0  0  0  0  0  0  0  0
  150.8866  138.0952  159.6649 H   0  0  0  0  0  0  0  0  0  0  0  0
  151.8598  140.4720  158.7742 H   0  0  0  0  0  0  0  0  0  0  0  0
  1  2  1  0  0  0  0
  1 19  1  0  0  0  0
  1 20  1  0  0  0  0
  1 21  1  0  0  0  0
  2  3  1  0  0  0  0
  2  4  1  0  0  0  0
  2  5  1  0  0  0  0
  3 22  1  0  0  0  0
  3 23  1  0  0  0  0
  3 24  1  0  0  0  0
  4 25  1  0  0  0  0
  4 26  1  0  0  0  0
  4 27  1  0  0  0  0
  5 18  1  0  0  0  0
  5  6  2  0  0  0  0
  6  7  1  0  0  0  0
  7  8  2  0  0  0  0
  7 28  1  0  0  0  0
  8  9  1  0  0  0  0
  8 29  1  0  0  0  0
  9 10  1  0  0  0  0
  9 18  2  0  0  0  0
 10 11  1  0  0  0  0
 10 30  1  0  0  0  0
 11 16  1  0  0  0  0
 11 12  1  0  0  0  0
 11 31  1  0  0  0  0
 12 13  1  0  0  0  0
 12 32  1  0  0  0  0
 12 33  1  0  0  0  0
 13 17  1  0  0  0  0
 13 14  1  0  0  0  0
 13 34  1  0  0  0  0
 14 15  1  0  0  0  0
 14 35  1  0  0  0  0
 14 36  1  0  0  0  0
 15 16  1  0  0  0  0
 15 37  1  0  0  0  0
 15 38  1  0  0  0  0
 16 17  1  0  0  0  0
 16 39  1  0  0  0  0
M  END
> <s_m_source_file>
AV-unprocessed.smi

> <i_m_source_file_index>
2883

> <i_lp_mmshare_version>
43012

> <i_f3d_flags>
0

> <s_epik_input>
W0NIM11DKFtDSDNdKShbQ0gzXSljMW5bY0hdW2NIXWMobjEpW05IXVtDQEhdKFtDSDJdW0NAQEhdMjMpW0NAQEhdKE8zKVtDSDJdW0NIMl0y

> <s_epik_cmdline>
J2VwaWtfcHl0aG9uJywgJy1waCcsICc3LjAnLCAnLXRuJywgJzgnLCAnLW1hJywgJzIwMCcsICctbWV0YWxfYmluZGluZycsICctaW1hZScsICc8aW5maWxlLm1hZT4nLCAnLW9tYWUnLCAnPG91dGZpbGUubWFlPic=

> <r_lp_tautomer_probability>
1

> <r_epik_Ionization_Penalty>
0.453006

> <r_epik_Ionization_Penalty_Charging>
0

> <r_epik_Ionization_Penalty_Neutral>
0.453006

> <r_epik_State_Penalty>
0.455155

> <r_epik_Charging_Adjusted_Penalty>
0.455155

> <i_epik_Tot_Q>
0

> <i_epik_Tot_abs_Q>
0

> <r_epik_Metal_State_Penalty>
0.255592

> <b_epik_Metal_Only>
0

> <s_lp_Force_Field>
OPLS_2005

> <r_lp_Energy>
33.3258

> <b_lp_Chiralities_Consistent>
1

> <s_lp_Variant>
AV-unprocessed.smi:2883-5

> <Gold.Version>
5.8.1

> <Gold.Id.Protein>
6NUR|6NUR_protein|mol2

> <Gold.PLP.Fitness>
42.5128

> <Gold.PLP.PLP>
-41.9329

> <Gold.PLP.part.hbond>
-1.0000

> <Gold.PLP.part.metal>
0.0000

> <Gold.PLP.part.buried>
-6.0085

> <Gold.PLP.part.nonpolar>
-33.8648

> <Gold.PLP.part.repulsive>
0.2053

> <Gold.PLP.ligand.clash>
0.0000

> <Gold.PLP.ligand.torsion>
1.2864

> <Gold.PLP.Chemscore.Hbond>
1.0000

> <Gold.PLP.Chemscore.CHOScore>
0.0000

> <Gold.PLP.Chemscore.Metal>
0.0000

> <Gold.Chemscore.Hbonds>
donor molecule, donor type, donor heavy atom, donor atom, acceptor molecule, acceptor atom, score
      P1  H  7997  8008       L1    17  1.00

> <Gold.PLP.Chemscore.Internal.Correction>
0.1526

> <Gold.Rescore>
     Score         DG    S(hbond)    S(metal)    S(lipo)     H(rot)  DE(clash)    DE(int)     intcor
     16.55     -17.62       0.99        0.00     100.68       1.15       0.21       0.86       ----

> <Gold.Chemscore.Fitness>
16.5460

> <Gold.Chemscore.DG>
-17.6175

> <Gold.Chemscore.ZeroCoef>
-5.4800

> <Gold.Chemscore.Hbond>
0.9870

> <Gold.Chemscore.Metal>
0.0000

> <Gold.Chemscore.Lipo>
100.6848

> <Gold.Chemscore.Internal_Hbond>
0.0000

> <Gold.Chemscore.DEClash>
0.2069

> <Gold.Chemscore.DEInternal>
0.8647

> <Gold.Chemscore.Rot>
1.1482

> <Gold.Chemscore.Internal.Correction>
   9.000000E+99

> <Gold.Chemscore.Hbonds>
donor molecule, donor type, donor heavy atom, donor atom, acceptor molecule, acceptor atom, score
      P1  H  7997  8008       L1    17  0.45

> <Gold.Chemscore.Hbond.Weighted>
-3.2967

> <Gold.Chemscore.Metal.Weighted>
-0.0000

> <Gold.Chemscore.Lipo.Weighted>
-11.7801

> <Gold.Chemscore.Internal_Hbond.Weighted>
0.0000

> <Gold.Chemscore.DEClash.Weighted>
0.2069

> <Gold.Chemscore.DEInternal.Weighted>
0.8647

> <Gold.Chemscore.Rot.Weighted>
2.9393

> <Gold.Chemscore.Internal.Correction.Weighted>
   9.000000E+99

> <Gold.Protein.RotatedTorsions>
[ 6907 6896 6895 6894 ] final  116.72 input  -60.11 | X-H torsion
[ 7974 7965 7964 7962 ] final  -26.16 input  175.53 | X-H torsion
[ 8008 7997 7996 7995 ] final  -71.75 input   59.86 | X-H torsion
[ 10167 10162 10161 10158 ] final  111.63 input  -65.29 | X-H torsion
[ 10718 10713 10712 10709 ] final   20.58 input   66.30 | X-H torsion
[ 10763 10752 10751 10750 ] final   -8.30 input  -60.55 | X-H torsion
[ 11005 11000 10999 10996 ] final -120.01 input  -57.11 | X-H torsion

> <Gold.Protein.ActiveResidues>
 VAL166  LYS551  ARG553  GLY616  TRP617  ASP618  TYR619  PRO620  LYS621  CYS622 
 ASP623  PHE694  ASN695  SER759  ASP760  ASP761  ALA762  ILE779  LEU786  VAL792 
 PHE793  MET794  SER795  GLU796  ALA797  LYS798  CYS799  TRP800  GLU811  SER814 

> <Gold.Protein.RotatedAtoms>
  152.4660  133.7923  159.6908 H   0  0  0  0  0  0  0  0  0  0  0  0  # atno 6907 bound_to 6896
  150.8624  133.7614  159.2994 H   0  0  0  0  0  0  0  0  0  0  0  0  # atno 6908 bound_to 6896
  151.5175  135.1069  159.9922 H   0  0  0  0  0  0  0  0  0  0  0  0  # atno 6909 bound_to 6896
  146.1444  140.4983  142.8638 H   0  0  0  0  0  0  0  0  0  0  0  0  # atno 7974 bound_to 7965
  154.5112  140.0810  156.7994 H   0  0  0  0  0  0  0  0  0  0  0  0  # atno 8008 bound_to 7997
  155.3780  140.3426  155.4227 H   0  0  0  0  0  0  0  0  0  0  0  0  # atno 8009 bound_to 7997
  156.1575  140.1578  156.8654 H   0  0  0  0  0  0  0  0  0  0  0  0  # atno 8010 bound_to 7997
  139.6597  144.7129  151.1889 H   0  0  0  0  0  0  0  0  0  0  0  0  # atno 10167 bound_to 10162
  157.1264  130.6572  149.5939 H   0  0  0  0  0  0  0  0  0  0  0  0  # atno 10718 bound_to 10713
  153.4385  135.7013  153.6184 H   0  0  0  0  0  0  0  0  0  0  0  0  # atno 10763 bound_to 10752
  153.4569  135.3745  155.2316 H   0  0  0  0  0  0  0  0  0  0  0  0  # atno 10764 bound_to 10752
  154.8727  135.4010  154.3780 H   0  0  0  0  0  0  0  0  0  0  0  0  # atno 10765 bound_to 10752
  141.0175  134.0174  157.3330 H   0  0  0  0  0  0  0  0  0  0  0  0  # atno 11005 bound_to 11000
  144.7829  140.5877  143.6593 LP  0  0  0  0  0  0  0  0  0  0  0  0  # atno 17320 bound_to 7965
  145.4973  139.1485  143.3677 LP  0  0  0  0  0  0  0  0  0  0  0  0  # atno 17321 bound_to 7965
  140.7574  143.6015  150.8695 LP  0  0  0  0  0  0  0  0  0  0  0  0  # atno 17342 bound_to 10162
  139.9671  143.6098  152.2985 LP  0  0  0  0  0  0  0  0  0  0  0  0  # atno 17343 bound_to 10162
  155.9817  130.4826  150.6843 LP  0  0  0  0  0  0  0  0  0  0  0  0  # atno 17370 bound_to 10713
  157.4431  131.0863  151.0923 LP  0  0  0  0  0  0  0  0  0  0  0  0  # atno 17371 bound_to 10713
  139.9125  135.0192  156.7751 LP  0  0  0  0  0  0  0  0  0  0  0  0  # atno 17394 bound_to 11000
  140.6630  133.9628  155.7815 LP  0  0  0  0  0  0  0  0  0  0  0  0  # atno 17395 bound_to 11000

$$$$
