AV-unprocessed.smi:844|AV-procd|sdf|3925|dock5
  -GOLD-   22720 1383D 1   1.00000     0.00000
 Structure written by MMmdl.
 33 35  0  0  0  0  0  0  0  0  2 V2000
  151.4957  144.0887  156.8303 O   0  0  0  0  0  0  0  0  0  0  0  0
  151.5408  142.7938  157.3934 C   0  0  2  0  0  0  0  0  0  0  0  0
  150.1539  142.1449  157.2095 C   0  0  0  0  0  0  0  0  0  0  0  0
  150.0605  141.3532  155.9765 N   0  0  0  0  0  0  0  0  0  0  0  0
  149.3867  141.6078  154.8219 C   0  0  0  0  0  0  0  0  0  0  0  0
  149.5987  140.5565  153.9825 N   0  3  0  0  0  0  0  0  0  0  0  0
  150.4234  139.6190  154.6081 C   0  0  0  0  0  0  0  0  0  0  0  0
  150.9146  138.3953  154.1639 C   0  0  0  0  0  0  0  0  0  0  0  0
  151.7372  137.6807  155.0597 C   0  0  0  0  0  0  0  0  0  0  0  0
  152.0427  138.1863  156.3402 C   0  0  0  0  0  0  0  0  0  0  0  0
  151.5386  139.4278  156.7806 C   0  0  0  0  0  0  0  0  0  0  0  0
  150.7264  140.1269  155.8888 C   0  0  0  0  0  0  0  0  0  0  0  0
  151.9790  142.8100  158.8538 C   0  0  0  0  0  0  0  0  0  0  0  0
  152.5895  141.6721  159.4272 C   0  0  0  0  0  0  0  0  0  0  0  0
  153.0126  141.6912  160.7701 C   0  0  0  0  0  0  0  0  0  0  0  0
  152.8312  142.8494  161.5491 C   0  0  0  0  0  0  0  0  0  0  0  0
  153.2412  142.8695  162.8393 F   0  0  0  0  0  0  0  0  0  0  0  0
  152.2276  143.9886  160.9838 C   0  0  0  0  0  0  0  0  0  0  0  0
  151.8037  143.9717  159.6408 C   0  0  0  0  0  0  0  0  0  0  0  0
  151.2376  145.0825  159.1097 F   0  0  0  0  0  0  0  0  0  0  0  0
  150.6677  144.1947  156.3870 H   0  0  0  0  0  0  0  0  0  0  0  0
  152.2762  142.2407  156.8093 H   0  0  0  0  0  0  0  0  0  0  0  0
  149.9247  141.4834  158.0463 H   0  0  0  0  0  0  0  0  0  0  0  0
  149.3672  142.9005  157.1869 H   0  0  0  0  0  0  0  0  0  0  0  0
  148.7843  142.4805  154.6140 H   0  0  0  0  0  0  0  0  0  0  0  0
  150.6818  138.0050  153.1840 H   0  0  0  0  0  0  0  0  0  0  0  0
  152.1420  136.7252  154.7587 H   0  0  0  0  0  0  0  0  0  0  0  0
  152.6766  137.6104  156.9988 H   0  0  0  0  0  0  0  0  0  0  0  0
  151.7765  139.8070  157.7636 H   0  0  0  0  0  0  0  0  0  0  0  0
  152.7403  140.7799  158.8369 H   0  0  0  0  0  0  0  0  0  0  0  0
  153.4782  140.8175  161.2017 H   0  0  0  0  0  0  0  0  0  0  0  0
  152.0918  144.8784  161.5809 H   0  0  0  0  0  0  0  0  0  0  0  0
  149.2074  140.4865  153.0518 H   0  0  0  0  0  0  0  0  0  0  0  0
  1  2  1  0  0  0  0
  1 21  1  0  0  0  0
  2  3  1  0  0  0  0
  2 13  1  0  0  0  0
  2 22  1  0  0  0  0
  3  4  1  0  0  0  0
  3 23  1  0  0  0  0
  3 24  1  0  0  0  0
  4 12  1  0  0  0  0
  4  5  1  0  0  0  0
  5  6  2  0  0  0  0
  5 25  1  0  0  0  0
  6  7  1  0  0  0  0
  6 33  1  0  0  0  0
  7 12  2  0  0  0  0
  7  8  1  0  0  0  0
  8  9  2  0  0  0  0
  8 26  1  0  0  0  0
  9 10  1  0  0  0  0
  9 27  1  0  0  0  0
 10 11  2  0  0  0  0
 10 28  1  0  0  0  0
 11 12  1  0  0  0  0
 11 29  1  0  0  0  0
 13 19  1  0  0  0  0
 13 14  2  0  0  0  0
 14 15  1  0  0  0  0
 14 30  1  0  0  0  0
 15 16  2  0  0  0  0
 15 31  1  0  0  0  0
 16 17  1  0  0  0  0
 16 18  1  0  0  0  0
 18 19  2  0  0  0  0
 18 32  1  0  0  0  0
 19 20  1  0  0  0  0
M  CHG  1   6   1
M  END
> <s_m_source_file>
AV-unprocessed.smi

> <i_m_source_file_index>
844

> <i_lp_mmshare_version>
43012

> <i_f3d_flags>
0

> <s_epik_input>
RmMxW2NIXWMoRilbY0hdW2NIXWMxW0NASF0oW09IXSlbQ0gyXW4oW2NIXW4yKWMoYzIzKVtjSF1bY0hdW2NIXVtjSF0z

> <s_epik_cmdline>
J2VwaWtfcHl0aG9uJywgJy1waCcsICc3LjAnLCAnLXRuJywgJzgnLCAnLW1hJywgJzIwMCcsICctbWV0YWxfYmluZGluZycsICctaW1hZScsICc8aW5maWxlLm1hZT4nLCAnLW9tYWUnLCAnPG91dGZpbGUubWFlPic=

> <r_epik_Ionization_Penalty>
1.3029

> <r_epik_Ionization_Penalty_Charging>
1.3029

> <r_epik_Ionization_Penalty_Neutral>
1.79538e-06

> <r_epik_State_Penalty>
1.377

> <r_epik_Charging_Adjusted_Penalty>
2.6799

> <i_epik_Tot_Q>
1

> <i_epik_Tot_abs_Q>
1

> <r_epik_Metal_State_Penalty>
5.40879

> <b_epik_Metal_Only>
0

> <s_lp_Force_Field>
OPLS_2005

> <r_lp_Energy>
17.7817

> <b_lp_Chiralities_Consistent>
1

> <s_lp_Variant>
AV-unprocessed.smi:844-3

> <Gold.Version>
5.8.1

> <Gold.Id.Protein>
6NUR|6NUR_protein|mol2

> <Gold.PLP.Fitness>
58.6016

> <Gold.PLP.PLP>
-52.7426

> <Gold.PLP.part.hbond>
-2.0000

> <Gold.PLP.part.metal>
0.0000

> <Gold.PLP.part.buried>
-6.4186

> <Gold.PLP.part.nonpolar>
-45.3767

> <Gold.PLP.part.repulsive>
1.5451

> <Gold.PLP.ligand.clash>
0.0011

> <Gold.PLP.ligand.torsion>
1.2667

> <Gold.PLP.Chemscore.Hbond>
1.8480

> <Gold.PLP.Chemscore.CHOScore>
0.9460

> <Gold.PLP.Chemscore.Metal>
0.0000

> <Gold.Chemscore.Hbonds>
donor molecule, donor type, donor heavy atom, donor atom, acceptor molecule, acceptor atom, score
      L1  H     1    21       P1  8028  1.00
      L1  H     6    33       P1  7957  0.90
      L1  C     5    25       P1  8028  1.00

> <Gold.PLP.Chemscore.Internal.Correction>
0.0114

> <Gold.Rescore>
     Score         DG    S(hbond)    S(metal)    S(lipo)     H(rot)  DE(clash)    DE(int)     intcor
     16.58     -20.82       1.94        0.00     120.63       2.06       1.13       3.11       ----

> <Gold.Chemscore.Fitness>
16.5794

> <Gold.Chemscore.DG>
-20.8154

> <Gold.Chemscore.ZeroCoef>
-5.4800

> <Gold.Chemscore.Hbond>
1.9445

> <Gold.Chemscore.Metal>
0.0000

> <Gold.Chemscore.Lipo>
120.6276

> <Gold.Chemscore.Internal_Hbond>
0.0000

> <Gold.Chemscore.DEClash>
1.1286

> <Gold.Chemscore.DEInternal>
3.1074

> <Gold.Chemscore.Rot>
2.0597

> <Gold.Chemscore.Internal.Correction>
   9.000000E+99

> <Gold.Chemscore.Hbonds>
donor molecule, donor type, donor heavy atom, donor atom, acceptor molecule, acceptor atom, score
      L1  H     1    21       P1  8028  0.98
      L1  H     6    33       P1  7957  0.86

> <Gold.Chemscore.Hbond.Weighted>
-6.4947

> <Gold.Chemscore.Metal.Weighted>
-0.0000

> <Gold.Chemscore.Lipo.Weighted>
-14.1134

> <Gold.Chemscore.Internal_Hbond.Weighted>
0.0000

> <Gold.Chemscore.DEClash.Weighted>
1.1286

> <Gold.Chemscore.DEInternal.Weighted>
3.1074

> <Gold.Chemscore.Rot.Weighted>
5.2728

> <Gold.Chemscore.Internal.Correction.Weighted>
   9.000000E+99

> <Gold.Protein.RotatedTorsions>
[ 6907 6896 6895 6894 ] final  161.19 input  -60.11 | X-H torsion
[ 7974 7965 7964 7962 ] final  -44.47 input  175.53 | X-H torsion
[ 8008 7997 7996 7995 ] final   36.28 input   59.86 | X-H torsion
[ 10167 10162 10161 10158 ] final -126.53 input  -65.29 | X-H torsion
[ 10718 10713 10712 10709 ] final  -42.54 input   66.30 | X-H torsion
[ 10763 10752 10751 10750 ] final  -85.67 input  -60.55 | X-H torsion
[ 11005 11000 10999 10996 ] final   31.90 input  -57.11 | X-H torsion

> <Gold.Protein.ActiveResidues>
 VAL166  LYS551  ARG553  GLY616  TRP617  ASP618  TYR619  PRO620  LYS621  CYS622 
 ASP623  PHE694  ASN695  SER759  ASP760  ASP761  ALA762  ILE779  LEU786  VAL792 
 PHE793  MET794  SER795  GLU796  ALA797  LYS798  CYS799  TRP800  GLU811  SER814 

> <Gold.Protein.RotatedAtoms>
  151.9593  133.3690  159.4028 H   0  0  0  0  0  0  0  0  0  0  0  0  # atno 6907 bound_to 6896
  150.6967  134.4258  159.5235 H   0  0  0  0  0  0  0  0  0  0  0  0  # atno 6908 bound_to 6896
  152.1944  134.8644  160.0565 H   0  0  0  0  0  0  0  0  0  0  0  0  # atno 6909 bound_to 6896
  145.9917  140.7173  142.9314 H   0  0  0  0  0  0  0  0  0  0  0  0  # atno 7974 bound_to 7965
  155.1848  140.3303  155.4369 H   0  0  0  0  0  0  0  0  0  0  0  0  # atno 8008 bound_to 7997
  156.2464  140.1920  156.6894 H   0  0  0  0  0  0  0  0  0  0  0  0  # atno 8009 bound_to 7997
  154.6246  140.0590  156.9644 H   0  0  0  0  0  0  0  0  0  0  0  0  # atno 8010 bound_to 7997
  139.9705  143.5851  152.2414 H   0  0  0  0  0  0  0  0  0  0  0  0  # atno 10167 bound_to 10162
  156.2585  130.4194  149.8569 H   0  0  0  0  0  0  0  0  0  0  0  0  # atno 10718 bound_to 10713
  154.6138  135.5476  153.7501 H   0  0  0  0  0  0  0  0  0  0  0  0  # atno 10763 bound_to 10752
  153.0207  135.6396  154.1540 H   0  0  0  0  0  0  0  0  0  0  0  0  # atno 10764 bound_to 10752
  154.1477  135.2904  155.3124 H   0  0  0  0  0  0  0  0  0  0  0  0  # atno 10765 bound_to 10752
  140.2790  134.2994  155.7806 H   0  0  0  0  0  0  0  0  0  0  0  0  # atno 11005 bound_to 11000
  144.6891  140.3081  143.7252 LP  0  0  0  0  0  0  0  0  0  0  0  0  # atno 17320 bound_to 7965
  145.7620  139.1828  143.2261 LP  0  0  0  0  0  0  0  0  0  0  0  0  # atno 17321 bound_to 7965
  139.6485  144.7659  151.2196 LP  0  0  0  0  0  0  0  0  0  0  0  0  # atno 17342 bound_to 10162
  140.7523  143.6200  150.8522 LP  0  0  0  0  0  0  0  0  0  0  0  0  # atno 17343 bound_to 10162
  156.6092  130.8579  151.3450 LP  0  0  0  0  0  0  0  0  0  0  0  0  # atno 17370 bound_to 10713
  157.7242  130.9599  150.1562 LP  0  0  0  0  0  0  0  0  0  0  0  0  # atno 17371 bound_to 10713
  141.2165  133.7514  156.9452 LP  0  0  0  0  0  0  0  0  0  0  0  0  # atno 17394 bound_to 11000
  140.1301  134.9361  157.2325 LP  0  0  0  0  0  0  0  0  0  0  0  0  # atno 17395 bound_to 11000

$$$$
