AV-unprocessed.smi:2684|AV-procd|sdf|10379|dock5
  -GOLD-   2272014413D 1   1.00000     0.00000
 Structure written by MMmdl.
 45 46  0  0  0  0  0  0  0  0  2 V2000
  153.2834  142.4949  163.3157 C   0  0  0  0  0  0  0  0  0  0  0  0
  153.0319  142.5375  161.8362 C   0  0  0  0  0  0  0  0  0  0  0  0
  153.5973  141.7049  160.8290 C   0  0  0  0  0  0  0  0  0  0  0  0
  153.1720  142.0082  159.6132 N   0  0  0  0  0  0  0  0  0  0  0  0
  152.3271  143.0442  159.7998 N   0  0  0  0  0  0  0  0  0  0  0  0
  151.6759  143.6606  158.6578 C   0  0  0  0  0  0  0  0  0  0  0  0
  150.6675  142.7278  157.9481 C   0  0  1  0  0  0  0  0  0  0  0  0
  150.6261  141.3579  158.6382 C   0  0  0  0  0  0  0  0  0  0  0  0
  149.3052  143.3098  157.9366 N   0  3  0  0  0  0  0  0  0  0  0  0
  148.8877  143.9597  159.1977 C   0  0  0  0  0  0  0  0  0  0  0  0
  147.3871  143.7789  159.4611 C   0  0  0  0  0  0  0  0  0  0  0  0
  147.0156  142.9108  160.2486 O   0  0  0  0  0  0  0  0  0  0  0  0
  146.4916  144.5491  158.8171 N   0  0  0  0  0  0  0  0  0  0  0  0
  145.0331  144.5343  158.9264 C   0  0  0  0  0  0  0  0  0  0  0  0
  144.4391  145.6372  158.0373 C   0  0  0  0  0  0  0  0  0  0  0  0
  142.9153  145.7252  158.2232 C   0  0  0  0  0  0  0  0  0  0  0  0
  142.6052  145.9471  159.5944 O   0  0  0  0  0  0  0  0  0  0  0  0
  143.0374  144.8865  160.4394 C   0  0  0  0  0  0  0  0  0  0  0  0
  144.5676  144.7546  160.3776 C   0  0  0  0  0  0  0  0  0  0  0  0
  152.2153  143.3770  161.1333 C   0  0  0  0  0  0  0  0  0  0  0  0
  153.5100  141.4851  163.6580 H   0  0  0  0  0  0  0  0  0  0  0  0
  152.4187  142.8390  163.8835 H   0  0  0  0  0  0  0  0  0  0  0  0
  154.1246  143.1273  163.5979 H   0  0  0  0  0  0  0  0  0  0  0  0
  154.3035  140.8957  160.9450 H   0  0  0  0  0  0  0  0  0  0  0  0
  151.1695  144.5611  159.0091 H   0  0  0  0  0  0  0  0  0  0  0  0
  152.4440  143.9928  157.9578 H   0  0  0  0  0  0  0  0  0  0  0  0
  150.9906  142.5589  156.9195 H   0  0  0  0  0  0  0  0  0  0  0  0
  151.6093  140.8858  158.6329 H   0  0  0  0  0  0  0  0  0  0  0  0
  149.9362  140.6827  158.1311 H   0  0  0  0  0  0  0  0  0  0  0  0
  150.3051  141.4440  159.6770 H   0  0  0  0  0  0  0  0  0  0  0  0
  149.2675  144.0156  157.2147 H   0  0  0  0  0  0  0  0  0  0  0  0
  149.4787  143.5646  160.0172 H   0  0  0  0  0  0  0  0  0  0  0  0
  149.1062  145.0261  159.1356 H   0  0  0  0  0  0  0  0  0  0  0  0
  146.8684  145.2129  158.1552 H   0  0  0  0  0  0  0  0  0  0  0  0
  144.6487  143.5829  158.5588 H   0  0  0  0  0  0  0  0  0  0  0  0
  144.8855  146.6002  158.2898 H   0  0  0  0  0  0  0  0  0  0  0  0
  144.6755  145.4475  156.9896 H   0  0  0  0  0  0  0  0  0  0  0  0
  142.5130  146.5491  157.6335 H   0  0  0  0  0  0  0  0  0  0  0  0
  142.4256  144.8153  157.8733 H   0  0  0  0  0  0  0  0  0  0  0  0
  142.7210  145.0991  161.4607 H   0  0  0  0  0  0  0  0  0  0  0  0
  142.5556  143.9526  160.1448 H   0  0  0  0  0  0  0  0  0  0  0  0
  144.8876  143.9349  161.0203 H   0  0  0  0  0  0  0  0  0  0  0  0
  145.0230  145.6608  160.7794 H   0  0  0  0  0  0  0  0  0  0  0  0
  151.5789  144.1825  161.4690 H   0  0  0  0  0  0  0  0  0  0  0  0
  148.6446  142.5829  157.7023 H   0  0  0  0  0  0  0  0  0  0  0  0
  1  2  1  0  0  0  0
  1 21  1  0  0  0  0
  1 22  1  0  0  0  0
  1 23  1  0  0  0  0
  2 20  2  0  0  0  0
  2  3  1  0  0  0  0
  3  4  2  0  0  0  0
  3 24  1  0  0  0  0
  4  5  1  0  0  0  0
  5  6  1  0  0  0  0
  5 20  1  0  0  0  0
  6  7  1  0  0  0  0
  6 25  1  0  0  0  0
  6 26  1  0  0  0  0
  7  8  1  0  0  0  0
  7  9  1  0  0  0  0
  7 27  1  0  0  0  0
  8 28  1  0  0  0  0
  8 29  1  0  0  0  0
  8 30  1  0  0  0  0
  9 10  1  0  0  0  0
  9 31  1  0  0  0  0
  9 45  1  0  0  0  0
 10 11  1  0  0  0  0
 10 32  1  0  0  0  0
 10 33  1  0  0  0  0
 11 12  2  0  0  0  0
 11 13  1  0  0  0  0
 13 14  1  0  0  0  0
 13 34  1  0  0  0  0
 14 19  1  0  0  0  0
 14 15  1  0  0  0  0
 14 35  1  0  0  0  0
 15 16  1  0  0  0  0
 15 36  1  0  0  0  0
 15 37  1  0  0  0  0
 16 17  1  0  0  0  0
 16 38  1  0  0  0  0
 16 39  1  0  0  0  0
 17 18  1  0  0  0  0
 18 19  1  0  0  0  0
 18 40  1  0  0  0  0
 18 41  1  0  0  0  0
 19 42  1  0  0  0  0
 19 43  1  0  0  0  0
 20 44  1  0  0  0  0
M  CHG  1   9   1
M  END
> <s_m_source_file>
AV-unprocessed.smi

> <i_m_source_file_index>
2684

> <i_lp_mmshare_version>
43012

> <i_f3d_flags>
0

> <s_epik_input>
W0NIM11jMVtjSF1ubihbY0hdMSlbQ0gyXVtDQEhdKFtDSDNdKVtOSF1bQ0gyXUMoPU8pW05IXVtDSF0yW0NIMl1bQ0gyXU9bQ0gyXVtDSDJdMg==

> <s_epik_cmdline>
J2VwaWtfcHl0aG9uJywgJy1waCcsICc3LjAnLCAnLXRuJywgJzgnLCAnLW1hJywgJzIwMCcsICctbWV0YWxfYmluZGluZycsICctaW1hZScsICc8aW5maWxlLm1hZT4nLCAnLW9tYWUnLCAnPG91dGZpbGUubWFlPic=

> <r_lp_tautomer_probability>
1

> <r_epik_Ionization_Penalty>
0.128576

> <r_epik_Ionization_Penalty_Charging>
0.128567

> <r_epik_Ionization_Penalty_Neutral>
8.60003e-06

> <r_epik_State_Penalty>
0.117991

> <r_epik_Charging_Adjusted_Penalty>
0.246558

> <i_epik_Tot_Q>
1

> <i_epik_Tot_abs_Q>
1

> <r_epik_Metal_State_Penalty>
0.118015

> <b_epik_Metal_Only>
0

> <s_lp_Force_Field>
OPLS_2005

> <r_lp_Energy>
10.4868

> <b_lp_Chiralities_Consistent>
1

> <s_lp_Variant>
AV-unprocessed.smi:2684-2

> <Gold.Version>
5.8.1

> <Gold.Id.Protein>
6NUR|6NUR_protein|mol2

> <Gold.PLP.Fitness>
47.5692

> <Gold.PLP.PLP>
-36.2980

> <Gold.PLP.part.hbond>
-4.9421

> <Gold.PLP.part.metal>
0.0000

> <Gold.PLP.part.buried>
-1.8956

> <Gold.PLP.part.nonpolar>
-29.9214

> <Gold.PLP.part.repulsive>
0.1476

> <Gold.PLP.ligand.clash>
0.0000

> <Gold.PLP.ligand.torsion>
1.4821

> <Gold.PLP.Chemscore.Hbond>
4.7209

> <Gold.PLP.Chemscore.CHOScore>
0.0000

> <Gold.PLP.Chemscore.Metal>
0.0000

> <Gold.Chemscore.Hbonds>
donor molecule, donor type, donor heavy atom, donor atom, acceptor molecule, acceptor atom, score
      L1  H     9    31       P1  8028  2.00
      L1  H    13    34       P1  8029  0.94
      P1  H  6933  6944       L1    12  0.93
      P1  H  6934  6946       L1    12  0.70

> <Gold.PLP.Chemscore.Internal.Correction>
0.0728

> <Gold.Rescore>
     Score         DG    S(hbond)    S(metal)    S(lipo)     H(rot)  DE(clash)    DE(int)     intcor
     17.18     -20.65       2.98        0.00      89.41       2.04       0.55       2.92       ----

> <Gold.Chemscore.Fitness>
17.1793

> <Gold.Chemscore.DG>
-20.6483

> <Gold.Chemscore.ZeroCoef>
-5.4800

> <Gold.Chemscore.Hbond>
2.9759

> <Gold.Chemscore.Metal>
0.0000

> <Gold.Chemscore.Lipo>
89.4067

> <Gold.Chemscore.Internal_Hbond>
0.0000

> <Gold.Chemscore.DEClash>
0.5488

> <Gold.Chemscore.DEInternal>
2.9202

> <Gold.Chemscore.Rot>
2.0437

> <Gold.Chemscore.Internal.Correction>
   9.000000E+99

> <Gold.Chemscore.Hbonds>
donor molecule, donor type, donor heavy atom, donor atom, acceptor molecule, acceptor atom, score
      L1  H     9    31       P1  8028  0.25
      L1  H    13    34       P1  8029  0.89
      P1  H  6933  6944       L1    12  0.69
      P1  H  6934  6946       L1    12  0.68

> <Gold.Chemscore.Hbond.Weighted>
-9.9396

> <Gold.Chemscore.Metal.Weighted>
-0.0000

> <Gold.Chemscore.Lipo.Weighted>
-10.4606

> <Gold.Chemscore.Internal_Hbond.Weighted>
0.0000

> <Gold.Chemscore.DEClash.Weighted>
0.5488

> <Gold.Chemscore.DEInternal.Weighted>
2.9202

> <Gold.Chemscore.Rot.Weighted>
5.2318

> <Gold.Chemscore.Internal.Correction.Weighted>
   9.000000E+99

> <Gold.Protein.RotatedTorsions>
[ 6907 6896 6895 6894 ] final  138.62 input  -60.11 | X-H torsion
[ 7974 7965 7964 7962 ] final -161.18 input  175.53 | X-H torsion
[ 8008 7997 7996 7995 ] final  142.22 input   59.86 | X-H torsion
[ 10167 10162 10161 10158 ] final  -72.59 input  -65.29 | X-H torsion
[ 10718 10713 10712 10709 ] final -158.22 input   66.30 | X-H torsion
[ 10763 10752 10751 10750 ] final  102.71 input  -60.55 | X-H torsion
[ 11005 11000 10999 10996 ] final   83.30 input  -57.11 | X-H torsion

> <Gold.Protein.ActiveResidues>
 VAL166  LYS551  ARG553  GLY616  TRP617  ASP618  TYR619  PRO620  LYS621  CYS622 
 ASP623  PHE694  ASN695  SER759  ASP760  ASP761  ALA762  ILE779  LEU786  VAL792 
 PHE793  MET794  SER795  GLU796  ALA797  LYS798  CYS799  TRP800  GLU811  SER814 

> <Gold.Protein.RotatedAtoms>
  152.2645  133.5327  159.5401 H   0  0  0  0  0  0  0  0  0  0  0  0  # atno 6907 bound_to 6896
  150.7137  134.0784  159.3898 H   0  0  0  0  0  0  0  0  0  0  0  0  # atno 6908 bound_to 6896
  151.8700  135.0493  160.0529 H   0  0  0  0  0  0  0  0  0  0  0  0  # atno 6909 bound_to 6896
  144.7400  140.3435  143.6130 H   0  0  0  0  0  0  0  0  0  0  0  0  # atno 7974 bound_to 7965
  156.2953  140.2294  156.4692 H   0  0  0  0  0  0  0  0  0  0  0  0  # atno 8008 bound_to 7997
  154.7950  140.0452  157.1251 H   0  0  0  0  0  0  0  0  0  0  0  0  # atno 8009 bound_to 7997
  154.9600  140.3053  155.5039 H   0  0  0  0  0  0  0  0  0  0  0  0  # atno 8010 bound_to 7997
  140.5179  143.2335  151.7480 H   0  0  0  0  0  0  0  0  0  0  0  0  # atno 10167 bound_to 10162
  156.5511  130.8606  151.2780 H   0  0  0  0  0  0  0  0  0  0  0  0  # atno 10718 bound_to 10713
  153.3431  135.4001  155.1587 H   0  0  0  0  0  0  0  0  0  0  0  0  # atno 10763 bound_to 10752
  154.8647  135.3638  154.5319 H   0  0  0  0  0  0  0  0  0  0  0  0  # atno 10764 bound_to 10752
  153.5766  135.7077  153.5541 H   0  0  0  0  0  0  0  0  0  0  0  0  # atno 10765 bound_to 10752
  139.9035  134.8134  156.2291 H   0  0  0  0  0  0  0  0  0  0  0  0  # atno 11005 bound_to 11000
  145.7350  139.1747  143.2409 LP  0  0  0  0  0  0  0  0  0  0  0  0  # atno 17320 bound_to 7965
  146.1177  140.7348  142.9472 LP  0  0  0  0  0  0  0  0  0  0  0  0  # atno 17321 bound_to 7965
  139.4915  144.4297  151.9886 LP  0  0  0  0  0  0  0  0  0  0  0  0  # atno 17342 bound_to 10162
  140.3392  144.3224  150.5971 LP  0  0  0  0  0  0  0  0  0  0  0  0  # atno 17343 bound_to 10162
  157.7387  130.9818  150.2269 LP  0  0  0  0  0  0  0  0  0  0  0  0  # atno 17370 bound_to 10713
  156.2884  130.3742  149.7866 LP  0  0  0  0  0  0  0  0  0  0  0  0  # atno 17371 bound_to 10713
  141.0357  133.6964  156.1508 LP  0  0  0  0  0  0  0  0  0  0  0  0  # atno 17394 bound_to 11000
  140.7030  134.4543  157.5585 LP  0  0  0  0  0  0  0  0  0  0  0  0  # atno 17395 bound_to 11000

$$$$
