AV-unprocessed.smi:1645|AV-procd|sdf|6602|dock1
  -GOLD-   22720 7303D 1   1.00000     0.00000
 Structure written by MMmdl.
 55 58  0  0  0  0  0  0  0  0  2 V2000
  149.1455  134.7570  156.0571 O   0  0  0  0  0  0  0  0  0  0  0  0
  149.2603  135.2037  154.9162 C   0  0  0  0  0  0  0  0  0  0  0  0
  149.9857  136.2813  154.5726 N   0  0  0  0  0  0  0  0  0  0  0  0
  150.8232  137.0796  155.3970 C   0  0  0  0  0  0  0  0  0  0  0  0
  151.8947  137.8673  154.9164 C   0  0  0  0  0  0  0  0  0  0  0  0
  152.6352  138.6414  155.8304 C   0  0  0  0  0  0  0  0  0  0  0  0
  152.2858  138.6185  157.2011 C   0  0  0  0  0  0  0  0  0  0  0  0
  153.0113  139.3955  158.1307 N   0  0  0  0  0  0  0  0  0  0  0  0
  153.7505  138.6870  159.1791 C   0  0  0  0  0  0  0  0  0  0  0  0
  154.7707  139.6124  159.8640 C   0  0  0  0  0  0  0  0  0  0  0  0
  154.0966  140.8917  160.3802 C   0  0  0  0  0  0  0  0  0  0  0  0
  153.3463  141.5886  159.2358 C   0  0  0  0  0  0  0  0  0  0  0  0
  152.3506  140.6297  158.5613 C   0  0  0  0  0  0  0  0  0  0  0  0
  151.2557  137.8644  157.6570 N   0  0  0  0  0  0  0  0  0  0  0  0
  150.5468  137.1264  156.7777 C   0  0  0  0  0  0  0  0  0  0  0  0
  148.6419  134.6746  153.8511 N   0  0  0  0  0  0  0  0  0  0  0  0
  147.7692  133.5044  153.8832 C   0  0  2  0  0  0  0  0  0  0  0  0
  148.5281  132.1849  154.0611 C   0  0  0  0  0  0  0  0  0  0  0  0
  147.6507  131.1768  153.3215 C   0  0  0  0  0  0  0  0  0  0  0  0
  147.1830  131.9348  152.1523 N   0  3  1  0  0  0  0  0  0  0  0  0
  146.1823  131.2811  151.2694 C   0  0  0  0  0  0  0  0  0  0  0  0
  144.7323  131.5853  151.6626 C   0  0  0  0  0  0  0  0  0  0  0  0
  144.5227  133.0970  151.7562 C   0  0  0  0  0  0  0  0  0  0  0  0
  145.4476  133.6509  152.8401 C   0  0  0  0  0  0  0  0  0  0  0  0
  146.9437  133.3415  152.5794 C   0  0  1  0  0  0  0  0  0  0  0  0
  149.9023  136.5901  153.6151 H   0  0  0  0  0  0  0  0  0  0  0  0
  152.1538  137.9054  153.8698 H   0  0  0  0  0  0  0  0  0  0  0  0
  153.4630  139.2354  155.4726 H   0  0  0  0  0  0  0  0  0  0  0  0
  153.0447  138.3005  159.9157 H   0  0  0  0  0  0  0  0  0  0  0  0
  154.2761  137.8303  158.7551 H   0  0  0  0  0  0  0  0  0  0  0  0
  155.2568  139.0874  160.6864 H   0  0  0  0  0  0  0  0  0  0  0  0
  155.5572  139.8751  159.1554 H   0  0  0  0  0  0  0  0  0  0  0  0
  153.3991  140.6426  161.1808 H   0  0  0  0  0  0  0  0  0  0  0  0
  154.8403  141.5637  160.8092 H   0  0  0  0  0  0  0  0  0  0  0  0
  152.8215  142.4665  159.6133 H   0  0  0  0  0  0  0  0  0  0  0  0
  154.0619  141.9498  158.4959 H   0  0  0  0  0  0  0  0  0  0  0  0
  151.8761  141.1458  157.7278 H   0  0  0  0  0  0  0  0  0  0  0  0
  151.5546  140.3701  159.2606 H   0  0  0  0  0  0  0  0  0  0  0  0
  149.7325  136.5514  157.1941 H   0  0  0  0  0  0  0  0  0  0  0  0
  148.7916  135.1086  152.9520 H   0  0  0  0  0  0  0  0  0  0  0  0
  147.1032  133.5975  154.7433 H   0  0  0  0  0  0  0  0  0  0  0  0
  149.5067  132.2389  153.5811 H   0  0  0  0  0  0  0  0  0  0  0  0
  148.6825  131.9223  155.1081 H   0  0  0  0  0  0  0  0  0  0  0  0
  148.1982  130.2790  153.0332 H   0  0  0  0  0  0  0  0  0  0  0  0
  146.7984  130.8824  153.9361 H   0  0  0  0  0  0  0  0  0  0  0  0
  146.3545  131.6478  150.2566 H   0  0  0  0  0  0  0  0  0  0  0  0
  146.3576  130.2051  151.2376 H   0  0  0  0  0  0  0  0  0  0  0  0
  144.0517  131.1592  150.9247 H   0  0  0  0  0  0  0  0  0  0  0  0
  144.4935  131.1119  152.6158 H   0  0  0  0  0  0  0  0  0  0  0  0
  144.7306  133.5730  150.7970 H   0  0  0  0  0  0  0  0  0  0  0  0
  143.4835  133.3184  152.0016 H   0  0  0  0  0  0  0  0  0  0  0  0
  145.3052  134.7276  152.9353 H   0  0  0  0  0  0  0  0  0  0  0  0
  145.1348  133.2203  153.7924 H   0  0  0  0  0  0  0  0  0  0  0  0
  147.3135  133.9865  151.7807 H   0  0  0  0  0  0  0  0  0  0  0  0
  148.0142  131.9921  151.5816 H   0  0  0  0  0  0  0  0  0  0  0  0
  1  2  2  0  0  0  0
  2  3  1  0  0  0  0
  2 16  1  0  0  0  0
  3  4  1  0  0  0  0
  3 26  1  0  0  0  0
  4 15  1  0  0  0  0
  4  5  2  0  0  0  0
  5  6  1  0  0  0  0
  5 27  1  0  0  0  0
  6  7  2  0  0  0  0
  6 28  1  0  0  0  0
  7  8  1  0  0  0  0
  7 14  1  0  0  0  0
  8 13  1  0  0  0  0
  8  9  1  0  0  0  0
  9 10  1  0  0  0  0
  9 29  1  0  0  0  0
  9 30  1  0  0  0  0
 10 11  1  0  0  0  0
 10 31  1  0  0  0  0
 10 32  1  0  0  0  0
 11 12  1  0  0  0  0
 11 33  1  0  0  0  0
 11 34  1  0  0  0  0
 12 13  1  0  0  0  0
 12 35  1  0  0  0  0
 12 36  1  0  0  0  0
 13 37  1  0  0  0  0
 13 38  1  0  0  0  0
 14 15  2  0  0  0  0
 15 39  1  0  0  0  0
 16 17  1  0  0  0  0
 16 40  1  0  0  0  0
 17 25  1  0  0  0  0
 17 18  1  0  0  0  0
 17 41  1  0  0  0  0
 18 19  1  0  0  0  0
 18 42  1  0  0  0  0
 18 43  1  0  0  0  0
 19 20  1  0  0  0  0
 19 44  1  0  0  0  0
 19 45  1  0  0  0  0
 20 25  1  0  0  0  0
 20 21  1  0  0  0  0
 20 55  1  0  0  0  0
 21 22  1  0  0  0  0
 21 46  1  0  0  0  0
 21 47  1  0  0  0  0
 22 23  1  0  0  0  0
 22 48  1  0  0  0  0
 22 49  1  0  0  0  0
 23 24  1  0  0  0  0
 23 50  1  0  0  0  0
 23 51  1  0  0  0  0
 24 25  1  0  0  0  0
 24 52  1  0  0  0  0
 24 53  1  0  0  0  0
 25 54  1  0  0  0  0
M  CHG  1  20   1
M  END
> <s_m_source_file>
AV-unprocessed.smi

> <i_m_source_file_index>
1645

> <i_lp_mmshare_version>
43012

> <i_f3d_flags>
0

> <s_epik_input>
W0NIMl0xW0NIMl1bQ0gyXVtDSDJdW0NASF0oTjEyKVtDQEBIXShbQ0gyXVtDSDJdMilbTkhdQyg9TylbTkhdYzNbY0hdW2NIXWMobltjSF0zKU40W0NIMl1bQ0gyXVtDSDJdW0NIMl1bQ0gyXTQ=

> <s_epik_cmdline>
J2VwaWtfcHl0aG9uJywgJy1waCcsICc3LjAnLCAnLXRuJywgJzgnLCAnLW1hJywgJzIwMCcsICctbWV0YWxfYmluZGluZycsICctaW1hZScsICc8aW5maWxlLm1hZT4nLCAnLW9tYWUnLCAnPG91dGZpbGUubWFlPic=

> <r_lp_tautomer_probability>
1

> <r_epik_Ionization_Penalty>
0.0808019

> <r_epik_Ionization_Penalty_Charging>
0.000974069

> <r_epik_Ionization_Penalty_Neutral>
0.0798278

> <r_epik_State_Penalty>
0.0653665

> <r_epik_Charging_Adjusted_Penalty>
0.0663406

> <i_epik_Tot_Q>
1

> <i_epik_Tot_abs_Q>
1

> <r_epik_Metal_State_Penalty>
0.0585673

> <b_epik_Metal_Only>
0

> <s_lp_Force_Field>
OPLS_2005

> <r_lp_Energy>
57.6774

> <b_lp_Chiralities_Consistent>
1

> <s_lp_Variant>
AV-unprocessed.smi:1645-3

> <Gold.Version>
5.8.1

> <Gold.Id.Protein>
6NUR|6NUR_protein|mol2

> <Gold.PLP.Fitness>
45.8245

> <Gold.PLP.PLP>
-35.6583

> <Gold.PLP.part.hbond>
-4.0402

> <Gold.PLP.part.metal>
0.0000

> <Gold.PLP.part.buried>
-2.3874

> <Gold.PLP.part.nonpolar>
-29.5969

> <Gold.PLP.part.repulsive>
0.0801

> <Gold.PLP.ligand.clash>
0.0000

> <Gold.PLP.ligand.torsion>
0.5438

> <Gold.PLP.Chemscore.Hbond>
3.6140

> <Gold.PLP.Chemscore.CHOScore>
0.0000

> <Gold.PLP.Chemscore.Metal>
0.0000

> <Gold.Chemscore.Hbonds>
donor molecule, donor type, donor heavy atom, donor atom, acceptor molecule, acceptor atom, score
      L1  H     3    26       P1  7948  0.90
      L1  H    16    40       P1  7948  1.00
      L1  H    20    55       P1 10747  0.77
      P1  H  7997  8009       L1     8  0.90

> <Gold.PLP.Chemscore.Internal.Correction>
0.4118

> <Gold.Rescore>
     Score         DG    S(hbond)    S(metal)    S(lipo)     H(rot)  DE(clash)    DE(int)     intcor
     20.90     -22.75       2.41        0.00     104.37       1.17       0.02       1.83       ----

> <Gold.Chemscore.Fitness>
20.8992

> <Gold.Chemscore.DG>
-22.7476

> <Gold.Chemscore.ZeroCoef>
-5.4800

> <Gold.Chemscore.Hbond>
2.4129

> <Gold.Chemscore.Metal>
0.0000

> <Gold.Chemscore.Lipo>
104.3728

> <Gold.Chemscore.Internal_Hbond>
0.0000

> <Gold.Chemscore.DEClash>
0.0164

> <Gold.Chemscore.DEInternal>
1.8319

> <Gold.Chemscore.Rot>
1.1731

> <Gold.Chemscore.Internal.Correction>
   9.000000E+99

> <Gold.Chemscore.Hbonds>
donor molecule, donor type, donor heavy atom, donor atom, acceptor molecule, acceptor atom, score
      L1  H     3    26       P1  7948  0.22
      L1  H    16    40       P1  7948  0.37
      L1  H    20    55       P1 10747  0.74
      P1  H  7997  8009       L1     8  0.03

> <Gold.Chemscore.Hbond.Weighted>
-8.0592

> <Gold.Chemscore.Metal.Weighted>
-0.0000

> <Gold.Chemscore.Lipo.Weighted>
-12.2116

> <Gold.Chemscore.Internal_Hbond.Weighted>
0.0000

> <Gold.Chemscore.DEClash.Weighted>
0.0164

> <Gold.Chemscore.DEInternal.Weighted>
1.8319

> <Gold.Chemscore.Rot.Weighted>
3.0032

> <Gold.Chemscore.Internal.Correction.Weighted>
   9.000000E+99

> <Gold.Protein.RotatedTorsions>
[ 6907 6896 6895 6894 ] final  -98.02 input  -60.11 | X-H torsion
[ 7974 7965 7964 7962 ] final  -82.89 input  175.53 | X-H torsion
[ 8008 7997 7996 7995 ] final  154.19 input   59.86 | X-H torsion
[ 10167 10162 10161 10158 ] final  -82.05 input  -65.29 | X-H torsion
[ 10718 10713 10712 10709 ] final  120.40 input   66.30 | X-H torsion
[ 10763 10752 10751 10750 ] final -151.09 input  -60.55 | X-H torsion
[ 11005 11000 10999 10996 ] final   -4.47 input  -57.11 | X-H torsion

> <Gold.Protein.ActiveResidues>
 VAL166  LYS551  ARG553  GLY616  TRP617  ASP618  TYR619  PRO620  LYS621  CYS622 
 ASP623  PHE694  ASN695  SER759  ASP760  ASP761  ALA762  ILE779  LEU786  VAL792 
 PHE793  MET794  SER795  GLU796  ALA797  LYS798  CYS799  TRP800  GLU811  SER814 

> <Gold.Protein.RotatedAtoms>
  150.7034  134.1258  159.4051 H   0  0  0  0  0  0  0  0  0  0  0  0  # atno 6907 bound_to 6896
  151.9244  135.0282  160.0534 H   0  0  0  0  0  0  0  0  0  0  0  0  # atno 6908 bound_to 6896
  152.2229  133.4962  159.5209 H   0  0  0  0  0  0  0  0  0  0  0  0  # atno 6909 bound_to 6896
  145.5273  140.9525  143.1622 H   0  0  0  0  0  0  0  0  0  0  0  0  # atno 7974 bound_to 7965
  156.2544  140.1973  156.6608 H   0  0  0  0  0  0  0  0  0  0  0  0  # atno 8008 bound_to 7997
  154.6466  140.0577  156.9933 H   0  0  0  0  0  0  0  0  0  0  0  0  # atno 8009 bound_to 7997
  155.1481  140.3249  155.4440 H   0  0  0  0  0  0  0  0  0  0  0  0  # atno 8010 bound_to 7997
  140.4356  143.2533  151.8698 H   0  0  0  0  0  0  0  0  0  0  0  0  # atno 10167 bound_to 10162
  157.5893  131.1066  150.8030 H   0  0  0  0  0  0  0  0  0  0  0  0  # atno 10718 bound_to 10713
  154.8079  135.3268  154.7382 H   0  0  0  0  0  0  0  0  0  0  0  0  # atno 10763 bound_to 10752
  153.8037  135.6901  153.4856 H   0  0  0  0  0  0  0  0  0  0  0  0  # atno 10764 bound_to 10752
  153.1837  135.4577  155.0006 H   0  0  0  0  0  0  0  0  0  0  0  0  # atno 10765 bound_to 10752
  140.6806  133.9157  155.8553 H   0  0  0  0  0  0  0  0  0  0  0  0  # atno 11005 bound_to 11000
  144.7644  139.6879  143.7221 LP  0  0  0  0  0  0  0  0  0  0  0  0  # atno 17320 bound_to 7965
  146.2067  139.5396  142.9708 LP  0  0  0  0  0  0  0  0  0  0  0  0  # atno 17321 bound_to 7965
  139.4787  144.5286  151.8699 LP  0  0  0  0  0  0  0  0  0  0  0  0  # atno 17342 bound_to 10162
  140.4377  144.2028  150.5890 LP  0  0  0  0  0  0  0  0  0  0  0  0  # atno 17343 bound_to 10162
  156.8456  130.5063  149.5317 LP  0  0  0  0  0  0  0  0  0  0  0  0  # atno 17370 bound_to 10713
  156.0946  130.5922  150.9792 LP  0  0  0  0  0  0  0  0  0  0  0  0  # atno 17371 bound_to 10713
  141.0320  134.0742  157.4002 LP  0  0  0  0  0  0  0  0  0  0  0  0  # atno 17394 bound_to 11000
  139.8953  135.0140  156.6994 LP  0  0  0  0  0  0  0  0  0  0  0  0  # atno 17395 bound_to 11000

$$$$
