AV-unprocessed.smi:1808|AV-procd|sdf|7308|dock5
  -GOLD-   22720 8563D 1   1.00000     0.00000
 Structure written by MMmdl.
 27 28  0  0  0  0  0  0  0  0  2 V2000
  150.8874  140.5192  155.2555 O   0  0  0  0  0  0  0  0  0  0  0  0
  150.1244  141.4712  155.4354 C   0  0  0  0  0  0  0  0  0  0  0  0
  150.4061  142.3818  156.3762 N   0  0  0  0  0  0  0  0  0  0  0  0
  151.5782  142.3595  157.2409 C   0  0  0  0  0  0  0  0  0  0  0  0
  151.2944  143.0984  158.5556 C   0  0  1  0  0  0  0  0  0  0  0  0
  152.4509  143.0569  159.5510 C   0  0  0  0  0  0  0  0  0  0  0  0
  152.1985  144.2730  160.4273 C   0  0  0  0  0  0  0  0  0  0  0  0
  151.2584  145.1467  159.5905 C   0  0  0  0  0  0  0  0  0  0  0  0
  151.1477  144.4923  158.3336 O   0  0  0  0  0  0  0  0  0  0  0  0
  148.9789  141.7200  154.7604 N   0  5  0  0  0  0  0  0  0  0  0  0
  148.3811  140.7381  154.0662 C   0  0  0  0  0  0  0  0  0  0  0  0
  147.3227  140.9434  153.2738 N   0  0  0  0  0  0  0  0  0  0  0  0
  146.8677  139.7837  152.6437 C   0  0  0  0  0  0  0  0  0  0  0  0
  147.6026  138.6711  152.9560 C   0  0  0  0  0  0  0  0  0  0  0  0
  148.8957  139.0489  154.0582 S   0  0  0  0  0  0  0  0  0  0  0  0
  149.7624  143.1504  156.4931 H   0  0  0  0  0  0  0  0  0  0  0  0
  151.8415  141.3216  157.4490 H   0  0  0  0  0  0  0  0  0  0  0  0
  152.4271  142.8128  156.7266 H   0  0  0  0  0  0  0  0  0  0  0  0
  150.3879  142.7120  159.0256 H   0  0  0  0  0  0  0  0  0  0  0  0
  152.4898  142.1251  160.1156 H   0  0  0  0  0  0  0  0  0  0  0  0
  153.4012  143.1745  159.0281 H   0  0  0  0  0  0  0  0  0  0  0  0
  151.7183  143.9888  161.3641 H   0  0  0  0  0  0  0  0  0  0  0  0
  153.1293  144.7869  160.6691 H   0  0  0  0  0  0  0  0  0  0  0  0
  150.2730  145.2041  160.0551 H   0  0  0  0  0  0  0  0  0  0  0  0
  151.6342  146.1621  159.4643 H   0  0  0  0  0  0  0  0  0  0  0  0
  146.0130  139.8426  151.9863 H   0  0  0  0  0  0  0  0  0  0  0  0
  147.4650  137.6590  152.6071 H   0  0  0  0  0  0  0  0  0  0  0  0
  1  2  2  0  0  0  0
  2  3  1  0  0  0  0
  2 10  1  0  0  0  0
  3  4  1  0  0  0  0
  3 16  1  0  0  0  0
  4  5  1  0  0  0  0
  4 17  1  0  0  0  0
  4 18  1  0  0  0  0
  5  9  1  0  0  0  0
  5  6  1  0  0  0  0
  5 19  1  0  0  0  0
  6  7  1  0  0  0  0
  6 20  1  0  0  0  0
  6 21  1  0  0  0  0
  7  8  1  0  0  0  0
  7 22  1  0  0  0  0
  7 23  1  0  0  0  0
  8  9  1  0  0  0  0
  8 24  1  0  0  0  0
  8 25  1  0  0  0  0
 10 11  1  0  0  0  0
 11 15  1  0  0  0  0
 11 12  2  0  0  0  0
 12 13  1  0  0  0  0
 13 14  2  0  0  0  0
 13 26  1  0  0  0  0
 14 15  1  0  0  0  0
 14 27  1  0  0  0  0
M  CHG  1  10  -1
M  END
> <s_m_source_file>
AV-unprocessed.smi

> <i_m_source_file_index>
1808

> <i_lp_mmshare_version>
43012

> <i_f3d_flags>
0

> <s_epik_input>
czFbY0hdW2NIXW5jMVtOSF1DKD1PKVtOSF1bQ0gyXVtDQEBIXTJbQ0gyXVtDSDJdW0NIMl1PMg==

> <s_epik_cmdline>
J2VwaWtfcHl0aG9uJywgJy1waCcsICc3LjAnLCAnLXRuJywgJzgnLCAnLW1hJywgJzIwMCcsICctbWV0YWxfYmluZGluZycsICctaW1hZScsICc8aW5maWxlLm1hZT4nLCAnLW9tYWUnLCAnPG91dGZpbGUubWFlPic=

> <r_lp_tautomer_probability>
0.999

> <r_epik_Ionization_Penalty>
8.26346

> <r_epik_Ionization_Penalty_Charging>
6.6559

> <r_epik_Ionization_Penalty_Neutral>
1.60756

> <r_epik_State_Penalty>
6.65607

> <r_epik_Charging_Adjusted_Penalty>
13.312

> <i_epik_Tot_Q>
-1

> <i_epik_Tot_abs_Q>
1

> <r_epik_Metal_State_Penalty>
2.5789

> <b_epik_Metal_Only>
1

> <s_lp_Force_Field>
OPLS_2005

> <r_lp_Energy>
13.0287

> <b_lp_Chiralities_Consistent>
1

> <s_lp_Variant>
AV-unprocessed.smi:1808-4

> <Gold.Version>
5.8.1

> <Gold.Id.Protein>
6NUR|6NUR_protein|mol2

> <Gold.PLP.Fitness>
39.4219

> <Gold.PLP.PLP>
-28.3630

> <Gold.PLP.part.hbond>
-2.0000

> <Gold.PLP.part.metal>
0.0000

> <Gold.PLP.part.buried>
-2.1755

> <Gold.PLP.part.nonpolar>
-24.0593

> <Gold.PLP.part.repulsive>
0.6106

> <Gold.PLP.ligand.clash>
0.0025

> <Gold.PLP.ligand.torsion>
0.2843

> <Gold.PLP.Chemscore.Hbond>
1.9360

> <Gold.PLP.Chemscore.CHOScore>
1.9252

> <Gold.PLP.Chemscore.Metal>
0.0000

> <Gold.Chemscore.Hbonds>
donor molecule, donor type, donor heavy atom, donor atom, acceptor molecule, acceptor atom, score
      L1  H     3    16       P1  8028  0.94
      P1  H  7989  7998       L1     1  0.98
      L1  C    13    26       P1 10175  1.00
      L1  C    14    27       P1  7948  0.98

> <Gold.PLP.Chemscore.Internal.Correction>
0.0466

> <Gold.Rescore>
     Score         DG    S(hbond)    S(metal)    S(lipo)     H(rot)  DE(clash)    DE(int)     intcor
     13.67     -16.12       1.52        0.00      76.08       1.30       0.73       1.72       ----

> <Gold.Chemscore.Fitness>
13.6698

> <Gold.Chemscore.DG>
-16.1179

> <Gold.Chemscore.ZeroCoef>
-5.4800

> <Gold.Chemscore.Hbond>
1.5163

> <Gold.Chemscore.Metal>
0.0000

> <Gold.Chemscore.Lipo>
76.0812

> <Gold.Chemscore.Internal_Hbond>
0.0000

> <Gold.Chemscore.DEClash>
0.7321

> <Gold.Chemscore.DEInternal>
1.7161

> <Gold.Chemscore.Rot>
1.3000

> <Gold.Chemscore.Internal.Correction>
   9.000000E+99

> <Gold.Chemscore.Hbonds>
donor molecule, donor type, donor heavy atom, donor atom, acceptor molecule, acceptor atom, score
      L1  H     3    16       P1  8028  0.89
      P1  H  7989  7998       L1     1  0.37

> <Gold.Chemscore.Hbond.Weighted>
-5.0644

> <Gold.Chemscore.Metal.Weighted>
-0.0000

> <Gold.Chemscore.Lipo.Weighted>
-8.9015

> <Gold.Chemscore.Internal_Hbond.Weighted>
0.0000

> <Gold.Chemscore.DEClash.Weighted>
0.7321

> <Gold.Chemscore.DEInternal.Weighted>
1.7161

> <Gold.Chemscore.Rot.Weighted>
3.3280

> <Gold.Chemscore.Internal.Correction.Weighted>
   9.000000E+99

> <Gold.Protein.RotatedTorsions>
[ 6907 6896 6895 6894 ] final -143.77 input  -60.11 | X-H torsion
[ 7974 7965 7964 7962 ] final -124.45 input  175.53 | X-H torsion
[ 8008 7997 7996 7995 ] final   59.59 input   59.86 | X-H torsion
[ 10167 10162 10161 10158 ] final  157.44 input  -65.29 | X-H torsion
[ 10718 10713 10712 10709 ] final  -88.62 input   66.30 | X-H torsion
[ 10763 10752 10751 10750 ] final   -8.41 input  -60.55 | X-H torsion
[ 11005 11000 10999 10996 ] final  -15.25 input  -57.11 | X-H torsion

> <Gold.Protein.ActiveResidues>
 VAL166  LYS551  ARG553  GLY616  TRP617  ASP618  TYR619  PRO620  LYS621  CYS622 
 ASP623  PHE694  ASN695  SER759  ASP760  ASP761  ALA762  ILE779  LEU786  VAL792 
 PHE793  MET794  SER795  GLU796  ALA797  LYS798  CYS799  TRP800  GLU811  SER814 

> <Gold.Protein.RotatedAtoms>
  151.1050  133.5215  159.2607 H   0  0  0  0  0  0  0  0  0  0  0  0  # atno 6907 bound_to 6896
  151.2031  135.0450  159.8890 H   0  0  0  0  0  0  0  0  0  0  0  0  # atno 6908 bound_to 6896
  152.5446  134.0875  159.8316 H   0  0  0  0  0  0  0  0  0  0  0  0  # atno 6909 bound_to 6896
  145.0080  140.7880  143.4456 H   0  0  0  0  0  0  0  0  0  0  0  0  # atno 7974 bound_to 7965
  155.5686  140.3489  155.4509 H   0  0  0  0  0  0  0  0  0  0  0  0  # atno 8008 bound_to 7997
  156.0461  140.1307  157.0128 H   0  0  0  0  0  0  0  0  0  0  0  0  # atno 8009 bound_to 7997
  154.4413  140.1014  156.6293 H   0  0  0  0  0  0  0  0  0  0  0  0  # atno 8010 bound_to 7997
  139.4823  144.4917  151.8298 H   0  0  0  0  0  0  0  0  0  0  0  0  # atno 10167 bound_to 10162
  155.9983  130.4842  150.5047 H   0  0  0  0  0  0  0  0  0  0  0  0  # atno 10718 bound_to 10713
  153.4401  135.7013  153.6174 H   0  0  0  0  0  0  0  0  0  0  0  0  # atno 10763 bound_to 10752
  153.4553  135.3748  155.2307 H   0  0  0  0  0  0  0  0  0  0  0  0  # atno 10764 bound_to 10752
  154.8727  135.4007  154.3798 H   0  0  0  0  0  0  0  0  0  0  0  0  # atno 10765 bound_to 10752
  140.7947  133.8260  155.9413 H   0  0  0  0  0  0  0  0  0  0  0  0  # atno 11005 bound_to 11000
  145.2062  139.2227  143.5167 LP  0  0  0  0  0  0  0  0  0  0  0  0  # atno 17320 bound_to 7965
  146.3464  140.1891  142.8589 LP  0  0  0  0  0  0  0  0  0  0  0  0  # atno 17321 bound_to 7965
  140.4402  144.1996  150.5891 LP  0  0  0  0  0  0  0  0  0  0  0  0  # atno 17342 bound_to 10162
  140.4690  143.2420  151.9115 LP  0  0  0  0  0  0  0  0  0  0  0  0  # atno 17343 bound_to 10162
  157.3027  131.0648  151.2056 LP  0  0  0  0  0  0  0  0  0  0  0  0  # atno 17370 bound_to 10713
  157.3030  130.6852  149.6174 LP  0  0  0  0  0  0  0  0  0  0  0  0  # atno 17371 bound_to 10713
  140.9354  134.1968  157.4835 LP  0  0  0  0  0  0  0  0  0  0  0  0  # atno 17394 bound_to 11000
  139.8727  134.9850  156.5264 LP  0  0  0  0  0  0  0  0  0  0  0  0  # atno 17395 bound_to 11000

$$$$
