AV-unprocessed.smi:1444|AV-procd|sdf|5881|dock9
  -GOLD-   22720 5563D 1   1.00000     0.00000
 Structure written by MMmdl.
 43 44  0  0  0  0  0  0  0  0  1 V2000
  146.2704  137.6394  163.4024 C   0  0  0  0  0  0  0  0  0  0  0  0
  147.0235  137.3497  162.2296 O   0  0  0  0  0  0  0  0  0  0  0  0
  147.0962  136.0384  161.7986 C   0  0  0  0  0  0  0  0  0  0  0  0
  146.3954  135.0975  162.4800 N   0  0  0  0  0  0  0  0  0  0  0  0
  146.4584  133.8182  162.0583 C   0  0  0  0  0  0  0  0  0  0  0  0
  147.2109  133.4123  160.9417 C   0  0  0  0  0  0  0  0  0  0  0  0
  147.9392  134.3861  160.2332 C   0  0  0  0  0  0  0  0  0  0  0  0
  147.8943  135.7329  160.6708 C   0  0  0  0  0  0  0  0  0  0  0  0
  148.5768  136.8059  160.0306 N   0  0  0  0  0  0  0  0  0  0  0  0
  149.4409  136.7753  159.0014 C   0  0  0  0  0  0  0  0  0  0  0  0
  149.8131  135.7636  158.4082 O   0  0  0  0  0  0  0  0  0  0  0  0
  149.8650  138.0100  158.6947 N   0  0  0  0  0  0  0  0  0  0  0  0
  150.8027  138.3479  157.6259 C   0  0  2  0  0  0  0  0  0  0  0  0
  152.0430  137.4563  157.7962 C   0  0  0  0  0  0  0  0  0  0  0  0
  151.0762  139.8721  157.6670 C   0  0  0  0  0  0  0  0  0  0  0  0
  151.5586  140.4206  158.9383 N   0  0  0  0  0  0  0  0  0  0  0  0
  151.5774  141.8837  158.9538 C   0  0  0  0  0  0  0  0  0  0  0  0
  152.1157  142.4406  160.2835 C   0  0  0  0  0  0  0  0  0  0  0  0
  153.4216  141.9276  160.5226 O   0  0  0  0  0  0  0  0  0  0  0  0
  153.4514  140.5052  160.5539 C   0  0  0  0  0  0  0  0  0  0  0  0
  152.9115  139.9491  159.2247 C   0  0  0  0  0  0  0  0  0  0  0  0
  146.3048  138.7110  163.5977 H   0  0  0  0  0  0  0  0  0  0  0  0
  146.6797  137.1309  164.2764 H   0  0  0  0  0  0  0  0  0  0  0  0
  145.2227  137.3597  163.2825 H   0  0  0  0  0  0  0  0  0  0  0  0
  145.8873  133.0976  162.6248 H   0  0  0  0  0  0  0  0  0  0  0  0
  147.2261  132.3775  160.6329 H   0  0  0  0  0  0  0  0  0  0  0  0
  148.5022  134.0763  159.3677 H   0  0  0  0  0  0  0  0  0  0  0  0
  148.4165  137.7142  160.4412 H   0  0  0  0  0  0  0  0  0  0  0  0
  149.5077  138.7805  159.2404 H   0  0  0  0  0  0  0  0  0  0  0  0
  150.3425  138.0972  156.6682 H   0  0  0  0  0  0  0  0  0  0  0  0
  152.6542  137.4439  156.8956 H   0  0  0  0  0  0  0  0  0  0  0  0
  151.7568  136.4199  157.9799 H   0  0  0  0  0  0  0  0  0  0  0  0
  152.6615  137.7829  158.6328 H   0  0  0  0  0  0  0  0  0  0  0  0
  151.8389  140.0634  156.9103 H   0  0  0  0  0  0  0  0  0  0  0  0
  150.1992  140.4249  157.3271 H   0  0  0  0  0  0  0  0  0  0  0  0
  152.1970  142.2539  158.1354 H   0  0  0  0  0  0  0  0  0  0  0  0
  150.5842  142.2900  158.7920 H   0  0  0  0  0  0  0  0  0  0  0  0
  152.1624  143.5292  160.2478 H   0  0  0  0  0  0  0  0  0  0  0  0
  151.4549  142.1746  161.1101 H   0  0  0  0  0  0  0  0  0  0  0  0
  154.4773  140.1741  160.7148 H   0  0  0  0  0  0  0  0  0  0  0  0
  152.8598  140.1396  161.3945 H   0  0  0  0  0  0  0  0  0  0  0  0
  152.9223  138.8594  159.2679 H   0  0  0  0  0  0  0  0  0  0  0  0
  153.5835  140.2356  158.4141 H   0  0  0  0  0  0  0  0  0  0  0  0
  1  2  1  0  0  0  0
  1 22  1  0  0  0  0
  1 23  1  0  0  0  0
  1 24  1  0  0  0  0
  2  3  1  0  0  0  0
  3  8  1  0  0  0  0
  3  4  2  0  0  0  0
  4  5  1  0  0  0  0
  5  6  2  0  0  0  0
  5 25  1  0  0  0  0
  6  7  1  0  0  0  0
  6 26  1  0  0  0  0
  7  8  2  0  0  0  0
  7 27  1  0  0  0  0
  8  9  1  0  0  0  0
  9 10  1  0  0  0  0
  9 28  1  0  0  0  0
 10 11  2  0  0  0  0
 10 12  1  0  0  0  0
 12 13  1  0  0  0  0
 12 29  1  0  0  0  0
 13 14  1  0  0  0  0
 13 15  1  0  0  0  0
 13 30  1  0  0  0  0
 14 31  1  0  0  0  0
 14 32  1  0  0  0  0
 14 33  1  0  0  0  0
 15 16  1  0  0  0  0
 15 34  1  0  0  0  0
 15 35  1  0  0  0  0
 16 21  1  0  0  0  0
 16 17  1  0  0  0  0
 17 18  1  0  0  0  0
 17 36  1  0  0  0  0
 17 37  1  0  0  0  0
 18 19  1  0  0  0  0
 18 38  1  0  0  0  0
 18 39  1  0  0  0  0
 19 20  1  0  0  0  0
 20 21  1  0  0  0  0
 20 40  1  0  0  0  0
 20 41  1  0  0  0  0
 21 42  1  0  0  0  0
 21 43  1  0  0  0  0
M  END
> <s_m_source_file>
AV-unprocessed.smi

> <i_m_source_file_index>
1444

> <i_lp_mmshare_version>
43012

> <i_f3d_flags>
0

> <s_epik_input>
W0NIM11PYzFuW2NIXVtjSF1bY0hdYzFbTkhdQyg9TylbTkhdW0NASF0oW0NIM10pW0NIMl1OMltDSDJdW0NIMl1PW0NIMl1bQ0gyXTI=

> <s_epik_cmdline>
J2VwaWtfcHl0aG9uJywgJy1waCcsICc3LjAnLCAnLXRuJywgJzgnLCAnLW1hJywgJzIwMCcsICctbWV0YWxfYmluZGluZycsICctaW1hZScsICc8aW5maWxlLm1hZT4nLCAnLW9tYWUnLCAnPG91dGZpbGUubWFlPic=

> <r_lp_tautomer_probability>
1

> <r_epik_Ionization_Penalty>
0.266086

> <r_epik_Ionization_Penalty_Charging>
0

> <r_epik_Ionization_Penalty_Neutral>
0.266086

> <r_epik_State_Penalty>
0.257924

> <r_epik_Charging_Adjusted_Penalty>
0.257924

> <i_epik_Tot_Q>
0

> <i_epik_Tot_abs_Q>
0

> <r_epik_Metal_State_Penalty>
0.25792

> <b_epik_Metal_Only>
0

> <s_lp_Force_Field>
OPLS_2005

> <r_lp_Energy>
29.2367

> <b_lp_Chiralities_Consistent>
1

> <s_lp_Variant>
AV-unprocessed.smi:1444-1

> <Gold.Version>
5.8.1

> <Gold.Id.Protein>
6NUR|6NUR_protein|mol2

> <Gold.PLP.Fitness>
38.8045

> <Gold.PLP.PLP>
-32.0948

> <Gold.PLP.part.hbond>
-3.0000

> <Gold.PLP.part.metal>
0.0000

> <Gold.PLP.part.buried>
-6.0215

> <Gold.PLP.part.nonpolar>
-23.5409

> <Gold.PLP.part.repulsive>
0.4267

> <Gold.PLP.ligand.clash>
0.0000

> <Gold.PLP.ligand.torsion>
0.1069

> <Gold.PLP.Chemscore.Hbond>
2.2960

> <Gold.PLP.Chemscore.CHOScore>
0.0000

> <Gold.PLP.Chemscore.Metal>
0.0000

> <Gold.Chemscore.Hbonds>
donor molecule, donor type, donor heavy atom, donor atom, acceptor molecule, acceptor atom, score
      P1  H  6896  6909       L1    11  1.00
      P1  H  6931  6943       L1     2  0.39
      P1  H  6934  6947       L1     2  0.55

> <Gold.PLP.Chemscore.Internal.Correction>
0.0356

> <Gold.Rescore>
     Score         DG    S(hbond)    S(metal)    S(lipo)     H(rot)  DE(clash)    DE(int)     intcor
     13.18     -16.15       1.72        0.00      79.59       1.72       0.15       2.82       ----

> <Gold.Chemscore.Fitness>
13.1773

> <Gold.Chemscore.DG>
-16.1472

> <Gold.Chemscore.ZeroCoef>
-5.4800

> <Gold.Chemscore.Hbond>
1.7231

> <Gold.Chemscore.Metal>
0.0000

> <Gold.Chemscore.Lipo>
79.5930

> <Gold.Chemscore.Internal_Hbond>
0.0000

> <Gold.Chemscore.DEClash>
0.1515

> <Gold.Chemscore.DEInternal>
2.8184

> <Gold.Chemscore.Rot>
1.7189

> <Gold.Chemscore.Internal.Correction>
   9.000000E+99

> <Gold.Chemscore.Hbonds>
donor molecule, donor type, donor heavy atom, donor atom, acceptor molecule, acceptor atom, score
      P1  H  6896  6909       L1    11  0.80
      P1  H  6931  6943       L1     2  0.24
      P1  H  6934  6947       L1     2  0.43

> <Gold.Chemscore.Hbond.Weighted>
-5.7553

> <Gold.Chemscore.Metal.Weighted>
-0.0000

> <Gold.Chemscore.Lipo.Weighted>
-9.3124

> <Gold.Chemscore.Internal_Hbond.Weighted>
0.0000

> <Gold.Chemscore.DEClash.Weighted>
0.1515

> <Gold.Chemscore.DEInternal.Weighted>
2.8184

> <Gold.Chemscore.Rot.Weighted>
4.4004

> <Gold.Chemscore.Internal.Correction.Weighted>
   9.000000E+99

> <Gold.Protein.RotatedTorsions>
[ 6907 6896 6895 6894 ] final   49.68 input  -60.11 | X-H torsion
[ 7974 7965 7964 7962 ] final   -8.21 input  175.53 | X-H torsion
[ 8008 7997 7996 7995 ] final -156.51 input   59.86 | X-H torsion
[ 10167 10162 10161 10158 ] final  -11.33 input  -65.29 | X-H torsion
[ 10718 10713 10712 10709 ] final -124.17 input   66.30 | X-H torsion
[ 10763 10752 10751 10750 ] final  -92.10 input  -60.55 | X-H torsion
[ 11005 11000 10999 10996 ] final -175.33 input  -57.11 | X-H torsion

> <Gold.Protein.ActiveResidues>
 VAL166  LYS551  ARG553  GLY616  TRP617  ASP618  TYR619  PRO620  LYS621  CYS622 
 ASP623  PHE694  ASN695  SER759  ASP760  ASP761  ALA762  ILE779  LEU786  VAL792 
 PHE793  MET794  SER795  GLU796  ALA797  LYS798  CYS799  TRP800  GLU811  SER814 

> <Gold.Protein.RotatedAtoms>
  152.2934  134.7695  160.0372 H   0  0  0  0  0  0  0  0  0  0  0  0  # atno 6907 bound_to 6896
  151.8233  133.3392  159.3599 H   0  0  0  0  0  0  0  0  0  0  0  0  # atno 6908 bound_to 6896
  150.7240  134.5482  159.5826 H   0  0  0  0  0  0  0  0  0  0  0  0  # atno 6909 bound_to 6896
  146.2286  140.2434  142.8344 H   0  0  0  0  0  0  0  0  0  0  0  0  # atno 7974 bound_to 7965
  155.7182  140.0787  157.2342 H   0  0  0  0  0  0  0  0  0  0  0  0  # atno 8008 bound_to 7997
  154.4049  140.1617  156.2427 H   0  0  0  0  0  0  0  0  0  0  0  0  # atno 8009 bound_to 7997
  155.9220  140.3397  155.6183 H   0  0  0  0  0  0  0  0  0  0  0  0  # atno 8010 bound_to 7997
  140.7136  143.5651  150.9153 H   0  0  0  0  0  0  0  0  0  0  0  0  # atno 10167 bound_to 10162
  156.1565  130.6571  150.9989 H   0  0  0  0  0  0  0  0  0  0  0  0  # atno 10718 bound_to 10713
  154.6827  135.5243  153.8285 H   0  0  0  0  0  0  0  0  0  0  0  0  # atno 10763 bound_to 10752
  153.0576  135.6556  154.0549 H   0  0  0  0  0  0  0  0  0  0  0  0  # atno 10764 bound_to 10752
  154.0434  135.2975  155.3331 H   0  0  0  0  0  0  0  0  0  0  0  0  # atno 10765 bound_to 10752
  140.4646  134.6223  157.4857 H   0  0  0  0  0  0  0  0  0  0  0  0  # atno 11005 bound_to 11000
  144.9467  140.8135  143.5597 LP  0  0  0  0  0  0  0  0  0  0  0  0  # atno 17320 bound_to 7965
  145.2391  139.2080  143.5002 LP  0  0  0  0  0  0  0  0  0  0  0  0  # atno 17321 bound_to 7965
  139.9376  143.6419  152.3061 LP  0  0  0  0  0  0  0  0  0  0  0  0  # atno 17342 bound_to 10162
  139.6892  144.7648  151.1468 LP  0  0  0  0  0  0  0  0  0  0  0  0  # atno 17343 bound_to 10162
  157.6699  131.0863  150.7638 LP  0  0  0  0  0  0  0  0  0  0  0  0  # atno 17370 bound_to 10713
  156.7703  130.4827  149.5419 LP  0  0  0  0  0  0  0  0  0  0  0  0  # atno 17371 bound_to 10713
  139.9924  134.6965  155.9667 LP  0  0  0  0  0  0  0  0  0  0  0  0  # atno 17394 bound_to 11000
  141.1605  133.6539  156.4305 LP  0  0  0  0  0  0  0  0  0  0  0  0  # atno 17395 bound_to 11000

$$$$
