AV-unprocessed.smi:1446|AV-procd|sdf|5889|dock3
  -GOLD-   22720 5573D 1   1.00000     0.00000
 Structure written by MMmdl.
 47 48  0  0  0  0  0  0  0  0  1 V2000
  155.8581  134.5282  157.7732 C   0  0  0  0  0  0  0  0  0  0  0  0
  155.4530  134.8821  159.1996 C   0  0  0  0  0  0  0  0  0  0  0  0
  154.4644  134.3573  159.7107 O   0  0  0  0  0  0  0  0  0  0  0  0
  156.2297  135.7758  159.8322 N   0  0  0  0  0  0  0  0  0  0  0  0
  156.0269  136.2605  161.1995 C   0  0  2  0  0  0  0  0  0  0  0  0
  155.7725  137.7804  161.1558 C   0  0  0  0  0  0  0  0  0  0  0  0
  156.4654  138.5392  161.8362 O   0  0  0  0  0  0  0  0  0  0  0  0
  154.7618  138.1780  160.3598 N   0  0  0  0  0  0  0  0  0  0  0  0
  154.2868  139.4965  160.1312 C   0  0  0  0  0  0  0  0  0  0  0  0
  152.9205  139.5912  159.7935 C   0  0  0  0  0  0  0  0  0  0  0  0
  152.3507  140.8559  159.5513 C   0  0  0  0  0  0  0  0  0  0  0  0
  153.1576  142.0148  159.6464 C   0  0  0  0  0  0  0  0  0  0  0  0
  152.6559  143.3157  159.4237 N   0  0  0  0  0  0  0  0  0  0  0  0
  151.3884  143.3988  158.7020 C   0  0  0  0  0  0  0  0  0  0  0  0
  151.1306  144.8427  158.2364 C   0  0  0  0  0  0  0  0  0  0  0  0
  151.1961  145.7281  159.3496 O   0  0  0  0  0  0  0  0  0  0  0  0
  152.4809  145.7117  159.9629 C   0  0  0  0  0  0  0  0  0  0  0  0
  152.7839  144.3002  160.4944 C   0  0  0  0  0  0  0  0  0  0  0  0
  154.5139  141.8143  159.9924 C   0  0  0  0  0  0  0  0  0  0  0  0
  155.0611  140.6035  160.2270 N   0  0  0  0  0  0  0  0  0  0  0  0
  157.3049  135.9582  162.0371 C   0  0  0  0  0  0  0  0  0  0  0  0
  157.6421  134.4538  162.0552 C   0  0  0  0  0  0  0  0  0  0  0  0
  157.2053  136.4691  163.4895 C   0  0  0  0  0  0  0  0  0  0  0  0
  155.8031  135.4088  157.1330 H   0  0  0  0  0  0  0  0  0  0  0  0
  155.1987  133.7636  157.3609 H   0  0  0  0  0  0  0  0  0  0  0  0
  156.8790  134.1464  157.7508 H   0  0  0  0  0  0  0  0  0  0  0  0
  157.0165  136.1589  159.3286 H   0  0  0  0  0  0  0  0  0  0  0  0
  155.1716  135.7486  161.6461 H   0  0  0  0  0  0  0  0  0  0  0  0
  154.2772  137.4482  159.8583 H   0  0  0  0  0  0  0  0  0  0  0  0
  152.3082  138.7042  159.7184 H   0  0  0  0  0  0  0  0  0  0  0  0
  151.3052  140.9101  159.2884 H   0  0  0  0  0  0  0  0  0  0  0  0
  151.3709  142.7388  157.8357 H   0  0  0  0  0  0  0  0  0  0  0  0
  150.5853  143.0731  159.3643 H   0  0  0  0  0  0  0  0  0  0  0  0
  151.8556  145.1417  157.4776 H   0  0  0  0  0  0  0  0  0  0  0  0
  150.1437  144.9185  157.7801 H   0  0  0  0  0  0  0  0  0  0  0  0
  153.2415  146.0295  159.2477 H   0  0  0  0  0  0  0  0  0  0  0  0
  152.4933  146.4314  160.7813 H   0  0  0  0  0  0  0  0  0  0  0  0
  152.0925  144.0502  161.3003 H   0  0  0  0  0  0  0  0  0  0  0  0
  153.7933  144.2809  160.9067 H   0  0  0  0  0  0  0  0  0  0  0  0
  155.1890  142.6490  160.1083 H   0  0  0  0  0  0  0  0  0  0  0  0
  158.1519  136.4672  161.5736 H   0  0  0  0  0  0  0  0  0  0  0  0
  156.8210  133.8702  162.4723 H   0  0  0  0  0  0  0  0  0  0  0  0
  158.5280  134.2572  162.6599 H   0  0  0  0  0  0  0  0  0  0  0  0
  157.8509  134.0689  161.0571 H   0  0  0  0  0  0  0  0  0  0  0  0
  156.3420  136.0410  163.9999 H   0  0  0  0  0  0  0  0  0  0  0  0
  157.1182  137.5546  163.5393 H   0  0  0  0  0  0  0  0  0  0  0  0
  158.0935  136.1996  164.0615 H   0  0  0  0  0  0  0  0  0  0  0  0
  1  2  1  0  0  0  0
  1 24  1  0  0  0  0
  1 25  1  0  0  0  0
  1 26  1  0  0  0  0
  2  3  2  0  0  0  0
  2  4  1  0  0  0  0
  4  5  1  0  0  0  0
  4 27  1  0  0  0  0
  5  6  1  0  0  0  0
  5 21  1  0  0  0  0
  5 28  1  0  0  0  0
  6  7  2  0  0  0  0
  6  8  1  0  0  0  0
  8  9  1  0  0  0  0
  8 29  1  0  0  0  0
  9 20  1  0  0  0  0
  9 10  2  0  0  0  0
 10 11  1  0  0  0  0
 10 30  1  0  0  0  0
 11 12  2  0  0  0  0
 11 31  1  0  0  0  0
 12 13  1  0  0  0  0
 12 19  1  0  0  0  0
 13 18  1  0  0  0  0
 13 14  1  0  0  0  0
 14 15  1  0  0  0  0
 14 32  1  0  0  0  0
 14 33  1  0  0  0  0
 15 16  1  0  0  0  0
 15 34  1  0  0  0  0
 15 35  1  0  0  0  0
 16 17  1  0  0  0  0
 17 18  1  0  0  0  0
 17 36  1  0  0  0  0
 17 37  1  0  0  0  0
 18 38  1  0  0  0  0
 18 39  1  0  0  0  0
 19 20  2  0  0  0  0
 19 40  1  0  0  0  0
 21 22  1  0  0  0  0
 21 23  1  0  0  0  0
 21 41  1  0  0  0  0
 22 42  1  0  0  0  0
 22 43  1  0  0  0  0
 22 44  1  0  0  0  0
 23 45  1  0  0  0  0
 23 46  1  0  0  0  0
 23 47  1  0  0  0  0
M  END
> <s_m_source_file>
AV-unprocessed.smi

> <i_m_source_file_index>
1446

> <i_lp_mmshare_version>
43012

> <i_f3d_flags>
0

> <s_epik_input>
W0NIM11DKD1PKVtOSF1bQ0BASF0oW0NIXShbQ0gzXSlbQ0gzXSlDKD1PKVtOSF1jMVtjSF1bY0hdYyhbY0hdbjEpTjJbQ0gyXVtDSDJdT1tDSDJdW0NIMl0y

> <s_epik_cmdline>
J2VwaWtfcHl0aG9uJywgJy1waCcsICc3LjAnLCAnLXRuJywgJzgnLCAnLW1hJywgJzIwMCcsICctbWV0YWxfYmluZGluZycsICctaW1hZScsICc8aW5maWxlLm1hZT4nLCAnLW9tYWUnLCAnPG91dGZpbGUubWFlPic=

> <r_lp_tautomer_probability>
1

> <r_epik_Ionization_Penalty>
0.00298315

> <r_epik_Ionization_Penalty_Charging>
0

> <r_epik_Ionization_Penalty_Neutral>
0.00298315

> <r_epik_State_Penalty>
0.0038483

> <r_epik_Charging_Adjusted_Penalty>
0.0038483

> <i_epik_Tot_Q>
0

> <i_epik_Tot_abs_Q>
0

> <r_epik_Metal_State_Penalty>
-0

> <b_epik_Metal_Only>
0

> <s_lp_Force_Field>
OPLS_2005

> <r_lp_Energy>
27.9322

> <b_lp_Chiralities_Consistent>
1

> <s_lp_Variant>
AV-unprocessed.smi:1446-1

> <Gold.Version>
5.8.1

> <Gold.Id.Protein>
6NUR|6NUR_protein|mol2

> <Gold.PLP.Fitness>
44.5738

> <Gold.PLP.PLP>
-42.1582

> <Gold.PLP.part.hbond>
-2.0000

> <Gold.PLP.part.metal>
0.0000

> <Gold.PLP.part.buried>
-7.1438

> <Gold.PLP.part.nonpolar>
-33.3478

> <Gold.PLP.part.repulsive>
0.2108

> <Gold.PLP.ligand.clash>
0.0000

> <Gold.PLP.ligand.torsion>
0.4899

> <Gold.PLP.Chemscore.Hbond>
1.0000

> <Gold.PLP.Chemscore.CHOScore>
0.0000

> <Gold.PLP.Chemscore.Metal>
0.0000

> <Gold.Chemscore.Hbonds>
donor molecule, donor type, donor heavy atom, donor atom, acceptor molecule, acceptor atom, score
      P1  H  6896  6909       L1     3  1.00

> <Gold.PLP.Chemscore.Internal.Correction>
0.3954

> <Gold.Rescore>
     Score         DG    S(hbond)    S(metal)    S(lipo)     H(rot)  DE(clash)    DE(int)     intcor
     14.23     -16.57       1.00        0.00     104.44       1.74       0.24       2.10       ----

> <Gold.Chemscore.Fitness>
14.2284

> <Gold.Chemscore.DG>
-16.5715

> <Gold.Chemscore.ZeroCoef>
-5.4800

> <Gold.Chemscore.Hbond>
0.9953

> <Gold.Chemscore.Metal>
0.0000

> <Gold.Chemscore.Lipo>
104.4430

> <Gold.Chemscore.Internal_Hbond>
0.0000

> <Gold.Chemscore.DEClash>
0.2402

> <Gold.Chemscore.DEInternal>
2.1028

> <Gold.Chemscore.Rot>
1.7394

> <Gold.Chemscore.Internal.Correction>
   9.000000E+99

> <Gold.Chemscore.Hbonds>
donor molecule, donor type, donor heavy atom, donor atom, acceptor molecule, acceptor atom, score
      P1  H  6896  6909       L1     3  1.00

> <Gold.Chemscore.Hbond.Weighted>
-3.3244

> <Gold.Chemscore.Metal.Weighted>
-0.0000

> <Gold.Chemscore.Lipo.Weighted>
-12.2198

> <Gold.Chemscore.Internal_Hbond.Weighted>
0.0000

> <Gold.Chemscore.DEClash.Weighted>
0.2402

> <Gold.Chemscore.DEInternal.Weighted>
2.1028

> <Gold.Chemscore.Rot.Weighted>
4.4528

> <Gold.Chemscore.Internal.Correction.Weighted>
   9.000000E+99

> <Gold.Protein.RotatedTorsions>
[ 6907 6896 6895 6894 ] final -158.59 input  -60.11 | X-H torsion
[ 7974 7965 7964 7962 ] final  122.25 input  175.53 | X-H torsion
[ 8008 7997 7996 7995 ] final    1.25 input   59.86 | X-H torsion
[ 10167 10162 10161 10158 ] final  -11.98 input  -65.29 | X-H torsion
[ 10718 10713 10712 10709 ] final   48.20 input   66.30 | X-H torsion
[ 10763 10752 10751 10750 ] final  -57.02 input  -60.55 | X-H torsion
[ 11005 11000 10999 10996 ] final  149.93 input  -57.11 | X-H torsion

> <Gold.Protein.ActiveResidues>
 VAL166  LYS551  ARG553  GLY616  TRP617  ASP618  TYR619  PRO620  LYS621  CYS622 
 ASP623  PHE694  ASN695  SER759  ASP760  ASP761  ALA762  ILE779  LEU786  VAL792 
 PHE793  MET794  SER795  GLU796  ALA797  LYS798  CYS799  TRP800  GLU811  SER814 

> <Gold.Protein.RotatedAtoms>
  151.3205  133.4042  159.2653 H   0  0  0  0  0  0  0  0  0  0  0  0  # atno 6907 bound_to 6896
  151.0038  134.9344  159.7979 H   0  0  0  0  0  0  0  0  0  0  0  0  # atno 6908 bound_to 6896
  152.5282  134.3170  159.9187 H   0  0  0  0  0  0  0  0  0  0  0  0  # atno 6909 bound_to 6896
  145.1098  139.3461  143.4769 H   0  0  0  0  0  0  0  0  0  0  0  0  # atno 7974 bound_to 7965
  154.6776  140.2625  155.6942 H   0  0  0  0  0  0  0  0  0  0  0  0  # atno 8008 bound_to 7997
  156.2684  140.2817  156.1230 H   0  0  0  0  0  0  0  0  0  0  0  0  # atno 8009 bound_to 7997
  155.1078  140.0375  157.2705 H   0  0  0  0  0  0  0  0  0  0  0  0  # atno 8010 bound_to 7997
  140.7151  143.5582  150.9225 H   0  0  0  0  0  0  0  0  0  0  0  0  # atno 10167 bound_to 10162
  157.4662  130.8227  149.7939 H   0  0  0  0  0  0  0  0  0  0  0  0  # atno 10718 bound_to 10713
  154.2159  135.6386  153.5129 H   0  0  0  0  0  0  0  0  0  0  0  0  # atno 10763 bound_to 10752
  152.9979  135.5485  154.6166 H   0  0  0  0  0  0  0  0  0  0  0  0  # atno 10764 bound_to 10752
  154.5614  135.2909  155.0889 H   0  0  0  0  0  0  0  0  0  0  0  0  # atno 10765 bound_to 10752
  140.1087  134.8938  157.1904 H   0  0  0  0  0  0  0  0  0  0  0  0  # atno 11005 bound_to 11000
  146.3527  140.1012  142.8608 LP  0  0  0  0  0  0  0  0  0  0  0  0  # atno 17320 bound_to 7965
  145.0860  140.9253  143.4797 LP  0  0  0  0  0  0  0  0  0  0  0  0  # atno 17321 bound_to 7965
  139.9307  143.6497  152.3077 LP  0  0  0  0  0  0  0  0  0  0  0  0  # atno 17342 bound_to 10162
  139.6946  144.7643  151.1378 LP  0  0  0  0  0  0  0  0  0  0  0  0  # atno 17343 bound_to 10162
  156.0052  130.3859  150.2459 LP  0  0  0  0  0  0  0  0  0  0  0  0  # atno 17370 bound_to 10713
  157.0639  131.0097  151.3213 LP  0  0  0  0  0  0  0  0  0  0  0  0  # atno 17371 bound_to 10713
  140.3120  134.3013  155.7264 LP  0  0  0  0  0  0  0  0  0  0  0  0  # atno 17394 bound_to 11000
  141.2125  133.7656  156.9790 LP  0  0  0  0  0  0  0  0  0  0  0  0  # atno 17395 bound_to 11000

$$$$
