AV-unprocessed.smi:2702|AV-procd|sdf|10434|dock7
  -GOLD-   2272014473D 1   1.00000     0.00000
 Structure written by MMmdl.
 47 48  0  0  0  0  0  0  0  0  1 V2000
  144.4115  143.7979  156.0628 C   0  0  0  0  0  0  0  0  0  0  0  0
  145.5242  143.0413  156.5061 O   0  0  0  0  0  0  0  0  0  0  0  0
  146.4194  142.7249  155.4531 C   0  0  0  0  0  0  0  0  0  0  0  0
  147.6026  141.9401  155.9820 C   0  0  0  0  0  0  0  0  0  0  0  0
  148.7541  141.8185  155.2813 C   0  0  0  0  0  0  0  0  0  0  0  0
  149.8744  141.0440  155.8157 C   0  0  0  0  0  0  0  0  0  0  0  0
  150.9391  140.9129  155.2111 O   0  0  0  0  0  0  0  0  0  0  0  0
  149.6504  140.4777  157.0385 N   0  0  0  0  0  0  0  0  0  0  0  0
  150.6871  139.6713  157.7083 C   0  0  0  0  0  0  0  0  0  0  0  0
  152.0056  140.4316  157.9106 C   0  0  0  0  0  0  0  0  0  0  0  0
  153.0031  140.1459  157.2471 O   0  0  0  0  0  0  0  0  0  0  0  0
  151.9876  141.3937  158.8455 N   0  0  0  0  0  0  0  0  0  0  0  0
  153.1020  142.2720  159.2083 C   0  0  2  0  0  0  0  0  0  0  0  0
  153.8971  141.6517  160.3719 C   0  0  0  0  0  0  0  0  0  0  0  0
  153.0987  141.6680  161.6836 C   0  0  0  0  0  0  0  0  0  0  0  0
  152.6345  143.0898  162.0267 C   0  0  0  0  0  0  0  0  0  0  0  0
  151.8117  143.7261  160.8870 C   0  0  1  0  0  0  0  0  0  0  0  0
  151.3646  145.1410  161.2964 C   0  0  0  0  0  0  0  0  0  0  0  0
  152.6126  143.7040  159.5547 C   0  0  2  0  0  0  0  0  0  0  0  0
  151.8459  144.3400  158.3771 C   0  0  0  0  0  0  0  0  0  0  0  0
  148.4248  140.6237  157.7185 C   0  0  0  0  0  0  0  0  0  0  0  0
  147.4487  141.3165  157.2243 N   0  0  0  0  0  0  0  0  0  0  0  0
  143.7582  144.0175  156.9073 H   0  0  0  0  0  0  0  0  0  0  0  0
  143.8305  143.2472  155.3219 H   0  0  0  0  0  0  0  0  0  0  0  0
  144.7279  144.7461  155.6260 H   0  0  0  0  0  0  0  0  0  0  0  0
  145.9110  142.1281  154.6937 H   0  0  0  0  0  0  0  0  0  0  0  0
  146.7663  143.6389  154.9674 H   0  0  0  0  0  0  0  0  0  0  0  0
  148.8560  142.2979  154.3185 H   0  0  0  0  0  0  0  0  0  0  0  0
  150.3131  139.3318  158.6764 H   0  0  0  0  0  0  0  0  0  0  0  0
  150.9065  138.7561  157.1555 H   0  0  0  0  0  0  0  0  0  0  0  0
  151.1196  141.5485  159.3375 H   0  0  0  0  0  0  0  0  0  0  0  0
  153.7878  142.3483  158.3627 H   0  0  0  0  0  0  0  0  0  0  0  0
  154.1928  140.6310  160.1262 H   0  0  0  0  0  0  0  0  0  0  0  0
  154.8235  142.2103  160.5113 H   0  0  0  0  0  0  0  0  0  0  0  0
  152.2341  141.0081  161.6032 H   0  0  0  0  0  0  0  0  0  0  0  0
  153.7116  141.2725  162.4941 H   0  0  0  0  0  0  0  0  0  0  0  0
  152.0440  143.0635  162.9434 H   0  0  0  0  0  0  0  0  0  0  0  0
  153.5053  143.7108  162.2413 H   0  0  0  0  0  0  0  0  0  0  0  0
  150.9089  143.1281  160.7542 H   0  0  0  0  0  0  0  0  0  0  0  0
  152.2154  145.8184  161.3768 H   0  0  0  0  0  0  0  0  0  0  0  0
  150.8603  145.1270  162.2631 H   0  0  0  0  0  0  0  0  0  0  0  0
  150.6618  145.5666  160.5806 H   0  0  0  0  0  0  0  0  0  0  0  0
  153.5067  144.3112  159.7054 H   0  0  0  0  0  0  0  0  0  0  0  0
  150.8664  143.8813  158.2383 H   0  0  0  0  0  0  0  0  0  0  0  0
  152.3997  144.2273  157.4446 H   0  0  0  0  0  0  0  0  0  0  0  0
  151.6939  145.4087  158.5265 H   0  0  0  0  0  0  0  0  0  0  0  0
  148.3571  140.1127  158.6802 H   0  0  0  0  0  0  0  0  0  0  0  0
  1  2  1  0  0  0  0
  1 23  1  0  0  0  0
  1 24  1  0  0  0  0
  1 25  1  0  0  0  0
  2  3  1  0  0  0  0
  3  4  1  0  0  0  0
  3 26  1  0  0  0  0
  3 27  1  0  0  0  0
  4 22  1  0  0  0  0
  4  5  2  0  0  0  0
  5  6  1  0  0  0  0
  5 28  1  0  0  0  0
  6  7  2  0  0  0  0
  6  8  1  0  0  0  0
  8  9  1  0  0  0  0
  8 21  1  0  0  0  0
  9 10  1  0  0  0  0
  9 29  1  0  0  0  0
  9 30  1  0  0  0  0
 10 11  2  0  0  0  0
 10 12  1  0  0  0  0
 12 13  1  0  0  0  0
 12 31  1  0  0  0  0
 13 19  1  0  0  0  0
 13 14  1  0  0  0  0
 13 32  1  0  0  0  0
 14 15  1  0  0  0  0
 14 33  1  0  0  0  0
 14 34  1  0  0  0  0
 15 16  1  0  0  0  0
 15 35  1  0  0  0  0
 15 36  1  0  0  0  0
 16 17  1  0  0  0  0
 16 37  1  0  0  0  0
 16 38  1  0  0  0  0
 17 18  1  0  0  0  0
 17 19  1  0  0  0  0
 17 39  1  0  0  0  0
 18 40  1  0  0  0  0
 18 41  1  0  0  0  0
 18 42  1  0  0  0  0
 19 20  1  0  0  0  0
 19 43  1  0  0  0  0
 20 44  1  0  0  0  0
 20 45  1  0  0  0  0
 20 46  1  0  0  0  0
 21 22  2  0  0  0  0
 21 47  1  0  0  0  0
M  END
> <s_m_source_file>
AV-unprocessed.smi

> <i_m_source_file_index>
2702

> <i_lp_mmshare_version>
43012

> <i_f3d_flags>
0

> <s_epik_input>
W0NIM11PW0NIMl1jMVtjSF1jKD1PKW4oW2NIXW4xKVtDSDJdQyg9TylbTkhdW0NAQEhdMltDSDJdW0NIMl1bQ0gyXVtDQEBIXShbQ0gzXSlbQ0BIXTJbQ0gzXQ==

> <s_epik_cmdline>
J2VwaWtfcHl0aG9uJywgJy1waCcsICc3LjAnLCAnLXRuJywgJzgnLCAnLW1hJywgJzIwMCcsICctbWV0YWxfYmluZGluZycsICctaW1hZScsICc8aW5maWxlLm1hZT4nLCAnLW9tYWUnLCAnPG91dGZpbGUubWFlPic=

> <r_lp_tautomer_probability>
1

> <r_epik_Ionization_Penalty>
1.22164e-06

> <r_epik_Ionization_Penalty_Charging>
3.17988e-07

> <r_epik_Ionization_Penalty_Neutral>
9.03656e-07

> <r_epik_State_Penalty>
-0

> <r_epik_Charging_Adjusted_Penalty>
3.17988e-07

> <i_epik_Tot_Q>
0

> <i_epik_Tot_abs_Q>
0

> <r_epik_Metal_State_Penalty>
-0

> <b_epik_Metal_Only>
0

> <s_lp_Force_Field>
OPLS_2005

> <r_lp_Energy>
16.9419

> <b_lp_Chiralities_Consistent>
1

> <s_lp_Variant>
AV-unprocessed.smi:2702-5

> <Gold.Version>
5.8.1

> <Gold.Id.Protein>
6NUR|6NUR_protein|mol2

> <Gold.PLP.Fitness>
57.5583

> <Gold.PLP.PLP>
-52.9983

> <Gold.PLP.part.hbond>
-2.0000

> <Gold.PLP.part.metal>
0.0000

> <Gold.PLP.part.buried>
-6.3947

> <Gold.PLP.part.nonpolar>
-46.3683

> <Gold.PLP.part.repulsive>
0.3999

> <Gold.PLP.ligand.clash>
0.0000

> <Gold.PLP.ligand.torsion>
0.7431

> <Gold.PLP.Chemscore.Hbond>
2.0000

> <Gold.PLP.Chemscore.CHOScore>
0.0000

> <Gold.PLP.Chemscore.Metal>
0.0000

> <Gold.Chemscore.Hbonds>
donor molecule, donor type, donor heavy atom, donor atom, acceptor molecule, acceptor atom, score
      P1  H  7989  7998       L1     7  0.75
      P1  H  7997  8010       L1    11  0.91

> <Gold.PLP.Chemscore.Internal.Correction>
0.0462

> <Gold.Rescore>
     Score         DG    S(hbond)    S(metal)    S(lipo)     H(rot)  DE(clash)    DE(int)     intcor
     19.12     -20.93       1.90        0.00     120.10       1.93       1.38       0.43       ----

> <Gold.Chemscore.Fitness>
19.1171

> <Gold.Chemscore.DG>
-20.9311

> <Gold.Chemscore.ZeroCoef>
-5.4800

> <Gold.Chemscore.Hbond>
1.8972

> <Gold.Chemscore.Metal>
0.0000

> <Gold.Chemscore.Lipo>
120.0963

> <Gold.Chemscore.Internal_Hbond>
0.0000

> <Gold.Chemscore.DEClash>
1.3791

> <Gold.Chemscore.DEInternal>
0.4349

> <Gold.Chemscore.Rot>
1.9284

> <Gold.Chemscore.Internal.Correction>
   9.000000E+99

> <Gold.Chemscore.Hbonds>
donor molecule, donor type, donor heavy atom, donor atom, acceptor molecule, acceptor atom, score
      P1  H  7989  7998       L1     7  0.74
      P1  H  7997  8010       L1    11  0.85

> <Gold.Chemscore.Hbond.Weighted>
-6.3366

> <Gold.Chemscore.Metal.Weighted>
-0.0000

> <Gold.Chemscore.Lipo.Weighted>
-14.0513

> <Gold.Chemscore.Internal_Hbond.Weighted>
0.0000

> <Gold.Chemscore.DEClash.Weighted>
1.3791

> <Gold.Chemscore.DEInternal.Weighted>
0.4349

> <Gold.Chemscore.Rot.Weighted>
4.9368

> <Gold.Chemscore.Internal.Correction.Weighted>
   9.000000E+99

> <Gold.Protein.RotatedTorsions>
[ 6907 6896 6895 6894 ] final  -71.08 input  -60.11 | X-H torsion
[ 7974 7965 7964 7962 ] final -170.34 input  175.53 | X-H torsion
[ 8008 7997 7996 7995 ] final   59.31 input   59.86 | X-H torsion
[ 10167 10162 10161 10158 ] final  146.09 input  -65.29 | X-H torsion
[ 10718 10713 10712 10709 ] final -122.07 input   66.30 | X-H torsion
[ 10763 10752 10751 10750 ] final  131.54 input  -60.55 | X-H torsion
[ 11005 11000 10999 10996 ] final  -21.52 input  -57.11 | X-H torsion

> <Gold.Protein.ActiveResidues>
 VAL166  LYS551  ARG553  GLY616  TRP617  ASP618  TYR619  PRO620  LYS621  CYS622 
 ASP623  PHE694  ASN695  SER759  ASP760  ASP761  ALA762  ILE779  LEU786  VAL792 
 PHE793  MET794  SER795  GLU796  ALA797  LYS798  CYS799  TRP800  GLU811  SER814 

> <Gold.Protein.RotatedAtoms>
  150.7228  134.5360  159.5723 H   0  0  0  0  0  0  0  0  0  0  0  0  # atno 6907 bound_to 6896
  152.2882  134.7749  160.0392 H   0  0  0  0  0  0  0  0  0  0  0  0  # atno 6908 bound_to 6896
  151.8371  133.3382  159.3668 H   0  0  0  0  0  0  0  0  0  0  0  0  # atno 6909 bound_to 6896
  144.7171  140.2087  143.6330 H   0  0  0  0  0  0  0  0  0  0  0  0  # atno 7974 bound_to 7965
  155.5641  140.3489  155.4498 H   0  0  0  0  0  0  0  0  0  0  0  0  # atno 8008 bound_to 7997
  156.0493  140.1314  157.0094 H   0  0  0  0  0  0  0  0  0  0  0  0  # atno 8009 bound_to 7997
  154.4427  140.1008  156.6337 H   0  0  0  0  0  0  0  0  0  0  0  0  # atno 8010 bound_to 7997
  139.4913  144.5854  151.6788 H   0  0  0  0  0  0  0  0  0  0  0  0  # atno 10167 bound_to 10162
  156.1389  130.6451  150.9739 H   0  0  0  0  0  0  0  0  0  0  0  0  # atno 10718 bound_to 10713
  153.7759  135.3175  155.3359 H   0  0  0  0  0  0  0  0  0  0  0  0  # atno 10763 bound_to 10752
  154.8179  135.4623  154.0698 H   0  0  0  0  0  0  0  0  0  0  0  0  # atno 10764 bound_to 10752
  153.1972  135.6917  153.8362 H   0  0  0  0  0  0  0  0  0  0  0  0  # atno 10765 bound_to 10752
  140.8569  133.7816  156.0029 H   0  0  0  0  0  0  0  0  0  0  0  0  # atno 11005 bound_to 11000
  145.8612  139.2223  143.1716 LP  0  0  0  0  0  0  0  0  0  0  0  0  # atno 17320 bound_to 7965
  146.0172  140.8381  142.9941 LP  0  0  0  0  0  0  0  0  0  0  0  0  # atno 17321 bound_to 7965
  140.5469  144.0488  150.6111 LP  0  0  0  0  0  0  0  0  0  0  0  0  # atno 17342 bound_to 10162
  140.3529  143.2952  152.0467 LP  0  0  0  0  0  0  0  0  0  0  0  0  # atno 17343 bound_to 10162
  157.6557  131.0889  150.7952 LP  0  0  0  0  0  0  0  0  0  0  0  0  # atno 17370 bound_to 10713
  156.8029  130.4927  149.5367 LP  0  0  0  0  0  0  0  0  0  0  0  0  # atno 17371 bound_to 10713
  140.8727  134.2706  157.5183 LP  0  0  0  0  0  0  0  0  0  0  0  0  # atno 17394 bound_to 11000
  139.8705  134.9575  156.4272 LP  0  0  0  0  0  0  0  0  0  0  0  0  # atno 17395 bound_to 11000

$$$$
