AV-unprocessed.smi:1800|AV-procd|sdf|7263|dock4
  -GOLD-   22720 8513D 1   1.00000     0.00000
 Structure written by MMmdl.
 36 37  0  0  0  0  0  0  0  0  1 V2000
  149.3138  142.5215  158.3467 C   0  0  0  0  0  0  0  0  0  0  0  0
  150.6522  142.3413  157.6194 C   0  0  2  0  0  0  0  0  0  0  0  0
  151.6630  143.4497  157.9705 C   0  0  0  0  0  0  0  0  0  0  0  0
  152.1114  143.3732  159.3503 N   0  0  0  0  0  0  0  0  0  0  0  0
  151.9749  144.3156  160.3478 C   0  0  0  0  0  0  0  0  0  0  0  0
  152.5385  143.7964  161.4778 C   0  0  0  0  0  0  0  0  0  0  0  0
  153.0038  142.5168  161.0655 C   0  0  0  0  0  0  0  0  0  0  0  0
  152.7496  142.2673  159.7911 N   0  0  0  0  0  0  0  0  0  0  0  0
  150.4148  142.3142  156.1729 N   0  0  0  0  0  0  0  0  0  0  0  0
  149.6838  140.9180  155.4727 S   0  0  0  0  0  0  0  0  0  0  0  0
  148.4617  140.6297  156.2399 O   0  0  0  0  0  0  0  0  0  0  0  0
  149.6003  141.1559  154.0236 O   0  0  0  0  0  0  0  0  0  0  0  0
  150.9507  139.6049  155.8160 C   0  0  0  0  0  0  0  0  0  0  0  0
  151.4196  138.9384  154.5199 C   0  0  0  0  0  0  0  0  0  0  0  0
  150.3350  137.9058  154.2035 C   0  0  0  0  0  0  0  0  0  0  0  0
  149.7682  137.4691  155.5631 C   0  0  0  0  0  0  0  0  0  0  0  0
  150.3504  138.4358  156.6060 C   0  0  0  0  0  0  0  0  0  0  0  0
  149.4522  142.5142  159.4281 H   0  0  0  0  0  0  0  0  0  0  0  0
  148.6207  141.7168  158.0989 H   0  0  0  0  0  0  0  0  0  0  0  0
  148.8396  143.4662  158.0787 H   0  0  0  0  0  0  0  0  0  0  0  0
  151.0689  141.3816  157.9284 H   0  0  0  0  0  0  0  0  0  0  0  0
  152.5281  143.4066  157.3065 H   0  0  0  0  0  0  0  0  0  0  0  0
  151.2074  144.4297  157.8234 H   0  0  0  0  0  0  0  0  0  0  0  0
  151.4870  145.2632  160.1736 H   0  0  0  0  0  0  0  0  0  0  0  0
  152.6063  144.2596  162.4508 H   0  0  0  0  0  0  0  0  0  0  0  0
  153.5142  141.7660  161.6506 H   0  0  0  0  0  0  0  0  0  0  0  0
  149.9622  143.1705  155.8542 H   0  0  0  0  0  0  0  0  0  0  0  0
  151.7847  140.0734  156.3395 H   0  0  0  0  0  0  0  0  0  0  0  0
  151.5857  139.6400  153.7025 H   0  0  0  0  0  0  0  0  0  0  0  0
  152.3647  138.4247  154.7013 H   0  0  0  0  0  0  0  0  0  0  0  0
  149.5463  138.3723  153.6117 H   0  0  0  0  0  0  0  0  0  0  0  0
  150.7240  137.0664  153.6264 H   0  0  0  0  0  0  0  0  0  0  0  0
  148.6785  137.5144  155.5527 H   0  0  0  0  0  0  0  0  0  0  0  0
  150.0482  136.4415  155.7973 H   0  0  0  0  0  0  0  0  0  0  0  0
  151.1454  137.9318  157.1569 H   0  0  0  0  0  0  0  0  0  0  0  0
  149.6107  138.7569  157.3390 H   0  0  0  0  0  0  0  0  0  0  0  0
  1  2  1  0  0  0  0
  1 18  1  0  0  0  0
  1 19  1  0  0  0  0
  1 20  1  0  0  0  0
  2  3  1  0  0  0  0
  2  9  1  0  0  0  0
  2 21  1  0  0  0  0
  3  4  1  0  0  0  0
  3 22  1  0  0  0  0
  3 23  1  0  0  0  0
  4  8  1  0  0  0  0
  4  5  1  0  0  0  0
  5  6  2  0  0  0  0
  5 24  1  0  0  0  0
  6  7  1  0  0  0  0
  6 25  1  0  0  0  0
  7  8  2  0  0  0  0
  7 26  1  0  0  0  0
  9 10  1  0  0  0  0
  9 27  1  0  0  0  0
 10 11  2  0  0  0  0
 10 12  2  0  0  0  0
 10 13  1  0  0  0  0
 13 17  1  0  0  0  0
 13 14  1  0  0  0  0
 13 28  1  0  0  0  0
 14 15  1  0  0  0  0
 14 29  1  0  0  0  0
 14 30  1  0  0  0  0
 15 16  1  0  0  0  0
 15 31  1  0  0  0  0
 15 32  1  0  0  0  0
 16 17  1  0  0  0  0
 16 33  1  0  0  0  0
 16 34  1  0  0  0  0
 17 35  1  0  0  0  0
 17 36  1  0  0  0  0
M  END
> <s_m_source_file>
AV-unprocessed.smi

> <i_m_source_file_index>
1800

> <i_lp_mmshare_version>
43012

> <i_f3d_flags>
0

> <s_epik_input>
bjFbY0hdW2NIXVtjSF1uMVtDSDJdW0NAQEhdKFtDSDNdKVtOSF1TKD1PKSg9TylbQ0hdMltDSDJdW0NIMl1bQ0gyXVtDSDJdMg==

> <s_epik_cmdline>
J2VwaWtfcHl0aG9uJywgJy1waCcsICc3LjAnLCAnLXRuJywgJzgnLCAnLW1hJywgJzIwMCcsICctbWV0YWxfYmluZGluZycsICctaW1hZScsICc8aW5maWxlLm1hZT4nLCAnLW9tYWUnLCAnPG91dGZpbGUubWFlPic=

> <r_lp_tautomer_probability>
1

> <r_epik_Ionization_Penalty>
1.44925e-05

> <r_epik_Ionization_Penalty_Charging>
0

> <r_epik_Ionization_Penalty_Neutral>
1.44925e-05

> <r_epik_State_Penalty>
-0

> <r_epik_Charging_Adjusted_Penalty>
0

> <i_epik_Tot_Q>
0

> <i_epik_Tot_abs_Q>
0

> <r_epik_Metal_State_Penalty>
0.00862991

> <b_epik_Metal_Only>
0

> <s_lp_Force_Field>
OPLS_2005

> <r_lp_Energy>
14.2601

> <b_lp_Chiralities_Consistent>
1

> <s_lp_Variant>
AV-unprocessed.smi:1800-1

> <Gold.Version>
5.8.1

> <Gold.Id.Protein>
6NUR|6NUR_protein|mol2

> <Gold.PLP.Fitness>
42.2589

> <Gold.PLP.PLP>
-36.6402

> <Gold.PLP.part.hbond>
-3.0000

> <Gold.PLP.part.metal>
0.0000

> <Gold.PLP.part.buried>
-4.4154

> <Gold.PLP.part.nonpolar>
-30.3926

> <Gold.PLP.part.repulsive>
0.5919

> <Gold.PLP.ligand.clash>
0.0000

> <Gold.PLP.ligand.torsion>
0.3025

> <Gold.PLP.Chemscore.Hbond>
1.9750

> <Gold.PLP.Chemscore.CHOScore>
0.0000

> <Gold.PLP.Chemscore.Metal>
0.0000

> <Gold.Chemscore.Hbonds>
donor molecule, donor type, donor heavy atom, donor atom, acceptor molecule, acceptor atom, score
      L1  H     9    27       P1  8028  1.00
      P1  H  7989  7998       L1    12  0.33
      P1  H  8011  8017       L1    12  0.65

> <Gold.PLP.Chemscore.Internal.Correction>
0.2988

> <Gold.Rescore>
     Score         DG    S(hbond)    S(metal)    S(lipo)     H(rot)  DE(clash)    DE(int)     intcor
     15.91     -17.44       1.88        0.00      87.15       1.76       1.00       0.53       ----

> <Gold.Chemscore.Fitness>
15.9104

> <Gold.Chemscore.DG>
-17.4416

> <Gold.Chemscore.ZeroCoef>
-5.4800

> <Gold.Chemscore.Hbond>
1.8765

> <Gold.Chemscore.Metal>
0.0000

> <Gold.Chemscore.Lipo>
87.1458

> <Gold.Chemscore.Internal_Hbond>
0.0000

> <Gold.Chemscore.DEClash>
1.0006

> <Gold.Chemscore.DEInternal>
0.5305

> <Gold.Chemscore.Rot>
1.7585

> <Gold.Chemscore.Internal.Correction>
   9.000000E+99

> <Gold.Chemscore.Hbonds>
donor molecule, donor type, donor heavy atom, donor atom, acceptor molecule, acceptor atom, score
      L1  H     9    27       P1  8028  1.00
      P1  H  7989  7998       L1    12  0.10
      P1  H  8011  8017       L1    12  0.63

> <Gold.Chemscore.Hbond.Weighted>
-6.2674

> <Gold.Chemscore.Metal.Weighted>
-0.0000

> <Gold.Chemscore.Lipo.Weighted>
-10.1961

> <Gold.Chemscore.Internal_Hbond.Weighted>
0.0000

> <Gold.Chemscore.DEClash.Weighted>
1.0006

> <Gold.Chemscore.DEInternal.Weighted>
0.5305

> <Gold.Chemscore.Rot.Weighted>
4.5019

> <Gold.Chemscore.Internal.Correction.Weighted>
   9.000000E+99

> <Gold.Protein.RotatedTorsions>
[ 6907 6896 6895 6894 ] final  -85.82 input  -60.11 | X-H torsion
[ 7974 7965 7964 7962 ] final  -75.49 input  175.53 | X-H torsion
[ 8008 7997 7996 7995 ] final   81.06 input   59.86 | X-H torsion
[ 10167 10162 10161 10158 ] final  168.02 input  -65.29 | X-H torsion
[ 10718 10713 10712 10709 ] final   43.33 input   66.30 | X-H torsion
[ 10763 10752 10751 10750 ] final  -94.39 input  -60.55 | X-H torsion
[ 11005 11000 10999 10996 ] final  147.46 input  -57.11 | X-H torsion

> <Gold.Protein.ActiveResidues>
 VAL166  LYS551  ARG553  GLY616  TRP617  ASP618  TYR619  PRO620  LYS621  CYS622 
 ASP623  PHE694  ASN695  SER759  ASP760  ASP761  ALA762  ILE779  LEU786  VAL792 
 PHE793  MET794  SER795  GLU796  ALA797  LYS798  CYS799  TRP800  GLU811  SER814 

> <Gold.Protein.RotatedAtoms>
  150.6869  134.3146  159.4760 H   0  0  0  0  0  0  0  0  0  0  0  0  # atno 6907 bound_to 6896
  152.1028  134.9327  160.0578 H   0  0  0  0  0  0  0  0  0  0  0  0  # atno 6908 bound_to 6896
  152.0599  133.4022  159.4450 H   0  0  0  0  0  0  0  0  0  0  0  0  # atno 6909 bound_to 6896
  145.6254  140.9352  143.1116 H   0  0  0  0  0  0  0  0  0  0  0  0  # atno 7974 bound_to 7965
  155.8920  140.3438  155.5963 H   0  0  0  0  0  0  0  0  0  0  0  0  # atno 8008 bound_to 7997
  155.7600  140.0831  157.2179 H   0  0  0  0  0  0  0  0  0  0  0  0  # atno 8009 bound_to 7997
  154.4034  140.1537  156.2809 H   0  0  0  0  0  0  0  0  0  0  0  0  # atno 8010 bound_to 7997
  139.4958  144.3859  151.9571 H   0  0  0  0  0  0  0  0  0  0  0  0  # atno 10167 bound_to 10162
  157.4147  130.7935  149.7462 H   0  0  0  0  0  0  0  0  0  0  0  0  # atno 10718 bound_to 10713
  154.7050  135.5159  153.8582 H   0  0  0  0  0  0  0  0  0  0  0  0  # atno 10763 bound_to 10752
  153.0734  135.6608  154.0207 H   0  0  0  0  0  0  0  0  0  0  0  0  # atno 10764 bound_to 10752
  154.0059  135.3006  155.3377 H   0  0  0  0  0  0  0  0  0  0  0  0  # atno 10765 bound_to 10752
  140.0878  134.9059  157.1603 H   0  0  0  0  0  0  0  0  0  0  0  0  # atno 11005 bound_to 11000
  144.7214  139.8016  143.7380 LP  0  0  0  0  0  0  0  0  0  0  0  0  # atno 17320 bound_to 7965
  146.1398  139.4453  143.0116 LP  0  0  0  0  0  0  0  0  0  0  0  0  # atno 17321 bound_to 7965
  140.3296  144.3332  150.5990 LP  0  0  0  0  0  0  0  0  0  0  0  0  # atno 17342 bound_to 10162
  140.5656  143.2186  151.7689 LP  0  0  0  0  0  0  0  0  0  0  0  0  # atno 17343 bound_to 10162
  155.9861  130.3977  150.3226 LP  0  0  0  0  0  0  0  0  0  0  0  0  # atno 17370 bound_to 10713
  157.1368  131.0286  151.2945 LP  0  0  0  0  0  0  0  0  0  0  0  0  # atno 17371 bound_to 10713
  140.3395  134.2719  155.7214 LP  0  0  0  0  0  0  0  0  0  0  0  0  # atno 17394 bound_to 11000
  141.2068  133.7823  157.0155 LP  0  0  0  0  0  0  0  0  0  0  0  0  # atno 17395 bound_to 11000

$$$$
