AV-unprocessed.smi:2416|AV-procd|sdf|9545|dock6
  -GOLD-   2272013173D 1   1.00000     0.00000
 Structure written by MMmdl.
 40 41  0  0  0  0  0  0  0  0  1 V2000
  145.3614  130.4938  151.5655 C   0  0  0  0  0  0  0  0  0  0  0  0
  144.7124  131.7534  151.6865 O   0  0  0  0  0  0  0  0  0  0  0  0
  145.1129  132.7911  150.7806 C   0  0  2  0  0  0  0  0  0  0  0  0
  144.8082  132.3880  149.3324 C   0  0  0  0  0  0  0  0  0  0  0  0
  146.5219  133.2997  151.1429 C   0  0  0  0  0  0  0  0  0  0  0  0
  145.8506  134.1894  152.1872 C   0  0  1  0  0  0  0  0  0  0  0  0
  146.4829  135.4995  152.3056 N   0  0  0  0  0  0  0  0  0  0  0  0
  145.9784  136.5190  153.0144 C   0  0  0  0  0  0  0  0  0  0  0  0
  144.9173  136.4512  153.6355 O   0  0  0  0  0  0  0  0  0  0  0  0
  146.7751  137.6008  152.9505 N   0  0  0  0  0  0  0  0  0  0  0  0
  146.5867  138.8668  153.5673 C   0  0  0  0  0  0  0  0  0  0  0  0
  147.1324  139.9636  152.8617 C   0  0  0  0  0  0  0  0  0  0  0  0
  147.0014  141.2625  153.3907 C   0  0  0  0  0  0  0  0  0  0  0  0
  146.3260  141.4297  154.6126 C   0  0  0  0  0  0  0  0  0  0  0  0
  146.1751  142.6589  155.1604 F   0  0  0  0  0  0  0  0  0  0  0  0
  145.8106  140.2867  155.2509 C   0  0  0  0  0  0  0  0  0  0  0  0
  145.9362  139.0413  154.7452 N   0  0  0  0  0  0  0  0  0  0  0  0
  144.5664  134.1545  151.3186 C   0  0  0  0  0  0  0  0  0  0  0  0
  144.4048  135.2759  150.2746 C   0  0  0  0  0  0  0  0  0  0  0  0
  143.2404  134.1075  152.0859 C   0  0  0  0  0  0  0  0  0  0  0  0
  145.0794  129.8669  152.4113 H   0  0  0  0  0  0  0  0  0  0  0  0
  146.4472  130.5827  151.5677 H   0  0  0  0  0  0  0  0  0  0  0  0
  145.0544  129.9700  150.6605 H   0  0  0  0  0  0  0  0  0  0  0  0
  145.0088  133.2004  148.6350 H   0  0  0  0  0  0  0  0  0  0  0  0
  143.7622  132.1053  149.2122 H   0  0  0  0  0  0  0  0  0  0  0  0
  145.4226  131.5500  149.0038 H   0  0  0  0  0  0  0  0  0  0  0  0
  147.2073  132.5619  151.5590 H   0  0  0  0  0  0  0  0  0  0  0  0
  146.9931  133.8563  150.3308 H   0  0  0  0  0  0  0  0  0  0  0  0
  145.7326  133.6691  153.1408 H   0  0  0  0  0  0  0  0  0  0  0  0
  147.3593  135.6328  151.8227 H   0  0  0  0  0  0  0  0  0  0  0  0
  147.6166  137.5060  152.4018 H   0  0  0  0  0  0  0  0  0  0  0  0
  147.6484  139.8158  151.9243 H   0  0  0  0  0  0  0  0  0  0  0  0
  147.4123  142.1137  152.8679 H   0  0  0  0  0  0  0  0  0  0  0  0
  145.2848  140.3727  156.1904 H   0  0  0  0  0  0  0  0  0  0  0  0
  144.1977  136.2374  150.7455 H   0  0  0  0  0  0  0  0  0  0  0  0
  143.5806  135.0695  149.5909 H   0  0  0  0  0  0  0  0  0  0  0  0
  145.3004  135.4061  149.6672 H   0  0  0  0  0  0  0  0  0  0  0  0
  142.9719  135.0866  152.4835 H   0  0  0  0  0  0  0  0  0  0  0  0
  143.2854  133.4284  152.9375 H   0  0  0  0  0  0  0  0  0  0  0  0
  142.4218  133.7738  151.4475 H   0  0  0  0  0  0  0  0  0  0  0  0
  1  2  1  0  0  0  0
  1 21  1  0  0  0  0
  1 22  1  0  0  0  0
  1 23  1  0  0  0  0
  2  3  1  0  0  0  0
  3 18  1  0  0  0  0
  3  4  1  0  0  0  0
  3  5  1  0  0  0  0
  4 24  1  0  0  0  0
  4 25  1  0  0  0  0
  4 26  1  0  0  0  0
  5  6  1  0  0  0  0
  5 27  1  0  0  0  0
  5 28  1  0  0  0  0
  6  7  1  0  0  0  0
  6 18  1  0  0  0  0
  6 29  1  0  0  0  0
  7  8  1  0  0  0  0
  7 30  1  0  0  0  0
  8  9  2  0  0  0  0
  8 10  1  0  0  0  0
 10 11  1  0  0  0  0
 10 31  1  0  0  0  0
 11 17  1  0  0  0  0
 11 12  2  0  0  0  0
 12 13  1  0  0  0  0
 12 32  1  0  0  0  0
 13 14  2  0  0  0  0
 13 33  1  0  0  0  0
 14 15  1  0  0  0  0
 14 16  1  0  0  0  0
 16 17  2  0  0  0  0
 16 34  1  0  0  0  0
 18 19  1  0  0  0  0
 18 20  1  0  0  0  0
 19 35  1  0  0  0  0
 19 36  1  0  0  0  0
 19 37  1  0  0  0  0
 20 38  1  0  0  0  0
 20 39  1  0  0  0  0
 20 40  1  0  0  0  0
M  END
> <s_m_source_file>
AV-unprocessed.smi

> <i_m_source_file_index>
2416

> <i_lp_mmshare_version>
43012

> <i_f3d_flags>
0

> <s_epik_input>
W0NIM11PW0NAQF0xKFtDSDNdKVtDSDJdW0NASF0oQzEoW0NIM10pW0NIM10pW05IXUMoPU8pW05IXWMyW2NIXVtjSF1jKEYpW2NIXW4y

> <s_epik_cmdline>
J2VwaWtfcHl0aG9uJywgJy1waCcsICc3LjAnLCAnLXRuJywgJzgnLCAnLW1hJywgJzIwMCcsICctbWV0YWxfYmluZGluZycsICctaW1hZScsICc8aW5maWxlLm1hZT4nLCAnLW9tYWUnLCAnPG91dGZpbGUubWFlPic=

> <r_lp_tautomer_probability>
1

> <r_epik_Ionization_Penalty>
3.67756e-05

> <r_epik_Ionization_Penalty_Charging>
0

> <r_epik_Ionization_Penalty_Neutral>
3.67756e-05

> <r_epik_State_Penalty>
-0

> <r_epik_Charging_Adjusted_Penalty>
0

> <i_epik_Tot_Q>
0

> <i_epik_Tot_abs_Q>
0

> <r_epik_Metal_State_Penalty>
-0

> <b_epik_Metal_Only>
0

> <s_lp_Force_Field>
OPLS_2005

> <r_lp_Energy>
27.4355

> <b_lp_Chiralities_Consistent>
1

> <s_lp_Variant>
AV-unprocessed.smi:2416-2

> <Gold.Version>
5.8.1

> <Gold.Id.Protein>
6NUR|6NUR_protein|mol2

> <Gold.PLP.Fitness>
38.8777

> <Gold.PLP.PLP>
-33.5766

> <Gold.PLP.part.hbond>
-2.0000

> <Gold.PLP.part.metal>
0.0000

> <Gold.PLP.part.buried>
-3.6342

> <Gold.PLP.part.nonpolar>
-27.7983

> <Gold.PLP.part.repulsive>
0.3672

> <Gold.PLP.ligand.clash>
0.0000

> <Gold.PLP.ligand.torsion>
0.3799

> <Gold.PLP.Chemscore.Hbond>
1.8960

> <Gold.PLP.Chemscore.CHOScore>
0.0000

> <Gold.PLP.Chemscore.Metal>
0.0000

> <Gold.Chemscore.Hbonds>
donor molecule, donor type, donor heavy atom, donor atom, acceptor molecule, acceptor atom, score
      L1  H     7    30       P1  7948  0.99
      L1  H    10    31       P1  7948  0.88

> <Gold.PLP.Chemscore.Internal.Correction>
0.3730

> <Gold.Rescore>
     Score         DG    S(hbond)    S(metal)    S(lipo)     H(rot)  DE(clash)    DE(int)     intcor
     16.79     -18.07       1.97        0.00      79.01       1.27       0.03       1.25       ----

> <Gold.Chemscore.Fitness>
16.7943

> <Gold.Chemscore.DG>
-18.0705

> <Gold.Chemscore.ZeroCoef>
-5.4800

> <Gold.Chemscore.Hbond>
1.9718

> <Gold.Chemscore.Metal>
0.0000

> <Gold.Chemscore.Lipo>
79.0081

> <Gold.Chemscore.Internal_Hbond>
0.0000

> <Gold.Chemscore.DEClash>
0.0282

> <Gold.Chemscore.DEInternal>
1.2480

> <Gold.Chemscore.Rot>
1.2653

> <Gold.Chemscore.Internal.Correction>
   9.000000E+99

> <Gold.Chemscore.Hbonds>
donor molecule, donor type, donor heavy atom, donor atom, acceptor molecule, acceptor atom, score
      L1  H     7    30       P1  7948  0.94
      L1  H    10    31       P1  7948  0.86

> <Gold.Chemscore.Hbond.Weighted>
-6.5858

> <Gold.Chemscore.Metal.Weighted>
-0.0000

> <Gold.Chemscore.Lipo.Weighted>
-9.2440

> <Gold.Chemscore.Internal_Hbond.Weighted>
0.0000

> <Gold.Chemscore.DEClash.Weighted>
0.0282

> <Gold.Chemscore.DEInternal.Weighted>
1.2480

> <Gold.Chemscore.Rot.Weighted>
3.2392

> <Gold.Chemscore.Internal.Correction.Weighted>
   9.000000E+99

> <Gold.Protein.RotatedTorsions>
[ 6907 6896 6895 6894 ] final  -25.78 input  -60.11 | X-H torsion
[ 7974 7965 7964 7962 ] final   -2.34 input  175.53 | X-H torsion
[ 8008 7997 7996 7995 ] final -160.64 input   59.86 | X-H torsion
[ 10167 10162 10161 10158 ] final   23.21 input  -65.29 | X-H torsion
[ 10718 10713 10712 10709 ] final -160.44 input   66.30 | X-H torsion
[ 10763 10752 10751 10750 ] final -146.95 input  -60.55 | X-H torsion
[ 11005 11000 10999 10996 ] final   85.67 input  -57.11 | X-H torsion

> <Gold.Protein.ActiveResidues>
 VAL166  LYS551  ARG553  GLY616  TRP617  ASP618  TYR619  PRO620  LYS621  CYS622 
 ASP623  PHE694  ASN695  SER759  ASP760  ASP761  ALA762  ILE779  LEU786  VAL792 
 PHE793  MET794  SER795  GLU796  ALA797  LYS798  CYS799  TRP800  GLU811  SER814 

> <Gold.Protein.RotatedAtoms>
  151.1703  135.0315  159.8748 H   0  0  0  0  0  0  0  0  0  0  0  0  # atno 6907 bound_to 6896
  152.5449  134.1178  159.8396 H   0  0  0  0  0  0  0  0  0  0  0  0  # atno 6908 bound_to 6896
  151.1283  133.5008  159.2632 H   0  0  0  0  0  0  0  0  0  0  0  0  # atno 6909 bound_to 6896
  146.2405  140.1556  142.8333 H   0  0  0  0  0  0  0  0  0  0  0  0  # atno 7974 bound_to 7965
  155.7804  140.0864  157.2062 H   0  0  0  0  0  0  0  0  0  0  0  0  # atno 8008 bound_to 7997
  154.3990  140.1509  156.3103 H   0  0  0  0  0  0  0  0  0  0  0  0  # atno 8009 bound_to 7997
  155.8659  140.3428  155.5791 H   0  0  0  0  0  0  0  0  0  0  0  0  # atno 8010 bound_to 7997
  140.5287  143.9879  150.6454 H   0  0  0  0  0  0  0  0  0  0  0  0  # atno 10167 bound_to 10162
  156.5821  130.8734  151.2867 H   0  0  0  0  0  0  0  0  0  0  0  0  # atno 10718 bound_to 10713
  154.8310  135.3373  154.6741 H   0  0  0  0  0  0  0  0  0  0  0  0  # atno 10763 bound_to 10752
  153.7361  135.6949  153.4982 H   0  0  0  0  0  0  0  0  0  0  0  0  # atno 10764 bound_to 10752
  153.2277  135.4427  155.0512 H   0  0  0  0  0  0  0  0  0  0  0  0  # atno 10765 bound_to 10752
  139.8965  134.8303  156.2615 H   0  0  0  0  0  0  0  0  0  0  0  0  # atno 11005 bound_to 11000
  145.0131  140.8731  143.5212 LP  0  0  0  0  0  0  0  0  0  0  0  0  # atno 17320 bound_to 7965
  145.1593  139.2468  143.5400 LP  0  0  0  0  0  0  0  0  0  0  0  0  # atno 17321 bound_to 7965
  140.3248  143.3114  152.0748 LP  0  0  0  0  0  0  0  0  0  0  0  0  # atno 17342 bound_to 10162
  139.4947  144.6549  151.6593 LP  0  0  0  0  0  0  0  0  0  0  0  0  # atno 17343 bound_to 10162
  157.7324  130.9714  150.1926 LP  0  0  0  0  0  0  0  0  0  0  0  0  # atno 17370 bound_to 10713
  156.2622  130.3712  149.8118 LP  0  0  0  0  0  0  0  0  0  0  0  0  # atno 17371 bound_to 10713
  141.0159  133.7068  156.1188 LP  0  0  0  0  0  0  0  0  0  0  0  0  # atno 17394 bound_to 11000
  140.7302  134.4263  157.5566 LP  0  0  0  0  0  0  0  0  0  0  0  0  # atno 17395 bound_to 11000

$$$$
