AV-unprocessed.smi:1953|AV-procd|sdf|7893|dock10
  -GOLD-   2272010 53D 1   1.00000     0.00000
 Structure written by MMmdl.
 43 45  0  0  0  0  0  0  0  0  1 V2000
  154.3730  139.2136  160.8643 N   0  0  0  0  0  0  0  0  0  0  0  0
  153.4127  139.2250  160.2182 C   0  0  0  0  0  0  0  0  0  0  0  0
  152.2160  139.2207  159.4439 C   0  0  0  0  0  0  0  0  0  0  0  0
  151.7548  140.3364  158.8422 C   0  0  0  0  0  0  0  0  0  0  0  0
  150.6081  140.3461  158.0784 N   0  0  0  0  0  0  0  0  0  0  0  0
  150.0569  141.5682  157.5646 C   0  0  0  0  0  0  0  0  0  0  0  0
  150.6481  142.2051  156.3218 C   0  0  0  0  0  0  0  0  0  0  0  0
  150.8652  142.8432  157.6714 C   0  0  0  0  0  0  0  0  0  0  0  0
  149.8191  139.1808  157.9674 C   0  0  0  0  0  0  0  0  0  0  0  0
  148.7491  139.1909  157.3532 O   0  0  0  0  0  0  0  0  0  0  0  0
  150.2931  137.9976  158.5851 N   0  0  0  0  0  0  0  0  0  0  0  0
  149.5052  136.7566  158.4196 C   0  0  0  0  0  0  0  0  0  0  0  0
  148.7236  136.3715  159.6842 C   0  0  0  0  0  0  0  0  0  0  0  0
  148.5403  137.1907  160.5859 O   0  0  0  0  0  0  0  0  0  0  0  0
  148.2589  135.1138  159.7280 N   0  0  0  0  0  0  0  0  0  0  0  0
  147.5093  134.5281  160.8352 C   0  0  0  0  0  0  0  0  0  0  0  0
  146.8612  133.1935  160.4085 C   0  0  0  0  0  0  0  0  0  0  0  0
  145.9961  132.6021  161.5330 C   0  0  0  0  0  0  0  0  0  0  0  0
  144.9309  133.6044  162.0030 C   0  0  0  0  0  0  0  0  0  0  0  0
  145.5735  134.9306  162.4381 C   0  0  0  0  0  0  0  0  0  0  0  0
  146.4383  135.5261  161.3153 C   0  0  0  0  0  0  0  0  0  0  0  0
  151.5002  137.9520  159.3287 C   0  0  0  0  0  0  0  0  0  0  0  0
  151.8968  136.9005  159.8338 O   0  0  0  0  0  0  0  0  0  0  0  0
  152.3089  141.2573  158.9540 H   0  0  0  0  0  0  0  0  0  0  0  0
  148.9808  141.6790  157.6865 H   0  0  0  0  0  0  0  0  0  0  0  0
  151.5071  141.7255  155.8560 H   0  0  0  0  0  0  0  0  0  0  0  0
  149.9615  142.6972  155.6361 H   0  0  0  0  0  0  0  0  0  0  0  0
  150.3240  143.7625  157.8849 H   0  0  0  0  0  0  0  0  0  0  0  0
  151.8660  142.7834  158.0946 H   0  0  0  0  0  0  0  0  0  0  0  0
  148.7963  136.8346  157.5944 H   0  0  0  0  0  0  0  0  0  0  0  0
  150.1560  135.9293  158.1301 H   0  0  0  0  0  0  0  0  0  0  0  0
  148.4505  134.5115  158.9406 H   0  0  0  0  0  0  0  0  0  0  0  0
  148.1943  134.3396  161.6644 H   0  0  0  0  0  0  0  0  0  0  0  0
  146.2445  133.3491  159.5220 H   0  0  0  0  0  0  0  0  0  0  0  0
  147.6292  132.4726  160.1258 H   0  0  0  0  0  0  0  0  0  0  0  0
  145.5182  131.6842  161.1898 H   0  0  0  0  0  0  0  0  0  0  0  0
  146.6325  132.3235  162.3739 H   0  0  0  0  0  0  0  0  0  0  0  0
  144.2206  133.7892  161.1961 H   0  0  0  0  0  0  0  0  0  0  0  0
  144.3584  133.1795  162.8279 H   0  0  0  0  0  0  0  0  0  0  0  0
  144.7990  135.6416  162.7269 H   0  0  0  0  0  0  0  0  0  0  0  0
  146.1881  134.7656  163.3240 H   0  0  0  0  0  0  0  0  0  0  0  0
  146.9125  136.4437  161.6657 H   0  0  0  0  0  0  0  0  0  0  0  0
  145.7964  135.8097  160.4798 H   0  0  0  0  0  0  0  0  0  0  0  0
  1  2  3  0  0  0  0
  2  3  1  0  0  0  0
  3 22  1  0  0  0  0
  3  4  2  0  0  0  0
  4  5  1  0  0  0  0
  4 24  1  0  0  0  0
  5  6  1  0  0  0  0
  5  9  1  0  0  0  0
  6  8  1  0  0  0  0
  6  7  1  0  0  0  0
  6 25  1  0  0  0  0
  7  8  1  0  0  0  0
  7 26  1  0  0  0  0
  7 27  1  0  0  0  0
  8 28  1  0  0  0  0
  8 29  1  0  0  0  0
  9 10  2  0  0  0  0
  9 11  1  0  0  0  0
 11 12  1  0  0  0  0
 11 22  1  0  0  0  0
 12 13  1  0  0  0  0
 12 30  1  0  0  0  0
 12 31  1  0  0  0  0
 13 14  2  0  0  0  0
 13 15  1  0  0  0  0
 15 16  1  0  0  0  0
 15 32  1  0  0  0  0
 16 21  1  0  0  0  0
 16 17  1  0  0  0  0
 16 33  1  0  0  0  0
 17 18  1  0  0  0  0
 17 34  1  0  0  0  0
 17 35  1  0  0  0  0
 18 19  1  0  0  0  0
 18 36  1  0  0  0  0
 18 37  1  0  0  0  0
 19 20  1  0  0  0  0
 19 38  1  0  0  0  0
 19 39  1  0  0  0  0
 20 21  1  0  0  0  0
 20 40  1  0  0  0  0
 20 41  1  0  0  0  0
 21 42  1  0  0  0  0
 21 43  1  0  0  0  0
 22 23  2  0  0  0  0
M  END
> <s_m_source_file>
AV-unprocessed.smi

> <i_m_source_file_index>
1953

> <i_lp_mmshare_version>
43012

> <i_f3d_flags>
0

> <s_epik_input>
TiNDYzFbY0hdbihbQ0hdMltDSDJdW0NIMl0yKWMoPU8pbihjMT1PKVtDSDJdQyg9TylbTkhdW0NIXTNbQ0gyXVtDSDJdW0NIMl1bQ0gyXVtDSDJdMw==

> <s_epik_cmdline>
J2VwaWtfcHl0aG9uJywgJy1waCcsICc3LjAnLCAnLXRuJywgJzgnLCAnLW1hJywgJzIwMCcsICctbWV0YWxfYmluZGluZycsICctaW1hZScsICc8aW5maWxlLm1hZT4nLCAnLW9tYWUnLCAnPG91dGZpbGUubWFlPic=

> <r_lp_tautomer_probability>
1

> <r_epik_Ionization_Penalty>
1.91355e-08

> <r_epik_Ionization_Penalty_Charging>
8.86257e-11

> <r_epik_Ionization_Penalty_Neutral>
1.90469e-08

> <r_epik_State_Penalty>
-0

> <r_epik_Charging_Adjusted_Penalty>
8.86257e-11

> <i_epik_Tot_Q>
0

> <i_epik_Tot_abs_Q>
0

> <r_epik_Metal_State_Penalty>
-0

> <b_epik_Metal_Only>
0

> <s_lp_Force_Field>
OPLS_2005

> <r_lp_Energy>
34.5376

> <b_lp_Chiralities_Consistent>
1

> <s_lp_Variant>
AV-unprocessed.smi:1953-1

> <Gold.Version>
5.8.1

> <Gold.Id.Protein>
6NUR|6NUR_protein|mol2

> <Gold.PLP.Fitness>
40.4033

> <Gold.PLP.PLP>
-36.3755

> <Gold.PLP.part.hbond>
-2.7081

> <Gold.PLP.part.metal>
0.0000

> <Gold.PLP.part.buried>
-4.9715

> <Gold.PLP.part.nonpolar>
-29.2935

> <Gold.PLP.part.repulsive>
0.1097

> <Gold.PLP.ligand.clash>
0.0000

> <Gold.PLP.ligand.torsion>
0.8051

> <Gold.PLP.Chemscore.Hbond>
1.8132

> <Gold.PLP.Chemscore.CHOScore>
0.0000

> <Gold.PLP.Chemscore.Metal>
0.0000

> <Gold.Chemscore.Hbonds>
donor molecule, donor type, donor heavy atom, donor atom, acceptor molecule, acceptor atom, score
      P1  H  6896  6907       L1    23  1.00
      P1  H  6931  6943       L1    14  0.75
      P1  H  6934  6947       L1    14  0.17

> <Gold.PLP.Chemscore.Internal.Correction>
0.1983

> <Gold.Rescore>
     Score         DG    S(hbond)    S(metal)    S(lipo)     H(rot)  DE(clash)    DE(int)     intcor
     15.69     -16.34       1.88        0.00      77.02       1.73       0.05       0.60       ----

> <Gold.Chemscore.Fitness>
15.6899

> <Gold.Chemscore.DG>
-16.3390

> <Gold.Chemscore.ZeroCoef>
-5.4800

> <Gold.Chemscore.Hbond>
1.8791

> <Gold.Chemscore.Metal>
0.0000

> <Gold.Chemscore.Lipo>
77.0192

> <Gold.Chemscore.Internal_Hbond>
0.0000

> <Gold.Chemscore.DEClash>
0.0511

> <Gold.Chemscore.DEInternal>
0.5980

> <Gold.Chemscore.Rot>
1.7298

> <Gold.Chemscore.Internal.Correction>
   9.000000E+99

> <Gold.Chemscore.Hbonds>
donor molecule, donor type, donor heavy atom, donor atom, acceptor molecule, acceptor atom, score
      P1  H  6896  6907       L1    23  1.00
      P1  H  6931  6943       L1    14  0.76
      P1  H  6934  6947       L1    14  0.18

> <Gold.Chemscore.Hbond.Weighted>
-6.2762

> <Gold.Chemscore.Metal.Weighted>
-0.0000

> <Gold.Chemscore.Lipo.Weighted>
-9.0113

> <Gold.Chemscore.Internal_Hbond.Weighted>
0.0000

> <Gold.Chemscore.DEClash.Weighted>
0.0511

> <Gold.Chemscore.DEInternal.Weighted>
0.5980

> <Gold.Chemscore.Rot.Weighted>
4.4284

> <Gold.Chemscore.Internal.Correction.Weighted>
   9.000000E+99

> <Gold.Protein.RotatedTorsions>
[ 6907 6896 6895 6894 ] final   14.99 input  -60.11 | X-H torsion
[ 7974 7965 7964 7962 ] final -104.95 input  175.53 | X-H torsion
[ 8008 7997 7996 7995 ] final   13.29 input   59.86 | X-H torsion
[ 10167 10162 10161 10158 ] final   76.25 input  -65.29 | X-H torsion
[ 10718 10713 10712 10709 ] final  -86.34 input   66.30 | X-H torsion
[ 10763 10752 10751 10750 ] final -148.78 input  -60.55 | X-H torsion
[ 11005 11000 10999 10996 ] final -171.74 input  -57.11 | X-H torsion

> <Gold.Protein.ActiveResidues>
 VAL166  LYS551  ARG553  GLY616  TRP617  ASP618  TYR619  PRO620  LYS621  CYS622 
 ASP623  PHE694  ASN695  SER759  ASP760  ASP761  ALA762  ILE779  LEU786  VAL792 
 PHE793  MET794  SER795  GLU796  ALA797  LYS798  CYS799  TRP800  GLU811  SER814 

> <Gold.Protein.RotatedAtoms>
  151.8110  135.0680  160.0412 H   0  0  0  0  0  0  0  0  0  0  0  0  # atno 6907 bound_to 6896
  152.3020  133.5660  159.5633 H   0  0  0  0  0  0  0  0  0  0  0  0  # atno 6908 bound_to 6896
  150.7278  134.0193  159.3738 H   0  0  0  0  0  0  0  0  0  0  0  0  # atno 6909 bound_to 6896
  145.2366  140.9190  143.3174 H   0  0  0  0  0  0  0  0  0  0  0  0  # atno 7974 bound_to 7965
  154.8324  140.2901  155.5714 H   0  0  0  0  0  0  0  0  0  0  0  0  # atno 8008 bound_to 7997
  156.3006  140.2529  156.3182 H   0  0  0  0  0  0  0  0  0  0  0  0  # atno 8009 bound_to 7997
  154.9217  140.0386  157.1990 H   0  0  0  0  0  0  0  0  0  0  0  0  # atno 8010 bound_to 7997
  139.9943  144.5734  150.7791 H   0  0  0  0  0  0  0  0  0  0  0  0  # atno 10167 bound_to 10162
  155.9990  130.4761  150.4699 H   0  0  0  0  0  0  0  0  0  0  0  0  # atno 10718 bound_to 10713
  154.8214  135.3326  154.7027 H   0  0  0  0  0  0  0  0  0  0  0  0  # atno 10763 bound_to 10752
  153.7659  135.6929  153.4920 H   0  0  0  0  0  0  0  0  0  0  0  0  # atno 10764 bound_to 10752
  153.2078  135.4493  155.0292 H   0  0  0  0  0  0  0  0  0  0  0  0  # atno 10765 bound_to 10752
  140.5048  134.5858  157.5000 H   0  0  0  0  0  0  0  0  0  0  0  0  # atno 11005 bound_to 11000
  144.9627  139.3963  143.6348 LP  0  0  0  0  0  0  0  0  0  0  0  0  # atno 17320 bound_to 7965
  146.3339  139.8688  142.8843 LP  0  0  0  0  0  0  0  0  0  0  0  0  # atno 17321 bound_to 7965
  140.7443  143.2859  151.3466 LP  0  0  0  0  0  0  0  0  0  0  0  0  # atno 17342 bound_to 10162
  139.6317  144.0707  152.2482 LP  0  0  0  0  0  0  0  0  0  0  0  0  # atno 17343 bound_to 10162
  157.2715  131.0588  151.2256 LP  0  0  0  0  0  0  0  0  0  0  0  0  # atno 17370 bound_to 10713
  157.3335  130.6997  149.6338 LP  0  0  0  0  0  0  0  0  0  0  0  0  # atno 17371 bound_to 10713
  139.9692  134.7321  156.0075 LP  0  0  0  0  0  0  0  0  0  0  0  0  # atno 17394 bound_to 11000
  141.1416  133.6563  156.3747 LP  0  0  0  0  0  0  0  0  0  0  0  0  # atno 17395 bound_to 11000

$$$$
