AV-unprocessed.smi:1216|AV-procd|sdf|5100|dock10
  -GOLD-   22720 4153D 1   1.00000     0.00000
 Structure written by MMmdl.
 42 43  0  0  0  0  0  0  0  0  1 V2000
  151.3448  138.0568  157.9012 C   0  0  0  0  0  0  0  0  0  0  0  0
  150.9578  136.7267  157.2416 C   0  0  2  0  0  0  0  0  0  0  0  0
  151.3209  136.7175  155.7406 C   0  0  0  0  0  0  0  0  0  0  0  0
  150.7698  137.8518  155.0207 N   0  0  0  0  0  0  0  0  0  0  0  0
  149.7005  137.8444  154.1348 C   0  0  0  0  0  0  0  0  0  0  0  0
  149.5310  139.1437  153.7122 C   0  0  0  0  0  0  0  0  0  0  0  0
  150.4856  139.9608  154.3129 N   0  0  0  0  0  0  0  0  0  0  0  0
  151.1858  139.1249  155.0688 C   0  0  0  0  0  0  0  0  0  0  0  0
  149.5254  136.5006  157.4315 N   0  0  0  0  0  0  0  0  0  0  0  0
  148.9271  136.2196  158.6000 C   0  0  0  0  0  0  0  0  0  0  0  0
  149.5262  136.1713  159.6749 O   0  0  0  0  0  0  0  0  0  0  0  0
  147.4178  135.9577  158.5464 C   0  0  0  0  0  0  0  0  0  0  0  0
  146.8927  135.5183  159.8474 N   0  0  0  0  0  0  0  0  0  0  0  0
  146.1192  134.2660  159.8632 C   0  0  0  0  0  0  0  0  0  0  0  0
  146.8206  133.1058  160.6066 C   0  0  0  0  0  0  0  0  0  0  0  0
  147.7522  133.5044  161.7682 C   0  0  0  0  0  0  0  0  0  0  0  0
  147.1214  134.4406  162.8201 C   0  0  0  0  0  0  0  0  0  0  0  0
  146.4851  135.7473  162.2891 C   0  0  0  0  0  0  0  0  0  0  0  0
  147.0871  136.2563  160.9694 C   0  0  0  0  0  0  0  0  0  0  0  0
  147.7210  137.3121  160.9767 O   0  0  0  0  0  0  0  0  0  0  0  0
  152.4143  138.2458  157.8044 H   0  0  0  0  0  0  0  0  0  0  0  0
  151.1078  138.0518  158.9657 H   0  0  0  0  0  0  0  0  0  0  0  0
  150.8167  138.8953  157.4458 H   0  0  0  0  0  0  0  0  0  0  0  0
  151.5269  135.9422  157.7439 H   0  0  0  0  0  0  0  0  0  0  0  0
  152.4039  136.7085  155.6087 H   0  0  0  0  0  0  0  0  0  0  0  0
  150.9420  135.8098  155.2695 H   0  0  0  0  0  0  0  0  0  0  0  0
  149.1576  136.9428  153.8933 H   0  0  0  0  0  0  0  0  0  0  0  0
  148.8020  139.5497  153.0264 H   0  0  0  0  0  0  0  0  0  0  0  0
  152.0153  139.4487  155.6798 H   0  0  0  0  0  0  0  0  0  0  0  0
  148.9493  136.5249  156.6026 H   0  0  0  0  0  0  0  0  0  0  0  0
  146.9191  136.8729  158.2258 H   0  0  0  0  0  0  0  0  0  0  0  0
  147.1890  135.2195  157.7752 H   0  0  0  0  0  0  0  0  0  0  0  0
  145.1423  134.4546  160.3089 H   0  0  0  0  0  0  0  0  0  0  0  0
  145.8847  133.9462  158.8471 H   0  0  0  0  0  0  0  0  0  0  0  0
  146.0618  132.4109  160.9680 H   0  0  0  0  0  0  0  0  0  0  0  0
  147.4142  132.5425  159.8860 H   0  0  0  0  0  0  0  0  0  0  0  0
  148.0987  132.5982  162.2659 H   0  0  0  0  0  0  0  0  0  0  0  0
  148.6544  133.9663  161.3649 H   0  0  0  0  0  0  0  0  0  0  0  0
  146.3634  133.8878  163.3760 H   0  0  0  0  0  0  0  0  0  0  0  0
  147.8892  134.6974  163.5507 H   0  0  0  0  0  0  0  0  0  0  0  0
  145.4110  135.6167  162.1595 H   0  0  0  0  0  0  0  0  0  0  0  0
  146.5789  136.5256  163.0478 H   0  0  0  0  0  0  0  0  0  0  0  0
  1  2  1  0  0  0  0
  1 21  1  0  0  0  0
  1 22  1  0  0  0  0
  1 23  1  0  0  0  0
  2  3  1  0  0  0  0
  2  9  1  0  0  0  0
  2 24  1  0  0  0  0
  3  4  1  0  0  0  0
  3 25  1  0  0  0  0
  3 26  1  0  0  0  0
  4  8  1  0  0  0  0
  4  5  1  0  0  0  0
  5  6  2  0  0  0  0
  5 27  1  0  0  0  0
  6  7  1  0  0  0  0
  6 28  1  0  0  0  0
  7  8  2  0  0  0  0
  8 29  1  0  0  0  0
  9 10  1  0  0  0  0
  9 30  1  0  0  0  0
 10 11  2  0  0  0  0
 10 12  1  0  0  0  0
 12 13  1  0  0  0  0
 12 31  1  0  0  0  0
 12 32  1  0  0  0  0
 13 19  1  0  0  0  0
 13 14  1  0  0  0  0
 14 15  1  0  0  0  0
 14 33  1  0  0  0  0
 14 34  1  0  0  0  0
 15 16  1  0  0  0  0
 15 35  1  0  0  0  0
 15 36  1  0  0  0  0
 16 17  1  0  0  0  0
 16 37  1  0  0  0  0
 16 38  1  0  0  0  0
 17 18  1  0  0  0  0
 17 39  1  0  0  0  0
 17 40  1  0  0  0  0
 18 19  1  0  0  0  0
 18 41  1  0  0  0  0
 18 42  1  0  0  0  0
 19 20  2  0  0  0  0
M  END
> <s_m_source_file>
AV-unprocessed.smi

> <i_m_source_file_index>
1216

> <i_lp_mmshare_version>
43012

> <i_f3d_flags>
0

> <s_epik_input>
W2NIXTFuW2NIXVtjSF1uMVtDSDJdW0NAQEhdKFtDSDNdKVtOSF1DKD1PKVtDSDJdTjJbQ0gyXVtDSDJdW0NIMl1bQ0gyXVtDSDJdQzI9Tw==

> <s_epik_cmdline>
J2VwaWtfcHl0aG9uJywgJy1waCcsICc3LjAnLCAnLXRuJywgJzgnLCAnLW1hJywgJzIwMCcsICctbWV0YWxfYmluZGluZycsICctaW1hZScsICc8aW5maWxlLm1hZT4nLCAnLW9tYWUnLCAnPG91dGZpbGUubWFlPic=

> <r_lp_tautomer_probability>
1

> <r_epik_Ionization_Penalty>
0.623868

> <r_epik_Ionization_Penalty_Charging>
0.623868

> <r_epik_Ionization_Penalty_Neutral>
4.50838e-08

> <r_epik_State_Penalty>
0.640129

> <r_epik_Charging_Adjusted_Penalty>
1.264

> <i_epik_Tot_Q>
0

> <i_epik_Tot_abs_Q>
0

> <r_epik_Metal_State_Penalty>
0.307431

> <b_epik_Metal_Only>
0

> <s_lp_Force_Field>
OPLS_2005

> <r_lp_Energy>
19.0473

> <b_lp_Chiralities_Consistent>
1

> <s_lp_Variant>
AV-unprocessed.smi:1216-3

> <Gold.Version>
5.8.1

> <Gold.Id.Protein>
6NUR|6NUR_protein|mol2

> <Gold.PLP.Fitness>
45.1825

> <Gold.PLP.PLP>
-29.0018

> <Gold.PLP.part.hbond>
-4.0000

> <Gold.PLP.part.metal>
0.0000

> <Gold.PLP.part.buried>
-1.0055

> <Gold.PLP.part.nonpolar>
-24.8538

> <Gold.PLP.part.repulsive>
0.1404

> <Gold.PLP.ligand.clash>
0.0000

> <Gold.PLP.ligand.torsion>
0.3736

> <Gold.PLP.Chemscore.Hbond>
3.8080

> <Gold.PLP.Chemscore.CHOScore>
1.8236

> <Gold.PLP.Chemscore.Metal>
0.0000

> <Gold.Chemscore.Hbonds>
donor molecule, donor type, donor heavy atom, donor atom, acceptor molecule, acceptor atom, score
      P1  H  6896  6908       L1    11  1.00
      P1  H  6931  6943       L1    20  0.83
      P1  H  6934  6947       L1    20  0.86
      P1  H  7989  7998       L1     7  1.00
      L1  C     5    27       P1  7948  0.83
      L1  C     6    28       P1  7957  0.67

> <Gold.PLP.Chemscore.Internal.Correction>
0.0330

> <Gold.Rescore>
     Score         DG    S(hbond)    S(metal)    S(lipo)     H(rot)  DE(clash)    DE(int)     intcor
     12.38     -17.54       3.17        0.00      59.23       2.13       0.15       5.01       ----

> <Gold.Chemscore.Fitness>
12.3815

> <Gold.Chemscore.DG>
-17.5415

> <Gold.Chemscore.ZeroCoef>
-5.4800

> <Gold.Chemscore.Hbond>
3.1717

> <Gold.Chemscore.Metal>
0.0000

> <Gold.Chemscore.Lipo>
59.2339

> <Gold.Chemscore.Internal_Hbond>
0.0000

> <Gold.Chemscore.DEClash>
0.1457

> <Gold.Chemscore.DEInternal>
5.0144

> <Gold.Chemscore.Rot>
2.1338

> <Gold.Chemscore.Internal.Correction>
   9.000000E+99

> <Gold.Chemscore.Hbonds>
donor molecule, donor type, donor heavy atom, donor atom, acceptor molecule, acceptor atom, score
      P1  H  6896  6908       L1    11  0.88
      P1  H  6931  6943       L1    20  0.83
      P1  H  6934  6947       L1    20  0.85
      P1  H  7989  7998       L1     7  0.55

> <Gold.Chemscore.Hbond.Weighted>
-10.5936

> <Gold.Chemscore.Metal.Weighted>
-0.0000

> <Gold.Chemscore.Lipo.Weighted>
-6.9304

> <Gold.Chemscore.Internal_Hbond.Weighted>
0.0000

> <Gold.Chemscore.DEClash.Weighted>
0.1457

> <Gold.Chemscore.DEInternal.Weighted>
5.0144

> <Gold.Chemscore.Rot.Weighted>
5.4625

> <Gold.Chemscore.Internal.Correction.Weighted>
   9.000000E+99

> <Gold.Protein.RotatedTorsions>
[ 6907 6896 6895 6894 ] final -167.30 input  -60.11 | X-H torsion
[ 7974 7965 7964 7962 ] final  111.51 input  175.53 | X-H torsion
[ 8008 7997 7996 7995 ] final  -90.60 input   59.86 | X-H torsion
[ 10167 10162 10161 10158 ] final   -6.49 input  -65.29 | X-H torsion
[ 10718 10713 10712 10709 ] final  -90.30 input   66.30 | X-H torsion
[ 10763 10752 10751 10750 ] final    3.36 input  -60.55 | X-H torsion
[ 11005 11000 10999 10996 ] final  152.44 input  -57.11 | X-H torsion

> <Gold.Protein.ActiveResidues>
 VAL166  LYS551  ARG553  GLY616  TRP617  ASP618  TYR619  PRO620  LYS621  CYS622 
 ASP623  PHE694  ASN695  SER759  ASP760  ASP761  ALA762  ILE779  LEU786  VAL792 
 PHE793  MET794  SER795  GLU796  ALA797  LYS798  CYS799  TRP800  GLU811  SER814 

> <Gold.Protein.RotatedAtoms>
  151.4574  133.3601  159.2803 H   0  0  0  0  0  0  0  0  0  0  0  0  # atno 6907 bound_to 6896
  150.9049  134.8465  159.7396 H   0  0  0  0  0  0  0  0  0  0  0  0  # atno 6908 bound_to 6896
  152.4900  134.4498  159.9622 H   0  0  0  0  0  0  0  0  0  0  0  0  # atno 6909 bound_to 6896
  145.2413  139.2777  143.4116 H   0  0  0  0  0  0  0  0  0  0  0  0  # atno 7974 bound_to 7965
  154.7005  140.0528  157.0454 H   0  0  0  0  0  0  0  0  0  0  0  0  # atno 8008 bound_to 7997
  155.0691  140.3197  155.4617 H   0  0  0  0  0  0  0  0  0  0  0  0  # atno 8009 bound_to 7997
  156.2758  140.2085  156.5818 H   0  0  0  0  0  0  0  0  0  0  0  0  # atno 8010 bound_to 7997
  140.6998  143.6188  150.8632 H   0  0  0  0  0  0  0  0  0  0  0  0  # atno 10167 bound_to 10162
  155.9987  130.4904  150.5301 H   0  0  0  0  0  0  0  0  0  0  0  0  # atno 10718 bound_to 10713
  153.2843  135.6943  153.7355 H   0  0  0  0  0  0  0  0  0  0  0  0  # atno 10763 bound_to 10752
  153.6330  135.3406  155.3048 H   0  0  0  0  0  0  0  0  0  0  0  0  # atno 10764 bound_to 10752
  154.8505  135.4413  154.1906 H   0  0  0  0  0  0  0  0  0  0  0  0  # atno 10765 bound_to 10752
  140.1308  134.8803  157.2201 H   0  0  0  0  0  0  0  0  0  0  0  0  # atno 11005 bound_to 11000
  146.3327  140.2778  142.8609 LP  0  0  0  0  0  0  0  0  0  0  0  0  # atno 17320 bound_to 7965
  144.9586  140.8252  143.5527 LP  0  0  0  0  0  0  0  0  0  0  0  0  # atno 17321 bound_to 7965
  139.9909  143.5847  152.2910 LP  0  0  0  0  0  0  0  0  0  0  0  0  # atno 17342 bound_to 10162
  139.6502  144.7660  151.2162 LP  0  0  0  0  0  0  0  0  0  0  0  0  # atno 17343 bound_to 10162
  157.3251  131.0689  151.1902 LP  0  0  0  0  0  0  0  0  0  0  0  0  # atno 17370 bound_to 10713
  157.2802  130.6746  149.6062 LP  0  0  0  0  0  0  0  0  0  0  0  0  # atno 17371 bound_to 10713
  140.2844  134.3312  155.7333 LP  0  0  0  0  0  0  0  0  0  0  0  0  # atno 17394 bound_to 11000
  141.2170  133.7497  156.9412 LP  0  0  0  0  0  0  0  0  0  0  0  0  # atno 17395 bound_to 11000

$$$$
