AV-unprocessed.smi:2061|AV-procd|sdf|8368|dock7
  -GOLD-   2272011 43D 1   1.00000     0.00000
 Structure written by MMmdl.
 46 47  0  0  0  0  0  0  0  0  2 V2000
  154.1626  138.6098  155.7421 C   0  0  0  0  0  0  0  0  0  0  0  0
  152.7943  138.7406  155.1665 C   0  0  0  0  0  0  0  0  0  0  0  0
  151.9804  137.8719  154.4961 C   0  0  0  0  0  0  0  0  0  0  0  0
  150.8189  138.6571  154.2383 C   0  0  0  0  0  0  0  0  0  0  0  0
  149.6483  138.2297  153.5599 N   0  0  0  0  0  0  0  0  0  0  0  0
  148.3657  138.4976  153.8581 C   0  0  0  0  0  0  0  0  0  0  0  0
  147.9815  139.1944  154.7971 O   0  0  0  0  0  0  0  0  0  0  0  0
  147.5323  137.9048  152.9898 N   0  0  0  0  0  0  0  0  0  0  0  0
  146.0726  137.9462  153.0512 C   0  0  0  0  0  0  0  0  0  0  0  0
  145.3803  136.9709  152.0566 C   0  0  2  0  0  0  0  0  0  0  0  0
  143.8574  136.9010  152.3317 C   0  0  0  0  0  0  0  0  0  0  0  0
  146.0082  135.6048  152.0726 N   0  3  1  0  0  0  0  0  0  0  0  0
  145.8243  134.8783  153.3612 C   0  0  0  0  0  0  0  0  0  0  0  0
  146.5048  133.4956  153.3576 C   0  0  2  0  0  0  0  0  0  0  0  0
  148.0396  133.5615  153.4651 C   0  0  0  0  0  0  0  0  0  0  0  0
  146.0681  132.7348  152.2367 O   0  0  0  0  0  0  0  0  0  0  0  0
  146.2954  133.3641  150.9828 C   0  0  1  0  0  0  0  0  0  0  0  0
  145.7825  132.4210  149.8889 C   0  0  0  0  0  0  0  0  0  0  0  0
  145.5816  134.7275  150.9468 C   0  0  0  0  0  0  0  0  0  0  0  0
  150.9194  139.8851  154.7130 N   0  0  0  0  0  0  0  0  0  0  0  0
  152.1846  139.9483  155.3082 O   0  0  0  0  0  0  0  0  0  0  0  0
  154.5048  137.5755  155.7025 H   0  0  0  0  0  0  0  0  0  0  0  0
  154.1764  138.9303  156.7839 H   0  0  0  0  0  0  0  0  0  0  0  0
  154.8744  139.2230  155.1891 H   0  0  0  0  0  0  0  0  0  0  0  0
  152.1976  136.8457  154.2407 H   0  0  0  0  0  0  0  0  0  0  0  0
  149.8089  137.6333  152.7616 H   0  0  0  0  0  0  0  0  0  0  0  0
  147.9386  137.3559  152.2458 H   0  0  0  0  0  0  0  0  0  0  0  0
  145.8449  137.6777  154.0811 H   0  0  0  0  0  0  0  0  0  0  0  0
  145.7000  138.9618  152.9069 H   0  0  0  0  0  0  0  0  0  0  0  0
  145.5138  137.3785  151.0531 H   0  0  0  0  0  0  0  0  0  0  0  0
  143.4009  137.8888  152.3676 H   0  0  0  0  0  0  0  0  0  0  0  0
  143.6483  136.4080  153.2818 H   0  0  0  0  0  0  0  0  0  0  0  0
  143.3133  136.3770  151.5481 H   0  0  0  0  0  0  0  0  0  0  0  0
  146.2335  135.4372  154.2001 H   0  0  0  0  0  0  0  0  0  0  0  0
  144.7561  134.7589  153.5490 H   0  0  0  0  0  0  0  0  0  0  0  0
  146.1548  132.9547  154.2373 H   0  0  0  0  0  0  0  0  0  0  0  0
  148.3409  134.0174  154.4086 H   0  0  0  0  0  0  0  0  0  0  0  0
  148.4881  134.1508  152.6657 H   0  0  0  0  0  0  0  0  0  0  0  0
  148.4747  132.5623  153.4305 H   0  0  0  0  0  0  0  0  0  0  0  0
  147.3648  133.5067  150.8273 H   0  0  0  0  0  0  0  0  0  0  0  0
  145.9371  132.8470  148.8971 H   0  0  0  0  0  0  0  0  0  0  0  0
  144.7164  132.2231  150.0059 H   0  0  0  0  0  0  0  0  0  0  0  0
  146.3043  131.4644  149.9238 H   0  0  0  0  0  0  0  0  0  0  0  0
  144.4991  134.5930  150.9810 H   0  0  0  0  0  0  0  0  0  0  0  0
  145.8237  135.1776  149.9863 H   0  0  0  0  0  0  0  0  0  0  0  0
  147.0023  135.7458  151.9622 H   0  0  0  0  0  0  0  0  0  0  0  0
  1  2  1  0  0  0  0
  1 22  1  0  0  0  0
  1 23  1  0  0  0  0
  1 24  1  0  0  0  0
  2 21  1  0  0  0  0
  2  3  2  0  0  0  0
  3  4  1  0  0  0  0
  3 25  1  0  0  0  0
  4  5  1  0  0  0  0
  4 20  2  0  0  0  0
  5  6  1  0  0  0  0
  5 26  1  0  0  0  0
  6  7  2  0  0  0  0
  6  8  1  0  0  0  0
  8  9  1  0  0  0  0
  8 27  1  0  0  0  0
  9 10  1  0  0  0  0
  9 28  1  0  0  0  0
  9 29  1  0  0  0  0
 10 11  1  0  0  0  0
 10 12  1  0  0  0  0
 10 30  1  0  0  0  0
 11 31  1  0  0  0  0
 11 32  1  0  0  0  0
 11 33  1  0  0  0  0
 12 19  1  0  0  0  0
 12 13  1  0  0  0  0
 12 46  1  0  0  0  0
 13 14  1  0  0  0  0
 13 34  1  0  0  0  0
 13 35  1  0  0  0  0
 14 15  1  0  0  0  0
 14 16  1  0  0  0  0
 14 36  1  0  0  0  0
 15 37  1  0  0  0  0
 15 38  1  0  0  0  0
 15 39  1  0  0  0  0
 16 17  1  0  0  0  0
 17 18  1  0  0  0  0
 17 19  1  0  0  0  0
 17 40  1  0  0  0  0
 18 41  1  0  0  0  0
 18 42  1  0  0  0  0
 18 43  1  0  0  0  0
 19 44  1  0  0  0  0
 19 45  1  0  0  0  0
 20 21  1  0  0  0  0
M  CHG  1  12   1
M  END
> <s_m_source_file>
AV-unprocessed.smi

> <i_m_source_file_index>
2061

> <i_lp_mmshare_version>
43012

> <i_f3d_flags>
0

> <s_epik_input>
W0NIM11jMVtjSF1jKG5vMSlbTkhdQyg9TylbTkhdW0NIMl1bQ0BIXShbQ0gzXSlOMltDSDJdW0NAQEhdKFtDSDNdKU9bQ0BASF0oW0NIM10pW0NIMl0y

> <s_epik_cmdline>
J2VwaWtfcHl0aG9uJywgJy1waCcsICc3LjAnLCAnLXRuJywgJzgnLCAnLW1hJywgJzIwMCcsICctbWV0YWxfYmluZGluZycsICctaW1hZScsICc8aW5maWxlLm1hZT4nLCAnLW9tYWUnLCAnPG91dGZpbGUubWFlPic=

> <r_epik_Ionization_Penalty>
0.707076

> <r_epik_Ionization_Penalty_Charging>
0.707039

> <r_epik_Ionization_Penalty_Neutral>
3.6548e-05

> <r_epik_State_Penalty>
0.730276

> <r_epik_Charging_Adjusted_Penalty>
1.43732

> <i_epik_Tot_Q>
1

> <i_epik_Tot_abs_Q>
1

> <r_epik_Metal_State_Penalty>
0.743132

> <b_epik_Metal_Only>
0

> <s_lp_Force_Field>
OPLS_2005

> <r_lp_Energy>
23.7206

> <b_lp_Chiralities_Consistent>
1

> <s_lp_Variant>
AV-unprocessed.smi:2061-9

> <Gold.Version>
5.8.1

> <Gold.Id.Protein>
6NUR|6NUR_protein|mol2

> <Gold.PLP.Fitness>
40.9829

> <Gold.PLP.PLP>
-29.9849

> <Gold.PLP.part.hbond>
-5.7917

> <Gold.PLP.part.metal>
0.0000

> <Gold.PLP.part.buried>
2.6609

> <Gold.PLP.part.nonpolar>
-28.1345

> <Gold.PLP.part.repulsive>
0.3942

> <Gold.PLP.ligand.clash>
0.0000

> <Gold.PLP.ligand.torsion>
0.4927

> <Gold.PLP.Chemscore.Hbond>
3.9760

> <Gold.PLP.Chemscore.CHOScore>
0.0000

> <Gold.PLP.Chemscore.Metal>
0.0000

> <Gold.Chemscore.Hbonds>
donor molecule, donor type, donor heavy atom, donor atom, acceptor molecule, acceptor atom, score
      L1  H     5    26       P1  7948  0.82
      L1  H     8    27       P1  7948  0.96
      L1  H    12    46       P1  7948  2.00
      P1  H  7989  7998       L1    20  0.20

> <Gold.PLP.Chemscore.Internal.Correction>
0.0554

> <Gold.Rescore>
     Score         DG    S(hbond)    S(metal)    S(lipo)     H(rot)  DE(clash)    DE(int)     intcor
     17.40     -18.25       2.72        0.00      66.25       1.58       0.07       0.79       ----

> <Gold.Chemscore.Fitness>
17.3977

> <Gold.Chemscore.DG>
-18.2547

> <Gold.Chemscore.ZeroCoef>
-5.4800

> <Gold.Chemscore.Hbond>
2.7177

> <Gold.Chemscore.Metal>
0.0000

> <Gold.Chemscore.Lipo>
66.2485

> <Gold.Chemscore.Internal_Hbond>
0.0000

> <Gold.Chemscore.DEClash>
0.0666

> <Gold.Chemscore.DEInternal>
0.7904

> <Gold.Chemscore.Rot>
1.5834

> <Gold.Chemscore.Internal.Correction>
   9.000000E+99

> <Gold.Chemscore.Hbonds>
donor molecule, donor type, donor heavy atom, donor atom, acceptor molecule, acceptor atom, score
      L1  H     5    26       P1  7948  0.28
      L1  H     8    27       P1  7948  0.87
      L1  H    12    46       P1  7948  0.97

> <Gold.Chemscore.Hbond.Weighted>
-9.0771

> <Gold.Chemscore.Metal.Weighted>
-0.0000

> <Gold.Chemscore.Lipo.Weighted>
-7.7511

> <Gold.Chemscore.Internal_Hbond.Weighted>
0.0000

> <Gold.Chemscore.DEClash.Weighted>
0.0666

> <Gold.Chemscore.DEInternal.Weighted>
0.7904

> <Gold.Chemscore.Rot.Weighted>
4.0535

> <Gold.Chemscore.Internal.Correction.Weighted>
   9.000000E+99

> <Gold.Protein.RotatedTorsions>
[ 6907 6896 6895 6894 ] final  129.94 input  -60.11 | X-H torsion
[ 7974 7965 7964 7962 ] final -175.72 input  175.53 | X-H torsion
[ 8008 7997 7996 7995 ] final  173.34 input   59.86 | X-H torsion
[ 10167 10162 10161 10158 ] final  -31.64 input  -65.29 | X-H torsion
[ 10718 10713 10712 10709 ] final  -25.74 input   66.30 | X-H torsion
[ 10763 10752 10751 10750 ] final -148.72 input  -60.55 | X-H torsion
[ 11005 11000 10999 10996 ] final   47.22 input  -57.11 | X-H torsion

> <Gold.Protein.ActiveResidues>
 VAL166  LYS551  ARG553  GLY616  TRP617  ASP618  TYR619  PRO620  LYS621  CYS622 
 ASP623  PHE694  ASN695  SER759  ASP760  ASP761  ALA762  ILE779  LEU786  VAL792 
 PHE793  MET794  SER795  GLU796  ALA797  LYS798  CYS799  TRP800  GLU811  SER814 

> <Gold.Protein.RotatedAtoms>
  152.3575  133.6255  159.5989 H   0  0  0  0  0  0  0  0  0  0  0  0  # atno 6907 bound_to 6896
  150.7578  133.9476  159.3484 H   0  0  0  0  0  0  0  0  0  0  0  0  # atno 6908 bound_to 6896
  151.7319  135.0874  160.0352 H   0  0  0  0  0  0  0  0  0  0  0  0  # atno 6909 bound_to 6896
  144.7127  140.1279  143.6401 H   0  0  0  0  0  0  0  0  0  0  0  0  # atno 7974 bound_to 7965
  156.1085  140.1462  156.9371 H   0  0  0  0  0  0  0  0  0  0  0  0  # atno 8008 bound_to 7997
  154.4750  140.0897  156.7284 H   0  0  0  0  0  0  0  0  0  0  0  0  # atno 8009 bound_to 7997
  155.4637  140.3439  155.4318 H   0  0  0  0  0  0  0  0  0  0  0  0  # atno 8010 bound_to 7997
  140.7233  143.3755  151.1697 H   0  0  0  0  0  0  0  0  0  0  0  0  # atno 10167 bound_to 10162
  156.4604  130.4502  149.6932 H   0  0  0  0  0  0  0  0  0  0  0  0  # atno 10718 bound_to 10713
  154.8217  135.3327  154.7018 H   0  0  0  0  0  0  0  0  0  0  0  0  # atno 10763 bound_to 10752
  153.7649  135.6930  153.4922 H   0  0  0  0  0  0  0  0  0  0  0  0  # atno 10764 bound_to 10752
  153.2084  135.4491  155.0300 H   0  0  0  0  0  0  0  0  0  0  0  0  # atno 10765 bound_to 10752
  140.1298  134.4720  155.8530 H   0  0  0  0  0  0  0  0  0  0  0  0  # atno 11005 bound_to 11000
  145.9313  139.2608  143.1323 LP  0  0  0  0  0  0  0  0  0  0  0  0  # atno 17320 bound_to 7965
  145.9520  140.8901  143.0254 LP  0  0  0  0  0  0  0  0  0  0  0  0  # atno 17321 bound_to 7965
  139.7335  143.9036  152.3027 LP  0  0  0  0  0  0  0  0  0  0  0  0  # atno 17342 bound_to 10162
  139.8833  144.7006  150.8853 LP  0  0  0  0  0  0  0  0  0  0  0  0  # atno 17343 bound_to 10162
  156.3723  130.7537  151.2521 LP  0  0  0  0  0  0  0  0  0  0  0  0  # atno 17370 bound_to 10713
  157.7498  131.0319  150.4204 LP  0  0  0  0  0  0  0  0  0  0  0  0  # atno 17371 bound_to 10713
  141.2168  133.6791  156.7048 LP  0  0  0  0  0  0  0  0  0  0  0  0  # atno 17394 bound_to 11000
  140.2857  134.8281  157.3972 LP  0  0  0  0  0  0  0  0  0  0  0  0  # atno 17395 bound_to 11000

$$$$
