AV-unprocessed.smi:1487|AV-procd|sdf|6021|dock1
  -GOLD-   22720 6123D 1   1.00000     0.00000
 Structure written by MMmdl.
 49 51  0  0  0  0  0  0  0  0  3 V2000
  152.3388  143.8927  161.9598 C   0  0  0  0  0  0  0  0  0  0  0  0
  151.9429  143.2989  160.6186 C   0  0  0  0  0  0  0  0  0  0  0  0
  152.0309  141.8991  160.4488 C   0  0  0  0  0  0  0  0  0  0  0  0
  151.6633  141.3855  159.2109 C   0  0  0  0  0  0  0  0  0  0  0  0
  151.6400  140.0721  158.7381 N   0  3  0  0  0  0  0  0  0  0  0  0
  151.2051  140.0607  157.4481 C   0  0  0  0  0  0  0  0  0  0  0  0
  150.9445  141.3480  157.0904 N   0  0  0  0  0  0  0  0  0  0  0  0
  150.4697  141.8823  155.8058 C   0  0  0  0  0  0  0  0  0  0  0  0
  149.6004  140.8834  155.0153 C   0  0  2  0  0  0  0  0  0  0  0  0
  150.4838  140.0187  154.3299 O   0  0  0  0  0  0  0  0  0  0  0  0
  148.6567  141.5595  153.9948 C   0  0  0  0  0  0  0  0  0  0  0  0
  147.6168  142.4113  154.6285 N   0  3  2  0  0  0  0  0  0  0  0  0
  147.1123  141.8222  155.8967 C   0  0  0  0  0  0  0  0  0  0  0  0
  146.1472  142.7815  156.6131 C   0  0  0  0  0  0  0  0  0  0  0  0
  144.9811  143.1720  155.6966 C   0  0  0  0  0  0  0  0  0  0  0  0
  145.5240  143.7508  154.3819 C   0  0  2  0  0  0  0  0  0  0  0  0
  144.4469  144.0186  153.5097 O   0  0  0  0  0  0  0  0  0  0  0  0
  146.5011  142.7678  153.7105 C   0  0  0  0  0  0  0  0  0  0  0  0
  151.2209  142.2114  158.1586 C   0  0  0  0  0  0  0  0  0  0  0  0
  151.1284  143.5937  158.3103 C   0  0  0  0  0  0  0  0  0  0  0  0
  151.4970  144.1352  159.5627 C   0  0  0  0  0  0  0  0  0  0  0  0
  151.4060  145.6393  159.7566 C   0  0  0  0  0  0  0  0  0  0  0  0
  152.6422  143.1183  162.6649 H   0  0  0  0  0  0  0  0  0  0  0  0
  151.5029  144.4354  162.4016 H   0  0  0  0  0  0  0  0  0  0  0  0
  153.1756  144.5814  161.8413 H   0  0  0  0  0  0  0  0  0  0  0  0
  152.3713  141.2564  161.2480 H   0  0  0  0  0  0  0  0  0  0  0  0
  151.0926  139.1880  156.8206 H   0  0  0  0  0  0  0  0  0  0  0  0
  149.9388  142.8190  155.9763 H   0  0  0  0  0  0  0  0  0  0  0  0
  151.3564  142.1415  155.2254 H   0  0  0  0  0  0  0  0  0  0  0  0
  149.0327  140.2886  155.7301 H   0  0  0  0  0  0  0  0  0  0  0  0
  150.0793  139.1694  154.2412 H   0  0  0  0  0  0  0  0  0  0  0  0
  149.2199  142.1689  153.2872 H   0  0  0  0  0  0  0  0  0  0  0  0
  148.1760  140.7760  153.4068 H   0  0  0  0  0  0  0  0  0  0  0  0
  146.6144  140.8743  155.6861 H   0  0  0  0  0  0  0  0  0  0  0  0
  147.9489  141.6001  156.5606 H   0  0  0  0  0  0  0  0  0  0  0  0
  145.7661  142.3169  157.5230 H   0  0  0  0  0  0  0  0  0  0  0  0
  146.6853  143.6776  156.9251 H   0  0  0  0  0  0  0  0  0  0  0  0
  144.3655  142.2941  155.4946 H   0  0  0  0  0  0  0  0  0  0  0  0
  144.3382  143.8977  156.1963 H   0  0  0  0  0  0  0  0  0  0  0  0
  146.0357  144.6928  154.5843 H   0  0  0  0  0  0  0  0  0  0  0  0
  144.1967  143.2164  153.0767 H   0  0  0  0  0  0  0  0  0  0  0  0
  146.8889  143.2231  152.8003 H   0  0  0  0  0  0  0  0  0  0  0  0
  145.9769  141.8587  153.4103 H   0  0  0  0  0  0  0  0  0  0  0  0
  150.7903  144.2353  157.5104 H   0  0  0  0  0  0  0  0  0  0  0  0
  151.0600  146.1395  158.8516 H   0  0  0  0  0  0  0  0  0  0  0  0
  152.3822  146.0521  160.0121 H   0  0  0  0  0  0  0  0  0  0  0  0
  150.7073  145.8800  160.5582 H   0  0  0  0  0  0  0  0  0  0  0  0
  148.0741  143.2739  154.8869 H   0  0  0  0  0  0  0  0  0  0  0  0
  151.9079  139.2435  159.2542 H   0  0  0  0  0  0  0  0  0  0  0  0
  1  2  1  0  0  0  0
  1 23  1  0  0  0  0
  1 24  1  0  0  0  0
  1 25  1  0  0  0  0
  2 21  1  0  0  0  0
  2  3  2  0  0  0  0
  3  4  1  0  0  0  0
  3 26  1  0  0  0  0
  4 19  2  0  0  0  0
  4  5  1  0  0  0  0
  5  6  2  0  0  0  0
  5 49  1  0  0  0  0
  6  7  1  0  0  0  0
  6 27  1  0  0  0  0
  7  8  1  0  0  0  0
  7 19  1  0  0  0  0
  8  9  1  0  0  0  0
  8 28  1  0  0  0  0
  8 29  1  0  0  0  0
  9 10  1  0  0  0  0
  9 11  1  0  0  0  0
  9 30  1  0  0  0  0
 10 31  1  0  0  0  0
 11 12  1  0  0  0  0
 11 32  1  0  0  0  0
 11 33  1  0  0  0  0
 12 18  1  0  0  0  0
 12 13  1  0  0  0  0
 12 48  1  0  0  0  0
 13 14  1  0  0  0  0
 13 34  1  0  0  0  0
 13 35  1  0  0  0  0
 14 15  1  0  0  0  0
 14 36  1  0  0  0  0
 14 37  1  0  0  0  0
 15 16  1  0  0  0  0
 15 38  1  0  0  0  0
 15 39  1  0  0  0  0
 16 17  1  0  0  0  0
 16 18  1  0  0  0  0
 16 40  1  0  0  0  0
 17 41  1  0  0  0  0
 18 42  1  0  0  0  0
 18 43  1  0  0  0  0
 19 20  1  0  0  0  0
 20 21  2  0  0  0  0
 20 44  1  0  0  0  0
 21 22  1  0  0  0  0
 22 45  1  0  0  0  0
 22 46  1  0  0  0  0
 22 47  1  0  0  0  0
M  CHG  1   5   1
M  CHG  1  12   1
M  END
> <s_m_source_file>
AV-unprocessed.smi

> <i_m_source_file_index>
1487

> <i_lp_mmshare_version>
43012

> <i_f3d_flags>
0

> <s_epik_input>
W0NIM11jKFtjSF0xKWMoW0NIM10pW2NIXWMoYzEyKW4oW2NIXW4yKVtDSDJdW0NASF0oW09IXSlbQ0gyXU4zW0NIMl1bQ0gyXVtDSDJdW0NAQEhdKFtPSF0pW0NIMl0z

> <s_epik_cmdline>
J2VwaWtfcHl0aG9uJywgJy1waCcsICc3LjAnLCAnLXRuJywgJzgnLCAnLW1hJywgJzIwMCcsICctbWV0YWxfYmluZGluZycsICctaW1hZScsICc8aW5maWxlLm1hZT4nLCAnLW9tYWUnLCAnPG91dGZpbGUubWFlPic=

> <r_epik_Ionization_Penalty>
1.1857

> <r_epik_Ionization_Penalty_Charging>
1.1857

> <r_epik_Ionization_Penalty_Neutral>
1.75578e-06

> <r_epik_State_Penalty>
1.26953

> <r_epik_Charging_Adjusted_Penalty>
2.45524

> <i_epik_Tot_Q>
2

> <i_epik_Tot_abs_Q>
2

> <r_epik_Metal_State_Penalty>
5.28243

> <b_epik_Metal_Only>
0

> <s_lp_Force_Field>
OPLS_2005

> <r_lp_Energy>
34.3912

> <b_lp_Chiralities_Consistent>
1

> <s_lp_Variant>
AV-unprocessed.smi:1487-15

> <Gold.Version>
5.8.1

> <Gold.Id.Protein>
6NUR|6NUR_protein|mol2

> <Gold.PLP.Fitness>
59.2885

> <Gold.PLP.PLP>
-50.3686

> <Gold.PLP.part.hbond>
-3.2779

> <Gold.PLP.part.metal>
0.0000

> <Gold.PLP.part.buried>
-8.3511

> <Gold.PLP.part.nonpolar>
-39.4645

> <Gold.PLP.part.repulsive>
0.2339

> <Gold.PLP.ligand.clash>
0.0000

> <Gold.PLP.ligand.torsion>
0.7928

> <Gold.PLP.Chemscore.Hbond>
3.4521

> <Gold.PLP.Chemscore.CHOScore>
0.0000

> <Gold.PLP.Chemscore.Metal>
0.0000

> <Gold.Chemscore.Hbonds>
donor molecule, donor type, donor heavy atom, donor atom, acceptor molecule, acceptor atom, score
      L1  H    12    48       P1  8028  2.00
      L1  H    17    41       P1 10174  0.43
      P1  H  7989  7998       L1    10  1.00

> <Gold.PLP.Chemscore.Internal.Correction>
0.1492

> <Gold.Rescore>
     Score         DG    S(hbond)    S(metal)    S(lipo)     H(rot)  DE(clash)    DE(int)     intcor
     18.06     -18.96       1.84        0.00     122.65       2.74       0.06       0.84       ----

> <Gold.Chemscore.Fitness>
18.0589

> <Gold.Chemscore.DG>
-18.9584

> <Gold.Chemscore.ZeroCoef>
-5.4800

> <Gold.Chemscore.Hbond>
1.8378

> <Gold.Chemscore.Metal>
0.0000

> <Gold.Chemscore.Lipo>
122.6548

> <Gold.Chemscore.Internal_Hbond>
0.0000

> <Gold.Chemscore.DEClash>
0.0609

> <Gold.Chemscore.DEInternal>
0.8386

> <Gold.Chemscore.Rot>
2.7384

> <Gold.Chemscore.Internal.Correction>
   9.000000E+99

> <Gold.Chemscore.Hbonds>
donor molecule, donor type, donor heavy atom, donor atom, acceptor molecule, acceptor atom, score
      L1  H    12    48       P1  8028  0.91
      L1  H    17    41       P1 10174  0.02
      P1  H  7989  7998       L1    10  0.78

> <Gold.Chemscore.Hbond.Weighted>
-6.1381

> <Gold.Chemscore.Metal.Weighted>
-0.0000

> <Gold.Chemscore.Lipo.Weighted>
-14.3506

> <Gold.Chemscore.Internal_Hbond.Weighted>
0.0000

> <Gold.Chemscore.DEClash.Weighted>
0.0609

> <Gold.Chemscore.DEInternal.Weighted>
0.8386

> <Gold.Chemscore.Rot.Weighted>
7.0103

> <Gold.Chemscore.Internal.Correction.Weighted>
   9.000000E+99

> <Gold.Protein.RotatedTorsions>
[ 6907 6896 6895 6894 ] final  167.29 input  -60.11 | X-H torsion
[ 7974 7965 7964 7962 ] final   15.69 input  175.53 | X-H torsion
[ 8008 7997 7996 7995 ] final  133.77 input   59.86 | X-H torsion
[ 10167 10162 10161 10158 ] final  -57.79 input  -65.29 | X-H torsion
[ 10718 10713 10712 10709 ] final  177.03 input   66.30 | X-H torsion
[ 10763 10752 10751 10750 ] final -135.92 input  -60.55 | X-H torsion
[ 11005 11000 10999 10996 ] final  -25.25 input  -57.11 | X-H torsion

> <Gold.Protein.ActiveResidues>
 VAL166  LYS551  ARG553  GLY616  TRP617  ASP618  TYR619  PRO620  LYS621  CYS622 
 ASP623  PHE694  ASN695  SER759  ASP760  ASP761  ALA762  ILE779  LEU786  VAL792 
 PHE793  MET794  SER795  GLU796  ALA797  LYS798  CYS799  TRP800  GLU811  SER814 

> <Gold.Protein.RotatedAtoms>
  151.8656  133.3465  159.3717 H   0  0  0  0  0  0  0  0  0  0  0  0  # atno 6907 bound_to 6896
  150.7167  134.5163  159.5641 H   0  0  0  0  0  0  0  0  0  0  0  0  # atno 6908 bound_to 6896
  152.2686  134.7958  160.0469 H   0  0  0  0  0  0  0  0  0  0  0  0  # atno 6909 bound_to 6896
  146.2271  139.8857  142.8563 H   0  0  0  0  0  0  0  0  0  0  0  0  # atno 7974 bound_to 7965
  156.2995  140.2513  156.3308 H   0  0  0  0  0  0  0  0  0  0  0  0  # atno 8008 bound_to 7997
  154.9147  140.0402  157.1984 H   0  0  0  0  0  0  0  0  0  0  0  0  # atno 8009 bound_to 7997
  154.8371  140.2885  155.5688 H   0  0  0  0  0  0  0  0  0  0  0  0  # atno 8010 bound_to 7997
  140.6237  143.2429  151.5417 H   0  0  0  0  0  0  0  0  0  0  0  0  # atno 10167 bound_to 10162
  156.9114  130.9911  151.3020 H   0  0  0  0  0  0  0  0  0  0  0  0  # atno 10718 bound_to 10713
  154.8694  135.3688  154.4976 H   0  0  0  0  0  0  0  0  0  0  0  0  # atno 10763 bound_to 10752
  153.5619  135.7022  153.5548 H   0  0  0  0  0  0  0  0  0  0  0  0  # atno 10764 bound_to 10752
  153.3620  135.4044  155.1689 H   0  0  0  0  0  0  0  0  0  0  0  0  # atno 10765 bound_to 10752
  140.8921  133.7581  156.0434 H   0  0  0  0  0  0  0  0  0  0  0  0  # atno 11005 bound_to 11000
  145.2468  141.0029  143.3904 LP  0  0  0  0  0  0  0  0  0  0  0  0  # atno 17320 bound_to 7965
  144.9407  139.4192  143.6450 LP  0  0  0  0  0  0  0  0  0  0  0  0  # atno 17321 bound_to 7965
  139.5461  144.2518  152.1444 LP  0  0  0  0  0  0  0  0  0  0  0  0  # atno 17342 bound_to 10162
  140.1744  144.4904  150.6562 LP  0  0  0  0  0  0  0  0  0  0  0  0  # atno 17343 bound_to 10162
  157.5965  130.8481  149.8737 LP  0  0  0  0  0  0  0  0  0  0  0  0  # atno 17370 bound_to 10713
  156.0534  130.3713  150.1147 LP  0  0  0  0  0  0  0  0  0  0  0  0  # atno 17371 bound_to 10713
  140.8334  134.3151  157.5340 LP  0  0  0  0  0  0  0  0  0  0  0  0  # atno 17394 bound_to 11000
  139.8731  134.9376  156.3692 LP  0  0  0  0  0  0  0  0  0  0  0  0  # atno 17395 bound_to 11000

$$$$
