AV-unprocessed.smi:274|AV-procd|sdf|2059|dock2
  -GOLD-   2262021303D 1   1.00000     0.00000
 Structure written by MMmdl.
 50 53  0  0  0  0  0  0  0  0  1 V2000
  147.9117  140.3828  156.6238 C   0  0  0  0  0  0  0  0  0  0  0  0
  146.5742  139.8773  156.0455 C   0  0  0  0  0  0  0  0  0  0  0  0
  145.7548  139.2260  157.1778 C   0  0  0  0  0  0  0  0  0  0  0  0
  146.7882  138.9421  154.8138 C   0  0  1  0  0  0  0  0  0  0  0  0
  147.5866  139.6227  153.6735 C   0  0  0  0  0  0  0  0  0  0  0  0
  147.0340  140.4420  152.9423 O   0  0  0  0  0  0  0  0  0  0  0  0
  148.8728  139.2796  153.4786 N   0  0  0  0  0  0  0  0  0  0  0  0
  149.6178  138.2626  154.2214 C   0  0  0  0  0  0  0  0  0  0  0  0
  148.8852  137.7637  155.4798 C   0  0  0  0  0  0  0  0  0  0  0  0
  147.4456  137.6959  155.2421 N   0  0  0  0  0  0  0  0  0  0  0  0
  147.0059  136.5123  154.7417 C   0  0  0  0  0  0  0  0  0  0  0  0
  147.5880  135.3465  155.1299 N   0  0  0  0  0  0  0  0  0  0  0  0
  147.1467  134.1805  154.6496 C   0  0  0  0  0  0  0  0  0  0  0  0
  146.1550  133.9558  153.7855 N   0  0  0  0  0  0  0  0  0  0  0  0
  145.5702  135.1224  153.3888 C   0  0  0  0  0  0  0  0  0  0  0  0
  145.9273  136.4315  153.8183 C   0  0  0  0  0  0  0  0  0  0  0  0
  145.1093  137.3718  153.2039 N   0  0  0  0  0  0  0  0  0  0  0  0
  144.3103  136.6587  152.4580 C   0  0  0  0  0  0  0  0  0  0  0  0
  144.5244  135.2990  152.4990 N   0  0  0  0  0  0  0  0  0  0  0  0
  143.7930  134.2745  151.7687 C   0  0  0  0  0  0  0  0  0  0  0  0
  144.5014  133.8102  150.4736 C   0  0  1  0  0  0  0  0  0  0  0  0
  144.8255  134.9443  149.6877 O   0  0  0  0  0  0  0  0  0  0  0  0
  145.7836  133.0351  150.7478 C   0  0  0  0  0  0  0  0  0  0  0  0
  145.8860  132.1152  149.5386 C   0  0  0  0  0  0  0  0  0  0  0  0
  144.5406  131.7250  149.3226 O   0  0  0  0  0  0  0  0  0  0  0  0
  143.6859  132.8296  149.6053 C   0  0  0  0  0  0  0  0  0  0  0  0
  148.5456  139.5517  156.9343 H   0  0  0  0  0  0  0  0  0  0  0  0
  147.7489  141.0177  157.4951 H   0  0  0  0  0  0  0  0  0  0  0  0
  148.4718  140.9777  155.9019 H   0  0  0  0  0  0  0  0  0  0  0  0
  146.0145  140.7555  155.7223 H   0  0  0  0  0  0  0  0  0  0  0  0
  146.1992  138.2825  157.4960 H   0  0  0  0  0  0  0  0  0  0  0  0
  144.7257  139.0302  156.8780 H   0  0  0  0  0  0  0  0  0  0  0  0
  145.7034  139.8778  158.0504 H   0  0  0  0  0  0  0  0  0  0  0  0
  145.7960  138.7149  154.4194 H   0  0  0  0  0  0  0  0  0  0  0  0
  149.3647  139.7376  152.7251 H   0  0  0  0  0  0  0  0  0  0  0  0
  149.7755  137.4245  153.5417 H   0  0  0  0  0  0  0  0  0  0  0  0
  150.6051  138.6451  154.4803 H   0  0  0  0  0  0  0  0  0  0  0  0
  149.3016  136.8077  155.7984 H   0  0  0  0  0  0  0  0  0  0  0  0
  149.0658  138.4510  156.3061 H   0  0  0  0  0  0  0  0  0  0  0  0
  147.6616  133.3019  155.0094 H   0  0  0  0  0  0  0  0  0  0  0  0
  143.5396  137.1112  151.8515 H   0  0  0  0  0  0  0  0  0  0  0  0
  143.6367  133.4250  152.4350 H   0  0  0  0  0  0  0  0  0  0  0  0
  142.8014  134.6653  151.5365 H   0  0  0  0  0  0  0  0  0  0  0  0
  145.1520  134.6471  148.8523 H   0  0  0  0  0  0  0  0  0  0  0  0
  146.6609  133.6698  150.8815 H   0  0  0  0  0  0  0  0  0  0  0  0
  145.6732  132.4280  151.6476 H   0  0  0  0  0  0  0  0  0  0  0  0
  146.2566  132.6540  148.6652 H   0  0  0  0  0  0  0  0  0  0  0  0
  146.5317  131.2548  149.7142 H   0  0  0  0  0  0  0  0  0  0  0  0
  142.8102  132.4464  150.1281 H   0  0  0  0  0  0  0  0  0  0  0  0
  143.3386  133.2863  148.6772 H   0  0  0  0  0  0  0  0  0  0  0  0
  1  2  1  0  0  0  0
  1 27  1  0  0  0  0
  1 28  1  0  0  0  0
  1 29  1  0  0  0  0
  2  3  1  0  0  0  0
  2  4  1  0  0  0  0
  2 30  1  0  0  0  0
  3 31  1  0  0  0  0
  3 32  1  0  0  0  0
  3 33  1  0  0  0  0
  4 10  1  0  0  0  0
  4  5  1  0  0  0  0
  4 34  1  0  0  0  0
  5  6  2  0  0  0  0
  5  7  1  0  0  0  0
  7  8  1  0  0  0  0
  7 35  1  0  0  0  0
  8  9  1  0  0  0  0
  8 36  1  0  0  0  0
  8 37  1  0  0  0  0
  9 10  1  0  0  0  0
  9 38  1  0  0  0  0
  9 39  1  0  0  0  0
 10 11  1  0  0  0  0
 11 16  1  0  0  0  0
 11 12  2  0  0  0  0
 12 13  1  0  0  0  0
 13 14  2  0  0  0  0
 13 40  1  0  0  0  0
 14 15  1  0  0  0  0
 15 19  1  0  0  0  0
 15 16  2  0  0  0  0
 16 17  1  0  0  0  0
 17 18  2  0  0  0  0
 18 19  1  0  0  0  0
 18 41  1  0  0  0  0
 19 20  1  0  0  0  0
 20 21  1  0  0  0  0
 20 42  1  0  0  0  0
 20 43  1  0  0  0  0
 21 26  1  0  0  0  0
 21 22  1  0  0  0  0
 21 23  1  0  0  0  0
 22 44  1  0  0  0  0
 23 24  1  0  0  0  0
 23 45  1  0  0  0  0
 23 46  1  0  0  0  0
 24 25  1  0  0  0  0
 24 47  1  0  0  0  0
 24 48  1  0  0  0  0
 25 26  1  0  0  0  0
 26 49  1  0  0  0  0
 26 50  1  0  0  0  0
M  END
> <s_m_source_file>
AV-unprocessed.smi

> <i_m_source_file_index>
274

> <i_lp_mmshare_version>
43012

> <i_f3d_flags>
0

> <s_epik_input>
W0NIM11bQ0hdKFtDSDNdKVtDQEBIXTFDKD1PKVtOSF1bQ0gyXVtDSDJdTjFjKG5bY0hdbjIpYyhjMjMpbltjSF1uM1tDSDJdW0NAQF00KFtPSF0pW0NIMl1bQ0gyXU9bQ0gyXTQ=

> <s_epik_cmdline>
J2VwaWtfcHl0aG9uJywgJy1waCcsICc3LjAnLCAnLXRuJywgJzgnLCAnLW1hJywgJzIwMCcsICctbWV0YWxfYmluZGluZycsICctaW1hZScsICc8aW5maWxlLm1hZT4nLCAnLW9tYWUnLCAnPG91dGZpbGUubWFlPic=

> <r_lp_tautomer_probability>
1

> <r_epik_Ionization_Penalty>
0.000690079

> <r_epik_Ionization_Penalty_Charging>
0

> <r_epik_Ionization_Penalty_Neutral>
0.000690079

> <r_epik_State_Penalty>
0.000321372

> <r_epik_Charging_Adjusted_Penalty>
0.000321372

> <i_epik_Tot_Q>
0

> <i_epik_Tot_abs_Q>
0

> <r_epik_Metal_State_Penalty>
-0

> <b_epik_Metal_Only>
0

> <s_lp_Force_Field>
OPLS_2005

> <r_lp_Energy>
42.7916

> <b_lp_Chiralities_Consistent>
1

> <s_lp_Variant>
AV-unprocessed.smi:274-2

> <Gold.Version>
5.8.1

> <Gold.Id.Protein>
6NUR|6NUR_protein|mol2

> <Gold.PLP.Fitness>
35.2425

> <Gold.PLP.PLP>
-26.2399

> <Gold.PLP.part.hbond>
-2.6417

> <Gold.PLP.part.metal>
0.0000

> <Gold.PLP.part.buried>
-4.6843

> <Gold.PLP.part.nonpolar>
-20.3681

> <Gold.PLP.part.repulsive>
1.1587

> <Gold.PLP.ligand.clash>
0.0000

> <Gold.PLP.ligand.torsion>
0.6239

> <Gold.PLP.Chemscore.Hbond>
2.3149

> <Gold.PLP.Chemscore.CHOScore>
0.9949

> <Gold.PLP.Chemscore.Metal>
0.0000

> <Gold.Chemscore.Hbonds>
donor molecule, donor type, donor heavy atom, donor atom, acceptor molecule, acceptor atom, score
      L1  H     7    35       P1  7957  1.00
      L1  H    22    44       P1  7921  1.00
      P1  H 10785 10796       L1    25  0.32
      L1  C    18    41       P1 10171  0.96

> <Gold.PLP.Chemscore.Internal.Correction>
0.3209

> <Gold.Rescore>
     Score         DG    S(hbond)    S(metal)    S(lipo)     H(rot)  DE(clash)    DE(int)     intcor
     11.83     -14.56       2.44        0.00      54.96       2.14       0.47       2.26       ----

> <Gold.Chemscore.Fitness>
11.8334

> <Gold.Chemscore.DG>
-14.5647

> <Gold.Chemscore.ZeroCoef>
-5.4800

> <Gold.Chemscore.Hbond>
2.4375

> <Gold.Chemscore.Metal>
0.0000

> <Gold.Chemscore.Lipo>
54.9552

> <Gold.Chemscore.Internal_Hbond>
0.0000

> <Gold.Chemscore.DEClash>
0.4685

> <Gold.Chemscore.DEInternal>
2.2628

> <Gold.Chemscore.Rot>
2.1431

> <Gold.Chemscore.Internal.Correction>
   9.000000E+99

> <Gold.Chemscore.Hbonds>
donor molecule, donor type, donor heavy atom, donor atom, acceptor molecule, acceptor atom, score
      L1  H     7    35       P1  7957  0.95
      L1  H    22    44       P1  7921  0.92
      P1  H 10785 10796       L1    25  0.18

> <Gold.Chemscore.Hbond.Weighted>
-8.1412

> <Gold.Chemscore.Metal.Weighted>
-0.0000

> <Gold.Chemscore.Lipo.Weighted>
-6.4298

> <Gold.Chemscore.Internal_Hbond.Weighted>
0.0000

> <Gold.Chemscore.DEClash.Weighted>
0.4685

> <Gold.Chemscore.DEInternal.Weighted>
2.2628

> <Gold.Chemscore.Rot.Weighted>
5.4863

> <Gold.Chemscore.Internal.Correction.Weighted>
   9.000000E+99

> <Gold.Protein.RotatedTorsions>
[ 6907 6896 6895 6894 ] final -138.31 input  -60.11 | X-H torsion
[ 7974 7965 7964 7962 ] final  -57.97 input  175.53 | X-H torsion
[ 8008 7997 7996 7995 ] final  -67.16 input   59.86 | X-H torsion
[ 10167 10162 10161 10158 ] final -150.34 input  -65.29 | X-H torsion
[ 10718 10713 10712 10709 ] final  129.78 input   66.30 | X-H torsion
[ 10763 10752 10751 10750 ] final  -62.77 input  -60.55 | X-H torsion
[ 11005 11000 10999 10996 ] final  -27.53 input  -57.11 | X-H torsion

> <Gold.Protein.ActiveResidues>
 VAL166  LYS551  ARG553  GLY616  TRP617  ASP618  TYR619  PRO620  LYS621  CYS622 
 ASP623  PHE694  ASN695  SER759  ASP760  ASP761  ALA762  ILE779  LEU786  VAL792 
 PHE793  MET794  SER795  GLU796  ALA797  LYS798  CYS799  TRP800  GLU811  SER814 

> <Gold.Protein.RotatedAtoms>
  151.0334  133.5770  159.2658 H   0  0  0  0  0  0  0  0  0  0  0  0  # atno 6907 bound_to 6896
  151.2843  135.0722  159.9191 H   0  0  0  0  0  0  0  0  0  0  0  0  # atno 6908 bound_to 6896
  152.5349  134.0043  159.7963 H   0  0  0  0  0  0  0  0  0  0  0  0  # atno 6909 bound_to 6896
  145.8448  140.8393  143.0016 H   0  0  0  0  0  0  0  0  0  0  0  0  # atno 7974 bound_to 7965
  154.4781  140.0898  156.7312 H   0  0  0  0  0  0  0  0  0  0  0  0  # atno 8008 bound_to 7997
  155.4542  140.3458  155.4286 H   0  0  0  0  0  0  0  0  0  0  0  0  # atno 8009 bound_to 7997
  156.1149  140.1458  156.9275 H   0  0  0  0  0  0  0  0  0  0  0  0  # atno 8010 bound_to 7997
  139.7363  143.8731  152.2549 H   0  0  0  0  0  0  0  0  0  0  0  0  # atno 10167 bound_to 10162
  157.5123  131.1097  150.9275 H   0  0  0  0  0  0  0  0  0  0  0  0  # atno 10718 bound_to 10713
  154.3050  135.6227  153.5441 H   0  0  0  0  0  0  0  0  0  0  0  0  # atno 10763 bound_to 10752
  152.9836  135.5687  154.5241 H   0  0  0  0  0  0  0  0  0  0  0  0  # atno 10764 bound_to 10752
  154.4879  135.2866  155.1496 H   0  0  0  0  0  0  0  0  0  0  0  0  # atno 10765 bound_to 10752
  140.9128  133.7450  156.0693 H   0  0  0  0  0  0  0  0  0  0  0  0  # atno 11005 bound_to 11000
  144.6732  140.0865  143.7467 LP  0  0  0  0  0  0  0  0  0  0  0  0  # atno 17320 bound_to 7965
  145.9425  139.2678  143.1260 LP  0  0  0  0  0  0  0  0  0  0  0  0  # atno 17321 bound_to 7965
  139.8668  144.7089  150.9034 LP  0  0  0  0  0  0  0  0  0  0  0  0  # atno 17342 bound_to 10162
  140.7779  143.3771  151.1543 LP  0  0  0  0  0  0  0  0  0  0  0  0  # atno 17343 bound_to 10162
  156.9912  130.5564  149.5303 LP  0  0  0  0  0  0  0  0  0  0  0  0  # atno 17370 bound_to 10713
  156.0297  130.5389  150.8501 LP  0  0  0  0  0  0  0  0  0  0  0  0  # atno 17371 bound_to 10713
  140.8089  134.3422  157.5418 LP  0  0  0  0  0  0  0  0  0  0  0  0  # atno 17394 bound_to 11000
  139.8760  134.9242  156.3344 LP  0  0  0  0  0  0  0  0  0  0  0  0  # atno 17395 bound_to 11000

$$$$
