AV-unprocessed.smi:72|AV-procd|sdf|710|dock2
  -GOLD-   2262017 33D 1   1.00000     0.00000
 Structure written by MMmdl.
 30 31  0  0  0  0  0  0  0  0  2 V2000
  146.3186  139.3573  151.7077 N   0  0  0  0  0  0  0  0  0  0  0  0
  146.1970  137.9977  151.9062 C   0  0  0  0  0  0  0  0  0  0  0  0
  145.9266  137.2088  150.8021 N   0  3  0  0  0  0  0  0  0  0  0  0
  145.7690  135.8781  150.8264 C   0  0  0  0  0  0  0  0  0  0  0  0
  145.8614  135.2445  151.9771 N   0  0  0  0  0  0  0  0  0  0  0  0
  145.6855  133.7531  152.0486 C   0  0  1  0  0  0  0  0  0  0  0  0
  144.4615  133.4436  151.4545 O   0  0  0  0  0  0  0  0  0  0  0  0
  144.6190  132.3545  150.5513 C   0  0  1  0  0  0  0  0  0  0  0  0
  143.5307  132.4104  149.4682 C   0  0  0  0  0  0  0  0  0  0  0  0
  143.7134  133.5522  148.6593 O   0  0  0  0  0  0  0  0  0  0  0  0
  146.0325  132.5790  150.0135 C   0  0  2  0  0  0  0  0  0  0  0  0
  146.5896  131.4215  149.4204 O   0  0  0  0  0  0  0  0  0  0  0  0
  146.7922  133.0482  151.2499 C   0  0  2  0  0  0  0  0  0  0  0  0
  147.3441  131.9751  151.9897 O   0  0  0  0  0  0  0  0  0  0  0  0
  146.1685  135.9632  153.1605 C   0  0  0  0  0  0  0  0  0  0  0  0
  146.3016  135.3748  154.2326 O   0  0  0  0  0  0  0  0  0  0  0  0
  146.3136  137.3527  153.0342 N   0  0  0  0  0  0  0  0  0  0  0  0
  145.6526  133.4873  153.1068 H   0  0  0  0  0  0  0  0  0  0  0  0
  144.5801  131.4147  151.1062 H   0  0  0  0  0  0  0  0  0  0  0  0
  146.0196  133.3833  149.2764 H   0  0  0  0  0  0  0  0  0  0  0  0
  147.5972  133.7384  150.9926 H   0  0  0  0  0  0  0  0  0  0  0  0
  146.5186  140.0098  152.4530 H   0  0  0  0  0  0  0  0  0  0  0  0
  146.2121  139.8087  150.8104 H   0  0  0  0  0  0  0  0  0  0  0  0
  145.5744  135.3443  149.9046 H   0  0  0  0  0  0  0  0  0  0  0  0
  143.5294  131.5076  148.8570 H   0  0  0  0  0  0  0  0  0  0  0  0
  142.5460  132.4914  149.9295 H   0  0  0  0  0  0  0  0  0  0  0  0
  142.9344  134.0853  148.7087 H   0  0  0  0  0  0  0  0  0  0  0  0
  147.4115  131.2286  149.8456 H   0  0  0  0  0  0  0  0  0  0  0  0
  148.1183  131.6671  151.5432 H   0  0  0  0  0  0  0  0  0  0  0  0
  145.8404  137.6762  149.9108 H   0  0  0  0  0  0  0  0  0  0  0  0
  1  2  1  0  0  0  0
  1 22  1  0  0  0  0
  1 23  1  0  0  0  0
  2 17  2  0  0  0  0
  2  3  1  0  0  0  0
  3  4  2  0  0  0  0
  3 30  1  0  0  0  0
  4  5  1  0  0  0  0
  4 24  1  0  0  0  0
  5  6  1  0  0  0  0
  5 15  1  0  0  0  0
  6 18  1  0  0  0  0
  6 13  1  0  0  0  0
  6  7  1  0  0  0  0
  7  8  1  0  0  0  0
  8 19  1  0  0  0  0
  8  9  1  0  0  0  0
  8 11  1  0  0  0  0
  9 10  1  0  0  0  0
  9 25  1  0  0  0  0
  9 26  1  0  0  0  0
 10 27  1  0  0  0  0
 11 20  1  0  0  0  0
 11 12  1  0  0  0  0
 11 13  1  0  0  0  0
 12 28  1  0  0  0  0
 13 21  1  0  0  0  0
 13 14  1  0  0  0  0
 14 29  1  0  0  0  0
 15 16  2  0  0  0  0
 15 17  1  0  0  0  0
M  CHG  1   3   1
M  END
> <s_m_source_file>
AV-unprocessed.smi

> <i_m_source_file_index>
72

> <i_lp_mmshare_version>
43012

> <i_f3d_flags>
0

> <s_epik_input>
W05IMl1jMW5bY0hdbihjKD1PKW4xKVtDQEBIXTJPW0NASF0oW0NIMl1bT0hdKVtDQEBIXShbT0hdKVtDQEhdMltPSF0=

> <s_epik_cmdline>
J2VwaWtfcHl0aG9uJywgJy1waCcsICc3LjAnLCAnLXRuJywgJzgnLCAnLW1hJywgJzIwMCcsICctbWV0YWxfYmluZGluZycsICctaW1hZScsICc8aW5maWxlLm1hZT4nLCAnLW9tYWUnLCAnPG91dGZpbGUubWFlPic=

> <r_lp_tautomer_probability>
4.77166e-05

> <r_epik_Ionization_Penalty>
0.104979

> <r_epik_Ionization_Penalty_Charging>
0.0999619

> <r_epik_Ionization_Penalty_Neutral>
0.00501745

> <r_epik_State_Penalty>
2.51541

> <r_epik_Charging_Adjusted_Penalty>
2.61537

> <i_epik_Tot_Q>
1

> <i_epik_Tot_abs_Q>
1

> <r_epik_Metal_State_Penalty>
3.53763

> <b_epik_Metal_Only>
0

> <s_epik_Chemistry_Notes>
This compound contains an acetal/aminal-like group ( X-CH(R)-Y where X, Y are N, S, or O) that may be acid/base labile, releasing an aldehyde.

> <s_lp_Force_Field>
OPLS_2005

> <r_lp_Energy>
34.5988

> <b_lp_Chiralities_Consistent>
1

> <s_lp_Variant>
AV-unprocessed.smi:72-48

> <Gold.Version>
5.8.1

> <Gold.Id.Protein>
6NUR|6NUR_protein|mol2

> <Gold.PLP.Fitness>
43.2115

> <Gold.PLP.PLP>
-30.3659

> <Gold.PLP.part.hbond>
-6.3760

> <Gold.PLP.part.metal>
0.0000

> <Gold.PLP.part.buried>
-5.5491

> <Gold.PLP.part.nonpolar>
-20.8342

> <Gold.PLP.part.repulsive>
0.5040

> <Gold.PLP.ligand.clash>
0.0000

> <Gold.PLP.ligand.torsion>
0.1147

> <Gold.PLP.Chemscore.Hbond>
3.3520

> <Gold.PLP.Chemscore.CHOScore>
1.0000

> <Gold.PLP.Chemscore.Metal>
0.0000

> <Gold.Chemscore.Hbonds>
donor molecule, donor type, donor heavy atom, donor atom, acceptor molecule, acceptor atom, score
      L1  H     3    30       P1 10171  0.13
      L1  H    10    27       P1 10186  0.79
      L1  H    12    28       P1 10747  1.00
      L1  H    14    29       P1 10747  1.00
      L1  C     4    24       P1  7921  1.00

> <Gold.PLP.Chemscore.Internal.Correction>
0.0189

> <Gold.Rescore>
     Score         DG    S(hbond)    S(metal)    S(lipo)     H(rot)  DE(clash)    DE(int)     intcor
     11.83     -12.17       3.79        0.00      38.15       4.08       0.02       0.33       ----

> <Gold.Chemscore.Fitness>
11.8250

> <Gold.Chemscore.DG>
-12.1725

> <Gold.Chemscore.ZeroCoef>
-5.4800

> <Gold.Chemscore.Hbond>
3.7932

> <Gold.Chemscore.Metal>
0.0000

> <Gold.Chemscore.Lipo>
38.1514

> <Gold.Chemscore.Internal_Hbond>
0.0000

> <Gold.Chemscore.DEClash>
0.0164

> <Gold.Chemscore.DEInternal>
0.3310

> <Gold.Chemscore.Rot>
4.0783

> <Gold.Chemscore.Internal.Correction>
   9.000000E+99

> <Gold.Chemscore.Hbonds>
donor molecule, donor type, donor heavy atom, donor atom, acceptor molecule, acceptor atom, score
      L1  H     3    30       P1 10171  0.14
      L1  H    10    27       P1 10186  0.74
      L1  H    12    28       P1 10747  1.00
      L1  H    14    29       P1 10747  0.99

> <Gold.Chemscore.Hbond.Weighted>
-12.6692

> <Gold.Chemscore.Metal.Weighted>
-0.0000

> <Gold.Chemscore.Lipo.Weighted>
-4.4637

> <Gold.Chemscore.Internal_Hbond.Weighted>
0.0000

> <Gold.Chemscore.DEClash.Weighted>
0.0164

> <Gold.Chemscore.DEInternal.Weighted>
0.3310

> <Gold.Chemscore.Rot.Weighted>
10.4404

> <Gold.Chemscore.Internal.Correction.Weighted>
   9.000000E+99

> <Gold.Protein.RotatedTorsions>
[ 6907 6896 6895 6894 ] final   30.02 input  -60.11 | X-H torsion
[ 7974 7965 7964 7962 ] final    7.46 input  175.53 | X-H torsion
[ 8008 7997 7996 7995 ] final  -33.27 input   59.86 | X-H torsion
[ 10167 10162 10161 10158 ] final  -91.09 input  -65.29 | X-H torsion
[ 10718 10713 10712 10709 ] final  -66.82 input   66.30 | X-H torsion
[ 10763 10752 10751 10750 ] final    0.22 input  -60.55 | X-H torsion
[ 11005 11000 10999 10996 ] final   93.16 input  -57.11 | X-H torsion

> <Gold.Protein.ActiveResidues>
 VAL166  LYS551  ARG553  GLY616  TRP617  ASP618  TYR619  PRO620  LYS621  CYS622 
 ASP623  PHE694  ASN695  SER759  ASP760  ASP761  ALA762  ILE779  LEU786  VAL792 
 PHE793  MET794  SER795  GLU796  ALA797  LYS798  CYS799  TRP800  GLU811  SER814 

> <Gold.Protein.RotatedAtoms>
  152.0399  134.9717  160.0573 H   0  0  0  0  0  0  0  0  0  0  0  0  # atno 6907 bound_to 6896
  152.1160  133.4322  159.4661 H   0  0  0  0  0  0  0  0  0  0  0  0  # atno 6908 bound_to 6896
  150.6846  134.2510  159.4554 H   0  0  0  0  0  0  0  0  0  0  0  0  # atno 6909 bound_to 6896
  146.2426  140.0080  142.8409 H   0  0  0  0  0  0  0  0  0  0  0  0  # atno 7974 bound_to 7965
  154.4154  140.1715  156.1861 H   0  0  0  0  0  0  0  0  0  0  0  0  # atno 8008 bound_to 7997
  155.9642  140.3391  155.6494 H   0  0  0  0  0  0  0  0  0  0  0  0  # atno 8009 bound_to 7997
  155.6709  140.0711  157.2511 H   0  0  0  0  0  0  0  0  0  0  0  0  # atno 8010 bound_to 7997
  140.3484  143.2904  151.9754 H   0  0  0  0  0  0  0  0  0  0  0  0  # atno 10167 bound_to 10162
  156.0591  130.4268  150.1764 H   0  0  0  0  0  0  0  0  0  0  0  0  # atno 10718 bound_to 10713
  153.3234  135.6970  153.7010 H   0  0  0  0  0  0  0  0  0  0  0  0  # atno 10763 bound_to 10752
  153.5841  135.3492  155.2887 H   0  0  0  0  0  0  0  0  0  0  0  0  # atno 10764 bound_to 10752
  154.8603  135.4302  154.2405 H   0  0  0  0  0  0  0  0  0  0  0  0  # atno 10765 bound_to 10752
  139.8813  134.8774  156.3677 H   0  0  0  0  0  0  0  0  0  0  0  0  # atno 11005 bound_to 11000
  145.1354  140.9541  143.4520 LP  0  0  0  0  0  0  0  0  0  0  0  0  # atno 17320 bound_to 7965
  145.0347  139.3311  143.6007 LP  0  0  0  0  0  0  0  0  0  0  0  0  # atno 17321 bound_to 7965
  139.4830  144.6097  151.7456 LP  0  0  0  0  0  0  0  0  0  0  0  0  # atno 17342 bound_to 10162
  140.5242  144.0831  150.6032 LP  0  0  0  0  0  0  0  0  0  0  0  0  # atno 17343 bound_to 10162
  156.9835  130.9871  151.3432 LP  0  0  0  0  0  0  0  0  0  0  0  0  # atno 17370 bound_to 10713
  157.5586  130.8230  149.8236 LP  0  0  0  0  0  0  0  0  0  0  0  0  # atno 17371 bound_to 10713
  140.9486  133.7466  156.0241 LP  0  0  0  0  0  0  0  0  0  0  0  0  # atno 17394 bound_to 11000
  140.8133  134.3374  157.5405 LP  0  0  0  0  0  0  0  0  0  0  0  0  # atno 17395 bound_to 11000

$$$$
