AV-unprocessed.smi:611|AV-procd|sdf|3061|dock10
  -GOLD-   2262023583D 1   1.00000     0.00000
 Structure written by MMmdl.
 41 42  0  0  0  0  0  0  0  0  1 V2000
  145.5271  131.9223  151.9538 C   0  0  0  0  0  0  0  0  0  0  0  0
  144.6873  132.7143  150.9238 C   0  0  0  0  0  0  0  0  0  0  0  0
  145.1754  132.3875  149.5005 C   0  0  0  0  0  0  0  0  0  0  0  0
  143.2295  132.2260  151.0957 C   0  0  0  0  0  0  0  0  0  0  0  0
  144.7950  134.2294  151.1699 C   0  0  0  0  0  0  0  0  0  0  0  0
  143.7082  134.8491  151.6495 N   0  0  0  0  0  0  0  0  0  0  0  0
  143.8190  136.1547  151.9756 C   0  0  0  0  0  0  0  0  0  0  0  0
  145.0454  136.8494  151.8480 C   0  0  0  0  0  0  0  0  0  0  0  0
  145.2540  138.2152  152.1774 N   0  0  0  0  0  0  0  0  0  0  0  0
  146.3767  138.8100  152.6256 C   0  0  0  0  0  0  0  0  0  0  0  0
  147.4458  138.2351  152.8158 O   0  0  0  0  0  0  0  0  0  0  0  0
  146.2377  140.1232  152.8841 N   0  0  0  0  0  0  0  0  0  0  0  0
  147.2481  141.0622  153.3789 C   0  0  0  0  0  0  0  0  0  0  0  0
  148.1447  140.3881  154.4359 C   0  0  0  0  0  0  0  0  0  0  0  0
  148.2212  141.3617  155.6131 C   0  0  0  0  0  0  0  0  0  0  0  0
  146.8911  142.1062  155.5716 C   0  0  0  0  0  0  0  0  0  0  0  0
  146.6056  142.2775  154.0798 C   0  0  0  0  0  0  0  0  0  0  0  0
  146.1367  136.0854  151.3898 C   0  0  0  0  0  0  0  0  0  0  0  0
  146.0114  134.7812  151.0665 N   0  0  0  0  0  0  0  0  0  0  0  0
  145.4123  130.8464  151.8173 H   0  0  0  0  0  0  0  0  0  0  0  0
  145.2263  132.1567  152.9756 H   0  0  0  0  0  0  0  0  0  0  0  0
  146.5927  132.1378  151.8655 H   0  0  0  0  0  0  0  0  0  0  0  0
  146.2139  132.6889  149.3587 H   0  0  0  0  0  0  0  0  0  0  0  0
  144.5775  132.9039  148.7488 H   0  0  0  0  0  0  0  0  0  0  0  0
  145.1118  131.3187  149.2938 H   0  0  0  0  0  0  0  0  0  0  0  0
  143.1552  131.1450  150.9718 H   0  0  0  0  0  0  0  0  0  0  0  0
  142.5596  132.6724  150.3600 H   0  0  0  0  0  0  0  0  0  0  0  0
  142.8428  132.4699  152.0860 H   0  0  0  0  0  0  0  0  0  0  0  0
  142.9218  136.6153  152.3580 H   0  0  0  0  0  0  0  0  0  0  0  0
  144.4345  138.8028  152.1287 H   0  0  0  0  0  0  0  0  0  0  0  0
  145.3186  140.5129  152.7330 H   0  0  0  0  0  0  0  0  0  0  0  0
  147.8720  141.4038  152.5510 H   0  0  0  0  0  0  0  0  0  0  0  0
  147.6984  139.4537  154.7801 H   0  0  0  0  0  0  0  0  0  0  0  0
  149.1330  140.1459  154.0440 H   0  0  0  0  0  0  0  0  0  0  0  0
  148.3926  140.8581  156.5649 H   0  0  0  0  0  0  0  0  0  0  0  0
  149.0398  142.0653  155.4564 H   0  0  0  0  0  0  0  0  0  0  0  0
  146.1123  141.4931  156.0273 H   0  0  0  0  0  0  0  0  0  0  0  0
  146.9237  143.0566  156.1048 H   0  0  0  0  0  0  0  0  0  0  0  0
  147.0877  143.1895  153.7254 H   0  0  0  0  0  0  0  0  0  0  0  0
  145.5383  142.3837  153.8813 H   0  0  0  0  0  0  0  0  0  0  0  0
  147.1196  136.5206  151.2819 H   0  0  0  0  0  0  0  0  0  0  0  0
  1  2  1  0  0  0  0
  1 20  1  0  0  0  0
  1 21  1  0  0  0  0
  1 22  1  0  0  0  0
  2  3  1  0  0  0  0
  2  4  1  0  0  0  0
  2  5  1  0  0  0  0
  3 23  1  0  0  0  0
  3 24  1  0  0  0  0
  3 25  1  0  0  0  0
  4 26  1  0  0  0  0
  4 27  1  0  0  0  0
  4 28  1  0  0  0  0
  5 19  1  0  0  0  0
  5  6  2  0  0  0  0
  6  7  1  0  0  0  0
  7  8  2  0  0  0  0
  7 29  1  0  0  0  0
  8  9  1  0  0  0  0
  8 18  1  0  0  0  0
  9 10  1  0  0  0  0
  9 30  1  0  0  0  0
 10 11  2  0  0  0  0
 10 12  1  0  0  0  0
 12 13  1  0  0  0  0
 12 31  1  0  0  0  0
 13 17  1  0  0  0  0
 13 14  1  0  0  0  0
 13 32  1  0  0  0  0
 14 15  1  0  0  0  0
 14 33  1  0  0  0  0
 14 34  1  0  0  0  0
 15 16  1  0  0  0  0
 15 35  1  0  0  0  0
 15 36  1  0  0  0  0
 16 17  1  0  0  0  0
 16 37  1  0  0  0  0
 16 38  1  0  0  0  0
 17 39  1  0  0  0  0
 17 40  1  0  0  0  0
 18 19  2  0  0  0  0
 18 41  1  0  0  0  0
M  END
> <s_m_source_file>
AV-unprocessed.smi

> <i_m_source_file_index>
611

> <i_lp_mmshare_version>
43012

> <i_f3d_flags>
0

> <s_epik_input>
W0NIM11DKFtDSDNdKShbQ0gzXSljMW5bY0hdYyhbY0hdbjEpW05IXUMoPU8pW05IXVtDSF0yW0NIMl1bQ0gyXVtDSDJdW0NIMl0y

> <s_epik_cmdline>
J2VwaWtfcHl0aG9uJywgJy1waCcsICc3LjAnLCAnLXRuJywgJzgnLCAnLW1hJywgJzIwMCcsICctbWV0YWxfYmluZGluZycsICctaW1hZScsICc8aW5maWxlLm1hZT4nLCAnLW9tYWUnLCAnPG91dGZpbGUubWFlPic=

> <r_lp_tautomer_probability>
1

> <r_epik_Ionization_Penalty>
2.83035e-05

> <r_epik_Ionization_Penalty_Charging>
0

> <r_epik_Ionization_Penalty_Neutral>
2.83035e-05

> <r_epik_State_Penalty>
-0

> <r_epik_Charging_Adjusted_Penalty>
0

> <i_epik_Tot_Q>
0

> <i_epik_Tot_abs_Q>
0

> <r_epik_Metal_State_Penalty>
-0

> <b_epik_Metal_Only>
0

> <s_lp_Force_Field>
OPLS_2005

> <r_lp_Energy>
27.5905

> <b_lp_Chiralities_Consistent>
1

> <s_lp_Variant>
AV-unprocessed.smi:611-1

> <Gold.Version>
5.8.1

> <Gold.Id.Protein>
6NUR|6NUR_protein|mol2

> <Gold.PLP.Fitness>
36.4751

> <Gold.PLP.PLP>
-28.6103

> <Gold.PLP.part.hbond>
-3.0000

> <Gold.PLP.part.metal>
0.0000

> <Gold.PLP.part.buried>
-0.0312

> <Gold.PLP.part.nonpolar>
-29.9717

> <Gold.PLP.part.repulsive>
4.6476

> <Gold.PLP.ligand.clash>
0.0000

> <Gold.PLP.ligand.torsion>
0.6341

> <Gold.PLP.Chemscore.Hbond>
2.0000

> <Gold.PLP.Chemscore.CHOScore>
1.0000

> <Gold.PLP.Chemscore.Metal>
0.0000

> <Gold.Chemscore.Hbonds>
donor molecule, donor type, donor heavy atom, donor atom, acceptor molecule, acceptor atom, score
      L1  H     9    30       P1 10175  0.98
      L1  H    12    31       P1 10175  1.00
      L1  C    18    41       P1  7948  0.68

> <Gold.PLP.Chemscore.Internal.Correction>
0.1329

> <Gold.Rescore>
     Score         DG    S(hbond)    S(metal)    S(lipo)     H(rot)  DE(clash)    DE(int)     intcor
     11.93     -18.18       1.88        0.00      80.42       1.16       3.13       3.12       ----

> <Gold.Chemscore.Fitness>
11.9328

> <Gold.Chemscore.DG>
-18.1807

> <Gold.Chemscore.ZeroCoef>
-5.4800

> <Gold.Chemscore.Hbond>
1.8772

> <Gold.Chemscore.Metal>
0.0000

> <Gold.Chemscore.Lipo>
80.4247

> <Gold.Chemscore.Internal_Hbond>
0.0000

> <Gold.Chemscore.DEClash>
3.1280

> <Gold.Chemscore.DEInternal>
3.1199

> <Gold.Chemscore.Rot>
1.1637

> <Gold.Chemscore.Internal.Correction>
   9.000000E+99

> <Gold.Chemscore.Hbonds>
donor molecule, donor type, donor heavy atom, donor atom, acceptor molecule, acceptor atom, score
      L1  H     9    30       P1 10175  0.93
      L1  H    12    31       P1 10175  0.69

> <Gold.Chemscore.Hbond.Weighted>
-6.2700

> <Gold.Chemscore.Metal.Weighted>
-0.0000

> <Gold.Chemscore.Lipo.Weighted>
-9.4097

> <Gold.Chemscore.Internal_Hbond.Weighted>
0.0000

> <Gold.Chemscore.DEClash.Weighted>
3.1280

> <Gold.Chemscore.DEInternal.Weighted>
3.1199

> <Gold.Chemscore.Rot.Weighted>
2.9790

> <Gold.Chemscore.Internal.Correction.Weighted>
   9.000000E+99

> <Gold.Protein.RotatedTorsions>
[ 6907 6896 6895 6894 ] final   24.16 input  -60.11 | X-H torsion
[ 7974 7965 7964 7962 ] final  -55.87 input  175.53 | X-H torsion
[ 8008 7997 7996 7995 ] final   82.98 input   59.86 | X-H torsion
[ 10167 10162 10161 10158 ] final -138.76 input  -65.29 | X-H torsion
[ 10718 10713 10712 10709 ] final -176.70 input   66.30 | X-H torsion
[ 10763 10752 10751 10750 ] final  140.59 input  -60.55 | X-H torsion
[ 11005 11000 10999 10996 ] final  -91.81 input  -57.11 | X-H torsion

> <Gold.Protein.ActiveResidues>
 VAL166  LYS551  ARG553  GLY616  TRP617  ASP618  TYR619  PRO620  LYS621  CYS622 
 ASP623  PHE694  ASN695  SER759  ASP760  ASP761  ALA762  ILE779  LEU786  VAL792 
 PHE793  MET794  SER795  GLU796  ALA797  LYS798  CYS799  TRP800  GLU811  SER814 

> <Gold.Protein.RotatedAtoms>
  151.9533  135.0159  160.0543 H   0  0  0  0  0  0  0  0  0  0  0  0  # atno 6907 bound_to 6896
  152.1934  133.4784  159.5028 H   0  0  0  0  0  0  0  0  0  0  0  0  # atno 6908 bound_to 6896
  150.6939  134.1601  159.4216 H   0  0  0  0  0  0  0  0  0  0  0  0  # atno 6909 bound_to 6896
  145.8692  140.8228  142.9897 H   0  0  0  0  0  0  0  0  0  0  0  0  # atno 7974 bound_to 7965
  155.9178  140.3423  155.6149 H   0  0  0  0  0  0  0  0  0  0  0  0  # atno 8008 bound_to 7997
  155.7310  140.0795  157.2307 H   0  0  0  0  0  0  0  0  0  0  0  0  # atno 8009 bound_to 7997
  154.4065  140.1588  156.2496 H   0  0  0  0  0  0  0  0  0  0  0  0  # atno 8010 bound_to 7997
  139.8447  143.7276  152.2661 H   0  0  0  0  0  0  0  0  0  0  0  0  # atno 10167 bound_to 10162
  156.8185  130.9611  151.3113 H   0  0  0  0  0  0  0  0  0  0  0  0  # atno 10718 bound_to 10713
  153.9252  135.2996  155.3447 H   0  0  0  0  0  0  0  0  0  0  0  0  # atno 10763 bound_to 10752
  154.7555  135.4960  153.9369 H   0  0  0  0  0  0  0  0  0  0  0  0  # atno 10764 bound_to 10752
  153.1120  135.6761  153.9587 H   0  0  0  0  0  0  0  0  0  0  0  0  # atno 10765 bound_to 10752
  141.1536  133.7780  156.9932 H   0  0  0  0  0  0  0  0  0  0  0  0  # atno 11005 bound_to 11000
  144.6726  140.1213  143.7449 LP  0  0  0  0  0  0  0  0  0  0  0  0  # atno 17320 bound_to 7965
  145.9157  139.2514  143.1411 LP  0  0  0  0  0  0  0  0  0  0  0  0  # atno 17321 bound_to 7965
  139.7524  144.7530  151.0486 LP  0  0  0  0  0  0  0  0  0  0  0  0  # atno 17342 bound_to 10162
  140.7794  143.4844  150.9975 LP  0  0  0  0  0  0  0  0  0  0  0  0  # atno 17343 bound_to 10162
  157.6469  130.8852  149.9556 LP  0  0  0  0  0  0  0  0  0  0  0  0  # atno 17370 bound_to 10713
  156.1002  130.3656  150.0231 LP  0  0  0  0  0  0  0  0  0  0  0  0  # atno 17371 bound_to 10713
  140.0989  134.9547  157.1892 LP  0  0  0  0  0  0  0  0  0  0  0  0  # atno 17394 bound_to 11000
  140.3345  134.2773  155.7222 LP  0  0  0  0  0  0  0  0  0  0  0  0  # atno 17395 bound_to 11000

$$$$
