AV-unprocessed.smi:832|AV-procd|sdf|3879|dock6
  -GOLD-   22720 1333D 1   1.00000     0.00000
 Structure written by MMmdl.
 42 43  0  0  0  0  0  0  0  0  2 V2000
  152.9240  142.0110  161.2511 C   0  0  0  0  0  0  0  0  0  0  0  0
  152.3123  142.5354  159.9974 C   0  0  0  0  0  0  0  0  0  0  0  0
  151.4683  141.9860  159.0734 C   0  0  0  0  0  0  0  0  0  0  0  0
  151.2898  143.0394  158.1375 C   0  0  0  0  0  0  0  0  0  0  0  0
  150.4645  142.8687  156.9967 N   0  0  0  0  0  0  0  0  0  0  0  0
  150.1502  141.7168  156.3799 C   0  0  0  0  0  0  0  0  0  0  0  0
  150.5496  140.6011  156.7146 O   0  0  0  0  0  0  0  0  0  0  0  0
  149.3301  141.9267  155.3395 N   0  0  0  0  0  0  0  0  0  0  0  0
  148.8191  140.8932  154.4439 C   0  0  0  0  0  0  0  0  0  0  0  0
  147.2790  140.8300  154.4403 C   0  0  1  0  0  0  0  0  0  0  0  0
  146.6756  140.5308  155.8109 C   0  0  0  0  0  0  0  0  0  0  0  0
  145.2543  141.1060  155.7502 C   0  0  0  0  0  0  0  0  0  0  0  0
  145.1878  141.9839  154.5547 N   0  3  1  0  0  0  0  0  0  0  0  0
  144.4318  143.2548  154.7401 C   0  0  0  0  0  0  0  0  0  0  0  0
  145.1084  144.1537  155.7924 C   0  0  0  0  0  0  0  0  0  0  0  0
  142.9689  142.9951  155.1490 C   0  0  0  0  0  0  0  0  0  0  0  0
  146.5735  142.1328  154.0610 C   0  0  0  0  0  0  0  0  0  0  0  0
  151.9642  144.1323  158.4603 N   0  0  0  0  0  0  0  0  0  0  0  0
  152.6216  143.8154  159.6549 O   0  0  0  0  0  0  0  0  0  0  0  0
  152.8545  140.9240  161.2933 H   0  0  0  0  0  0  0  0  0  0  0  0
  152.4171  142.4170  162.1265 H   0  0  0  0  0  0  0  0  0  0  0  0
  153.9777  142.2843  161.3125 H   0  0  0  0  0  0  0  0  0  0  0  0
  151.0485  140.9911  159.0712 H   0  0  0  0  0  0  0  0  0  0  0  0
  150.0714  143.7144  156.6108 H   0  0  0  0  0  0  0  0  0  0  0  0
  149.0545  142.8769  155.1378 H   0  0  0  0  0  0  0  0  0  0  0  0
  149.1735  141.1263  153.4396 H   0  0  0  0  0  0  0  0  0  0  0  0
  149.2451  139.9207  154.6975 H   0  0  0  0  0  0  0  0  0  0  0  0
  146.9551  140.0497  153.7492 H   0  0  0  0  0  0  0  0  0  0  0  0
  146.6869  139.4665  156.0483 H   0  0  0  0  0  0  0  0  0  0  0  0
  147.2409  141.0475  156.5881 H   0  0  0  0  0  0  0  0  0  0  0  0
  144.5109  140.3145  155.6494 H   0  0  0  0  0  0  0  0  0  0  0  0
  145.0381  141.6498  156.6711 H   0  0  0  0  0  0  0  0  0  0  0  0
  144.4250  143.7869  153.7875 H   0  0  0  0  0  0  0  0  0  0  0  0
  144.5441  145.0752  155.9386 H   0  0  0  0  0  0  0  0  0  0  0  0
  146.1169  144.4444  155.4987 H   0  0  0  0  0  0  0  0  0  0  0  0
  145.1747  143.6517  156.7583 H   0  0  0  0  0  0  0  0  0  0  0  0
  142.4434  143.9324  155.3349 H   0  0  0  0  0  0  0  0  0  0  0  0
  142.9101  142.3986  156.0600 H   0  0  0  0  0  0  0  0  0  0  0  0
  142.4126  142.4736  154.3698 H   0  0  0  0  0  0  0  0  0  0  0  0
  147.0511  142.9767  154.5623 H   0  0  0  0  0  0  0  0  0  0  0  0
  146.5978  142.3149  152.9861 H   0  0  0  0  0  0  0  0  0  0  0  0
  144.7014  141.4519  153.8471 H   0  0  0  0  0  0  0  0  0  0  0  0
  1  2  1  0  0  0  0
  1 20  1  0  0  0  0
  1 21  1  0  0  0  0
  1 22  1  0  0  0  0
  2 19  1  0  0  0  0
  2  3  2  0  0  0  0
  3  4  1  0  0  0  0
  3 23  1  0  0  0  0
  4  5  1  0  0  0  0
  4 18  2  0  0  0  0
  5  6  1  0  0  0  0
  5 24  1  0  0  0  0
  6  7  2  0  0  0  0
  6  8  1  0  0  0  0
  8  9  1  0  0  0  0
  8 25  1  0  0  0  0
  9 10  1  0  0  0  0
  9 26  1  0  0  0  0
  9 27  1  0  0  0  0
 10 17  1  0  0  0  0
 10 11  1  0  0  0  0
 10 28  1  0  0  0  0
 11 12  1  0  0  0  0
 11 29  1  0  0  0  0
 11 30  1  0  0  0  0
 12 13  1  0  0  0  0
 12 31  1  0  0  0  0
 12 32  1  0  0  0  0
 13 14  1  0  0  0  0
 13 17  1  0  0  0  0
 13 42  1  0  0  0  0
 14 15  1  0  0  0  0
 14 16  1  0  0  0  0
 14 33  1  0  0  0  0
 15 34  1  0  0  0  0
 15 35  1  0  0  0  0
 15 36  1  0  0  0  0
 16 37  1  0  0  0  0
 16 38  1  0  0  0  0
 16 39  1  0  0  0  0
 17 40  1  0  0  0  0
 17 41  1  0  0  0  0
 18 19  1  0  0  0  0
M  CHG  1  13   1
M  END
> <s_m_source_file>
AV-unprocessed.smi

> <i_m_source_file_index>
832

> <i_lp_mmshare_version>
43012

> <i_f3d_flags>
0

> <s_epik_input>
W0NIM11jMVtjSF1jKG5vMSlbTkhdQyg9TylbTkhdW0NIMl1bQ0BASF0yW0NIMl1bQ0gyXU4oW0NIMl0yKVtDSF0oW0NIM10pW0NIM10=

> <s_epik_cmdline>
J2VwaWtfcHl0aG9uJywgJy1waCcsICc3LjAnLCAnLXRuJywgJzgnLCAnLW1hJywgJzIwMCcsICctbWV0YWxfYmluZGluZycsICctaW1hZScsICc8aW5maWxlLm1hZT4nLCAnLW9tYWUnLCAnPG91dGZpbGUubWFlPic=

> <r_lp_tautomer_probability>
1

> <r_epik_Ionization_Penalty>
0.000242791

> <r_epik_Ionization_Penalty_Charging>
0.000220876

> <r_epik_Ionization_Penalty_Neutral>
2.19143e-05

> <r_epik_State_Penalty>
-0

> <r_epik_Charging_Adjusted_Penalty>
0.000220876

> <i_epik_Tot_Q>
1

> <i_epik_Tot_abs_Q>
1

> <r_epik_Metal_State_Penalty>
-0

> <b_epik_Metal_Only>
0

> <s_lp_Force_Field>
OPLS_2005

> <r_lp_Energy>
26.1652

> <b_lp_Chiralities_Consistent>
1

> <s_lp_Variant>
AV-unprocessed.smi:832-4

> <Gold.Version>
5.8.1

> <Gold.Id.Protein>
6NUR|6NUR_protein|mol2

> <Gold.PLP.Fitness>
45.8599

> <Gold.PLP.PLP>
-34.1236

> <Gold.PLP.part.hbond>
-3.0000

> <Gold.PLP.part.metal>
0.0000

> <Gold.PLP.part.buried>
-7.0521

> <Gold.PLP.part.nonpolar>
-24.6943

> <Gold.PLP.part.repulsive>
0.3311

> <Gold.PLP.ligand.clash>
0.0000

> <Gold.PLP.ligand.torsion>
0.1465

> <Gold.PLP.Chemscore.Hbond>
4.0000

> <Gold.PLP.Chemscore.CHOScore>
0.0000

> <Gold.PLP.Chemscore.Metal>
0.0000

> <Gold.Chemscore.Hbonds>
donor molecule, donor type, donor heavy atom, donor atom, acceptor molecule, acceptor atom, score
      L1  H     5    24       P1  8028  1.00
      L1  H     8    25       P1  8028  1.00
      L1  H    13    42       P1 10175  1.90

> <Gold.PLP.Chemscore.Internal.Correction>
0.0294

> <Gold.Rescore>
     Score         DG    S(hbond)    S(metal)    S(lipo)     H(rot)  DE(clash)    DE(int)     intcor
     16.78     -18.10       2.68        0.00      64.45       1.51       0.06       1.26       ----

> <Gold.Chemscore.Fitness>
16.7780

> <Gold.Chemscore.DG>
-18.1018

> <Gold.Chemscore.ZeroCoef>
-5.4800

> <Gold.Chemscore.Hbond>
2.6823

> <Gold.Chemscore.Metal>
0.0000

> <Gold.Chemscore.Lipo>
64.4468

> <Gold.Chemscore.Internal_Hbond>
0.0000

> <Gold.Chemscore.DEClash>
0.0604

> <Gold.Chemscore.DEInternal>
1.2634

> <Gold.Chemscore.Rot>
1.5146

> <Gold.Chemscore.Internal.Correction>
   9.000000E+99

> <Gold.Chemscore.Hbonds>
donor molecule, donor type, donor heavy atom, donor atom, acceptor molecule, acceptor atom, score
      L1  H     5    24       P1  8028  0.99
      L1  H     8    25       P1  8028  0.96
      L1  H    13    42       P1 10175  0.21

> <Gold.Chemscore.Hbond.Weighted>
-8.9589

> <Gold.Chemscore.Metal.Weighted>
-0.0000

> <Gold.Chemscore.Lipo.Weighted>
-7.5403

> <Gold.Chemscore.Internal_Hbond.Weighted>
0.0000

> <Gold.Chemscore.DEClash.Weighted>
0.0604

> <Gold.Chemscore.DEInternal.Weighted>
1.2634

> <Gold.Chemscore.Rot.Weighted>
3.8774

> <Gold.Chemscore.Internal.Correction.Weighted>
   9.000000E+99

> <Gold.Protein.RotatedTorsions>
[ 6907 6896 6895 6894 ] final  155.31 input  -60.11 | X-H torsion
[ 7974 7965 7964 7962 ] final  154.83 input  175.53 | X-H torsion
[ 8008 7997 7996 7995 ] final  157.62 input   59.86 | X-H torsion
[ 10167 10162 10161 10158 ] final  154.18 input  -65.29 | X-H torsion
[ 10718 10713 10712 10709 ] final  157.21 input   66.30 | X-H torsion
[ 10763 10752 10751 10750 ] final  -34.32 input  -60.55 | X-H torsion
[ 11005 11000 10999 10996 ] final   67.09 input  -57.11 | X-H torsion

> <Gold.Protein.ActiveResidues>
 VAL166  LYS551  ARG553  GLY616  TRP617  ASP618  TYR619  PRO620  LYS621  CYS622 
 ASP623  PHE694  ASN695  SER759  ASP760  ASP761  ALA762  ILE779  LEU786  VAL792 
 PHE793  MET794  SER795  GLU796  ALA797  LYS798  CYS799  TRP800  GLU811  SER814 

> <Gold.Protein.RotatedAtoms>
  152.0460  133.3998  159.4356 H   0  0  0  0  0  0  0  0  0  0  0  0  # atno 6907 bound_to 6896
  150.6873  134.3362  159.4857 H   0  0  0  0  0  0  0  0  0  0  0  0  # atno 6908 bound_to 6896
  152.1166  134.9236  160.0615 H   0  0  0  0  0  0  0  0  0  0  0  0  # atno 6909 bound_to 6896
  144.8063  139.6987  143.6160 H   0  0  0  0  0  0  0  0  0  0  0  0  # atno 7974 bound_to 7965
  156.2353  140.1880  156.7136 H   0  0  0  0  0  0  0  0  0  0  0  0  # atno 8008 bound_to 7997
  154.6095  140.0624  156.9502 H   0  0  0  0  0  0  0  0  0  0  0  0  # atno 8009 bound_to 7997
  155.2040  140.3294  155.4341 H   0  0  0  0  0  0  0  0  0  0  0  0  # atno 8010 bound_to 7997
  139.4824  144.5209  151.7878 H   0  0  0  0  0  0  0  0  0  0  0  0  # atno 10167 bound_to 10162
  157.1946  131.0662  151.2060 H   0  0  0  0  0  0  0  0  0  0  0  0  # atno 10718 bound_to 10713
  153.8447  135.6854  153.4799 H   0  0  0  0  0  0  0  0  0  0  0  0  # atno 10763 bound_to 10752
  153.1432  135.4648  154.9525 H   0  0  0  0  0  0  0  0  0  0  0  0  # atno 10764 bound_to 10752
  154.7829  135.3275  154.7897 H   0  0  0  0  0  0  0  0  0  0  0  0  # atno 10765 bound_to 10752
  139.9792  134.6772  156.0295 H   0  0  0  0  0  0  0  0  0  0  0  0  # atno 11005 bound_to 11000
  146.2355  139.5897  142.9526 LP  0  0  0  0  0  0  0  0  0  0  0  0  # atno 17320 bound_to 7965
  145.5430  141.0419  143.2320 LP  0  0  0  0  0  0  0  0  0  0  0  0  # atno 17321 bound_to 7965
  140.4723  144.1570  150.5919 LP  0  0  0  0  0  0  0  0  0  0  0  0  # atno 17342 bound_to 10162
  140.4369  143.2543  151.9523 LP  0  0  0  0  0  0  0  0  0  0  0  0  # atno 17343 bound_to 10162
  157.3827  130.7240  149.6641 LP  0  0  0  0  0  0  0  0  0  0  0  0  # atno 17370 bound_to 10713
  155.9707  130.4168  150.4248 LP  0  0  0  0  0  0  0  0  0  0  0  0  # atno 17371 bound_to 10713
  141.1466  133.6555  156.3885 LP  0  0  0  0  0  0  0  0  0  0  0  0  # atno 17394 bound_to 11000
  140.5132  134.6375  157.5292 LP  0  0  0  0  0  0  0  0  0  0  0  0  # atno 17395 bound_to 11000

$$$$
