AV-unprocessed.smi:1833|AV-procd|sdf|7466|dock1
  -GOLD-   22720 9163D 1   1.00000     0.00000
 Structure written by MMmdl.
 42 43  0  0  0  0  0  0  0  0  2 V2000
  148.6196  140.4118  154.9328 C   0  0  0  0  0  0  0  0  0  0  0  0
  149.1426  139.1045  154.3227 C   0  0  0  0  0  0  0  0  0  0  0  0
  148.0655  138.2948  153.7002 N   0  3  2  0  0  0  0  0  0  0  0  0
  147.2166  139.1061  152.7883 C   0  0  0  0  0  0  0  0  0  0  0  0
  146.1919  138.2311  152.0469 C   0  0  0  0  0  0  0  0  0  0  0  0
  145.3374  137.4184  153.0325 C   0  0  0  0  0  0  0  0  0  0  0  0
  146.2278  136.6152  153.9961 C   0  0  1  0  0  0  0  0  0  0  0  0
  146.9026  135.5398  153.2702 N   0  0  0  0  0  0  0  0  0  0  0  0
  146.8074  134.2342  153.5566 C   0  0  0  0  0  0  0  0  0  0  0  0
  146.1552  133.7815  154.4971 O   0  0  0  0  0  0  0  0  0  0  0  0
  147.5058  133.4864  152.6911 N   0  0  0  0  0  0  0  0  0  0  0  0
  147.5629  132.0274  152.6845 C   0  0  0  0  0  0  0  0  0  0  0  0
  146.1759  131.3758  152.5404 C   0  0  0  0  0  0  0  0  0  0  0  0
  145.3891  131.8641  151.3672 C   0  0  0  0  0  0  0  0  0  0  0  0
  144.0533  131.8782  151.3199 N   0  0  0  0  0  0  0  0  0  0  0  0
  143.5697  132.3882  150.1123 C   0  0  0  0  0  0  0  0  0  0  0  0
  144.5579  132.7929  149.2522 C   0  0  0  0  0  0  0  0  0  0  0  0
  146.1433  132.5328  149.9240 S   0  0  0  0  0  0  0  0  0  0  0  0
  147.2388  137.5529  154.6909 C   0  0  0  0  0  0  0  0  0  0  0  0
  149.4141  140.9279  155.4718 H   0  0  0  0  0  0  0  0  0  0  0  0
  147.8113  140.2213  155.6395 H   0  0  0  0  0  0  0  0  0  0  0  0
  148.2497  141.0982  154.1721 H   0  0  0  0  0  0  0  0  0  0  0  0
  149.9288  139.3067  153.5941 H   0  0  0  0  0  0  0  0  0  0  0  0
  149.6055  138.5279  155.1247 H   0  0  0  0  0  0  0  0  0  0  0  0
  146.7041  139.8805  153.3613 H   0  0  0  0  0  0  0  0  0  0  0  0
  147.8433  139.6164  152.0560 H   0  0  0  0  0  0  0  0  0  0  0  0
  145.5486  138.8569  151.4277 H   0  0  0  0  0  0  0  0  0  0  0  0
  146.7119  137.5586  151.3636 H   0  0  0  0  0  0  0  0  0  0  0  0
  144.7060  138.0982  153.6061 H   0  0  0  0  0  0  0  0  0  0  0  0
  144.6608  136.7556  152.4914 H   0  0  0  0  0  0  0  0  0  0  0  0
  145.5850  136.1650  154.7548 H   0  0  0  0  0  0  0  0  0  0  0  0
  147.4563  135.8087  152.4699 H   0  0  0  0  0  0  0  0  0  0  0  0
  148.0127  133.9593  151.9575 H   0  0  0  0  0  0  0  0  0  0  0  0
  148.2330  131.6685  151.9014 H   0  0  0  0  0  0  0  0  0  0  0  0
  148.0081  131.7142  153.6289 H   0  0  0  0  0  0  0  0  0  0  0  0
  146.2916  130.2961  152.4431 H   0  0  0  0  0  0  0  0  0  0  0  0
  145.5930  131.5384  153.4479 H   0  0  0  0  0  0  0  0  0  0  0  0
  142.5039  132.4273  149.9459 H   0  0  0  0  0  0  0  0  0  0  0  0
  144.4509  133.2223  148.2670 H   0  0  0  0  0  0  0  0  0  0  0  0
  147.8727  136.9684  155.3569 H   0  0  0  0  0  0  0  0  0  0  0  0
  146.7077  138.2670  155.3224 H   0  0  0  0  0  0  0  0  0  0  0  0
  148.5234  137.6034  153.1236 H   0  0  0  0  0  0  0  0  0  0  0  0
  1  2  1  0  0  0  0
  1 20  1  0  0  0  0
  1 21  1  0  0  0  0
  1 22  1  0  0  0  0
  2  3  1  0  0  0  0
  2 23  1  0  0  0  0
  2 24  1  0  0  0  0
  3 19  1  0  0  0  0
  3  4  1  0  0  0  0
  3 42  1  0  0  0  0
  4  5  1  0  0  0  0
  4 25  1  0  0  0  0
  4 26  1  0  0  0  0
  5  6  1  0  0  0  0
  5 27  1  0  0  0  0
  5 28  1  0  0  0  0
  6  7  1  0  0  0  0
  6 29  1  0  0  0  0
  6 30  1  0  0  0  0
  7  8  1  0  0  0  0
  7 19  1  0  0  0  0
  7 31  1  0  0  0  0
  8  9  1  0  0  0  0
  8 32  1  0  0  0  0
  9 10  2  0  0  0  0
  9 11  1  0  0  0  0
 11 12  1  0  0  0  0
 11 33  1  0  0  0  0
 12 13  1  0  0  0  0
 12 34  1  0  0  0  0
 12 35  1  0  0  0  0
 13 14  1  0  0  0  0
 13 36  1  0  0  0  0
 13 37  1  0  0  0  0
 14 18  1  0  0  0  0
 14 15  2  0  0  0  0
 15 16  1  0  0  0  0
 16 17  2  0  0  0  0
 16 38  1  0  0  0  0
 17 18  1  0  0  0  0
 17 39  1  0  0  0  0
 19 40  1  0  0  0  0
 19 41  1  0  0  0  0
M  CHG  1   3   1
M  END
> <s_m_source_file>
AV-unprocessed.smi

> <i_m_source_file_index>
1833

> <i_lp_mmshare_version>
43012

> <i_f3d_flags>
0

> <s_epik_input>
W0NIM11bQ0gyXU4xW0NIMl1bQ0gyXVtDSDJdW0NASF0oW0NIMl0xKVtOSF1DKD1PKVtOSF1bQ0gyXVtDSDJdYzJuW2NIXVtjSF1zMg==

> <s_epik_cmdline>
J2VwaWtfcHl0aG9uJywgJy1waCcsICc3LjAnLCAnLXRuJywgJzgnLCAnLW1hJywgJzIwMCcsICctbWV0YWxfYmluZGluZycsICctaW1hZScsICc8aW5maWxlLm1hZT4nLCAnLW9tYWUnLCAnPG91dGZpbGUubWFlPic=

> <r_lp_tautomer_probability>
1

> <r_epik_Ionization_Penalty>
0.00269629

> <r_epik_Ionization_Penalty_Charging>
0.00233899

> <r_epik_Ionization_Penalty_Neutral>
0.000357304

> <r_epik_State_Penalty>
-0

> <r_epik_Charging_Adjusted_Penalty>
0.00233899

> <i_epik_Tot_Q>
1

> <i_epik_Tot_abs_Q>
1

> <r_epik_Metal_State_Penalty>
-0

> <b_epik_Metal_Only>
0

> <s_lp_Force_Field>
OPLS_2005

> <r_lp_Energy>
14.5557

> <b_lp_Chiralities_Consistent>
1

> <s_lp_Variant>
AV-unprocessed.smi:1833-2

> <Gold.Version>
5.8.1

> <Gold.Id.Protein>
6NUR|6NUR_protein|mol2

> <Gold.PLP.Fitness>
43.5609

> <Gold.PLP.PLP>
-28.5132

> <Gold.PLP.part.hbond>
-2.9414

> <Gold.PLP.part.metal>
0.0000

> <Gold.PLP.part.buried>
1.6861

> <Gold.PLP.part.nonpolar>
-28.8333

> <Gold.PLP.part.repulsive>
0.2996

> <Gold.PLP.ligand.clash>
0.0000

> <Gold.PLP.ligand.torsion>
0.4892

> <Gold.PLP.Chemscore.Hbond>
2.9830

> <Gold.PLP.Chemscore.CHOScore>
2.3386

> <Gold.PLP.Chemscore.Metal>
0.0000

> <Gold.Chemscore.Hbonds>
donor molecule, donor type, donor heavy atom, donor atom, acceptor molecule, acceptor atom, score
      L1  H     3    42       P1  7948  2.00
      L1  H     8    32       P1  7948  0.98
      L1  H    11    33       P1  7948  0.03
      L1  C    16    38       P1 10186  1.00
      L1  C    16    38       P1 10952  0.57
      L1  C    17    39       P1  7921  0.73

> <Gold.PLP.Chemscore.Internal.Correction>
0.0611

> <Gold.Rescore>
     Score         DG    S(hbond)    S(metal)    S(lipo)     H(rot)  DE(clash)    DE(int)     intcor
     17.17     -17.77       1.93        0.00      87.40       1.71       0.22       0.39       ----

> <Gold.Chemscore.Fitness>
17.1662

> <Gold.Chemscore.DG>
-17.7737

> <Gold.Chemscore.ZeroCoef>
-5.4800

> <Gold.Chemscore.Hbond>
1.9335

> <Gold.Chemscore.Metal>
0.0000

> <Gold.Chemscore.Lipo>
87.3976

> <Gold.Chemscore.Internal_Hbond>
0.0000

> <Gold.Chemscore.DEClash>
0.2181

> <Gold.Chemscore.DEInternal>
0.3893

> <Gold.Chemscore.Rot>
1.7147

> <Gold.Chemscore.Internal.Correction>
   9.000000E+99

> <Gold.Chemscore.Hbonds>
donor molecule, donor type, donor heavy atom, donor atom, acceptor molecule, acceptor atom, score
      L1  H     3    42       P1  7948  1.00
      L1  H     8    32       P1  7948  0.93

> <Gold.Chemscore.Hbond.Weighted>
-6.4578

> <Gold.Chemscore.Metal.Weighted>
-0.0000

> <Gold.Chemscore.Lipo.Weighted>
-10.2255

> <Gold.Chemscore.Internal_Hbond.Weighted>
0.0000

> <Gold.Chemscore.DEClash.Weighted>
0.2181

> <Gold.Chemscore.DEInternal.Weighted>
0.3893

> <Gold.Chemscore.Rot.Weighted>
4.3896

> <Gold.Chemscore.Internal.Correction.Weighted>
   9.000000E+99

> <Gold.Protein.RotatedTorsions>
[ 6907 6896 6895 6894 ] final -122.27 input  -60.11 | X-H torsion
[ 7974 7965 7964 7962 ] final -104.39 input  175.53 | X-H torsion
[ 8008 7997 7996 7995 ] final  -76.77 input   59.86 | X-H torsion
[ 10167 10162 10161 10158 ] final  -98.85 input  -65.29 | X-H torsion
[ 10718 10713 10712 10709 ] final  -52.19 input   66.30 | X-H torsion
[ 10763 10752 10751 10750 ] final  -15.36 input  -60.55 | X-H torsion
[ 11005 11000 10999 10996 ] final -142.37 input  -57.11 | X-H torsion

> <Gold.Protein.ActiveResidues>
 VAL166  LYS551  ARG553  GLY616  TRP617  ASP618  TYR619  PRO620  LYS621  CYS622 
 ASP623  PHE694  ASN695  SER759  ASP760  ASP761  ALA762  ILE779  LEU786  VAL792 
 PHE793  MET794  SER795  GLU796  ALA797  LYS798  CYS799  TRP800  GLU811  SER814 

> <Gold.Protein.RotatedAtoms>
  150.8560  133.7714  159.3008 H   0  0  0  0  0  0  0  0  0  0  0  0  # atno 6907 bound_to 6896
  151.5371  135.1067  159.9927 H   0  0  0  0  0  0  0  0  0  0  0  0  # atno 6908 bound_to 6896
  152.4590  133.7739  159.6870 H   0  0  0  0  0  0  0  0  0  0  0  0  # atno 6909 bound_to 6896
  145.2437  140.9214  143.3135 H   0  0  0  0  0  0  0  0  0  0  0  0  # atno 7974 bound_to 7965
  154.5535  140.0721  156.8706 H   0  0  0  0  0  0  0  0  0  0  0  0  # atno 8008 bound_to 7997
  155.2947  140.3380  155.4232 H   0  0  0  0  0  0  0  0  0  0  0  0  # atno 8009 bound_to 7997
  156.1982  140.1711  156.7940 H   0  0  0  0  0  0  0  0  0  0  0  0  # atno 8010 bound_to 7997
  140.2686  143.3359  152.0556 H   0  0  0  0  0  0  0  0  0  0  0  0  # atno 10167 bound_to 10162
  156.1643  130.4149  149.9744 H   0  0  0  0  0  0  0  0  0  0  0  0  # atno 10718 bound_to 10713
  153.5422  135.7013  153.5631 H   0  0  0  0  0  0  0  0  0  0  0  0  # atno 10763 bound_to 10752
  153.3592  135.3974  155.1705 H   0  0  0  0  0  0  0  0  0  0  0  0  # atno 10764 bound_to 10752
  154.8672  135.3784  154.4927 H   0  0  0  0  0  0  0  0  0  0  0  0  # atno 10765 bound_to 10752
  140.8232  134.2606  157.4891 H   0  0  0  0  0  0  0  0  0  0  0  0  # atno 11005 bound_to 11000
  144.9565  139.4025  143.6376 LP  0  0  0  0  0  0  0  0  0  0  0  0  # atno 17320 bound_to 7965
  146.3321  139.8598  142.8858 LP  0  0  0  0  0  0  0  0  0  0  0  0  # atno 17321 bound_to 7965
  139.4995  144.6671  151.6330 LP  0  0  0  0  0  0  0  0  0  0  0  0  # atno 17342 bound_to 10162
  140.5908  143.9783  150.6323 LP  0  0  0  0  0  0  0  0  0  0  0  0  # atno 17343 bound_to 10162
  156.7563  130.9134  151.3639 LP  0  0  0  0  0  0  0  0  0  0  0  0  # atno 17370 bound_to 10713
  157.6756  130.9091  150.0143 LP  0  0  0  0  0  0  0  0  0  0  0  0  # atno 17371 bound_to 10713
  139.8707  134.9546  156.4182 LP  0  0  0  0  0  0  0  0  0  0  0  0  # atno 17394 bound_to 11000
  140.9077  133.7734  155.9754 LP  0  0  0  0  0  0  0  0  0  0  0  0  # atno 17395 bound_to 11000

$$$$
