AV-unprocessed.smi:2429|AV-procd|sdf|9582|dock7
  -GOLD-   2272013213D 1   1.00000     0.00000
 Structure written by MMmdl.
 34 35  0  0  0  0  0  0  0  0  1 V2000
  152.6866  137.5804  157.2534 C   0  0  0  0  0  0  0  0  0  0  0  0
  151.7408  138.5566  156.5212 C   0  0  0  0  0  0  0  0  0  0  0  0
  151.9692  139.9293  156.9977 N   0  0  0  0  0  0  0  0  0  0  0  0
  151.9704  140.3885  158.2605 C   0  0  0  0  0  0  0  0  0  0  0  0
  151.7728  139.6836  159.2495 O   0  0  0  0  0  0  0  0  0  0  0  0
  152.2347  141.7058  158.2883 N   0  0  0  0  0  0  0  0  0  0  0  0
  152.3159  142.5764  159.4093 C   0  0  0  0  0  0  0  0  0  0  0  0
  152.2812  142.1440  160.7573 C   0  0  0  0  0  0  0  0  0  0  0  0
  152.3524  143.1128  161.7785 C   0  0  0  0  0  0  0  0  0  0  0  0
  152.4438  144.4387  161.5418 N   0  0  0  0  0  0  0  0  0  0  0  0
  152.4615  144.8480  160.2557 C   0  0  0  0  0  0  0  0  0  0  0  0
  152.3956  143.9629  159.1610 C   0  0  0  0  0  0  0  0  0  0  0  0
  152.4128  144.4414  157.8932 F   0  0  0  0  0  0  0  0  0  0  0  0
  151.9166  138.4446  154.9870 C   0  0  0  0  0  0  0  0  0  0  0  0
  150.8391  139.2360  154.2243 C   0  0  0  0  0  0  0  0  0  0  0  0
  149.5460  138.7808  154.6051 O   0  0  0  0  0  0  0  0  0  0  0  0
  149.2733  138.9776  155.9875 C   0  0  0  0  0  0  0  0  0  0  0  0
  150.2777  138.1830  156.8439 C   0  0  0  0  0  0  0  0  0  0  0  0
  152.4750  136.5462  156.9800 H   0  0  0  0  0  0  0  0  0  0  0  0
  152.5785  137.6603  158.3358 H   0  0  0  0  0  0  0  0  0  0  0  0
  153.7334  137.7641  157.0115 H   0  0  0  0  0  0  0  0  0  0  0  0
  152.1517  140.6089  156.2737 H   0  0  0  0  0  0  0  0  0  0  0  0
  152.4588  142.1311  157.4005 H   0  0  0  0  0  0  0  0  0  0  0  0
  152.1901  141.1036  161.0282 H   0  0  0  0  0  0  0  0  0  0  0  0
  152.3283  142.8137  162.8159 H   0  0  0  0  0  0  0  0  0  0  0  0
  152.5286  145.9136  160.0931 H   0  0  0  0  0  0  0  0  0  0  0  0
  152.9086  138.7687  154.6734 H   0  0  0  0  0  0  0  0  0  0  0  0
  151.8440  137.3966  154.6927 H   0  0  0  0  0  0  0  0  0  0  0  0
  150.9308  140.3077  154.4073 H   0  0  0  0  0  0  0  0  0  0  0  0
  150.9590  139.0883  153.1510 H   0  0  0  0  0  0  0  0  0  0  0  0
  149.3035  140.0416  156.2266 H   0  0  0  0  0  0  0  0  0  0  0  0
  148.2582  138.6387  156.1951 H   0  0  0  0  0  0  0  0  0  0  0  0
  150.1220  137.1191  156.6589 H   0  0  0  0  0  0  0  0  0  0  0  0
  150.0675  138.3393  157.9029 H   0  0  0  0  0  0  0  0  0  0  0  0
  1  2  1  0  0  0  0
  1 19  1  0  0  0  0
  1 20  1  0  0  0  0
  1 21  1  0  0  0  0
  2 18  1  0  0  0  0
  2  3  1  0  0  0  0
  2 14  1  0  0  0  0
  3  4  1  0  0  0  0
  3 22  1  0  0  0  0
  4  5  2  0  0  0  0
  4  6  1  0  0  0  0
  6  7  1  0  0  0  0
  6 23  1  0  0  0  0
  7 12  1  0  0  0  0
  7  8  2  0  0  0  0
  8  9  1  0  0  0  0
  8 24  1  0  0  0  0
  9 10  2  0  0  0  0
  9 25  1  0  0  0  0
 10 11  1  0  0  0  0
 11 12  2  0  0  0  0
 11 26  1  0  0  0  0
 12 13  1  0  0  0  0
 14 15  1  0  0  0  0
 14 27  1  0  0  0  0
 14 28  1  0  0  0  0
 15 16  1  0  0  0  0
 15 29  1  0  0  0  0
 15 30  1  0  0  0  0
 16 17  1  0  0  0  0
 17 18  1  0  0  0  0
 17 31  1  0  0  0  0
 17 32  1  0  0  0  0
 18 33  1  0  0  0  0
 18 34  1  0  0  0  0
M  END
> <s_m_source_file>
AV-unprocessed.smi

> <i_m_source_file_index>
2429

> <i_lp_mmshare_version>
43012

> <i_f3d_flags>
0

> <s_epik_input>
W0NIMl0xW0NIMl1PW0NIMl1bQ0gyXUMxKFtDSDNdKVtOSF1DKD1PKVtOSF1jMltjSF1bY0hdbltjSF1jMkY=

> <s_epik_cmdline>
J2VwaWtfcHl0aG9uJywgJy1waCcsICc3LjAnLCAnLXRuJywgJzgnLCAnLW1hJywgJzIwMCcsICctbWV0YWxfYmluZGluZycsICctaW1hZScsICc8aW5maWxlLm1hZT4nLCAnLW9tYWUnLCAnPG91dGZpbGUubWFlPic=

> <r_epik_Ionization_Penalty>
0.00367474

> <r_epik_Ionization_Penalty_Charging>
0

> <r_epik_Ionization_Penalty_Neutral>
0.00367474

> <r_epik_State_Penalty>
0.00258877

> <r_epik_Charging_Adjusted_Penalty>
0.00258877

> <i_epik_Tot_Q>
0

> <i_epik_Tot_abs_Q>
0

> <r_epik_Metal_State_Penalty>
-0

> <b_epik_Metal_Only>
0

> <s_lp_Force_Field>
OPLS_2005

> <r_lp_Energy>
14.8008

> <b_lp_Chiralities_Consistent>
1

> <s_lp_Variant>
AV-unprocessed.smi:2429-1

> <Gold.Version>
5.8.1

> <Gold.Id.Protein>
6NUR|6NUR_protein|mol2

> <Gold.PLP.Fitness>
35.3436

> <Gold.PLP.PLP>
-35.4687

> <Gold.PLP.part.hbond>
0.0000

> <Gold.PLP.part.metal>
0.0000

> <Gold.PLP.part.buried>
-4.4958

> <Gold.PLP.part.nonpolar>
-31.4325

> <Gold.PLP.part.repulsive>
0.5420

> <Gold.PLP.ligand.clash>
0.0000

> <Gold.PLP.ligand.torsion>
0.0663

> <Gold.PLP.Chemscore.Hbond>
0.0000

> <Gold.PLP.Chemscore.CHOScore>
0.0000

> <Gold.PLP.Chemscore.Metal>
0.0000

> <Gold.PLP.Chemscore.Internal.Correction>
0.0074

> <Gold.Rescore>
     Score         DG    S(hbond)    S(metal)    S(lipo)     H(rot)  DE(clash)    DE(int)     intcor
     12.07     -13.31       0.00        0.00      88.78       1.00       0.01       1.22       ----

> <Gold.Chemscore.Fitness>
12.0741

> <Gold.Chemscore.DG>
-13.3069

> <Gold.Chemscore.ZeroCoef>
-5.4800

> <Gold.Chemscore.Hbond>
0.0000

> <Gold.Chemscore.Metal>
0.0000

> <Gold.Chemscore.Lipo>
88.7773

> <Gold.Chemscore.Internal_Hbond>
0.0000

> <Gold.Chemscore.DEClash>
0.0112

> <Gold.Chemscore.DEInternal>
1.2217

> <Gold.Chemscore.Rot>
1.0000

> <Gold.Chemscore.Internal.Correction>
   9.000000E+99

> <Gold.Chemscore.Hbond.Weighted>
-0.0000

> <Gold.Chemscore.Metal.Weighted>
-0.0000

> <Gold.Chemscore.Lipo.Weighted>
-10.3869

> <Gold.Chemscore.Internal_Hbond.Weighted>
0.0000

> <Gold.Chemscore.DEClash.Weighted>
0.0112

> <Gold.Chemscore.DEInternal.Weighted>
1.2217

> <Gold.Chemscore.Rot.Weighted>
2.5600

> <Gold.Chemscore.Internal.Correction.Weighted>
   9.000000E+99

> <Gold.Protein.RotatedTorsions>
[ 6907 6896 6895 6894 ] final    1.24 input  -60.11 | X-H torsion
[ 7974 7965 7964 7962 ] final  143.12 input  175.53 | X-H torsion
[ 8008 7997 7996 7995 ] final -100.12 input   59.86 | X-H torsion
[ 10167 10162 10161 10158 ] final  -73.84 input  -65.29 | X-H torsion
[ 10718 10713 10712 10709 ] final  -34.85 input   66.30 | X-H torsion
[ 10763 10752 10751 10750 ] final  128.60 input  -60.55 | X-H torsion
[ 11005 11000 10999 10996 ] final -140.91 input  -57.11 | X-H torsion

> <Gold.Protein.ActiveResidues>
 VAL166  LYS551  ARG553  GLY616  TRP617  ASP618  TYR619  PRO620  LYS621  CYS622 
 ASP623  PHE694  ASN695  SER759  ASP760  ASP761  ALA762  ILE779  LEU786  VAL792 
 PHE793  MET794  SER795  GLU796  ALA797  LYS798  CYS799  TRP800  GLU811  SER814 

> <Gold.Protein.RotatedAtoms>
  151.5895  135.1054  160.0035 H   0  0  0  0  0  0  0  0  0  0  0  0  # atno 6907 bound_to 6896
  152.4313  133.7279  159.6581 H   0  0  0  0  0  0  0  0  0  0  0  0  # atno 6908 bound_to 6896
  150.8206  133.8188  159.3163 H   0  0  0  0  0  0  0  0  0  0  0  0  # atno 6909 bound_to 6896
  144.8948  139.5506  143.5781 H   0  0  0  0  0  0  0  0  0  0  0  0  # atno 7974 bound_to 7965
  154.8242  140.0443  157.1432 H   0  0  0  0  0  0  0  0  0  0  0  0  # atno 8008 bound_to 7997
  154.9225  140.3029  155.5189 H   0  0  0  0  0  0  0  0  0  0  0  0  # atno 8009 bound_to 7997
  156.2982  140.2338  156.4276 H   0  0  0  0  0  0  0  0  0  0  0  0  # atno 8010 bound_to 7997
  140.5077  143.2350  151.7646 H   0  0  0  0  0  0  0  0  0  0  0  0  # atno 10167 bound_to 10162
  156.3456  130.4300  149.7749 H   0  0  0  0  0  0  0  0  0  0  0  0  # atno 10718 bound_to 10713
  153.7283  135.3242  155.3280 H   0  0  0  0  0  0  0  0  0  0  0  0  # atno 10763 bound_to 10752
  154.8334  135.4516  154.1148 H   0  0  0  0  0  0  0  0  0  0  0  0  # atno 10764 bound_to 10752
  153.2288  135.6957  153.7995 H   0  0  0  0  0  0  0  0  0  0  0  0  # atno 10765 bound_to 10752
  140.8377  134.2440  157.4826 H   0  0  0  0  0  0  0  0  0  0  0  0  # atno 11005 bound_to 11000
  146.3075  139.7630  142.9045 LP  0  0  0  0  0  0  0  0  0  0  0  0  # atno 17320 bound_to 7965
  145.3718  141.0344  143.3226 LP  0  0  0  0  0  0  0  0  0  0  0  0  # atno 17321 bound_to 7965
  139.4888  144.4435  151.9737 LP  0  0  0  0  0  0  0  0  0  0  0  0  # atno 17342 bound_to 10162
  140.3526  144.3071  150.5947 LP  0  0  0  0  0  0  0  0  0  0  0  0  # atno 17343 bound_to 10162
  156.4969  130.8111  151.3117 LP  0  0  0  0  0  0  0  0  0  0  0  0  # atno 17370 bound_to 10713
  157.7453  130.9957  150.2754 LP  0  0  0  0  0  0  0  0  0  0  0  0  # atno 17371 bound_to 10713
  139.8704  134.9619  156.4411 LP  0  0  0  0  0  0  0  0  0  0  0  0  # atno 17394 bound_to 11000
  140.8930  133.7834  155.9593 LP  0  0  0  0  0  0  0  0  0  0  0  0  # atno 17395 bound_to 11000

$$$$
