AV-unprocessed.smi:244|AV-procd|sdf|1868|dock6
  -GOLD-   2262020503D 1   1.00000     0.00000
 Structure written by MMmdl.
 57 61  0  0  0  0  0  0  0  0  2 V2000
  147.1653  141.2327  157.4138 C   0  0  0  0  0  0  0  0  0  0  0  0
  148.5194  140.8126  156.9950 N   0  3  1  0  0  0  0  0  0  0  0  0
  149.5368  141.8682  157.2221 C   0  0  0  0  0  0  0  0  0  0  0  0
  150.8910  141.4556  156.6256 C   0  0  0  0  0  0  0  0  0  0  0  0
  151.3530  140.0926  157.1859 C   0  0  2  0  0  0  0  0  0  0  0  0
  152.5938  139.6581  156.6250 O   0  0  0  0  0  0  0  0  0  0  0  0
  152.5264  139.2703  155.2541 C   0  0  0  0  0  0  0  0  0  0  0  0
  151.4667  138.1752  155.0669 C   0  0  0  0  0  0  0  0  0  0  0  0
  150.1832  138.6177  155.5992 N   0  0  0  0  0  0  0  0  0  0  0  0
  149.1756  137.7764  155.2816 C   0  0  0  0  0  0  0  0  0  0  0  0
  149.2317  136.5281  155.8063 N   0  0  0  0  0  0  0  0  0  0  0  0
  148.2748  135.6410  155.5167 C   0  0  0  0  0  0  0  0  0  0  0  0
  147.2023  135.7948  154.7371 N   0  0  0  0  0  0  0  0  0  0  0  0
  147.1495  137.0490  154.2035 C   0  0  0  0  0  0  0  0  0  0  0  0
  148.0874  138.0960  154.4220 C   0  0  0  0  0  0  0  0  0  0  0  0
  147.7094  139.2292  153.7127 N   0  0  0  0  0  0  0  0  0  0  0  0
  146.6032  138.8757  153.1168 C   0  0  0  0  0  0  0  0  0  0  0  0
  146.2013  137.5787  153.3463 N   0  0  0  0  0  0  0  0  0  0  0  0
  145.0210  136.9221  152.8054 C   0  0  0  0  0  0  0  0  0  0  0  0
  145.3351  135.7960  151.7888 C   0  0  0  0  0  0  0  0  0  0  0  0
  146.2134  136.3249  150.8102 O   0  0  0  0  0  0  0  0  0  0  0  0
  146.0426  134.6215  152.4944 C   0  0  0  0  0  0  0  0  0  0  0  0
  146.2182  133.4058  151.5673 C   0  0  0  0  0  0  0  0  0  0  0  0
  144.9571  133.0096  151.0426 O   0  0  0  0  0  0  0  0  0  0  0  0
  144.3588  134.0145  150.2334 C   0  0  0  0  0  0  0  0  0  0  0  0
  144.0705  135.2711  151.0741 C   0  0  0  0  0  0  0  0  0  0  0  0
  150.2635  139.0091  157.0098 C   0  0  2  0  0  0  0  0  0  0  0  0
  148.9245  139.5195  157.6009 C   0  0  0  0  0  0  0  0  0  0  0  0
  147.1261  141.4134  158.4888 H   0  0  0  0  0  0  0  0  0  0  0  0
  146.4312  140.4648  157.1672 H   0  0  0  0  0  0  0  0  0  0  0  0
  146.8706  142.1487  156.9008 H   0  0  0  0  0  0  0  0  0  0  0  0
  149.2071  142.8008  156.7622 H   0  0  0  0  0  0  0  0  0  0  0  0
  149.6361  142.0598  158.2918 H   0  0  0  0  0  0  0  0  0  0  0  0
  150.7869  141.4188  155.5417 H   0  0  0  0  0  0  0  0  0  0  0  0
  151.6403  142.2186  156.8378 H   0  0  0  0  0  0  0  0  0  0  0  0
  151.5316  140.2216  158.2541 H   0  0  0  0  0  0  0  0  0  0  0  0
  152.3168  140.1288  154.6166 H   0  0  0  0  0  0  0  0  0  0  0  0
  153.5038  138.8956  154.9498 H   0  0  0  0  0  0  0  0  0  0  0  0
  151.3695  137.9288  154.0087 H   0  0  0  0  0  0  0  0  0  0  0  0
  151.7884  137.2680  155.5796 H   0  0  0  0  0  0  0  0  0  0  0  0
  148.3844  134.6676  155.9719 H   0  0  0  0  0  0  0  0  0  0  0  0
  146.0511  139.5524  152.4806 H   0  0  0  0  0  0  0  0  0  0  0  0
  144.4364  136.5282  153.6382 H   0  0  0  0  0  0  0  0  0  0  0  0
  144.3994  137.6857  152.3357 H   0  0  0  0  0  0  0  0  0  0  0  0
  147.1028  136.1531  151.0800 H   0  0  0  0  0  0  0  0  0  0  0  0
  147.0106  134.9366  152.8864 H   0  0  0  0  0  0  0  0  0  0  0  0
  145.4511  134.3115  153.3569 H   0  0  0  0  0  0  0  0  0  0  0  0
  146.9118  133.6258  150.7543 H   0  0  0  0  0  0  0  0  0  0  0  0
  146.6426  132.5710  152.1252 H   0  0  0  0  0  0  0  0  0  0  0  0
  145.0055  134.2479  149.3862 H   0  0  0  0  0  0  0  0  0  0  0  0
  143.4292  133.6232  149.8200 H   0  0  0  0  0  0  0  0  0  0  0  0
  143.3136  135.0238  151.8197 H   0  0  0  0  0  0  0  0  0  0  0  0
  143.6338  136.0417  150.4379 H   0  0  0  0  0  0  0  0  0  0  0  0
  150.5684  138.1269  157.5750 H   0  0  0  0  0  0  0  0  0  0  0  0
  149.0313  139.6547  158.6785 H   0  0  0  0  0  0  0  0  0  0  0  0
  148.1324  138.7807  157.4730 H   0  0  0  0  0  0  0  0  0  0  0  0
  148.4742  140.6607  155.9970 H   0  0  0  0  0  0  0  0  0  0  0  0
  1  2  1  0  0  0  0
  1 29  1  0  0  0  0
  1 30  1  0  0  0  0
  1 31  1  0  0  0  0
  2 28  1  0  0  0  0
  2  3  1  0  0  0  0
  2 57  1  0  0  0  0
  3  4  1  0  0  0  0
  3 32  1  0  0  0  0
  3 33  1  0  0  0  0
  4  5  1  0  0  0  0
  4 34  1  0  0  0  0
  4 35  1  0  0  0  0
  5 27  1  0  0  0  0
  5  6  1  0  0  0  0
  5 36  1  0  0  0  0
  6  7  1  0  0  0  0
  7  8  1  0  0  0  0
  7 37  1  0  0  0  0
  7 38  1  0  0  0  0
  8  9  1  0  0  0  0
  8 39  1  0  0  0  0
  8 40  1  0  0  0  0
  9 10  1  0  0  0  0
  9 27  1  0  0  0  0
 10 15  1  0  0  0  0
 10 11  2  0  0  0  0
 11 12  1  0  0  0  0
 12 13  2  0  0  0  0
 12 41  1  0  0  0  0
 13 14  1  0  0  0  0
 14 18  1  0  0  0  0
 14 15  2  0  0  0  0
 15 16  1  0  0  0  0
 16 17  2  0  0  0  0
 17 18  1  0  0  0  0
 17 42  1  0  0  0  0
 18 19  1  0  0  0  0
 19 20  1  0  0  0  0
 19 43  1  0  0  0  0
 19 44  1  0  0  0  0
 20 26  1  0  0  0  0
 20 21  1  0  0  0  0
 20 22  1  0  0  0  0
 21 45  1  0  0  0  0
 22 23  1  0  0  0  0
 22 46  1  0  0  0  0
 22 47  1  0  0  0  0
 23 24  1  0  0  0  0
 23 48  1  0  0  0  0
 23 49  1  0  0  0  0
 24 25  1  0  0  0  0
 25 26  1  0  0  0  0
 25 50  1  0  0  0  0
 25 51  1  0  0  0  0
 26 52  1  0  0  0  0
 26 53  1  0  0  0  0
 27 28  1  0  0  0  0
 27 54  1  0  0  0  0
 28 55  1  0  0  0  0
 28 56  1  0  0  0  0
M  CHG  1   2   1
M  END
> <s_m_source_file>
AV-unprocessed.smi

> <i_m_source_file_index>
244

> <i_lp_mmshare_version>
43012

> <i_f3d_flags>
0

> <s_epik_input>
W0NIMl0xW0NIMl1OKFtDSDNdKVtDSDJdW0NAQEhdKFtDQEhdMTIpTihbQ0gyXVtDSDJdTzIpYyhuW2NIXW4zKWMoYzM0KW5bY0hdbjRbQ0gyXUM1KFtPSF0pW0NIMl1bQ0gyXU9bQ0gyXVtDSDJdNQ==

> <s_epik_cmdline>
J2VwaWtfcHl0aG9uJywgJy1waCcsICc3LjAnLCAnLXRuJywgJzgnLCAnLW1hJywgJzIwMCcsICctbWV0YWxfYmluZGluZycsICctaW1hZScsICc8aW5maWxlLm1hZT4nLCAnLW9tYWUnLCAnPG91dGZpbGUubWFlPic=

> <r_lp_tautomer_probability>
1

> <r_epik_Ionization_Penalty>
0.0136215

> <r_epik_Ionization_Penalty_Charging>
0.0131385

> <r_epik_Ionization_Penalty_Neutral>
0.000483022

> <r_epik_State_Penalty>
0.0104001

> <r_epik_Charging_Adjusted_Penalty>
0.0235387

> <i_epik_Tot_Q>
1

> <i_epik_Tot_abs_Q>
1

> <r_epik_Metal_State_Penalty>
0.0104469

> <b_epik_Metal_Only>
0

> <s_lp_Force_Field>
OPLS_2005

> <r_lp_Energy>
48.7962

> <b_lp_Chiralities_Consistent>
1

> <s_lp_Variant>
AV-unprocessed.smi:244-5

> <Gold.Version>
5.8.1

> <Gold.Id.Protein>
6NUR|6NUR_protein|mol2

> <Gold.PLP.Fitness>
39.4426

> <Gold.PLP.PLP>
-30.6729

> <Gold.PLP.part.hbond>
-2.0089

> <Gold.PLP.part.metal>
0.0000

> <Gold.PLP.part.buried>
-3.0277

> <Gold.PLP.part.nonpolar>
-26.3544

> <Gold.PLP.part.repulsive>
0.5546

> <Gold.PLP.ligand.clash>
0.0000

> <Gold.PLP.ligand.torsion>
0.1824

> <Gold.PLP.Chemscore.Hbond>
2.0000

> <Gold.PLP.Chemscore.CHOScore>
1.0000

> <Gold.PLP.Chemscore.Metal>
0.0000

> <Gold.Chemscore.Hbonds>
donor molecule, donor type, donor heavy atom, donor atom, acceptor molecule, acceptor atom, score
      L1  H    21    45       P1  7948  1.00
      P1  H  7997  8009       L1     6  0.95
      L1  C    17    42       P1 10175  0.99

> <Gold.PLP.Chemscore.Internal.Correction>
0.1345

> <Gold.Rescore>
     Score         DG    S(hbond)    S(metal)    S(lipo)     H(rot)  DE(clash)    DE(int)     intcor
     13.11     -14.83       1.83        0.00      73.30       2.09       0.10       1.62       ----

> <Gold.Chemscore.Fitness>
13.1127

> <Gold.Chemscore.DG>
-14.8278

> <Gold.Chemscore.ZeroCoef>
-5.4800

> <Gold.Chemscore.Hbond>
1.8339

> <Gold.Chemscore.Metal>
0.0000

> <Gold.Chemscore.Lipo>
73.2973

> <Gold.Chemscore.Internal_Hbond>
0.0000

> <Gold.Chemscore.DEClash>
0.0997

> <Gold.Chemscore.DEInternal>
1.6153

> <Gold.Chemscore.Rot>
2.0911

> <Gold.Chemscore.Internal.Correction>
   9.000000E+99

> <Gold.Chemscore.Hbonds>
donor molecule, donor type, donor heavy atom, donor atom, acceptor molecule, acceptor atom, score
      L1  H    21    45       P1  7948  0.98
      P1  H  7997  8009       L1     6  0.21

> <Gold.Chemscore.Hbond.Weighted>
-6.1251

> <Gold.Chemscore.Metal.Weighted>
-0.0000

> <Gold.Chemscore.Lipo.Weighted>
-8.5758

> <Gold.Chemscore.Internal_Hbond.Weighted>
0.0000

> <Gold.Chemscore.DEClash.Weighted>
0.0997

> <Gold.Chemscore.DEInternal.Weighted>
1.6153

> <Gold.Chemscore.Rot.Weighted>
5.3531

> <Gold.Chemscore.Internal.Correction.Weighted>
   9.000000E+99

> <Gold.Protein.RotatedTorsions>
[ 6907 6896 6895 6894 ] final   87.29 input  -60.11 | X-H torsion
[ 7974 7965 7964 7962 ] final   -2.64 input  175.53 | X-H torsion
[ 8008 7997 7996 7995 ] final  174.60 input   59.86 | X-H torsion
[ 10167 10162 10161 10158 ] final   16.51 input  -65.29 | X-H torsion
[ 10718 10713 10712 10709 ] final  -28.83 input   66.30 | X-H torsion
[ 10763 10752 10751 10750 ] final   37.65 input  -60.55 | X-H torsion
[ 11005 11000 10999 10996 ] final  -94.20 input  -57.11 | X-H torsion

> <Gold.Protein.ActiveResidues>
 VAL166  LYS551  ARG553  GLY616  TRP617  ASP618  TYR619  PRO620  LYS621  CYS622 
 ASP623  PHE694  ASN695  SER759  ASP760  ASP761  ALA762  ILE779  LEU786  VAL792 
 PHE793  MET794  SER795  GLU796  ALA797  LYS798  CYS799  TRP800  GLU811  SER814 

> <Gold.Protein.RotatedAtoms>
  152.5409  134.2299  159.8820 H   0  0  0  0  0  0  0  0  0  0  0  0  # atno 6907 bound_to 6896
  151.2271  133.4463  159.2610 H   0  0  0  0  0  0  0  0  0  0  0  0  # atno 6908 bound_to 6896
  151.0750  134.9836  159.8383 H   0  0  0  0  0  0  0  0  0  0  0  0  # atno 6909 bound_to 6896
  146.2401  140.1601  142.8333 H   0  0  0  0  0  0  0  0  0  0  0  0  # atno 7974 bound_to 7965
  156.0957  140.1430  156.9534 H   0  0  0  0  0  0  0  0  0  0  0  0  # atno 8008 bound_to 7997
  154.4670  140.0923  156.7092 H   0  0  0  0  0  0  0  0  0  0  0  0  # atno 8009 bound_to 7997
  155.4845  140.3446  155.4347 H   0  0  0  0  0  0  0  0  0  0  0  0  # atno 8010 bound_to 7997
  140.5792  143.9014  150.6775 H   0  0  0  0  0  0  0  0  0  0  0  0  # atno 10167 bound_to 10162
  156.4202  130.4425  149.7189 H   0  0  0  0  0  0  0  0  0  0  0  0  # atno 10718 bound_to 10713
  153.0029  135.6271  154.2179 H   0  0  0  0  0  0  0  0  0  0  0  0  # atno 10763 bound_to 10752
  154.1922  135.2808  155.3020 H   0  0  0  0  0  0  0  0  0  0  0  0  # atno 10764 bound_to 10752
  154.5750  135.5665  153.7190 H   0  0  0  0  0  0  0  0  0  0  0  0  # atno 10765 bound_to 10752
  141.1477  133.7940  157.0265 H   0  0  0  0  0  0  0  0  0  0  0  0  # atno 11005 bound_to 11000
  145.0096  140.8702  143.5232 LP  0  0  0  0  0  0  0  0  0  0  0  0  # atno 17320 bound_to 7965
  145.1633  139.2446  143.5380 LP  0  0  0  0  0  0  0  0  0  0  0  0  # atno 17321 bound_to 7965
  140.2509  143.3594  152.1406 LP  0  0  0  0  0  0  0  0  0  0  0  0  # atno 17342 bound_to 10162
  139.5160  144.6971  151.5600 LP  0  0  0  0  0  0  0  0  0  0  0  0  # atno 17343 bound_to 10162
  156.4133  130.7733  151.2747 LP  0  0  0  0  0  0  0  0  0  0  0  0  # atno 17370 bound_to 10713
  157.7508  131.0205  150.3710 LP  0  0  0  0  0  0  0  0  0  0  0  0  # atno 17371 bound_to 10713
  140.0782  134.9663  157.1580 LP  0  0  0  0  0  0  0  0  0  0  0  0  # atno 17394 bound_to 11000
  140.3614  134.2490  155.7187 LP  0  0  0  0  0  0  0  0  0  0  0  0  # atno 17395 bound_to 11000

$$$$
