AV-unprocessed.smi:2618|AV-procd|sdf|10221|dock6
  -GOLD-   2272014223D 1   1.00000     0.00000
 Structure written by MMmdl.
 38 39  0  0  0  0  0  0  0  0  2 V2000
  150.9957  140.9160  155.6911 C   0  0  0  0  0  0  0  0  0  0  0  0
  150.9339  140.3082  154.4128 O   0  0  0  0  0  0  0  0  0  0  0  0
  150.8943  138.8926  154.4872 C   0  0  0  0  0  0  0  0  0  0  0  0
  152.2927  138.3754  154.8683 C   0  0  0  0  0  0  0  0  0  0  0  0
  152.5245  138.2896  156.3568 C   0  0  0  0  0  0  0  0  0  0  0  0
  152.7063  139.3022  157.1231 N   0  0  0  0  0  0  0  0  0  0  0  0
  152.8864  138.9304  158.3920 N   0  0  0  0  0  0  0  0  0  0  0  0
  153.1820  139.8708  159.4004 C   0  0  0  0  0  0  0  0  0  0  0  0
  153.8640  139.4868  160.4951 N   0  0  0  0  0  0  0  0  0  0  0  0
  154.1232  140.4139  161.4403 C   0  0  0  0  0  0  0  0  0  0  0  0
  154.9037  139.9475  162.6501 C   0  0  0  0  0  0  0  0  0  0  0  0
  153.6887  141.7478  161.3104 C   0  0  0  0  0  0  0  0  0  0  0  0
  152.9731  142.0500  160.1351 C   0  0  0  0  0  0  0  0  0  0  0  0
  152.4393  143.4408  159.8680 C   0  0  0  0  0  0  0  0  0  0  0  0
  152.7247  141.1165  159.1920 N   0  0  0  0  0  0  0  0  0  0  0  0
  152.8378  137.4574  158.5249 C   0  0  2  0  0  0  0  0  0  0  0  0
  151.8300  137.0744  159.2766 O   0  5  0  0  0  0  0  0  0  0  0  0
  154.1669  136.8669  159.0746 C   0  0  0  0  0  0  0  0  0  0  0  0
  154.2185  137.0109  160.4003 F   0  0  0  0  0  0  0  0  0  0  0  0
  154.2891  135.5678  158.7967 F   0  0  0  0  0  0  0  0  0  0  0  0
  155.2138  137.5063  158.5481 F   0  0  0  0  0  0  0  0  0  0  0  0
  152.5640  136.9951  157.0865 C   0  0  0  0  0  0  0  0  0  0  0  0
  151.0243  142.0001  155.5807 H   0  0  0  0  0  0  0  0  0  0  0  0
  151.8924  140.6088  156.2308 H   0  0  0  0  0  0  0  0  0  0  0  0
  150.1213  140.6614  156.2913 H   0  0  0  0  0  0  0  0  0  0  0  0
  150.1586  138.5845  155.2326 H   0  0  0  0  0  0  0  0  0  0  0  0
  150.5853  138.4826  153.5239 H   0  0  0  0  0  0  0  0  0  0  0  0
  152.4476  137.3907  154.4269 H   0  0  0  0  0  0  0  0  0  0  0  0
  153.0471  139.0299  154.4309 H   0  0  0  0  0  0  0  0  0  0  0  0
  155.1986  140.7893  163.2769 H   0  0  0  0  0  0  0  0  0  0  0  0
  155.8071  139.4211  162.3402 H   0  0  0  0  0  0  0  0  0  0  0  0
  154.2980  139.2680  163.2499 H   0  0  0  0  0  0  0  0  0  0  0  0
  153.8907  142.4921  162.0665 H   0  0  0  0  0  0  0  0  0  0  0  0
  152.7513  144.1386  160.6456 H   0  0  0  0  0  0  0  0  0  0  0  0
  151.3494  143.4276  159.8377 H   0  0  0  0  0  0  0  0  0  0  0  0
  152.8058  143.8111  158.9102 H   0  0  0  0  0  0  0  0  0  0  0  0
  151.6205  136.4591  156.9641 H   0  0  0  0  0  0  0  0  0  0  0  0
  153.3606  136.3628  156.6935 H   0  0  0  0  0  0  0  0  0  0  0  0
  1  2  1  0  0  0  0
  1 23  1  0  0  0  0
  1 24  1  0  0  0  0
  1 25  1  0  0  0  0
  2  3  1  0  0  0  0
  3  4  1  0  0  0  0
  3 26  1  0  0  0  0
  3 27  1  0  0  0  0
  4  5  1  0  0  0  0
  4 28  1  0  0  0  0
  4 29  1  0  0  0  0
  5 22  1  0  0  0  0
  5  6  2  0  0  0  0
  6  7  1  0  0  0  0
  7  8  1  0  0  0  0
  7 16  1  0  0  0  0
  8 15  1  0  0  0  0
  8  9  2  0  0  0  0
  9 10  1  0  0  0  0
 10 11  1  0  0  0  0
 10 12  2  0  0  0  0
 11 30  1  0  0  0  0
 11 31  1  0  0  0  0
 11 32  1  0  0  0  0
 12 13  1  0  0  0  0
 12 33  1  0  0  0  0
 13 14  1  0  0  0  0
 13 15  2  0  0  0  0
 14 34  1  0  0  0  0
 14 35  1  0  0  0  0
 14 36  1  0  0  0  0
 16 17  1  0  0  0  0
 16 18  1  0  0  0  0
 16 22  1  0  0  0  0
 18 19  1  0  0  0  0
 18 20  1  0  0  0  0
 18 21  1  0  0  0  0
 22 37  1  0  0  0  0
 22 38  1  0  0  0  0
M  CHG  1  17  -1
M  END
> <s_m_source_file>
AV-unprocessed.smi

> <i_m_source_file_index>
2618

> <i_lp_mmshare_version>
43012

> <i_f3d_flags>
0

> <s_epik_input>
W0NIM11PW0NIMl1bQ0gyXUMoW0NIMl0xKT1OTihbQ0BAXTEoW09IXSlDKEYpKEYpRiljMm5jKFtDSDNdKVtjSF1jKG4yKVtDSDNd

> <s_epik_cmdline>
J2VwaWtfcHl0aG9uJywgJy1waCcsICc3LjAnLCAnLXRuJywgJzgnLCAnLW1hJywgJzIwMCcsICctbWV0YWxfYmluZGluZycsICctaW1hZScsICc8aW5maWxlLm1hZT4nLCAnLW9tYWUnLCAnPG91dGZpbGUubWFlPic=

> <r_lp_tautomer_probability>
1

> <r_epik_Ionization_Penalty>
1.35617

> <r_epik_Ionization_Penalty_Charging>
1.35566

> <r_epik_Ionization_Penalty_Neutral>
0.000506926

> <r_epik_State_Penalty>
1.43411

> <r_epik_Charging_Adjusted_Penalty>
2.78977

> <i_epik_Tot_Q>
-1

> <i_epik_Tot_abs_Q>
1

> <r_epik_Metal_State_Penalty>
1.43499

> <b_epik_Metal_Only>
0

> <s_epik_Chemistry_Notes>
This compound has an imine and may undergo hydrolysis.

> <s_lp_Force_Field>
OPLS_2005

> <r_lp_Energy>
21.8368

> <b_lp_Chiralities_Consistent>
1

> <s_lp_Variant>
AV-unprocessed.smi:2618-4

> <Gold.Version>
5.8.1

> <Gold.Id.Protein>
6NUR|6NUR_protein|mol2

> <Gold.PLP.Fitness>
48.0771

> <Gold.PLP.PLP>
-38.4514

> <Gold.PLP.part.hbond>
-2.9621

> <Gold.PLP.part.metal>
0.0000

> <Gold.PLP.part.buried>
-6.1179

> <Gold.PLP.part.nonpolar>
-30.1476

> <Gold.PLP.part.repulsive>
0.0838

> <Gold.PLP.ligand.clash>
0.0000

> <Gold.PLP.ligand.torsion>
1.2569

> <Gold.PLP.Chemscore.Hbond>
4.0000

> <Gold.PLP.Chemscore.CHOScore>
0.0000

> <Gold.PLP.Chemscore.Metal>
0.0000

> <Gold.Chemscore.Hbonds>
donor molecule, donor type, donor heavy atom, donor atom, acceptor molecule, acceptor atom, score
      P1  H  6896  6907       L1    17  1.79
      P1  H  7989  7998       L1     2  0.37
      P1  H  7997  8010       L1     6  1.00

> <Gold.PLP.Chemscore.Internal.Correction>
0.1394

> <Gold.Rescore>
     Score         DG    S(hbond)    S(metal)    S(lipo)     H(rot)  DE(clash)    DE(int)     intcor
     14.92     -18.44       2.13        0.00      82.34       1.47       0.19       3.34       ----

> <Gold.Chemscore.Fitness>
14.9154

> <Gold.Chemscore.DG>
-18.4445

> <Gold.Chemscore.ZeroCoef>
-5.4800

> <Gold.Chemscore.Hbond>
2.1271

> <Gold.Chemscore.Metal>
0.0000

> <Gold.Chemscore.Lipo>
82.3411

> <Gold.Chemscore.Internal_Hbond>
0.0000

> <Gold.Chemscore.DEClash>
0.1938

> <Gold.Chemscore.DEInternal>
3.3352

> <Gold.Chemscore.Rot>
1.4742

> <Gold.Chemscore.Internal.Correction>
   9.000000E+99

> <Gold.Chemscore.Hbonds>
donor molecule, donor type, donor heavy atom, donor atom, acceptor molecule, acceptor atom, score
      P1  H  6896  6907       L1    17  0.81
      P1  H  7989  7998       L1     2  0.34
      P1  H  7997  8010       L1     6  0.20

> <Gold.Chemscore.Hbond.Weighted>
-7.1046

> <Gold.Chemscore.Metal.Weighted>
-0.0000

> <Gold.Chemscore.Lipo.Weighted>
-9.6339

> <Gold.Chemscore.Internal_Hbond.Weighted>
0.0000

> <Gold.Chemscore.DEClash.Weighted>
0.1938

> <Gold.Chemscore.DEInternal.Weighted>
3.3352

> <Gold.Chemscore.Rot.Weighted>
3.7740

> <Gold.Chemscore.Internal.Correction.Weighted>
   9.000000E+99

> <Gold.Protein.RotatedTorsions>
[ 6907 6896 6895 6894 ] final   13.61 input  -60.11 | X-H torsion
[ 7974 7965 7964 7962 ] final   97.05 input  175.53 | X-H torsion
[ 8008 7997 7996 7995 ] final   55.32 input   59.86 | X-H torsion
[ 10167 10162 10161 10158 ] final   47.45 input  -65.29 | X-H torsion
[ 10718 10713 10712 10709 ] final  -72.57 input   66.30 | X-H torsion
[ 10763 10752 10751 10750 ] final -120.12 input  -60.55 | X-H torsion
[ 11005 11000 10999 10996 ] final  113.96 input  -57.11 | X-H torsion

> <Gold.Protein.ActiveResidues>
 VAL166  LYS551  ARG553  GLY616  TRP617  ASP618  TYR619  PRO620  LYS621  CYS622 
 ASP623  PHE694  ASN695  SER759  ASP760  ASP761  ALA762  ILE779  LEU786  VAL792 
 PHE793  MET794  SER795  GLU796  ALA797  LYS798  CYS799  TRP800  GLU811  SER814 

> <Gold.Protein.RotatedAtoms>
  151.7890  135.0741  160.0384 H   0  0  0  0  0  0  0  0  0  0  0  0  # atno 6907 bound_to 6896
  152.3170  133.5808  159.5727 H   0  0  0  0  0  0  0  0  0  0  0  0  # atno 6908 bound_to 6896
  150.7349  133.9984  159.3672 H   0  0  0  0  0  0  0  0  0  0  0  0  # atno 6909 bound_to 6896
  145.4307  139.2311  143.3146 H   0  0  0  0  0  0  0  0  0  0  0  0  # atno 7974 bound_to 7965
  155.4992  140.3474  155.4368 H   0  0  0  0  0  0  0  0  0  0  0  0  # atno 8008 bound_to 7997
  156.0925  140.1414  156.9602 H   0  0  0  0  0  0  0  0  0  0  0  0  # atno 8009 bound_to 7997
  154.4643  140.0923  156.6956 H   0  0  0  0  0  0  0  0  0  0  0  0  # atno 8010 bound_to 7997
  140.3035  144.2906  150.6214 H   0  0  0  0  0  0  0  0  0  0  0  0  # atno 10167 bound_to 10162
  156.0315  130.4375  150.2613 H   0  0  0  0  0  0  0  0  0  0  0  0  # atno 10718 bound_to 10713
  154.8636  135.4214  154.2408 H   0  0  0  0  0  0  0  0  0  0  0  0  # atno 10763 bound_to 10752
  153.3374  135.6991  153.6901 H   0  0  0  0  0  0  0  0  0  0  0  0  # atno 10764 bound_to 10752
  153.5894  135.3558  155.2878 H   0  0  0  0  0  0  0  0  0  0  0  0  # atno 10765 bound_to 10752
  139.8967  134.9559  156.6820 H   0  0  0  0  0  0  0  0  0  0  0  0  # atno 11005 bound_to 11000
  146.2608  140.5043  142.8854 LP  0  0  0  0  0  0  0  0  0  0  0  0  # atno 17320 bound_to 7965
  144.8185  140.6509  143.6369 LP  0  0  0  0  0  0  0  0  0  0  0  0  # atno 17321 bound_to 7965
  140.5631  143.2189  151.7731 LP  0  0  0  0  0  0  0  0  0  0  0  0  # atno 17342 bound_to 10162
  139.4909  144.4322  151.9860 LP  0  0  0  0  0  0  0  0  0  0  0  0  # atno 17343 bound_to 10162
  157.0715  131.0118  151.3188 LP  0  0  0  0  0  0  0  0  0  0  0  0  # atno 17370 bound_to 10713
  157.4996  130.7871  149.7591 LP  0  0  0  0  0  0  0  0  0  0  0  0  # atno 17371 bound_to 10713
  140.7292  133.9073  155.8199 LP  0  0  0  0  0  0  0  0  0  0  0  0  # atno 17394 bound_to 11000
  141.0167  134.0946  157.4165 LP  0  0  0  0  0  0  0  0  0  0  0  0  # atno 17395 bound_to 11000

$$$$
