AV-unprocessed.smi:198|AV-procd|sdf|1555|dock1
  -GOLD-   2262019423D 1   1.00000     0.00000
 Structure written by MMmdl.
 59 63  0  0  0  0  0  0  0  0  2 V2000
  151.5631  141.0944  158.3448 C   0  0  0  0  0  0  0  0  0  0  0  0
  150.4266  140.8958  157.4200 N   0  3  2  0  0  0  0  0  0  0  0  0
  149.6247  139.6956  157.7612 C   0  0  0  0  0  0  0  0  0  0  0  0
  148.3702  139.6060  156.8802 C   0  0  0  0  0  0  0  0  0  0  0  0
  148.7470  139.6017  155.3831 C   0  0  2  0  0  0  0  0  0  0  0  0
  149.6439  140.8145  155.0385 C   0  0  1  0  0  0  0  0  0  0  0  0
  148.8366  142.1282  154.9818 C   0  0  0  0  0  0  0  0  0  0  0  0
  147.6442  141.9814  154.0263 C   0  0  0  0  0  0  0  0  0  0  0  0
  146.7692  140.7791  154.4128 C   0  0  0  0  0  0  0  0  0  0  0  0
  147.5716  139.5561  154.5038 N   0  0  0  0  0  0  0  0  0  0  0  0
  146.9111  138.3690  154.4705 C   0  0  0  0  0  0  0  0  0  0  0  0
  146.6511  137.7099  155.6315 N   0  0  0  0  0  0  0  0  0  0  0  0
  146.0201  136.5323  155.6139 C   0  0  0  0  0  0  0  0  0  0  0  0
  145.5722  135.8421  154.5641 N   0  0  0  0  0  0  0  0  0  0  0  0
  145.8261  136.4975  153.3955 C   0  0  0  0  0  0  0  0  0  0  0  0
  146.4782  137.7562  153.2602 C   0  0  0  0  0  0  0  0  0  0  0  0
  146.5289  138.1186  151.9192 N   0  0  0  0  0  0  0  0  0  0  0  0
  145.9445  137.1306  151.2986 C   0  0  0  0  0  0  0  0  0  0  0  0
  145.5205  136.0990  152.1055 N   0  0  0  0  0  0  0  0  0  0  0  0
  144.8190  134.9185  151.6927 C   0  0  0  0  0  0  0  0  0  0  0  0
  145.4098  133.5243  151.9327 C   0  0  0  0  0  0  0  0  0  0  0  0
  144.8497  133.0437  150.5743 C   0  0  0  0  0  0  0  0  0  0  0  0
  145.8050  132.2138  149.6962 C   0  0  0  0  0  0  0  0  0  0  0  0
  146.4359  131.1679  150.4085 O   0  0  0  0  0  0  0  0  0  0  0  0
  143.5409  132.2278  150.6257 C   0  0  0  0  0  0  0  0  0  0  0  0
  142.9013  132.1095  149.3709 O   0  0  0  0  0  0  0  0  0  0  0  0
  144.7087  134.5395  150.2107 C   0  0  0  0  0  0  0  0  0  0  0  0
  150.8499  140.8989  155.9967 C   0  0  0  0  0  0  0  0  0  0  0  0
  152.2710  140.2669  158.2785 H   0  0  0  0  0  0  0  0  0  0  0  0
  151.2135  141.1643  159.3752 H   0  0  0  0  0  0  0  0  0  0  0  0
  152.0932  142.0182  158.1109 H   0  0  0  0  0  0  0  0  0  0  0  0
  150.2352  138.7992  157.6405 H   0  0  0  0  0  0  0  0  0  0  0  0
  149.3281  139.7390  158.8100 H   0  0  0  0  0  0  0  0  0  0  0  0
  147.8172  138.7001  157.1310 H   0  0  0  0  0  0  0  0  0  0  0  0
  147.7078  140.4404  157.1111 H   0  0  0  0  0  0  0  0  0  0  0  0
  149.3512  138.7127  155.2085 H   0  0  0  0  0  0  0  0  0  0  0  0
  150.0434  140.6498  154.0363 H   0  0  0  0  0  0  0  0  0  0  0  0
  148.4770  142.4012  155.9742 H   0  0  0  0  0  0  0  0  0  0  0  0
  149.4746  142.9477  154.6494 H   0  0  0  0  0  0  0  0  0  0  0  0
  147.0467  142.8936  154.0287 H   0  0  0  0  0  0  0  0  0  0  0  0
  148.0083  141.8521  153.0062 H   0  0  0  0  0  0  0  0  0  0  0  0
  146.2727  140.9662  155.3654 H   0  0  0  0  0  0  0  0  0  0  0  0
  145.9850  140.6556  153.6644 H   0  0  0  0  0  0  0  0  0  0  0  0
  145.8532  136.0759  156.5784 H   0  0  0  0  0  0  0  0  0  0  0  0
  145.8112  137.1265  150.2265 H   0  0  0  0  0  0  0  0  0  0  0  0
  143.8280  134.9948  152.1417 H   0  0  0  0  0  0  0  0  0  0  0  0
  146.4996  133.5427  151.9758 H   0  0  0  0  0  0  0  0  0  0  0  0
  145.0007  133.0111  152.8034 H   0  0  0  0  0  0  0  0  0  0  0  0
  145.2705  131.7680  148.8567 H   0  0  0  0  0  0  0  0  0  0  0  0
  146.5870  132.8444  149.2717 H   0  0  0  0  0  0  0  0  0  0  0  0
  147.3657  131.2117  150.2462 H   0  0  0  0  0  0  0  0  0  0  0  0
  143.7300  131.2189  150.9939 H   0  0  0  0  0  0  0  0  0  0  0  0
  142.8294  132.6831  151.3155 H   0  0  0  0  0  0  0  0  0  0  0  0
  142.4490  132.9186  149.1862 H   0  0  0  0  0  0  0  0  0  0  0  0
  143.7576  134.8102  149.7511 H   0  0  0  0  0  0  0  0  0  0  0  0
  145.5424  134.9235  149.6213 H   0  0  0  0  0  0  0  0  0  0  0  0
  151.4286  141.7991  155.7847 H   0  0  0  0  0  0  0  0  0  0  0  0
  151.5168  140.0525  155.8235 H   0  0  0  0  0  0  0  0  0  0  0  0
  149.8175  141.6925  157.5404 H   0  0  0  0  0  0  0  0  0  0  0  0
  1  2  1  0  0  0  0
  1 29  1  0  0  0  0
  1 30  1  0  0  0  0
  1 31  1  0  0  0  0
  2 28  1  0  0  0  0
  2  3  1  0  0  0  0
  2 59  1  0  0  0  0
  3  4  1  0  0  0  0
  3 32  1  0  0  0  0
  3 33  1  0  0  0  0
  4  5  1  0  0  0  0
  4 34  1  0  0  0  0
  4 35  1  0  0  0  0
  5 10  1  0  0  0  0
  5  6  1  0  0  0  0
  5 36  1  0  0  0  0
  6  7  1  0  0  0  0
  6 28  1  0  0  0  0
  6 37  1  0  0  0  0
  7  8  1  0  0  0  0
  7 38  1  0  0  0  0
  7 39  1  0  0  0  0
  8  9  1  0  0  0  0
  8 40  1  0  0  0  0
  8 41  1  0  0  0  0
  9 10  1  0  0  0  0
  9 42  1  0  0  0  0
  9 43  1  0  0  0  0
 10 11  1  0  0  0  0
 11 16  1  0  0  0  0
 11 12  2  0  0  0  0
 12 13  1  0  0  0  0
 13 14  2  0  0  0  0
 13 44  1  0  0  0  0
 14 15  1  0  0  0  0
 15 19  1  0  0  0  0
 15 16  2  0  0  0  0
 16 17  1  0  0  0  0
 17 18  2  0  0  0  0
 18 19  1  0  0  0  0
 18 45  1  0  0  0  0
 19 20  1  0  0  0  0
 20 27  1  0  0  0  0
 20 21  1  0  0  0  0
 20 46  1  0  0  0  0
 21 22  1  0  0  0  0
 21 47  1  0  0  0  0
 21 48  1  0  0  0  0
 22 23  1  0  0  0  0
 22 25  1  0  0  0  0
 22 27  1  0  0  0  0
 23 24  1  0  0  0  0
 23 49  1  0  0  0  0
 23 50  1  0  0  0  0
 24 51  1  0  0  0  0
 25 26  1  0  0  0  0
 25 52  1  0  0  0  0
 25 53  1  0  0  0  0
 26 54  1  0  0  0  0
 27 55  1  0  0  0  0
 27 56  1  0  0  0  0
 28 57  1  0  0  0  0
 28 58  1  0  0  0  0
M  CHG  1   2   1
M  END
> <s_m_source_file>
AV-unprocessed.smi

> <i_m_source_file_index>
198

> <i_lp_mmshare_version>
43012

> <i_f3d_flags>
0

> <s_epik_input>
W0NIMl0xW0NIMl1OKFtDSDNdKVtDSDJdW0NAQEhdKFtDQEhdMTIpW0NIMl1bQ0gyXVtDSDJdTjJjKG5bY0hdbjMpYyhjMzQpbltjSF1uNFtDSF0oW0NIMl01KVtDSDJdQzUoW0NIMl1bT0hdKVtDSDJdW09IXQ==

> <s_epik_cmdline>
J2VwaWtfcHl0aG9uJywgJy1waCcsICc3LjAnLCAnLXRuJywgJzgnLCAnLW1hJywgJzIwMCcsICctbWV0YWxfYmluZGluZycsICctaW1hZScsICc8aW5maWxlLm1hZT4nLCAnLW9tYWUnLCAnPG91dGZpbGUubWFlPic=

> <r_lp_tautomer_probability>
1

> <r_epik_Ionization_Penalty>
0.00239938

> <r_epik_Ionization_Penalty_Charging>
0.00138697

> <r_epik_Ionization_Penalty_Neutral>
0.00101241

> <r_epik_State_Penalty>
-0

> <r_epik_Charging_Adjusted_Penalty>
0.00138697

> <i_epik_Tot_Q>
1

> <i_epik_Tot_abs_Q>
1

> <r_epik_Metal_State_Penalty>
-0

> <b_epik_Metal_Only>
0

> <s_lp_Force_Field>
OPLS_2005

> <r_lp_Energy>
59.0053

> <b_lp_Chiralities_Consistent>
1

> <s_lp_Variant>
AV-unprocessed.smi:198-4

> <Gold.Version>
5.8.1

> <Gold.Id.Protein>
6NUR|6NUR_protein|mol2

> <Gold.PLP.Fitness>
48.6676

> <Gold.PLP.PLP>
-39.7582

> <Gold.PLP.part.hbond>
-3.8412

> <Gold.PLP.part.metal>
0.0000

> <Gold.PLP.part.buried>
-0.4236

> <Gold.PLP.part.nonpolar>
-36.1208

> <Gold.PLP.part.repulsive>
0.8364

> <Gold.PLP.ligand.clash>
0.0000

> <Gold.PLP.ligand.torsion>
1.0105

> <Gold.PLP.Chemscore.Hbond>
2.7550

> <Gold.PLP.Chemscore.CHOScore>
0.5842

> <Gold.PLP.Chemscore.Metal>
0.0000

> <Gold.Chemscore.Hbonds>
donor molecule, donor type, donor heavy atom, donor atom, acceptor molecule, acceptor atom, score
      L1  H    24    51       P1 10747  1.00
      L1  H    26    54       P1 10186  0.81
      P1  H 10785 10796       L1    26  0.86
      L1  C    18    45       P1 10171  0.52

> <Gold.PLP.Chemscore.Internal.Correction>
0.9128

> <Gold.Rescore>
     Score         DG    S(hbond)    S(metal)    S(lipo)     H(rot)  DE(clash)    DE(int)     intcor
     12.59     -17.28       2.52        0.00      96.42       3.08       2.46       2.24       ----

> <Gold.Chemscore.Fitness>
12.5877

> <Gold.Chemscore.DG>
-17.2839

> <Gold.Chemscore.ZeroCoef>
-5.4800

> <Gold.Chemscore.Hbond>
2.5156

> <Gold.Chemscore.Metal>
0.0000

> <Gold.Chemscore.Lipo>
96.4247

> <Gold.Chemscore.Internal_Hbond>
0.0000

> <Gold.Chemscore.DEClash>
2.4573

> <Gold.Chemscore.DEInternal>
2.2389

> <Gold.Chemscore.Rot>
3.0781

> <Gold.Chemscore.Internal.Correction>
   9.000000E+99

> <Gold.Chemscore.Hbonds>
donor molecule, donor type, donor heavy atom, donor atom, acceptor molecule, acceptor atom, score
      L1  H    24    51       P1 10747  0.99
      L1  H    26    54       P1 10186  0.78
      P1  H 10785 10796       L1    26  0.51

> <Gold.Chemscore.Hbond.Weighted>
-8.4022

> <Gold.Chemscore.Metal.Weighted>
-0.0000

> <Gold.Chemscore.Lipo.Weighted>
-11.2817

> <Gold.Chemscore.Internal_Hbond.Weighted>
0.0000

> <Gold.Chemscore.DEClash.Weighted>
2.4573

> <Gold.Chemscore.DEInternal.Weighted>
2.2389

> <Gold.Chemscore.Rot.Weighted>
7.8800

> <Gold.Chemscore.Internal.Correction.Weighted>
   9.000000E+99

> <Gold.Protein.RotatedTorsions>
[ 6907 6896 6895 6894 ] final -124.34 input  -60.11 | X-H torsion
[ 7974 7965 7964 7962 ] final  159.44 input  175.53 | X-H torsion
[ 8008 7997 7996 7995 ] final  152.34 input   59.86 | X-H torsion
[ 10167 10162 10161 10158 ] final   67.56 input  -65.29 | X-H torsion
[ 10718 10713 10712 10709 ] final  169.81 input   66.30 | X-H torsion
[ 10763 10752 10751 10750 ] final   68.75 input  -60.55 | X-H torsion
[ 11005 11000 10999 10996 ] final -166.37 input  -57.11 | X-H torsion

> <Gold.Protein.ActiveResidues>
 VAL166  LYS551  ARG553  GLY616  TRP617  ASP618  TYR619  PRO620  LYS621  CYS622 
 ASP623  PHE694  ASN695  SER759  ASP760  ASP761  ALA762  ILE779  LEU786  VAL792 
 PHE793  MET794  SER795  GLU796  ALA797  LYS798  CYS799  TRP800  GLU811  SER814 

> <Gold.Protein.RotatedAtoms>
  150.8759  133.7440  159.2946 H   0  0  0  0  0  0  0  0  0  0  0  0  # atno 6907 bound_to 6896
  151.5037  135.1061  159.9845 H   0  0  0  0  0  0  0  0  0  0  0  0  # atno 6908 bound_to 6896
  152.4727  133.8021  159.7014 H   0  0  0  0  0  0  0  0  0  0  0  0  # atno 6909 bound_to 6896
  144.7790  139.7617  143.6267 H   0  0  0  0  0  0  0  0  0  0  0  0  # atno 7974 bound_to 7965
  156.2633  140.2023  156.6319 H   0  0  0  0  0  0  0  0  0  0  0  0  # atno 8008 bound_to 7997
  154.6676  140.0553  157.0155 H   0  0  0  0  0  0  0  0  0  0  0  0  # atno 8009 bound_to 7997
  155.1183  140.3222  155.4506 H   0  0  0  0  0  0  0  0  0  0  0  0  # atno 8010 bound_to 7997
  140.0882  144.5011  150.7116 H   0  0  0  0  0  0  0  0  0  0  0  0  # atno 10167 bound_to 10162
  157.0173  131.0221  151.2785 H   0  0  0  0  0  0  0  0  0  0  0  0  # atno 10718 bound_to 10713
  153.0251  135.5236  154.7183 H   0  0  0  0  0  0  0  0  0  0  0  0  # atno 10763 bound_to 10752
  154.6245  135.2893  155.0290 H   0  0  0  0  0  0  0  0  0  0  0  0  # atno 10764 bound_to 10752
  154.1264  135.6599  153.4965 H   0  0  0  0  0  0  0  0  0  0  0  0  # atno 10765 bound_to 10752
  140.5653  134.5292  157.5151 H   0  0  0  0  0  0  0  0  0  0  0  0  # atno 11005 bound_to 11000
  146.1987  139.5269  142.9757 LP  0  0  0  0  0  0  0  0  0  0  0  0  # atno 17320 bound_to 7965
  145.6103  141.0340  143.1970 LP  0  0  0  0  0  0  0  0  0  0  0  0  # atno 17321 bound_to 7965
  140.7042  143.2456  151.4775 LP  0  0  0  0  0  0  0  0  0  0  0  0  # atno 17342 bound_to 10162
  139.5740  144.1862  152.1877 LP  0  0  0  0  0  0  0  0  0  0  0  0  # atno 17343 bound_to 10162
  157.5276  130.8038  149.7880 LP  0  0  0  0  0  0  0  0  0  0  0  0  # atno 17370 bound_to 10713
  156.0115  130.3831  150.2250 LP  0  0  0  0  0  0  0  0  0  0  0  0  # atno 17371 bound_to 10713
  139.9388  134.7825  156.0732 LP  0  0  0  0  0  0  0  0  0  0  0  0  # atno 17394 bound_to 11000
  141.1090  133.6650  156.2932 LP  0  0  0  0  0  0  0  0  0  0  0  0  # atno 17395 bound_to 11000

$$$$
