AV-unprocessed.smi:626|AV-procd|sdf|3109|dock10
  -GOLD-   22720 0 33D 1   1.00000     0.00000
 Structure written by MMmdl.
 34 36  0  0  0  0  0  0  0  0  1 V2000
  148.2748  140.9427  154.1631 C   0  0  0  0  0  0  0  0  0  0  0  0
  149.6098  140.5461  154.5842 N   0  0  0  0  0  0  0  0  0  0  0  0
  149.9854  139.2781  154.8060 C   0  0  0  0  0  0  0  0  0  0  0  0
  149.2215  138.3207  154.6698 O   0  0  0  0  0  0  0  0  0  0  0  0
  151.4448  139.0797  155.2377 C   0  0  0  0  0  0  0  0  0  0  0  0
  151.7765  139.8175  156.4979 C   0  0  0  0  0  0  0  0  0  0  0  0
  152.6751  139.3500  157.3562 N   0  0  0  0  0  0  0  0  0  0  0  0
  152.6737  140.3088  158.3793 O   0  0  0  0  0  0  0  0  0  0  0  0
  151.7929  141.2645  157.9949 C   0  0  0  0  0  0  0  0  0  0  0  0
  151.5044  142.3929  158.9377 C   0  0  2  0  0  0  0  0  0  0  0  0
  150.5266  143.4501  158.3832 C   0  0  0  0  0  0  0  0  0  0  0  0
  151.2759  144.7704  158.6469 C   0  0  1  0  0  0  0  0  0  0  0  0
  151.3607  145.0316  160.1637 C   0  0  0  0  0  0  0  0  0  0  0  0
  152.4066  143.9996  160.6323 C   0  0  0  0  0  0  0  0  0  0  0  0
  152.7356  143.2410  159.3323 C   0  0  2  0  0  0  0  0  0  0  0  0
  152.7107  144.3801  158.3156 C   0  0  0  0  0  0  0  0  0  0  0  0
  151.1685  140.9830  156.8526 N   0  0  0  0  0  0  0  0  0  0  0  0
  148.2321  142.0240  154.0328 H   0  0  0  0  0  0  0  0  0  0  0  0
  147.5318  140.6595  154.9098 H   0  0  0  0  0  0  0  0  0  0  0  0
  148.0111  140.4743  153.2139 H   0  0  0  0  0  0  0  0  0  0  0  0
  150.2915  141.2802  154.7122 H   0  0  0  0  0  0  0  0  0  0  0  0
  151.6303  138.0147  155.3835 H   0  0  0  0  0  0  0  0  0  0  0  0
  152.1099  139.4114  154.4389 H   0  0  0  0  0  0  0  0  0  0  0  0
  151.0783  141.9442  159.8366 H   0  0  0  0  0  0  0  0  0  0  0  0
  150.3714  143.3204  157.3108 H   0  0  0  0  0  0  0  0  0  0  0  0
  149.5502  143.4119  158.8672 H   0  0  0  0  0  0  0  0  0  0  0  0
  150.8857  145.6145  158.0777 H   0  0  0  0  0  0  0  0  0  0  0  0
  151.7060  146.0460  160.3666 H   0  0  0  0  0  0  0  0  0  0  0  0
  150.3969  144.9003  160.6569 H   0  0  0  0  0  0  0  0  0  0  0  0
  153.2934  144.5032  161.0193 H   0  0  0  0  0  0  0  0  0  0  0  0
  152.0275  143.3459  161.4187 H   0  0  0  0  0  0  0  0  0  0  0  0
  153.6681  142.6780  159.3895 H   0  0  0  0  0  0  0  0  0  0  0  0
  152.8409  144.0505  157.2839 H   0  0  0  0  0  0  0  0  0  0  0  0
  153.4350  145.1680  158.5299 H   0  0  0  0  0  0  0  0  0  0  0  0
  1  2  1  0  0  0  0
  1 18  1  0  0  0  0
  1 19  1  0  0  0  0
  1 20  1  0  0  0  0
  2  3  1  0  0  0  0
  2 21  1  0  0  0  0
  3  4  2  0  0  0  0
  3  5  1  0  0  0  0
  5  6  1  0  0  0  0
  5 22  1  0  0  0  0
  5 23  1  0  0  0  0
  6 17  1  0  0  0  0
  6  7  2  0  0  0  0
  7  8  1  0  0  0  0
  8  9  1  0  0  0  0
  9 10  1  0  0  0  0
  9 17  2  0  0  0  0
 10 15  1  0  0  0  0
 10 11  1  0  0  0  0
 10 24  1  0  0  0  0
 11 12  1  0  0  0  0
 11 25  1  0  0  0  0
 11 26  1  0  0  0  0
 12 16  1  0  0  0  0
 12 13  1  0  0  0  0
 12 27  1  0  0  0  0
 13 14  1  0  0  0  0
 13 28  1  0  0  0  0
 13 29  1  0  0  0  0
 14 15  1  0  0  0  0
 14 30  1  0  0  0  0
 14 31  1  0  0  0  0
 15 16  1  0  0  0  0
 15 32  1  0  0  0  0
 16 33  1  0  0  0  0
 16 34  1  0  0  0  0
M  END
> <s_m_source_file>
AV-unprocessed.smi

> <i_m_source_file_index>
626

> <i_lp_mmshare_version>
43012

> <i_f3d_flags>
0

> <s_epik_input>
W0NIM11bTkhdQyg9TylbQ0gyXWMxbm9jKG4xKVtDQEhdKFtDSDJdW0NAQEhdMjMpW0NAQEhdKFtDSDJdMylbQ0gyXVtDSDJdMg==

> <s_epik_cmdline>
J2VwaWtfcHl0aG9uJywgJy1waCcsICc3LjAnLCAnLXRuJywgJzgnLCAnLW1hJywgJzIwMCcsICctbWV0YWxfYmluZGluZycsICctaW1hZScsICc8aW5maWxlLm1hZT4nLCAnLW9tYWUnLCAnPG91dGZpbGUubWFlPic=

> <r_lp_tautomer_probability>
1

> <r_epik_Ionization_Penalty>
1.02916e-07

> <r_epik_Ionization_Penalty_Charging>
0

> <r_epik_Ionization_Penalty_Neutral>
1.02916e-07

> <r_epik_State_Penalty>
-0

> <r_epik_Charging_Adjusted_Penalty>
0

> <i_epik_Tot_Q>
0

> <i_epik_Tot_abs_Q>
0

> <r_epik_Metal_State_Penalty>
-0

> <b_epik_Metal_Only>
0

> <s_lp_Force_Field>
OPLS_2005

> <r_lp_Energy>
49.0538

> <b_lp_Chiralities_Consistent>
1

> <s_lp_Variant>
AV-unprocessed.smi:626-1

> <Gold.Version>
5.8.1

> <Gold.Id.Protein>
6NUR|6NUR_protein|mol2

> <Gold.PLP.Fitness>
41.3553

> <Gold.PLP.PLP>
-39.5140

> <Gold.PLP.part.hbond>
-2.0000

> <Gold.PLP.part.metal>
0.0000

> <Gold.PLP.part.buried>
-4.8446

> <Gold.PLP.part.nonpolar>
-33.8670

> <Gold.PLP.part.repulsive>
1.2576

> <Gold.PLP.ligand.clash>
0.0000

> <Gold.PLP.ligand.torsion>
0.4675

> <Gold.PLP.Chemscore.Hbond>
0.9000

> <Gold.PLP.Chemscore.CHOScore>
0.0000

> <Gold.PLP.Chemscore.Metal>
0.0000

> <Gold.Chemscore.Hbonds>
donor molecule, donor type, donor heavy atom, donor atom, acceptor molecule, acceptor atom, score
      P1  H  7997  8008       L1     7  0.50

> <Gold.PLP.Chemscore.Internal.Correction>
0.0764

> <Gold.Rescore>
     Score         DG    S(hbond)    S(metal)    S(lipo)     H(rot)  DE(clash)    DE(int)     intcor
     11.44     -13.26       0.14        0.00      97.87       1.61       0.05       1.77       ----

> <Gold.Chemscore.Fitness>
11.4408

> <Gold.Chemscore.DG>
-13.2645

> <Gold.Chemscore.ZeroCoef>
-5.4800

> <Gold.Chemscore.Hbond>
0.1378

> <Gold.Chemscore.Metal>
0.0000

> <Gold.Chemscore.Lipo>
97.8696

> <Gold.Chemscore.Internal_Hbond>
0.0000

> <Gold.Chemscore.DEClash>
0.0516

> <Gold.Chemscore.DEInternal>
1.7721

> <Gold.Chemscore.Rot>
1.6119

> <Gold.Chemscore.Internal.Correction>
   9.000000E+99

> <Gold.Chemscore.Hbonds>
donor molecule, donor type, donor heavy atom, donor atom, acceptor molecule, acceptor atom, score
      P1  H  7997  8008       L1     7  0.01

> <Gold.Chemscore.Hbond.Weighted>
-0.4603

> <Gold.Chemscore.Metal.Weighted>
-0.0000

> <Gold.Chemscore.Lipo.Weighted>
-11.4507

> <Gold.Chemscore.Internal_Hbond.Weighted>
0.0000

> <Gold.Chemscore.DEClash.Weighted>
0.0516

> <Gold.Chemscore.DEInternal.Weighted>
1.7721

> <Gold.Chemscore.Rot.Weighted>
4.1266

> <Gold.Chemscore.Internal.Correction.Weighted>
   9.000000E+99

> <Gold.Protein.RotatedTorsions>
[ 6907 6896 6895 6894 ] final  165.76 input  -60.11 | X-H torsion
[ 7974 7965 7964 7962 ] final   26.90 input  175.53 | X-H torsion
[ 8008 7997 7996 7995 ] final  -42.91 input   59.86 | X-H torsion
[ 10167 10162 10161 10158 ] final  -83.58 input  -65.29 | X-H torsion
[ 10718 10713 10712 10709 ] final   -6.72 input   66.30 | X-H torsion
[ 10763 10752 10751 10750 ] final -158.66 input  -60.55 | X-H torsion
[ 11005 11000 10999 10996 ] final -129.10 input  -57.11 | X-H torsion

> <Gold.Protein.ActiveResidues>
 VAL166  LYS551  ARG553  GLY616  TRP617  ASP618  TYR619  PRO620  LYS621  CYS622 
 ASP623  PHE694  ASN695  SER759  ASP760  ASP761  ALA762  ILE779  LEU786  VAL792 
 PHE793  MET794  SER795  GLU796  ALA797  LYS798  CYS799  TRP800  GLU811  SER814 

> <Gold.Protein.RotatedAtoms>
  151.8894  133.3512  159.3792 H   0  0  0  0  0  0  0  0  0  0  0  0  # atno 6907 bound_to 6896
  150.7107  134.4939  159.5538 H   0  0  0  0  0  0  0  0  0  0  0  0  # atno 6908 bound_to 6896
  152.2506  134.8137  160.0497 H   0  0  0  0  0  0  0  0  0  0  0  0  # atno 6909 bound_to 6896
  146.1813  139.7264  142.8898 H   0  0  0  0  0  0  0  0  0  0  0  0  # atno 7974 bound_to 7965
  154.3997  140.1461  156.3432 H   0  0  0  0  0  0  0  0  0  0  0  0  # atno 8008 bound_to 7997
  155.8337  140.3465  155.5567 H   0  0  0  0  0  0  0  0  0  0  0  0  # atno 8009 bound_to 7997
  155.8161  140.0891  157.1867 H   0  0  0  0  0  0  0  0  0  0  0  0  # atno 8010 bound_to 7997
  140.4213  143.2583  151.8886 H   0  0  0  0  0  0  0  0  0  0  0  0  # atno 10167 bound_to 10162
  156.7277  130.5170  149.5853 H   0  0  0  0  0  0  0  0  0  0  0  0  # atno 10718 bound_to 10713
  154.7538  135.3099  154.8508 H   0  0  0  0  0  0  0  0  0  0  0  0  # atno 10763 bound_to 10752
  153.9287  135.6787  153.4750 H   0  0  0  0  0  0  0  0  0  0  0  0  # atno 10764 bound_to 10752
  153.1135  135.4855  154.9004 H   0  0  0  0  0  0  0  0  0  0  0  0  # atno 10765 bound_to 10752
  140.9460  134.1129  157.4107 H   0  0  0  0  0  0  0  0  0  0  0  0  # atno 11005 bound_to 11000
  145.4068  141.0392  143.3039 LP  0  0  0  0  0  0  0  0  0  0  0  0  # atno 17320 bound_to 7965
  144.8320  139.5613  143.6939 LP  0  0  0  0  0  0  0  0  0  0  0  0  # atno 17321 bound_to 7965
  139.4782  144.5434  151.8494 LP  0  0  0  0  0  0  0  0  0  0  0  0  # atno 17342 bound_to 10162
  140.4531  144.1828  150.5899 LP  0  0  0  0  0  0  0  0  0  0  0  0  # atno 17343 bound_to 10162
  156.1550  130.6336  151.0645 LP  0  0  0  0  0  0  0  0  0  0  0  0  # atno 17370 bound_to 10713
  157.6872  131.0821  150.7210 LP  0  0  0  0  0  0  0  0  0  0  0  0  # atno 17371 bound_to 10713
  139.8833  135.0051  156.6294 LP  0  0  0  0  0  0  0  0  0  0  0  0  # atno 17394 bound_to 11000
  140.7668  133.8771  155.8461 LP  0  0  0  0  0  0  0  0  0  0  0  0  # atno 17395 bound_to 11000

$$$$
