AV-unprocessed.smi:2132|AV-procd|sdf|8691|dock9
  -GOLD-   2272011443D 1   1.00000     0.00000
 Structure written by MMmdl.
 38 39  0  0  0  0  0  0  0  0  1 V2000
  154.0526  137.1198  162.9486 C   0  0  0  0  0  0  0  0  0  0  0  0
  154.7970  138.2670  162.5794 O   0  0  0  0  0  0  0  0  0  0  0  0
  154.2461  138.9341  161.4555 C   0  0  0  0  0  0  0  0  0  0  0  0
  154.8847  140.3241  161.3308 C   0  0  0  0  0  0  0  0  0  0  0  0
  153.9476  141.2934  160.7768 N   0  0  0  0  0  0  0  0  0  0  0  0
  153.3302  141.1853  159.5893 C   0  0  0  0  0  0  0  0  0  0  0  0
  153.5109  140.2454  158.8150 O   0  0  0  0  0  0  0  0  0  0  0  0
  152.4407  142.3376  159.1993 C   0  0  0  0  0  0  0  0  0  0  0  0
  152.7061  143.6088  159.7568 C   0  0  0  0  0  0  0  0  0  0  0  0
  151.8878  144.7015  159.4212 C   0  0  0  0  0  0  0  0  0  0  0  0
  150.8268  144.4861  158.5259 C   0  0  0  0  0  0  0  0  0  0  0  0
  150.5676  143.2873  157.9668 N   0  0  0  0  0  0  0  0  0  0  0  0
  151.3542  142.2272  158.2783 C   0  0  0  0  0  0  0  0  0  0  0  0
  151.0658  141.0203  157.6099 N   0  0  0  0  0  0  0  0  0  0  0  0
  151.3457  141.0521  156.1798 C   0  0  0  0  0  0  0  0  0  0  0  0
  151.2869  139.6263  155.6055 C   0  0  0  0  0  0  0  0  0  0  0  0
  150.0249  139.0371  155.9084 O   0  0  0  0  0  0  0  0  0  0  0  0
  149.7975  138.9451  157.3123 C   0  0  0  0  0  0  0  0  0  0  0  0
  149.8080  140.3540  157.9293 C   0  0  0  0  0  0  0  0  0  0  0  0
  154.5134  136.6482  163.8164 H   0  0  0  0  0  0  0  0  0  0  0  0
  154.0301  136.3876  162.1405 H   0  0  0  0  0  0  0  0  0  0  0  0
  153.0274  137.3823  163.2125 H   0  0  0  0  0  0  0  0  0  0  0  0
  154.4110  138.3537  160.5460 H   0  0  0  0  0  0  0  0  0  0  0  0
  153.1677  139.0375  161.5843 H   0  0  0  0  0  0  0  0  0  0  0  0
  155.2400  140.6632  162.3051 H   0  0  0  0  0  0  0  0  0  0  0  0
  155.7601  140.2770  160.6829 H   0  0  0  0  0  0  0  0  0  0  0  0
  153.7582  142.1134  161.3349 H   0  0  0  0  0  0  0  0  0  0  0  0
  153.5241  143.7492  160.4488 H   0  0  0  0  0  0  0  0  0  0  0  0
  152.0677  145.6795  159.8421 H   0  0  0  0  0  0  0  0  0  0  0  0
  150.1732  145.2985  158.2451 H   0  0  0  0  0  0  0  0  0  0  0  0
  150.6080  141.6858  155.6860 H   0  0  0  0  0  0  0  0  0  0  0  0
  152.3245  141.4910  155.9857 H   0  0  0  0  0  0  0  0  0  0  0  0
  151.4178  139.6510  154.5236 H   0  0  0  0  0  0  0  0  0  0  0  0
  152.0929  139.0122  156.0106 H   0  0  0  0  0  0  0  0  0  0  0  0
  148.8346  138.4650  157.4867 H   0  0  0  0  0  0  0  0  0  0  0  0
  150.5585  138.3132  157.7737 H   0  0  0  0  0  0  0  0  0  0  0  0
  149.6848  140.2913  159.0112 H   0  0  0  0  0  0  0  0  0  0  0  0
  148.9721  140.9350  157.5374 H   0  0  0  0  0  0  0  0  0  0  0  0
  1  2  1  0  0  0  0
  1 20  1  0  0  0  0
  1 21  1  0  0  0  0
  1 22  1  0  0  0  0
  2  3  1  0  0  0  0
  3  4  1  0  0  0  0
  3 23  1  0  0  0  0
  3 24  1  0  0  0  0
  4  5  1  0  0  0  0
  4 25  1  0  0  0  0
  4 26  1  0  0  0  0
  5  6  1  0  0  0  0
  5 27  1  0  0  0  0
  6  7  2  0  0  0  0
  6  8  1  0  0  0  0
  8 13  1  0  0  0  0
  8  9  2  0  0  0  0
  9 10  1  0  0  0  0
  9 28  1  0  0  0  0
 10 11  2  0  0  0  0
 10 29  1  0  0  0  0
 11 12  1  0  0  0  0
 11 30  1  0  0  0  0
 12 13  2  0  0  0  0
 13 14  1  0  0  0  0
 14 19  1  0  0  0  0
 14 15  1  0  0  0  0
 15 16  1  0  0  0  0
 15 31  1  0  0  0  0
 15 32  1  0  0  0  0
 16 17  1  0  0  0  0
 16 33  1  0  0  0  0
 16 34  1  0  0  0  0
 17 18  1  0  0  0  0
 18 19  1  0  0  0  0
 18 35  1  0  0  0  0
 18 36  1  0  0  0  0
 19 37  1  0  0  0  0
 19 38  1  0  0  0  0
M  END
> <s_m_source_file>
AV-unprocessed.smi

> <i_m_source_file_index>
2132

> <i_lp_mmshare_version>
43012

> <i_f3d_flags>
0

> <s_epik_input>
W0NIM11PW0NIMl1bQ0gyXVtOSF1DKD1PKWMxW2NIXVtjSF1bY0hdbmMxTjJbQ0gyXVtDSDJdT1tDSDJdW0NIMl0y

> <s_epik_cmdline>
J2VwaWtfcHl0aG9uJywgJy1waCcsICc3LjAnLCAnLXRuJywgJzgnLCAnLW1hJywgJzIwMCcsICctbWV0YWxfYmluZGluZycsICctaW1hZScsICc8aW5maWxlLm1hZT4nLCAnLW9tYWUnLCAnPG91dGZpbGUubWFlPic=

> <r_lp_tautomer_probability>
1

> <r_epik_Ionization_Penalty>
1.38099e-05

> <r_epik_Ionization_Penalty_Charging>
0

> <r_epik_Ionization_Penalty_Neutral>
1.38099e-05

> <r_epik_State_Penalty>
-0

> <r_epik_Charging_Adjusted_Penalty>
0

> <i_epik_Tot_Q>
0

> <i_epik_Tot_abs_Q>
0

> <r_epik_Metal_State_Penalty>
-0

> <b_epik_Metal_Only>
0

> <s_lp_Force_Field>
OPLS_2005

> <r_lp_Energy>
24.8445

> <b_lp_Chiralities_Consistent>
1

> <s_lp_Variant>
AV-unprocessed.smi:2132-1

> <Gold.Version>
5.8.1

> <Gold.Id.Protein>
6NUR|6NUR_protein|mol2

> <Gold.PLP.Fitness>
40.1333

> <Gold.PLP.PLP>
-35.5054

> <Gold.PLP.part.hbond>
-1.0000

> <Gold.PLP.part.metal>
0.0000

> <Gold.PLP.part.buried>
-5.2427

> <Gold.PLP.part.nonpolar>
-29.6763

> <Gold.PLP.part.repulsive>
0.2014

> <Gold.PLP.ligand.clash>
0.0000

> <Gold.PLP.ligand.torsion>
0.6762

> <Gold.PLP.Chemscore.Hbond>
0.9040

> <Gold.PLP.Chemscore.CHOScore>
1.0045

> <Gold.PLP.Chemscore.Metal>
0.0000

> <Gold.Chemscore.Hbonds>
donor molecule, donor type, donor heavy atom, donor atom, acceptor molecule, acceptor atom, score
      P1  H  7997  8010       L1     7  0.84
      L1  C    11    30       P1  8028  0.01
      L1  C    11    30       P1  8029  0.98

> <Gold.PLP.Chemscore.Internal.Correction>
0.2547

> <Gold.Rescore>
     Score         DG    S(hbond)    S(metal)    S(lipo)     H(rot)  DE(clash)    DE(int)     intcor
     13.16     -15.30       0.97        0.00      91.88       1.62       0.01       2.14       ----

> <Gold.Chemscore.Fitness>
13.1568

> <Gold.Chemscore.DG>
-15.3048

> <Gold.Chemscore.ZeroCoef>
-5.4800

> <Gold.Chemscore.Hbond>
0.9655

> <Gold.Chemscore.Metal>
0.0000

> <Gold.Chemscore.Lipo>
91.8769

> <Gold.Chemscore.Internal_Hbond>
0.0000

> <Gold.Chemscore.DEClash>
0.0098

> <Gold.Chemscore.DEInternal>
2.1381

> <Gold.Chemscore.Rot>
1.6209

> <Gold.Chemscore.Internal.Correction>
   9.000000E+99

> <Gold.Chemscore.Hbonds>
donor molecule, donor type, donor heavy atom, donor atom, acceptor molecule, acceptor atom, score
      P1  H  7997  8010       L1     7  0.79

> <Gold.Chemscore.Hbond.Weighted>
-3.2248

> <Gold.Chemscore.Metal.Weighted>
-0.0000

> <Gold.Chemscore.Lipo.Weighted>
-10.7496

> <Gold.Chemscore.Internal_Hbond.Weighted>
0.0000

> <Gold.Chemscore.DEClash.Weighted>
0.0098

> <Gold.Chemscore.DEInternal.Weighted>
2.1381

> <Gold.Chemscore.Rot.Weighted>
4.1496

> <Gold.Chemscore.Internal.Correction.Weighted>
   9.000000E+99

> <Gold.Protein.RotatedTorsions>
[ 6907 6896 6895 6894 ] final  102.81 input  -60.11 | X-H torsion
[ 7974 7965 7964 7962 ] final  122.90 input  175.53 | X-H torsion
[ 8008 7997 7996 7995 ] final   23.00 input   59.86 | X-H torsion
[ 10167 10162 10161 10158 ] final -147.54 input  -65.29 | X-H torsion
[ 10718 10713 10712 10709 ] final  -44.99 input   66.30 | X-H torsion
[ 10763 10752 10751 10750 ] final   84.60 input  -60.55 | X-H torsion
[ 11005 11000 10999 10996 ] final   98.73 input  -57.11 | X-H torsion

> <Gold.Protein.ActiveResidues>
 VAL166  LYS551  ARG553  GLY616  TRP617  ASP618  TYR619  PRO620  LYS621  CYS622 
 ASP623  PHE694  ASN695  SER759  ASP760  ASP761  ALA762  ILE779  LEU786  VAL792 
 PHE793  MET794  SER795  GLU796  ALA797  LYS798  CYS799  TRP800  GLU811  SER814 

> <Gold.Protein.RotatedAtoms>
  152.5313  133.9920  159.7854 H   0  0  0  0  0  0  0  0  0  0  0  0  # atno 6907 bound_to 6896
  151.0154  133.5918  159.2684 H   0  0  0  0  0  0  0  0  0  0  0  0  # atno 6908 bound_to 6896
  151.2977  135.0766  159.9280 H   0  0  0  0  0  0  0  0  0  0  0  0  # atno 6909 bound_to 6896
  145.1022  139.3511  143.4806 H   0  0  0  0  0  0  0  0  0  0  0  0  # atno 7974 bound_to 7965
  154.9742  140.3094  155.4974 H   0  0  0  0  0  0  0  0  0  0  0  0  # atno 8008 bound_to 7997
  156.2962  140.2278  156.4776 H   0  0  0  0  0  0  0  0  0  0  0  0  # atno 8009 bound_to 7997
  154.7848  140.0443  157.1144 H   0  0  0  0  0  0  0  0  0  0  0  0  # atno 8010 bound_to 7997
  139.7613  143.8373  152.2607 H   0  0  0  0  0  0  0  0  0  0  0  0  # atno 10167 bound_to 10162
  156.2328  130.4174  149.8853 H   0  0  0  0  0  0  0  0  0  0  0  0  # atno 10718 bound_to 10713
  153.1396  135.4648  154.9476 H   0  0  0  0  0  0  0  0  0  0  0  0  # atno 10763 bound_to 10752
  154.7736  135.3166  154.8141 H   0  0  0  0  0  0  0  0  0  0  0  0  # atno 10764 bound_to 10752
  153.8667  135.6907  153.4832 H   0  0  0  0  0  0  0  0  0  0  0  0  # atno 10765 bound_to 10752
  139.8772  134.9063  156.4500 H   0  0  0  0  0  0  0  0  0  0  0  0  # atno 11005 bound_to 11000
  146.3529  140.0904  142.8613 LP  0  0  0  0  0  0  0  0  0  0  0  0  # atno 17320 bound_to 7965
  145.0943  140.9305  143.4750 LP  0  0  0  0  0  0  0  0  0  0  0  0  # atno 17321 bound_to 7965
  139.8380  144.7223  150.9367 LP  0  0  0  0  0  0  0  0  0  0  0  0  # atno 17342 bound_to 10162
  140.7807  143.4009  151.1150 LP  0  0  0  0  0  0  0  0  0  0  0  0  # atno 17343 bound_to 10162
  156.6462  130.8725  151.3523 LP  0  0  0  0  0  0  0  0  0  0  0  0  # atno 17370 bound_to 10713
  157.7141  130.9475  150.1192 LP  0  0  0  0  0  0  0  0  0  0  0  0  # atno 17371 bound_to 10713
  140.8939  133.7828  155.9602 LP  0  0  0  0  0  0  0  0  0  0  0  0  # atno 17394 bound_to 11000
  140.8724  134.2710  157.5184 LP  0  0  0  0  0  0  0  0  0  0  0  0  # atno 17395 bound_to 11000

$$$$
