AV-unprocessed.smi:1326|AV-procd|sdf|5476|dock4
  -GOLD-   22720 5 43D 1   1.00000     0.00000
 Structure written by MMmdl.
 38 38  0  0  0  0  0  0  0  0  2 V2000
  147.7125  136.0155  160.9042 C   0  0  0  0  0  0  0  0  0  0  0  0
  148.3988  136.8185  159.8199 C   0  0  0  0  0  0  0  0  0  0  0  0
  147.7458  137.7332  159.2103 N   0  0  0  0  0  0  0  0  0  0  0  0
  148.3796  138.4824  158.2042 C   0  0  0  0  0  0  0  0  0  0  0  0
  147.5310  139.5503  157.5364 C   0  0  0  0  0  0  0  0  0  0  0  0
  149.6804  138.2509  157.8661 C   0  0  0  0  0  0  0  0  0  0  0  0
  150.4172  139.0391  156.7828 C   0  0  0  0  0  0  0  0  0  0  0  0
  151.6672  139.7944  157.2395 C   0  0  0  0  0  0  0  0  0  0  0  0
  152.7464  139.5923  156.6826 O   0  0  0  0  0  0  0  0  0  0  0  0
  151.5050  140.6759  158.2383 N   0  0  0  0  0  0  0  0  0  0  0  0
  152.5515  141.5282  158.7885 C   0  0  0  0  0  0  0  0  0  0  0  0
  151.9666  142.5581  159.7722 C   0  0  0  0  0  0  0  0  0  0  0  0
  152.5120  143.9889  159.5887 C   0  0  0  0  0  0  0  0  0  0  0  0
  151.8327  145.0033  160.5242 C   0  0  0  0  0  0  0  0  0  0  0  0
  152.3738  144.4368  158.1256 C   0  0  0  0  0  0  0  0  0  0  0  0
  150.3948  137.1817  158.5869 C   0  0  0  0  0  0  0  0  0  0  0  0
  151.5634  136.9179  158.3059 O   0  0  0  0  0  0  0  0  0  0  0  0
  149.7118  136.5028  159.5517 N   0  5  0  0  0  0  0  0  0  0  0  0
  146.7387  136.4405  161.1519 H   0  0  0  0  0  0  0  0  0  0  0  0
  148.3185  136.0037  161.8107 H   0  0  0  0  0  0  0  0  0  0  0  0
  147.5639  134.9872  160.5737 H   0  0  0  0  0  0  0  0  0  0  0  0
  147.5099  139.4054  156.4561 H   0  0  0  0  0  0  0  0  0  0  0  0
  147.9317  140.5421  157.7464 H   0  0  0  0  0  0  0  0  0  0  0  0
  146.5024  139.5212  157.8975 H   0  0  0  0  0  0  0  0  0  0  0  0
  150.7043  138.3515  155.9871 H   0  0  0  0  0  0  0  0  0  0  0  0
  149.7448  139.7483  156.2991 H   0  0  0  0  0  0  0  0  0  0  0  0
  150.5807  140.7737  158.6346 H   0  0  0  0  0  0  0  0  0  0  0  0
  153.2675  140.8804  159.2931 H   0  0  0  0  0  0  0  0  0  0  0  0
  153.0951  142.0280  157.9849 H   0  0  0  0  0  0  0  0  0  0  0  0
  150.8832  142.5790  159.6438 H   0  0  0  0  0  0  0  0  0  0  0  0
  152.1410  142.2270  160.7971 H   0  0  0  0  0  0  0  0  0  0  0  0
  153.5771  143.9774  159.8236 H   0  0  0  0  0  0  0  0  0  0  0  0
  150.7535  145.0232  160.3704 H   0  0  0  0  0  0  0  0  0  0  0  0
  152.2101  146.0111  160.3487 H   0  0  0  0  0  0  0  0  0  0  0  0
  152.0171  144.7712  161.5727 H   0  0  0  0  0  0  0  0  0  0  0  0
  151.3282  144.4641  157.8167 H   0  0  0  0  0  0  0  0  0  0  0  0
  152.9016  143.7590  157.4541 H   0  0  0  0  0  0  0  0  0  0  0  0
  152.7906  145.4332  157.9774 H   0  0  0  0  0  0  0  0  0  0  0  0
  1  2  1  0  0  0  0
  1 19  1  0  0  0  0
  1 20  1  0  0  0  0
  1 21  1  0  0  0  0
  2 18  1  0  0  0  0
  2  3  2  0  0  0  0
  3  4  1  0  0  0  0
  4  5  1  0  0  0  0
  4  6  2  0  0  0  0
  5 22  1  0  0  0  0
  5 23  1  0  0  0  0
  5 24  1  0  0  0  0
  6  7  1  0  0  0  0
  6 16  1  0  0  0  0
  7  8  1  0  0  0  0
  7 25  1  0  0  0  0
  7 26  1  0  0  0  0
  8  9  2  0  0  0  0
  8 10  1  0  0  0  0
 10 11  1  0  0  0  0
 10 27  1  0  0  0  0
 11 12  1  0  0  0  0
 11 28  1  0  0  0  0
 11 29  1  0  0  0  0
 12 13  1  0  0  0  0
 12 30  1  0  0  0  0
 12 31  1  0  0  0  0
 13 14  1  0  0  0  0
 13 15  1  0  0  0  0
 13 32  1  0  0  0  0
 14 33  1  0  0  0  0
 14 34  1  0  0  0  0
 14 35  1  0  0  0  0
 15 36  1  0  0  0  0
 15 37  1  0  0  0  0
 15 38  1  0  0  0  0
 16 17  2  0  0  0  0
 16 18  1  0  0  0  0
M  CHG  1  18  -1
M  END
> <s_m_source_file>
AV-unprocessed.smi

> <i_m_source_file_index>
1326

> <i_lp_mmshare_version>
43012

> <i_f3d_flags>
0

> <s_epik_input>
W0NIM11jMW5jKFtDSDNdKWMoYyg9TylbbkhdMSlbQ0gyXUMoPU8pW05IXVtDSDJdW0NIMl1bQ0hdKFtDSDNdKVtDSDNd

> <s_epik_cmdline>
J2VwaWtfcHl0aG9uJywgJy1waCcsICc3LjAnLCAnLXRuJywgJzgnLCAnLW1hJywgJzIwMCcsICctbWV0YWxfYmluZGluZycsICctaW1hZScsICc8aW5maWxlLm1hZT4nLCAnLW9tYWUnLCAnPG91dGZpbGUubWFlPic=

> <r_lp_tautomer_probability>
0.839158

> <r_epik_Ionization_Penalty>
6.68288

> <r_epik_Ionization_Penalty_Charging>
7.3825e-08

> <r_epik_Ionization_Penalty_Neutral>
6.68288

> <r_epik_State_Penalty>
4.52336

> <r_epik_Charging_Adjusted_Penalty>
4.52336

> <i_epik_Tot_Q>
-1

> <i_epik_Tot_abs_Q>
1

> <r_epik_Metal_State_Penalty>
0.854958

> <b_epik_Metal_Only>
1

> <s_lp_Force_Field>
OPLS_2005

> <r_lp_Energy>
8.11969

> <b_lp_Chiralities_Consistent>
1

> <s_lp_Variant>
AV-unprocessed.smi:1326-3

> <Gold.Version>
5.8.1

> <Gold.Id.Protein>
6NUR|6NUR_protein|mol2

> <Gold.PLP.Fitness>
41.7695

> <Gold.PLP.PLP>
-32.6489

> <Gold.PLP.part.hbond>
-3.2829

> <Gold.PLP.part.metal>
0.0000

> <Gold.PLP.part.buried>
-5.0370

> <Gold.PLP.part.nonpolar>
-25.2989

> <Gold.PLP.part.repulsive>
0.0974

> <Gold.PLP.ligand.clash>
0.0000

> <Gold.PLP.ligand.torsion>
0.3884

> <Gold.PLP.Chemscore.Hbond>
3.2902

> <Gold.PLP.Chemscore.CHOScore>
0.0000

> <Gold.PLP.Chemscore.Metal>
0.0000

> <Gold.Chemscore.Hbonds>
donor molecule, donor type, donor heavy atom, donor atom, acceptor molecule, acceptor atom, score
      P1  H  6896  6907       L1    18  2.00
      P1  H  6934  6947       L1     3  0.30
      P1  H  7997  8009       L1     9  0.99

> <Gold.PLP.Chemscore.Internal.Correction>
0.0270

> <Gold.Rescore>
     Score         DG    S(hbond)    S(metal)    S(lipo)     H(rot)  DE(clash)    DE(int)     intcor
     16.07     -16.44       2.09        0.00      74.03       1.83       0.02       0.35       ----

> <Gold.Chemscore.Fitness>
16.0670

> <Gold.Chemscore.DG>
-16.4373

> <Gold.Chemscore.ZeroCoef>
-5.4800

> <Gold.Chemscore.Hbond>
2.0900

> <Gold.Chemscore.Metal>
0.0000

> <Gold.Chemscore.Lipo>
74.0346

> <Gold.Chemscore.Internal_Hbond>
0.0000

> <Gold.Chemscore.DEClash>
0.0208

> <Gold.Chemscore.DEInternal>
0.3495

> <Gold.Chemscore.Rot>
1.8302

> <Gold.Chemscore.Internal.Correction>
   9.000000E+99

> <Gold.Chemscore.Hbonds>
donor molecule, donor type, donor heavy atom, donor atom, acceptor molecule, acceptor atom, score
      P1  H  6896  6907       L1    18  0.25
      P1  H  6934  6947       L1     3  0.07
      P1  H  7997  8009       L1     9  0.94

> <Gold.Chemscore.Hbond.Weighted>
-6.9806

> <Gold.Chemscore.Metal.Weighted>
-0.0000

> <Gold.Chemscore.Lipo.Weighted>
-8.6620

> <Gold.Chemscore.Internal_Hbond.Weighted>
0.0000

> <Gold.Chemscore.DEClash.Weighted>
0.0208

> <Gold.Chemscore.DEInternal.Weighted>
0.3495

> <Gold.Chemscore.Rot.Weighted>
4.6854

> <Gold.Chemscore.Internal.Correction.Weighted>
   9.000000E+99

> <Gold.Protein.RotatedTorsions>
[ 6907 6896 6895 6894 ] final  -47.83 input  -60.11 | X-H torsion
[ 7974 7965 7964 7962 ] final  112.62 input  175.53 | X-H torsion
[ 8008 7997 7996 7995 ] final -152.18 input   59.86 | X-H torsion
[ 10167 10162 10161 10158 ] final  114.48 input  -65.29 | X-H torsion
[ 10718 10713 10712 10709 ] final   95.54 input   66.30 | X-H torsion
[ 10763 10752 10751 10750 ] final   50.18 input  -60.55 | X-H torsion
[ 11005 11000 10999 10996 ] final  138.35 input  -57.11 | X-H torsion

> <Gold.Protein.ActiveResidues>
 VAL166  LYS551  ARG553  GLY616  TRP617  ASP618  TYR619  PRO620  LYS621  CYS622 
 ASP623  PHE694  ASN695  SER759  ASP760  ASP761  ALA762  ILE779  LEU786  VAL792 
 PHE793  MET794  SER795  GLU796  ALA797  LYS798  CYS799  TRP800  GLU811  SER814 

> <Gold.Protein.RotatedAtoms>
  150.8968  134.8377  159.7331 H   0  0  0  0  0  0  0  0  0  0  0  0  # atno 6907 bound_to 6896
  152.4869  134.4564  159.9601 H   0  0  0  0  0  0  0  0  0  0  0  0  # atno 6908 bound_to 6896
  151.4620  133.3551  159.2846 H   0  0  0  0  0  0  0  0  0  0  0  0  # atno 6909 bound_to 6896
  145.2272  139.2835  143.4187 H   0  0  0  0  0  0  0  0  0  0  0  0  # atno 7974 bound_to 7965
  155.6511  140.0712  157.2586 H   0  0  0  0  0  0  0  0  0  0  0  0  # atno 8008 bound_to 7997
  154.4162  140.1733  156.1726 H   0  0  0  0  0  0  0  0  0  0  0  0  # atno 8009 bound_to 7997
  155.9776  140.3356  155.6636 H   0  0  0  0  0  0  0  0  0  0  0  0  # atno 8010 bound_to 7997
  139.6386  144.7122  151.2284 H   0  0  0  0  0  0  0  0  0  0  0  0  # atno 10167 bound_to 10162
  157.6937  131.0549  150.4354 H   0  0  0  0  0  0  0  0  0  0  0  0  # atno 10718 bound_to 10713
  152.9785  135.5887  154.4211 H   0  0  0  0  0  0  0  0  0  0  0  0  # atno 10763 bound_to 10752
  154.3835  135.2767  155.2199 H   0  0  0  0  0  0  0  0  0  0  0  0  # atno 10764 bound_to 10752
  154.4102  135.6083  153.6003 H   0  0  0  0  0  0  0  0  0  0  0  0  # atno 10765 bound_to 10752
  140.0178  134.9410  157.0411 H   0  0  0  0  0  0  0  0  0  0  0  0  # atno 11005 bound_to 11000
  146.3362  140.2596  142.8601 LP  0  0  0  0  0  0  0  0  0  0  0  0  # atno 17320 bound_to 7965
  144.9710  140.8368  143.5455 LP  0  0  0  0  0  0  0  0  0  0  0  0  # atno 17321 bound_to 7965
  140.7478  143.6352  150.8385 LP  0  0  0  0  0  0  0  0  0  0  0  0  # atno 17342 bound_to 10162
  139.9987  143.5768  152.2883 LP  0  0  0  0  0  0  0  0  0  0  0  0  # atno 17343 bound_to 10162
  156.4717  130.4054  149.6514 LP  0  0  0  0  0  0  0  0  0  0  0  0  # atno 17370 bound_to 10713
  156.3592  130.7472  151.2442 LP  0  0  0  0  0  0  0  0  0  0  0  0  # atno 17371 bound_to 10713
  140.4441  134.1651  155.7176 LP  0  0  0  0  0  0  0  0  0  0  0  0  # atno 17394 bound_to 11000
  141.1754  133.8525  157.1438 LP  0  0  0  0  0  0  0  0  0  0  0  0  # atno 17395 bound_to 11000

$$$$
