AV-unprocessed.smi:2024|AV-procd|sdf|8194|dock8
  -GOLD-   2272010453D 1   1.00000     0.00000
 Structure written by MMmdl.
 43 44  0  0  0  0  0  0  0  0  3 V2000
  145.7447  142.3555  154.6102 C   0  0  0  0  0  0  0  0  0  0  0  0
  146.0583  140.9983  154.1075 N   0  3  0  0  0  0  0  0  0  0  0  0
  145.9079  139.9331  155.1260 C   0  0  0  0  0  0  0  0  0  0  0  0
  147.0985  139.9051  156.1081 C   0  0  0  0  0  0  0  0  0  0  0  0
  148.3499  139.7000  155.3636 N   0  0  0  0  0  0  0  0  0  0  0  0
  149.5494  139.3550  156.1702 C   0  0  0  0  0  0  0  0  0  0  0  0
  150.8374  139.4039  155.3153 C   0  0  0  0  0  0  0  0  0  0  0  0
  149.7087  140.3431  157.3542 C   0  0  0  0  0  0  0  0  0  0  0  0
  149.3782  137.9273  156.7725 C   0  0  0  0  0  0  0  0  0  0  0  0
  148.4619  137.9058  157.9146 N   0  0  0  0  0  0  0  0  0  0  0  0
  148.5702  137.1418  159.0115 C   0  0  0  0  0  0  0  0  0  0  0  0
  149.5654  136.4329  159.1777 O   0  0  0  0  0  0  0  0  0  0  0  0
  147.5063  137.2283  159.8408 N   0  5  0  0  0  0  0  0  0  0  0  0
  147.3699  136.3493  160.8469 C   0  0  0  0  0  0  0  0  0  0  0  0
  147.6513  136.6467  162.1204 N   0  0  0  0  0  0  0  0  0  0  0  0
  147.4315  135.5847  162.9995 C   0  0  0  0  0  0  0  0  0  0  0  0
  146.9657  134.4544  162.3816 C   0  0  0  0  0  0  0  0  0  0  0  0
  146.7859  134.6920  160.6666 S   0  0  0  0  0  0  0  0  0  0  0  0
  148.5207  140.8589  154.4734 C   0  0  0  0  0  0  0  0  0  0  0  0
  147.3773  140.8949  153.4420 C   0  0  0  0  0  0  0  0  0  0  0  0
  146.4291  142.6658  155.3996 H   0  0  0  0  0  0  0  0  0  0  0  0
  144.7306  142.3885  155.0095 H   0  0  0  0  0  0  0  0  0  0  0  0
  145.8050  143.0849  153.8021 H   0  0  0  0  0  0  0  0  0  0  0  0
  144.9689  140.0617  155.6654 H   0  0  0  0  0  0  0  0  0  0  0  0
  145.8381  138.9720  154.6137 H   0  0  0  0  0  0  0  0  0  0  0  0
  147.1449  140.8200  156.6994 H   0  0  0  0  0  0  0  0  0  0  0  0
  146.9101  139.0890  156.8023 H   0  0  0  0  0  0  0  0  0  0  0  0
  151.7167  139.2138  155.9313 H   0  0  0  0  0  0  0  0  0  0  0  0
  150.9800  140.3779  154.8472 H   0  0  0  0  0  0  0  0  0  0  0  0
  150.8405  138.6504  154.5276 H   0  0  0  0  0  0  0  0  0  0  0  0
  150.4516  139.9842  158.0672 H   0  0  0  0  0  0  0  0  0  0  0  0
  148.7750  140.4782  157.9020 H   0  0  0  0  0  0  0  0  0  0  0  0
  150.0535  141.3256  157.0311 H   0  0  0  0  0  0  0  0  0  0  0  0
  149.0907  137.1933  156.0199 H   0  0  0  0  0  0  0  0  0  0  0  0
  150.3425  137.5720  157.1370 H   0  0  0  0  0  0  0  0  0  0  0  0
  147.6331  138.4768  157.8366 H   0  0  0  0  0  0  0  0  0  0  0  0
  147.6325  135.7230  164.0515 H   0  0  0  0  0  0  0  0  0  0  0  0
  146.7165  133.5036  162.8278 H   0  0  0  0  0  0  0  0  0  0  0  0
  148.5486  141.7853  155.0478 H   0  0  0  0  0  0  0  0  0  0  0  0
  149.4603  140.8107  153.9289 H   0  0  0  0  0  0  0  0  0  0  0  0
  147.3975  139.9846  152.8403 H   0  0  0  0  0  0  0  0  0  0  0  0
  147.5129  141.7252  152.7483 H   0  0  0  0  0  0  0  0  0  0  0  0
  145.3674  140.8097  153.3953 H   0  0  0  0  0  0  0  0  0  0  0  0
  1  2  1  0  0  0  0
  1 21  1  0  0  0  0
  1 22  1  0  0  0  0
  1 23  1  0  0  0  0
  2 20  1  0  0  0  0
  2  3  1  0  0  0  0
  2 43  1  0  0  0  0
  3  4  1  0  0  0  0
  3 24  1  0  0  0  0
  3 25  1  0  0  0  0
  4  5  1  0  0  0  0
  4 26  1  0  0  0  0
  4 27  1  0  0  0  0
  5  6  1  0  0  0  0
  5 19  1  0  0  0  0
  6  7  1  0  0  0  0
  6  8  1  0  0  0  0
  6  9  1  0  0  0  0
  7 28  1  0  0  0  0
  7 29  1  0  0  0  0
  7 30  1  0  0  0  0
  8 31  1  0  0  0  0
  8 32  1  0  0  0  0
  8 33  1  0  0  0  0
  9 10  1  0  0  0  0
  9 34  1  0  0  0  0
  9 35  1  0  0  0  0
 10 11  1  0  0  0  0
 10 36  1  0  0  0  0
 11 12  2  0  0  0  0
 11 13  1  0  0  0  0
 13 14  1  0  0  0  0
 14 18  1  0  0  0  0
 14 15  2  0  0  0  0
 15 16  1  0  0  0  0
 16 17  2  0  0  0  0
 16 37  1  0  0  0  0
 17 18  1  0  0  0  0
 17 38  1  0  0  0  0
 19 20  1  0  0  0  0
 19 39  1  0  0  0  0
 19 40  1  0  0  0  0
 20 41  1  0  0  0  0
 20 42  1  0  0  0  0
M  CHG  1   2   1
M  CHG  1  13  -1
M  END
> <s_m_source_file>
AV-unprocessed.smi

> <i_m_source_file_index>
2024

> <i_lp_mmshare_version>
43012

> <i_f3d_flags>
0

> <s_epik_input>
W0NIM11OMVtDSDJdW0NIMl1OKFtDSDJdW0NIMl0xKUMoW0NIM10pKFtDSDNdKVtDSDJdW05IXUMoPU8pW05IXWMybltjSF1bY0hdczI=

> <s_epik_cmdline>
J2VwaWtfcHl0aG9uJywgJy1waCcsICc3LjAnLCAnLXRuJywgJzgnLCAnLW1hJywgJzIwMCcsICctbWV0YWxfYmluZGluZycsICctaW1hZScsICc8aW5maWxlLm1hZT4nLCAnLW9tYWUnLCAnPG91dGZpbGUubWFlPic=

> <r_lp_tautomer_probability>
0.999

> <r_epik_Ionization_Penalty>
7.04933

> <r_epik_Ionization_Penalty_Charging>
5.90256

> <r_epik_Ionization_Penalty_Neutral>
1.14676

> <r_epik_State_Penalty>
6.00717

> <r_epik_Charging_Adjusted_Penalty>
11.9097

> <i_epik_Tot_Q>
0

> <i_epik_Tot_abs_Q>
2

> <r_epik_Metal_State_Penalty>
1.97542

> <b_epik_Metal_Only>
1

> <s_lp_Force_Field>
OPLS_2005

> <r_lp_Energy>
14.8551

> <b_lp_Chiralities_Consistent>
1

> <s_lp_Variant>
AV-unprocessed.smi:2024-4

> <Gold.Version>
5.8.1

> <Gold.Id.Protein>
6NUR|6NUR_protein|mol2

> <Gold.PLP.Fitness>
46.1733

> <Gold.PLP.PLP>
-32.1037

> <Gold.PLP.part.hbond>
-4.1544

> <Gold.PLP.part.metal>
0.0000

> <Gold.PLP.part.buried>
-6.0895

> <Gold.PLP.part.nonpolar>
-23.5746

> <Gold.PLP.part.repulsive>
0.1314

> <Gold.PLP.ligand.clash>
0.0000

> <Gold.PLP.ligand.torsion>
1.3792

> <Gold.PLP.Chemscore.Hbond>
5.5907

> <Gold.PLP.Chemscore.CHOScore>
0.0000

> <Gold.PLP.Chemscore.Metal>
0.0000

> <Gold.Chemscore.Hbonds>
donor molecule, donor type, donor heavy atom, donor atom, acceptor molecule, acceptor atom, score
      L1  H     2    43       P1 10175  2.00
      P1  H  6896  6909       L1    12  0.86
      P1  H  6931  6943       L1    15  0.78
      P1  H  6934  6947       L1    13  1.43

> <Gold.PLP.Chemscore.Internal.Correction>
0.0558

> <Gold.Rescore>
     Score         DG    S(hbond)    S(metal)    S(lipo)     H(rot)  DE(clash)    DE(int)     intcor
     14.85     -17.26       2.60        0.00      60.72       1.57       0.04       2.38       ----

> <Gold.Chemscore.Fitness>
14.8493

> <Gold.Chemscore.DG>
-17.2622

> <Gold.Chemscore.ZeroCoef>
-5.4800

> <Gold.Chemscore.Hbond>
2.6022

> <Gold.Chemscore.Metal>
0.0000

> <Gold.Chemscore.Lipo>
60.7226

> <Gold.Chemscore.Internal_Hbond>
0.0000

> <Gold.Chemscore.DEClash>
0.0354

> <Gold.Chemscore.DEInternal>
2.3775

> <Gold.Chemscore.Rot>
1.5678

> <Gold.Chemscore.Internal.Correction>
   9.000000E+99

> <Gold.Chemscore.Hbonds>
donor molecule, donor type, donor heavy atom, donor atom, acceptor molecule, acceptor atom, score
      L1  H     2    43       P1 10175  0.78
      P1  H  6896  6909       L1    12  0.84
      P1  H  6931  6943       L1    15  0.30
      P1  H  6934  6947       L1    13  0.17

> <Gold.Chemscore.Hbond.Weighted>
-8.6913

> <Gold.Chemscore.Metal.Weighted>
-0.0000

> <Gold.Chemscore.Lipo.Weighted>
-7.1045

> <Gold.Chemscore.Internal_Hbond.Weighted>
0.0000

> <Gold.Chemscore.DEClash.Weighted>
0.0354

> <Gold.Chemscore.DEInternal.Weighted>
2.3775

> <Gold.Chemscore.Rot.Weighted>
4.0136

> <Gold.Chemscore.Internal.Correction.Weighted>
   9.000000E+99

> <Gold.Protein.RotatedTorsions>
[ 6907 6896 6895 6894 ] final   77.35 input  -60.11 | X-H torsion
[ 7974 7965 7964 7962 ] final -130.97 input  175.53 | X-H torsion
[ 8008 7997 7996 7995 ] final  -74.04 input   59.86 | X-H torsion
[ 10167 10162 10161 10158 ] final -170.47 input  -65.29 | X-H torsion
[ 10718 10713 10712 10709 ] final   10.09 input   66.30 | X-H torsion
[ 10763 10752 10751 10750 ] final  103.38 input  -60.55 | X-H torsion
[ 11005 11000 10999 10996 ] final   95.08 input  -57.11 | X-H torsion

> <Gold.Protein.ActiveResidues>
 VAL166  LYS551  ARG553  GLY616  TRP617  ASP618  TYR619  PRO620  LYS621  CYS622 
 ASP623  PHE694  ASN695  SER759  ASP760  ASP761  ALA762  ILE779  LEU786  VAL792 
 PHE793  MET794  SER795  GLU796  ALA797  LYS798  CYS799  TRP800  GLU811  SER814 

> <Gold.Protein.RotatedAtoms>
  152.5114  134.3830  159.9357 H   0  0  0  0  0  0  0  0  0  0  0  0  # atno 6907 bound_to 6896
  151.3788  133.3822  159.2715 H   0  0  0  0  0  0  0  0  0  0  0  0  # atno 6908 bound_to 6896
  150.9521  134.8939  159.7737 H   0  0  0  0  0  0  0  0  0  0  0  0  # atno 6909 bound_to 6896
  144.9424  140.7253  143.4838 H   0  0  0  0  0  0  0  0  0  0  0  0  # atno 7974 bound_to 7965
  154.5297  140.0768  156.8323 H   0  0  0  0  0  0  0  0  0  0  0  0  # atno 8008 bound_to 7997
  155.3400  140.3407  155.4221 H   0  0  0  0  0  0  0  0  0  0  0  0  # atno 8009 bound_to 7997
  156.1769  140.1638  156.8333 H   0  0  0  0  0  0  0  0  0  0  0  0  # atno 8010 bound_to 7997
  139.5860  144.1318  152.1575 H   0  0  0  0  0  0  0  0  0  0  0  0  # atno 10167 bound_to 10162
  156.9759  130.5987  149.5672 H   0  0  0  0  0  0  0  0  0  0  0  0  # atno 10718 bound_to 10713
  153.3519  135.3978  155.1652 H   0  0  0  0  0  0  0  0  0  0  0  0  # atno 10763 bound_to 10752
  154.8664  135.3658  154.5211 H   0  0  0  0  0  0  0  0  0  0  0  0  # atno 10764 bound_to 10752
  153.5663  135.7080  153.5584 H   0  0  0  0  0  0  0  0  0  0  0  0  # atno 10765 bound_to 10752
  139.8792  134.8880  156.3959 H   0  0  0  0  0  0  0  0  0  0  0  0  # atno 11005 bound_to 11000
  145.2971  139.1863  143.4709 LP  0  0  0  0  0  0  0  0  0  0  0  0  # atno 17320 bound_to 7965
  146.3290  140.2956  142.8618 LP  0  0  0  0  0  0  0  0  0  0  0  0  # atno 17321 bound_to 7965
  140.0881  144.5643  150.7074 LP  0  0  0  0  0  0  0  0  0  0  0  0  # atno 17342 bound_to 10162
  140.7131  143.2522  151.4518 LP  0  0  0  0  0  0  0  0  0  0  0  0  # atno 17343 bound_to 10162
  156.0264  130.5357  150.8417 LP  0  0  0  0  0  0  0  0  0  0  0  0  # atno 17370 bound_to 10713
  157.5560  131.0945  150.9627 LP  0  0  0  0  0  0  0  0  0  0  0  0  # atno 17371 bound_to 10713
  140.9301  133.7585  156.0013 LP  0  0  0  0  0  0  0  0  0  0  0  0  # atno 17394 bound_to 11000
  140.8341  134.3144  157.5338 LP  0  0  0  0  0  0  0  0  0  0  0  0  # atno 17395 bound_to 11000

$$$$
