AV-unprocessed.smi:705|AV-procd|sdf|3447|dock1
  -GOLD-   22720 0433D 1   1.00000     0.00000
 Structure written by MMmdl.
 29 30  0  0  0  0  0  0  0  0  2 V2000
  149.5049  134.0023  155.7076 N   0  0  0  0  0  0  0  0  0  0  0  0
  149.2338  133.1332  154.7296 C   0  0  0  0  0  0  0  0  0  0  0  0
  149.9107  132.1237  154.5450 O   0  0  0  0  0  0  0  0  0  0  0  0
  148.0972  133.4598  153.8435 C   0  0  0  0  0  0  0  0  0  0  0  0
  147.9431  133.0695  152.5437 C   0  0  0  0  0  0  0  0  0  0  0  0
  146.7039  133.6766  152.1755 C   0  0  0  0  0  0  0  0  0  0  0  0
  146.0008  133.5853  150.8450 C   0  0  1  0  0  0  0  0  0  0  0  0
  145.8891  132.1301  150.3501 C   0  0  0  0  0  0  0  0  0  0  0  0
  145.1647  132.0782  148.9963 C   0  0  0  0  0  0  0  0  0  0  0  0
  143.8004  132.7836  149.0763 C   0  0  0  0  0  0  0  0  0  0  0  0
  143.9568  134.1762  149.5505 N   0  3  0  0  0  0  0  0  0  0  0  0
  144.6167  134.2675  150.8717 C   0  0  0  0  0  0  0  0  0  0  0  0
  146.1643  134.3850  153.1666 N   0  0  0  0  0  0  0  0  0  0  0  0
  147.0332  134.2541  154.1882 N   0  0  0  0  0  0  0  0  0  0  0  0
  146.8866  134.6937  155.0861 H   0  0  0  0  0  0  0  0  0  0  0  0
  150.2749  133.8255  156.3363 H   0  0  0  0  0  0  0  0  0  0  0  0
  148.9428  134.8342  155.8122 H   0  0  0  0  0  0  0  0  0  0  0  0
  148.5981  132.4510  151.9476 H   0  0  0  0  0  0  0  0  0  0  0  0
  146.6072  134.1242  150.1152 H   0  0  0  0  0  0  0  0  0  0  0  0
  146.8802  131.6841  150.2593 H   0  0  0  0  0  0  0  0  0  0  0  0
  145.3415  131.5276  151.0764 H   0  0  0  0  0  0  0  0  0  0  0  0
  145.7809  132.5533  148.2315 H   0  0  0  0  0  0  0  0  0  0  0  0
  145.0310  131.0417  148.6851 H   0  0  0  0  0  0  0  0  0  0  0  0
  143.3213  132.7925  148.0970 H   0  0  0  0  0  0  0  0  0  0  0  0
  143.1344  132.2466  149.7531 H   0  0  0  0  0  0  0  0  0  0  0  0
  144.5138  134.6833  148.8779 H   0  0  0  0  0  0  0  0  0  0  0  0
  143.9712  133.8047  151.6195 H   0  0  0  0  0  0  0  0  0  0  0  0
  144.7159  135.3190  151.1432 H   0  0  0  0  0  0  0  0  0  0  0  0
  143.0451  134.6068  149.6098 H   0  0  0  0  0  0  0  0  0  0  0  0
  1  2  1  0  0  0  0
  1 16  1  0  0  0  0
  1 17  1  0  0  0  0
  2  3  2  0  0  0  0
  2  4  1  0  0  0  0
  4 14  1  0  0  0  0
  4  5  2  0  0  0  0
  5  6  1  0  0  0  0
  5 18  1  0  0  0  0
  6  7  1  0  0  0  0
  6 13  2  0  0  0  0
  7 12  1  0  0  0  0
  7  8  1  0  0  0  0
  7 19  1  0  0  0  0
  8  9  1  0  0  0  0
  8 20  1  0  0  0  0
  8 21  1  0  0  0  0
  9 10  1  0  0  0  0
  9 22  1  0  0  0  0
  9 23  1  0  0  0  0
 10 11  1  0  0  0  0
 10 24  1  0  0  0  0
 10 25  1  0  0  0  0
 11 12  1  0  0  0  0
 11 26  1  0  0  0  0
 11 29  1  0  0  0  0
 12 27  1  0  0  0  0
 12 28  1  0  0  0  0
 13 14  1  0  0  0  0
 14 15  1  0  0  0  0
M  CHG  1  11   1
M  END
> <s_m_source_file>
AV-unprocessed.smi

> <i_m_source_file_index>
705

> <i_lp_mmshare_version>
43012

> <i_f3d_flags>
0

> <s_epik_input>
W05IMl1DKD1PKWMxW2NIXWMoW25IXW4xKVtDQEBIXTJbQ0gyXVtDSDJdW0NIMl1bTkhdW0NIMl0y

> <s_epik_cmdline>
J2VwaWtfcHl0aG9uJywgJy1waCcsICc3LjAnLCAnLXRuJywgJzgnLCAnLW1hJywgJzIwMCcsICctbWV0YWxfYmluZGluZycsICctaW1hZScsICc8aW5maWxlLm1hZT4nLCAnLW9tYWUnLCAnPG91dGZpbGUubWFlPic=

> <r_lp_tautomer_probability>
0.5

> <r_epik_Ionization_Penalty>
0.000242638

> <r_epik_Ionization_Penalty_Charging>
0.000157527

> <r_epik_Ionization_Penalty_Neutral>
8.51112e-05

> <r_epik_State_Penalty>
0.41068

> <r_epik_Charging_Adjusted_Penalty>
0.410837

> <i_epik_Tot_Q>
1

> <i_epik_Tot_abs_Q>
1

> <r_epik_Metal_State_Penalty>
0.446108

> <b_epik_Metal_Only>
0

> <s_lp_Force_Field>
OPLS_2005

> <r_lp_Energy>
10.1374

> <b_lp_Chiralities_Consistent>
1

> <s_lp_Variant>
AV-unprocessed.smi:705-2

> <Gold.Version>
5.8.1

> <Gold.Id.Protein>
6NUR|6NUR_protein|mol2

> <Gold.PLP.Fitness>
33.9811

> <Gold.PLP.PLP>
-25.8967

> <Gold.PLP.part.hbond>
-2.0000

> <Gold.PLP.part.metal>
0.0000

> <Gold.PLP.part.buried>
-3.2041

> <Gold.PLP.part.nonpolar>
-22.2909

> <Gold.PLP.part.repulsive>
0.2256

> <Gold.PLP.ligand.clash>
0.0000

> <Gold.PLP.ligand.torsion>
0.4105

> <Gold.PLP.Chemscore.Hbond>
2.9575

> <Gold.PLP.Chemscore.CHOScore>
0.0000

> <Gold.PLP.Chemscore.Metal>
0.0000

> <Gold.Chemscore.Hbonds>
donor molecule, donor type, donor heavy atom, donor atom, acceptor molecule, acceptor atom, score
      L1  H    11    26       P1  7921  0.98
      L1  H    11    29       P1 10186  1.98

> <Gold.PLP.Chemscore.Internal.Correction>
0.0328

> <Gold.Rescore>
     Score         DG    S(hbond)    S(metal)    S(lipo)     H(rot)  DE(clash)    DE(int)     intcor
     16.92     -17.47       1.92        0.00      69.41       1.00       0.27       0.28       ----

> <Gold.Chemscore.Fitness>
16.9178

> <Gold.Chemscore.DG>
-17.4652

> <Gold.Chemscore.ZeroCoef>
-5.4800

> <Gold.Chemscore.Hbond>
1.9233

> <Gold.Chemscore.Metal>
0.0000

> <Gold.Chemscore.Lipo>
69.4124

> <Gold.Chemscore.Internal_Hbond>
0.0000

> <Gold.Chemscore.DEClash>
0.2698

> <Gold.Chemscore.DEInternal>
0.2776

> <Gold.Chemscore.Rot>
1.0000

> <Gold.Chemscore.Internal.Correction>
   9.000000E+99

> <Gold.Chemscore.Hbonds>
donor molecule, donor type, donor heavy atom, donor atom, acceptor molecule, acceptor atom, score
      L1  H    11    26       P1  7921  0.87
      L1  H    11    29       P1 10186  0.82

> <Gold.Chemscore.Hbond.Weighted>
-6.4239

> <Gold.Chemscore.Metal.Weighted>
-0.0000

> <Gold.Chemscore.Lipo.Weighted>
-8.1212

> <Gold.Chemscore.Internal_Hbond.Weighted>
0.0000

> <Gold.Chemscore.DEClash.Weighted>
0.2698

> <Gold.Chemscore.DEInternal.Weighted>
0.2776

> <Gold.Chemscore.Rot.Weighted>
2.5600

> <Gold.Chemscore.Internal.Correction.Weighted>
   9.000000E+99

> <Gold.Protein.RotatedTorsions>
[ 6907 6896 6895 6894 ] final  161.20 input  -60.11 | X-H torsion
[ 7974 7965 7964 7962 ] final -122.42 input  175.53 | X-H torsion
[ 8008 7997 7996 7995 ] final  -34.21 input   59.86 | X-H torsion
[ 10167 10162 10161 10158 ] final  -97.23 input  -65.29 | X-H torsion
[ 10718 10713 10712 10709 ] final -116.71 input   66.30 | X-H torsion
[ 10763 10752 10751 10750 ] final   79.23 input  -60.55 | X-H torsion
[ 11005 11000 10999 10996 ] final  153.50 input  -57.11 | X-H torsion

> <Gold.Protein.ActiveResidues>
 VAL166  LYS551  ARG553  GLY616  TRP617  ASP618  TYR619  PRO620  LYS621  CYS622 
 ASP623  PHE694  ASN695  SER759  ASP760  ASP761  ALA762  ILE779  LEU786  VAL792 
 PHE793  MET794  SER795  GLU796  ALA797  LYS798  CYS799  TRP800  GLU811  SER814 

> <Gold.Protein.RotatedAtoms>
  151.9591  133.3689  159.4028 H   0  0  0  0  0  0  0  0  0  0  0  0  # atno 6907 bound_to 6896
  150.6967  134.4259  159.5235 H   0  0  0  0  0  0  0  0  0  0  0  0  # atno 6908 bound_to 6896
  152.1945  134.8642  160.0565 H   0  0  0  0  0  0  0  0  0  0  0  0  # atno 6909 bound_to 6896
  145.0297  140.8057  143.4331 H   0  0  0  0  0  0  0  0  0  0  0  0  # atno 7974 bound_to 7965
  154.4127  140.1690  156.2013 H   0  0  0  0  0  0  0  0  0  0  0  0  # atno 8008 bound_to 7997
  155.9521  140.3400  155.6393 H   0  0  0  0  0  0  0  0  0  0  0  0  # atno 8009 bound_to 7997
  155.6856  140.0728  157.2458 H   0  0  0  0  0  0  0  0  0  0  0  0  # atno 8010 bound_to 7997
  140.2855  143.3254  152.0398 H   0  0  0  0  0  0  0  0  0  0  0  0  # atno 10167 bound_to 10162
  156.0982  130.6150  150.9070 H   0  0  0  0  0  0  0  0  0  0  0  0  # atno 10718 bound_to 10713
  153.0936  135.4847  154.8736 H   0  0  0  0  0  0  0  0  0  0  0  0  # atno 10763 bound_to 10752
  154.7298  135.3057  154.8912 H   0  0  0  0  0  0  0  0  0  0  0  0  # atno 10764 bound_to 10752
  153.9551  135.6819  153.4798 H   0  0  0  0  0  0  0  0  0  0  0  0  # atno 10765 bound_to 10752
  140.1403  134.8743  157.2322 H   0  0  0  0  0  0  0  0  0  0  0  0  # atno 11005 bound_to 11000
  145.1787  139.2364  143.5304 LP  0  0  0  0  0  0  0  0  0  0  0  0  # atno 17320 bound_to 7965
  146.3497  140.1555  142.8591 LP  0  0  0  0  0  0  0  0  0  0  0  0  # atno 17321 bound_to 7965
  139.4951  144.6562  151.6568 LP  0  0  0  0  0  0  0  0  0  0  0  0  # atno 17342 bound_to 10162
  140.5776  144.0002  150.6250 LP  0  0  0  0  0  0  0  0  0  0  0  0  # atno 17343 bound_to 10162
  157.6148  131.0934  150.8731 LP  0  0  0  0  0  0  0  0  0  0  0  0  # atno 17370 bound_to 10713
  156.8864  130.5197  149.5288 LP  0  0  0  0  0  0  0  0  0  0  0  0  # atno 17371 bound_to 10713
  140.2730  134.3438  155.7367 LP  0  0  0  0  0  0  0  0  0  0  0  0  # atno 17394 bound_to 11000
  141.2185  133.7434  156.9251 LP  0  0  0  0  0  0  0  0  0  0  0  0  # atno 17395 bound_to 11000

$$$$
