AV-unprocessed.smi:1888|AV-procd|sdf|7658|dock5
  -GOLD-   22720 9393D 1   1.00000     0.00000
 Structure written by MMmdl.
 43 45  0  0  0  0  0  0  0  0  2 V2000
  147.1254  141.4138  155.4774 C   0  0  0  0  0  0  0  0  0  0  0  0
  147.3056  139.9422  155.8568 C   0  0  0  0  0  0  0  0  0  0  0  0
  147.3629  139.8357  157.2690 O   0  0  0  0  0  0  0  0  0  0  0  0
  147.4328  138.4913  157.7124 C   0  0  0  0  0  0  0  0  0  0  0  0
  148.6629  137.8265  157.0814 C   0  0  0  0  0  0  0  0  0  0  0  0
  149.7595  137.6973  158.0352 N   0  0  0  0  0  0  0  0  0  0  0  0
  149.7235  137.1281  159.2670 C   0  0  0  0  0  0  0  0  0  0  0  0
  148.5356  136.5697  159.7848 N   0  0  0  0  0  0  0  0  0  0  0  0
  147.9163  137.1460  160.8380 N   0  0  0  0  0  0  0  0  0  0  0  0
  146.8573  136.3875  161.0665 C   0  0  0  0  0  0  0  0  0  0  0  0
  145.9194  136.7480  162.1802 C   0  0  0  0  0  0  0  0  0  0  0  0
  146.7771  135.2889  160.1656 C   0  0  0  0  0  0  0  0  0  0  0  0
  147.8707  135.4346  159.3592 C   0  0  0  0  0  0  0  0  0  0  0  0
  148.3446  134.6023  158.2132 C   0  0  0  0  0  0  0  0  0  0  0  0
  150.8871  137.1232  159.9205 N   0  0  0  0  0  0  0  0  0  0  0  0
  151.7381  137.7603  159.0279 C   0  0  0  0  0  0  0  0  0  0  0  0
  151.0838  138.1172  157.8895 C   0  0  0  0  0  0  0  0  0  0  0  0
  151.7238  138.8134  156.7530 C   0  0  0  0  0  0  0  0  0  0  0  0
  151.0792  139.1153  155.7508 O   0  0  0  0  0  0  0  0  0  0  0  0
  153.0543  139.0537  156.9787 N   0  5  0  0  0  0  0  0  0  0  0  0
  153.7590  138.7092  158.1126 C   0  0  0  0  0  0  0  0  0  0  0  0
  154.9580  138.9637  158.2350 O   0  0  0  0  0  0  0  0  0  0  0  0
  153.1222  138.0649  159.1412 N   0  0  0  0  0  0  0  0  0  0  0  0
  153.8473  137.6844  160.3569 C   0  0  0  0  0  0  0  0  0  0  0  0
  147.0820  141.5343  154.3948 H   0  0  0  0  0  0  0  0  0  0  0  0
  147.9535  142.0179  155.8488 H   0  0  0  0  0  0  0  0  0  0  0  0
  146.2023  141.8149  155.8965 H   0  0  0  0  0  0  0  0  0  0  0  0
  146.4735  139.3533  155.4676 H   0  0  0  0  0  0  0  0  0  0  0  0
  148.2230  139.5531  155.4130 H   0  0  0  0  0  0  0  0  0  0  0  0
  147.4991  138.4591  158.8007 H   0  0  0  0  0  0  0  0  0  0  0  0
  146.5261  137.9579  157.4244 H   0  0  0  0  0  0  0  0  0  0  0  0
  148.3987  136.8402  156.6998 H   0  0  0  0  0  0  0  0  0  0  0  0
  149.0068  138.3912  156.2155 H   0  0  0  0  0  0  0  0  0  0  0  0
  145.0546  136.0847  162.1973 H   0  0  0  0  0  0  0  0  0  0  0  0
  145.5519  137.7686  162.0698 H   0  0  0  0  0  0  0  0  0  0  0  0
  146.4143  136.6738  163.1487 H   0  0  0  0  0  0  0  0  0  0  0  0
  146.0284  134.5121  160.1181 H   0  0  0  0  0  0  0  0  0  0  0  0
  147.6118  133.8370  157.9575 H   0  0  0  0  0  0  0  0  0  0  0  0
  149.2816  134.1027  158.4596 H   0  0  0  0  0  0  0  0  0  0  0  0
  148.5108  135.2172  157.3283 H   0  0  0  0  0  0  0  0  0  0  0  0
  154.2616  138.5669  160.8453 H   0  0  0  0  0  0  0  0  0  0  0  0
  154.6693  137.0095  160.1156 H   0  0  0  0  0  0  0  0  0  0  0  0
  153.2136  137.1784  161.0846 H   0  0  0  0  0  0  0  0  0  0  0  0
  1  2  1  0  0  0  0
  1 25  1  0  0  0  0
  1 26  1  0  0  0  0
  1 27  1  0  0  0  0
  2  3  1  0  0  0  0
  2 28  1  0  0  0  0
  2 29  1  0  0  0  0
  3  4  1  0  0  0  0
  4  5  1  0  0  0  0
  4 30  1  0  0  0  0
  4 31  1  0  0  0  0
  5  6  1  0  0  0  0
  5 32  1  0  0  0  0
  5 33  1  0  0  0  0
  6 17  1  0  0  0  0
  6  7  1  0  0  0  0
  7  8  1  0  0  0  0
  7 15  2  0  0  0  0
  8 13  1  0  0  0  0
  8  9  1  0  0  0  0
  9 10  2  0  0  0  0
 10 11  1  0  0  0  0
 10 12  1  0  0  0  0
 11 34  1  0  0  0  0
 11 35  1  0  0  0  0
 11 36  1  0  0  0  0
 12 13  2  0  0  0  0
 12 37  1  0  0  0  0
 13 14  1  0  0  0  0
 14 38  1  0  0  0  0
 14 39  1  0  0  0  0
 14 40  1  0  0  0  0
 15 16  1  0  0  0  0
 16 23  1  0  0  0  0
 16 17  2  0  0  0  0
 17 18  1  0  0  0  0
 18 19  2  0  0  0  0
 18 20  1  0  0  0  0
 20 21  1  0  0  0  0
 21 22  2  0  0  0  0
 21 23  1  0  0  0  0
 23 24  1  0  0  0  0
 24 41  1  0  0  0  0
 24 42  1  0  0  0  0
 24 43  1  0  0  0  0
M  CHG  1  20  -1
M  END
> <s_m_source_file>
AV-unprocessed.smi

> <i_m_source_file_index>
1888

> <i_lp_mmshare_version>
43012

> <i_f3d_flags>
0

> <s_epik_input>
W0NIM11uMWMoPU8pW25IXWMoPU8pYyhjMTIpbihbQ0gyXVtDSDJdT1tDSDJdW0NIM10pYyhuMiktbjNuYyhbQ0gzXSlbY0hdYzNbQ0gzXQ==

> <s_epik_cmdline>
J2VwaWtfcHl0aG9uJywgJy1waCcsICc3LjAnLCAnLXRuJywgJzgnLCAnLW1hJywgJzIwMCcsICctbWV0YWxfYmluZGluZycsICctaW1hZScsICc8aW5maWxlLm1hZT4nLCAnLW9tYWUnLCAnPG91dGZpbGUubWFlPic=

> <r_lp_tautomer_probability>
1

> <r_epik_Ionization_Penalty>
3.99912

> <r_epik_Ionization_Penalty_Charging>
0.0169474

> <r_epik_Ionization_Penalty_Neutral>
3.98217

> <r_epik_State_Penalty>
3.98062

> <r_epik_Charging_Adjusted_Penalty>
3.99756

> <i_epik_Tot_Q>
-1

> <i_epik_Tot_abs_Q>
1

> <r_epik_Metal_State_Penalty>
0.61592

> <b_epik_Metal_Only>
1

> <s_lp_Force_Field>
OPLS_2005

> <r_lp_Energy>
30.4579

> <b_lp_Chiralities_Consistent>
1

> <s_lp_Variant>
AV-unprocessed.smi:1888-2

> <Gold.Version>
5.8.1

> <Gold.Id.Protein>
6NUR|6NUR_protein|mol2

> <Gold.PLP.Fitness>
37.5092

> <Gold.PLP.PLP>
-25.0154

> <Gold.PLP.part.hbond>
-5.6591

> <Gold.PLP.part.metal>
0.0000

> <Gold.PLP.part.buried>
-1.9679

> <Gold.PLP.part.nonpolar>
-17.2717

> <Gold.PLP.part.repulsive>
0.0000

> <Gold.PLP.ligand.clash>
0.0000

> <Gold.PLP.ligand.torsion>
1.6682

> <Gold.PLP.Chemscore.Hbond>
5.0955

> <Gold.PLP.Chemscore.CHOScore>
0.0000

> <Gold.PLP.Chemscore.Metal>
0.0000

> <Gold.Chemscore.Hbonds>
donor molecule, donor type, donor heavy atom, donor atom, acceptor molecule, acceptor atom, score
      P1  H  6896  6909       L1    15  1.00
      P1  H  6931  6943       L1     9  0.90
      P1  H  6934  6947       L1     9  0.80
      P1  H  7997  8009       L1    22  0.22
      P1  H  7997  8010       L1    20  1.00

> <Gold.PLP.Chemscore.Internal.Correction>
0.5439

> <Gold.Rescore>
     Score         DG    S(hbond)    S(metal)    S(lipo)     H(rot)  DE(clash)    DE(int)     intcor
     11.97     -13.69       2.36        0.00      39.25       1.67       0.07       1.66       ----

> <Gold.Chemscore.Fitness>
11.9656

> <Gold.Chemscore.DG>
-13.6922

> <Gold.Chemscore.ZeroCoef>
-5.4800

> <Gold.Chemscore.Hbond>
2.3621

> <Gold.Chemscore.Metal>
0.0000

> <Gold.Chemscore.Lipo>
39.2465

> <Gold.Chemscore.Internal_Hbond>
0.0000

> <Gold.Chemscore.DEClash>
0.0688

> <Gold.Chemscore.DEInternal>
1.6578

> <Gold.Chemscore.Rot>
1.6675

> <Gold.Chemscore.Internal.Correction>
   9.000000E+99

> <Gold.Chemscore.Hbonds>
donor molecule, donor type, donor heavy atom, donor atom, acceptor molecule, acceptor atom, score
      P1  H  6896  6909       L1    15  0.25
      P1  H  6931  6943       L1     9  0.78
      P1  H  6934  6947       L1     9  0.34
      P1  H  7997  8009       L1    22  0.22
      P1  H  7997  8010       L1    20  0.02

> <Gold.Chemscore.Hbond.Weighted>
-7.8893

> <Gold.Chemscore.Metal.Weighted>
-0.0000

> <Gold.Chemscore.Lipo.Weighted>
-4.5918

> <Gold.Chemscore.Internal_Hbond.Weighted>
0.0000

> <Gold.Chemscore.DEClash.Weighted>
0.0688

> <Gold.Chemscore.DEInternal.Weighted>
1.6578

> <Gold.Chemscore.Rot.Weighted>
4.2689

> <Gold.Chemscore.Internal.Correction.Weighted>
   9.000000E+99

> <Gold.Protein.RotatedTorsions>
[ 6907 6896 6895 6894 ] final  111.90 input  -60.11 | X-H torsion
[ 7974 7965 7964 7962 ] final    8.88 input  175.53 | X-H torsion
[ 8008 7997 7996 7995 ] final   68.88 input   59.86 | X-H torsion
[ 10167 10162 10161 10158 ] final -140.70 input  -65.29 | X-H torsion
[ 10718 10713 10712 10709 ] final -102.47 input   66.30 | X-H torsion
[ 10763 10752 10751 10750 ] final  107.00 input  -60.55 | X-H torsion
[ 11005 11000 10999 10996 ] final   35.28 input  -57.11 | X-H torsion

> <Gold.Protein.ActiveResidues>
 VAL166  LYS551  ARG553  GLY616  TRP617  ASP618  TYR619  PRO620  LYS621  CYS622 
 ASP623  PHE694  ASN695  SER759  ASP760  ASP761  ALA762  ILE779  LEU786  VAL792 
 PHE793  MET794  SER795  GLU796  ALA797  LYS798  CYS799  TRP800  GLU811  SER814 

> <Gold.Protein.RotatedAtoms>
  152.4945  133.8592  159.7241 H   0  0  0  0  0  0  0  0  0  0  0  0  # atno 6907 bound_to 6896
  150.9108  133.6991  159.2862 H   0  0  0  0  0  0  0  0  0  0  0  0  # atno 6908 bound_to 6896
  151.4401  135.1023  159.9720 H   0  0  0  0  0  0  0  0  0  0  0  0  # atno 6909 bound_to 6896
  146.2411  139.9868  142.8430 H   0  0  0  0  0  0  0  0  0  0  0  0  # atno 7974 bound_to 7965
  155.7151  140.3494  155.4991 H   0  0  0  0  0  0  0  0  0  0  0  0  # atno 8008 bound_to 7997
  155.9321  140.1086  157.1146 H   0  0  0  0  0  0  0  0  0  0  0  0  # atno 8009 bound_to 7997
  154.4087  140.1229  156.4802 H   0  0  0  0  0  0  0  0  0  0  0  0  # atno 8010 bound_to 7997
  139.8256  143.7515  152.2666 H   0  0  0  0  0  0  0  0  0  0  0  0  # atno 10167 bound_to 10162
  156.0230  130.5422  150.7114 H   0  0  0  0  0  0  0  0  0  0  0  0  # atno 10718 bound_to 10713
  153.4007  135.3858  155.1986 H   0  0  0  0  0  0  0  0  0  0  0  0  # atno 10763 bound_to 10752
  154.8729  135.3770  154.4622 H   0  0  0  0  0  0  0  0  0  0  0  0  # atno 10764 bound_to 10752
  153.5119  135.7087  153.5838 H   0  0  0  0  0  0  0  0  0  0  0  0  # atno 10765 bound_to 10752
  140.2443  134.3378  155.7914 H   0  0  0  0  0  0  0  0  0  0  0  0  # atno 11005 bound_to 11000
  145.1541  140.9638  143.4416 LP  0  0  0  0  0  0  0  0  0  0  0  0  # atno 17320 bound_to 7965
  145.0178  139.3452  143.6088 LP  0  0  0  0  0  0  0  0  0  0  0  0  # atno 17321 bound_to 7965
  139.7707  144.7477  151.0229 LP  0  0  0  0  0  0  0  0  0  0  0  0  # atno 17342 bound_to 10162
  140.7810  143.4649  151.0227 LP  0  0  0  0  0  0  0  0  0  0  0  0  # atno 17343 bound_to 10162
  157.4751  131.0897  151.0599 LP  0  0  0  0  0  0  0  0  0  0  0  0  # atno 17370 bound_to 10713
  157.1048  130.5997  149.5468 LP  0  0  0  0  0  0  0  0  0  0  0  0  # atno 17371 bound_to 10713
  141.2207  133.7316  156.8935 LP  0  0  0  0  0  0  0  0  0  0  0  0  # atno 17394 bound_to 11000
  140.1622  134.9158  157.2729 LP  0  0  0  0  0  0  0  0  0  0  0  0  # atno 17395 bound_to 11000

$$$$
