AV-unprocessed.smi:1302|AV-procd|sdf|5427|dock5
  -GOLD-   22720 4583D 1   1.00000     0.00000
 Structure written by MMmdl.
 43 44  0  0  0  0  0  0  0  0  1 V2000
  154.2891  140.1955  161.9185 C   0  0  0  0  0  0  0  0  0  0  0  0
  153.8110  141.6025  161.5358 C   0  0  0  0  0  0  0  0  0  0  0  0
  153.2427  142.3580  162.7475 C   0  0  0  0  0  0  0  0  0  0  0  0
  152.8076  141.5030  160.4797 N   0  0  0  0  0  0  0  0  0  0  0  0
  152.9345  140.7888  159.3489 C   0  0  0  0  0  0  0  0  0  0  0  0
  153.9444  140.1471  159.0585 O   0  0  0  0  0  0  0  0  0  0  0  0
  151.7758  140.8697  158.3975 C   0  0  0  0  0  0  0  0  0  0  0  0
  151.7607  140.1008  157.2149 C   0  0  0  0  0  0  0  0  0  0  0  0
  150.6486  140.1846  156.3554 C   0  0  0  0  0  0  0  0  0  0  0  0
  149.5702  141.0321  156.7016 C   0  0  0  0  0  0  0  0  0  0  0  0
  148.4482  141.1336  155.8515 N   0  0  0  0  0  0  0  0  0  0  0  0
  148.7450  141.4084  154.4484 C   0  0  0  0  0  0  0  0  0  0  0  0
  147.5043  141.1756  153.5638 C   0  0  1  0  0  0  0  0  0  0  0  0
  147.1951  139.6870  153.3232 C   0  0  0  0  0  0  0  0  0  0  0  0
  146.3798  141.8829  154.0913 O   0  0  0  0  0  0  0  0  0  0  0  0
  146.0585  141.5703  155.4461 C   0  0  2  0  0  0  0  0  0  0  0  0
  144.8434  142.4107  155.8518 C   0  0  0  0  0  0  0  0  0  0  0  0
  147.2767  141.8534  156.3426 C   0  0  0  0  0  0  0  0  0  0  0  0
  149.5777  141.7565  157.8477 N   0  0  0  0  0  0  0  0  0  0  0  0
  150.6459  141.6732  158.6683 C   0  0  0  0  0  0  0  0  0  0  0  0
  155.0611  140.2403  162.6873 H   0  0  0  0  0  0  0  0  0  0  0  0
  154.7125  139.6766  161.0578 H   0  0  0  0  0  0  0  0  0  0  0  0
  153.4699  139.5882  162.3052 H   0  0  0  0  0  0  0  0  0  0  0  0
  154.6733  142.1534  161.1555 H   0  0  0  0  0  0  0  0  0  0  0  0
  153.9859  142.4398  163.5410 H   0  0  0  0  0  0  0  0  0  0  0  0
  152.3707  141.8492  163.1599 H   0  0  0  0  0  0  0  0  0  0  0  0
  152.9407  143.3705  162.4775 H   0  0  0  0  0  0  0  0  0  0  0  0
  151.9511  142.0193  160.6187 H   0  0  0  0  0  0  0  0  0  0  0  0
  152.5878  139.4533  156.9616 H   0  0  0  0  0  0  0  0  0  0  0  0
  150.6293  139.5905  155.4539 H   0  0  0  0  0  0  0  0  0  0  0  0
  149.0610  142.4493  154.3668 H   0  0  0  0  0  0  0  0  0  0  0  0
  149.5715  140.8032  154.0782 H   0  0  0  0  0  0  0  0  0  0  0  0
  147.7074  141.6158  152.5871 H   0  0  0  0  0  0  0  0  0  0  0  0
  148.0180  139.2024  152.7973 H   0  0  0  0  0  0  0  0  0  0  0  0
  146.2998  139.5694  152.7126 H   0  0  0  0  0  0  0  0  0  0  0  0
  147.0415  139.1403  154.2532 H   0  0  0  0  0  0  0  0  0  0  0  0
  145.7824  140.5186  155.5257 H   0  0  0  0  0  0  0  0  0  0  0  0
  144.5476  142.2022  156.8802 H   0  0  0  0  0  0  0  0  0  0  0  0
  143.9887  142.1946  155.2103 H   0  0  0  0  0  0  0  0  0  0  0  0
  145.0570  143.4772  155.7742 H   0  0  0  0  0  0  0  0  0  0  0  0
  147.0492  141.5510  157.3658 H   0  0  0  0  0  0  0  0  0  0  0  0
  147.4936  142.9226  156.3584 H   0  0  0  0  0  0  0  0  0  0  0  0
  150.5857  142.2686  159.5677 H   0  0  0  0  0  0  0  0  0  0  0  0
  1  2  1  0  0  0  0
  1 21  1  0  0  0  0
  1 22  1  0  0  0  0
  1 23  1  0  0  0  0
  2  3  1  0  0  0  0
  2  4  1  0  0  0  0
  2 24  1  0  0  0  0
  3 25  1  0  0  0  0
  3 26  1  0  0  0  0
  3 27  1  0  0  0  0
  4  5  1  0  0  0  0
  4 28  1  0  0  0  0
  5  6  2  0  0  0  0
  5  7  1  0  0  0  0
  7 20  1  0  0  0  0
  7  8  2  0  0  0  0
  8  9  1  0  0  0  0
  8 29  1  0  0  0  0
  9 10  2  0  0  0  0
  9 30  1  0  0  0  0
 10 11  1  0  0  0  0
 10 19  1  0  0  0  0
 11 18  1  0  0  0  0
 11 12  1  0  0  0  0
 12 13  1  0  0  0  0
 12 31  1  0  0  0  0
 12 32  1  0  0  0  0
 13 14  1  0  0  0  0
 13 15  1  0  0  0  0
 13 33  1  0  0  0  0
 14 34  1  0  0  0  0
 14 35  1  0  0  0  0
 14 36  1  0  0  0  0
 15 16  1  0  0  0  0
 16 17  1  0  0  0  0
 16 18  1  0  0  0  0
 16 37  1  0  0  0  0
 17 38  1  0  0  0  0
 17 39  1  0  0  0  0
 17 40  1  0  0  0  0
 18 41  1  0  0  0  0
 18 42  1  0  0  0  0
 19 20  2  0  0  0  0
 20 43  1  0  0  0  0
M  END
> <s_m_source_file>
AV-unprocessed.smi

> <i_m_source_file_index>
1302

> <i_lp_mmshare_version>
43012

> <i_f3d_flags>
0

> <s_epik_input>
W0NIM11bQ0hdKFtDSDNdKVtOSF1DKD1PKWMxW2NIXVtjSF1jKG5bY0hdMSlOMltDSDJdW0NAQEhdKFtDSDNdKU9bQ0BASF0oW0NIM10pW0NIMl0y

> <s_epik_cmdline>
J2VwaWtfcHl0aG9uJywgJy1waCcsICc3LjAnLCAnLXRuJywgJzgnLCAnLW1hJywgJzIwMCcsICctbWV0YWxfYmluZGluZycsICctaW1hZScsICc8aW5maWxlLm1hZT4nLCAnLW9tYWUnLCAnPG91dGZpbGUubWFlPic=

> <r_lp_tautomer_probability>
1

> <r_epik_Ionization_Penalty>
2.23089e-05

> <r_epik_Ionization_Penalty_Charging>
0

> <r_epik_Ionization_Penalty_Neutral>
2.23089e-05

> <r_epik_State_Penalty>
-0

> <r_epik_Charging_Adjusted_Penalty>
0

> <i_epik_Tot_Q>
0

> <i_epik_Tot_abs_Q>
0

> <r_epik_Metal_State_Penalty>
-0

> <b_epik_Metal_Only>
0

> <s_lp_Force_Field>
OPLS_2005

> <r_lp_Energy>
20.4022

> <b_lp_Chiralities_Consistent>
1

> <s_lp_Variant>
AV-unprocessed.smi:1302-3

> <Gold.Version>
5.8.1

> <Gold.Id.Protein>
6NUR|6NUR_protein|mol2

> <Gold.PLP.Fitness>
36.9008

> <Gold.PLP.PLP>
-34.2343

> <Gold.PLP.part.hbond>
-1.0000

> <Gold.PLP.part.metal>
0.0000

> <Gold.PLP.part.buried>
-3.7190

> <Gold.PLP.part.nonpolar>
-29.0546

> <Gold.PLP.part.repulsive>
0.4632

> <Gold.PLP.ligand.clash>
0.0000

> <Gold.PLP.ligand.torsion>
0.2502

> <Gold.PLP.Chemscore.Hbond>
0.9440

> <Gold.PLP.Chemscore.CHOScore>
0.0000

> <Gold.PLP.Chemscore.Metal>
0.0000

> <Gold.Chemscore.Hbonds>
donor molecule, donor type, donor heavy atom, donor atom, acceptor molecule, acceptor atom, score
      P1  H  7997  8010       L1     6  0.95

> <Gold.PLP.Chemscore.Internal.Correction>
0.3350

> <Gold.Rescore>
     Score         DG    S(hbond)    S(metal)    S(lipo)     H(rot)  DE(clash)    DE(int)     intcor
     15.34     -15.71       0.95        0.00      85.38       1.15       0.07       0.29       ----

> <Gold.Chemscore.Fitness>
15.3419

> <Gold.Chemscore.DG>
-15.7065

> <Gold.Chemscore.ZeroCoef>
-5.4800

> <Gold.Chemscore.Hbond>
0.9530

> <Gold.Chemscore.Metal>
0.0000

> <Gold.Chemscore.Lipo>
85.3818

> <Gold.Chemscore.Internal_Hbond>
0.0000

> <Gold.Chemscore.DEClash>
0.0741

> <Gold.Chemscore.DEInternal>
0.2905

> <Gold.Chemscore.Rot>
1.1508

> <Gold.Chemscore.Internal.Correction>
   9.000000E+99

> <Gold.Chemscore.Hbonds>
donor molecule, donor type, donor heavy atom, donor atom, acceptor molecule, acceptor atom, score
      P1  H  7997  8010       L1     6  0.85

> <Gold.Chemscore.Hbond.Weighted>
-3.1830

> <Gold.Chemscore.Metal.Weighted>
-0.0000

> <Gold.Chemscore.Lipo.Weighted>
-9.9897

> <Gold.Chemscore.Internal_Hbond.Weighted>
0.0000

> <Gold.Chemscore.DEClash.Weighted>
0.0741

> <Gold.Chemscore.DEInternal.Weighted>
0.2905

> <Gold.Chemscore.Rot.Weighted>
2.9461

> <Gold.Chemscore.Internal.Correction.Weighted>
   9.000000E+99

> <Gold.Protein.RotatedTorsions>
[ 6907 6896 6895 6894 ] final   91.12 input  -60.11 | X-H torsion
[ 7974 7965 7964 7962 ] final -122.84 input  175.53 | X-H torsion
[ 8008 7997 7996 7995 ] final   11.87 input   59.86 | X-H torsion
[ 10167 10162 10161 10158 ] final   52.37 input  -65.29 | X-H torsion
[ 10718 10713 10712 10709 ] final    5.48 input   66.30 | X-H torsion
[ 10763 10752 10751 10750 ] final  162.88 input  -60.55 | X-H torsion
[ 11005 11000 10999 10996 ] final   29.76 input  -57.11 | X-H torsion

> <Gold.Protein.ActiveResidues>
 VAL166  LYS551  ARG553  GLY616  TRP617  ASP618  TYR619  PRO620  LYS621  CYS622 
 ASP623  PHE694  ASN695  SER759  ASP760  ASP761  ALA762  ILE779  LEU786  VAL792 
 PHE793  MET794  SER795  GLU796  ALA797  LYS798  CYS799  TRP800  GLU811  SER814 

> <Gold.Protein.RotatedAtoms>
  152.5448  134.1706  159.8594 H   0  0  0  0  0  0  0  0  0  0  0  0  # atno 6907 bound_to 6896
  151.1717  133.4773  159.2601 H   0  0  0  0  0  0  0  0  0  0  0  0  # atno 6908 bound_to 6896
  151.1268  135.0120  159.8619 H   0  0  0  0  0  0  0  0  0  0  0  0  # atno 6909 bound_to 6896
  145.0251  140.8021  143.4357 H   0  0  0  0  0  0  0  0  0  0  0  0  # atno 7974 bound_to 7965
  154.8128  140.2871  155.5841 H   0  0  0  0  0  0  0  0  0  0  0  0  # atno 8008 bound_to 7997
  156.2990  140.2565  156.2949 H   0  0  0  0  0  0  0  0  0  0  0  0  # atno 8009 bound_to 7997
  154.9428  140.0381  157.2095 H   0  0  0  0  0  0  0  0  0  0  0  0  # atno 8010 bound_to 7997
  140.2521  144.3468  150.6345 H   0  0  0  0  0  0  0  0  0  0  0  0  # atno 10167 bound_to 10162
  156.9080  130.5746  149.5647 H   0  0  0  0  0  0  0  0  0  0  0  0  # atno 10718 bound_to 10713
  154.2851  135.2762  155.2680 H   0  0  0  0  0  0  0  0  0  0  0  0  # atno 10763 bound_to 10752
  154.5183  135.5763  153.6664 H   0  0  0  0  0  0  0  0  0  0  0  0  # atno 10764 bound_to 10752
  152.9923  135.6198  154.3012 H   0  0  0  0  0  0  0  0  0  0  0  0  # atno 10765 bound_to 10752
  140.3015  134.2751  155.7753 H   0  0  0  0  0  0  0  0  0  0  0  0  # atno 11005 bound_to 11000
  145.1844  139.2334  143.5275 LP  0  0  0  0  0  0  0  0  0  0  0  0  # atno 17320 bound_to 7965
  146.3491  140.1626  142.8590 LP  0  0  0  0  0  0  0  0  0  0  0  0  # atno 17321 bound_to 7965
  140.6032  143.2167  151.7031 LP  0  0  0  0  0  0  0  0  0  0  0  0  # atno 17342 bound_to 10162
  139.5043  144.3759  152.0424 LP  0  0  0  0  0  0  0  0  0  0  0  0  # atno 17343 bound_to 10162
  156.0549  130.5612  150.9071 LP  0  0  0  0  0  0  0  0  0  0  0  0  # atno 17370 bound_to 10713
  157.5985  131.0942  150.9000 LP  0  0  0  0  0  0  0  0  0  0  0  0  # atno 17371 bound_to 10713
  141.2127  133.7649  156.9774 LP  0  0  0  0  0  0  0  0  0  0  0  0  # atno 17394 bound_to 11000
  140.1105  134.9480  157.2057 LP  0  0  0  0  0  0  0  0  0  0  0  0  # atno 17395 bound_to 11000

$$$$
