AV-unprocessed.smi:747|AV-procd|sdf|3580|dock3
  -GOLD-   22720 0573D 1   1.00000     0.00000
 Structure written by MMmdl.
 48 49  0  0  0  0  0  0  0  0  1 V2000
  147.8450  133.3915  156.5556 C   0  0  0  0  0  0  0  0  0  0  0  0
  148.8743  134.3329  156.1670 N   0  0  0  0  0  0  0  0  0  0  0  0
  149.2724  134.4028  154.8096 C   0  0  0  0  0  0  0  0  0  0  0  0
  148.7811  133.6898  153.9341 O   0  0  0  0  0  0  0  0  0  0  0  0
  150.3114  135.3888  154.5368 C   0  0  0  0  0  0  0  0  0  0  0  0
  150.8244  136.1495  155.5283 C   0  0  0  0  0  0  0  0  0  0  0  0
  150.4182  136.0594  156.8471 N   0  0  0  0  0  0  0  0  0  0  0  0
  151.0237  136.9416  157.8528 C   0  0  0  0  0  0  0  0  0  0  0  0
  150.2285  138.2325  158.0913 C   0  0  0  0  0  0  0  0  0  0  0  0
  149.1761  138.2254  158.7318 O   0  0  0  0  0  0  0  0  0  0  0  0
  150.7507  139.3421  157.5484 N   0  0  0  0  0  0  0  0  0  0  0  0
  150.1666  140.6840  157.6108 C   0  0  2  0  0  0  0  0  0  0  0  0
  149.2919  140.9547  156.3530 C   0  0  0  0  0  0  0  0  0  0  0  0
  149.9070  140.5409  155.0065 C   0  0  0  0  0  0  0  0  0  0  0  0
  149.1225  140.6410  153.9307 N   0  0  0  0  0  0  0  0  0  0  0  0
  151.0634  140.1302  154.9308 O   0  0  0  0  0  0  0  0  0  0  0  0
  151.2770  141.7412  157.8787 C   0  0  0  0  0  0  0  0  0  0  0  0
  151.9663  141.5219  159.2490 C   0  0  0  0  0  0  0  0  0  0  0  0
  153.0621  142.5645  159.5230 C   0  0  0  0  0  0  0  0  0  0  0  0
  152.5063  143.9916  159.4365 C   0  0  0  0  0  0  0  0  0  0  0  0
  151.8372  144.2325  158.0771 C   0  0  0  0  0  0  0  0  0  0  0  0
  150.7411  143.1910  157.8004 C   0  0  0  0  0  0  0  0  0  0  0  0
  149.4133  135.1332  157.1983 C   0  0  0  0  0  0  0  0  0  0  0  0
  149.0255  135.0347  158.3652 O   0  0  0  0  0  0  0  0  0  0  0  0
  147.4899  132.8147  155.7024 H   0  0  0  0  0  0  0  0  0  0  0  0
  147.0220  133.9699  156.9792 H   0  0  0  0  0  0  0  0  0  0  0  0
  148.2832  132.7212  157.2972 H   0  0  0  0  0  0  0  0  0  0  0  0
  150.6743  135.5128  153.5271 H   0  0  0  0  0  0  0  0  0  0  0  0
  151.5896  136.8688  155.2742 H   0  0  0  0  0  0  0  0  0  0  0  0
  151.1461  136.4169  158.8018 H   0  0  0  0  0  0  0  0  0  0  0  0
  152.0322  137.2128  157.5370 H   0  0  0  0  0  0  0  0  0  0  0  0
  151.6147  139.2512  157.0338 H   0  0  0  0  0  0  0  0  0  0  0  0
  149.4975  140.7114  158.4731 H   0  0  0  0  0  0  0  0  0  0  0  0
  148.3409  140.4299  156.4517 H   0  0  0  0  0  0  0  0  0  0  0  0
  149.0242  142.0110  156.3168 H   0  0  0  0  0  0  0  0  0  0  0  0
  149.4775  140.3851  153.0208 H   0  0  0  0  0  0  0  0  0  0  0  0
  148.1753  140.9761  154.0316 H   0  0  0  0  0  0  0  0  0  0  0  0
  152.0450  141.6314  157.1115 H   0  0  0  0  0  0  0  0  0  0  0  0
  151.2208  141.5630  160.0443 H   0  0  0  0  0  0  0  0  0  0  0  0
  152.4152  140.5300  159.3030 H   0  0  0  0  0  0  0  0  0  0  0  0
  153.4965  142.3951  160.5089 H   0  0  0  0  0  0  0  0  0  0  0  0
  153.8722  142.4419  158.8030 H   0  0  0  0  0  0  0  0  0  0  0  0
  151.7823  144.1530  160.2361 H   0  0  0  0  0  0  0  0  0  0  0  0
  153.3076  144.7146  159.5915 H   0  0  0  0  0  0  0  0  0  0  0  0
  151.4116  145.2360  158.0459 H   0  0  0  0  0  0  0  0  0  0  0  0
  152.5882  144.1909  157.2872 H   0  0  0  0  0  0  0  0  0  0  0  0
  150.3238  143.3936  156.8148 H   0  0  0  0  0  0  0  0  0  0  0  0
  149.9264  143.3215  158.5140 H   0  0  0  0  0  0  0  0  0  0  0  0
  1  2  1  0  0  0  0
  1 25  1  0  0  0  0
  1 26  1  0  0  0  0
  1 27  1  0  0  0  0
  2 23  1  0  0  0  0
  2  3  1  0  0  0  0
  3  4  2  0  0  0  0
  3  5  1  0  0  0  0
  5  6  2  0  0  0  0
  5 28  1  0  0  0  0
  6  7  1  0  0  0  0
  6 29  1  0  0  0  0
  7  8  1  0  0  0  0
  7 23  1  0  0  0  0
  8  9  1  0  0  0  0
  8 30  1  0  0  0  0
  8 31  1  0  0  0  0
  9 10  2  0  0  0  0
  9 11  1  0  0  0  0
 11 12  1  0  0  0  0
 11 32  1  0  0  0  0
 12 13  1  0  0  0  0
 12 17  1  0  0  0  0
 12 33  1  0  0  0  0
 13 14  1  0  0  0  0
 13 34  1  0  0  0  0
 13 35  1  0  0  0  0
 14 15  1  0  0  0  0
 14 16  2  0  0  0  0
 15 36  1  0  0  0  0
 15 37  1  0  0  0  0
 17 22  1  0  0  0  0
 17 18  1  0  0  0  0
 17 38  1  0  0  0  0
 18 19  1  0  0  0  0
 18 39  1  0  0  0  0
 18 40  1  0  0  0  0
 19 20  1  0  0  0  0
 19 41  1  0  0  0  0
 19 42  1  0  0  0  0
 20 21  1  0  0  0  0
 20 43  1  0  0  0  0
 20 44  1  0  0  0  0
 21 22  1  0  0  0  0
 21 45  1  0  0  0  0
 21 46  1  0  0  0  0
 22 47  1  0  0  0  0
 22 48  1  0  0  0  0
 23 24  2  0  0  0  0
M  END
> <s_m_source_file>
AV-unprocessed.smi

> <i_m_source_file_index>
747

> <i_lp_mmshare_version>
43012

> <i_f3d_flags>
0

> <s_epik_input>
W0NIM11uMWMoPU8pW2NIXVtjSF1uKGMxPU8pW0NIMl1DKD1PKVtOSF1bQ0BIXShbQ0gyXUMoPU8pW05IMl0pW0NIXTJbQ0gyXVtDSDJdW0NIMl1bQ0gyXVtDSDJdMg==

> <s_epik_cmdline>
J2VwaWtfcHl0aG9uJywgJy1waCcsICc3LjAnLCAnLXRuJywgJzgnLCAnLW1hJywgJzIwMCcsICctbWV0YWxfYmluZGluZycsICctaW1hZScsICc8aW5maWxlLm1hZT4nLCAnLW9tYWUnLCAnPG91dGZpbGUubWFlPic=

> <r_lp_tautomer_probability>
1

> <r_epik_Ionization_Penalty>
6.11221e-08

> <r_epik_Ionization_Penalty_Charging>
1.14855e-08

> <r_epik_Ionization_Penalty_Neutral>
4.96365e-08

> <r_epik_State_Penalty>
-0

> <r_epik_Charging_Adjusted_Penalty>
1.14855e-08

> <i_epik_Tot_Q>
0

> <i_epik_Tot_abs_Q>
0

> <r_epik_Metal_State_Penalty>
-0

> <b_epik_Metal_Only>
0

> <s_lp_Force_Field>
OPLS_2005

> <r_lp_Energy>
14.8557

> <b_lp_Chiralities_Consistent>
1

> <s_lp_Variant>
AV-unprocessed.smi:747-1

> <Gold.Version>
5.8.1

> <Gold.Id.Protein>
6NUR|6NUR_protein|mol2

> <Gold.PLP.Fitness>
45.1992

> <Gold.PLP.PLP>
-38.1663

> <Gold.PLP.part.hbond>
-3.7979

> <Gold.PLP.part.metal>
0.0000

> <Gold.PLP.part.buried>
-4.8653

> <Gold.PLP.part.nonpolar>
-30.1843

> <Gold.PLP.part.repulsive>
0.4172

> <Gold.PLP.ligand.clash>
0.0000

> <Gold.PLP.ligand.torsion>
1.1112

> <Gold.PLP.Chemscore.Hbond>
3.0000

> <Gold.PLP.Chemscore.CHOScore>
0.0000

> <Gold.PLP.Chemscore.Metal>
0.0000

> <Gold.Chemscore.Hbonds>
donor molecule, donor type, donor heavy atom, donor atom, acceptor molecule, acceptor atom, score
      L1  H    15    36       P1  7957  1.00
      P1  H  6896  6908       L1    24  0.86
      P1  H  7989  7998       L1    16  1.00

> <Gold.PLP.Chemscore.Internal.Correction>
0.2553

> <Gold.Rescore>
     Score         DG    S(hbond)    S(metal)    S(lipo)     H(rot)  DE(clash)    DE(int)     intcor
     15.24     -18.10       2.77        0.00      92.54       2.91       0.34       2.51       ----

> <Gold.Chemscore.Fitness>
15.2429

> <Gold.Chemscore.DG>
-18.0960

> <Gold.Chemscore.ZeroCoef>
-5.4800

> <Gold.Chemscore.Hbond>
2.7678

> <Gold.Chemscore.Metal>
0.0000

> <Gold.Chemscore.Lipo>
92.5375

> <Gold.Chemscore.Internal_Hbond>
0.0000

> <Gold.Chemscore.DEClash>
0.3430

> <Gold.Chemscore.DEInternal>
2.5100

> <Gold.Chemscore.Rot>
2.9122

> <Gold.Chemscore.Internal.Correction>
   9.000000E+99

> <Gold.Chemscore.Hbonds>
donor molecule, donor type, donor heavy atom, donor atom, acceptor molecule, acceptor atom, score
      L1  H    15    36       P1  7957  1.00
      P1  H  6896  6908       L1    24  0.55
      P1  H  7989  7998       L1    16  0.40

> <Gold.Chemscore.Hbond.Weighted>
-9.2444

> <Gold.Chemscore.Metal.Weighted>
-0.0000

> <Gold.Chemscore.Lipo.Weighted>
-10.8269

> <Gold.Chemscore.Internal_Hbond.Weighted>
0.0000

> <Gold.Chemscore.DEClash.Weighted>
0.3430

> <Gold.Chemscore.DEInternal.Weighted>
2.5100

> <Gold.Chemscore.Rot.Weighted>
7.4553

> <Gold.Chemscore.Internal.Correction.Weighted>
   9.000000E+99

> <Gold.Protein.RotatedTorsions>
[ 6907 6896 6895 6894 ] final  171.97 input  -60.11 | X-H torsion
[ 7974 7965 7964 7962 ] final  179.76 input  175.53 | X-H torsion
[ 8008 7997 7996 7995 ] final -125.94 input   59.86 | X-H torsion
[ 10167 10162 10161 10158 ] final  104.04 input  -65.29 | X-H torsion
[ 10718 10713 10712 10709 ] final   35.53 input   66.30 | X-H torsion
[ 10763 10752 10751 10750 ] final  101.86 input  -60.55 | X-H torsion
[ 11005 11000 10999 10996 ] final   15.20 input  -57.11 | X-H torsion

> <Gold.Protein.ActiveResidues>
 VAL166  LYS551  ARG553  GLY616  TRP617  ASP618  TYR619  PRO620  LYS621  CYS622 
 ASP623  PHE694  ASN695  SER759  ASP760  ASP761  ALA762  ILE779  LEU786  VAL792 
 PHE793  MET794  SER795  GLU796  ALA797  LYS798  CYS799  TRP800  GLU811  SER814 

> <Gold.Protein.RotatedAtoms>
  151.7917  133.3360  159.3500 H   0  0  0  0  0  0  0  0  0  0  0  0  # atno 6907 bound_to 6896
  150.7389  134.5836  159.5961 H   0  0  0  0  0  0  0  0  0  0  0  0  # atno 6908 bound_to 6896
  152.3205  134.7387  160.0366 H   0  0  0  0  0  0  0  0  0  0  0  0  # atno 6909 bound_to 6896
  144.7143  140.0596  143.6433 H   0  0  0  0  0  0  0  0  0  0  0  0  # atno 7974 bound_to 7965
  155.2215  140.0422  157.2949 H   0  0  0  0  0  0  0  0  0  0  0  0  # atno 8008 bound_to 7997
  154.5946  140.2436  155.7845 H   0  0  0  0  0  0  0  0  0  0  0  0  # atno 8009 bound_to 7997
  156.2282  140.2947  156.0129 H   0  0  0  0  0  0  0  0  0  0  0  0  # atno 8010 bound_to 7997
  139.7211  144.7058  151.0870 H   0  0  0  0  0  0  0  0  0  0  0  0  # atno 10167 bound_to 10162
  157.3237  130.7462  149.6802 H   0  0  0  0  0  0  0  0  0  0  0  0  # atno 10718 bound_to 10713
  153.3321  135.4030  155.1504 H   0  0  0  0  0  0  0  0  0  0  0  0  # atno 10763 bound_to 10752
  154.8625  135.3613  154.5456 H   0  0  0  0  0  0  0  0  0  0  0  0  # atno 10764 bound_to 10752
  153.5896  135.7074  153.5488 H   0  0  0  0  0  0  0  0  0  0  0  0  # atno 10765 bound_to 10752
  140.4609  134.1128  155.7716 H   0  0  0  0  0  0  0  0  0  0  0  0  # atno 11005 bound_to 11000
  145.9875  139.2989  143.1005 LP  0  0  0  0  0  0  0  0  0  0  0  0  # atno 17320 bound_to 7965
  145.8941  140.9285  143.0537 LP  0  0  0  0  0  0  0  0  0  0  0  0  # atno 17321 bound_to 7965
  140.7754  143.5164  150.9589 LP  0  0  0  0  0  0  0  0  0  0  0  0  # atno 17342 bound_to 10162
  139.8851  143.7023  152.3152 LP  0  0  0  0  0  0  0  0  0  0  0  0  # atno 17343 bound_to 10162
  155.9688  130.4215  150.4474 LP  0  0  0  0  0  0  0  0  0  0  0  0  # atno 17370 bound_to 10713
  157.2494  131.0543  151.2388 LP  0  0  0  0  0  0  0  0  0  0  0  0  # atno 17371 bound_to 10713
  141.1621  133.8772  157.1818 LP  0  0  0  0  0  0  0  0  0  0  0  0  # atno 17394 bound_to 11000
  139.9946  135.0052  157.0052 LP  0  0  0  0  0  0  0  0  0  0  0  0  # atno 17395 bound_to 11000

$$$$
