AV-unprocessed.smi:740|AV-procd|sdf|3552|dock8
  -GOLD-   22720 0553D 1   1.00000     0.00000
 Structure written by MMmdl.
 45 47  0  0  0  0  0  0  0  0  2 V2000
  152.1788  145.0185  160.6268 C   0  0  0  0  0  0  0  0  0  0  0  0
  151.8452  143.8022  159.7799 C   0  0  0  0  0  0  0  0  0  0  0  0
  151.0972  143.9897  158.5960 C   0  0  0  0  0  0  0  0  0  0  0  0
  150.8061  142.8582  157.8437 C   0  0  0  0  0  0  0  0  0  0  0  0
  150.0971  142.7137  156.6497 N   0  3  0  0  0  0  0  0  0  0  0  0
  150.0714  141.4000  156.2929 C   0  0  0  0  0  0  0  0  0  0  0  0
  150.7564  140.7033  157.2398 N   0  0  0  0  0  0  0  0  0  0  0  0
  151.0224  139.2603  157.3261 C   0  0  0  0  0  0  0  0  0  0  0  0
  152.5260  138.9269  157.2678 C   0  0  2  0  0  0  0  0  0  0  0  0
  152.9538  138.9809  155.9209 O   0  0  0  0  0  0  0  0  0  0  0  0
  152.8167  137.5186  157.8274 C   0  0  0  0  0  0  0  0  0  0  0  0
  153.4446  137.5696  159.1527 N   0  0  0  0  0  0  0  0  0  0  0  0
  154.7014  137.9789  159.3729 C   0  0  0  0  0  0  0  0  0  0  0  0
  155.4990  138.3709  158.5215 O   0  0  0  0  0  0  0  0  0  0  0  0
  155.0517  137.8953  160.8518 C   0  0  0  0  0  0  0  0  0  0  0  0
  153.7676  137.3427  161.4887 C   0  0  2  0  0  0  0  0  0  0  0  0
  153.9694  136.0141  162.2361 C   0  0  0  0  0  0  0  0  0  0  0  0
  152.8411  137.1812  160.2850 C   0  0  0  0  0  0  0  0  0  0  0  0
  151.6947  136.7428  160.3819 O   0  0  0  0  0  0  0  0  0  0  0  0
  151.2332  141.5723  158.2290 C   0  0  0  0  0  0  0  0  0  0  0  0
  151.9721  141.3707  159.3927 C   0  0  0  0  0  0  0  0  0  0  0  0
  152.2755  142.5087  160.1740 C   0  0  0  0  0  0  0  0  0  0  0  0
  153.0757  142.3175  161.4514 C   0  0  0  0  0  0  0  0  0  0  0  0
  151.8158  145.9373  160.1655 H   0  0  0  0  0  0  0  0  0  0  0  0
  153.2572  145.1145  160.7545 H   0  0  0  0  0  0  0  0  0  0  0  0
  151.7186  144.9354  161.6117 H   0  0  0  0  0  0  0  0  0  0  0  0
  150.7642  144.9708  158.2903 H   0  0  0  0  0  0  0  0  0  0  0  0
  149.5940  140.9852  155.4169 H   0  0  0  0  0  0  0  0  0  0  0  0
  150.6072  138.9222  158.2764 H   0  0  0  0  0  0  0  0  0  0  0  0
  150.4651  138.7385  156.5478 H   0  0  0  0  0  0  0  0  0  0  0  0
  153.0737  139.6790  157.8373 H   0  0  0  0  0  0  0  0  0  0  0  0
  152.3212  138.5263  155.3859 H   0  0  0  0  0  0  0  0  0  0  0  0
  151.8808  136.9648  157.9217 H   0  0  0  0  0  0  0  0  0  0  0  0
  153.4181  136.9403  157.1235 H   0  0  0  0  0  0  0  0  0  0  0  0
  155.9084  137.2361  160.9976 H   0  0  0  0  0  0  0  0  0  0  0  0
  155.3036  138.8828  161.2400 H   0  0  0  0  0  0  0  0  0  0  0  0
  153.3390  138.0843  162.1641 H   0  0  0  0  0  0  0  0  0  0  0  0
  153.0418  135.6790  162.7013 H   0  0  0  0  0  0  0  0  0  0  0  0
  154.7118  136.1226  163.0271 H   0  0  0  0  0  0  0  0  0  0  0  0
  154.3118  135.2238  161.5667 H   0  0  0  0  0  0  0  0  0  0  0  0
  152.2980  140.3871  159.6958 H   0  0  0  0  0  0  0  0  0  0  0  0
  153.2817  141.2635  161.6399 H   0  0  0  0  0  0  0  0  0  0  0  0
  152.5282  142.7066  162.3101 H   0  0  0  0  0  0  0  0  0  0  0  0
  154.0315  142.8377  161.3843 H   0  0  0  0  0  0  0  0  0  0  0  0
  149.6613  143.4549  156.1159 H   0  0  0  0  0  0  0  0  0  0  0  0
  1  2  1  0  0  0  0
  1 24  1  0  0  0  0
  1 25  1  0  0  0  0
  1 26  1  0  0  0  0
  2 22  1  0  0  0  0
  2  3  2  0  0  0  0
  3  4  1  0  0  0  0
  3 27  1  0  0  0  0
  4 20  2  0  0  0  0
  4  5  1  0  0  0  0
  5  6  2  0  0  0  0
  5 45  1  0  0  0  0
  6  7  1  0  0  0  0
  6 28  1  0  0  0  0
  7  8  1  0  0  0  0
  7 20  1  0  0  0  0
  8  9  1  0  0  0  0
  8 29  1  0  0  0  0
  8 30  1  0  0  0  0
  9 10  1  0  0  0  0
  9 11  1  0  0  0  0
  9 31  1  0  0  0  0
 10 32  1  0  0  0  0
 11 12  1  0  0  0  0
 11 33  1  0  0  0  0
 11 34  1  0  0  0  0
 12 18  1  0  0  0  0
 12 13  1  0  0  0  0
 13 14  2  0  0  0  0
 13 15  1  0  0  0  0
 15 16  1  0  0  0  0
 15 35  1  0  0  0  0
 15 36  1  0  0  0  0
 16 17  1  0  0  0  0
 16 18  1  0  0  0  0
 16 37  1  0  0  0  0
 17 38  1  0  0  0  0
 17 39  1  0  0  0  0
 17 40  1  0  0  0  0
 18 19  2  0  0  0  0
 20 21  1  0  0  0  0
 21 22  2  0  0  0  0
 21 41  1  0  0  0  0
 22 23  1  0  0  0  0
 23 42  1  0  0  0  0
 23 43  1  0  0  0  0
 23 44  1  0  0  0  0
M  CHG  1   5   1
M  END
> <s_m_source_file>
AV-unprocessed.smi

> <i_m_source_file_index>
740

> <i_lp_mmshare_version>
43012

> <i_f3d_flags>
0

> <s_epik_input>
W0NIM11jKFtjSF0xKWMoW0NIM10pW2NIXWMoYzEyKW4oW2NIXW4yKVtDSDJdW0NASF0oW09IXSlbQ0gyXU4zQyg9TylbQ0gyXVtDQEBIXShbQ0gzXSlDMz1P

> <s_epik_cmdline>
J2VwaWtfcHl0aG9uJywgJy1waCcsICc3LjAnLCAnLXRuJywgJzgnLCAnLW1hJywgJzIwMCcsICctbWV0YWxfYmluZGluZycsICctaW1hZScsICc8aW5maWxlLm1hZT4nLCAnLW9tYWUnLCAnPG91dGZpbGUubWFlPic=

> <r_lp_tautomer_probability>
1

> <r_epik_Ionization_Penalty>
1.08202

> <r_epik_Ionization_Penalty_Charging>
1.08202

> <r_epik_Ionization_Penalty_Neutral>
1.16605e-06

> <r_epik_State_Penalty>
1.13754

> <r_epik_Charging_Adjusted_Penalty>
2.21956

> <i_epik_Tot_Q>
1

> <i_epik_Tot_abs_Q>
1

> <r_epik_Metal_State_Penalty>
5.13645

> <b_epik_Metal_Only>
0

> <s_lp_Force_Field>
OPLS_2005

> <r_lp_Energy>
22.2654

> <b_lp_Chiralities_Consistent>
1

> <s_lp_Variant>
AV-unprocessed.smi:740-7

> <Gold.Version>
5.8.1

> <Gold.Id.Protein>
6NUR|6NUR_protein|mol2

> <Gold.PLP.Fitness>
54.3177

> <Gold.PLP.PLP>
-41.1509

> <Gold.PLP.part.hbond>
-3.8543

> <Gold.PLP.part.metal>
0.0000

> <Gold.PLP.part.buried>
-3.0940

> <Gold.PLP.part.nonpolar>
-35.6358

> <Gold.PLP.part.repulsive>
0.1083

> <Gold.PLP.ligand.clash>
0.0000

> <Gold.PLP.ligand.torsion>
0.9283

> <Gold.PLP.Chemscore.Hbond>
5.0000

> <Gold.PLP.Chemscore.CHOScore>
0.0000

> <Gold.PLP.Chemscore.Metal>
0.0000

> <Gold.Chemscore.Hbonds>
donor molecule, donor type, donor heavy atom, donor atom, acceptor molecule, acceptor atom, score
      L1  H     5    45       P1  8028  2.00
      P1  H  6896  6909       L1    19  1.00
      P1  H  7997  8009       L1    14  1.00
      P1  H  7997  8010       L1    10  1.00

> <Gold.PLP.Chemscore.Internal.Correction>
0.0234

> <Gold.Rescore>
     Score         DG    S(hbond)    S(metal)    S(lipo)     H(rot)  DE(clash)    DE(int)     intcor
     21.36     -22.67       3.19        0.00     107.70       2.37       0.25       1.06       ----

> <Gold.Chemscore.Fitness>
21.3647

> <Gold.Chemscore.DG>
-22.6727

> <Gold.Chemscore.ZeroCoef>
-5.4800

> <Gold.Chemscore.Hbond>
3.1931

> <Gold.Chemscore.Metal>
0.0000

> <Gold.Chemscore.Lipo>
107.7016

> <Gold.Chemscore.Internal_Hbond>
0.0000

> <Gold.Chemscore.DEClash>
0.2523

> <Gold.Chemscore.DEInternal>
1.0557

> <Gold.Chemscore.Rot>
2.3724

> <Gold.Chemscore.Internal.Correction>
   9.000000E+99

> <Gold.Chemscore.Hbonds>
donor molecule, donor type, donor heavy atom, donor atom, acceptor molecule, acceptor atom, score
      L1  H     5    45       P1  8028  0.95
      P1  H  6896  6909       L1    19  0.95
      P1  H  7997  8009       L1    14  0.90
      P1  H  7997  8010       L1    10  0.29

> <Gold.Chemscore.Hbond.Weighted>
-10.6650

> <Gold.Chemscore.Metal.Weighted>
-0.0000

> <Gold.Chemscore.Lipo.Weighted>
-12.6011

> <Gold.Chemscore.Internal_Hbond.Weighted>
0.0000

> <Gold.Chemscore.DEClash.Weighted>
0.2523

> <Gold.Chemscore.DEInternal.Weighted>
1.0557

> <Gold.Chemscore.Rot.Weighted>
6.0734

> <Gold.Chemscore.Internal.Correction.Weighted>
   9.000000E+99

> <Gold.Protein.RotatedTorsions>
[ 6907 6896 6895 6894 ] final  111.59 input  -60.11 | X-H torsion
[ 7974 7965 7964 7962 ] final -109.79 input  175.53 | X-H torsion
[ 8008 7997 7996 7995 ] final   95.37 input   59.86 | X-H torsion
[ 10167 10162 10161 10158 ] final -118.14 input  -65.29 | X-H torsion
[ 10718 10713 10712 10709 ] final   28.09 input   66.30 | X-H torsion
[ 10763 10752 10751 10750 ] final  -91.69 input  -60.55 | X-H torsion
[ 11005 11000 10999 10996 ] final -141.15 input  -57.11 | X-H torsion

> <Gold.Protein.ActiveResidues>
 VAL166  LYS551  ARG553  GLY616  TRP617  ASP618  TYR619  PRO620  LYS621  CYS622 
 ASP623  PHE694  ASN695  SER759  ASP760  ASP761  ALA762  ILE779  LEU786  VAL792 
 PHE793  MET794  SER795  GLU796  ALA797  LYS798  CYS799  TRP800  GLU811  SER814 

> <Gold.Protein.RotatedAtoms>
  152.4961  133.8635  159.7262 H   0  0  0  0  0  0  0  0  0  0  0  0  # atno 6907 bound_to 6896
  150.9141  133.6952  159.2854 H   0  0  0  0  0  0  0  0  0  0  0  0  # atno 6908 bound_to 6896
  151.4352  135.1018  159.9706 H   0  0  0  0  0  0  0  0  0  0  0  0  # atno 6909 bound_to 6896
  145.1762  140.8949  143.3506 H   0  0  0  0  0  0  0  0  0  0  0  0  # atno 7974 bound_to 7965
  156.0681  140.3287  155.7542 H   0  0  0  0  0  0  0  0  0  0  0  0  # atno 8008 bound_to 7997
  155.5349  140.0596  157.2899 H   0  0  0  0  0  0  0  0  0  0  0  0  # atno 8009 bound_to 7997
  154.4515  140.1921  156.0521 H   0  0  0  0  0  0  0  0  0  0  0  0  # atno 8010 bound_to 7997
  140.0607  143.4970  152.2033 H   0  0  0  0  0  0  0  0  0  0  0  0  # atno 10167 bound_to 10162
  157.2288  130.7014  149.6304 H   0  0  0  0  0  0  0  0  0  0  0  0  # atno 10718 bound_to 10713
  154.6786  135.5258  153.8233 H   0  0  0  0  0  0  0  0  0  0  0  0  # atno 10763 bound_to 10752
  153.0549  135.6547  154.0611 H   0  0  0  0  0  0  0  0  0  0  0  0  # atno 10764 bound_to 10752
  154.0501  135.2970  155.3321 H   0  0  0  0  0  0  0  0  0  0  0  0  # atno 10765 bound_to 10752
  140.8353  134.2468  157.4837 H   0  0  0  0  0  0  0  0  0  0  0  0  # atno 11005 bound_to 11000
  145.0182  139.3448  143.6086 LP  0  0  0  0  0  0  0  0  0  0  0  0  # atno 17320 bound_to 7965
  146.3460  139.9472  142.8733 LP  0  0  0  0  0  0  0  0  0  0  0  0  # atno 17321 bound_to 7965
  139.5895  144.7544  151.3435 LP  0  0  0  0  0  0  0  0  0  0  0  0  # atno 17342 bound_to 10162
  140.7173  143.7232  150.7680 LP  0  0  0  0  0  0  0  0  0  0  0  0  # atno 17343 bound_to 10162
  155.9677  130.4495  150.5663 LP  0  0  0  0  0  0  0  0  0  0  0  0  # atno 17370 bound_to 10713
  157.3499  131.0732  151.1721 LP  0  0  0  0  0  0  0  0  0  0  0  0  # atno 17371 bound_to 10713
  139.8704  134.9607  156.4373 LP  0  0  0  0  0  0  0  0  0  0  0  0  # atno 17394 bound_to 11000
  140.8954  133.7818  155.9619 LP  0  0  0  0  0  0  0  0  0  0  0  0  # atno 17395 bound_to 11000

$$$$
