AV-unprocessed.smi:588|AV-procd|sdf|3004|dock8
  -GOLD-   2262023513D 1   1.00000     0.00000
 Structure written by MMmdl.
 50 51  0  0  0  0  0  0  0  0  1 V2000
  147.8278  141.5677  153.8271 C   0  0  0  0  0  0  0  0  0  0  0  0
  148.3718  140.7117  154.9750 C   0  0  0  0  0  0  0  0  0  0  0  0
  149.2537  139.5556  154.4748 C   0  0  0  0  0  0  0  0  0  0  0  0
  149.8161  138.7740  155.5583 N   0  0  0  0  0  0  0  0  0  0  0  0
  149.0585  137.9378  156.3835 C   0  0  0  0  0  0  0  0  0  0  0  0
  147.6947  137.8474  156.1458 N   0  0  0  0  0  0  0  0  0  0  0  0
  149.6291  137.2259  157.4007 C   0  0  0  0  0  0  0  0  0  0  0  0
  148.8710  136.3611  158.2104 N   0  0  0  0  0  0  0  0  0  0  0  0
  148.2176  135.2302  157.5341 C   0  0  0  0  0  0  0  0  0  0  0  0
  149.2066  134.4365  156.6656 C   0  0  0  0  0  0  0  0  0  0  0  0
  150.0369  133.6588  157.5107 O   0  0  0  0  0  0  0  0  0  0  0  0
  150.9353  132.8406  156.7820 C   0  0  0  0  0  0  0  0  0  0  0  0
  148.7431  136.5362  159.5528 C   0  0  0  0  0  0  0  0  0  0  0  0
  149.2099  137.5240  160.1233 O   0  0  0  0  0  0  0  0  0  0  0  0
  148.0263  135.4674  160.4156 C   0  0  0  0  0  0  0  0  0  0  0  0
  146.5330  135.3398  160.0334 C   0  0  0  0  0  0  0  0  0  0  0  0
  145.7193  135.6283  161.3001 C   0  0  0  0  0  0  0  0  0  0  0  0
  146.6517  136.4388  162.1943 C   0  0  0  0  0  0  0  0  0  0  0  0
  148.0290  135.8411  161.9128 C   0  0  0  0  0  0  0  0  0  0  0  0
  151.0770  137.2926  157.6407 C   0  0  0  0  0  0  0  0  0  0  0  0
  151.6885  136.6860  158.5193 O   0  0  0  0  0  0  0  0  0  0  0  0
  151.7773  138.1192  156.7660 N   0  0  0  0  0  0  0  0  0  0  0  0
  151.2193  138.8573  155.7283 C   0  0  0  0  0  0  0  0  0  0  0  0
  151.9528  139.5373  155.0097 O   0  0  0  0  0  0  0  0  0  0  0  0
  152.7773  138.1813  156.8906 H   0  0  0  0  0  0  0  0  0  0  0  0
  147.2065  142.3784  154.2078 H   0  0  0  0  0  0  0  0  0  0  0  0
  147.2181  140.9718  153.1475 H   0  0  0  0  0  0  0  0  0  0  0  0
  148.6387  142.0120  153.2493 H   0  0  0  0  0  0  0  0  0  0  0  0
  148.9454  141.3438  155.6540 H   0  0  0  0  0  0  0  0  0  0  0  0
  147.5360  140.3172  155.5539 H   0  0  0  0  0  0  0  0  0  0  0  0
  148.7091  138.8800  153.8129 H   0  0  0  0  0  0  0  0  0  0  0  0
  150.0895  139.9193  153.8777 H   0  0  0  0  0  0  0  0  0  0  0  0
  147.2484  138.3648  155.4019 H   0  0  0  0  0  0  0  0  0  0  0  0
  147.0873  137.2942  156.7333 H   0  0  0  0  0  0  0  0  0  0  0  0
  147.7442  134.5715  158.2643 H   0  0  0  0  0  0  0  0  0  0  0  0
  147.4065  135.5933  156.9011 H   0  0  0  0  0  0  0  0  0  0  0  0
  148.6642  133.7844  155.9792 H   0  0  0  0  0  0  0  0  0  0  0  0
  149.8179  135.1111  156.0646 H   0  0  0  0  0  0  0  0  0  0  0  0
  151.5484  132.2626  157.4735 H   0  0  0  0  0  0  0  0  0  0  0  0
  151.6021  133.4414  156.1625 H   0  0  0  0  0  0  0  0  0  0  0  0
  150.3990  132.1397  156.1410 H   0  0  0  0  0  0  0  0  0  0  0  0
  148.5107  134.4954  160.3318 H   0  0  0  0  0  0  0  0  0  0  0  0
  146.2553  136.0514  159.2536 H   0  0  0  0  0  0  0  0  0  0  0  0
  146.3061  134.3475  159.6424 H   0  0  0  0  0  0  0  0  0  0  0  0
  144.7849  136.1488  161.0884 H   0  0  0  0  0  0  0  0  0  0  0  0
  145.4693  134.6887  161.7947 H   0  0  0  0  0  0  0  0  0  0  0  0
  146.6324  137.4884  161.8976 H   0  0  0  0  0  0  0  0  0  0  0  0
  146.3769  136.3840  163.2480 H   0  0  0  0  0  0  0  0  0  0  0  0
  148.1610  134.9376  162.5097 H   0  0  0  0  0  0  0  0  0  0  0  0
  148.8336  136.5227  162.1932 H   0  0  0  0  0  0  0  0  0  0  0  0
  1  2  1  0  0  0  0
  1 26  1  0  0  0  0
  1 27  1  0  0  0  0
  1 28  1  0  0  0  0
  2  3  1  0  0  0  0
  2 29  1  0  0  0  0
  2 30  1  0  0  0  0
  3  4  1  0  0  0  0
  3 31  1  0  0  0  0
  3 32  1  0  0  0  0
  4 23  1  0  0  0  0
  4  5  1  0  0  0  0
  5  6  1  0  0  0  0
  5  7  2  0  0  0  0
  6 33  1  0  0  0  0
  6 34  1  0  0  0  0
  7  8  1  0  0  0  0
  7 20  1  0  0  0  0
  8  9  1  0  0  0  0
  8 13  1  0  0  0  0
  9 10  1  0  0  0  0
  9 35  1  0  0  0  0
  9 36  1  0  0  0  0
 10 11  1  0  0  0  0
 10 37  1  0  0  0  0
 10 38  1  0  0  0  0
 11 12  1  0  0  0  0
 12 39  1  0  0  0  0
 12 40  1  0  0  0  0
 12 41  1  0  0  0  0
 13 14  2  0  0  0  0
 13 15  1  0  0  0  0
 15 19  1  0  0  0  0
 15 16  1  0  0  0  0
 15 42  1  0  0  0  0
 16 17  1  0  0  0  0
 16 43  1  0  0  0  0
 16 44  1  0  0  0  0
 17 18  1  0  0  0  0
 17 45  1  0  0  0  0
 17 46  1  0  0  0  0
 18 19  1  0  0  0  0
 18 47  1  0  0  0  0
 18 48  1  0  0  0  0
 19 49  1  0  0  0  0
 19 50  1  0  0  0  0
 20 21  2  0  0  0  0
 20 22  1  0  0  0  0
 22 25  1  0  0  0  0
 22 23  1  0  0  0  0
 23 24  2  0  0  0  0
M  END
> <s_m_source_file>
AV-unprocessed.smi

> <i_m_source_file_index>
588

> <i_lp_mmshare_version>
43012

> <i_f3d_flags>
0

> <s_epik_input>
W0NIM11bQ0gyXVtDSDJdbjFjKFtOSDJdKWMoYyg9TylbbkhdYzE9TylOKFtDSDJdW0NIMl1PW0NIM10pQyg9TylbQ0hdMltDSDJdW0NIMl1bQ0gyXVtDSDJdMg==

> <s_epik_cmdline>
J2VwaWtfcHl0aG9uJywgJy1waCcsICc3LjAnLCAnLXRuJywgJzgnLCAnLW1hJywgJzIwMCcsICctbWV0YWxfYmluZGluZycsICctaW1hZScsICc8aW5maWxlLm1hZT4nLCAnLW9tYWUnLCAnPG91dGZpbGUubWFlPic=

> <r_lp_tautomer_probability>
1

> <r_epik_Ionization_Penalty>
2.06963e-05

> <r_epik_Ionization_Penalty_Charging>
5.41733e-06

> <r_epik_Ionization_Penalty_Neutral>
1.52789e-05

> <r_epik_State_Penalty>
-0

> <r_epik_Charging_Adjusted_Penalty>
5.41733e-06

> <i_epik_Tot_Q>
0

> <i_epik_Tot_abs_Q>
0

> <r_epik_Metal_State_Penalty>
-0

> <b_epik_Metal_Only>
0

> <s_epik_Chemistry_Notes>
This compound has an imine and may undergo hydrolysis.

> <s_lp_Force_Field>
OPLS_2005

> <r_lp_Energy>
42.8074

> <b_lp_Chiralities_Consistent>
1

> <s_lp_Variant>
AV-unprocessed.smi:588-1

> <Gold.Version>
5.8.1

> <Gold.Id.Protein>
6NUR|6NUR_protein|mol2

> <Gold.PLP.Fitness>
36.3473

> <Gold.PLP.PLP>
-28.2084

> <Gold.PLP.part.hbond>
-4.6997

> <Gold.PLP.part.metal>
0.0000

> <Gold.PLP.part.buried>
-5.1869

> <Gold.PLP.part.nonpolar>
-19.2247

> <Gold.PLP.part.repulsive>
0.0996

> <Gold.PLP.ligand.clash>
0.0000

> <Gold.PLP.ligand.torsion>
1.4214

> <Gold.PLP.Chemscore.Hbond>
2.9001

> <Gold.PLP.Chemscore.CHOScore>
0.0000

> <Gold.PLP.Chemscore.Metal>
0.0000

> <Gold.Chemscore.Hbonds>
donor molecule, donor type, donor heavy atom, donor atom, acceptor molecule, acceptor atom, score
      P1  H  6896  6907       L1    21  0.61
      P1  H  6896  6909       L1    11  1.00
      P1  H  6931  6943       L1    14  0.30
      P1  H  7989  7998       L1    24  0.96

> <Gold.PLP.Chemscore.Internal.Correction>
2.2813

> <Gold.Rescore>
     Score         DG    S(hbond)    S(metal)    S(lipo)     H(rot)  DE(clash)    DE(int)     intcor
     12.99     -16.16       2.69        0.00      59.79       2.07       0.13       3.04       ----

> <Gold.Chemscore.Fitness>
12.9916

> <Gold.Chemscore.DG>
-16.1604

> <Gold.Chemscore.ZeroCoef>
-5.4800

> <Gold.Chemscore.Hbond>
2.6871

> <Gold.Chemscore.Metal>
0.0000

> <Gold.Chemscore.Lipo>
59.7948

> <Gold.Chemscore.Internal_Hbond>
0.0000

> <Gold.Chemscore.DEClash>
0.1251

> <Gold.Chemscore.DEInternal>
3.0437

> <Gold.Chemscore.Rot>
2.0666

> <Gold.Chemscore.Internal.Correction>
   9.000000E+99

> <Gold.Chemscore.Hbonds>
donor molecule, donor type, donor heavy atom, donor atom, acceptor molecule, acceptor atom, score
      P1  H  6896  6907       L1    21  0.60
      P1  H  6896  6909       L1    11  0.34
      P1  H  6931  6943       L1    14  0.30
      P1  H  7989  7998       L1    24  0.86

> <Gold.Chemscore.Hbond.Weighted>
-8.9749

> <Gold.Chemscore.Metal.Weighted>
-0.0000

> <Gold.Chemscore.Lipo.Weighted>
-6.9960

> <Gold.Chemscore.Internal_Hbond.Weighted>
0.0000

> <Gold.Chemscore.DEClash.Weighted>
0.1251

> <Gold.Chemscore.DEInternal.Weighted>
3.0437

> <Gold.Chemscore.Rot.Weighted>
5.2905

> <Gold.Chemscore.Internal.Correction.Weighted>
   9.000000E+99

> <Gold.Protein.RotatedTorsions>
[ 6907 6896 6895 6894 ] final   -6.83 input  -60.11 | X-H torsion
[ 7974 7965 7964 7962 ] final  148.50 input  175.53 | X-H torsion
[ 8008 7997 7996 7995 ] final   -4.73 input   59.86 | X-H torsion
[ 10167 10162 10161 10158 ] final  137.03 input  -65.29 | X-H torsion
[ 10718 10713 10712 10709 ] final   52.15 input   66.30 | X-H torsion
[ 10763 10752 10751 10750 ] final  -90.33 input  -60.55 | X-H torsion
[ 11005 11000 10999 10996 ] final  169.93 input  -57.11 | X-H torsion

> <Gold.Protein.ActiveResidues>
 VAL166  LYS551  ARG553  GLY616  TRP617  ASP618  TYR619  PRO620  LYS621  CYS622 
 ASP623  PHE694  ASN695  SER759  ASP760  ASP761  ALA762  ILE779  LEU786  VAL792 
 PHE793  MET794  SER795  GLU796  ALA797  LYS798  CYS799  TRP800  GLU811  SER814 

> <Gold.Protein.RotatedAtoms>
  151.4592  135.1037  159.9719 H   0  0  0  0  0  0  0  0  0  0  0  0  # atno 6907 bound_to 6896
  152.4859  133.8368  159.7142 H   0  0  0  0  0  0  0  0  0  0  0  0  # atno 6908 bound_to 6896
  150.8968  133.7110  159.2916 H   0  0  0  0  0  0  0  0  0  0  0  0  # atno 6909 bound_to 6896
  144.8509  139.6162  143.5974 H   0  0  0  0  0  0  0  0  0  0  0  0  # atno 7974 bound_to 7965
  154.6113  140.2476  155.7666 H   0  0  0  0  0  0  0  0  0  0  0  0  # atno 8008 bound_to 7997
  156.2372  140.2946  156.0295 H   0  0  0  0  0  0  0  0  0  0  0  0  # atno 8009 bound_to 7997
  155.2048  140.0395  157.2914 H   0  0  0  0  0  0  0  0  0  0  0  0  # atno 8010 bound_to 7997
  139.5159  144.6432  151.5511 H   0  0  0  0  0  0  0  0  0  0  0  0  # atno 10167 bound_to 10162
  157.5048  130.8461  149.8361 H   0  0  0  0  0  0  0  0  0  0  0  0  # atno 10718 bound_to 10713
  154.6647  135.5308  153.8062 H   0  0  0  0  0  0  0  0  0  0  0  0  # atno 10763 bound_to 10752
  153.0463  135.6514  154.0818 H   0  0  0  0  0  0  0  0  0  0  0  0  # atno 10764 bound_to 10752
  154.0723  135.2953  155.3286 H   0  0  0  0  0  0  0  0  0  0  0  0  # atno 10765 bound_to 10752
  140.3030  134.7580  157.3931 H   0  0  0  0  0  0  0  0  0  0  0  0  # atno 11005 bound_to 11000
  146.2784  139.6811  142.9247 LP  0  0  0  0  0  0  0  0  0  0  0  0  # atno 17320 bound_to 7965
  145.4502  141.0428  143.2808 LP  0  0  0  0  0  0  0  0  0  0  0  0  # atno 17321 bound_to 7965
  140.6207  143.9263  150.6524 LP  0  0  0  0  0  0  0  0  0  0  0  0  # atno 17342 bound_to 10162
  140.2536  143.3575  152.1384 LP  0  0  0  0  0  0  0  0  0  0  0  0  # atno 17343 bound_to 10162
  156.0251  130.3782  150.1846 LP  0  0  0  0  0  0  0  0  0  0  0  0  # atno 17370 bound_to 10713
  157.0036  130.9930  151.3384 LP  0  0  0  0  0  0  0  0  0  0  0  0  # atno 17371 bound_to 10713
  140.1092  134.5368  155.8281 LP  0  0  0  0  0  0  0  0  0  0  0  0  # atno 17394 bound_to 11000
  141.2124  133.6719  156.6657 LP  0  0  0  0  0  0  0  0  0  0  0  0  # atno 17395 bound_to 11000

$$$$
