AV-unprocessed.smi:2061|AV-procd|sdf|8391|dock5
  -GOLD-   2272011 73D 1   1.00000     0.00000
 Structure written by MMmdl.
 45 46  0  0  0  0  0  0  0  0  3 V2000
  152.6380  143.5353  158.8723 C   0  0  0  0  0  0  0  0  0  0  0  0
  151.4236  142.8455  158.3528 C   0  0  0  0  0  0  0  0  0  0  0  0
  151.0459  142.4444  157.1023 C   0  0  0  0  0  0  0  0  0  0  0  0
  149.7745  141.8516  157.3255 C   0  0  0  0  0  0  0  0  0  0  0  0
  149.0315  141.3037  156.2466 N   0  0  0  0  0  0  0  0  0  0  0  0
  149.4809  140.6371  155.1678 C   0  0  0  0  0  0  0  0  0  0  0  0
  150.6937  140.4535  155.0069 O   0  0  0  0  0  0  0  0  0  0  0  0
  148.4684  140.2277  154.3541 N   0  5  0  0  0  0  0  0  0  0  0  0
  148.3069  138.8650  153.8431 C   0  0  0  0  0  0  0  0  0  0  0  0
  146.9332  138.6887  153.1375 C   0  0  1  0  0  0  0  0  0  0  0  0
  146.7884  139.4913  151.8200 C   0  0  0  0  0  0  0  0  0  0  0  0
  146.6127  137.2369  152.9746 N   0  3  1  0  0  0  0  0  0  0  0  0
  146.3219  136.5462  154.2551 C   0  0  0  0  0  0  0  0  0  0  0  0
  146.2052  135.0238  154.0440 C   0  0  2  0  0  0  0  0  0  0  0  0
  147.5600  134.3342  153.8043 C   0  0  0  0  0  0  0  0  0  0  0  0
  145.2632  134.7352  153.0102 O   0  0  0  0  0  0  0  0  0  0  0  0
  145.5286  135.3672  151.7600 C   0  0  1  0  0  0  0  0  0  0  0  0
  144.4246  134.9532  150.7808 C   0  0  0  0  0  0  0  0  0  0  0  0
  145.5791  136.8912  151.9614 C   0  0  0  0  0  0  0  0  0  0  0  0
  149.4101  141.8890  158.5989 N   0  0  0  0  0  0  0  0  0  0  0  0
  150.4652  142.5250  159.2635 O   0  0  0  0  0  0  0  0  0  0  0  0
  153.1823  144.0250  158.0647 H   0  0  0  0  0  0  0  0  0  0  0  0
  153.3098  142.8229  159.3511 H   0  0  0  0  0  0  0  0  0  0  0  0
  152.3688  144.2946  159.6069 H   0  0  0  0  0  0  0  0  0  0  0  0
  151.5917  142.5578  156.1776 H   0  0  0  0  0  0  0  0  0  0  0  0
  148.0307  141.4227  156.3018 H   0  0  0  0  0  0  0  0  0  0  0  0
  149.1007  138.6079  153.1415 H   0  0  0  0  0  0  0  0  0  0  0  0
  148.3888  138.1285  154.6442 H   0  0  0  0  0  0  0  0  0  0  0  0
  146.1882  139.0898  153.8266 H   0  0  0  0  0  0  0  0  0  0  0  0
  146.8748  140.5660  151.9893 H   0  0  0  0  0  0  0  0  0  0  0  0
  145.8083  139.3274  151.3717 H   0  0  0  0  0  0  0  0  0  0  0  0
  147.5385  139.2199  151.0751 H   0  0  0  0  0  0  0  0  0  0  0  0
  147.1037  136.7520  154.9877 H   0  0  0  0  0  0  0  0  0  0  0  0
  145.3911  136.9367  154.6684 H   0  0  0  0  0  0  0  0  0  0  0  0
  145.7919  134.5936  154.9568 H   0  0  0  0  0  0  0  0  0  0  0  0
  148.2139  134.4585  154.6678 H   0  0  0  0  0  0  0  0  0  0  0  0
  148.0860  134.7410  152.9410 H   0  0  0  0  0  0  0  0  0  0  0  0
  147.4281  133.2641  153.6436 H   0  0  0  0  0  0  0  0  0  0  0  0
  146.4818  135.0176  151.3628 H   0  0  0  0  0  0  0  0  0  0  0  0
  144.5812  135.4009  149.7991 H   0  0  0  0  0  0  0  0  0  0  0  0
  143.4422  135.2642  151.1376 H   0  0  0  0  0  0  0  0  0  0  0  0
  144.4038  133.8707  150.6525 H   0  0  0  0  0  0  0  0  0  0  0  0
  144.6014  137.2500  152.2859 H   0  0  0  0  0  0  0  0  0  0  0  0
  145.7995  137.3758  151.0096 H   0  0  0  0  0  0  0  0  0  0  0  0
  147.4752  136.8267  152.6455 H   0  0  0  0  0  0  0  0  0  0  0  0
  1  2  1  0  0  0  0
  1 22  1  0  0  0  0
  1 23  1  0  0  0  0
  1 24  1  0  0  0  0
  2 21  1  0  0  0  0
  2  3  2  0  0  0  0
  3  4  1  0  0  0  0
  3 25  1  0  0  0  0
  4  5  1  0  0  0  0
  4 20  2  0  0  0  0
  5  6  1  0  0  0  0
  5 26  1  0  0  0  0
  6  7  2  0  0  0  0
  6  8  1  0  0  0  0
  8  9  1  0  0  0  0
  9 10  1  0  0  0  0
  9 27  1  0  0  0  0
  9 28  1  0  0  0  0
 10 11  1  0  0  0  0
 10 12  1  0  0  0  0
 10 29  1  0  0  0  0
 11 30  1  0  0  0  0
 11 31  1  0  0  0  0
 11 32  1  0  0  0  0
 12 19  1  0  0  0  0
 12 13  1  0  0  0  0
 12 45  1  0  0  0  0
 13 14  1  0  0  0  0
 13 33  1  0  0  0  0
 13 34  1  0  0  0  0
 14 15  1  0  0  0  0
 14 16  1  0  0  0  0
 14 35  1  0  0  0  0
 15 36  1  0  0  0  0
 15 37  1  0  0  0  0
 15 38  1  0  0  0  0
 16 17  1  0  0  0  0
 17 18  1  0  0  0  0
 17 19  1  0  0  0  0
 17 39  1  0  0  0  0
 18 40  1  0  0  0  0
 18 41  1  0  0  0  0
 18 42  1  0  0  0  0
 19 43  1  0  0  0  0
 19 44  1  0  0  0  0
 20 21  1  0  0  0  0
M  CHG  1   8  -1
M  CHG  1  12   1
M  END
> <s_m_source_file>
AV-unprocessed.smi

> <i_m_source_file_index>
2061

> <i_lp_mmshare_version>
43012

> <i_f3d_flags>
0

> <s_epik_input>
W0NIM11jMVtjSF1jKG5vMSlbTkhdQyg9TylbTkhdW0NIMl1bQ0BIXShbQ0gzXSlOMltDSDJdW0NAQEhdKFtDSDNdKU9bQ0BASF0oW0NIM10pW0NIMl0y

> <s_epik_cmdline>
J2VwaWtfcHl0aG9uJywgJy1waCcsICc3LjAnLCAnLXRuJywgJzgnLCAnLW1hJywgJzIwMCcsICctbWV0YWxfYmluZGluZycsICctaW1hZScsICc8aW5maWxlLm1hZT4nLCAnLW9tYWUnLCAnPG91dGZpbGUubWFlPic=

> <r_epik_Ionization_Penalty>
6.8073

> <r_epik_Ionization_Penalty_Charging>
6.80729

> <r_epik_Ionization_Penalty_Neutral>
5.65391e-06

> <r_epik_State_Penalty>
7.47323

> <r_epik_Charging_Adjusted_Penalty>
14.2805

> <i_epik_Tot_Q>
0

> <i_epik_Tot_abs_Q>
2

> <r_epik_Metal_State_Penalty>
3.40035

> <b_epik_Metal_Only>
1

> <s_lp_Force_Field>
OPLS_2005

> <r_lp_Energy>
19.3707

> <b_lp_Chiralities_Consistent>
1

> <s_lp_Variant>
AV-unprocessed.smi:2061-32

> <Gold.Version>
5.8.1

> <Gold.Id.Protein>
6NUR|6NUR_protein|mol2

> <Gold.PLP.Fitness>
38.3870

> <Gold.PLP.PLP>
-31.5977

> <Gold.PLP.part.hbond>
-3.3419

> <Gold.PLP.part.metal>
0.0000

> <Gold.PLP.part.buried>
-0.6103

> <Gold.PLP.part.nonpolar>
-28.2091

> <Gold.PLP.part.repulsive>
0.4615

> <Gold.PLP.ligand.clash>
0.0000

> <Gold.PLP.ligand.torsion>
1.1802

> <Gold.PLP.Chemscore.Hbond>
3.0000

> <Gold.PLP.Chemscore.CHOScore>
0.0000

> <Gold.PLP.Chemscore.Metal>
0.0000

> <Gold.Chemscore.Hbonds>
donor molecule, donor type, donor heavy atom, donor atom, acceptor molecule, acceptor atom, score
      L1  H    12    45       P1  7948  2.00
      P1  H  7989  7998       L1     7  1.00

> <Gold.PLP.Chemscore.Internal.Correction>
0.1495

> <Gold.Rescore>
     Score         DG    S(hbond)    S(metal)    S(lipo)     H(rot)  DE(clash)    DE(int)     intcor
     13.72     -17.25       1.97        0.00      78.45       1.56       1.18       2.36       ----

> <Gold.Chemscore.Fitness>
13.7166

> <Gold.Chemscore.DG>
-17.2526

> <Gold.Chemscore.ZeroCoef>
-5.4800

> <Gold.Chemscore.Hbond>
1.9684

> <Gold.Chemscore.Metal>
0.0000

> <Gold.Chemscore.Lipo>
78.4540

> <Gold.Chemscore.Internal_Hbond>
0.0000

> <Gold.Chemscore.DEClash>
1.1759

> <Gold.Chemscore.DEInternal>
2.3601

> <Gold.Chemscore.Rot>
1.5550

> <Gold.Chemscore.Internal.Correction>
   9.000000E+99

> <Gold.Chemscore.Hbonds>
donor molecule, donor type, donor heavy atom, donor atom, acceptor molecule, acceptor atom, score
      L1  H    12    45       P1  7948  1.00
      P1  H  7989  7998       L1     7  0.97

> <Gold.Chemscore.Hbond.Weighted>
-6.5743

> <Gold.Chemscore.Metal.Weighted>
-0.0000

> <Gold.Chemscore.Lipo.Weighted>
-9.1791

> <Gold.Chemscore.Internal_Hbond.Weighted>
0.0000

> <Gold.Chemscore.DEClash.Weighted>
1.1759

> <Gold.Chemscore.DEInternal.Weighted>
2.3601

> <Gold.Chemscore.Rot.Weighted>
3.9809

> <Gold.Chemscore.Internal.Correction.Weighted>
   9.000000E+99

> <Gold.Protein.RotatedTorsions>
[ 6907 6896 6895 6894 ] final  -24.50 input  -60.11 | X-H torsion
[ 7974 7965 7964 7962 ] final  -10.97 input  175.53 | X-H torsion
[ 8008 7997 7996 7995 ] final  152.81 input   59.86 | X-H torsion
[ 10167 10162 10161 10158 ] final -101.92 input  -65.29 | X-H torsion
[ 10718 10713 10712 10709 ] final  162.06 input   66.30 | X-H torsion
[ 10763 10752 10751 10750 ] final  -42.32 input  -60.55 | X-H torsion
[ 11005 11000 10999 10996 ] final  -25.68 input  -57.11 | X-H torsion

> <Gold.Protein.ActiveResidues>
 VAL166  LYS551  ARG553  GLY616  TRP617  ASP618  TYR619  PRO620  LYS621  CYS622 
 ASP623  PHE694  ASN695  SER759  ASP760  ASP761  ALA762  ILE779  LEU786  VAL792 
 PHE793  MET794  SER795  GLU796  ALA797  LYS798  CYS799  TRP800  GLU811  SER814 

> <Gold.Protein.RotatedAtoms>
  151.1886  135.0392  159.8822 H   0  0  0  0  0  0  0  0  0  0  0  0  # atno 6907 bound_to 6896
  152.5441  134.0982  159.8316 H   0  0  0  0  0  0  0  0  0  0  0  0  # atno 6908 bound_to 6896
  151.1108  133.5127  159.2638 H   0  0  0  0  0  0  0  0  0  0  0  0  # atno 6909 bound_to 6896
  146.2203  140.2843  142.8364 H   0  0  0  0  0  0  0  0  0  0  0  0  # atno 7974 bound_to 7965
  156.2612  140.2011  156.6391 H   0  0  0  0  0  0  0  0  0  0  0  0  # atno 8008 bound_to 7997
  154.6623  140.0559  157.0100 H   0  0  0  0  0  0  0  0  0  0  0  0  # atno 8009 bound_to 7997
  155.1258  140.3229  155.4489 H   0  0  0  0  0  0  0  0  0  0  0  0  # atno 8010 bound_to 7997
  140.2361  143.3572  152.0843 H   0  0  0  0  0  0  0  0  0  0  0  0  # atno 10167 bound_to 10162
  157.1278  131.0509  151.2385 H   0  0  0  0  0  0  0  0  0  0  0  0  # atno 10718 bound_to 10713
  153.9770  135.6721  153.4749 H   0  0  0  0  0  0  0  0  0  0  0  0  # atno 10763 bound_to 10752
  153.0766  135.4945  154.8413 H   0  0  0  0  0  0  0  0  0  0  0  0  # atno 10764 bound_to 10752
  154.7186  135.3112  154.9045 H   0  0  0  0  0  0  0  0  0  0  0  0  # atno 10765 bound_to 10752
  140.8960  133.7556  156.0481 H   0  0  0  0  0  0  0  0  0  0  0  0  # atno 11005 bound_to 11000
  144.9174  140.7828  143.5769 LP  0  0  0  0  0  0  0  0  0  0  0  0  # atno 17320 bound_to 7965
  145.2777  139.1930  143.4807 LP  0  0  0  0  0  0  0  0  0  0  0  0  # atno 17321 bound_to 7965
  139.5093  144.6865  151.5874 LP  0  0  0  0  0  0  0  0  0  0  0  0  # atno 17342 bound_to 10162
  140.6148  143.9368  150.6480 LP  0  0  0  0  0  0  0  0  0  0  0  0  # atno 17343 bound_to 10162
  157.4419  130.7549  149.7077 LP  0  0  0  0  0  0  0  0  0  0  0  0  # atno 17370 bound_to 10713
  155.9814  130.4019  150.3472 LP  0  0  0  0  0  0  0  0  0  0  0  0  # atno 17371 bound_to 10713
  140.8289  134.3201  157.5356 LP  0  0  0  0  0  0  0  0  0  0  0  0  # atno 17394 bound_to 11000
  139.8735  134.9352  156.3627 LP  0  0  0  0  0  0  0  0  0  0  0  0  # atno 17395 bound_to 11000

$$$$
