AV-unprocessed.smi:2798|AV-procd|sdf|10787|dock1
  -GOLD-   2272015223D 1   1.00000     0.00000
 Structure written by MMmdl.
 29 31  0  0  0  0  0  0  0  0  1 V2000
  152.0464  137.4729  154.0821 N   0  0  0  0  0  0  0  0  0  0  0  0
  151.7662  138.4249  154.6774 C   0  0  0  0  0  0  0  0  0  0  0  0
  151.4153  139.6205  155.4248 C   0  0  0  0  0  0  0  0  0  0  0  0
  151.9106  139.7927  156.7343 C   0  0  0  0  0  0  0  0  0  0  0  0
  151.5588  140.9574  157.4430 C   0  0  0  0  0  0  0  0  0  0  0  0
  150.7214  141.9127  156.8214 C   0  0  0  0  0  0  0  0  0  0  0  0
  150.3100  143.1023  157.4410 N   0  0  0  0  0  0  0  0  0  0  0  0
  150.3788  143.2750  158.8878 C   0  0  2  0  0  0  0  0  0  0  0  0
  149.8722  144.6342  159.3838 C   0  0  0  0  0  0  0  0  0  0  0  0
  151.0568  145.1218  160.2297 C   0  0  2  0  0  0  0  0  0  0  0  0
  152.2126  145.6079  159.3469 C   0  0  0  0  0  0  0  0  0  0  0  0
  152.7501  144.2918  158.7892 C   0  0  0  0  0  0  0  0  0  0  0  0
  151.8143  143.2598  159.4439 C   0  0  1  0  0  0  0  0  0  0  0  0
  151.5874  143.8909  160.6932 O   0  0  0  0  0  0  0  0  0  0  0  0
  150.2850  141.6425  155.5072 C   0  0  0  0  0  0  0  0  0  0  0  0
  150.6176  140.5282  154.8216 N   0  0  0  0  0  0  0  0  0  0  0  0
  152.5487  139.0502  157.1919 H   0  0  0  0  0  0  0  0  0  0  0  0
  151.9355  141.0973  158.4448 H   0  0  0  0  0  0  0  0  0  0  0  0
  149.8057  143.7912  156.9009 H   0  0  0  0  0  0  0  0  0  0  0  0
  149.8189  142.4747  159.3730 H   0  0  0  0  0  0  0  0  0  0  0  0
  149.6314  145.3340  158.5821 H   0  0  0  0  0  0  0  0  0  0  0  0
  148.9806  144.5040  159.9981 H   0  0  0  0  0  0  0  0  0  0  0  0
  150.7801  145.8205  161.0197 H   0  0  0  0  0  0  0  0  0  0  0  0
  151.8815  146.2955  158.5680 H   0  0  0  0  0  0  0  0  0  0  0  0
  152.9742  146.1095  159.9452 H   0  0  0  0  0  0  0  0  0  0  0  0
  152.7355  144.2548  157.6998 H   0  0  0  0  0  0  0  0  0  0  0  0
  153.7789  144.1363  159.1159 H   0  0  0  0  0  0  0  0  0  0  0  0
  152.2454  142.2613  159.5219 H   0  0  0  0  0  0  0  0  0  0  0  0
  149.6449  142.3409  154.9877 H   0  0  0  0  0  0  0  0  0  0  0  0
  1  2  3  0  0  0  0
  2  3  1  0  0  0  0
  3 16  1  0  0  0  0
  3  4  2  0  0  0  0
  4  5  1  0  0  0  0
  4 17  1  0  0  0  0
  5  6  2  0  0  0  0
  5 18  1  0  0  0  0
  6  7  1  0  0  0  0
  6 15  1  0  0  0  0
  7  8  1  0  0  0  0
  7 19  1  0  0  0  0
  8 13  1  0  0  0  0
  8  9  1  0  0  0  0
  8 20  1  0  0  0  0
  9 10  1  0  0  0  0
  9 21  1  0  0  0  0
  9 22  1  0  0  0  0
 10 14  1  0  0  0  0
 10 11  1  0  0  0  0
 10 23  1  0  0  0  0
 11 12  1  0  0  0  0
 11 24  1  0  0  0  0
 11 25  1  0  0  0  0
 12 13  1  0  0  0  0
 12 26  1  0  0  0  0
 12 27  1  0  0  0  0
 13 14  1  0  0  0  0
 13 28  1  0  0  0  0
 15 16  2  0  0  0  0
 15 29  1  0  0  0  0
M  END
> <s_m_source_file>
AV-unprocessed.smi

> <i_m_source_file_index>
2798

> <i_lp_mmshare_version>
43012

> <i_f3d_flags>
0

> <s_epik_input>
TiNDYzFbY0hdW2NIXWMoW2NIXW4xKVtOSF1bQ0BIXShbQ0gyXVtDQEBIXTIzKVtDQEBIXShPMylbQ0gyXVtDSDJdMg==

> <s_epik_cmdline>
J2VwaWtfcHl0aG9uJywgJy1waCcsICc3LjAnLCAnLXRuJywgJzgnLCAnLW1hJywgJzIwMCcsICctbWV0YWxfYmluZGluZycsICctaW1hZScsICc8aW5maWxlLm1hZT4nLCAnLW9tYWUnLCAnPG91dGZpbGUubWFlPic=

> <r_lp_tautomer_probability>
1

> <r_epik_Ionization_Penalty>
2.201e-07

> <r_epik_Ionization_Penalty_Charging>
0

> <r_epik_Ionization_Penalty_Neutral>
2.201e-07

> <r_epik_State_Penalty>
-0

> <r_epik_Charging_Adjusted_Penalty>
0

> <i_epik_Tot_Q>
0

> <i_epik_Tot_abs_Q>
0

> <r_epik_Metal_State_Penalty>
-0

> <b_epik_Metal_Only>
0

> <s_lp_Force_Field>
OPLS_2005

> <r_lp_Energy>
43.8811

> <b_lp_Chiralities_Consistent>
1

> <s_lp_Variant>
AV-unprocessed.smi:2798-3

> <Gold.Version>
5.8.1

> <Gold.Id.Protein>
6NUR|6NUR_protein|mol2

> <Gold.PLP.Fitness>
48.4218

> <Gold.PLP.PLP>
-37.5513

> <Gold.PLP.part.hbond>
-3.0000

> <Gold.PLP.part.metal>
0.0000

> <Gold.PLP.part.buried>
-4.5874

> <Gold.PLP.part.nonpolar>
-29.1241

> <Gold.PLP.part.repulsive>
0.5041

> <Gold.PLP.ligand.clash>
0.0000

> <Gold.PLP.ligand.torsion>
0.0858

> <Gold.PLP.Chemscore.Hbond>
2.8280

> <Gold.PLP.Chemscore.CHOScore>
0.8497

> <Gold.PLP.Chemscore.Metal>
0.0000

> <Gold.Chemscore.Hbonds>
donor molecule, donor type, donor heavy atom, donor atom, acceptor molecule, acceptor atom, score
      L1  H     7    19       P1  8028  1.00
      P1  H  7989  7998       L1    16  0.90
      P1  H 10752 10763       L1     1  0.91
      L1  C    15    29       P1  8028  0.88

> <Gold.PLP.Chemscore.Internal.Correction>
0.0090

> <Gold.Rescore>
     Score         DG    S(hbond)    S(metal)    S(lipo)     H(rot)  DE(clash)    DE(int)     intcor
     20.33     -21.07       2.09        0.00      95.34       1.00       0.07       0.67       ----

> <Gold.Chemscore.Fitness>
20.3278

> <Gold.Chemscore.DG>
-21.0658

> <Gold.Chemscore.ZeroCoef>
-5.4800

> <Gold.Chemscore.Hbond>
2.0930

> <Gold.Chemscore.Metal>
0.0000

> <Gold.Chemscore.Lipo>
95.3423

> <Gold.Chemscore.Internal_Hbond>
0.0000

> <Gold.Chemscore.DEClash>
0.0680

> <Gold.Chemscore.DEInternal>
0.6700

> <Gold.Chemscore.Rot>
1.0000

> <Gold.Chemscore.Internal.Correction>
   9.000000E+99

> <Gold.Chemscore.Hbonds>
donor molecule, donor type, donor heavy atom, donor atom, acceptor molecule, acceptor atom, score
      L1  H     7    19       P1  8028  0.97
      P1  H  7989  7998       L1    16  0.13
      P1  H 10752 10763       L1     1  0.85

> <Gold.Chemscore.Hbond.Weighted>
-6.9907

> <Gold.Chemscore.Metal.Weighted>
-0.0000

> <Gold.Chemscore.Lipo.Weighted>
-11.1550

> <Gold.Chemscore.Internal_Hbond.Weighted>
0.0000

> <Gold.Chemscore.DEClash.Weighted>
0.0680

> <Gold.Chemscore.DEInternal.Weighted>
0.6700

> <Gold.Chemscore.Rot.Weighted>
2.5600

> <Gold.Chemscore.Internal.Correction.Weighted>
   9.000000E+99

> <Gold.Protein.RotatedTorsions>
[ 6907 6896 6895 6894 ] final -156.83 input  -60.11 | X-H torsion
[ 7974 7965 7964 7962 ] final  143.66 input  175.53 | X-H torsion
[ 8008 7997 7996 7995 ] final   62.11 input   59.86 | X-H torsion
[ 10167 10162 10161 10158 ] final  132.08 input  -65.29 | X-H torsion
[ 10718 10713 10712 10709 ] final  -93.70 input   66.30 | X-H torsion
[ 10763 10752 10751 10750 ] final   32.48 input  -60.55 | X-H torsion
[ 11005 11000 10999 10996 ] final -136.59 input  -57.11 | X-H torsion

> <Gold.Protein.ActiveResidues>
 VAL166  LYS551  ARG553  GLY616  TRP617  ASP618  TYR619  PRO620  LYS621  CYS622 
 ASP623  PHE694  ASN695  SER759  ASP760  ASP761  ALA762  ILE779  LEU786  VAL792 
 PHE793  MET794  SER795  GLU796  ALA797  LYS798  CYS799  TRP800  GLU811  SER814 

> <Gold.Protein.RotatedAtoms>
  151.2935  133.4154  159.2634 H   0  0  0  0  0  0  0  0  0  0  0  0  # atno 6907 bound_to 6896
  151.0256  134.9502  159.8094 H   0  0  0  0  0  0  0  0  0  0  0  0  # atno 6908 bound_to 6896
  152.5334  134.2897  159.9091 H   0  0  0  0  0  0  0  0  0  0  0  0  # atno 6909 bound_to 6896
  144.8902  139.5570  143.5802 H   0  0  0  0  0  0  0  0  0  0  0  0  # atno 7974 bound_to 7965
  155.6091  140.3495  155.4617 H   0  0  0  0  0  0  0  0  0  0  0  0  # atno 8008 bound_to 7997
  156.0168  140.1245  157.0422 H   0  0  0  0  0  0  0  0  0  0  0  0  # atno 8009 bound_to 7997
  154.4300  140.1070  156.5894 H   0  0  0  0  0  0  0  0  0  0  0  0  # atno 8010 bound_to 7997
  139.5355  144.6678  151.4800 H   0  0  0  0  0  0  0  0  0  0  0  0  # atno 10167 bound_to 10162
  156.0017  130.5038  150.5816 H   0  0  0  0  0  0  0  0  0  0  0  0  # atno 10718 bound_to 10713
  153.0260  135.6412  154.1362 H   0  0  0  0  0  0  0  0  0  0  0  0  # atno 10763 bound_to 10752
  154.1091  135.2854  155.3236 H   0  0  0  0  0  0  0  0  0  0  0  0  # atno 10764 bound_to 10752
  154.6344  135.5481  153.7780 H   0  0  0  0  0  0  0  0  0  0  0  0  # atno 10765 bound_to 10752
  140.8790  134.1955  157.4603 H   0  0  0  0  0  0  0  0  0  0  0  0  # atno 11005 bound_to 11000
  146.3049  139.7546  142.9064 LP  0  0  0  0  0  0  0  0  0  0  0  0  # atno 17320 bound_to 7965
  145.3797  141.0356  143.3184 LP  0  0  0  0  0  0  0  0  0  0  0  0  # atno 17321 bound_to 7965
  140.6559  143.8600  150.6835 LP  0  0  0  0  0  0  0  0  0  0  0  0  # atno 17342 bound_to 10162
  140.1979  143.3983  152.1814 LP  0  0  0  0  0  0  0  0  0  0  0  0  # atno 17343 bound_to 10162
  157.3695  131.0763  151.1569 LP  0  0  0  0  0  0  0  0  0  0  0  0  # atno 17370 bound_to 10713
  157.2327  130.6533  149.5856 LP  0  0  0  0  0  0  0  0  0  0  0  0  # atno 17371 bound_to 10713
  139.8718  134.9809  156.5094 LP  0  0  0  0  0  0  0  0  0  0  0  0  # atno 17394 bound_to 11000
  140.8483  133.8151  155.9143 LP  0  0  0  0  0  0  0  0  0  0  0  0  # atno 17395 bound_to 11000

$$$$
