AV-unprocessed.smi:1042|AV-procd|sdf|4538|dock5
  -GOLD-   22720 2563D 1   1.00000     0.00000
 Structure written by MMmdl.
 40 42  0  0  0  0  0  0  0  0  2 V2000
  151.0643  141.0916  156.9195 O   0  0  0  0  0  0  0  0  0  0  0  0
  150.1203  141.8789  156.8496 C   0  0  0  0  0  0  0  0  0  0  0  0
  149.1661  141.8034  155.9103 N   0  0  0  0  0  0  0  0  0  0  0  0
  149.1130  140.8060  154.8458 C   0  0  0  0  0  0  0  0  0  0  0  0
  149.5809  139.4151  155.3177 C   0  0  2  0  0  0  0  0  0  0  0  0
  150.9225  138.9803  154.7363 C   0  0  0  0  0  0  0  0  0  0  0  0
  150.9039  137.4709  154.9619 C   0  0  0  0  0  0  0  0  0  0  0  0
  149.4983  137.0594  154.7584 N   0  3  1  0  0  0  0  0  0  0  0  0
  149.0920  135.8930  155.5712 C   0  0  0  0  0  0  0  0  0  0  0  0
  150.2429  134.9957  155.9590 C   0  0  0  0  0  0  0  0  0  0  0  0
  149.2846  134.5715  154.8668 C   0  0  0  0  0  0  0  0  0  0  0  0
  148.6439  138.2558  154.9459 C   0  0  0  0  0  0  0  0  0  0  0  0
  149.9034  142.9119  157.6827 N   0  0  0  0  0  0  0  0  0  0  0  0
  150.6654  143.2989  158.8171 C   0  0  0  0  0  0  0  0  0  0  0  0
  150.5615  144.6631  159.1709 C   0  0  0  0  0  0  0  0  0  0  0  0
  151.2771  145.1468  160.2835 C   0  0  0  0  0  0  0  0  0  0  0  0
  152.0767  144.2519  161.0162 C   0  0  0  0  0  0  0  0  0  0  0  0
  152.1234  142.9092  160.5978 C   0  0  0  0  0  0  0  0  0  0  0  0
  151.4391  142.4438  159.5313 N   0  0  0  0  0  0  0  0  0  0  0  0
  148.4320  142.4964  155.9222 H   0  0  0  0  0  0  0  0  0  0  0  0
  148.0845  140.7531  154.4875 H   0  0  0  0  0  0  0  0  0  0  0  0
  149.7168  141.1404  154.0006 H   0  0  0  0  0  0  0  0  0  0  0  0
  149.6877  139.4238  156.4039 H   0  0  0  0  0  0  0  0  0  0  0  0
  150.9650  139.1974  153.6678 H   0  0  0  0  0  0  0  0  0  0  0  0
  151.7714  139.4688  155.2158 H   0  0  0  0  0  0  0  0  0  0  0  0
  151.5780  136.9365  154.2921 H   0  0  0  0  0  0  0  0  0  0  0  0
  151.2088  137.2547  155.9874 H   0  0  0  0  0  0  0  0  0  0  0  0
  148.2532  136.0417  156.2493 H   0  0  0  0  0  0  0  0  0  0  0  0
  151.2481  135.2882  155.6607 H   0  0  0  0  0  0  0  0  0  0  0  0
  150.1743  134.4748  156.9120 H   0  0  0  0  0  0  0  0  0  0  0  0
  148.5860  133.7709  155.1005 H   0  0  0  0  0  0  0  0  0  0  0  0
  149.6528  134.5823  153.8423 H   0  0  0  0  0  0  0  0  0  0  0  0
  147.8771  138.1075  155.7082 H   0  0  0  0  0  0  0  0  0  0  0  0
  148.1331  138.4536  154.0027 H   0  0  0  0  0  0  0  0  0  0  0  0
  149.0968  143.4860  157.4871 H   0  0  0  0  0  0  0  0  0  0  0  0
  149.9421  145.3375  158.5974 H   0  0  0  0  0  0  0  0  0  0  0  0
  151.2126  146.1864  160.5693 H   0  0  0  0  0  0  0  0  0  0  0  0
  152.6397  144.5850  161.8755 H   0  0  0  0  0  0  0  0  0  0  0  0
  152.7255  142.1901  161.1328 H   0  0  0  0  0  0  0  0  0  0  0  0
  149.4081  136.7973  153.7872 H   0  0  0  0  0  0  0  0  0  0  0  0
  1  2  2  0  0  0  0
  2  3  1  0  0  0  0
  2 13  1  0  0  0  0
  3  4  1  0  0  0  0
  3 20  1  0  0  0  0
  4  5  1  0  0  0  0
  4 21  1  0  0  0  0
  4 22  1  0  0  0  0
  5 12  1  0  0  0  0
  5  6  1  0  0  0  0
  5 23  1  0  0  0  0
  6  7  1  0  0  0  0
  6 24  1  0  0  0  0
  6 25  1  0  0  0  0
  7  8  1  0  0  0  0
  7 26  1  0  0  0  0
  7 27  1  0  0  0  0
  8  9  1  0  0  0  0
  8 12  1  0  0  0  0
  8 40  1  0  0  0  0
  9 11  1  0  0  0  0
  9 10  1  0  0  0  0
  9 28  1  0  0  0  0
 10 11  1  0  0  0  0
 10 29  1  0  0  0  0
 10 30  1  0  0  0  0
 11 31  1  0  0  0  0
 11 32  1  0  0  0  0
 12 33  1  0  0  0  0
 12 34  1  0  0  0  0
 13 14  1  0  0  0  0
 13 35  1  0  0  0  0
 14 19  1  0  0  0  0
 14 15  2  0  0  0  0
 15 16  1  0  0  0  0
 15 36  1  0  0  0  0
 16 17  2  0  0  0  0
 16 37  1  0  0  0  0
 17 18  1  0  0  0  0
 17 38  1  0  0  0  0
 18 19  2  0  0  0  0
 18 39  1  0  0  0  0
M  CHG  1   8   1
M  END
> <s_m_source_file>
AV-unprocessed.smi

> <i_m_source_file_index>
1042

> <i_lp_mmshare_version>
43012

> <i_f3d_flags>
0

> <s_epik_input>
bjFbY0hdW2NIXVtjSF1bY0hdYzFbTkhdQyg9TylbTkhdW0NIMl1bQ0BASF0yW0NIMl1bQ0gyXU4oW0NIMl0yKVtDSF0zW0NIMl1bQ0gyXTM=

> <s_epik_cmdline>
J2VwaWtfcHl0aG9uJywgJy1waCcsICc3LjAnLCAnLXRuJywgJzgnLCAnLW1hJywgJzIwMCcsICctbWV0YWxfYmluZGluZycsICctaW1hZScsICc8aW5maWxlLm1hZT4nLCAnLW9tYWUnLCAnPG91dGZpbGUubWFlPic=

> <r_lp_tautomer_probability>
1

> <r_epik_Ionization_Penalty>
0.000244736

> <r_epik_Ionization_Penalty_Charging>
0.000203384

> <r_epik_Ionization_Penalty_Neutral>
4.13519e-05

> <r_epik_State_Penalty>
-0

> <r_epik_Charging_Adjusted_Penalty>
0.000203384

> <i_epik_Tot_Q>
1

> <i_epik_Tot_abs_Q>
1

> <r_epik_Metal_State_Penalty>
-0

> <b_epik_Metal_Only>
0

> <s_lp_Force_Field>
OPLS_2005

> <r_lp_Energy>
38.555

> <b_lp_Chiralities_Consistent>
1

> <s_lp_Variant>
AV-unprocessed.smi:1042-3

> <Gold.Version>
5.8.1

> <Gold.Id.Protein>
6NUR|6NUR_protein|mol2

> <Gold.PLP.Fitness>
48.9589

> <Gold.PLP.PLP>
-39.8269

> <Gold.PLP.part.hbond>
-3.0000

> <Gold.PLP.part.metal>
0.0000

> <Gold.PLP.part.buried>
-3.1157

> <Gold.PLP.part.nonpolar>
-33.0951

> <Gold.PLP.part.repulsive>
0.2221

> <Gold.PLP.ligand.clash>
0.0306

> <Gold.PLP.ligand.torsion>
1.8565

> <Gold.PLP.Chemscore.Hbond>
3.8720

> <Gold.PLP.Chemscore.CHOScore>
0.0000

> <Gold.PLP.Chemscore.Metal>
0.0000

> <Gold.Chemscore.Hbonds>
donor molecule, donor type, donor heavy atom, donor atom, acceptor molecule, acceptor atom, score
      L1  H     3    20       P1  8028  0.17
      L1  H     8    40       P1  7948  1.98
      L1  H    13    35       P1  8028  0.29

> <Gold.PLP.Chemscore.Internal.Correction>
1.2596

> <Gold.Rescore>
     Score         DG    S(hbond)    S(metal)    S(lipo)     H(rot)  DE(clash)    DE(int)     intcor
     16.78     -21.80       2.83        0.00      91.03       1.47       0.46       4.57       ----

> <Gold.Chemscore.Fitness>
16.7772

> <Gold.Chemscore.DG>
-21.8017

> <Gold.Chemscore.ZeroCoef>
-5.4800

> <Gold.Chemscore.Hbond>
2.8252

> <Gold.Chemscore.Metal>
0.0000

> <Gold.Chemscore.Lipo>
91.0295

> <Gold.Chemscore.Internal_Hbond>
0.0000

> <Gold.Chemscore.DEClash>
0.4565

> <Gold.Chemscore.DEInternal>
4.5680

> <Gold.Chemscore.Rot>
1.4707

> <Gold.Chemscore.Internal.Correction>
   9.000000E+99

> <Gold.Chemscore.Hbonds>
donor molecule, donor type, donor heavy atom, donor atom, acceptor molecule, acceptor atom, score
      L1  H     3    20       P1  8028  0.17
      L1  H     8    40       P1  7948  0.86
      L1  H    13    35       P1  8028  0.10

> <Gold.Chemscore.Hbond.Weighted>
-9.4363

> <Gold.Chemscore.Metal.Weighted>
-0.0000

> <Gold.Chemscore.Lipo.Weighted>
-10.6504

> <Gold.Chemscore.Internal_Hbond.Weighted>
0.0000

> <Gold.Chemscore.DEClash.Weighted>
0.4565

> <Gold.Chemscore.DEInternal.Weighted>
4.5680

> <Gold.Chemscore.Rot.Weighted>
3.7650

> <Gold.Chemscore.Internal.Correction.Weighted>
   9.000000E+99

> <Gold.Protein.RotatedTorsions>
[ 6907 6896 6895 6894 ] final   27.79 input  -60.11 | X-H torsion
[ 7974 7965 7964 7962 ] final  -66.00 input  175.53 | X-H torsion
[ 8008 7997 7996 7995 ] final    8.98 input   59.86 | X-H torsion
[ 10167 10162 10161 10158 ] final  129.24 input  -65.29 | X-H torsion
[ 10718 10713 10712 10709 ] final   59.83 input   66.30 | X-H torsion
[ 10763 10752 10751 10750 ] final  128.80 input  -60.55 | X-H torsion
[ 11005 11000 10999 10996 ] final  164.57 input  -57.11 | X-H torsion

> <Gold.Protein.ActiveResidues>
 VAL166  LYS551  ARG553  GLY616  TRP617  ASP618  TYR619  PRO620  LYS621  CYS622 
 ASP623  PHE694  ASN695  SER759  ASP760  ASP761  ALA762  ILE779  LEU786  VAL792 
 PHE793  MET794  SER795  GLU796  ALA797  LYS798  CYS799  TRP800  GLU811  SER814 

> <Gold.Protein.RotatedAtoms>
  152.0075  134.9895  160.0566 H   0  0  0  0  0  0  0  0  0  0  0  0  # atno 6907 bound_to 6896
  152.1461  133.4488  159.4798 H   0  0  0  0  0  0  0  0  0  0  0  0  # atno 6908 bound_to 6896
  150.6870  134.2165  159.4423 H   0  0  0  0  0  0  0  0  0  0  0  0  # atno 6909 bound_to 6896
  145.7473  140.8925  143.0498 H   0  0  0  0  0  0  0  0  0  0  0  0  # atno 7974 bound_to 7965
  154.7740  140.2807  155.6115 H   0  0  0  0  0  0  0  0  0  0  0  0  # atno 8008 bound_to 7997
  156.2939  140.2636  156.2478 H   0  0  0  0  0  0  0  0  0  0  0  0  # atno 8009 bound_to 7997
  154.9865  140.0374  157.2290 H   0  0  0  0  0  0  0  0  0  0  0  0  # atno 8010 bound_to 7997
  139.5487  144.6795  151.4390 H   0  0  0  0  0  0  0  0  0  0  0  0  # atno 10167 bound_to 10162
  157.5706  130.8905  149.9261 H   0  0  0  0  0  0  0  0  0  0  0  0  # atno 10718 bound_to 10713
  153.7315  135.3238  155.3286 H   0  0  0  0  0  0  0  0  0  0  0  0  # atno 10763 bound_to 10752
  154.8324  135.4523  154.1117 H   0  0  0  0  0  0  0  0  0  0  0  0  # atno 10764 bound_to 10752
  153.2266  135.6955  153.8019 H   0  0  0  0  0  0  0  0  0  0  0  0  # atno 10765 bound_to 10752
  140.2473  134.8004  157.3468 H   0  0  0  0  0  0  0  0  0  0  0  0  # atno 11005 bound_to 11000
  144.6857  139.9542  143.7479 LP  0  0  0  0  0  0  0  0  0  0  0  0  # atno 17320 bound_to 7965
  146.0391  139.3405  143.0708 LP  0  0  0  0  0  0  0  0  0  0  0  0  # atno 17321 bound_to 7965
  140.6744  143.8223  150.7039 LP  0  0  0  0  0  0  0  0  0  0  0  0  # atno 17342 bound_to 10162
  140.1657  143.4237  152.2036 LP  0  0  0  0  0  0  0  0  0  0  0  0  # atno 17343 bound_to 10162
  156.0752  130.3680  150.0693 LP  0  0  0  0  0  0  0  0  0  0  0  0  # atno 17370 bound_to 10713
  156.8846  130.9568  151.3595 LP  0  0  0  0  0  0  0  0  0  0  0  0  # atno 17371 bound_to 10713
  140.1593  134.4749  155.7906 LP  0  0  0  0  0  0  0  0  0  0  0  0  # atno 17394 bound_to 11000
  141.2205  133.6894  156.7516 LP  0  0  0  0  0  0  0  0  0  0  0  0  # atno 17395 bound_to 11000

$$$$
