AV-unprocessed.smi:2734|AV-procd|sdf|10540|dock10
  -GOLD-   2272014583D 1   1.00000     0.00000
 Structure written by MMmdl.
 41 43  0  0  0  0  0  0  0  0  2 V2000
  151.9252  143.5659  160.5167 C   0  0  0  0  0  0  0  0  0  0  0  0
  151.8753  142.6311  159.3201 C   0  0  0  0  0  0  0  0  0  0  0  0
  150.9763  142.9265  158.2707 C   0  0  0  0  0  0  0  0  0  0  0  0
  150.9504  142.0507  157.1918 C   0  0  0  0  0  0  0  0  0  0  0  0
  150.1845  142.0616  156.0243 N   0  3  0  0  0  0  0  0  0  0  0  0
  150.5068  140.9824  155.2590 C   0  0  0  0  0  0  0  0  0  0  0  0
  151.4675  140.2819  155.9203 N   0  0  0  0  0  0  0  0  0  0  0  0
  152.1490  139.0378  155.5352 C   0  0  0  0  0  0  0  0  0  0  0  0
  151.2106  138.0209  154.8539 C   0  0  1  0  0  0  0  0  0  0  0  0
  151.9284  137.4136  153.7997 O   0  0  0  0  0  0  0  0  0  0  0  0
  150.6768  136.9313  155.8018 C   0  0  0  0  0  0  0  0  0  0  0  0
  149.9044  135.5483  154.9098 S   0  0  0  0  0  0  0  0  0  0  0  0
  150.4934  134.2030  155.8923 C   0  0  0  0  0  0  0  0  0  0  0  0
  151.1271  134.2910  157.0569 N   0  0  0  0  0  0  0  0  0  0  0  0
  151.3649  132.9762  157.4087 N   0  0  0  0  0  0  0  0  0  0  0  0
  150.9026  132.1568  156.5097 N   0  0  0  0  0  0  0  0  0  0  0  0
  150.3453  132.9203  155.5386 N   0  0  0  0  0  0  0  0  0  0  0  0
  149.7283  132.3184  154.3733 C   0  0  0  0  0  0  0  0  0  0  0  0
  151.7805  140.9145  157.1303 C   0  0  0  0  0  0  0  0  0  0  0  0
  152.6750  140.6116  158.1548 C   0  0  0  0  0  0  0  0  0  0  0  0
  152.7154  141.4891  159.2614 C   0  0  0  0  0  0  0  0  0  0  0  0
  153.6799  141.1803  160.3939 C   0  0  0  0  0  0  0  0  0  0  0  0
  151.1478  144.3282  160.4596 H   0  0  0  0  0  0  0  0  0  0  0  0
  152.8893  144.0730  160.5633 H   0  0  0  0  0  0  0  0  0  0  0  0
  151.7788  143.0131  161.4449 H   0  0  0  0  0  0  0  0  0  0  0  0
  150.3343  143.7947  158.3076 H   0  0  0  0  0  0  0  0  0  0  0  0
  150.0753  140.7263  154.3020 H   0  0  0  0  0  0  0  0  0  0  0  0
  152.9549  139.3131  154.8535 H   0  0  0  0  0  0  0  0  0  0  0  0
  152.6296  138.6049  156.4127 H   0  0  0  0  0  0  0  0  0  0  0  0
  150.3663  138.5563  154.4182 H   0  0  0  0  0  0  0  0  0  0  0  0
  151.3109  137.1165  153.1483 H   0  0  0  0  0  0  0  0  0  0  0  0
  151.4823  136.5491  156.4299 H   0  0  0  0  0  0  0  0  0  0  0  0
  149.9206  137.3528  156.4634 H   0  0  0  0  0  0  0  0  0  0  0  0
  148.6729  132.5890  154.3371 H   0  0  0  0  0  0  0  0  0  0  0  0
  149.8139  131.2317  154.4120 H   0  0  0  0  0  0  0  0  0  0  0  0
  150.2209  132.6798  153.4702 H   0  0  0  0  0  0  0  0  0  0  0  0
  153.3114  139.7403  158.1168 H   0  0  0  0  0  0  0  0  0  0  0  0
  154.3122  140.3240  160.1577 H   0  0  0  0  0  0  0  0  0  0  0  0
  153.1326  140.9492  161.3080 H   0  0  0  0  0  0  0  0  0  0  0  0
  154.3334  142.0313  160.5863 H   0  0  0  0  0  0  0  0  0  0  0  0
  149.4905  142.7518  155.7673 H   0  0  0  0  0  0  0  0  0  0  0  0
  1  2  1  0  0  0  0
  1 23  1  0  0  0  0
  1 24  1  0  0  0  0
  1 25  1  0  0  0  0
  2 21  1  0  0  0  0
  2  3  2  0  0  0  0
  3  4  1  0  0  0  0
  3 26  1  0  0  0  0
  4 19  2  0  0  0  0
  4  5  1  0  0  0  0
  5  6  2  0  0  0  0
  5 41  1  0  0  0  0
  6  7  1  0  0  0  0
  6 27  1  0  0  0  0
  7  8  1  0  0  0  0
  7 19  1  0  0  0  0
  8  9  1  0  0  0  0
  8 28  1  0  0  0  0
  8 29  1  0  0  0  0
  9 10  1  0  0  0  0
  9 11  1  0  0  0  0
  9 30  1  0  0  0  0
 10 31  1  0  0  0  0
 11 12  1  0  0  0  0
 11 32  1  0  0  0  0
 11 33  1  0  0  0  0
 12 13  1  0  0  0  0
 13 17  1  0  0  0  0
 13 14  2  0  0  0  0
 14 15  1  0  0  0  0
 15 16  2  0  0  0  0
 16 17  1  0  0  0  0
 17 18  1  0  0  0  0
 18 34  1  0  0  0  0
 18 35  1  0  0  0  0
 18 36  1  0  0  0  0
 19 20  1  0  0  0  0
 20 21  2  0  0  0  0
 20 37  1  0  0  0  0
 21 22  1  0  0  0  0
 22 38  1  0  0  0  0
 22 39  1  0  0  0  0
 22 40  1  0  0  0  0
M  CHG  1   5   1
M  END
> <s_m_source_file>
AV-unprocessed.smi

> <i_m_source_file_index>
2734

> <i_lp_mmshare_version>
43012

> <i_f3d_flags>
0

> <s_epik_input>
W0NIM11jKFtjSF0xKWMoW0NIM10pW2NIXWMoYzEyKW4oW2NIXW4yKVtDSDJdW0NASF0oW09IXSlbQ0gyXVNjM25ubm4zW0NIM10=

> <s_epik_cmdline>
J2VwaWtfcHl0aG9uJywgJy1waCcsICc3LjAnLCAnLXRuJywgJzgnLCAnLW1hJywgJzIwMCcsICctbWV0YWxfYmluZGluZycsICctaW1hZScsICc8aW5maWxlLm1hZT4nLCAnLW9tYWUnLCAnPG91dGZpbGUubWFlPic=

> <r_lp_tautomer_probability>
1

> <r_epik_Ionization_Penalty>
1.07429

> <r_epik_Ionization_Penalty_Charging>
1.07429

> <r_epik_Ionization_Penalty_Neutral>
3.30514e-06

> <r_epik_State_Penalty>
1.12915

> <r_epik_Charging_Adjusted_Penalty>
2.20344

> <i_epik_Tot_Q>
1

> <i_epik_Tot_abs_Q>
1

> <r_epik_Metal_State_Penalty>
1.22002

> <b_epik_Metal_Only>
0

> <s_lp_Force_Field>
OPLS_2005

> <r_lp_Energy>
15.3116

> <b_lp_Chiralities_Consistent>
1

> <s_lp_Variant>
AV-unprocessed.smi:2734-4

> <Gold.Version>
5.8.1

> <Gold.Id.Protein>
6NUR|6NUR_protein|mol2

> <Gold.PLP.Fitness>
54.1547

> <Gold.PLP.PLP>
-43.4500

> <Gold.PLP.part.hbond>
-5.0000

> <Gold.PLP.part.metal>
0.0000

> <Gold.PLP.part.buried>
-3.6946

> <Gold.PLP.part.nonpolar>
-34.3968

> <Gold.PLP.part.repulsive>
0.1130

> <Gold.PLP.ligand.clash>
0.0000

> <Gold.PLP.ligand.torsion>
1.2946

> <Gold.PLP.Chemscore.Hbond>
4.4146

> <Gold.PLP.Chemscore.CHOScore>
0.0000

> <Gold.PLP.Chemscore.Metal>
0.0000

> <Gold.Chemscore.Hbonds>
donor molecule, donor type, donor heavy atom, donor atom, acceptor molecule, acceptor atom, score
      L1  H     5    41       P1  8028  1.85
      L1  H    10    31       P1  7949  0.85
      P1  H  6896  6907       L1    15  0.60
      P1  H 10752 10764       L1    10  0.99

> <Gold.PLP.Chemscore.Internal.Correction>
0.0501

> <Gold.Rescore>
     Score         DG    S(hbond)    S(metal)    S(lipo)     H(rot)  DE(clash)    DE(int)     intcor
     13.86     -15.61       1.74        0.00     100.70       2.92       0.30       1.45       ----

> <Gold.Chemscore.Fitness>
13.8610

> <Gold.Chemscore.DG>
-15.6092

> <Gold.Chemscore.ZeroCoef>
-5.4800

> <Gold.Chemscore.Hbond>
1.7403

> <Gold.Chemscore.Metal>
0.0000

> <Gold.Chemscore.Lipo>
100.7045

> <Gold.Chemscore.Internal_Hbond>
0.0000

> <Gold.Chemscore.DEClash>
0.2969

> <Gold.Chemscore.DEInternal>
1.4514

> <Gold.Chemscore.Rot>
2.9164

> <Gold.Chemscore.Internal.Correction>
   9.000000E+99

> <Gold.Chemscore.Hbonds>
donor molecule, donor type, donor heavy atom, donor atom, acceptor molecule, acceptor atom, score
      L1  H     5    41       P1  8028  0.84
      L1  H    10    31       P1  7949  0.55
      P1  H  6896  6907       L1    15  0.07
      P1  H 10752 10764       L1    10  0.22

> <Gold.Chemscore.Hbond.Weighted>
-5.8127

> <Gold.Chemscore.Metal.Weighted>
-0.0000

> <Gold.Chemscore.Lipo.Weighted>
-11.7824

> <Gold.Chemscore.Internal_Hbond.Weighted>
0.0000

> <Gold.Chemscore.DEClash.Weighted>
0.2969

> <Gold.Chemscore.DEInternal.Weighted>
1.4514

> <Gold.Chemscore.Rot.Weighted>
7.4660

> <Gold.Chemscore.Internal.Correction.Weighted>
   9.000000E+99

> <Gold.Protein.RotatedTorsions>
[ 6907 6896 6895 6894 ] final -177.12 input  -60.11 | X-H torsion
[ 7974 7965 7964 7962 ] final   17.90 input  175.53 | X-H torsion
[ 8008 7997 7996 7995 ] final  -45.89 input   59.86 | X-H torsion
[ 10167 10162 10161 10158 ] final  -70.76 input  -65.29 | X-H torsion
[ 10718 10713 10712 10709 ] final  171.81 input   66.30 | X-H torsion
[ 10763 10752 10751 10750 ] final  -91.39 input  -60.55 | X-H torsion
[ 11005 11000 10999 10996 ] final   24.25 input  -57.11 | X-H torsion

> <Gold.Protein.ActiveResidues>
 VAL166  LYS551  ARG553  GLY616  TRP617  ASP618  TYR619  PRO620  LYS621  CYS622 
 ASP623  PHE694  ASN695  SER759  ASP760  ASP761  ALA762  ILE779  LEU786  VAL792 
 PHE793  MET794  SER795  GLU796  ALA797  LYS798  CYS799  TRP800  GLU811  SER814 

> <Gold.Protein.RotatedAtoms>
  151.6158  133.3343  159.3077 H   0  0  0  0  0  0  0  0  0  0  0  0  # atno 6907 bound_to 6896
  150.8132  134.7302  159.6718 H   0  0  0  0  0  0  0  0  0  0  0  0  # atno 6908 bound_to 6896
  152.4228  134.5928  160.0030 H   0  0  0  0  0  0  0  0  0  0  0  0  # atno 6909 bound_to 6896
  146.2203  139.8535  142.8618 H   0  0  0  0  0  0  0  0  0  0  0  0  # atno 7974 bound_to 7965
  154.4003  140.1385  156.3922 H   0  0  0  0  0  0  0  0  0  0  0  0  # atno 8008 bound_to 7997
  155.7903  140.3479  155.5325 H   0  0  0  0  0  0  0  0  0  0  0  0  # atno 8009 bound_to 7997
  155.8585  140.0953  157.1619 H   0  0  0  0  0  0  0  0  0  0  0  0  # atno 8010 bound_to 7997
  140.5327  143.2320  151.7233 H   0  0  0  0  0  0  0  0  0  0  0  0  # atno 10167 bound_to 10162
  156.9882  131.0139  151.2864 H   0  0  0  0  0  0  0  0  0  0  0  0  # atno 10718 bound_to 10713
  154.6756  135.5269  153.8195 H   0  0  0  0  0  0  0  0  0  0  0  0  # atno 10763 bound_to 10752
  153.0530  135.6539  154.0657 H   0  0  0  0  0  0  0  0  0  0  0  0  # atno 10764 bound_to 10752
  154.0550  135.2966  155.3314 H   0  0  0  0  0  0  0  0  0  0  0  0  # atno 10765 bound_to 10752
  140.3607  134.2128  155.7672 H   0  0  0  0  0  0  0  0  0  0  0  0  # atno 11005 bound_to 11000
  145.2777  141.0129  143.3735 LP  0  0  0  0  0  0  0  0  0  0  0  0  # atno 17320 bound_to 7965
  144.9174  139.4453  143.6557 LP  0  0  0  0  0  0  0  0  0  0  0  0  # atno 17321 bound_to 7965
  139.4960  144.4090  152.0101 LP  0  0  0  0  0  0  0  0  0  0  0  0  # atno 17342 bound_to 10162
  140.3193  144.3447  150.6013 LP  0  0  0  0  0  0  0  0  0  0  0  0  # atno 17343 bound_to 10162
  157.5478  130.8162  149.8107 LP  0  0  0  0  0  0  0  0  0  0  0  0  # atno 17370 bound_to 10713
  156.0218  130.3793  150.1941 LP  0  0  0  0  0  0  0  0  0  0  0  0  # atno 17371 bound_to 10713
  141.1985  133.8034  157.0581 LP  0  0  0  0  0  0  0  0  0  0  0  0  # atno 17394 bound_to 11000
  140.0629  134.9745  157.1335 LP  0  0  0  0  0  0  0  0  0  0  0  0  # atno 17395 bound_to 11000

$$$$
