AV-unprocessed.smi:623|AV-procd|sdf|3094|dock1
  -GOLD-   22720 0 13D 1   1.00000     0.00000
 Structure written by MMmdl.
 45 47  0  0  0  0  0  0  0  0  1 V2000
  150.2471  141.8438  155.6917 C   0  0  0  0  0  0  0  0  0  0  0  0
  149.0437  140.8835  155.9093 C   0  0  0  0  0  0  0  0  0  0  0  0
  149.2958  140.2109  157.2877 C   0  0  0  0  0  0  0  0  0  0  0  0
  147.6673  141.5648  155.7745 C   0  0  1  0  0  0  0  0  0  0  0  0
  147.6243  142.0156  154.2963 C   0  0  0  0  0  0  0  0  0  0  0  0
  148.3983  140.8916  153.5796 C   0  0  0  0  0  0  0  0  0  0  0  0
  148.7277  139.9115  154.7397 C   0  0  1  0  0  0  0  0  0  0  0  0
  149.8426  138.9128  154.3834 C   0  0  0  0  0  0  0  0  0  0  0  0
  147.3970  139.2331  155.2034 C   0  0  2  0  0  0  0  0  0  0  0  0
  146.5813  138.7040  154.1119 N   0  0  0  0  0  0  0  0  0  0  0  0
  146.4987  137.4146  153.7522 C   0  0  0  0  0  0  0  0  0  0  0  0
  147.0641  136.5013  154.3529 O   0  0  0  0  0  0  0  0  0  0  0  0
  145.6589  137.1153  152.5077 C   0  0  0  0  0  0  0  0  0  0  0  0
  144.4445  136.3687  152.8625 N   0  0  0  0  0  0  0  0  0  0  0  0
  143.1945  136.9240  152.6273 C   0  0  0  0  0  0  0  0  0  0  0  0
  142.0311  136.2893  152.9044 C   0  0  0  0  0  0  0  0  0  0  0  0
  142.0405  134.9498  153.4817 C   0  0  0  0  0  0  0  0  0  0  0  0
  141.0414  134.2945  153.7699 O   0  0  0  0  0  0  0  0  0  0  0  0
  143.3160  134.4236  153.7009 N   0  0  0  0  0  0  0  0  0  0  0  0
  144.5191  135.0714  153.4154 C   0  0  0  0  0  0  0  0  0  0  0  0
  145.5904  134.5117  153.6443 O   0  0  0  0  0  0  0  0  0  0  0  0
  146.6695  140.3953  155.9174 C   0  0  0  0  0  0  0  0  0  0  0  0
  143.3725  133.4966  154.0970 H   0  0  0  0  0  0  0  0  0  0  0  0
  150.3086  142.5682  156.5045 H   0  0  0  0  0  0  0  0  0  0  0  0
  150.2178  142.4221  154.7712 H   0  0  0  0  0  0  0  0  0  0  0  0
  151.1877  141.2927  155.6841 H   0  0  0  0  0  0  0  0  0  0  0  0
  148.5410  139.4922  157.5986 H   0  0  0  0  0  0  0  0  0  0  0  0
  149.3487  140.9614  158.0770 H   0  0  0  0  0  0  0  0  0  0  0  0
  150.2470  139.6780  157.2891 H   0  0  0  0  0  0  0  0  0  0  0  0
  147.4836  142.3763  156.4793 H   0  0  0  0  0  0  0  0  0  0  0  0
  146.6041  142.1130  153.9235 H   0  0  0  0  0  0  0  0  0  0  0  0
  148.1096  142.9816  154.1550 H   0  0  0  0  0  0  0  0  0  0  0  0
  147.8250  140.4440  152.7681 H   0  0  0  0  0  0  0  0  0  0  0  0
  149.3060  141.2797  153.1173 H   0  0  0  0  0  0  0  0  0  0  0  0
  149.5662  138.3081  153.5196 H   0  0  0  0  0  0  0  0  0  0  0  0
  150.0460  138.2324  155.2106 H   0  0  0  0  0  0  0  0  0  0  0  0
  150.7728  139.4242  154.1369 H   0  0  0  0  0  0  0  0  0  0  0  0
  147.5952  138.4328  155.9181 H   0  0  0  0  0  0  0  0  0  0  0  0
  146.0770  139.3803  153.5576 H   0  0  0  0  0  0  0  0  0  0  0  0
  145.4109  138.0497  152.0005 H   0  0  0  0  0  0  0  0  0  0  0  0
  146.2575  136.5525  151.7893 H   0  0  0  0  0  0  0  0  0  0  0  0
  143.1394  137.9131  152.1949 H   0  0  0  0  0  0  0  0  0  0  0  0
  141.0885  136.7748  152.6968 H   0  0  0  0  0  0  0  0  0  0  0  0
  146.4830  140.1576  156.9649 H   0  0  0  0  0  0  0  0  0  0  0  0
  145.7003  140.6314  155.4753 H   0  0  0  0  0  0  0  0  0  0  0  0
  1  2  1  0  0  0  0
  1 24  1  0  0  0  0
  1 25  1  0  0  0  0
  1 26  1  0  0  0  0
  2  7  1  0  0  0  0
  2  3  1  0  0  0  0
  2  4  1  0  0  0  0
  3 27  1  0  0  0  0
  3 28  1  0  0  0  0
  3 29  1  0  0  0  0
  4 22  1  0  0  0  0
  4  5  1  0  0  0  0
  4 30  1  0  0  0  0
  5  6  1  0  0  0  0
  5 31  1  0  0  0  0
  5 32  1  0  0  0  0
  6  7  1  0  0  0  0
  6 33  1  0  0  0  0
  6 34  1  0  0  0  0
  7  8  1  0  0  0  0
  7  9  1  0  0  0  0
  8 35  1  0  0  0  0
  8 36  1  0  0  0  0
  8 37  1  0  0  0  0
  9 10  1  0  0  0  0
  9 22  1  0  0  0  0
  9 38  1  0  0  0  0
 10 11  1  0  0  0  0
 10 39  1  0  0  0  0
 11 12  2  0  0  0  0
 11 13  1  0  0  0  0
 13 14  1  0  0  0  0
 13 40  1  0  0  0  0
 13 41  1  0  0  0  0
 14 20  1  0  0  0  0
 14 15  1  0  0  0  0
 15 16  2  0  0  0  0
 15 42  1  0  0  0  0
 16 17  1  0  0  0  0
 16 43  1  0  0  0  0
 17 18  2  0  0  0  0
 17 19  1  0  0  0  0
 19 23  1  0  0  0  0
 19 20  1  0  0  0  0
 20 21  2  0  0  0  0
 22 44  1  0  0  0  0
 22 45  1  0  0  0  0
M  END
> <s_m_source_file>
AV-unprocessed.smi

> <i_m_source_file_index>
623

> <i_lp_mmshare_version>
43012

> <i_f3d_flags>
0

> <s_epik_input>
W0NIM11bQ0BdMTJDKFtDSDNdKShbQ0gzXSlbQ0BIXShbQ0gyXVtDSDJdMSlbQ0gyXVtDQEBIXTJbTkhdQyg9TylbQ0gyXW4zW2NIXVtjSF1jKD1PKVtuSF1jMz1P

> <s_epik_cmdline>
J2VwaWtfcHl0aG9uJywgJy1waCcsICc3LjAnLCAnLXRuJywgJzgnLCAnLW1hJywgJzIwMCcsICctbWV0YWxfYmluZGluZycsICctaW1hZScsICc8aW5maWxlLm1hZT4nLCAnLW9tYWUnLCAnPG91dGZpbGUubWFlPic=

> <r_lp_tautomer_probability>
0.999537

> <r_epik_Ionization_Penalty>
0.00303563

> <r_epik_Ionization_Penalty_Charging>
0.00303561

> <r_epik_Ionization_Penalty_Neutral>
2.03238e-08

> <r_epik_State_Penalty>
0.00213308

> <r_epik_Charging_Adjusted_Penalty>
0.00516869

> <i_epik_Tot_Q>
0

> <i_epik_Tot_abs_Q>
0

> <r_epik_Metal_State_Penalty>
0.361714

> <b_epik_Metal_Only>
0

> <s_lp_Force_Field>
OPLS_2005

> <r_lp_Energy>
57.3757

> <b_lp_Chiralities_Consistent>
1

> <s_lp_Variant>
AV-unprocessed.smi:623-4

> <Gold.Version>
5.8.1

> <Gold.Id.Protein>
6NUR|6NUR_protein|mol2

> <Gold.PLP.Fitness>
38.4173

> <Gold.PLP.PLP>
-27.3129

> <Gold.PLP.part.hbond>
-3.0000

> <Gold.PLP.part.metal>
0.0000

> <Gold.PLP.part.buried>
-2.7832

> <Gold.PLP.part.nonpolar>
-21.5480

> <Gold.PLP.part.repulsive>
0.3970

> <Gold.PLP.ligand.clash>
0.0000

> <Gold.PLP.ligand.torsion>
0.3672

> <Gold.PLP.Chemscore.Hbond>
2.0000

> <Gold.PLP.Chemscore.CHOScore>
1.9378

> <Gold.PLP.Chemscore.Metal>
0.0000

> <Gold.Chemscore.Hbonds>
donor molecule, donor type, donor heavy atom, donor atom, acceptor molecule, acceptor atom, score
      L1  H    19    23       P1 10957  1.00
      P1  H 10995 11001       L1    18  0.01
      P1  H 11000 11005       L1    18  1.00
      L1  C    15    42       P1 10171  0.87
      L1  C    15    42       P1 10175  0.89

> <Gold.PLP.Chemscore.Internal.Correction>
0.0254

> <Gold.Rescore>
     Score         DG    S(hbond)    S(metal)    S(lipo)     H(rot)  DE(clash)    DE(int)     intcor
     11.65     -14.76       1.98        0.00      59.25       1.66       0.10       3.01       ----

> <Gold.Chemscore.Fitness>
11.6502

> <Gold.Chemscore.DG>
-14.7647

> <Gold.Chemscore.ZeroCoef>
-5.4800

> <Gold.Chemscore.Hbond>
1.9801

> <Gold.Chemscore.Metal>
0.0000

> <Gold.Chemscore.Lipo>
59.2543

> <Gold.Chemscore.Internal_Hbond>
0.0000

> <Gold.Chemscore.DEClash>
0.1008

> <Gold.Chemscore.DEInternal>
3.0137

> <Gold.Chemscore.Rot>
1.6647

> <Gold.Chemscore.Internal.Correction>
   9.000000E+99

> <Gold.Chemscore.Hbonds>
donor molecule, donor type, donor heavy atom, donor atom, acceptor molecule, acceptor atom, score
      L1  H    19    23       P1 10957  0.95
      P1  H 10995 11001       L1    18  0.03
      P1  H 11000 11005       L1    18  0.91

> <Gold.Chemscore.Hbond.Weighted>
-6.6137

> <Gold.Chemscore.Metal.Weighted>
-0.0000

> <Gold.Chemscore.Lipo.Weighted>
-6.9327

> <Gold.Chemscore.Internal_Hbond.Weighted>
0.0000

> <Gold.Chemscore.DEClash.Weighted>
0.1008

> <Gold.Chemscore.DEInternal.Weighted>
3.0137

> <Gold.Chemscore.Rot.Weighted>
4.2617

> <Gold.Chemscore.Internal.Correction.Weighted>
   9.000000E+99

> <Gold.Protein.RotatedTorsions>
[ 6907 6896 6895 6894 ] final   18.66 input  -60.11 | X-H torsion
[ 7974 7965 7964 7962 ] final   24.54 input  175.53 | X-H torsion
[ 8008 7997 7996 7995 ] final -163.18 input   59.86 | X-H torsion
[ 10167 10162 10161 10158 ] final  167.12 input  -65.29 | X-H torsion
[ 10718 10713 10712 10709 ] final   18.33 input   66.30 | X-H torsion
[ 10763 10752 10751 10750 ] final  -32.35 input  -60.55 | X-H torsion
[ 11005 11000 10999 10996 ] final   20.45 input  -57.11 | X-H torsion

> <Gold.Protein.ActiveResidues>
 VAL166  LYS551  ARG553  GLY616  TRP617  ASP618  TYR619  PRO620  LYS621  CYS622 
 ASP623  PHE694  ASN695  SER759  ASP760  ASP761  ALA762  ILE779  LEU786  VAL792 
 PHE793  MET794  SER795  GLU796  ALA797  LYS798  CYS799  TRP800  GLU811  SER814 

> <Gold.Protein.RotatedAtoms>
  151.8688  135.0497  160.0476 H   0  0  0  0  0  0  0  0  0  0  0  0  # atno 6907 bound_to 6896
  152.2605  133.5289  159.5387 H   0  0  0  0  0  0  0  0  0  0  0  0  # atno 6908 bound_to 6896
  150.7115  134.0752  159.3921 H   0  0  0  0  0  0  0  0  0  0  0  0  # atno 6909 bound_to 6896
  146.1932  139.7591  142.8816 H   0  0  0  0  0  0  0  0  0  0  0  0  # atno 7974 bound_to 7965
  155.8176  140.0915  157.1868 H   0  0  0  0  0  0  0  0  0  0  0  0  # atno 8008 bound_to 7997
  154.3979  140.1443  156.3521 H   0  0  0  0  0  0  0  0  0  0  0  0  # atno 8009 bound_to 7997
  155.8300  140.3443  155.5569 H   0  0  0  0  0  0  0  0  0  0  0  0  # atno 8010 bound_to 7997
  139.4938  144.3956  151.9468 H   0  0  0  0  0  0  0  0  0  0  0  0  # atno 10167 bound_to 10162
  157.0948  130.6443  149.5857 H   0  0  0  0  0  0  0  0  0  0  0  0  # atno 10718 bound_to 10713
  153.8124  135.6881  153.4839 H   0  0  0  0  0  0  0  0  0  0  0  0  # atno 10763 bound_to 10752
  153.1620  135.4576  154.9784 H   0  0  0  0  0  0  0  0  0  0  0  0  # atno 10764 bound_to 10752
  154.7962  135.3320  154.7603 H   0  0  0  0  0  0  0  0  0  0  0  0  # atno 10765 bound_to 10752
  140.4025  134.1703  155.7664 H   0  0  0  0  0  0  0  0  0  0  0  0  # atno 11005 bound_to 11000
  145.3725  141.0345  143.3223 LP  0  0  0  0  0  0  0  0  0  0  0  0  # atno 17320 bound_to 7965
  144.8529  139.5295  143.6848 LP  0  0  0  0  0  0  0  0  0  0  0  0  # atno 17321 bound_to 7965
  140.3394  144.3222  150.5970 LP  0  0  0  0  0  0  0  0  0  0  0  0  # atno 17342 bound_to 10162
  140.5579  143.2196  151.7816 LP  0  0  0  0  0  0  0  0  0  0  0  0  # atno 17343 bound_to 10162
  155.9889  130.4934  150.7189 LP  0  0  0  0  0  0  0  0  0  0  0  0  # atno 17370 bound_to 10713
  157.4691  131.0891  151.0662 LP  0  0  0  0  0  0  0  0  0  0  0  0  # atno 17371 bound_to 10713
  141.1851  133.8329  157.1115 LP  0  0  0  0  0  0  0  0  0  0  0  0  # atno 17394 bound_to 11000
  140.0326  134.9894  157.0809 LP  0  0  0  0  0  0  0  0  0  0  0  0  # atno 17395 bound_to 11000

$$$$
