AV-unprocessed.smi:34|AV-procd|sdf|222|dock9
  -GOLD-   2262015543D 1   1.00000     0.00000
 Structure written by MMmdl.
 55 59  0  0  0  0  0  0  0  0  1 V2000
  145.5750  133.0959  151.5445 O   0  0  0  0  0  0  0  0  0  0  0  0
  145.9627  132.5170  152.5599 C   0  0  0  0  0  0  0  0  0  0  0  0
  146.1489  133.2111  153.8211 N   0  0  0  0  0  0  0  0  0  0  0  0
  146.0273  134.5361  154.0676 C   0  0  0  0  0  0  0  0  0  0  0  0
  144.8780  135.2199  153.8239 N   0  0  0  0  0  0  0  0  0  0  0  0
  144.8073  136.5302  154.0786 C   0  0  0  0  0  0  0  0  0  0  0  0
  145.7520  137.3378  154.5666 N   0  0  0  0  0  0  0  0  0  0  0  0
  146.9092  136.6569  154.8072 C   0  0  0  0  0  0  0  0  0  0  0  0
  147.1272  135.2701  154.5823 C   0  0  0  0  0  0  0  0  0  0  0  0
  148.4272  134.9360  154.9390 N   0  0  0  0  0  0  0  0  0  0  0  0
  148.9407  136.0625  155.3563 C   0  0  0  0  0  0  0  0  0  0  0  0
  148.0940  137.1509  155.3058 N   0  0  0  0  0  0  0  0  0  0  0  0
  148.3393  138.5738  155.7108 C   0  0  1  0  0  0  0  0  0  0  0  0
  149.6296  138.6680  156.2365 O   0  0  0  0  0  0  0  0  0  0  0  0
  150.4988  139.1967  155.2436 C   0  0  2  0  0  0  0  0  0  0  0  0
  151.7840  139.7442  155.8736 C   0  0  0  0  0  0  0  0  0  0  0  0
  151.4340  140.5956  156.9521 O   0  0  0  0  0  0  0  0  0  0  0  0
  152.2998  140.7966  157.9635 C   0  0  0  0  0  0  0  0  0  0  0  0
  153.1240  139.9578  158.3330 O   0  0  0  0  0  0  0  0  0  0  0  0
  152.1547  142.1416  158.5915 C   0  0  0  0  0  0  0  0  0  0  0  0
  151.4793  143.1660  157.8877 C   0  0  0  0  0  0  0  0  0  0  0  0
  151.3284  144.4466  158.4543 C   0  0  0  0  0  0  0  0  0  0  0  0
  151.8516  144.7188  159.7318 C   0  0  0  0  0  0  0  0  0  0  0  0
  152.5252  143.7084  160.4427 C   0  0  0  0  0  0  0  0  0  0  0  0
  152.6765  142.4268  159.8780 C   0  0  0  0  0  0  0  0  0  0  0  0
  149.6178  140.2465  154.5699 C   0  0  2  0  0  0  0  0  0  0  0  0
  149.5291  141.3402  155.3300 F   0  0  0  0  0  0  0  0  0  0  0  0
  148.2623  139.5564  154.5155 C   0  0  1  0  0  0  0  0  0  0  0  0
  148.0787  138.9421  153.2512 O   0  0  0  0  0  0  0  0  0  0  0  0
  146.1749  131.0319  152.5904 C   0  0  0  0  0  0  0  0  0  0  0  0
  147.2020  130.4807  153.3890 C   0  0  0  0  0  0  0  0  0  0  0  0
  147.4005  129.0869  153.4323 C   0  0  0  0  0  0  0  0  0  0  0  0
  146.5675  128.2324  152.6854 C   0  0  0  0  0  0  0  0  0  0  0  0
  145.5329  128.7722  151.8984 C   0  0  0  0  0  0  0  0  0  0  0  0
  145.3347  130.1662  151.8525 C   0  0  0  0  0  0  0  0  0  0  0  0
  146.3922  132.6335  154.6126 H   0  0  0  0  0  0  0  0  0  0  0  0
  143.8582  136.9974  153.8602 H   0  0  0  0  0  0  0  0  0  0  0  0
  149.9568  136.1209  155.7181 H   0  0  0  0  0  0  0  0  0  0  0  0
  147.5999  138.7684  156.4889 H   0  0  0  0  0  0  0  0  0  0  0  0
  150.7418  138.4214  154.5151 H   0  0  0  0  0  0  0  0  0  0  0  0
  152.3909  138.9218  156.2547 H   0  0  0  0  0  0  0  0  0  0  0  0
  152.3788  140.2813  155.1330 H   0  0  0  0  0  0  0  0  0  0  0  0
  151.0691  142.9809  156.9051 H   0  0  0  0  0  0  0  0  0  0  0  0
  150.8108  145.2206  157.9071 H   0  0  0  0  0  0  0  0  0  0  0  0
  151.7366  145.7010  160.1659 H   0  0  0  0  0  0  0  0  0  0  0  0
  152.9276  143.9162  161.4233 H   0  0  0  0  0  0  0  0  0  0  0  0
  153.1990  141.6745  160.4509 H   0  0  0  0  0  0  0  0  0  0  0  0
  149.9920  140.5623  153.5951 H   0  0  0  0  0  0  0  0  0  0  0  0
  147.4466  140.2621  154.6770 H   0  0  0  0  0  0  0  0  0  0  0  0
  148.4967  139.4801  152.5955 H   0  0  0  0  0  0  0  0  0  0  0  0
  147.8490  131.1234  153.9688 H   0  0  0  0  0  0  0  0  0  0  0  0
  148.1919  128.6732  154.0396 H   0  0  0  0  0  0  0  0  0  0  0  0
  146.7199  127.1635  152.7195 H   0  0  0  0  0  0  0  0  0  0  0  0
  144.8890  128.1168  151.3309 H   0  0  0  0  0  0  0  0  0  0  0  0
  144.5294  130.5599  151.2493 H   0  0  0  0  0  0  0  0  0  0  0  0
  1  2  2  0  0  0  0
  2  3  1  0  0  0  0
  2 30  1  0  0  0  0
  3  4  1  0  0  0  0
  3 36  1  0  0  0  0
  4  9  1  0  0  0  0
  4  5  2  0  0  0  0
  5  6  1  0  0  0  0
  6  7  2  0  0  0  0
  6 37  1  0  0  0  0
  7  8  1  0  0  0  0
  8 12  1  0  0  0  0
  8  9  2  0  0  0  0
  9 10  1  0  0  0  0
 10 11  2  0  0  0  0
 11 12  1  0  0  0  0
 11 38  1  0  0  0  0
 12 13  1  0  0  0  0
 13 28  1  0  0  0  0
 13 14  1  0  0  0  0
 13 39  1  0  0  0  0
 14 15  1  0  0  0  0
 15 16  1  0  0  0  0
 15 26  1  0  0  0  0
 15 40  1  0  0  0  0
 16 17  1  0  0  0  0
 16 41  1  0  0  0  0
 16 42  1  0  0  0  0
 17 18  1  0  0  0  0
 18 19  2  0  0  0  0
 18 20  1  0  0  0  0
 20 25  1  0  0  0  0
 20 21  2  0  0  0  0
 21 22  1  0  0  0  0
 21 43  1  0  0  0  0
 22 23  2  0  0  0  0
 22 44  1  0  0  0  0
 23 24  1  0  0  0  0
 23 45  1  0  0  0  0
 24 25  2  0  0  0  0
 24 46  1  0  0  0  0
 25 47  1  0  0  0  0
 26 27  1  0  0  0  0
 26 28  1  0  0  0  0
 26 48  1  0  0  0  0
 28 29  1  0  0  0  0
 28 49  1  0  0  0  0
 29 50  1  0  0  0  0
 30 35  1  0  0  0  0
 30 31  2  0  0  0  0
 31 32  1  0  0  0  0
 31 51  1  0  0  0  0
 32 33  2  0  0  0  0
 32 52  1  0  0  0  0
 33 34  1  0  0  0  0
 33 53  1  0  0  0  0
 34 35  2  0  0  0  0
 34 54  1  0  0  0  0
 35 55  1  0  0  0  0
M  END
> <s_m_source_file>
AV-unprocessed.smi

> <i_m_source_file_index>
34

> <i_lp_mmshare_version>
43012

> <i_f3d_flags>
0

> <s_epik_input>
W2NIXTFbY0hdW2NIXVtjSF1bY0hdYzFDKD1PKVtOSF1jKG5bY0hdbjIpYyhjMjMpbltjSF1uM1tDQEBIXTRPW0NASF0oW0NAQEhdKEYpW0NASF00W09IXSlbQ0gyXU9DKD1PKWM1W2NIXVtjSF1bY0hdW2NIXVtjSF01

> <s_epik_cmdline>
J2VwaWtfcHl0aG9uJywgJy1waCcsICc3LjAnLCAnLXRuJywgJzgnLCAnLW1hJywgJzIwMCcsICctbWV0YWxfYmluZGluZycsICctaW1hZScsICc8aW5maWxlLm1hZT4nLCAnLW9tYWUnLCAnPG91dGZpbGUubWFlPic=

> <r_lp_tautomer_probability>
1

> <r_epik_Ionization_Penalty>
0.00257489

> <r_epik_Ionization_Penalty_Charging>
0

> <r_epik_Ionization_Penalty_Neutral>
0.00257489

> <r_epik_State_Penalty>
0.00519398

> <r_epik_Charging_Adjusted_Penalty>
0.00519398

> <i_epik_Tot_Q>
0

> <i_epik_Tot_abs_Q>
0

> <r_epik_Metal_State_Penalty>
0.335891

> <b_epik_Metal_Only>
0

> <s_epik_Chemistry_Notes>
This compound has an ester and may undergo hydrolysis at high or low pH. This compound contains an acetal/aminal-like group ( X-CH(R)-Y where X, Y are N, S, or O) that may be acid/base labile, releasing an aldehyde.

> <s_lp_Force_Field>
OPLS_2005

> <r_lp_Energy>
48.7075

> <b_lp_Chiralities_Consistent>
1

> <s_lp_Variant>
AV-unprocessed.smi:34-8

> <Gold.Version>
5.8.1

> <Gold.Id.Protein>
6NUR|6NUR_protein|mol2

> <Gold.PLP.Fitness>
58.4096

> <Gold.PLP.PLP>
-55.7764

> <Gold.PLP.part.hbond>
-2.9160

> <Gold.PLP.part.metal>
0.0000

> <Gold.PLP.part.buried>
-5.9589

> <Gold.PLP.part.nonpolar>
-46.8146

> <Gold.PLP.part.repulsive>
0.4054

> <Gold.PLP.ligand.clash>
0.0000

> <Gold.PLP.ligand.torsion>
1.7984

> <Gold.PLP.Chemscore.Hbond>
2.0000

> <Gold.PLP.Chemscore.CHOScore>
0.0000

> <Gold.PLP.Chemscore.Metal>
0.0000

> <Gold.Chemscore.Hbonds>
donor molecule, donor type, donor heavy atom, donor atom, acceptor molecule, acceptor atom, score
      L1  H    29    50       P1  7957  1.00
      P1  H  7997  8010       L1    19  1.00

> <Gold.PLP.Chemscore.Internal.Correction>
0.2300

> <Gold.Rescore>
     Score         DG    S(hbond)    S(metal)    S(lipo)     H(rot)  DE(clash)    DE(int)     intcor
     17.17     -21.20       1.81        0.00     142.10       2.72       0.03       3.99       ----

> <Gold.Chemscore.Fitness>
17.1748

> <Gold.Chemscore.DG>
-21.2006

> <Gold.Chemscore.ZeroCoef>
-5.4800

> <Gold.Chemscore.Hbond>
1.8149

> <Gold.Chemscore.Metal>
0.0000

> <Gold.Chemscore.Lipo>
142.1025

> <Gold.Chemscore.Internal_Hbond>
0.0000

> <Gold.Chemscore.DEClash>
0.0339

> <Gold.Chemscore.DEInternal>
3.9919

> <Gold.Chemscore.Rot>
2.7215

> <Gold.Chemscore.Internal.Correction>
   9.000000E+99

> <Gold.Chemscore.Hbonds>
donor molecule, donor type, donor heavy atom, donor atom, acceptor molecule, acceptor atom, score
      L1  H    29    50       P1  7957  1.00
      P1  H  7997  8010       L1    19  0.62

> <Gold.Chemscore.Hbond.Weighted>
-6.0617

> <Gold.Chemscore.Metal.Weighted>
-0.0000

> <Gold.Chemscore.Lipo.Weighted>
-16.6260

> <Gold.Chemscore.Internal_Hbond.Weighted>
0.0000

> <Gold.Chemscore.DEClash.Weighted>
0.0339

> <Gold.Chemscore.DEInternal.Weighted>
3.9919

> <Gold.Chemscore.Rot.Weighted>
6.9670

> <Gold.Chemscore.Internal.Correction.Weighted>
   9.000000E+99

> <Gold.Protein.RotatedTorsions>
[ 6907 6896 6895 6894 ] final  155.78 input  -60.11 | X-H torsion
[ 7974 7965 7964 7962 ] final  -36.95 input  175.53 | X-H torsion
[ 8008 7997 7996 7995 ] final   27.45 input   59.86 | X-H torsion
[ 10167 10162 10161 10158 ] final  -86.60 input  -65.29 | X-H torsion
[ 10718 10713 10712 10709 ] final -122.00 input   66.30 | X-H torsion
[ 10763 10752 10751 10750 ] final   45.54 input  -60.55 | X-H torsion
[ 11005 11000 10999 10996 ] final  141.94 input  -57.11 | X-H torsion

> <Gold.Protein.ActiveResidues>
 VAL166  LYS551  ARG553  GLY616  TRP617  ASP618  TYR619  PRO620  LYS621  CYS622 
 ASP623  PHE694  ASN695  SER759  ASP760  ASP761  ALA762  ILE779  LEU786  VAL792 
 PHE793  MET794  SER795  GLU796  ALA797  LYS798  CYS799  TRP800  GLU811  SER814 

> <Gold.Protein.RotatedAtoms>
  152.0392  133.3970  159.4329 H   0  0  0  0  0  0  0  0  0  0  0  0  # atno 6907 bound_to 6896
  150.6876  134.3434  159.4887 H   0  0  0  0  0  0  0  0  0  0  0  0  # atno 6908 bound_to 6896
  152.1230  134.9191  160.0613 H   0  0  0  0  0  0  0  0  0  0  0  0  # atno 6909 bound_to 6896
  146.0617  140.6339  142.8994 H   0  0  0  0  0  0  0  0  0  0  0  0  # atno 7974 bound_to 7965
  155.0431  140.3171  155.4717 H   0  0  0  0  0  0  0  0  0  0  0  0  # atno 8008 bound_to 7997
  156.2850  140.2159  156.5499 H   0  0  0  0  0  0  0  0  0  0  0  0  # atno 8009 bound_to 7997
  154.7273  140.0484  157.0682 H   0  0  0  0  0  0  0  0  0  0  0  0  # atno 8010 bound_to 7997
  140.3926  143.2698  151.9245 H   0  0  0  0  0  0  0  0  0  0  0  0  # atno 10167 bound_to 10162
  156.1382  130.6446  150.9730 H   0  0  0  0  0  0  0  0  0  0  0  0  # atno 10718 bound_to 10713
  152.9823  135.6036  154.3454 H   0  0  0  0  0  0  0  0  0  0  0  0  # atno 10763 bound_to 10752
  154.3148  135.2770  155.2550 H   0  0  0  0  0  0  0  0  0  0  0  0  # atno 10764 bound_to 10752
  154.4744  135.5933  153.6400 H   0  0  0  0  0  0  0  0  0  0  0  0  # atno 10765 bound_to 10752
  140.0439  134.9291  157.0894 H   0  0  0  0  0  0  0  0  0  0  0  0  # atno 11005 bound_to 11000
  144.7179  140.4272  143.7031 LP  0  0  0  0  0  0  0  0  0  0  0  0  # atno 17320 bound_to 7965
  145.6549  139.1571  143.2841 LP  0  0  0  0  0  0  0  0  0  0  0  0  # atno 17321 bound_to 7965
  139.4788  144.5713  151.8084 LP  0  0  0  0  0  0  0  0  0  0  0  0  # atno 17342 bound_to 10162
  140.4824  144.1430  150.5935 LP  0  0  0  0  0  0  0  0  0  0  0  0  # atno 17343 bound_to 10162
  157.6552  131.0890  150.7963 LP  0  0  0  0  0  0  0  0  0  0  0  0  # atno 17370 bound_to 10713
  156.8041  130.4931  149.5365 LP  0  0  0  0  0  0  0  0  0  0  0  0  # atno 17371 bound_to 10713
  140.4025  134.2067  155.7163 LP  0  0  0  0  0  0  0  0  0  0  0  0  # atno 17394 bound_to 11000
  141.1897  133.8233  157.0947 LP  0  0  0  0  0  0  0  0  0  0  0  0  # atno 17395 bound_to 11000

$$$$
