AV-unprocessed.smi:2259|AV-procd|sdf|9130|dock5
  -GOLD-   2272012333D 1   1.00000     0.00000
 Structure written by MMmdl.
 39 40  0  0  0  0  0  0  0  0  1 V2000
  152.2961  143.5819  161.6617 C   0  0  0  0  0  0  0  0  0  0  0  0
  152.0698  142.9610  160.2947 C   0  0  0  0  0  0  0  0  0  0  0  0
  151.2881  143.7120  159.4124 N   0  0  0  0  0  0  0  0  0  0  0  0
  151.0352  143.2582  158.2287 C   0  0  0  0  0  0  0  0  0  0  0  0
  151.5253  142.0149  157.7931 N   0  0  0  0  0  0  0  0  0  0  0  0
  151.1694  141.6074  156.4212 C   0  0  0  0  0  0  0  0  0  0  0  0
  150.4212  140.2548  156.3601 C   0  0  2  0  0  0  0  0  0  0  0  0
  150.7792  139.6397  155.1393 O   0  0  0  0  0  0  0  0  0  0  0  0
  148.8880  140.3885  156.4025 C   0  0  0  0  0  0  0  0  0  0  0  0
  148.4236  140.7499  155.1085 O   0  0  0  0  0  0  0  0  0  0  0  0
  147.3462  141.6049  155.0149 C   0  0  0  0  0  0  0  0  0  0  0  0
  146.9862  142.0400  153.7229 C   0  0  0  0  0  0  0  0  0  0  0  0
  145.8997  142.9153  153.5317 C   0  0  0  0  0  0  0  0  0  0  0  0
  145.1558  143.3676  154.6393 C   0  0  0  0  0  0  0  0  0  0  0  0
  144.0347  144.2721  154.4455 C   0  0  0  0  0  0  0  0  0  0  0  0
  143.1424  144.9924  154.2912 N   0  0  0  0  0  0  0  0  0  0  0  0
  145.5039  142.9387  155.9353 C   0  0  0  0  0  0  0  0  0  0  0  0
  146.5917  142.0635  156.1246 C   0  0  0  0  0  0  0  0  0  0  0  0
  152.3131  141.2294  158.5836 C   0  0  0  0  0  0  0  0  0  0  0  0
  152.7609  140.1529  158.1843 O   0  0  0  0  0  0  0  0  0  0  0  0
  152.5845  141.7547  159.9316 C   0  0  0  0  0  0  0  0  0  0  0  0
  153.4420  140.8928  160.8500 C   0  0  0  0  0  0  0  0  0  0  0  0
  153.3612  143.7263  161.8445 H   0  0  0  0  0  0  0  0  0  0  0  0
  151.8909  142.9397  162.4443 H   0  0  0  0  0  0  0  0  0  0  0  0
  151.8088  144.5546  161.7419 H   0  0  0  0  0  0  0  0  0  0  0  0
  150.4272  143.8054  157.5062 H   0  0  0  0  0  0  0  0  0  0  0  0
  150.5780  142.3729  155.9145 H   0  0  0  0  0  0  0  0  0  0  0  0
  152.0879  141.5403  155.8347 H   0  0  0  0  0  0  0  0  0  0  0  0
  150.7566  139.6119  157.1744 H   0  0  0  0  0  0  0  0  0  0  0  0
  150.5495  138.7243  155.1835 H   0  0  0  0  0  0  0  0  0  0  0  0
  148.4389  139.4293  156.6601 H   0  0  0  0  0  0  0  0  0  0  0  0
  148.5834  141.1138  157.1593 H   0  0  0  0  0  0  0  0  0  0  0  0
  147.5507  141.6991  152.8672 H   0  0  0  0  0  0  0  0  0  0  0  0
  145.6433  143.2360  152.5320 H   0  0  0  0  0  0  0  0  0  0  0  0
  144.9397  143.2780  156.7923 H   0  0  0  0  0  0  0  0  0  0  0  0
  146.8259  141.7578  157.1328 H   0  0  0  0  0  0  0  0  0  0  0  0
  152.9763  139.9171  160.9925 H   0  0  0  0  0  0  0  0  0  0  0  0
  153.5904  141.3310  161.8355 H   0  0  0  0  0  0  0  0  0  0  0  0
  154.4266  140.7368  160.4080 H   0  0  0  0  0  0  0  0  0  0  0  0
  1  2  1  0  0  0  0
  1 23  1  0  0  0  0
  1 24  1  0  0  0  0
  1 25  1  0  0  0  0
  2 21  2  0  0  0  0
  2  3  1  0  0  0  0
  3  4  2  0  0  0  0
  4  5  1  0  0  0  0
  4 26  1  0  0  0  0
  5  6  1  0  0  0  0
  5 19  1  0  0  0  0
  6  7  1  0  0  0  0
  6 27  1  0  0  0  0
  6 28  1  0  0  0  0
  7  8  1  0  0  0  0
  7  9  1  0  0  0  0
  7 29  1  0  0  0  0
  8 30  1  0  0  0  0
  9 10  1  0  0  0  0
  9 31  1  0  0  0  0
  9 32  1  0  0  0  0
 10 11  1  0  0  0  0
 11 18  1  0  0  0  0
 11 12  2  0  0  0  0
 12 13  1  0  0  0  0
 12 33  1  0  0  0  0
 13 14  2  0  0  0  0
 13 34  1  0  0  0  0
 14 15  1  0  0  0  0
 14 17  1  0  0  0  0
 15 16  3  0  0  0  0
 17 18  2  0  0  0  0
 17 35  1  0  0  0  0
 18 36  1  0  0  0  0
 19 20  2  0  0  0  0
 19 21  1  0  0  0  0
 21 22  1  0  0  0  0
 22 37  1  0  0  0  0
 22 38  1  0  0  0  0
 22 39  1  0  0  0  0
M  END
> <s_m_source_file>
AV-unprocessed.smi

> <i_m_source_file_index>
2259

> <i_lp_mmshare_version>
43012

> <i_f3d_flags>
0

> <s_epik_input>
W0NIM11jMW5bY0hdbihjKD1PKWMxW0NIM10pW0NIMl1bQ0BIXShbT0hdKVtDSDJdT2MyW2NIXVtjSF1jKEMjTilbY0hdW2NIXTI=

> <s_epik_cmdline>
J2VwaWtfcHl0aG9uJywgJy1waCcsICc3LjAnLCAnLXRuJywgJzgnLCAnLW1hJywgJzIwMCcsICctbWV0YWxfYmluZGluZycsICctaW1hZScsICc8aW5maWxlLm1hZT4nLCAnLW9tYWUnLCAnPG91dGZpbGUubWFlPic=

> <r_lp_tautomer_probability>
1

> <r_epik_Ionization_Penalty>
3.47921e-05

> <r_epik_Ionization_Penalty_Charging>
7.82631e-08

> <r_epik_Ionization_Penalty_Neutral>
3.47138e-05

> <r_epik_State_Penalty>
-0

> <r_epik_Charging_Adjusted_Penalty>
7.82631e-08

> <i_epik_Tot_Q>
0

> <i_epik_Tot_abs_Q>
0

> <r_epik_Metal_State_Penalty>
-0

> <b_epik_Metal_Only>
0

> <s_lp_Force_Field>
OPLS_2005

> <r_lp_Energy>
23.7954

> <b_lp_Chiralities_Consistent>
1

> <s_lp_Variant>
AV-unprocessed.smi:2259-1

> <Gold.Version>
5.8.1

> <Gold.Id.Protein>
6NUR|6NUR_protein|mol2

> <Gold.PLP.Fitness>
50.8119

> <Gold.PLP.PLP>
-43.4871

> <Gold.PLP.part.hbond>
-2.0000

> <Gold.PLP.part.metal>
0.0000

> <Gold.PLP.part.buried>
-8.3162

> <Gold.PLP.part.nonpolar>
-32.7337

> <Gold.PLP.part.repulsive>
0.1927

> <Gold.PLP.ligand.clash>
0.0000

> <Gold.PLP.ligand.torsion>
0.8757

> <Gold.PLP.Chemscore.Hbond>
2.0000

> <Gold.PLP.Chemscore.CHOScore>
1.0000

> <Gold.PLP.Chemscore.Metal>
0.0000

> <Gold.Chemscore.Hbonds>
donor molecule, donor type, donor heavy atom, donor atom, acceptor molecule, acceptor atom, score
      P1  H  7989  7998       L1     8  0.52
      P1  H  7997  8008       L1    20  0.60
      L1  C     4    26       P1  8028  0.94

> <Gold.PLP.Chemscore.Internal.Correction>
0.0762

> <Gold.Rescore>
     Score         DG    S(hbond)    S(metal)    S(lipo)     H(rot)  DE(clash)    DE(int)     intcor
     13.68     -15.14       1.92        0.00      85.87       2.66       0.03       1.42       ----

> <Gold.Chemscore.Fitness>
13.6841

> <Gold.Chemscore.DG>
-15.1383

> <Gold.Chemscore.ZeroCoef>
-5.4800

> <Gold.Chemscore.Hbond>
1.9196

> <Gold.Chemscore.Metal>
0.0000

> <Gold.Chemscore.Lipo>
85.8713

> <Gold.Chemscore.Internal_Hbond>
0.0000

> <Gold.Chemscore.DEClash>
0.0340

> <Gold.Chemscore.DEInternal>
1.4202

> <Gold.Chemscore.Rot>
2.6563

> <Gold.Chemscore.Internal.Correction>
   9.000000E+99

> <Gold.Chemscore.Hbonds>
donor molecule, donor type, donor heavy atom, donor atom, acceptor molecule, acceptor atom, score
      P1  H  7989  7998       L1     8  0.51
      P1  H  7997  8008       L1    20  0.58

> <Gold.Chemscore.Hbond.Weighted>
-6.4116

> <Gold.Chemscore.Metal.Weighted>
-0.0000

> <Gold.Chemscore.Lipo.Weighted>
-10.0469

> <Gold.Chemscore.Internal_Hbond.Weighted>
0.0000

> <Gold.Chemscore.DEClash.Weighted>
0.0340

> <Gold.Chemscore.DEInternal.Weighted>
1.4202

> <Gold.Chemscore.Rot.Weighted>
6.8002

> <Gold.Chemscore.Internal.Correction.Weighted>
   9.000000E+99

> <Gold.Protein.RotatedTorsions>
[ 6907 6896 6895 6894 ] final  -56.65 input  -60.11 | X-H torsion
[ 7974 7965 7964 7962 ] final  140.23 input  175.53 | X-H torsion
[ 8008 7997 7996 7995 ] final  -68.39 input   59.86 | X-H torsion
[ 10167 10162 10161 10158 ] final  -39.20 input  -65.29 | X-H torsion
[ 10718 10713 10712 10709 ] final   62.51 input   66.30 | X-H torsion
[ 10763 10752 10751 10750 ] final  -57.24 input  -60.55 | X-H torsion
[ 11005 11000 10999 10996 ] final   63.38 input  -57.11 | X-H torsion

> <Gold.Protein.ActiveResidues>
 VAL166  LYS551  ARG553  GLY616  TRP617  ASP618  TYR619  PRO620  LYS621  CYS622 
 ASP623  PHE694  ASN695  SER759  ASP760  ASP761  ALA762  ILE779  LEU786  VAL792 
 PHE793  MET794  SER795  GLU796  ALA797  LYS798  CYS799  TRP800  GLU811  SER814 

> <Gold.Protein.RotatedAtoms>
  150.8150  134.7327  159.6721 H   0  0  0  0  0  0  0  0  0  0  0  0  # atno 6907 bound_to 6896
  152.4269  134.5848  159.9967 H   0  0  0  0  0  0  0  0  0  0  0  0  # atno 6908 bound_to 6896
  151.6047  133.3315  159.3091 H   0  0  0  0  0  0  0  0  0  0  0  0  # atno 6909 bound_to 6896
  144.9206  139.5173  143.5665 H   0  0  0  0  0  0  0  0  0  0  0  0  # atno 7974 bound_to 7965
  154.4865  140.0874  156.7497 H   0  0  0  0  0  0  0  0  0  0  0  0  # atno 8008 bound_to 7997
  155.4338  140.3451  155.4264 H   0  0  0  0  0  0  0  0  0  0  0  0  # atno 8009 bound_to 7997
  156.1268  140.1490  156.9112 H   0  0  0  0  0  0  0  0  0  0  0  0  # atno 8010 bound_to 7997
  140.7071  143.3229  151.2748 H   0  0  0  0  0  0  0  0  0  0  0  0  # atno 10167 bound_to 10162
  157.5906  130.9054  149.9597 H   0  0  0  0  0  0  0  0  0  0  0  0  # atno 10718 bound_to 10713
  154.2193  135.6380  153.5140 H   0  0  0  0  0  0  0  0  0  0  0  0  # atno 10763 bound_to 10752
  152.9972  135.5493  154.6131 H   0  0  0  0  0  0  0  0  0  0  0  0  # atno 10764 bound_to 10752
  154.5587  135.2907  155.0914 H   0  0  0  0  0  0  0  0  0  0  0  0  # atno 10765 bound_to 10752
  140.0029  134.6415  155.9902 H   0  0  0  0  0  0  0  0  0  0  0  0  # atno 11005 bound_to 11000
  146.3203  139.8082  142.8951 LP  0  0  0  0  0  0  0  0  0  0  0  0  # atno 17320 bound_to 7965
  145.3303  141.0265  143.3450 LP  0  0  0  0  0  0  0  0  0  0  0  0  # atno 17321 bound_to 7965
  139.6689  144.0056  152.2740 LP  0  0  0  0  0  0  0  0  0  0  0  0  # atno 17342 bound_to 10162
  139.9648  144.6534  150.8045 LP  0  0  0  0  0  0  0  0  0  0  0  0  # atno 17343 bound_to 10162
  156.0960  130.3659  150.0306 LP  0  0  0  0  0  0  0  0  0  0  0  0  # atno 17370 bound_to 10713
  156.8429  130.9432  151.3630 LP  0  0  0  0  0  0  0  0  0  0  0  0  # atno 17371 bound_to 10713
  141.1655  133.6537  156.4465 LP  0  0  0  0  0  0  0  0  0  0  0  0  # atno 17394 bound_to 11000
  140.4695  134.6766  157.5123 LP  0  0  0  0  0  0  0  0  0  0  0  0  # atno 17395 bound_to 11000

$$$$
