AV-unprocessed.smi:1381|AV-procd|sdf|5617|dock3
  -GOLD-   22720 5233D 1   1.00000     0.00000
 Structure written by MMmdl.
 42 43  0  0  0  0  0  0  0  0  3 V2000
  152.7057  143.4386  159.0526 C   0  0  0  0  0  0  0  0  0  0  0  0
  152.0036  142.4694  158.1649 C   0  0  0  0  0  0  0  0  0  0  0  0
  150.9174  142.5796  157.3437 C   0  0  0  0  0  0  0  0  0  0  0  0
  150.7941  141.2743  156.7972 C   0  0  0  0  0  0  0  0  0  0  0  0
  149.7598  140.9738  155.8720 N   0  0  0  0  0  0  0  0  0  0  0  0
  149.8338  140.2901  154.7156 C   0  0  0  0  0  0  0  0  0  0  0  0
  150.9121  139.8168  154.3373 O   0  0  0  0  0  0  0  0  0  0  0  0
  148.6286  140.2136  154.0875 N   0  5  0  0  0  0  0  0  0  0  0  0
  147.7107  139.0818  154.1888 C   0  0  0  0  0  0  0  0  0  0  0  0
  147.0722  138.8106  152.8131 C   0  0  0  0  0  0  0  0  0  0  0  0
  146.6466  137.3935  152.6636 N   0  3  1  0  0  0  0  0  0  0  0  0
  146.1191  136.8146  153.9228 C   0  0  0  0  0  0  0  0  0  0  0  0
  145.7693  135.3237  153.7471 C   0  0  2  0  0  0  0  0  0  0  0  0
  147.0035  134.4073  153.6730 C   0  0  0  0  0  0  0  0  0  0  0  0
  144.8978  135.1472  152.6300 O   0  0  0  0  0  0  0  0  0  0  0  0
  145.3923  135.6652  151.3976 C   0  0  1  0  0  0  0  0  0  0  0  0
  144.3409  135.3942  150.3163 C   0  0  0  0  0  0  0  0  0  0  0  0
  145.6833  137.1676  151.5557 C   0  0  0  0  0  0  0  0  0  0  0  0
  151.7225  140.4425  157.2461 N   0  0  0  0  0  0  0  0  0  0  0  0
  152.5023  141.2041  158.1245 O   0  0  0  0  0  0  0  0  0  0  0  0
  152.2458  144.4252  158.9926 H   0  0  0  0  0  0  0  0  0  0  0  0
  153.7531  143.5359  158.7662 H   0  0  0  0  0  0  0  0  0  0  0  0
  152.6664  143.1096  160.0910 H   0  0  0  0  0  0  0  0  0  0  0  0
  150.3100  143.4539  157.1631 H   0  0  0  0  0  0  0  0  0  0  0  0
  148.8450  141.3236  156.1145 H   0  0  0  0  0  0  0  0  0  0  0  0
  148.2163  138.1764  154.5270 H   0  0  0  0  0  0  0  0  0  0  0  0
  146.9191  139.2706  154.9150 H   0  0  0  0  0  0  0  0  0  0  0  0
  146.2044  139.4646  152.7116 H   0  0  0  0  0  0  0  0  0  0  0  0
  147.7512  139.0849  152.0038 H   0  0  0  0  0  0  0  0  0  0  0  0
  146.8486  136.9311  154.7253 H   0  0  0  0  0  0  0  0  0  0  0  0
  145.2286  137.3701  154.2215 H   0  0  0  0  0  0  0  0  0  0  0  0
  145.2006  135.0121  154.6240 H   0  0  0  0  0  0  0  0  0  0  0  0
  147.5808  134.4632  154.5962 H   0  0  0  0  0  0  0  0  0  0  0  0
  147.6729  134.6781  152.8571 H   0  0  0  0  0  0  0  0  0  0  0  0
  146.7076  133.3674  153.5329 H   0  0  0  0  0  0  0  0  0  0  0  0
  146.3062  135.1416  151.1166 H   0  0  0  0  0  0  0  0  0  0  0  0
  144.6763  135.7553  149.3439 H   0  0  0  0  0  0  0  0  0  0  0  0
  143.3971  135.8880  150.5492 H   0  0  0  0  0  0  0  0  0  0  0  0
  144.1439  134.3259  150.2239 H   0  0  0  0  0  0  0  0  0  0  0  0
  144.7598  137.7121  151.7598 H   0  0  0  0  0  0  0  0  0  0  0  0
  146.0834  137.5611  150.6206 H   0  0  0  0  0  0  0  0  0  0  0  0
  147.4848  136.8746  152.4431 H   0  0  0  0  0  0  0  0  0  0  0  0
  1  2  1  0  0  0  0
  1 21  1  0  0  0  0
  1 22  1  0  0  0  0
  1 23  1  0  0  0  0
  2 20  1  0  0  0  0
  2  3  2  0  0  0  0
  3  4  1  0  0  0  0
  3 24  1  0  0  0  0
  4  5  1  0  0  0  0
  4 19  2  0  0  0  0
  5  6  1  0  0  0  0
  5 25  1  0  0  0  0
  6  7  2  0  0  0  0
  6  8  1  0  0  0  0
  8  9  1  0  0  0  0
  9 10  1  0  0  0  0
  9 26  1  0  0  0  0
  9 27  1  0  0  0  0
 10 11  1  0  0  0  0
 10 28  1  0  0  0  0
 10 29  1  0  0  0  0
 11 18  1  0  0  0  0
 11 12  1  0  0  0  0
 11 42  1  0  0  0  0
 12 13  1  0  0  0  0
 12 30  1  0  0  0  0
 12 31  1  0  0  0  0
 13 14  1  0  0  0  0
 13 15  1  0  0  0  0
 13 32  1  0  0  0  0
 14 33  1  0  0  0  0
 14 34  1  0  0  0  0
 14 35  1  0  0  0  0
 15 16  1  0  0  0  0
 16 17  1  0  0  0  0
 16 18  1  0  0  0  0
 16 36  1  0  0  0  0
 17 37  1  0  0  0  0
 17 38  1  0  0  0  0
 17 39  1  0  0  0  0
 18 40  1  0  0  0  0
 18 41  1  0  0  0  0
 19 20  1  0  0  0  0
M  CHG  1   8  -1
M  CHG  1  11   1
M  END
> <s_m_source_file>
AV-unprocessed.smi

> <i_m_source_file_index>
1381

> <i_lp_mmshare_version>
43012

> <i_f3d_flags>
0

> <s_epik_input>
W0NIM11jMVtjSF1jKG5vMSlbTkhdQyg9TylbTkhdW0NIMl1bQ0gyXU4yW0NIMl1bQ0BASF0oW0NIM10pT1tDQEBIXShbQ0gzXSlbQ0gyXTI=

> <s_epik_cmdline>
J2VwaWtfcHl0aG9uJywgJy1waCcsICc3LjAnLCAnLXRuJywgJzgnLCAnLW1hJywgJzIwMCcsICctbWV0YWxfYmluZGluZycsICctaW1hZScsICc8aW5maWxlLm1hZT4nLCAnLW9tYWUnLCAnPG91dGZpbGUubWFlPic=

> <r_epik_Ionization_Penalty>
6.8073

> <r_epik_Ionization_Penalty_Charging>
6.80729

> <r_epik_Ionization_Penalty_Neutral>
5.65391e-06

> <r_epik_State_Penalty>
7.47323

> <r_epik_Charging_Adjusted_Penalty>
14.2805

> <i_epik_Tot_Q>
0

> <i_epik_Tot_abs_Q>
2

> <r_epik_Metal_State_Penalty>
3.40035

> <b_epik_Metal_Only>
1

> <s_lp_Force_Field>
OPLS_2005

> <r_lp_Energy>
15.0618

> <b_lp_Chiralities_Consistent>
1

> <s_lp_Variant>
AV-unprocessed.smi:1381-16

> <Gold.Version>
5.8.1

> <Gold.Id.Protein>
6NUR|6NUR_protein|mol2

> <Gold.PLP.Fitness>
34.3706

> <Gold.PLP.PLP>
-28.4699

> <Gold.PLP.part.hbond>
-2.0000

> <Gold.PLP.part.metal>
0.0000

> <Gold.PLP.part.buried>
-0.7449

> <Gold.PLP.part.nonpolar>
-25.6952

> <Gold.PLP.part.repulsive>
0.5542

> <Gold.PLP.ligand.clash>
0.0000

> <Gold.PLP.ligand.torsion>
1.6050

> <Gold.PLP.Chemscore.Hbond>
3.0000

> <Gold.PLP.Chemscore.CHOScore>
0.0000

> <Gold.PLP.Chemscore.Metal>
0.0000

> <Gold.Chemscore.Hbonds>
donor molecule, donor type, donor heavy atom, donor atom, acceptor molecule, acceptor atom, score
      L1  H    11    42       P1  7948  2.00
      P1  H  7989  7998       L1     7  0.99

> <Gold.PLP.Chemscore.Internal.Correction>
0.1107

> <Gold.Rescore>
     Score         DG    S(hbond)    S(metal)    S(lipo)     H(rot)  DE(clash)    DE(int)     intcor
     13.95     -15.81       1.96        0.00      66.87       1.58       0.03       1.83       ----

> <Gold.Chemscore.Fitness>
13.9498

> <Gold.Chemscore.DG>
-15.8120

> <Gold.Chemscore.ZeroCoef>
-5.4800

> <Gold.Chemscore.Hbond>
1.9614

> <Gold.Chemscore.Metal>
0.0000

> <Gold.Chemscore.Lipo>
66.8689

> <Gold.Chemscore.Internal_Hbond>
0.0000

> <Gold.Chemscore.DEClash>
0.0328

> <Gold.Chemscore.DEInternal>
1.8293

> <Gold.Chemscore.Rot>
1.5792

> <Gold.Chemscore.Internal.Correction>
   9.000000E+99

> <Gold.Chemscore.Hbonds>
donor molecule, donor type, donor heavy atom, donor atom, acceptor molecule, acceptor atom, score
      L1  H    11    42       P1  7948  1.00
      P1  H  7989  7998       L1     7  0.65

> <Gold.Chemscore.Hbond.Weighted>
-6.5511

> <Gold.Chemscore.Metal.Weighted>
-0.0000

> <Gold.Chemscore.Lipo.Weighted>
-7.8237

> <Gold.Chemscore.Internal_Hbond.Weighted>
0.0000

> <Gold.Chemscore.DEClash.Weighted>
0.0328

> <Gold.Chemscore.DEInternal.Weighted>
1.8293

> <Gold.Chemscore.Rot.Weighted>
4.0428

> <Gold.Chemscore.Internal.Correction.Weighted>
   9.000000E+99

> <Gold.Protein.RotatedTorsions>
[ 6907 6896 6895 6894 ] final  153.67 input  -60.11 | X-H torsion
[ 7974 7965 7964 7962 ] final   71.90 input  175.53 | X-H torsion
[ 8008 7997 7996 7995 ] final  175.85 input   59.86 | X-H torsion
[ 10167 10162 10161 10158 ] final   72.22 input  -65.29 | X-H torsion
[ 10718 10713 10712 10709 ] final -148.55 input   66.30 | X-H torsion
[ 10763 10752 10751 10750 ] final -144.94 input  -60.55 | X-H torsion
[ 11005 11000 10999 10996 ] final  173.81 input  -57.11 | X-H torsion

> <Gold.Protein.ActiveResidues>
 VAL166  LYS551  ARG553  GLY616  TRP617  ASP618  TYR619  PRO620  LYS621  CYS622 
 ASP623  PHE694  ASN695  SER759  ASP760  ASP761  ALA762  ILE779  LEU786  VAL792 
 PHE793  MET794  SER795  GLU796  ALA797  LYS798  CYS799  TRP800  GLU811  SER814 

> <Gold.Protein.RotatedAtoms>
  152.0694  133.4099  159.4452 H   0  0  0  0  0  0  0  0  0  0  0  0  # atno 6907 bound_to 6896
  150.6864  134.3109  159.4755 H   0  0  0  0  0  0  0  0  0  0  0  0  # atno 6908 bound_to 6896
  152.0939  134.9388  160.0622 H   0  0  0  0  0  0  0  0  0  0  0  0  # atno 6909 bound_to 6896
  145.7601  139.2797  143.1381 H   0  0  0  0  0  0  0  0  0  0  0  0  # atno 7974 bound_to 7965
  156.0827  140.1398  156.9691 H   0  0  0  0  0  0  0  0  0  0  0  0  # atno 8008 bound_to 7997
  154.4595  140.0948  156.6901 H   0  0  0  0  0  0  0  0  0  0  0  0  # atno 8009 bound_to 7997
  155.5049  140.3452  155.4380 H   0  0  0  0  0  0  0  0  0  0  0  0  # atno 8010 bound_to 7997
  140.0376  144.5415  150.7459 H   0  0  0  0  0  0  0  0  0  0  0  0  # atno 10167 bound_to 10162
  156.4217  130.8032  151.2255 H   0  0  0  0  0  0  0  0  0  0  0  0  # atno 10718 bound_to 10713
  154.8406  135.3426  154.6426 H   0  0  0  0  0  0  0  0  0  0  0  0  # atno 10763 bound_to 10752
  153.7037  135.6968  153.5060 H   0  0  0  0  0  0  0  0  0  0  0  0  # atno 10764 bound_to 10752
  153.2503  135.4355  155.0745 H   0  0  0  0  0  0  0  0  0  0  0  0  # atno 10765 bound_to 10752
  140.3445  134.7248  157.4225 H   0  0  0  0  0  0  0  0  0  0  0  0  # atno 11005 bound_to 11000
  146.0273  140.8292  142.9893 LP  0  0  0  0  0  0  0  0  0  0  0  0  # atno 17320 bound_to 7965
  144.6832  140.2716  143.7305 LP  0  0  0  0  0  0  0  0  0  0  0  0  # atno 17321 bound_to 7965
  140.7274  143.2651  151.4071 LP  0  0  0  0  0  0  0  0  0  0  0  0  # atno 17342 bound_to 10162
  139.6035  144.1246  152.2223 LP  0  0  0  0  0  0  0  0  0  0  0  0  # atno 17343 bound_to 10162
  157.7508  131.0226  150.3799 LP  0  0  0  0  0  0  0  0  0  0  0  0  # atno 17370 bound_to 10713
  156.4118  130.3935  149.6886 LP  0  0  0  0  0  0  0  0  0  0  0  0  # atno 17371 bound_to 10713
  140.0753  134.5805  155.8597 LP  0  0  0  0  0  0  0  0  0  0  0  0  # atno 17394 bound_to 11000
  141.2029  133.6628  156.6034 LP  0  0  0  0  0  0  0  0  0  0  0  0  # atno 17395 bound_to 11000

$$$$
