AV-unprocessed.smi:516|AV-procd|sdf|2787|dock3
  -GOLD-   2262023263D 1   1.00000     0.00000
 Structure written by MMmdl.
 44 46  0  0  0  0  0  0  0  0  3 V2000
  151.1939  132.4456  156.4958 C   0  0  0  0  0  0  0  0  0  0  0  0
  150.2722  133.2472  157.2121 O   0  0  0  0  0  0  0  0  0  0  0  0
  149.1790  133.6700  156.4143 C   0  0  0  0  0  0  0  0  0  0  0  0
  149.6912  134.3365  155.1287 C   0  0  0  0  0  0  0  0  0  0  0  0
  149.1120  135.6619  154.9251 N   0  0  0  0  0  0  0  0  0  0  0  0
  147.8207  135.9529  154.6158 C   0  0  0  0  0  0  0  0  0  0  0  0
  146.7517  134.9138  154.4272 C   0  0  0  0  0  0  0  0  0  0  0  0
  146.5017  134.8966  152.9638 N   0  3  0  0  0  0  0  0  0  0  0  0
  146.1315  133.5498  152.4706 C   0  0  0  0  0  0  0  0  0  0  0  0
  145.9525  133.5674  150.9431 C   0  0  0  0  0  0  0  0  0  0  0  0
  144.9736  134.5361  150.5880 O   0  0  0  0  0  0  0  0  0  0  0  0
  145.3573  135.8487  150.9790 C   0  0  0  0  0  0  0  0  0  0  0  0
  145.5140  135.9073  152.5073 C   0  0  0  0  0  0  0  0  0  0  0  0
  147.5678  137.2584  154.4919 N   0  0  0  0  0  0  0  0  0  0  0  0
  148.7993  137.8451  154.7390 C   0  0  0  0  0  0  0  0  0  0  0  0
  149.7478  136.9059  154.9977 C   0  0  0  0  0  0  0  0  0  0  0  0
  151.1640  137.2271  155.2867 C   0  0  0  0  0  0  0  0  0  0  0  0
  151.9893  136.3399  155.4916 O   0  0  0  0  0  0  0  0  0  0  0  0
  151.3970  138.5777  155.2909 N   0  5  0  0  0  0  0  0  0  0  0  0
  150.4645  139.5622  155.0439 C   0  0  0  0  0  0  0  0  0  0  0  0
  150.7575  140.7580  155.0736 O   0  0  0  0  0  0  0  0  0  0  0  0
  149.1698  139.2169  154.7581 N   0  0  0  0  0  0  0  0  0  0  0  0
  148.1578  140.2417  154.4860 C   0  0  0  0  0  0  0  0  0  0  0  0
  152.0131  132.1548  157.1532 H   0  0  0  0  0  0  0  0  0  0  0  0
  151.6175  132.9909  155.6516 H   0  0  0  0  0  0  0  0  0  0  0  0
  150.7205  131.5360  156.1240 H   0  0  0  0  0  0  0  0  0  0  0  0
  148.5529  132.8118  156.1657 H   0  0  0  0  0  0  0  0  0  0  0  0
  148.5595  134.3741  156.9716 H   0  0  0  0  0  0  0  0  0  0  0  0
  150.7771  134.4190  155.1538 H   0  0  0  0  0  0  0  0  0  0  0  0
  149.4837  133.7072  154.2660 H   0  0  0  0  0  0  0  0  0  0  0  0
  147.1443  133.9542  154.7662 H   0  0  0  0  0  0  0  0  0  0  0  0
  145.8447  135.1187  154.9944 H   0  0  0  0  0  0  0  0  0  0  0  0
  146.9068  132.8316  152.7405 H   0  0  0  0  0  0  0  0  0  0  0  0
  145.2085  133.2240  152.9529 H   0  0  0  0  0  0  0  0  0  0  0  0
  146.8971  133.7859  150.4422 H   0  0  0  0  0  0  0  0  0  0  0  0
  145.6250  132.5888  150.5917 H   0  0  0  0  0  0  0  0  0  0  0  0
  146.2857  136.1343  150.4816 H   0  0  0  0  0  0  0  0  0  0  0  0
  144.5913  136.5524  150.6528 H   0  0  0  0  0  0  0  0  0  0  0  0
  144.5522  135.7233  152.9885 H   0  0  0  0  0  0  0  0  0  0  0  0
  145.8288  136.9102  152.7962 H   0  0  0  0  0  0  0  0  0  0  0  0
  148.4745  140.8868  153.6653 H   0  0  0  0  0  0  0  0  0  0  0  0
  148.0016  140.8646  155.3674 H   0  0  0  0  0  0  0  0  0  0  0  0
  147.1933  139.8179  154.2082 H   0  0  0  0  0  0  0  0  0  0  0  0
  147.3832  135.1274  152.5268 H   0  0  0  0  0  0  0  0  0  0  0  0
  1  2  1  0  0  0  0
  1 24  1  0  0  0  0
  1 25  1  0  0  0  0
  1 26  1  0  0  0  0
  2  3  1  0  0  0  0
  3  4  1  0  0  0  0
  3 27  1  0  0  0  0
  3 28  1  0  0  0  0
  4  5  1  0  0  0  0
  4 29  1  0  0  0  0
  4 30  1  0  0  0  0
  5 16  1  0  0  0  0
  5  6  1  0  0  0  0
  6  7  1  0  0  0  0
  6 14  2  0  0  0  0
  7  8  1  0  0  0  0
  7 31  1  0  0  0  0
  7 32  1  0  0  0  0
  8 13  1  0  0  0  0
  8  9  1  0  0  0  0
  8 44  1  0  0  0  0
  9 10  1  0  0  0  0
  9 33  1  0  0  0  0
  9 34  1  0  0  0  0
 10 11  1  0  0  0  0
 10 35  1  0  0  0  0
 10 36  1  0  0  0  0
 11 12  1  0  0  0  0
 12 13  1  0  0  0  0
 12 37  1  0  0  0  0
 12 38  1  0  0  0  0
 13 39  1  0  0  0  0
 13 40  1  0  0  0  0
 14 15  1  0  0  0  0
 15 22  1  0  0  0  0
 15 16  2  0  0  0  0
 16 17  1  0  0  0  0
 17 18  2  0  0  0  0
 17 19  1  0  0  0  0
 19 20  1  0  0  0  0
 20 21  2  0  0  0  0
 20 22  1  0  0  0  0
 22 23  1  0  0  0  0
 23 41  1  0  0  0  0
 23 42  1  0  0  0  0
 23 43  1  0  0  0  0
M  CHG  1   8   1
M  CHG  1  19  -1
M  END
> <s_m_source_file>
AV-unprocessed.smi

> <i_m_source_file_index>
516

> <i_lp_mmshare_version>
43012

> <i_f3d_flags>
0

> <s_epik_input>
W0NIM11uMWMoPU8pW25IXWMoPU8pYyhjMTIpbihbQ0gyXVtDSDJdT1tDSDNdKWMobjIpW0NIMl1OM1tDSDJdW0NIMl1PW0NIMl1bQ0gyXTM=

> <s_epik_cmdline>
J2VwaWtfcHl0aG9uJywgJy1waCcsICc3LjAnLCAnLXRuJywgJzgnLCAnLW1hJywgJzIwMCcsICctbWV0YWxfYmluZGluZycsICctaW1hZScsICc8aW5maWxlLm1hZT4nLCAnLW9tYWUnLCAnPG91dGZpbGUubWFlPic=

> <r_epik_Ionization_Penalty>
5.20946

> <r_epik_Ionization_Penalty_Charging>
1.12908

> <r_epik_Ionization_Penalty_Neutral>
4.08038

> <r_epik_State_Penalty>
5.2587

> <r_epik_Charging_Adjusted_Penalty>
6.38778

> <i_epik_Tot_Q>
0

> <i_epik_Tot_abs_Q>
2

> <r_epik_Metal_State_Penalty>
1.732

> <b_epik_Metal_Only>
1

> <s_lp_Force_Field>
OPLS_2005

> <r_lp_Energy>
35.9619

> <b_lp_Chiralities_Consistent>
1

> <s_lp_Variant>
AV-unprocessed.smi:516-4

> <Gold.Version>
5.8.1

> <Gold.Id.Protein>
6NUR|6NUR_protein|mol2

> <Gold.PLP.Fitness>
39.5315

> <Gold.PLP.PLP>
-26.6940

> <Gold.PLP.part.hbond>
-3.9408

> <Gold.PLP.part.metal>
0.0000

> <Gold.PLP.part.buried>
-2.0579

> <Gold.PLP.part.nonpolar>
-21.8777

> <Gold.PLP.part.repulsive>
1.3359

> <Gold.PLP.ligand.clash>
0.0000

> <Gold.PLP.ligand.torsion>
0.9600

> <Gold.PLP.Chemscore.Hbond>
4.8960

> <Gold.PLP.Chemscore.CHOScore>
0.0000

> <Gold.PLP.Chemscore.Metal>
0.0000

> <Gold.Chemscore.Hbonds>
donor molecule, donor type, donor heavy atom, donor atom, acceptor molecule, acceptor atom, score
      L1  H     8    44       P1  7948  2.00
      P1  H  6896  6909       L1     2  0.70
      P1  H  7989  7998       L1    21  0.86
      P1  H 10752 10763       L1    18  0.96

> <Gold.PLP.Chemscore.Internal.Correction>
0.0696

> <Gold.Rescore>
     Score         DG    S(hbond)    S(metal)    S(lipo)     H(rot)  DE(clash)    DE(int)     intcor
     14.84     -15.90       3.14        0.00      44.69       2.07       0.04       1.01       ----

> <Gold.Chemscore.Fitness>
14.8405

> <Gold.Chemscore.DG>
-15.8950

> <Gold.Chemscore.ZeroCoef>
-5.4800

> <Gold.Chemscore.Hbond>
3.1390

> <Gold.Chemscore.Metal>
0.0000

> <Gold.Chemscore.Lipo>
44.6853

> <Gold.Chemscore.Internal_Hbond>
0.0000

> <Gold.Chemscore.DEClash>
0.0429

> <Gold.Chemscore.DEInternal>
1.0117

> <Gold.Chemscore.Rot>
2.0693

> <Gold.Chemscore.Internal.Correction>
   9.000000E+99

> <Gold.Chemscore.Hbonds>
donor molecule, donor type, donor heavy atom, donor atom, acceptor molecule, acceptor atom, score
      L1  H     8    44       P1  7948  0.96
      P1  H  6896  6909       L1     2  0.43
      P1  H  7989  7998       L1    21  0.22
      P1  H 10752 10763       L1    18  0.87

> <Gold.Chemscore.Hbond.Weighted>
-10.4844

> <Gold.Chemscore.Metal.Weighted>
-0.0000

> <Gold.Chemscore.Lipo.Weighted>
-5.2282

> <Gold.Chemscore.Internal_Hbond.Weighted>
0.0000

> <Gold.Chemscore.DEClash.Weighted>
0.0429

> <Gold.Chemscore.DEInternal.Weighted>
1.0117

> <Gold.Chemscore.Rot.Weighted>
5.2975

> <Gold.Chemscore.Internal.Correction.Weighted>
   9.000000E+99

> <Gold.Protein.RotatedTorsions>
[ 6907 6896 6895 6894 ] final  -20.42 input  -60.11 | X-H torsion
[ 7974 7965 7964 7962 ] final  113.89 input  175.53 | X-H torsion
[ 8008 7997 7996 7995 ] final   14.61 input   59.86 | X-H torsion
[ 10167 10162 10161 10158 ] final  -11.36 input  -65.29 | X-H torsion
[ 10718 10713 10712 10709 ] final -129.05 input   66.30 | X-H torsion
[ 10763 10752 10751 10750 ] final   91.44 input  -60.55 | X-H torsion
[ 11005 11000 10999 10996 ] final -123.35 input  -57.11 | X-H torsion

> <Gold.Protein.ActiveResidues>
 VAL166  LYS551  ARG553  GLY616  TRP617  ASP618  TYR619  PRO620  LYS621  CYS622 
 ASP623  PHE694  ASN695  SER759  ASP760  ASP761  ALA762  ILE779  LEU786  VAL792 
 PHE793  MET794  SER795  GLU796  ALA797  LYS798  CYS799  TRP800  GLU811  SER814 

> <Gold.Protein.RotatedAtoms>
  151.2484  135.0613  159.9051 H   0  0  0  0  0  0  0  0  0  0  0  0  # atno 6907 bound_to 6896
  152.5383  134.0359  159.8056 H   0  0  0  0  0  0  0  0  0  0  0  0  # atno 6908 bound_to 6896
  151.0563  133.5532  159.2669 H   0  0  0  0  0  0  0  0  0  0  0  0  # atno 6909 bound_to 6896
  145.2113  139.2905  143.4267 H   0  0  0  0  0  0  0  0  0  0  0  0  # atno 7974 bound_to 7965
  154.8509  140.2929  155.5599 H   0  0  0  0  0  0  0  0  0  0  0  0  # atno 8008 bound_to 7997
  156.3016  140.2496  156.3399 H   0  0  0  0  0  0  0  0  0  0  0  0  # atno 8009 bound_to 7997
  154.9023  140.0391  157.1889 H   0  0  0  0  0  0  0  0  0  0  0  0  # atno 8010 bound_to 7997
  140.7136  143.5648  150.9156 H   0  0  0  0  0  0  0  0  0  0  0  0  # atno 10167 bound_to 10162
  156.2009  130.6857  151.0538 H   0  0  0  0  0  0  0  0  0  0  0  0  # atno 10718 bound_to 10713
  153.2083  135.4397  155.0349 H   0  0  0  0  0  0  0  0  0  0  0  0  # atno 10763 bound_to 10752
  154.8186  135.3326  154.7108 H   0  0  0  0  0  0  0  0  0  0  0  0  # atno 10764 bound_to 10752
  153.7548  135.6996  153.4993 H   0  0  0  0  0  0  0  0  0  0  0  0  # atno 10765 bound_to 10752
  140.9925  134.0518  157.3637 H   0  0  0  0  0  0  0  0  0  0  0  0  # atno 11005 bound_to 11000
  146.3397  140.2390  142.8595 LP  0  0  0  0  0  0  0  0  0  0  0  0  # atno 17320 bound_to 7965
  144.9853  140.8497  143.5372 LP  0  0  0  0  0  0  0  0  0  0  0  0  # atno 17321 bound_to 7965
  139.9374  143.6422  152.3062 LP  0  0  0  0  0  0  0  0  0  0  0  0  # atno 17342 bound_to 10162
  139.6894  144.7648  151.1465 LP  0  0  0  0  0  0  0  0  0  0  0  0  # atno 17343 bound_to 10162
  157.6985  131.0785  150.6894 LP  0  0  0  0  0  0  0  0  0  0  0  0  # atno 17370 bound_to 10713
  156.6952  130.4607  149.5588 LP  0  0  0  0  0  0  0  0  0  0  0  0  # atno 17371 bound_to 10713
  139.8999  135.0160  156.7217 LP  0  0  0  0  0  0  0  0  0  0  0  0  # atno 17394 bound_to 11000
  140.7017  133.9300  155.8028 LP  0  0  0  0  0  0  0  0  0  0  0  0  # atno 17395 bound_to 11000

$$$$
