AV-unprocessed.smi:316|AV-procd|sdf|2324|dock4
  -GOLD-   2262022223D 1   1.00000     0.00000
 Structure written by MMmdl.
 42 43  0  0  0  0  0  0  0  0  1 V2000
  148.0730  139.4895  153.5924 C   0  0  0  0  0  0  0  0  0  0  0  0
  149.1688  138.5456  153.7494 N   0  0  0  0  0  0  0  0  0  0  0  0
  150.3512  138.8473  154.3052 C   0  0  0  0  0  0  0  0  0  0  0  0
  150.6229  139.9634  154.7482 O   0  0  0  0  0  0  0  0  0  0  0  0
  151.3806  137.7172  154.3764 C   0  0  0  0  0  0  0  0  0  0  0  0
  150.8478  136.4894  155.1400 C   0  0  0  0  0  0  0  0  0  0  0  0
  149.8811  135.7381  154.3472 N   0  0  0  0  0  0  0  0  0  0  0  0
  149.3175  134.5801  154.7188 C   0  0  0  0  0  0  0  0  0  0  0  0
  149.5669  134.0137  155.7832 O   0  0  0  0  0  0  0  0  0  0  0  0
  148.4754  134.1254  153.7761 N   0  0  0  0  0  0  0  0  0  0  0  0
  147.7508  132.8998  153.7610 C   0  0  0  0  0  0  0  0  0  0  0  0
  148.0943  131.8227  154.6145 C   0  0  0  0  0  0  0  0  0  0  0  0
  147.3081  130.6580  154.6061 C   0  0  0  0  0  0  0  0  0  0  0  0
  146.1915  130.6160  153.7550 C   0  0  0  0  0  0  0  0  0  0  0  0
  145.8415  131.6378  152.9486 N   0  0  0  0  0  0  0  0  0  0  0  0
  146.5988  132.7625  152.9342 C   0  0  0  0  0  0  0  0  0  0  0  0
  146.1937  133.7942  152.0566 N   0  0  0  0  0  0  0  0  0  0  0  0
  145.8798  135.1237  152.5699 C   0  0  0  0  0  0  0  0  0  0  0  0
  145.1178  135.8131  151.4418 C   0  0  0  0  0  0  0  0  0  0  0  0
  144.3220  134.6613  150.8356 C   0  0  0  0  0  0  0  0  0  0  0  0
  145.2559  133.4560  150.9898 C   0  0  0  0  0  0  0  0  0  0  0  0
  147.2347  139.0058  153.0909 H   0  0  0  0  0  0  0  0  0  0  0  0
  148.3811  140.3462  152.9915 H   0  0  0  0  0  0  0  0  0  0  0  0
  147.7292  139.8494  154.5628 H   0  0  0  0  0  0  0  0  0  0  0  0
  149.0233  137.6062  153.4084 H   0  0  0  0  0  0  0  0  0  0  0  0
  151.6541  137.4350  153.3591 H   0  0  0  0  0  0  0  0  0  0  0  0
  152.2904  138.0881  154.8514 H   0  0  0  0  0  0  0  0  0  0  0  0
  151.6685  135.8337  155.4375 H   0  0  0  0  0  0  0  0  0  0  0  0
  150.3519  136.8027  156.0593 H   0  0  0  0  0  0  0  0  0  0  0  0
  149.6208  136.1309  153.4543 H   0  0  0  0  0  0  0  0  0  0  0  0
  148.4369  134.6589  152.9199 H   0  0  0  0  0  0  0  0  0  0  0  0
  148.9328  131.8778  155.2915 H   0  0  0  0  0  0  0  0  0  0  0  0
  147.5482  129.8224  155.2468 H   0  0  0  0  0  0  0  0  0  0  0  0
  145.5581  129.7419  153.7249 H   0  0  0  0  0  0  0  0  0  0  0  0
  145.2405  135.0598  153.4516 H   0  0  0  0  0  0  0  0  0  0  0  0
  146.7845  135.6685  152.8408 H   0  0  0  0  0  0  0  0  0  0  0  0
  144.4888  136.6319  151.7917 H   0  0  0  0  0  0  0  0  0  0  0  0
  145.8179  136.2106  150.7055 H   0  0  0  0  0  0  0  0  0  0  0  0
  143.4137  134.4991  151.4175 H   0  0  0  0  0  0  0  0  0  0  0  0
  144.0302  134.8420  149.8006 H   0  0  0  0  0  0  0  0  0  0  0  0
  145.8155  133.3007  150.0673 H   0  0  0  0  0  0  0  0  0  0  0  0
  144.6974  132.5438  151.2046 H   0  0  0  0  0  0  0  0  0  0  0  0
  1  2  1  0  0  0  0
  1 22  1  0  0  0  0
  1 23  1  0  0  0  0
  1 24  1  0  0  0  0
  2  3  1  0  0  0  0
  2 25  1  0  0  0  0
  3  4  2  0  0  0  0
  3  5  1  0  0  0  0
  5  6  1  0  0  0  0
  5 26  1  0  0  0  0
  5 27  1  0  0  0  0
  6  7  1  0  0  0  0
  6 28  1  0  0  0  0
  6 29  1  0  0  0  0
  7  8  1  0  0  0  0
  7 30  1  0  0  0  0
  8  9  2  0  0  0  0
  8 10  1  0  0  0  0
 10 11  1  0  0  0  0
 10 31  1  0  0  0  0
 11 16  1  0  0  0  0
 11 12  2  0  0  0  0
 12 13  1  0  0  0  0
 12 32  1  0  0  0  0
 13 14  2  0  0  0  0
 13 33  1  0  0  0  0
 14 15  1  0  0  0  0
 14 34  1  0  0  0  0
 15 16  2  0  0  0  0
 16 17  1  0  0  0  0
 17 21  1  0  0  0  0
 17 18  1  0  0  0  0
 18 19  1  0  0  0  0
 18 35  1  0  0  0  0
 18 36  1  0  0  0  0
 19 20  1  0  0  0  0
 19 37  1  0  0  0  0
 19 38  1  0  0  0  0
 20 21  1  0  0  0  0
 20 39  1  0  0  0  0
 20 40  1  0  0  0  0
 21 41  1  0  0  0  0
 21 42  1  0  0  0  0
M  END
> <s_m_source_file>
AV-unprocessed.smi

> <i_m_source_file_index>
316

> <i_lp_mmshare_version>
43012

> <i_f3d_flags>
0

> <s_epik_input>
W0NIM11bTkhdQyg9TylbQ0gyXVtDSDJdW05IXUMoPU8pW05IXWMxW2NIXVtjSF1bY0hdbmMxTjJbQ0gyXVtDSDJdW0NIMl1bQ0gyXTI=

> <s_epik_cmdline>
J2VwaWtfcHl0aG9uJywgJy1waCcsICc3LjAnLCAnLXRuJywgJzgnLCAnLW1hJywgJzIwMCcsICctbWV0YWxfYmluZGluZycsICctaW1hZScsICc8aW5maWxlLm1hZT4nLCAnLW9tYWUnLCAnPG91dGZpbGUubWFlPic=

> <r_lp_tautomer_probability>
1

> <r_epik_Ionization_Penalty>
0.0916714

> <r_epik_Ionization_Penalty_Charging>
0

> <r_epik_Ionization_Penalty_Neutral>
0.0916714

> <r_epik_State_Penalty>
0.0814442

> <r_epik_Charging_Adjusted_Penalty>
0.0814442

> <i_epik_Tot_Q>
0

> <i_epik_Tot_abs_Q>
0

> <r_epik_Metal_State_Penalty>
0.0705089

> <b_epik_Metal_Only>
0

> <s_lp_Force_Field>
OPLS_2005

> <r_lp_Energy>
29.6087

> <b_lp_Chiralities_Consistent>
1

> <s_lp_Variant>
AV-unprocessed.smi:316-1

> <Gold.Version>
5.8.1

> <Gold.Id.Protein>
6NUR|6NUR_protein|mol2

> <Gold.PLP.Fitness>
44.5178

> <Gold.PLP.PLP>
-30.8568

> <Gold.PLP.part.hbond>
-5.6715

> <Gold.PLP.part.metal>
0.0000

> <Gold.PLP.part.buried>
-1.9286

> <Gold.PLP.part.nonpolar>
-25.6619

> <Gold.PLP.part.repulsive>
0.5298

> <Gold.PLP.ligand.clash>
0.0000

> <Gold.PLP.ligand.torsion>
0.3700

> <Gold.PLP.Chemscore.Hbond>
4.0000

> <Gold.PLP.Chemscore.CHOScore>
0.6820

> <Gold.PLP.Chemscore.Metal>
0.0000

> <Gold.Chemscore.Hbonds>
donor molecule, donor type, donor heavy atom, donor atom, acceptor molecule, acceptor atom, score
      L1  H     2    25       P1  7948  0.96
      L1  H     7    30       P1  7948  1.00
      L1  H    10    31       P1  7948  1.00
      P1  H  7989  7998       L1     4  1.00
      L1  C    14    34       P1 10956  0.91

> <Gold.PLP.Chemscore.Internal.Correction>
0.3548

> <Gold.Rescore>
     Score         DG    S(hbond)    S(metal)    S(lipo)     H(rot)  DE(clash)    DE(int)     intcor
     10.66     -14.77       2.22        0.00      58.51       1.94       0.20       3.91       ----

> <Gold.Chemscore.Fitness>
10.6637

> <Gold.Chemscore.DG>
-14.7688

> <Gold.Chemscore.ZeroCoef>
-5.4800

> <Gold.Chemscore.Hbond>
2.2213

> <Gold.Chemscore.Metal>
0.0000

> <Gold.Chemscore.Lipo>
58.5090

> <Gold.Chemscore.Internal_Hbond>
0.0000

> <Gold.Chemscore.DEClash>
0.1965

> <Gold.Chemscore.DEInternal>
3.9086

> <Gold.Chemscore.Rot>
1.9437

> <Gold.Chemscore.Internal.Correction>
   9.000000E+99

> <Gold.Chemscore.Hbonds>
donor molecule, donor type, donor heavy atom, donor atom, acceptor molecule, acceptor atom, score
      L1  H     2    25       P1  7948  0.85
      L1  H     7    30       P1  7948  0.30
      L1  H    10    31       P1  7948  0.38
      P1  H  7989  7998       L1     4  0.70

> <Gold.Chemscore.Hbond.Weighted>
-7.4191

> <Gold.Chemscore.Metal.Weighted>
-0.0000

> <Gold.Chemscore.Lipo.Weighted>
-6.8455

> <Gold.Chemscore.Internal_Hbond.Weighted>
0.0000

> <Gold.Chemscore.DEClash.Weighted>
0.1965

> <Gold.Chemscore.DEInternal.Weighted>
3.9086

> <Gold.Chemscore.Rot.Weighted>
4.9759

> <Gold.Chemscore.Internal.Correction.Weighted>
   9.000000E+99

> <Gold.Protein.RotatedTorsions>
[ 6907 6896 6895 6894 ] final   85.15 input  -60.11 | X-H torsion
[ 7974 7965 7964 7962 ] final  134.29 input  175.53 | X-H torsion
[ 8008 7997 7996 7995 ] final  -25.00 input   59.86 | X-H torsion
[ 10167 10162 10161 10158 ] final  -71.89 input  -65.29 | X-H torsion
[ 10718 10713 10712 10709 ] final   12.18 input   66.30 | X-H torsion
[ 10763 10752 10751 10750 ] final    2.93 input  -60.55 | X-H torsion
[ 11005 11000 10999 10996 ] final  134.78 input  -57.11 | X-H torsion

> <Gold.Protein.ActiveResidues>
 VAL166  LYS551  ARG553  GLY616  TRP617  ASP618  TYR619  PRO620  LYS621  CYS622 
 ASP623  PHE694  ASN695  SER759  ASP760  ASP761  ALA762  ILE779  LEU786  VAL792 
 PHE793  MET794  SER795  GLU796  ALA797  LYS798  CYS799  TRP800  GLU811  SER814 

> <Gold.Protein.RotatedAtoms>
  152.5368  134.2631  159.8942 H   0  0  0  0  0  0  0  0  0  0  0  0  # atno 6907 bound_to 6896
  151.2590  133.4305  159.2623 H   0  0  0  0  0  0  0  0  0  0  0  0  # atno 6908 bound_to 6896
  151.0470  134.9661  159.8248 H   0  0  0  0  0  0  0  0  0  0  0  0  # atno 6909 bound_to 6896
  144.9778  139.4536  143.5401 H   0  0  0  0  0  0  0  0  0  0  0  0  # atno 7974 bound_to 7965
  154.4499  140.1938  156.0551 H   0  0  0  0  0  0  0  0  0  0  0  0  # atno 8008 bound_to 7997
  156.0625  140.3295  155.7451 H   0  0  0  0  0  0  0  0  0  0  0  0  # atno 8009 bound_to 7997
  155.5390  140.0584  157.2864 H   0  0  0  0  0  0  0  0  0  0  0  0  # atno 8010 bound_to 7997
  140.5236  143.2329  151.7386 H   0  0  0  0  0  0  0  0  0  0  0  0  # atno 10167 bound_to 10162
  157.0064  130.6100  149.5702 H   0  0  0  0  0  0  0  0  0  0  0  0  # atno 10718 bound_to 10713
  153.2896  135.6947  153.7306 H   0  0  0  0  0  0  0  0  0  0  0  0  # atno 10763 bound_to 10752
  153.6262  135.3418  155.3028 H   0  0  0  0  0  0  0  0  0  0  0  0  # atno 10764 bound_to 10752
  154.8520  135.4398  154.1974 H   0  0  0  0  0  0  0  0  0  0  0  0  # atno 10765 bound_to 10752
  139.9937  134.9505  156.9915 H   0  0  0  0  0  0  0  0  0  0  0  0  # atno 11005 bound_to 11000
  146.3400  139.9032  142.8791 LP  0  0  0  0  0  0  0  0  0  0  0  0  # atno 17320 bound_to 7965
  145.2465  141.0028  143.3906 LP  0  0  0  0  0  0  0  0  0  0  0  0  # atno 17321 bound_to 7965
  139.4931  144.4218  151.9969 LP  0  0  0  0  0  0  0  0  0  0  0  0  # atno 17342 bound_to 10162
  140.3316  144.3309  150.5986 LP  0  0  0  0  0  0  0  0  0  0  0  0  # atno 17343 bound_to 10162
  156.0152  130.5246  150.8112 LP  0  0  0  0  0  0  0  0  0  0  0  0  # atno 17370 bound_to 10713
  157.5353  131.0938  150.9901 LP  0  0  0  0  0  0  0  0  0  0  0  0  # atno 17371 bound_to 10713
  140.4859  134.1242  155.7224 LP  0  0  0  0  0  0  0  0  0  0  0  0  # atno 17394 bound_to 11000
  141.1587  133.8834  157.1908 LP  0  0  0  0  0  0  0  0  0  0  0  0  # atno 17395 bound_to 11000

$$$$
