AV-unprocessed.smi:2163|AV-procd|sdf|8804|dock10
  -GOLD-   2272011593D 1   1.00000     0.00000
 Structure written by MMmdl.
 43 45  0  0  0  0  0  0  0  0  1 V2000
  153.4085  138.3018  159.3744 C   0  0  0  0  0  0  0  0  0  0  0  0
  152.9152  139.7138  159.3947 C   0  0  0  0  0  0  0  0  0  0  0  0
  153.3635  140.6103  160.2738 N   0  0  0  0  0  0  0  0  0  0  0  0
  152.6589  141.7487  159.9319 C   0  0  0  0  0  0  0  0  0  0  0  0
  152.6839  143.0472  160.4891 C   0  0  0  0  0  0  0  0  0  0  0  0
  151.8630  144.0659  159.9620 C   0  0  0  0  0  0  0  0  0  0  0  0
  151.0074  143.8020  158.8727 C   0  0  0  0  0  0  0  0  0  0  0  0
  150.9662  142.5146  158.3034 C   0  0  0  0  0  0  0  0  0  0  0  0
  151.7870  141.5016  158.8340 C   0  0  0  0  0  0  0  0  0  0  0  0
  151.9815  140.1608  158.5187 N   0  0  0  0  0  0  0  0  0  0  0  0
  151.3094  139.4244  157.4573 C   0  0  0  0  0  0  0  0  0  0  0  0
  152.2817  138.9586  156.3554 C   0  0  2  0  0  0  0  0  0  0  0  0
  152.8089  140.0785  155.6723 O   0  0  0  0  0  0  0  0  0  0  0  0
  151.6065  138.0333  155.3329 C   0  0  0  0  0  0  0  0  0  0  0  0
  151.6865  136.6958  155.8074 O   0  0  0  0  0  0  0  0  0  0  0  0
  151.2530  135.6808  154.9823 C   0  0  0  0  0  0  0  0  0  0  0  0
  150.2530  135.8316  153.9884 C   0  0  0  0  0  0  0  0  0  0  0  0
  149.8733  134.7366  153.1877 C   0  0  0  0  0  0  0  0  0  0  0  0
  150.4841  133.4800  153.3670 C   0  0  0  0  0  0  0  0  0  0  0  0
  150.0793  132.3045  152.5024 C   0  0  0  0  0  0  0  0  0  0  0  0
  150.9365  131.1316  152.7322 C   0  0  0  0  0  0  0  0  0  0  0  0
  151.6108  130.2091  152.9132 N   0  0  0  0  0  0  0  0  0  0  0  0
  151.4783  133.3235  154.3522 C   0  0  0  0  0  0  0  0  0  0  0  0
  151.8573  134.4182  155.1522 C   0  0  0  0  0  0  0  0  0  0  0  0
  154.1194  138.1326  160.1839 H   0  0  0  0  0  0  0  0  0  0  0  0
  153.9092  138.0912  158.4291 H   0  0  0  0  0  0  0  0  0  0  0  0
  152.5774  137.6073  159.4975 H   0  0  0  0  0  0  0  0  0  0  0  0
  153.3362  143.2596  161.3232 H   0  0  0  0  0  0  0  0  0  0  0  0
  151.8902  145.0548  160.3956 H   0  0  0  0  0  0  0  0  0  0  0  0
  150.3826  144.5880  158.4745 H   0  0  0  0  0  0  0  0  0  0  0  0
  150.3121  142.3078  157.4694 H   0  0  0  0  0  0  0  0  0  0  0  0
  150.8181  138.5626  157.9102 H   0  0  0  0  0  0  0  0  0  0  0  0
  150.5130  140.0348  157.0314 H   0  0  0  0  0  0  0  0  0  0  0  0
  153.1212  138.4291  156.8077 H   0  0  0  0  0  0  0  0  0  0  0  0
  152.4193  140.1135  154.8119 H   0  0  0  0  0  0  0  0  0  0  0  0
  150.5669  138.3315  155.1857 H   0  0  0  0  0  0  0  0  0  0  0  0
  152.1203  138.1091  154.3728 H   0  0  0  0  0  0  0  0  0  0  0  0
  149.7628  136.7780  153.8188 H   0  0  0  0  0  0  0  0  0  0  0  0
  149.1118  134.8650  152.4325 H   0  0  0  0  0  0  0  0  0  0  0  0
  149.0468  132.0245  152.7127 H   0  0  0  0  0  0  0  0  0  0  0  0
  150.1377  132.5743  151.4477 H   0  0  0  0  0  0  0  0  0  0  0  0
  151.9537  132.3642  154.4952 H   0  0  0  0  0  0  0  0  0  0  0  0
  152.6207  134.2874  155.9052 H   0  0  0  0  0  0  0  0  0  0  0  0
  1  2  1  0  0  0  0
  1 25  1  0  0  0  0
  1 26  1  0  0  0  0
  1 27  1  0  0  0  0
  2 10  1  0  0  0  0
  2  3  2  0  0  0  0
  3  4  1  0  0  0  0
  4  9  2  0  0  0  0
  4  5  1  0  0  0  0
  5  6  2  0  0  0  0
  5 28  1  0  0  0  0
  6  7  1  0  0  0  0
  6 29  1  0  0  0  0
  7  8  2  0  0  0  0
  7 30  1  0  0  0  0
  8  9  1  0  0  0  0
  8 31  1  0  0  0  0
  9 10  1  0  0  0  0
 10 11  1  0  0  0  0
 11 12  1  0  0  0  0
 11 32  1  0  0  0  0
 11 33  1  0  0  0  0
 12 13  1  0  0  0  0
 12 14  1  0  0  0  0
 12 34  1  0  0  0  0
 13 35  1  0  0  0  0
 14 15  1  0  0  0  0
 14 36  1  0  0  0  0
 14 37  1  0  0  0  0
 15 16  1  0  0  0  0
 16 24  1  0  0  0  0
 16 17  2  0  0  0  0
 17 18  1  0  0  0  0
 17 38  1  0  0  0  0
 18 19  2  0  0  0  0
 18 39  1  0  0  0  0
 19 20  1  0  0  0  0
 19 23  1  0  0  0  0
 20 21  1  0  0  0  0
 20 40  1  0  0  0  0
 20 41  1  0  0  0  0
 21 22  3  0  0  0  0
 23 24  2  0  0  0  0
 23 42  1  0  0  0  0
 24 43  1  0  0  0  0
M  END
> <s_m_source_file>
AV-unprocessed.smi

> <i_m_source_file_index>
2163

> <i_lp_mmshare_version>
43012

> <i_f3d_flags>
0

> <s_epik_input>
W2NIXTFbY0hdW2NIXVtjSF1jKGMxMiluKGMobjIpW0NIM10pW0NIMl1bQ0BIXShbT0hdKVtDSDJdT2MzW2NIXVtjSF1jKFtDSDJdQyNOKVtjSF1bY0hdMw==

> <s_epik_cmdline>
J2VwaWtfcHl0aG9uJywgJy1waCcsICc3LjAnLCAnLXRuJywgJzgnLCAnLW1hJywgJzIwMCcsICctbWV0YWxfYmluZGluZycsICctaW1hZScsICc8aW5maWxlLm1hZT4nLCAnLW9tYWUnLCAnPG91dGZpbGUubWFlPic=

> <r_lp_tautomer_probability>
1

> <r_epik_Ionization_Penalty>
0.114213

> <r_epik_Ionization_Penalty_Charging>
0

> <r_epik_Ionization_Penalty_Neutral>
0.114213

> <r_epik_State_Penalty>
0.103875

> <r_epik_Charging_Adjusted_Penalty>
0.103875

> <i_epik_Tot_Q>
0

> <i_epik_Tot_abs_Q>
0

> <r_epik_Metal_State_Penalty>
0.000113526

> <b_epik_Metal_Only>
0

> <s_lp_Force_Field>
OPLS_2005

> <r_lp_Energy>
15.1167

> <b_lp_Chiralities_Consistent>
1

> <s_lp_Variant>
AV-unprocessed.smi:2163-1

> <Gold.Version>
5.8.1

> <Gold.Id.Protein>
6NUR|6NUR_protein|mol2

> <Gold.PLP.Fitness>
49.2686

> <Gold.PLP.PLP>
-47.8451

> <Gold.PLP.part.hbond>
-1.0000

> <Gold.PLP.part.metal>
0.0000

> <Gold.PLP.part.buried>
-6.8294

> <Gold.PLP.part.nonpolar>
-41.0845

> <Gold.PLP.part.repulsive>
0.0419

> <Gold.PLP.ligand.clash>
0.0000

> <Gold.PLP.ligand.torsion>
0.8129

> <Gold.PLP.Chemscore.Hbond>
1.0000

> <Gold.PLP.Chemscore.CHOScore>
0.0000

> <Gold.PLP.Chemscore.Metal>
0.0000

> <Gold.Chemscore.Hbonds>
donor molecule, donor type, donor heavy atom, donor atom, acceptor molecule, acceptor atom, score
      P1  H  7997  8009       L1    13  1.00

> <Gold.PLP.Chemscore.Internal.Correction>
0.0493

> <Gold.Rescore>
     Score         DG    S(hbond)    S(metal)    S(lipo)     H(rot)  DE(clash)    DE(int)     intcor
     16.06     -16.94       0.98        0.00     124.94       2.51       0.03       0.86       ----

> <Gold.Chemscore.Fitness>
16.0562

> <Gold.Chemscore.DG>
-16.9446

> <Gold.Chemscore.ZeroCoef>
-5.4800

> <Gold.Chemscore.Hbond>
0.9807

> <Gold.Chemscore.Metal>
0.0000

> <Gold.Chemscore.Lipo>
124.9443

> <Gold.Chemscore.Internal_Hbond>
0.0000

> <Gold.Chemscore.DEClash>
0.0315

> <Gold.Chemscore.DEInternal>
0.8569

> <Gold.Chemscore.Rot>
2.5115

> <Gold.Chemscore.Internal.Correction>
   9.000000E+99

> <Gold.Chemscore.Hbonds>
donor molecule, donor type, donor heavy atom, donor atom, acceptor molecule, acceptor atom, score
      P1  H  7997  8009       L1    13  0.73

> <Gold.Chemscore.Hbond.Weighted>
-3.2756

> <Gold.Chemscore.Metal.Weighted>
-0.0000

> <Gold.Chemscore.Lipo.Weighted>
-14.6185

> <Gold.Chemscore.Internal_Hbond.Weighted>
0.0000

> <Gold.Chemscore.DEClash.Weighted>
0.0315

> <Gold.Chemscore.DEInternal.Weighted>
0.8569

> <Gold.Chemscore.Rot.Weighted>
6.4296

> <Gold.Chemscore.Internal.Correction.Weighted>
   9.000000E+99

> <Gold.Protein.RotatedTorsions>
[ 6907 6896 6895 6894 ] final    4.03 input  -60.11 | X-H torsion
[ 7974 7965 7964 7962 ] final   49.77 input  175.53 | X-H torsion
[ 8008 7997 7996 7995 ] final -140.34 input   59.86 | X-H torsion
[ 10167 10162 10161 10158 ] final  -84.12 input  -65.29 | X-H torsion
[ 10718 10713 10712 10709 ] final  161.23 input   66.30 | X-H torsion
[ 10763 10752 10751 10750 ] final   14.77 input  -60.55 | X-H torsion
[ 11005 11000 10999 10996 ] final -121.52 input  -57.11 | X-H torsion

> <Gold.Protein.ActiveResidues>
 VAL166  LYS551  ARG553  GLY616  TRP617  ASP618  TYR619  PRO620  LYS621  CYS622 
 ASP623  PHE694  ASN695  SER759  ASP760  ASP761  ALA762  ILE779  LEU786  VAL792 
 PHE793  MET794  SER795  GLU796  ALA797  LYS798  CYS799  TRP800  GLU811  SER814 

> <Gold.Protein.RotatedAtoms>
  151.6347  135.1019  160.0128 H   0  0  0  0  0  0  0  0  0  0  0  0  # atno 6907 bound_to 6896
  152.4087  133.6925  159.6387 H   0  0  0  0  0  0  0  0  0  0  0  0  # atno 6908 bound_to 6896
  150.7979  133.8580  159.3264 H   0  0  0  0  0  0  0  0  0  0  0  0  # atno 6909 bound_to 6896
  146.0076  139.4508  142.9976 H   0  0  0  0  0  0  0  0  0  0  0  0  # atno 7974 bound_to 7965
  155.4597  140.0545  157.2992 H   0  0  0  0  0  0  0  0  0  0  0  0  # atno 8008 bound_to 7997
  154.4742  140.2054  155.9873 H   0  0  0  0  0  0  0  0  0  0  0  0  # atno 8009 bound_to 7997
  156.1105  140.3205  155.8071 H   0  0  0  0  0  0  0  0  0  0  0  0  # atno 8010 bound_to 7997
  140.4162  143.2602  151.8951 H   0  0  0  0  0  0  0  0  0  0  0  0  # atno 10167 bound_to 10162
  157.1394  131.0536  151.2334 H   0  0  0  0  0  0  0  0  0  0  0  0  # atno 10718 bound_to 10713
  153.1590  135.6792  153.8770 H   0  0  0  0  0  0  0  0  0  0  0  0  # atno 10763 bound_to 10752
  153.8172  135.3135  155.3408 H   0  0  0  0  0  0  0  0  0  0  0  0  # atno 10764 bound_to 10752
  154.7918  135.4830  154.0160 H   0  0  0  0  0  0  0  0  0  0  0  0  # atno 10765 bound_to 10752
  141.0064  134.0328  157.3471 H   0  0  0  0  0  0  0  0  0  0  0  0  # atno 11005 bound_to 11000
  145.7391  141.0014  143.1310 LP  0  0  0  0  0  0  0  0  0  0  0  0  # atno 17320 bound_to 7965
  144.6941  139.9078  143.7462 LP  0  0  0  0  0  0  0  0  0  0  0  0  # atno 17321 bound_to 7965
  139.4782  144.5485  151.8422 LP  0  0  0  0  0  0  0  0  0  0  0  0  # atno 17342 bound_to 10162
  140.4583  144.1757  150.5903 LP  0  0  0  0  0  0  0  0  0  0  0  0  # atno 17343 bound_to 10162
  157.4321  130.7496  149.6998 LP  0  0  0  0  0  0  0  0  0  0  0  0  # atno 17370 bound_to 10713
  155.9791  130.4043  150.3604 LP  0  0  0  0  0  0  0  0  0  0  0  0  # atno 17371 bound_to 10713
  139.9066  135.0181  156.7510 LP  0  0  0  0  0  0  0  0  0  0  0  0  # atno 17394 bound_to 11000
  140.6806  133.9478  155.7908 LP  0  0  0  0  0  0  0  0  0  0  0  0  # atno 17395 bound_to 11000

$$$$
