AV-unprocessed.smi:2741|AV-procd|sdf|10560|dock8
  -GOLD-   2272015 13D 1   1.00000     0.00000
 Structure written by MMmdl.
 39 40  0  0  0  0  0  0  0  0  1 V2000
  148.8310  141.7017  157.4711 O   0  0  0  0  0  0  0  0  0  0  0  0
  149.4642  140.9556  156.7227 C   0  0  0  0  0  0  0  0  0  0  0  0
  150.9751  141.1391  156.5185 C   0  0  0  0  0  0  0  0  0  0  0  0
  151.6855  141.5402  157.7446 N   0  0  0  0  0  0  0  0  0  0  0  0
  151.2972  142.7552  158.3429 C   0  0  0  0  0  0  0  0  0  0  0  0
  151.8811  143.2451  159.4533 C   0  0  0  0  0  0  0  0  0  0  0  0
  151.4047  144.5357  160.1016 C   0  0  0  0  0  0  0  0  0  0  0  0
  151.6819  145.5910  159.3356 F   0  0  0  0  0  0  0  0  0  0  0  0
  150.0861  144.4902  160.2856 F   0  0  0  0  0  0  0  0  0  0  0  0
  151.9830  144.7169  161.2895 F   0  0  0  0  0  0  0  0  0  0  0  0
  152.9291  142.4349  160.0422 C   0  0  0  0  0  0  0  0  0  0  0  0
  153.3081  141.2673  159.4865 C   0  0  0  0  0  0  0  0  0  0  0  0
  152.6795  140.7596  158.2649 C   0  0  0  0  0  0  0  0  0  0  0  0
  153.0242  139.6993  157.7422 O   0  0  0  0  0  0  0  0  0  0  0  0
  148.9019  139.9359  156.0566 N   0  0  0  0  0  0  0  0  0  0  0  0
  147.4889  139.5765  156.1099 C   0  0  0  0  0  0  0  0  0  0  0  0
  146.8308  139.5979  154.7168 C   0  0  2  0  0  0  0  0  0  0  0  0
  145.7112  138.5580  154.5195 C   0  0  0  0  0  0  0  0  0  0  0  0
  145.8279  138.0559  153.0710 C   0  0  0  0  0  0  0  0  0  0  0  0
  146.9038  138.9266  152.4152 C   0  0  2  0  0  0  0  0  0  0  0  0
  147.6053  138.2371  151.4023 O   0  0  0  0  0  0  0  0  0  0  0  0
  147.8127  139.3339  153.5726 C   0  0  0  0  0  0  0  0  0  0  0  0
  151.3807  140.2040  156.1300 H   0  0  0  0  0  0  0  0  0  0  0  0
  151.1456  141.8729  155.7284 H   0  0  0  0  0  0  0  0  0  0  0  0
  150.4936  143.2697  157.8361 H   0  0  0  0  0  0  0  0  0  0  0  0
  153.4236  142.7715  160.9414 H   0  0  0  0  0  0  0  0  0  0  0  0
  154.0949  140.6911  159.9507 H   0  0  0  0  0  0  0  0  0  0  0  0
  149.4944  139.3693  155.4668 H   0  0  0  0  0  0  0  0  0  0  0  0
  147.3734  138.5927  156.5679 H   0  0  0  0  0  0  0  0  0  0  0  0
  146.9868  140.2832  156.7713 H   0  0  0  0  0  0  0  0  0  0  0  0
  146.3992  140.5858  154.5466 H   0  0  0  0  0  0  0  0  0  0  0  0
  145.8249  137.7190  155.2070 H   0  0  0  0  0  0  0  0  0  0  0  0
  144.7340  139.0023  154.7119 H   0  0  0  0  0  0  0  0  0  0  0  0
  146.1409  137.0107  153.0811 H   0  0  0  0  0  0  0  0  0  0  0  0
  144.8799  138.1067  152.5347 H   0  0  0  0  0  0  0  0  0  0  0  0
  146.4407  139.8166  151.9864 H   0  0  0  0  0  0  0  0  0  0  0  0
  148.1129  137.5485  151.8038 H   0  0  0  0  0  0  0  0  0  0  0  0
  148.4280  140.2031  153.3385 H   0  0  0  0  0  0  0  0  0  0  0  0
  148.4802  138.5109  153.8348 H   0  0  0  0  0  0  0  0  0  0  0  0
  1  2  2  0  0  0  0
  2  3  1  0  0  0  0
  2 15  1  0  0  0  0
  3  4  1  0  0  0  0
  3 23  1  0  0  0  0
  3 24  1  0  0  0  0
  4 13  1  0  0  0  0
  4  5  1  0  0  0  0
  5  6  2  0  0  0  0
  5 25  1  0  0  0  0
  6  7  1  0  0  0  0
  6 11  1  0  0  0  0
  7  8  1  0  0  0  0
  7  9  1  0  0  0  0
  7 10  1  0  0  0  0
 11 12  2  0  0  0  0
 11 26  1  0  0  0  0
 12 13  1  0  0  0  0
 12 27  1  0  0  0  0
 13 14  2  0  0  0  0
 15 16  1  0  0  0  0
 15 28  1  0  0  0  0
 16 17  1  0  0  0  0
 16 29  1  0  0  0  0
 16 30  1  0  0  0  0
 17 22  1  0  0  0  0
 17 18  1  0  0  0  0
 17 31  1  0  0  0  0
 18 19  1  0  0  0  0
 18 32  1  0  0  0  0
 18 33  1  0  0  0  0
 19 20  1  0  0  0  0
 19 34  1  0  0  0  0
 19 35  1  0  0  0  0
 20 21  1  0  0  0  0
 20 22  1  0  0  0  0
 20 36  1  0  0  0  0
 21 37  1  0  0  0  0
 22 38  1  0  0  0  0
 22 39  1  0  0  0  0
M  END
> <s_m_source_file>
AV-unprocessed.smi

> <i_m_source_file_index>
2741

> <i_lp_mmshare_version>
43012

> <i_f3d_flags>
0

> <s_epik_input>
W09IXVtDQEBIXShbQ0gyXTEpW0NIMl1bQ0gyXVtDQEhdMVtDSDJdW05IXUMoPU8pW0NIMl1uMltjSF1jKEMoRikoRilGKVtjSF1bY0hdYzI9Tw==

> <s_epik_cmdline>
J2VwaWtfcHl0aG9uJywgJy1waCcsICc3LjAnLCAnLXRuJywgJzgnLCAnLW1hJywgJzIwMCcsICctbWV0YWxfYmluZGluZycsICctaW1hZScsICc8aW5maWxlLm1hZT4nLCAnLW9tYWUnLCAnPG91dGZpbGUubWFlPic=

> <r_lp_tautomer_probability>
1

> <r_epik_Ionization_Penalty>
1.17551e-06

> <r_epik_Ionization_Penalty_Charging>
1.78841e-08

> <r_epik_Ionization_Penalty_Neutral>
1.15762e-06

> <r_epik_State_Penalty>
-0

> <r_epik_Charging_Adjusted_Penalty>
1.78841e-08

> <i_epik_Tot_Q>
0

> <i_epik_Tot_abs_Q>
0

> <r_epik_Metal_State_Penalty>
-0

> <b_epik_Metal_Only>
0

> <s_lp_Force_Field>
OPLS_2005

> <r_lp_Energy>
33.0279

> <b_lp_Chiralities_Consistent>
1

> <s_lp_Variant>
AV-unprocessed.smi:2741-3

> <Gold.Version>
5.8.1

> <Gold.Id.Protein>
6NUR|6NUR_protein|mol2

> <Gold.PLP.Fitness>
47.3102

> <Gold.PLP.PLP>
-41.1526

> <Gold.PLP.part.hbond>
-3.5586

> <Gold.PLP.part.metal>
0.0000

> <Gold.PLP.part.buried>
-2.6819

> <Gold.PLP.part.nonpolar>
-34.7239

> <Gold.PLP.part.repulsive>
0.1230

> <Gold.PLP.ligand.clash>
0.0000

> <Gold.PLP.ligand.torsion>
0.9152

> <Gold.PLP.Chemscore.Hbond>
2.6420

> <Gold.PLP.Chemscore.CHOScore>
0.0000

> <Gold.PLP.Chemscore.Metal>
0.0000

> <Gold.Chemscore.Hbonds>
donor molecule, donor type, donor heavy atom, donor atom, acceptor molecule, acceptor atom, score
      L1  H    21    37       P1  7948  0.99
      P1  H  7954  7966       L1    21  0.60
      P1  H  7997  8008       L1    14  1.00

> <Gold.PLP.Chemscore.Internal.Correction>
0.0620

> <Gold.Rescore>
     Score         DG    S(hbond)    S(metal)    S(lipo)     H(rot)  DE(clash)    DE(int)     intcor
     11.27     -14.05       1.58        0.00      82.55       2.48       0.35       2.44       ----

> <Gold.Chemscore.Fitness>
11.2657

> <Gold.Chemscore.DG>
-14.0494

> <Gold.Chemscore.ZeroCoef>
-5.4800

> <Gold.Chemscore.Hbond>
1.5754

> <Gold.Chemscore.Metal>
0.0000

> <Gold.Chemscore.Lipo>
82.5474

> <Gold.Chemscore.Internal_Hbond>
0.0000

> <Gold.Chemscore.DEClash>
0.3480

> <Gold.Chemscore.DEInternal>
2.4357

> <Gold.Chemscore.Rot>
2.4807

> <Gold.Chemscore.Internal.Correction>
   9.000000E+99

> <Gold.Chemscore.Hbonds>
donor molecule, donor type, donor heavy atom, donor atom, acceptor molecule, acceptor atom, score
      L1  H    21    37       P1  7948  0.91
      P1  H  7954  7966       L1    21  0.04
      P1  H  7997  8008       L1    14  0.50

> <Gold.Chemscore.Hbond.Weighted>
-5.2620

> <Gold.Chemscore.Metal.Weighted>
-0.0000

> <Gold.Chemscore.Lipo.Weighted>
-9.6581

> <Gold.Chemscore.Internal_Hbond.Weighted>
0.0000

> <Gold.Chemscore.DEClash.Weighted>
0.3480

> <Gold.Chemscore.DEInternal.Weighted>
2.4357

> <Gold.Chemscore.Rot.Weighted>
6.3507

> <Gold.Chemscore.Internal.Correction.Weighted>
   9.000000E+99

> <Gold.Protein.RotatedTorsions>
[ 6907 6896 6895 6894 ] final  123.12 input  -60.11 | X-H torsion
[ 7974 7965 7964 7962 ] final  -65.02 input  175.53 | X-H torsion
[ 8008 7997 7996 7995 ] final  -86.07 input   59.86 | X-H torsion
[ 10167 10162 10161 10158 ] final -141.46 input  -65.29 | X-H torsion
[ 10718 10713 10712 10709 ] final  175.54 input   66.30 | X-H torsion
[ 10763 10752 10751 10750 ] final  108.18 input  -60.55 | X-H torsion
[ 11005 11000 10999 10996 ] final -100.72 input  -57.11 | X-H torsion

> <Gold.Protein.ActiveResidues>
 VAL166  LYS551  ARG553  GLY616  TRP617  ASP618  TYR619  PRO620  LYS621  CYS622 
 ASP623  PHE694  ASN695  SER759  ASP760  ASP761  ALA762  ILE779  LEU786  VAL792 
 PHE793  MET794  SER795  GLU796  ALA797  LYS798  CYS799  TRP800  GLU811  SER814 

> <Gold.Protein.RotatedAtoms>
  152.4188  133.7082  159.6462 H   0  0  0  0  0  0  0  0  0  0  0  0  # atno 6907 bound_to 6896
  150.8064  133.8491  159.3209 H   0  0  0  0  0  0  0  0  0  0  0  0  # atno 6908 bound_to 6896
  151.6213  135.1033  160.0154 H   0  0  0  0  0  0  0  0  0  0  0  0  # atno 6909 bound_to 6896
  145.7595  140.8868  143.0437 H   0  0  0  0  0  0  0  0  0  0  0  0  # atno 7974 bound_to 7965
  154.6478  140.0583  156.9920 H   0  0  0  0  0  0  0  0  0  0  0  0  # atno 8008 bound_to 7997
  155.1418  140.3266  155.4432 H   0  0  0  0  0  0  0  0  0  0  0  0  # atno 8009 bound_to 7997
  156.2562  140.1963  156.6533 H   0  0  0  0  0  0  0  0  0  0  0  0  # atno 8010 bound_to 7997
  139.8183  143.7609  152.2665 H   0  0  0  0  0  0  0  0  0  0  0  0  # atno 10167 bound_to 10162
  156.9334  130.9978  151.2983 H   0  0  0  0  0  0  0  0  0  0  0  0  # atno 10718 bound_to 10713
  153.4171  135.3820  155.2088 H   0  0  0  0  0  0  0  0  0  0  0  0  # atno 10763 bound_to 10752
  154.8742  135.3808  154.4429 H   0  0  0  0  0  0  0  0  0  0  0  0  # atno 10764 bound_to 10752
  153.4945  135.7088  153.5928 H   0  0  0  0  0  0  0  0  0  0  0  0  # atno 10765 bound_to 10752
  141.1259  133.8421  157.1139 H   0  0  0  0  0  0  0  0  0  0  0  0  # atno 11005 bound_to 11000
  144.6833  139.9703  143.7482 LP  0  0  0  0  0  0  0  0  0  0  0  0  # atno 17320 bound_to 7965
  146.0278  139.3308  143.0774 LP  0  0  0  0  0  0  0  0  0  0  0  0  # atno 17321 bound_to 7965
  139.7779  144.7454  151.0130 LP  0  0  0  0  0  0  0  0  0  0  0  0  # atno 17342 bound_to 10162
  140.7814  143.4574  151.0326 LP  0  0  0  0  0  0  0  0  0  0  0  0  # atno 17343 bound_to 10162
  157.5832  130.8391  149.8552 LP  0  0  0  0  0  0  0  0  0  0  0  0  # atno 17370 bound_to 10713
  156.0437  130.3733  150.1371 LP  0  0  0  0  0  0  0  0  0  0  0  0  # atno 17371 bound_to 10713
  140.0258  134.9924  157.0683 LP  0  0  0  0  0  0  0  0  0  0  0  0  # atno 17394 bound_to 11000
  140.4365  134.1726  155.7171 LP  0  0  0  0  0  0  0  0  0  0  0  0  # atno 17395 bound_to 11000

$$$$
