AV-unprocessed.smi:2758|AV-procd|sdf|10624|dock2
  -GOLD-   2272015 73D 1   1.00000     0.00000
 Structure written by MMmdl.
 33 34  0  0  0  0  0  0  0  0  2 V2000
  150.8935  137.2145  155.0193 C   0  0  0  0  0  0  0  0  0  0  0  0
  152.1651  136.8268  155.5089 O   0  0  0  0  0  0  0  0  0  0  0  0
  152.4113  137.3020  156.8233 C   0  0  0  0  0  0  0  0  0  0  0  0
  152.3589  138.8386  156.8570 C   0  0  1  0  0  0  0  0  0  0  0  0
  152.9396  139.3540  155.6759 O   0  0  0  0  0  0  0  0  0  0  0  0
  150.9425  139.4060  157.0827 C   0  0  0  0  0  0  0  0  0  0  0  0
  150.8978  140.8746  157.0199 N   0  0  0  0  0  0  0  0  0  0  0  0
  150.2055  141.7022  156.1854 C   0  0  0  0  0  0  0  0  0  0  0  0
  149.2882  141.2926  155.0825 C   0  0  0  0  0  0  0  0  0  0  0  0
  150.5064  142.9820  156.5456 N   0  3  0  0  0  0  0  0  0  0  0  0
  151.3966  142.9731  157.6209 C   0  0  0  0  0  0  0  0  0  0  0  0
  151.9835  144.0180  158.3282 C   0  0  0  0  0  0  0  0  0  0  0  0
  152.8524  143.6601  159.3803 C   0  0  0  0  0  0  0  0  0  0  0  0
  153.1091  142.3093  159.6941 C   0  0  0  0  0  0  0  0  0  0  0  0
  152.5081  141.2586  158.9699 C   0  0  0  0  0  0  0  0  0  0  0  0
  151.6511  141.6216  157.9316 C   0  0  0  0  0  0  0  0  0  0  0  0
  153.0023  139.1699  157.6724 H   0  0  0  0  0  0  0  0  0  0  0  0
  150.7517  136.8180  154.0139 H   0  0  0  0  0  0  0  0  0  0  0  0
  150.8053  138.3005  154.9685 H   0  0  0  0  0  0  0  0  0  0  0  0
  150.0923  136.8269  155.6501 H   0  0  0  0  0  0  0  0  0  0  0  0
  151.6429  136.9046  157.4885 H   0  0  0  0  0  0  0  0  0  0  0  0
  153.3726  136.9412  157.1935 H   0  0  0  0  0  0  0  0  0  0  0  0
  152.2600  139.7610  155.1611 H   0  0  0  0  0  0  0  0  0  0  0  0
  150.2533  139.0258  156.3280 H   0  0  0  0  0  0  0  0  0  0  0  0
  150.5450  139.0889  158.0476 H   0  0  0  0  0  0  0  0  0  0  0  0
  148.9656  142.1613  154.5080 H   0  0  0  0  0  0  0  0  0  0  0  0
  148.4066  140.7992  155.4916 H   0  0  0  0  0  0  0  0  0  0  0  0
  149.7934  140.6001  154.4088 H   0  0  0  0  0  0  0  0  0  0  0  0
  151.7888  145.0534  158.0900 H   0  0  0  0  0  0  0  0  0  0  0  0
  153.3314  144.4372  159.9582 H   0  0  0  0  0  0  0  0  0  0  0  0
  153.7801  142.0740  160.5075 H   0  0  0  0  0  0  0  0  0  0  0  0
  152.7103  140.2271  159.2176 H   0  0  0  0  0  0  0  0  0  0  0  0
  150.1267  143.8011  156.0883 H   0  0  0  0  0  0  0  0  0  0  0  0
  1  2  1  0  0  0  0
  1 18  1  0  0  0  0
  1 19  1  0  0  0  0
  1 20  1  0  0  0  0
  2  3  1  0  0  0  0
  3  4  1  0  0  0  0
  3 21  1  0  0  0  0
  3 22  1  0  0  0  0
  4 17  1  0  0  0  0
  4  5  1  0  0  0  0
  4  6  1  0  0  0  0
  5 23  1  0  0  0  0
  6  7  1  0  0  0  0
  6 24  1  0  0  0  0
  6 25  1  0  0  0  0
  7 16  1  0  0  0  0
  7  8  1  0  0  0  0
  8  9  1  0  0  0  0
  8 10  2  0  0  0  0
  9 26  1  0  0  0  0
  9 27  1  0  0  0  0
  9 28  1  0  0  0  0
 10 11  1  0  0  0  0
 10 33  1  0  0  0  0
 11 16  2  0  0  0  0
 11 12  1  0  0  0  0
 12 13  2  0  0  0  0
 12 29  1  0  0  0  0
 13 14  1  0  0  0  0
 13 30  1  0  0  0  0
 14 15  2  0  0  0  0
 14 31  1  0  0  0  0
 15 16  1  0  0  0  0
 15 32  1  0  0  0  0
M  CHG  1  10   1
M  END
> <s_m_source_file>
AV-unprocessed.smi

> <i_m_source_file_index>
2758

> <i_lp_mmshare_version>
43012

> <i_f3d_flags>
0

> <s_epik_input>
W0NIM11PW0NIMl1bQ0BASF0oW09IXSlbQ0gyXW4oYyhuMSlbQ0gzXSljKGMxMilbY0hdW2NIXVtjSF1bY0hdMg==

> <s_epik_cmdline>
J2VwaWtfcHl0aG9uJywgJy1waCcsICc3LjAnLCAnLXRuJywgJzgnLCAnLW1hJywgJzIwMCcsICctbWV0YWxfYmluZGluZycsICctaW1hZScsICc8aW5maWxlLm1hZT4nLCAnLW9tYWUnLCAnPG91dGZpbGUubWFlPic=

> <r_epik_Ionization_Penalty>
0.974942

> <r_epik_Ionization_Penalty_Charging>
0.974941

> <r_epik_Ionization_Penalty_Neutral>
8.70205e-07

> <r_epik_State_Penalty>
1.02127

> <r_epik_Charging_Adjusted_Penalty>
1.99621

> <i_epik_Tot_Q>
1

> <i_epik_Tot_abs_Q>
1

> <r_epik_Metal_State_Penalty>
4.99771

> <b_epik_Metal_Only>
0

> <s_lp_Force_Field>
OPLS_2005

> <r_lp_Energy>
13.0774

> <b_lp_Chiralities_Consistent>
1

> <s_lp_Variant>
AV-unprocessed.smi:2758-3

> <Gold.Version>
5.8.1

> <Gold.Id.Protein>
6NUR|6NUR_protein|mol2

> <Gold.PLP.Fitness>
46.2240

> <Gold.PLP.PLP>
-34.9570

> <Gold.PLP.part.hbond>
-3.0000

> <Gold.PLP.part.metal>
0.0000

> <Gold.PLP.part.buried>
-5.8685

> <Gold.PLP.part.nonpolar>
-28.2404

> <Gold.PLP.part.repulsive>
0.1074

> <Gold.PLP.ligand.clash>
0.0000

> <Gold.PLP.ligand.torsion>
0.2934

> <Gold.PLP.Chemscore.Hbond>
3.9440

> <Gold.PLP.Chemscore.CHOScore>
0.0000

> <Gold.PLP.Chemscore.Metal>
0.0000

> <Gold.Chemscore.Hbonds>
donor molecule, donor type, donor heavy atom, donor atom, acceptor molecule, acceptor atom, score
      L1  H    10    33       P1  8028  2.00
      P1  H  7997  8010       L1     5  0.90
      P1  H 10752 10765       L1     2  0.98

> <Gold.PLP.Chemscore.Internal.Correction>
0.0217

> <Gold.Rescore>
     Score         DG    S(hbond)    S(metal)    S(lipo)     H(rot)  DE(clash)    DE(int)     intcor
     19.48     -19.82       2.89        0.00      86.41       2.12       0.00       0.35       ----

> <Gold.Chemscore.Fitness>
19.4761

> <Gold.Chemscore.DG>
-19.8236

> <Gold.Chemscore.ZeroCoef>
-5.4800

> <Gold.Chemscore.Hbond>
2.8936

> <Gold.Chemscore.Metal>
0.0000

> <Gold.Chemscore.Lipo>
86.4057

> <Gold.Chemscore.Internal_Hbond>
0.0000

> <Gold.Chemscore.DEClash>
0.0000

> <Gold.Chemscore.DEInternal>
0.3476

> <Gold.Chemscore.Rot>
2.1213

> <Gold.Chemscore.Internal.Correction>
   9.000000E+99

> <Gold.Chemscore.Hbonds>
donor molecule, donor type, donor heavy atom, donor atom, acceptor molecule, acceptor atom, score
      L1  H    10    33       P1  8028  0.95
      P1  H  7997  8010       L1     5  0.17
      P1  H 10752 10765       L1     2  0.90

> <Gold.Chemscore.Hbond.Weighted>
-9.6647

> <Gold.Chemscore.Metal.Weighted>
-0.0000

> <Gold.Chemscore.Lipo.Weighted>
-10.1095

> <Gold.Chemscore.Internal_Hbond.Weighted>
0.0000

> <Gold.Chemscore.DEClash.Weighted>
0.0000

> <Gold.Chemscore.DEInternal.Weighted>
0.3476

> <Gold.Chemscore.Rot.Weighted>
5.4306

> <Gold.Chemscore.Internal.Correction.Weighted>
   9.000000E+99

> <Gold.Protein.RotatedTorsions>
[ 6907 6896 6895 6894 ] final  -72.64 input  -60.11 | X-H torsion
[ 7974 7965 7964 7962 ] final  -23.73 input  175.53 | X-H torsion
[ 8008 7997 7996 7995 ] final   71.61 input   59.86 | X-H torsion
[ 10167 10162 10161 10158 ] final  114.84 input  -65.29 | X-H torsion
[ 10718 10713 10712 10709 ] final   85.08 input   66.30 | X-H torsion
[ 10763 10752 10751 10750 ] final -159.64 input  -60.55 | X-H torsion
[ 11005 11000 10999 10996 ] final  -34.62 input  -57.11 | X-H torsion

> <Gold.Protein.ActiveResidues>
 VAL166  LYS551  ARG553  GLY616  TRP617  ASP618  TYR619  PRO620  LYS621  CYS622 
 ASP623  PHE694  ASN695  SER759  ASP760  ASP761  ALA762  ILE779  LEU786  VAL792 
 PHE793  MET794  SER795  GLU796  ALA797  LYS798  CYS799  TRP800  GLU811  SER814 

> <Gold.Protein.RotatedAtoms>
  150.7162  134.5133  159.5617 H   0  0  0  0  0  0  0  0  0  0  0  0  # atno 6907 bound_to 6896
  152.2705  134.7935  160.0424 H   0  0  0  0  0  0  0  0  0  0  0  0  # atno 6908 bound_to 6896
  151.8617  133.3423  159.3742 H   0  0  0  0  0  0  0  0  0  0  0  0  # atno 6909 bound_to 6896
  146.1598  140.4655  142.8576 H   0  0  0  0  0  0  0  0  0  0  0  0  # atno 7974 bound_to 7965
  155.7565  140.3487  155.5176 H   0  0  0  0  0  0  0  0  0  0  0  0  # atno 8008 bound_to 7997
  155.8955  140.1025  157.1409 H   0  0  0  0  0  0  0  0  0  0  0  0  # atno 8009 bound_to 7997
  154.4038  140.1296  156.4356 H   0  0  0  0  0  0  0  0  0  0  0  0  # atno 8010 bound_to 7997
  139.6359  144.7120  151.2335 H   0  0  0  0  0  0  0  0  0  0  0  0  # atno 10167 bound_to 10162
  157.6909  131.0160  150.2769 H   0  0  0  0  0  0  0  0  0  0  0  0  # atno 10718 bound_to 10713
  154.7458  135.3079  154.8648 H   0  0  0  0  0  0  0  0  0  0  0  0  # atno 10763 bound_to 10752
  153.9449  135.6770  153.4748 H   0  0  0  0  0  0  0  0  0  0  0  0  # atno 10764 bound_to 10752
  153.1054  135.4891  154.8868 H   0  0  0  0  0  0  0  0  0  0  0  0  # atno 10765 bound_to 10752
  140.9731  133.7098  156.1557 H   0  0  0  0  0  0  0  0  0  0  0  0  # atno 11005 bound_to 11000
  144.8012  140.6217  143.6477 LP  0  0  0  0  0  0  0  0  0  0  0  0  # atno 17320 bound_to 7965
  145.4616  139.1512  143.3863 LP  0  0  0  0  0  0  0  0  0  0  0  0  # atno 17321 bound_to 7965
  140.7465  143.6396  150.8347 LP  0  0  0  0  0  0  0  0  0  0  0  0  # atno 17342 bound_to 10162
  140.0028  143.5726  152.2869 LP  0  0  0  0  0  0  0  0  0  0  0  0  # atno 17343 bound_to 10162
  156.3322  130.3802  149.7481 LP  0  0  0  0  0  0  0  0  0  0  0  0  # atno 17370 bound_to 10713
  156.5017  130.8132  151.3135 LP  0  0  0  0  0  0  0  0  0  0  0  0  # atno 17371 bound_to 10713
  140.7299  134.4266  157.5567 LP  0  0  0  0  0  0  0  0  0  0  0  0  # atno 17394 bound_to 11000
  139.8920  134.8766  156.2293 LP  0  0  0  0  0  0  0  0  0  0  0  0  # atno 17395 bound_to 11000

$$$$
