AV-unprocessed.smi:199|AV-procd|sdf|1568|dock8
  -GOLD-   2262019443D 1   1.00000     0.00000
 Structure written by MMmdl.
 51 55  0  0  0  0  0  0  0  0  1 V2000
  147.9001  139.2916  156.8896 C   0  0  0  0  0  0  0  0  0  0  0  0
  149.1821  139.5579  156.0851 C   0  0  2  0  0  0  0  0  0  0  0  0
  150.0288  140.3884  156.8753 O   0  0  0  0  0  0  0  0  0  0  0  0
  150.8235  141.1807  156.0110 C   0  0  0  0  0  0  0  0  0  0  0  0
  149.8314  141.5719  154.9267 C   0  0  0  0  0  0  0  0  0  0  0  0
  149.0188  140.2950  154.7250 C   0  0  1  0  0  0  0  0  0  0  0  0
  149.6730  139.5166  153.7361 O   0  0  0  0  0  0  0  0  0  0  0  0
  147.5649  140.5535  154.2480 C   0  0  0  0  0  0  0  0  0  0  0  0
  147.0102  139.4598  153.4638 N   0  0  0  0  0  0  0  0  0  0  0  0
  146.9756  139.3653  152.0915 C   0  0  0  0  0  0  0  0  0  0  0  0
  146.4133  138.2856  151.6233 N   0  0  0  0  0  0  0  0  0  0  0  0
  146.0418  137.5698  152.7556 C   0  0  0  0  0  0  0  0  0  0  0  0
  145.3872  136.3231  152.9804 C   0  0  0  0  0  0  0  0  0  0  0  0
  144.9497  135.5021  151.9859 N   0  0  0  0  0  0  0  0  0  0  0  0
  145.8666  135.0154  150.9651 C   0  0  1  0  0  0  0  0  0  0  0  0
  146.7013  133.9460  151.6958 C   0  0  0  0  0  0  0  0  0  0  0  0
  145.6554  133.3529  152.6517 C   0  0  0  0  0  0  0  0  0  0  0  0
  144.4033  134.1860  152.2894 C   0  0  2  0  0  0  0  0  0  0  0  0
  143.8280  133.7771  150.9162 C   0  0  2  0  0  0  0  0  0  0  0  0
  143.4693  132.2902  150.7381 C   0  0  0  0  0  0  0  0  0  0  0  0
  142.8293  132.0958  149.4949 O   0  0  0  0  0  0  0  0  0  0  0  0
  144.9212  134.3134  149.9728 C   0  0  0  0  0  0  0  0  0  0  0  0
  145.1648  135.9635  154.2729 N   0  0  0  0  0  0  0  0  0  0  0  0
  145.5743  136.7439  155.2761 C   0  0  0  0  0  0  0  0  0  0  0  0
  146.2055  137.9165  155.2149 N   0  0  0  0  0  0  0  0  0  0  0  0
  146.4130  138.2986  153.9227 C   0  0  0  0  0  0  0  0  0  0  0  0
  147.2094  138.6529  156.3390 H   0  0  0  0  0  0  0  0  0  0  0  0
  147.3845  140.2187  157.1409 H   0  0  0  0  0  0  0  0  0  0  0  0
  148.1345  138.7854  157.8264 H   0  0  0  0  0  0  0  0  0  0  0  0
  149.6994  138.6070  155.9422 H   0  0  0  0  0  0  0  0  0  0  0  0
  151.2469  142.0419  156.5283 H   0  0  0  0  0  0  0  0  0  0  0  0
  151.6397  140.5825  155.6031 H   0  0  0  0  0  0  0  0  0  0  0  0
  149.1927  142.3659  155.3150 H   0  0  0  0  0  0  0  0  0  0  0  0
  150.3077  141.9435  154.0182 H   0  0  0  0  0  0  0  0  0  0  0  0
  149.3369  139.7646  152.8886 H   0  0  0  0  0  0  0  0  0  0  0  0
  146.9080  140.7242  155.1021 H   0  0  0  0  0  0  0  0  0  0  0  0
  147.5176  141.4557  153.6377 H   0  0  0  0  0  0  0  0  0  0  0  0
  147.3750  140.1324  151.4442 H   0  0  0  0  0  0  0  0  0  0  0  0
  146.4764  135.7714  150.4742 H   0  0  0  0  0  0  0  0  0  0  0  0
  147.1253  133.2050  151.0172 H   0  0  0  0  0  0  0  0  0  0  0  0
  147.5197  134.4016  152.2547 H   0  0  0  0  0  0  0  0  0  0  0  0
  145.5215  132.2792  152.5305 H   0  0  0  0  0  0  0  0  0  0  0  0
  145.9504  133.5262  153.6873 H   0  0  0  0  0  0  0  0  0  0  0  0
  143.6421  134.1808  153.0705 H   0  0  0  0  0  0  0  0  0  0  0  0
  142.9201  134.3641  150.7617 H   0  0  0  0  0  0  0  0  0  0  0  0
  144.3526  131.6531  150.7777 H   0  0  0  0  0  0  0  0  0  0  0  0
  142.7937  131.9666  151.5304 H   0  0  0  0  0  0  0  0  0  0  0  0
  142.2230  132.8069  149.3540 H   0  0  0  0  0  0  0  0  0  0  0  0
  144.4965  135.0253  149.2641 H   0  0  0  0  0  0  0  0  0  0  0  0
  145.4243  133.5321  149.4018 H   0  0  0  0  0  0  0  0  0  0  0  0
  145.3639  136.3768  156.2697 H   0  0  0  0  0  0  0  0  0  0  0  0
  1  2  1  0  0  0  0
  1 27  1  0  0  0  0
  1 28  1  0  0  0  0
  1 29  1  0  0  0  0
  2  6  1  0  0  0  0
  2  3  1  0  0  0  0
  2 30  1  0  0  0  0
  3  4  1  0  0  0  0
  4  5  1  0  0  0  0
  4 31  1  0  0  0  0
  4 32  1  0  0  0  0
  5  6  1  0  0  0  0
  5 33  1  0  0  0  0
  5 34  1  0  0  0  0
  6  7  1  0  0  0  0
  6  8  1  0  0  0  0
  7 35  1  0  0  0  0
  8  9  1  0  0  0  0
  8 36  1  0  0  0  0
  8 37  1  0  0  0  0
  9 26  1  0  0  0  0
  9 10  1  0  0  0  0
 10 11  2  0  0  0  0
 10 38  1  0  0  0  0
 11 12  1  0  0  0  0
 12 26  2  0  0  0  0
 12 13  1  0  0  0  0
 13 14  1  0  0  0  0
 13 23  2  0  0  0  0
 14 18  1  0  0  0  0
 14 15  1  0  0  0  0
 15 22  1  0  0  0  0
 15 16  1  0  0  0  0
 15 39  1  0  0  0  0
 16 17  1  0  0  0  0
 16 40  1  0  0  0  0
 16 41  1  0  0  0  0
 17 18  1  0  0  0  0
 17 42  1  0  0  0  0
 17 43  1  0  0  0  0
 18 19  1  0  0  0  0
 18 44  1  0  0  0  0
 19 20  1  0  0  0  0
 19 22  1  0  0  0  0
 19 45  1  0  0  0  0
 20 21  1  0  0  0  0
 20 46  1  0  0  0  0
 20 47  1  0  0  0  0
 21 48  1  0  0  0  0
 22 49  1  0  0  0  0
 22 50  1  0  0  0  0
 23 24  1  0  0  0  0
 24 25  2  0  0  0  0
 24 51  1  0  0  0  0
 25 26  1  0  0  0  0
M  END
> <s_m_source_file>
AV-unprocessed.smi

> <i_m_source_file_index>
199

> <i_lp_mmshare_version>
43012

> <i_f3d_flags>
0

> <s_epik_input>
W0NIMl0xW0NIMl1PW0NAQEhdKFtDSDNdKVtDQEBdMShbT0hdKVtDSDJdbihbY0hdbjIpYyhjMjMpbltjSF1uYzNOKFtDQEBIXTQ1KVtDQEhdKFtDSDJdW0NIMl00KVtDQEhdKFtDSDJdNSlbQ0gyXVtPSF0=

> <s_epik_cmdline>
J2VwaWtfcHl0aG9uJywgJy1waCcsICc3LjAnLCAnLXRuJywgJzgnLCAnLW1hJywgJzIwMCcsICctbWV0YWxfYmluZGluZycsICctaW1hZScsICc8aW5maWxlLm1hZT4nLCAnLW9tYWUnLCAnPG91dGZpbGUubWFlPic=

> <r_lp_tautomer_probability>
1

> <r_epik_Ionization_Penalty>
0.00583903

> <r_epik_Ionization_Penalty_Charging>
0

> <r_epik_Ionization_Penalty_Neutral>
0.00583903

> <r_epik_State_Penalty>
-0

> <r_epik_Charging_Adjusted_Penalty>
0

> <i_epik_Tot_Q>
0

> <i_epik_Tot_abs_Q>
0

> <r_epik_Metal_State_Penalty>
-0

> <b_epik_Metal_Only>
0

> <s_lp_Force_Field>
OPLS_2005

> <r_lp_Energy>
83.953

> <b_lp_Chiralities_Consistent>
1

> <s_lp_Variant>
AV-unprocessed.smi:199-9

> <Gold.Version>
5.8.1

> <Gold.Id.Protein>
6NUR|6NUR_protein|mol2

> <Gold.PLP.Fitness>
42.3235

> <Gold.PLP.PLP>
-33.5422

> <Gold.PLP.part.hbond>
-4.0818

> <Gold.PLP.part.metal>
0.0000

> <Gold.PLP.part.buried>
-0.3160

> <Gold.PLP.part.nonpolar>
-29.5155

> <Gold.PLP.part.repulsive>
0.5559

> <Gold.PLP.ligand.clash>
0.0000

> <Gold.PLP.ligand.torsion>
0.9269

> <Gold.PLP.Chemscore.Hbond>
2.8250

> <Gold.PLP.Chemscore.CHOScore>
0.7161

> <Gold.PLP.Chemscore.Metal>
0.0000

> <Gold.Chemscore.Hbonds>
donor molecule, donor type, donor heavy atom, donor atom, acceptor molecule, acceptor atom, score
      L1  H     7    35       P1  7957  0.99
      L1  H    21    48       P1 10186  1.00
      P1  H  7989  7998       L1     7  0.07
      P1  H 10785 10796       L1    21  0.76
      L1  C    10    38       P1  7957  0.71

> <Gold.PLP.Chemscore.Internal.Correction>
0.0118

> <Gold.Rescore>
     Score         DG    S(hbond)    S(metal)    S(lipo)     H(rot)  DE(clash)    DE(int)     intcor
     11.75     -15.20       2.52        0.00      78.31       3.07       2.20       1.25       ----

> <Gold.Chemscore.Fitness>
11.7526

> <Gold.Chemscore.DG>
-15.2042

> <Gold.Chemscore.ZeroCoef>
-5.4800

> <Gold.Chemscore.Hbond>
2.5237

> <Gold.Chemscore.Metal>
0.0000

> <Gold.Chemscore.Lipo>
78.3052

> <Gold.Chemscore.Internal_Hbond>
0.0000

> <Gold.Chemscore.DEClash>
2.1967

> <Gold.Chemscore.DEInternal>
1.2549

> <Gold.Chemscore.Rot>
3.0729

> <Gold.Chemscore.Internal.Correction>
   9.000000E+99

> <Gold.Chemscore.Hbonds>
donor molecule, donor type, donor heavy atom, donor atom, acceptor molecule, acceptor atom, score
      L1  H     7    35       P1  7957  0.93
      L1  H    21    48       P1 10186  0.94
      P1  H 10785 10796       L1    21  0.59

> <Gold.Chemscore.Hbond.Weighted>
-8.4292

> <Gold.Chemscore.Metal.Weighted>
-0.0000

> <Gold.Chemscore.Lipo.Weighted>
-9.1617

> <Gold.Chemscore.Internal_Hbond.Weighted>
0.0000

> <Gold.Chemscore.DEClash.Weighted>
2.1967

> <Gold.Chemscore.DEInternal.Weighted>
1.2549

> <Gold.Chemscore.Rot.Weighted>
7.8667

> <Gold.Chemscore.Internal.Correction.Weighted>
   9.000000E+99

> <Gold.Protein.RotatedTorsions>
[ 6907 6896 6895 6894 ] final   64.07 input  -60.11 | X-H torsion
[ 7974 7965 7964 7962 ] final -149.20 input  175.53 | X-H torsion
[ 8008 7997 7996 7995 ] final   17.61 input   59.86 | X-H torsion
[ 10167 10162 10161 10158 ] final   59.59 input  -65.29 | X-H torsion
[ 10718 10713 10712 10709 ] final  -78.15 input   66.30 | X-H torsion
[ 10763 10752 10751 10750 ] final -171.53 input  -60.55 | X-H torsion
[ 11005 11000 10999 10996 ] final   43.22 input  -57.11 | X-H torsion

> <Gold.Protein.ActiveResidues>
 VAL166  LYS551  ARG553  GLY616  TRP617  ASP618  TYR619  PRO620  LYS621  CYS622 
 ASP623  PHE694  ASN695  SER759  ASP760  ASP761  ALA762  ILE779  LEU786  VAL792 
 PHE793  MET794  SER795  GLU796  ALA797  LYS798  CYS799  TRP800  GLU811  SER814 

> <Gold.Protein.RotatedAtoms>
  152.4303  134.5790  159.9942 H   0  0  0  0  0  0  0  0  0  0  0  0  # atno 6907 bound_to 6896
  151.5915  133.3360  159.3036 H   0  0  0  0  0  0  0  0  0  0  0  0  # atno 6908 bound_to 6896
  150.8196  134.7432  159.6825 H   0  0  0  0  0  0  0  0  0  0  0  0  # atno 6909 bound_to 6896
  144.7982  140.5096  143.5725 H   0  0  0  0  0  0  0  0  0  0  0  0  # atno 7974 bound_to 7965
  154.8940  140.2991  155.5355 H   0  0  0  0  0  0  0  0  0  0  0  0  # atno 8008 bound_to 7997
  156.3020  140.2419  156.3893 H   0  0  0  0  0  0  0  0  0  0  0  0  # atno 8009 bound_to 7997
  154.8590  140.0406  157.1642 H   0  0  0  0  0  0  0  0  0  0  0  0  # atno 8010 bound_to 7997
  140.1748  144.4241  150.6643 H   0  0  0  0  0  0  0  0  0  0  0  0  # atno 10167 bound_to 10162
  156.0125  130.4510  150.3453 H   0  0  0  0  0  0  0  0  0  0  0  0  # atno 10718 bound_to 10713
  154.6294  135.2885  155.0234 H   0  0  0  0  0  0  0  0  0  0  0  0  # atno 10763 bound_to 10752
  154.1399  135.6520  153.4944 H   0  0  0  0  0  0  0  0  0  0  0  0  # atno 10764 bound_to 10752
  153.0273  135.5330  154.7116 H   0  0  0  0  0  0  0  0  0  0  0  0  # atno 10765 bound_to 10752
  140.1666  134.4275  155.8283 H   0  0  0  0  0  0  0  0  0  0  0  0  # atno 11005 bound_to 11000
  145.5619  139.1480  143.3336 LP  0  0  0  0  0  0  0  0  0  0  0  0  # atno 17320 bound_to 7965
  146.2256  140.5755  142.8998 LP  0  0  0  0  0  0  0  0  0  0  0  0  # atno 17321 bound_to 7965
  140.6558  143.2237  151.5971 LP  0  0  0  0  0  0  0  0  0  0  0  0  # atno 17342 bound_to 10162
  139.5322  144.2884  152.1172 LP  0  0  0  0  0  0  0  0  0  0  0  0  # atno 17343 bound_to 10162
  157.1547  131.0330  151.2869 LP  0  0  0  0  0  0  0  0  0  0  0  0  # atno 17370 bound_to 10713
  157.4362  130.7518  149.7031 LP  0  0  0  0  0  0  0  0  0  0  0  0  # atno 17371 bound_to 10713
  141.2214  133.6937  156.7688 LP  0  0  0  0  0  0  0  0  0  0  0  0  # atno 17394 bound_to 11000
  140.2427  134.8601  157.3589 LP  0  0  0  0  0  0  0  0  0  0  0  0  # atno 17395 bound_to 11000

$$$$
