AV-unprocessed.smi:36|AV-procd|sdf|287|dock9
  -GOLD-   2262016 73D 1   1.00000     0.00000
 Structure written by MMmdl.
 64 67  0  0  0  0  0  0  0  0  1 V2000
  140.3543  137.1836  154.0968 C   0  0  0  0  0  0  0  0  0  0  0  0
  139.1004  137.9759  154.5022 C   0  0  0  0  0  0  0  0  0  0  0  0
  138.5875  138.7842  153.2979 C   0  0  0  0  0  0  0  0  0  0  0  0
  138.0068  137.0119  154.9911 C   0  0  0  0  0  0  0  0  0  0  0  0
  139.5550  139.1871  155.9070 Si  0  0  0  0  0  0  0  0  0  0  0  0
  138.0589  140.2598  156.3869 C   0  0  0  0  0  0  0  0  0  0  0  0
  140.1879  138.2601  157.4389 C   0  0  0  0  0  0  0  0  0  0  0  0
  140.8097  140.1736  155.3397 O   0  0  0  0  0  0  0  0  0  0  0  0
  140.6746  141.1385  154.3163 C   0  0  0  0  0  0  0  0  0  0  0  0
  141.9025  142.0583  154.3297 C   0  0  2  0  0  0  0  0  0  0  0  0
  141.9688  142.7543  155.5691 O   0  0  0  0  0  0  0  0  0  0  0  0
  142.6870  143.9411  155.4073 C   0  0  1  0  0  0  0  0  0  0  0  0
  144.0257  143.7832  156.0571 N   0  0  0  0  0  0  0  0  0  0  0  0
  144.6020  144.5819  156.9774 C   0  0  0  0  0  0  0  0  0  0  0  0
  145.8069  144.1976  157.3911 N   0  0  0  0  0  0  0  0  0  0  0  0
  146.0223  143.0337  156.6606 C   0  0  0  0  0  0  0  0  0  0  0  0
  147.1788  142.1117  156.6471 C   0  0  0  0  0  0  0  0  0  0  0  0
  148.1775  142.3852  157.4309 N   0  0  0  0  0  0  0  0  0  0  0  0
  149.2986  141.5649  157.4456 C   0  0  0  0  0  0  0  0  0  0  0  0
  149.3911  140.3783  157.1184 O   0  0  0  0  0  0  0  0  0  0  0  0
  150.5126  142.2315  158.0090 C   0  0  0  0  0  0  0  0  0  0  0  0
  151.5302  141.4627  158.6138 C   0  0  0  0  0  0  0  0  0  0  0  0
  152.6745  142.0936  159.1400 C   0  0  0  0  0  0  0  0  0  0  0  0
  152.8053  143.4937  159.0643 C   0  0  0  0  0  0  0  0  0  0  0  0
  151.7921  144.2637  158.4614 C   0  0  0  0  0  0  0  0  0  0  0  0
  150.6479  143.6343  157.9337 C   0  0  0  0  0  0  0  0  0  0  0  0
  146.9455  141.0700  155.7396 N   0  0  0  0  0  0  0  0  0  0  0  0
  145.7926  140.9027  154.9566 C   0  0  0  0  0  0  0  0  0  0  0  0
  144.7632  141.7069  154.9611 N   0  0  0  0  0  0  0  0  0  0  0  0
  144.9472  142.7636  155.8417 C   0  0  0  0  0  0  0  0  0  0  0  0
  142.8573  144.1707  153.9003 C   0  0  0  0  0  0  0  0  0  0  0  0
  141.8493  143.1992  153.3155 C   0  0  1  0  0  0  0  0  0  0  0  0
  142.2371  142.7864  152.0213 O   0  0  0  0  0  0  0  0  0  0  0  0
  140.1404  136.4926  153.2807 H   0  0  0  0  0  0  0  0  0  0  0  0
  140.7417  136.5969  154.9299 H   0  0  0  0  0  0  0  0  0  0  0  0
  141.1518  137.8487  153.7641 H   0  0  0  0  0  0  0  0  0  0  0  0
  139.3372  139.4961  152.9508 H   0  0  0  0  0  0  0  0  0  0  0  0
  137.6906  139.3505  153.5497 H   0  0  0  0  0  0  0  0  0  0  0  0
  138.3384  138.1329  152.4597 H   0  0  0  0  0  0  0  0  0  0  0  0
  137.7204  136.3087  154.2085 H   0  0  0  0  0  0  0  0  0  0  0  0
  137.1080  137.5504  155.2929 H   0  0  0  0  0  0  0  0  0  0  0  0
  138.3455  136.4294  155.8481 H   0  0  0  0  0  0  0  0  0  0  0  0
  137.2536  139.6552  156.8030 H   0  0  0  0  0  0  0  0  0  0  0  0
  137.6497  140.7917  155.5287 H   0  0  0  0  0  0  0  0  0  0  0  0
  138.3223  141.0052  157.1365 H   0  0  0  0  0  0  0  0  0  0  0  0
  139.4352  137.5787  157.8342 H   0  0  0  0  0  0  0  0  0  0  0  0
  140.4543  138.9495  158.2398 H   0  0  0  0  0  0  0  0  0  0  0  0
  141.0750  137.6696  157.2116 H   0  0  0  0  0  0  0  0  0  0  0  0
  140.5823  140.6355  153.3534 H   0  0  0  0  0  0  0  0  0  0  0  0
  139.7584  141.7089  154.4707 H   0  0  0  0  0  0  0  0  0  0  0  0
  142.8213  141.4879  154.1936 H   0  0  0  0  0  0  0  0  0  0  0  0
  142.1988  144.7605  155.9356 H   0  0  0  0  0  0  0  0  0  0  0  0
  144.1291  145.4749  157.3580 H   0  0  0  0  0  0  0  0  0  0  0  0
  151.4388  140.3878  158.6743 H   0  0  0  0  0  0  0  0  0  0  0  0
  153.4523  141.5031  159.6011 H   0  0  0  0  0  0  0  0  0  0  0  0
  153.6828  143.9769  159.4678 H   0  0  0  0  0  0  0  0  0  0  0  0
  151.8924  145.3374  158.4037 H   0  0  0  0  0  0  0  0  0  0  0  0
  149.8756  144.2325  157.4719 H   0  0  0  0  0  0  0  0  0  0  0  0
  145.8152  140.0188  154.3176 H   0  0  0  0  0  0  0  0  0  0  0  0
  142.6645  145.2108  153.6360 H   0  0  0  0  0  0  0  0  0  0  0  0
  143.8739  143.9114  153.5971 H   0  0  0  0  0  0  0  0  0  0  0  0
  140.8566  143.6510  153.2911 H   0  0  0  0  0  0  0  0  0  0  0  0
  142.3498  141.8482  152.0257 H   0  0  0  0  0  0  0  0  0  0  0  0
  147.6722  140.3754  155.6439 H   0  0  0  0  0  0  0  0  0  0  0  0
  1  2  1  0  0  0  0
  1 34  1  0  0  0  0
  1 35  1  0  0  0  0
  1 36  1  0  0  0  0
  2  3  1  0  0  0  0
  2  4  1  0  0  0  0
  2  5  1  0  0  0  0
  3 37  1  0  0  0  0
  3 38  1  0  0  0  0
  3 39  1  0  0  0  0
  4 40  1  0  0  0  0
  4 41  1  0  0  0  0
  4 42  1  0  0  0  0
  5  6  1  0  0  0  0
  5  7  1  0  0  0  0
  5  8  1  0  0  0  0
  6 43  1  0  0  0  0
  6 44  1  0  0  0  0
  6 45  1  0  0  0  0
  7 46  1  0  0  0  0
  7 47  1  0  0  0  0
  7 48  1  0  0  0  0
  8  9  1  0  0  0  0
  9 10  1  0  0  0  0
  9 49  1  0  0  0  0
  9 50  1  0  0  0  0
 10 32  1  0  0  0  0
 10 11  1  0  0  0  0
 10 51  1  0  0  0  0
 11 12  1  0  0  0  0
 12 13  1  0  0  0  0
 12 31  1  0  0  0  0
 12 52  1  0  0  0  0
 13 30  1  0  0  0  0
 13 14  1  0  0  0  0
 14 15  2  0  0  0  0
 14 53  1  0  0  0  0
 15 16  1  0  0  0  0
 16 30  2  0  0  0  0
 16 17  1  0  0  0  0
 17 18  2  0  0  0  0
 17 27  1  0  0  0  0
 18 19  1  0  0  0  0
 19 20  2  0  0  0  0
 19 21  1  0  0  0  0
 21 26  1  0  0  0  0
 21 22  2  0  0  0  0
 22 23  1  0  0  0  0
 22 54  1  0  0  0  0
 23 24  2  0  0  0  0
 23 55  1  0  0  0  0
 24 25  1  0  0  0  0
 24 56  1  0  0  0  0
 25 26  2  0  0  0  0
 25 57  1  0  0  0  0
 26 58  1  0  0  0  0
 27 28  1  0  0  0  0
 27 64  1  0  0  0  0
 28 29  2  0  0  0  0
 28 59  1  0  0  0  0
 29 30  1  0  0  0  0
 31 32  1  0  0  0  0
 31 60  1  0  0  0  0
 31 61  1  0  0  0  0
 32 33  1  0  0  0  0
 32 62  1  0  0  0  0
 33 63  1  0  0  0  0
M  END
> <s_m_source_file>
AV-unprocessed.smi

> <i_m_source_file_index>
36

> <i_lp_mmshare_version>
43012

> <i_f3d_flags>
0

> <s_epik_input>
W0NIM11DKFtDSDNdKShbQ0gzXSlbU2ldKFtDSDNdKShbQ0gzXSlPW0NIMl1bQ0BASF0xT1tDQEhdKFtDSDJdW0NASF0xW09IXSluKFtjSF1uMiljKGMyMyluW2NIXW5jM1tOSF1DKD1PKWM0W2NIXVtjSF1bY0hdW2NIXVtjSF00

> <s_epik_cmdline>
J2VwaWtfcHl0aG9uJywgJy1waCcsICc3LjAnLCAnLXRuJywgJzgnLCAnLW1hJywgJzIwMCcsICctbWV0YWxfYmluZGluZycsICctaW1hZScsICc8aW5maWxlLm1hZT4nLCAnLW9tYWUnLCAnPG91dGZpbGUubWFlPic=

> <r_epik_Ionization_Penalty>
0.0850405

> <r_epik_Ionization_Penalty_Charging>
0.0850403

> <r_epik_Ionization_Penalty_Neutral>
1.47497e-07

> <r_epik_State_Penalty>
2.6133

> <r_epik_Charging_Adjusted_Penalty>
2.69834

> <i_epik_Tot_Q>
0

> <i_epik_Tot_abs_Q>
0

> <r_epik_Metal_State_Penalty>
2.92945

> <b_epik_Metal_Only>
0

> <s_epik_Chemistry_Notes>
This compound contains an acetal/aminal-like group ( X-CH(R)-Y where X, Y are N, S, or O) that may be acid/base labile, releasing an aldehyde.

> <s_lp_Force_Field>
OPLS_2005

> <r_lp_Energy>
46.6166

> <b_lp_Chiralities_Consistent>
1

> <s_lp_Variant>
AV-unprocessed.smi:36-9

> <Gold.Version>
5.8.1

> <Gold.Id.Protein>
6NUR|6NUR_protein|mol2

> <Gold.PLP.Fitness>
45.2504

> <Gold.PLP.PLP>
-40.3103

> <Gold.PLP.part.hbond>
-3.0000

> <Gold.PLP.part.metal>
0.0000

> <Gold.PLP.part.buried>
-5.8468

> <Gold.PLP.part.nonpolar>
-32.9363

> <Gold.PLP.part.repulsive>
0.6615

> <Gold.PLP.ligand.clash>
0.0000

> <Gold.PLP.ligand.torsion>
0.5571

> <Gold.PLP.Chemscore.Hbond>
1.0000

> <Gold.PLP.Chemscore.CHOScore>
0.9980

> <Gold.PLP.Chemscore.Metal>
0.0000

> <Gold.Chemscore.Hbonds>
donor molecule, donor type, donor heavy atom, donor atom, acceptor molecule, acceptor atom, score
      L1  C    28    59       P1 10175  0.09

> <Gold.PLP.Chemscore.Internal.Correction>
0.0601

> <Gold.Rescore>
     Score         DG    S(hbond)    S(metal)    S(lipo)     H(rot)  DE(clash)    DE(int)     intcor
      9.37     -13.23       1.00        0.00      96.94       2.70       0.14       3.72       ----

> <Gold.Chemscore.Fitness>
9.3697

> <Gold.Chemscore.DG>
-13.2260

> <Gold.Chemscore.ZeroCoef>
-5.4800

> <Gold.Chemscore.Hbond>
0.9961

> <Gold.Chemscore.Metal>
0.0000

> <Gold.Chemscore.Lipo>
96.9361

> <Gold.Chemscore.Internal_Hbond>
0.0000

> <Gold.Chemscore.DEClash>
0.1367

> <Gold.Chemscore.DEInternal>
3.7196

> <Gold.Chemscore.Rot>
2.7041

> <Gold.Chemscore.Internal.Correction>
   9.000000E+99

> <Gold.Chemscore.Hbond.Weighted>
-3.3270

> <Gold.Chemscore.Metal.Weighted>
-0.0000

> <Gold.Chemscore.Lipo.Weighted>
-11.3415

> <Gold.Chemscore.Internal_Hbond.Weighted>
0.0000

> <Gold.Chemscore.DEClash.Weighted>
0.1367

> <Gold.Chemscore.DEInternal.Weighted>
3.7196

> <Gold.Chemscore.Rot.Weighted>
6.9225

> <Gold.Chemscore.Internal.Correction.Weighted>
   9.000000E+99

> <Gold.Protein.RotatedTorsions>
[ 6907 6896 6895 6894 ] final  -10.60 input  -60.11 | X-H torsion
[ 7974 7965 7964 7962 ] final -151.51 input  175.53 | X-H torsion
[ 8008 7997 7996 7995 ] final  167.59 input   59.86 | X-H torsion
[ 10167 10162 10161 10158 ] final   77.59 input  -65.29 | X-H torsion
[ 10718 10713 10712 10709 ] final -135.39 input   66.30 | X-H torsion
[ 10763 10752 10751 10750 ] final  120.78 input  -60.55 | X-H torsion
[ 11005 11000 10999 10996 ] final  164.38 input  -57.11 | X-H torsion

> <Gold.Protein.ActiveResidues>
 VAL166  LYS551  ARG553  GLY616  TRP617  ASP618  TYR619  PRO620  LYS621  CYS622 
 ASP623  PHE694  ASN695  SER759  ASP760  ASP761  ALA762  ILE779  LEU786  VAL792 
 PHE793  MET794  SER795  GLU796  ALA797  LYS798  CYS799  TRP800  GLU811  SER814 

> <Gold.Protein.RotatedAtoms>
  151.3993  135.0968  159.9550 H   0  0  0  0  0  0  0  0  0  0  0  0  # atno 6907 bound_to 6896
  152.5055  133.8903  159.7401 H   0  0  0  0  0  0  0  0  0  0  0  0  # atno 6908 bound_to 6896
  150.9374  133.6640  159.2826 H   0  0  0  0  0  0  0  0  0  0  0  0  # atno 6909 bound_to 6896
  144.7846  140.4787  143.5815 H   0  0  0  0  0  0  0  0  0  0  0  0  # atno 7974 bound_to 7965
  156.1620  140.1613  156.8595 H   0  0  0  0  0  0  0  0  0  0  0  0  # atno 8008 bound_to 7997
  154.5170  140.0787  156.8136 H   0  0  0  0  0  0  0  0  0  0  0  0  # atno 8009 bound_to 7997
  155.3687  140.3399  155.4245 H   0  0  0  0  0  0  0  0  0  0  0  0  # atno 8010 bound_to 7997
  139.9799  144.5834  150.7910 H   0  0  0  0  0  0  0  0  0  0  0  0  # atno 10167 bound_to 10162
  156.2657  130.7236  151.1185 H   0  0  0  0  0  0  0  0  0  0  0  0  # atno 10718 bound_to 10713
  153.6038  135.3443  155.2954 H   0  0  0  0  0  0  0  0  0  0  0  0  # atno 10763 bound_to 10752
  154.8631  135.4234  154.2384 H   0  0  0  0  0  0  0  0  0  0  0  0  # atno 10764 bound_to 10752
  153.3219  135.7038  153.7095 H   0  0  0  0  0  0  0  0  0  0  0  0  # atno 10765 bound_to 10752
  140.2453  134.8019  157.3450 H   0  0  0  0  0  0  0  0  0  0  0  0  # atno 11005 bound_to 11000
  145.5958  139.1499  143.3157 LP  0  0  0  0  0  0  0  0  0  0  0  0  # atno 17320 bound_to 7965
  146.2071  140.6081  142.9076 LP  0  0  0  0  0  0  0  0  0  0  0  0  # atno 17321 bound_to 7965
  140.7493  143.2936  151.3265 LP  0  0  0  0  0  0  0  0  0  0  0  0  # atno 17342 bound_to 10162
  139.6417  144.0526  152.2560 LP  0  0  0  0  0  0  0  0  0  0  0  0  # atno 17343 bound_to 10162
  157.7266  131.0645  150.5901 LP  0  0  0  0  0  0  0  0  0  0  0  0  # atno 17370 bound_to 10713
  156.5993  130.4350  149.5904 LP  0  0  0  0  0  0  0  0  0  0  0  0  # atno 17371 bound_to 10713
  140.1612  134.4726  155.7893 LP  0  0  0  0  0  0  0  0  0  0  0  0  # atno 17394 bound_to 11000
  141.2207  133.6902  156.7548 LP  0  0  0  0  0  0  0  0  0  0  0  0  # atno 17395 bound_to 11000

$$$$
