AV-unprocessed.smi:743|AV-procd|sdf|3565|dock7
  -GOLD-   22720 0563D 1   1.00000     0.00000
 Structure written by MMmdl.
 28 29  0  0  0  0  0  0  0  0  1 V2000
  152.4672  143.5313  161.0202 C   0  0  0  0  0  0  0  0  0  0  0  0
  151.9778  143.4782  159.6593 N   0  0  0  0  0  0  0  0  0  0  0  0
  151.7652  142.3720  158.8660 C   0  0  0  0  0  0  0  0  0  0  0  0
  151.3038  142.8125  157.6556 C   0  0  0  0  0  0  0  0  0  0  0  0
  150.9132  142.0175  156.4314 C   0  0  1  0  0  0  0  0  0  0  0  0
  152.0028  141.1240  156.0246 N   0  0  0  0  0  0  0  0  0  0  0  0
  151.8921  139.8716  155.5467 C   0  0  0  0  0  0  0  0  0  0  0  0
  152.8791  139.2315  155.1914 O   0  0  0  0  0  0  0  0  0  0  0  0
  150.5041  139.2191  155.4745 C   0  0  0  0  0  0  0  0  0  0  0  0
  149.3531  140.2337  155.5375 C   0  0  0  0  0  0  0  0  0  0  0  0
  149.5910  141.2472  156.6626 C   0  0  2  0  0  0  0  0  0  0  0  0
  148.4638  142.1585  156.7465 N   0  0  0  0  0  0  0  0  0  0  0  0
  151.2679  144.2277  157.8188 C   0  0  0  0  0  0  0  0  0  0  0  0
  151.6737  144.6224  159.0144 N   0  0  0  0  0  0  0  0  0  0  0  0
  149.6510  140.7049  157.6074 H   0  0  0  0  0  0  0  0  0  0  0  0
  152.3215  142.5659  161.5061 H   0  0  0  0  0  0  0  0  0  0  0  0
  151.9285  144.2941  161.5837 H   0  0  0  0  0  0  0  0  0  0  0  0
  153.5307  143.7714  161.0173 H   0  0  0  0  0  0  0  0  0  0  0  0
  151.9575  141.3713  159.2245 H   0  0  0  0  0  0  0  0  0  0  0  0
  150.7705  142.6945  155.5875 H   0  0  0  0  0  0  0  0  0  0  0  0
  152.9337  141.5117  156.0767 H   0  0  0  0  0  0  0  0  0  0  0  0
  150.4277  138.6234  154.5643 H   0  0  0  0  0  0  0  0  0  0  0  0
  150.4226  138.5240  156.3108 H   0  0  0  0  0  0  0  0  0  0  0  0
  149.2638  140.7482  154.5792 H   0  0  0  0  0  0  0  0  0  0  0  0
  148.4124  139.7048  155.6952 H   0  0  0  0  0  0  0  0  0  0  0  0
  148.5855  142.9115  156.0846 H   0  0  0  0  0  0  0  0  0  0  0  0
  147.6177  141.6762  156.4786 H   0  0  0  0  0  0  0  0  0  0  0  0
  150.9608  144.9765  157.1036 H   0  0  0  0  0  0  0  0  0  0  0  0
  1  2  1  0  0  0  0
  1 16  1  0  0  0  0
  1 17  1  0  0  0  0
  1 18  1  0  0  0  0
  2 14  1  0  0  0  0
  2  3  1  0  0  0  0
  3  4  2  0  0  0  0
  3 19  1  0  0  0  0
  4  5  1  0  0  0  0
  4 13  1  0  0  0  0
  5 11  1  0  0  0  0
  5  6  1  0  0  0  0
  5 20  1  0  0  0  0
  6  7  1  0  0  0  0
  6 21  1  0  0  0  0
  7  8  2  0  0  0  0
  7  9  1  0  0  0  0
  9 10  1  0  0  0  0
  9 22  1  0  0  0  0
  9 23  1  0  0  0  0
 10 11  1  0  0  0  0
 10 24  1  0  0  0  0
 10 25  1  0  0  0  0
 11 15  1  0  0  0  0
 11 12  1  0  0  0  0
 12 26  1  0  0  0  0
 12 27  1  0  0  0  0
 13 14  2  0  0  0  0
 13 28  1  0  0  0  0
M  END
> <s_m_source_file>
AV-unprocessed.smi

> <i_m_source_file_index>
743

> <i_lp_mmshare_version>
43012

> <i_f3d_flags>
0

> <s_epik_input>
W0NIM11uMVtjSF1jKFtjSF1uMSlbQ0BASF0yW05IXUMoPU8pW0NIMl1bQ0gyXVtDQEBIXTJbTkgyXQ==

> <s_epik_cmdline>
J2VwaWtfcHl0aG9uJywgJy1waCcsICc3LjAnLCAnLXRuJywgJzgnLCAnLW1hJywgJzIwMCcsICctbWV0YWxfYmluZGluZycsICctaW1hZScsICc8aW5maWxlLm1hZT4nLCAnLW9tYWUnLCAnPG91dGZpbGUubWFlPic=

> <r_lp_tautomer_probability>
1

> <r_epik_Ionization_Penalty>
2.50279

> <r_epik_Ionization_Penalty_Charging>
0

> <r_epik_Ionization_Penalty_Neutral>
2.50279

> <r_epik_State_Penalty>
2.66754

> <r_epik_Charging_Adjusted_Penalty>
2.66754

> <i_epik_Tot_Q>
0

> <i_epik_Tot_abs_Q>
0

> <r_epik_Metal_State_Penalty>
2.66721

> <b_epik_Metal_Only>
0

> <s_lp_Force_Field>
OPLS_2005

> <r_lp_Energy>
8.34042

> <b_lp_Chiralities_Consistent>
1

> <s_lp_Variant>
AV-unprocessed.smi:743-6

> <Gold.Version>
5.8.1

> <Gold.Id.Protein>
6NUR|6NUR_protein|mol2

> <Gold.PLP.Fitness>
33.3572

> <Gold.PLP.PLP>
-25.0932

> <Gold.PLP.part.hbond>
-2.0000

> <Gold.PLP.part.metal>
0.0000

> <Gold.PLP.part.buried>
-0.2641

> <Gold.PLP.part.nonpolar>
-23.2420

> <Gold.PLP.part.repulsive>
0.2559

> <Gold.PLP.ligand.clash>
0.0000

> <Gold.PLP.ligand.torsion>
0.1563

> <Gold.PLP.Chemscore.Hbond>
2.0000

> <Gold.PLP.Chemscore.CHOScore>
0.8502

> <Gold.PLP.Chemscore.Metal>
0.0000

> <Gold.Chemscore.Hbonds>
donor molecule, donor type, donor heavy atom, donor atom, acceptor molecule, acceptor atom, score
      L1  H    12    26       P1  8028  1.00
      P1  H  7997  8009       L1     8  1.00
      L1  C    13    28       P1  8028  0.88

> <Gold.PLP.Chemscore.Internal.Correction>
0.0260

> <Gold.Rescore>
     Score         DG    S(hbond)    S(metal)    S(lipo)     H(rot)  DE(clash)    DE(int)     intcor
     15.35     -17.08       1.85        0.00      68.24       1.00       1.65       0.08       ----

> <Gold.Chemscore.Fitness>
15.3464

> <Gold.Chemscore.DG>
-17.0755

> <Gold.Chemscore.ZeroCoef>
-5.4800

> <Gold.Chemscore.Hbond>
1.8477

> <Gold.Chemscore.Metal>
0.0000

> <Gold.Chemscore.Lipo>
68.2419

> <Gold.Chemscore.Internal_Hbond>
0.0000

> <Gold.Chemscore.DEClash>
1.6491

> <Gold.Chemscore.DEInternal>
0.0800

> <Gold.Chemscore.Rot>
1.0000

> <Gold.Chemscore.Internal.Correction>
   9.000000E+99

> <Gold.Chemscore.Hbonds>
donor molecule, donor type, donor heavy atom, donor atom, acceptor molecule, acceptor atom, score
      L1  H    12    26       P1  8028  0.95
      P1  H  7997  8009       L1     8  0.33

> <Gold.Chemscore.Hbond.Weighted>
-6.1712

> <Gold.Chemscore.Metal.Weighted>
-0.0000

> <Gold.Chemscore.Lipo.Weighted>
-7.9843

> <Gold.Chemscore.Internal_Hbond.Weighted>
0.0000

> <Gold.Chemscore.DEClash.Weighted>
1.6491

> <Gold.Chemscore.DEInternal.Weighted>
0.0800

> <Gold.Chemscore.Rot.Weighted>
2.5600

> <Gold.Chemscore.Internal.Correction.Weighted>
   9.000000E+99

> <Gold.Protein.RotatedTorsions>
[ 6907 6896 6895 6894 ] final    1.39 input  -60.11 | X-H torsion
[ 7974 7965 7964 7962 ] final -149.17 input  175.53 | X-H torsion
[ 8008 7997 7996 7995 ] final -157.40 input   59.86 | X-H torsion
[ 10167 10162 10161 10158 ] final -169.22 input  -65.29 | X-H torsion
[ 10718 10713 10712 10709 ] final  128.58 input   66.30 | X-H torsion
[ 10763 10752 10751 10750 ] final -134.44 input  -60.55 | X-H torsion
[ 11005 11000 10999 10996 ] final  175.24 input  -57.11 | X-H torsion

> <Gold.Protein.ActiveResidues>
 VAL166  LYS551  ARG553  GLY616  TRP617  ASP618  TYR619  PRO620  LYS621  CYS622 
 ASP623  PHE694  ASN695  SER759  ASP760  ASP761  ALA762  ILE779  LEU786  VAL792 
 PHE793  MET794  SER795  GLU796  ALA797  LYS798  CYS799  TRP800  GLU811  SER814 

> <Gold.Protein.RotatedAtoms>
  151.5918  135.1053  160.0040 H   0  0  0  0  0  0  0  0  0  0  0  0  # atno 6907 bound_to 6896
  152.4302  133.7260  159.6571 H   0  0  0  0  0  0  0  0  0  0  0  0  # atno 6908 bound_to 6896
  150.8194  133.8208  159.3168 H   0  0  0  0  0  0  0  0  0  0  0  0  # atno 6909 bound_to 6896
  144.7984  140.5100  143.5724 H   0  0  0  0  0  0  0  0  0  0  0  0  # atno 7974 bound_to 7965
  155.7319  140.0803  157.2285 H   0  0  0  0  0  0  0  0  0  0  0  0  # atno 8008 bound_to 7997
  154.4032  140.1594  156.2573 H   0  0  0  0  0  0  0  0  0  0  0  0  # atno 8009 bound_to 7997
  155.9101  140.3404  155.6095 H   0  0  0  0  0  0  0  0  0  0  0  0  # atno 8010 bound_to 7997
  139.5936  144.1160  152.1663 H   0  0  0  0  0  0  0  0  0  0  0  0  # atno 10167 bound_to 10162
  157.5232  131.1098  150.9123 H   0  0  0  0  0  0  0  0  0  0  0  0  # atno 10718 bound_to 10713
  154.8719  135.3734  154.4735 H   0  0  0  0  0  0  0  0  0  0  0  0  # atno 10763 bound_to 10752
  153.5394  135.7026  153.5649 H   0  0  0  0  0  0  0  0  0  0  0  0  # atno 10764 bound_to 10752
  153.3818  135.3995  155.1826 H   0  0  0  0  0  0  0  0  0  0  0  0  # atno 10765 bound_to 10752
  140.3601  134.7120  157.4325 H   0  0  0  0  0  0  0  0  0  0  0  0  # atno 11005 bound_to 11000
  145.5616  139.1479  143.3338 LP  0  0  0  0  0  0  0  0  0  0  0  0  # atno 17320 bound_to 7965
  146.2258  140.5751  142.8997 LP  0  0  0  0  0  0  0  0  0  0  0  0  # atno 17321 bound_to 7965
  140.0740  144.5755  150.7170 LP  0  0  0  0  0  0  0  0  0  0  0  0  # atno 17342 bound_to 10162
  140.7193  143.2574  151.4330 LP  0  0  0  0  0  0  0  0  0  0  0  0  # atno 17343 bound_to 10162
  156.9727  130.5497  149.5291 LP  0  0  0  0  0  0  0  0  0  0  0  0  # atno 17370 bound_to 10713
  156.0368  130.5455  150.8673 LP  0  0  0  0  0  0  0  0  0  0  0  0  # atno 17371 bound_to 10713
  140.0634  134.5964  155.8723 LP  0  0  0  0  0  0  0  0  0  0  0  0  # atno 17394 bound_to 11000
  141.1986  133.6602  156.5803 LP  0  0  0  0  0  0  0  0  0  0  0  0  # atno 17395 bound_to 11000

$$$$
