AV-unprocessed.smi:1803|AV-procd|sdf|7289|dock2
  -GOLD-   22720 8543D 1   1.00000     0.00000
 Structure written by MMmdl.
 35 37  0  0  0  0  0  0  0  0  3 V2000
  148.9649  141.3242  155.9240 O   0  0  0  0  0  0  0  0  0  0  0  0
  149.4637  140.8053  154.9264 C   0  0  0  0  0  0  0  0  0  0  0  0
  150.7469  140.3623  154.8759 N   0  5  0  0  0  0  0  0  0  0  0  0
  151.4100  139.9338  155.9664 C   0  0  0  0  0  0  0  0  0  0  0  0
  152.6671  139.4651  155.9087 N   0  0  0  0  0  0  0  0  0  0  0  0
  153.1647  139.0843  157.1474 N   0  0  0  0  0  0  0  0  0  0  0  0
  152.2621  139.2668  158.1110 C   0  0  0  0  0  0  0  0  0  0  0  0
  150.7246  139.9257  157.5933 S   0  0  0  0  0  0  0  0  0  0  0  0
  148.7075  140.6618  153.8222 N   0  0  0  0  0  0  0  0  0  0  0  0
  147.3176  141.0761  153.6784 C   0  0  2  0  0  0  0  0  0  0  0  0
  147.0722  142.5677  153.9774 C   0  0  0  0  0  0  0  0  0  0  0  0
  145.7231  142.6176  154.7213 C   0  0  0  0  0  0  0  0  0  0  0  0
  145.2273  141.2277  154.7230 N   0  3  2  0  0  0  0  0  0  0  0  0
  144.2763  140.8499  155.7909 C   0  0  0  0  0  0  0  0  0  0  0  0
  143.8222  139.3917  155.5754 C   0  0  0  0  0  0  0  0  0  0  0  0
  145.0220  138.4298  155.4491 C   0  0  0  0  0  0  0  0  0  0  0  0
  146.0217  138.9246  154.3862 C   0  0  0  0  0  0  0  0  0  0  0  0
  146.4244  140.3748  154.6982 C   0  0  1  0  0  0  0  0  0  0  0  0
  152.5026  139.0113  159.1321 H   0  0  0  0  0  0  0  0  0  0  0  0
  149.1399  140.2275  153.0199 H   0  0  0  0  0  0  0  0  0  0  0  0
  146.9626  140.8443  152.6720 H   0  0  0  0  0  0  0  0  0  0  0  0
  147.8587  142.9806  154.6109 H   0  0  0  0  0  0  0  0  0  0  0  0
  147.0525  143.1532  153.0575 H   0  0  0  0  0  0  0  0  0  0  0  0
  145.8739  142.9649  155.7446 H   0  0  0  0  0  0  0  0  0  0  0  0
  145.0065  143.2831  154.2396 H   0  0  0  0  0  0  0  0  0  0  0  0
  144.7500  140.9624  156.7674 H   0  0  0  0  0  0  0  0  0  0  0  0
  143.4163  141.5200  155.7692 H   0  0  0  0  0  0  0  0  0  0  0  0
  143.1751  139.0769  156.3946 H   0  0  0  0  0  0  0  0  0  0  0  0
  143.2196  139.3330  154.6681 H   0  0  0  0  0  0  0  0  0  0  0  0
  145.5268  138.3523  156.4130 H   0  0  0  0  0  0  0  0  0  0  0  0
  144.6750  137.4265  155.2004 H   0  0  0  0  0  0  0  0  0  0  0  0
  146.9031  138.2825  154.3702 H   0  0  0  0  0  0  0  0  0  0  0  0
  145.5704  138.8637  153.3949 H   0  0  0  0  0  0  0  0  0  0  0  0
  146.9006  140.4165  155.6809 H   0  0  0  0  0  0  0  0  0  0  0  0
  144.7612  141.0884  153.8380 H   0  0  0  0  0  0  0  0  0  0  0  0
  1  2  2  0  0  0  0
  2  3  1  0  0  0  0
  2  9  1  0  0  0  0
  3  4  1  0  0  0  0
  4  8  1  0  0  0  0
  4  5  2  0  0  0  0
  5  6  1  0  0  0  0
  6  7  2  0  0  0  0
  7  8  1  0  0  0  0
  7 19  1  0  0  0  0
  9 10  1  0  0  0  0
  9 20  1  0  0  0  0
 10 18  1  0  0  0  0
 10 11  1  0  0  0  0
 10 21  1  0  0  0  0
 11 12  1  0  0  0  0
 11 22  1  0  0  0  0
 11 23  1  0  0  0  0
 12 13  1  0  0  0  0
 12 24  1  0  0  0  0
 12 25  1  0  0  0  0
 13 18  1  0  0  0  0
 13 14  1  0  0  0  0
 13 35  1  0  0  0  0
 14 15  1  0  0  0  0
 14 26  1  0  0  0  0
 14 27  1  0  0  0  0
 15 16  1  0  0  0  0
 15 28  1  0  0  0  0
 15 29  1  0  0  0  0
 16 17  1  0  0  0  0
 16 30  1  0  0  0  0
 16 31  1  0  0  0  0
 17 18  1  0  0  0  0
 17 32  1  0  0  0  0
 17 33  1  0  0  0  0
 18 34  1  0  0  0  0
M  CHG  1   3  -1
M  CHG  1  13   1
M  END
> <s_m_source_file>
AV-unprocessed.smi

> <i_m_source_file_index>
1803

> <i_lp_mmshare_version>
43012

> <i_f3d_flags>
0

> <s_epik_input>
czFbY0hdbm5jMVtOSF1DKD1PKVtOSF1bQ0BIXShbQ0gyXVtDSDJdMilbQ0BASF0oTjIzKVtDSDJdW0NIMl1bQ0gyXVtDSDJdMw==

> <s_epik_cmdline>
J2VwaWtfcHl0aG9uJywgJy1waCcsICc3LjAnLCAnLXRuJywgJzgnLCAnLW1hJywgJzIwMCcsICctbWV0YWxfYmluZGluZycsICctaW1hZScsICc8aW5maWxlLm1hZT4nLCAnLW9tYWUnLCAnPG91dGZpbGUubWFlPic=

> <r_lp_tautomer_probability>
1

> <r_epik_Ionization_Penalty>
3.78828

> <r_epik_Ionization_Penalty_Charging>
3.7591

> <r_epik_Ionization_Penalty_Neutral>
0.0291838

> <r_epik_State_Penalty>
3.757

> <r_epik_Charging_Adjusted_Penalty>
7.51609

> <i_epik_Tot_Q>
0

> <i_epik_Tot_abs_Q>
2

> <r_epik_Metal_State_Penalty>
0.558016

> <b_epik_Metal_Only>
1

> <s_lp_Force_Field>
OPLS_2005

> <r_lp_Energy>
28.5802

> <b_lp_Chiralities_Consistent>
1

> <s_lp_Variant>
AV-unprocessed.smi:1803-11

> <Gold.Version>
5.8.1

> <Gold.Id.Protein>
6NUR|6NUR_protein|mol2

> <Gold.PLP.Fitness>
41.2372

> <Gold.PLP.PLP>
-26.8892

> <Gold.PLP.part.hbond>
-4.8998

> <Gold.PLP.part.metal>
0.0000

> <Gold.PLP.part.buried>
-5.3711

> <Gold.PLP.part.nonpolar>
-16.9471

> <Gold.PLP.part.repulsive>
0.3400

> <Gold.PLP.ligand.clash>
0.0000

> <Gold.PLP.ligand.torsion>
0.1759

> <Gold.PLP.Chemscore.Hbond>
4.8960

> <Gold.PLP.Chemscore.CHOScore>
0.0000

> <Gold.PLP.Chemscore.Metal>
0.0000

> <Gold.Chemscore.Hbonds>
donor molecule, donor type, donor heavy atom, donor atom, acceptor molecule, acceptor atom, score
      L1  H     9    20       P1  7957  1.00
      L1  H    13    35       P1 10175  2.00
      P1  H  7989  7998       L1     3  1.00
      P1  H  7997  8009       L1     6  0.72

> <Gold.PLP.Chemscore.Internal.Correction>
0.0117

> <Gold.Rescore>
     Score         DG    S(hbond)    S(metal)    S(lipo)     H(rot)  DE(clash)    DE(int)     intcor
     14.16     -17.77       3.23        0.00      34.72       1.00       0.04       3.56       ----

> <Gold.Chemscore.Fitness>
14.1647

> <Gold.Chemscore.DG>
-17.7660

> <Gold.Chemscore.ZeroCoef>
-5.4800

> <Gold.Chemscore.Hbond>
3.2288

> <Gold.Chemscore.Metal>
0.0000

> <Gold.Chemscore.Lipo>
34.7172

> <Gold.Chemscore.Internal_Hbond>
0.0000

> <Gold.Chemscore.DEClash>
0.0414

> <Gold.Chemscore.DEInternal>
3.5599

> <Gold.Chemscore.Rot>
1.0000

> <Gold.Chemscore.Internal.Correction>
   9.000000E+99

> <Gold.Chemscore.Hbonds>
donor molecule, donor type, donor heavy atom, donor atom, acceptor molecule, acceptor atom, score
      L1  H     9    20       P1  7957  0.98
      L1  H    13    35       P1 10175  0.70
      P1  H  7989  7998       L1     3  0.88
      P1  H  7997  8009       L1     6  0.10

> <Gold.Chemscore.Hbond.Weighted>
-10.7840

> <Gold.Chemscore.Metal.Weighted>
-0.0000

> <Gold.Chemscore.Lipo.Weighted>
-4.0619

> <Gold.Chemscore.Internal_Hbond.Weighted>
0.0000

> <Gold.Chemscore.DEClash.Weighted>
0.0414

> <Gold.Chemscore.DEInternal.Weighted>
3.5599

> <Gold.Chemscore.Rot.Weighted>
2.5600

> <Gold.Chemscore.Internal.Correction.Weighted>
   9.000000E+99

> <Gold.Protein.RotatedTorsions>
[ 6907 6896 6895 6894 ] final -123.94 input  -60.11 | X-H torsion
[ 7974 7965 7964 7962 ] final   29.07 input  175.53 | X-H torsion
[ 8008 7997 7996 7995 ] final  149.75 input   59.86 | X-H torsion
[ 10167 10162 10161 10158 ] final  147.11 input  -65.29 | X-H torsion
[ 10718 10713 10712 10709 ] final  173.81 input   66.30 | X-H torsion
[ 10763 10752 10751 10750 ] final    7.71 input  -60.55 | X-H torsion
[ 11005 11000 10999 10996 ] final -160.67 input  -57.11 | X-H torsion

> <Gold.Protein.ActiveResidues>
 VAL166  LYS551  ARG553  GLY616  TRP617  ASP618  TYR619  PRO620  LYS621  CYS622 
 ASP623  PHE694  ASN695  SER759  ASP760  ASP761  ALA762  ILE779  LEU786  VAL792 
 PHE793  MET794  SER795  GLU796  ALA797  LYS798  CYS799  TRP800  GLU811  SER814 

> <Gold.Protein.RotatedAtoms>
  150.8720  133.7492  159.2958 H   0  0  0  0  0  0  0  0  0  0  0  0  # atno 6907 bound_to 6896
  151.5101  135.1063  159.9861 H   0  0  0  0  0  0  0  0  0  0  0  0  # atno 6908 bound_to 6896
  152.4701  133.7966  159.6986 H   0  0  0  0  0  0  0  0  0  0  0  0  # atno 6909 bound_to 6896
  146.1693  139.6971  142.8979 H   0  0  0  0  0  0  0  0  0  0  0  0  # atno 7974 bound_to 7965
  156.2743  140.2093  156.5907 H   0  0  0  0  0  0  0  0  0  0  0  0  # atno 8008 bound_to 7997
  154.6984  140.0523  157.0457 H   0  0  0  0  0  0  0  0  0  0  0  0  # atno 8009 bound_to 7997
  155.0768  140.3182  155.4616 H   0  0  0  0  0  0  0  0  0  0  0  0  # atno 8010 bound_to 7997
  139.4895  144.5779  151.6928 H   0  0  0  0  0  0  0  0  0  0  0  0  # atno 10167 bound_to 10162
  156.9589  131.0054  151.2932 H   0  0  0  0  0  0  0  0  0  0  0  0  # atno 10718 bound_to 10713
  153.2332  135.6895  153.7866 H   0  0  0  0  0  0  0  0  0  0  0  0  # atno 10763 bound_to 10752
  153.7023  135.3295  155.3228 H   0  0  0  0  0  0  0  0  0  0  0  0  # atno 10764 bound_to 10752
  154.8323  135.4570  154.1226 H   0  0  0  0  0  0  0  0  0  0  0  0  # atno 10765 bound_to 10752
  140.6289  134.4672  157.5228 H   0  0  0  0  0  0  0  0  0  0  0  0  # atno 11005 bound_to 11000
  145.4384  141.0420  143.2871 LP  0  0  0  0  0  0  0  0  0  0  0  0  # atno 17320 bound_to 7965
  144.8139  139.5913  143.7017 LP  0  0  0  0  0  0  0  0  0  0  0  0  # atno 17321 bound_to 7965
  140.5380  144.0625  150.6077 LP  0  0  0  0  0  0  0  0  0  0  0  0  # atno 17342 bound_to 10162
  140.3638  143.2893  152.0355 LP  0  0  0  0  0  0  0  0  0  0  0  0  # atno 17343 bound_to 10162
  157.5671  130.8285  149.8342 LP  0  0  0  0  0  0  0  0  0  0  0  0  # atno 17370 bound_to 10713
  156.0331  130.3759  150.1634 LP  0  0  0  0  0  0  0  0  0  0  0  0  # atno 17371 bound_to 10713
  139.9124  134.8317  156.1483 LP  0  0  0  0  0  0  0  0  0  0  0  0  # atno 17394 bound_to 11000
  141.0689  133.6806  156.2101 LP  0  0  0  0  0  0  0  0  0  0  0  0  # atno 17395 bound_to 11000

$$$$
