AV-unprocessed.smi:467|AV-procd|sdf|2643|dock1
  -GOLD-   2262023 53D 1   1.00000     0.00000
 Structure written by MMmdl.
 44 46  0  0  0  0  0  0  0  0  1 V2000
  151.5616  144.8691  159.3471 C   0  0  0  0  0  0  0  0  0  0  0  0
  152.0379  143.4335  159.4820 C   0  0  0  0  0  0  0  0  0  0  0  0
  153.0992  143.1420  160.3682 C   0  0  0  0  0  0  0  0  0  0  0  0
  153.5737  141.8207  160.5206 C   0  0  0  0  0  0  0  0  0  0  0  0
  154.5869  141.3164  161.3180 N   0  0  0  0  0  0  0  0  0  0  0  0
  154.5484  140.0226  161.0131 C   0  0  0  0  0  0  0  0  0  0  0  0
  153.6284  139.6281  160.1124 N   0  0  0  0  0  0  0  0  0  0  0  0
  153.4098  138.2775  159.6262 C   0  0  0  0  0  0  0  0  0  0  0  0
  154.2802  137.2399  160.3639 C   0  0  2  0  0  0  0  0  0  0  0  0
  154.0155  135.9522  159.8445 O   0  0  0  0  0  0  0  0  0  0  0  0
  154.0053  137.1986  161.8803 C   0  0  0  0  0  0  0  0  0  0  0  0
  154.2969  135.9263  162.5418 N   0  0  0  0  0  0  0  0  0  0  0  0
  154.0453  135.9672  163.9814 C   0  0  0  0  0  0  0  0  0  0  0  0
  154.3924  134.6327  164.6651 C   0  0  0  0  0  0  0  0  0  0  0  0
  155.7471  134.2905  164.3928 O   0  0  0  0  0  0  0  0  0  0  0  0
  156.0158  134.1903  162.9986 C   0  0  0  0  0  0  0  0  0  0  0  0
  155.6820  135.5273  162.3150 C   0  0  0  0  0  0  0  0  0  0  0  0
  152.9522  140.7902  159.7559 C   0  0  0  0  0  0  0  0  0  0  0  0
  151.8943  141.0676  158.8718 C   0  0  0  0  0  0  0  0  0  0  0  0
  151.4324  142.3932  158.7322 C   0  0  0  0  0  0  0  0  0  0  0  0
  150.2903  142.6828  157.7743 C   0  0  0  0  0  0  0  0  0  0  0  0
  152.1522  145.5451  159.9661 H   0  0  0  0  0  0  0  0  0  0  0  0
  150.5195  144.9557  159.6556 H   0  0  0  0  0  0  0  0  0  0  0  0
  151.6461  145.2049  158.3133 H   0  0  0  0  0  0  0  0  0  0  0  0
  153.5610  143.9340  160.9390 H   0  0  0  0  0  0  0  0  0  0  0  0
  155.2300  139.3192  161.4689 H   0  0  0  0  0  0  0  0  0  0  0  0
  152.3521  138.0418  159.7513 H   0  0  0  0  0  0  0  0  0  0  0  0
  153.6071  138.2534  158.5539 H   0  0  0  0  0  0  0  0  0  0  0  0
  155.3341  137.4425  160.1752 H   0  0  0  0  0  0  0  0  0  0  0  0
  154.4013  135.8900  158.9842 H   0  0  0  0  0  0  0  0  0  0  0  0
  154.5984  137.9854  162.3491 H   0  0  0  0  0  0  0  0  0  0  0  0
  152.9630  137.4656  162.0634 H   0  0  0  0  0  0  0  0  0  0  0  0
  154.6295  136.7681  164.4373 H   0  0  0  0  0  0  0  0  0  0  0  0
  152.9979  136.1927  164.1778 H   0  0  0  0  0  0  0  0  0  0  0  0
  154.2546  134.7122  165.7434 H   0  0  0  0  0  0  0  0  0  0  0  0
  153.7323  133.8377  164.3151 H   0  0  0  0  0  0  0  0  0  0  0  0
  157.0675  133.9423  162.8550 H   0  0  0  0  0  0  0  0  0  0  0  0
  155.4313  133.3774  162.5650 H   0  0  0  0  0  0  0  0  0  0  0  0
  155.8720  135.4400  161.2447 H   0  0  0  0  0  0  0  0  0  0  0  0
  156.3559  136.2996  162.6893 H   0  0  0  0  0  0  0  0  0  0  0  0
  151.4446  140.2669  158.3036 H   0  0  0  0  0  0  0  0  0  0  0  0
  149.9387  141.7728  157.2874 H   0  0  0  0  0  0  0  0  0  0  0  0
  150.6116  143.3755  156.9963 H   0  0  0  0  0  0  0  0  0  0  0  0
  149.4477  143.1250  158.3063 H   0  0  0  0  0  0  0  0  0  0  0  0
  1  2  1  0  0  0  0
  1 22  1  0  0  0  0
  1 23  1  0  0  0  0
  1 24  1  0  0  0  0
  2 20  1  0  0  0  0
  2  3  2  0  0  0  0
  3  4  1  0  0  0  0
  3 25  1  0  0  0  0
  4 18  2  0  0  0  0
  4  5  1  0  0  0  0
  5  6  2  0  0  0  0
  6  7  1  0  0  0  0
  6 26  1  0  0  0  0
  7  8  1  0  0  0  0
  7 18  1  0  0  0  0
  8  9  1  0  0  0  0
  8 27  1  0  0  0  0
  8 28  1  0  0  0  0
  9 10  1  0  0  0  0
  9 11  1  0  0  0  0
  9 29  1  0  0  0  0
 10 30  1  0  0  0  0
 11 12  1  0  0  0  0
 11 31  1  0  0  0  0
 11 32  1  0  0  0  0
 12 17  1  0  0  0  0
 12 13  1  0  0  0  0
 13 14  1  0  0  0  0
 13 33  1  0  0  0  0
 13 34  1  0  0  0  0
 14 15  1  0  0  0  0
 14 35  1  0  0  0  0
 14 36  1  0  0  0  0
 15 16  1  0  0  0  0
 16 17  1  0  0  0  0
 16 37  1  0  0  0  0
 16 38  1  0  0  0  0
 17 39  1  0  0  0  0
 17 40  1  0  0  0  0
 18 19  1  0  0  0  0
 19 20  2  0  0  0  0
 19 41  1  0  0  0  0
 20 21  1  0  0  0  0
 21 42  1  0  0  0  0
 21 43  1  0  0  0  0
 21 44  1  0  0  0  0
M  END
> <s_m_source_file>
AV-unprocessed.smi

> <i_m_source_file_index>
467

> <i_lp_mmshare_version>
43012

> <i_f3d_flags>
0

> <s_epik_input>
W0NIM11jKFtjSF0xKWMoW0NIM10pW2NIXWMoYzEyKW4oW2NIXW4yKVtDSDJdW0NASF0oW09IXSlbQ0gyXU4zW0NIMl1bQ0gyXU9bQ0gyXVtDSDJdMw==

> <s_epik_cmdline>
J2VwaWtfcHl0aG9uJywgJy1waCcsICc3LjAnLCAnLXRuJywgJzgnLCAnLW1hJywgJzIwMCcsICctbWV0YWxfYmluZGluZycsICctaW1hZScsICc8aW5maWxlLm1hZT4nLCAnLW9tYWUnLCAnPG91dGZpbGUubWFlPic=

> <r_epik_Ionization_Penalty>
0.345029

> <r_epik_Ionization_Penalty_Charging>
0

> <r_epik_Ionization_Penalty_Neutral>
0.345029

> <r_epik_State_Penalty>
0.314465

> <r_epik_Charging_Adjusted_Penalty>
0.314465

> <i_epik_Tot_Q>
0

> <i_epik_Tot_abs_Q>
0

> <r_epik_Metal_State_Penalty>
0.239717

> <b_epik_Metal_Only>
0

> <s_lp_Force_Field>
OPLS_2005

> <r_lp_Energy>
28.2503

> <b_lp_Chiralities_Consistent>
1

> <s_lp_Variant>
AV-unprocessed.smi:467-1

> <Gold.Version>
5.8.1

> <Gold.Id.Protein>
6NUR|6NUR_protein|mol2

> <Gold.PLP.Fitness>
45.3199

> <Gold.PLP.PLP>
-42.9805

> <Gold.PLP.part.hbond>
-2.0000

> <Gold.PLP.part.metal>
0.0000

> <Gold.PLP.part.buried>
-3.9843

> <Gold.PLP.part.nonpolar>
-36.7824

> <Gold.PLP.part.repulsive>
0.0637

> <Gold.PLP.ligand.clash>
0.0000

> <Gold.PLP.ligand.torsion>
0.3446

> <Gold.PLP.Chemscore.Hbond>
1.0000

> <Gold.PLP.Chemscore.CHOScore>
0.0000

> <Gold.PLP.Chemscore.Metal>
0.0000

> <Gold.Chemscore.Hbonds>
donor molecule, donor type, donor heavy atom, donor atom, acceptor molecule, acceptor atom, score
      P1  H  6896  6907       L1    10  0.99

> <Gold.PLP.Chemscore.Internal.Correction>
0.0287

> <Gold.Rescore>
     Score         DG    S(hbond)    S(metal)    S(lipo)     H(rot)  DE(clash)    DE(int)     intcor
     16.82     -17.84       0.98        0.00     121.87       2.02       0.01       1.00       ----

> <Gold.Chemscore.Fitness>
16.8243

> <Gold.Chemscore.DG>
-17.8351

> <Gold.Chemscore.ZeroCoef>
-5.4800

> <Gold.Chemscore.Hbond>
0.9805

> <Gold.Chemscore.Metal>
0.0000

> <Gold.Chemscore.Lipo>
121.8662

> <Gold.Chemscore.Internal_Hbond>
0.0000

> <Gold.Chemscore.DEClash>
0.0146

> <Gold.Chemscore.DEInternal>
0.9962

> <Gold.Chemscore.Rot>
2.0227

> <Gold.Chemscore.Internal.Correction>
   9.000000E+99

> <Gold.Chemscore.Hbonds>
donor molecule, donor type, donor heavy atom, donor atom, acceptor molecule, acceptor atom, score
      P1  H  6896  6907       L1    10  0.65

> <Gold.Chemscore.Hbond.Weighted>
-3.2748

> <Gold.Chemscore.Metal.Weighted>
-0.0000

> <Gold.Chemscore.Lipo.Weighted>
-14.2583

> <Gold.Chemscore.Internal_Hbond.Weighted>
0.0000

> <Gold.Chemscore.DEClash.Weighted>
0.0146

> <Gold.Chemscore.DEInternal.Weighted>
0.9962

> <Gold.Chemscore.Rot.Weighted>
5.1780

> <Gold.Chemscore.Internal.Correction.Weighted>
   9.000000E+99

> <Gold.Protein.RotatedTorsions>
[ 6907 6896 6895 6894 ] final   64.71 input  -60.11 | X-H torsion
[ 7974 7965 7964 7962 ] final -143.68 input  175.53 | X-H torsion
[ 8008 7997 7996 7995 ] final   31.82 input   59.86 | X-H torsion
[ 10167 10162 10161 10158 ] final  154.19 input  -65.29 | X-H torsion
[ 10718 10713 10712 10709 ] final -127.64 input   66.30 | X-H torsion
[ 10763 10752 10751 10750 ] final  162.98 input  -60.55 | X-H torsion
[ 11005 11000 10999 10996 ] final  -80.85 input  -57.11 | X-H torsion

> <Gold.Protein.ActiveResidues>
 VAL166  LYS551  ARG553  GLY616  TRP617  ASP618  TYR619  PRO620  LYS621  CYS622 
 ASP623  PHE694  ASN695  SER759  ASP760  ASP761  ALA762  ILE779  LEU786  VAL792 
 PHE793  MET794  SER795  GLU796  ALA797  LYS798  CYS799  TRP800  GLU811  SER814 

> <Gold.Protein.RotatedAtoms>
  152.4352  134.5699  159.9918 H   0  0  0  0  0  0  0  0  0  0  0  0  # atno 6907 bound_to 6896
  151.5812  133.3372  159.3016 H   0  0  0  0  0  0  0  0  0  0  0  0  # atno 6908 bound_to 6896
  150.8250  134.7511  159.6869 H   0  0  0  0  0  0  0  0  0  0  0  0  # atno 6909 bound_to 6896
  144.8352  140.5805  143.5488 H   0  0  0  0  0  0  0  0  0  0  0  0  # atno 7974 bound_to 7965
  155.1126  140.3240  155.4518 H   0  0  0  0  0  0  0  0  0  0  0  0  # atno 8008 bound_to 7997
  156.2686  140.2041  156.6197 H   0  0  0  0  0  0  0  0  0  0  0  0  # atno 8009 bound_to 7997
  154.6745  140.0533  157.0187 H   0  0  0  0  0  0  0  0  0  0  0  0  # atno 8010 bound_to 7997
  139.4824  144.5208  151.7879 H   0  0  0  0  0  0  0  0  0  0  0  0  # atno 10167 bound_to 10162
  156.1876  130.6774  151.0384 H   0  0  0  0  0  0  0  0  0  0  0  0  # atno 10718 bound_to 10713
  154.2867  135.2762  155.2673 H   0  0  0  0  0  0  0  0  0  0  0  0  # atno 10763 bound_to 10752
  154.5170  135.5767  153.6653 H   0  0  0  0  0  0  0  0  0  0  0  0  # atno 10764 bound_to 10752
  152.9920  135.6195  154.3030 H   0  0  0  0  0  0  0  0  0  0  0  0  # atno 10765 bound_to 10752
  141.1667  133.7169  156.8334 H   0  0  0  0  0  0  0  0  0  0  0  0  # atno 11005 bound_to 11000
  145.4810  139.1495  143.3762 LP  0  0  0  0  0  0  0  0  0  0  0  0  # atno 17320 bound_to 7965
  146.2651  140.4946  142.8837 LP  0  0  0  0  0  0  0  0  0  0  0  0  # atno 17321 bound_to 7965
  140.4722  144.1571  150.5919 LP  0  0  0  0  0  0  0  0  0  0  0  0  # atno 17342 bound_to 10162
  140.4370  143.2543  151.9522 LP  0  0  0  0  0  0  0  0  0  0  0  0  # atno 17343 bound_to 10162
  157.6909  131.0810  150.7111 LP  0  0  0  0  0  0  0  0  0  0  0  0  # atno 17370 bound_to 10713
  156.7168  130.4668  149.5533 LP  0  0  0  0  0  0  0  0  0  0  0  0  # atno 17371 bound_to 10713
  140.2034  134.8880  157.3195 LP  0  0  0  0  0  0  0  0  0  0  0  0  # atno 17394 bound_to 11000
  140.2163  134.4078  155.7588 LP  0  0  0  0  0  0  0  0  0  0  0  0  # atno 17395 bound_to 11000

$$$$
