AV-unprocessed.smi:2918|AV-procd|sdf|11191|dock6
  -GOLD-   2272016 83D 1   1.00000     0.00000
 Structure written by MMmdl.
 41 42  0  0  0  0  0  0  0  0  1 V2000
  150.2717  136.9541  154.9789 C   0  0  0  0  0  0  0  0  0  0  0  0
  150.8233  138.1575  154.1988 C   0  0  0  0  0  0  0  0  0  0  0  0
  152.2270  138.5594  154.6816 C   0  0  0  0  0  0  0  0  0  0  0  0
  149.8959  139.2837  154.2555 N   0  0  0  0  0  0  0  0  0  0  0  0
  150.2936  140.4640  154.7862 N   0  0  0  0  0  0  0  0  0  0  0  0
  149.2342  141.2576  154.7072 C   0  0  0  0  0  0  0  0  0  0  0  0
  148.1021  140.6177  154.1292 C   0  0  0  0  0  0  0  0  0  0  0  0
  148.5741  139.3612  153.8621 C   0  0  0  0  0  0  0  0  0  0  0  0
  147.9146  138.3065  153.3120 N   0  0  0  0  0  0  0  0  0  0  0  0
  146.6147  137.9783  153.4126 C   0  0  0  0  0  0  0  0  0  0  0  0
  145.7683  138.6138  154.0407 O   0  0  0  0  0  0  0  0  0  0  0  0
  146.3529  136.8541  152.7243 N   0  0  0  0  0  0  0  0  0  0  0  0
  145.0664  136.1604  152.5568 C   0  0  0  0  0  0  0  0  0  0  0  0
  143.9080  137.1793  152.6110 C   0  0  0  0  0  0  0  0  0  0  0  0
  145.0197  135.3459  151.2409 C   0  0  0  0  0  0  0  0  0  0  0  0
  146.0196  134.1757  151.2509 C   0  0  0  0  0  0  0  0  0  0  0  0
  145.7605  133.3272  152.3633 O   0  0  0  0  0  0  0  0  0  0  0  0
  145.9138  133.9888  153.6135 C   0  0  0  0  0  0  0  0  0  0  0  0
  144.9154  135.1573  153.7209 C   0  0  0  0  0  0  0  0  0  0  0  0
  150.9312  136.0911  154.8835 H   0  0  0  0  0  0  0  0  0  0  0  0
  149.2901  136.6615  154.6050 H   0  0  0  0  0  0  0  0  0  0  0  0
  150.1707  137.1781  156.0416 H   0  0  0  0  0  0  0  0  0  0  0  0
  150.9176  137.8556  153.1556 H   0  0  0  0  0  0  0  0  0  0  0  0
  152.9315  137.7364  154.5596 H   0  0  0  0  0  0  0  0  0  0  0  0
  152.2268  138.8387  155.7359 H   0  0  0  0  0  0  0  0  0  0  0  0
  152.6094  139.4067  154.1114 H   0  0  0  0  0  0  0  0  0  0  0  0
  149.3169  142.2700  155.0743 H   0  0  0  0  0  0  0  0  0  0  0  0
  147.1192  141.0287  153.9550 H   0  0  0  0  0  0  0  0  0  0  0  0
  148.4832  137.6944  152.7459 H   0  0  0  0  0  0  0  0  0  0  0  0
  147.1349  136.4252  152.2518 H   0  0  0  0  0  0  0  0  0  0  0  0
  142.9401  136.6782  152.5790 H   0  0  0  0  0  0  0  0  0  0  0  0
  143.9329  137.8735  151.7710 H   0  0  0  0  0  0  0  0  0  0  0  0
  143.9404  137.7685  153.5282 H   0  0  0  0  0  0  0  0  0  0  0  0
  144.0168  134.9382  151.1060 H   0  0  0  0  0  0  0  0  0  0  0  0
  145.1966  135.9797  150.3723 H   0  0  0  0  0  0  0  0  0  0  0  0
  145.9172  133.5915  150.3363 H   0  0  0  0  0  0  0  0  0  0  0  0
  147.0493  134.5346  151.2817 H   0  0  0  0  0  0  0  0  0  0  0  0
  145.7319  133.2698  154.4126 H   0  0  0  0  0  0  0  0  0  0  0  0
  146.9420  134.3345  153.7303 H   0  0  0  0  0  0  0  0  0  0  0  0
  145.0367  135.6626  154.6802 H   0  0  0  0  0  0  0  0  0  0  0  0
  143.9045  134.7467  153.7216 H   0  0  0  0  0  0  0  0  0  0  0  0
  1  2  1  0  0  0  0
  1 20  1  0  0  0  0
  1 21  1  0  0  0  0
  1 22  1  0  0  0  0
  2  3  1  0  0  0  0
  2  4  1  0  0  0  0
  2 23  1  0  0  0  0
  3 24  1  0  0  0  0
  3 25  1  0  0  0  0
  3 26  1  0  0  0  0
  4  8  1  0  0  0  0
  4  5  1  0  0  0  0
  5  6  2  0  0  0  0
  6  7  1  0  0  0  0
  6 27  1  0  0  0  0
  7  8  2  0  0  0  0
  7 28  1  0  0  0  0
  8  9  1  0  0  0  0
  9 10  1  0  0  0  0
  9 29  1  0  0  0  0
 10 11  2  0  0  0  0
 10 12  1  0  0  0  0
 12 13  1  0  0  0  0
 12 30  1  0  0  0  0
 13 19  1  0  0  0  0
 13 14  1  0  0  0  0
 13 15  1  0  0  0  0
 14 31  1  0  0  0  0
 14 32  1  0  0  0  0
 14 33  1  0  0  0  0
 15 16  1  0  0  0  0
 15 34  1  0  0  0  0
 15 35  1  0  0  0  0
 16 17  1  0  0  0  0
 16 36  1  0  0  0  0
 16 37  1  0  0  0  0
 17 18  1  0  0  0  0
 18 19  1  0  0  0  0
 18 38  1  0  0  0  0
 18 39  1  0  0  0  0
 19 40  1  0  0  0  0
 19 41  1  0  0  0  0
M  END
> <s_m_source_file>
AV-unprocessed.smi

> <i_m_source_file_index>
2918

> <i_lp_mmshare_version>
43012

> <i_f3d_flags>
0

> <s_epik_input>
W0NIM11bQ0hdKFtDSDNdKW4xbltjSF1bY0hdYzFbTkhdQyg9TylbTkhdQzIoW0NIM10pW0NIMl1bQ0gyXU9bQ0gyXVtDSDJdMg==

> <s_epik_cmdline>
J2VwaWtfcHl0aG9uJywgJy1waCcsICc3LjAnLCAnLXRuJywgJzgnLCAnLW1hJywgJzIwMCcsICctbWV0YWxfYmluZGluZycsICctaW1hZScsICc8aW5maWxlLm1hZT4nLCAnLW9tYWUnLCAnPG91dGZpbGUubWFlPic=

> <r_lp_tautomer_probability>
1

> <r_epik_Ionization_Penalty>
4.13243e-05

> <r_epik_Ionization_Penalty_Charging>
0

> <r_epik_Ionization_Penalty_Neutral>
4.13243e-05

> <r_epik_State_Penalty>
-0

> <r_epik_Charging_Adjusted_Penalty>
0

> <i_epik_Tot_Q>
0

> <i_epik_Tot_abs_Q>
0

> <r_epik_Metal_State_Penalty>
-0

> <b_epik_Metal_Only>
0

> <s_lp_Force_Field>
OPLS_2005

> <r_lp_Energy>
17.4718

> <b_lp_Chiralities_Consistent>
1

> <s_lp_Variant>
AV-unprocessed.smi:2918-1

> <Gold.Version>
5.8.1

> <Gold.Id.Protein>
6NUR|6NUR_protein|mol2

> <Gold.PLP.Fitness>
41.2441

> <Gold.PLP.PLP>
-31.2236

> <Gold.PLP.part.hbond>
-3.3427

> <Gold.PLP.part.metal>
0.0000

> <Gold.PLP.part.buried>
-2.6556

> <Gold.PLP.part.nonpolar>
-26.2190

> <Gold.PLP.part.repulsive>
0.3776

> <Gold.PLP.ligand.clash>
0.0022

> <Gold.PLP.ligand.torsion>
0.7887

> <Gold.PLP.Chemscore.Hbond>
2.8928

> <Gold.PLP.Chemscore.CHOScore>
0.9606

> <Gold.PLP.Chemscore.Metal>
0.0000

> <Gold.Chemscore.Hbonds>
donor molecule, donor type, donor heavy atom, donor atom, acceptor molecule, acceptor atom, score
      L1  H     9    29       P1  7948  1.00
      L1  H    12    30       P1  7948  1.00
      P1  H  7989  7998       L1     5  0.89
      L1  C     6    27       P1  8028  0.96

> <Gold.PLP.Chemscore.Internal.Correction>
0.0399

> <Gold.Rescore>
     Score         DG    S(hbond)    S(metal)    S(lipo)     H(rot)  DE(clash)    DE(int)     intcor
     13.69     -16.05       2.04        0.00      58.13       1.19       0.05       2.31       ----

> <Gold.Chemscore.Fitness>
13.6942

> <Gold.Chemscore.DG>
-16.0543

> <Gold.Chemscore.ZeroCoef>
-5.4800

> <Gold.Chemscore.Hbond>
2.0434

> <Gold.Chemscore.Metal>
0.0000

> <Gold.Chemscore.Lipo>
58.1336

> <Gold.Chemscore.Internal_Hbond>
0.0000

> <Gold.Chemscore.DEClash>
0.0499

> <Gold.Chemscore.DEInternal>
2.3101

> <Gold.Chemscore.Rot>
1.1924

> <Gold.Chemscore.Internal.Correction>
   9.000000E+99

> <Gold.Chemscore.Hbonds>
donor molecule, donor type, donor heavy atom, donor atom, acceptor molecule, acceptor atom, score
      L1  H     9    29       P1  7948  1.00
      L1  H    12    30       P1  7948  0.98
      P1  H  7989  7998       L1     5  0.14

> <Gold.Chemscore.Hbond.Weighted>
-6.8251

> <Gold.Chemscore.Metal.Weighted>
-0.0000

> <Gold.Chemscore.Lipo.Weighted>
-6.8016

> <Gold.Chemscore.Internal_Hbond.Weighted>
0.0000

> <Gold.Chemscore.DEClash.Weighted>
0.0499

> <Gold.Chemscore.DEInternal.Weighted>
2.3101

> <Gold.Chemscore.Rot.Weighted>
3.0524

> <Gold.Chemscore.Internal.Correction.Weighted>
   9.000000E+99

> <Gold.Protein.RotatedTorsions>
[ 6907 6896 6895 6894 ] final  -90.53 input  -60.11 | X-H torsion
[ 7974 7965 7964 7962 ] final   19.30 input  175.53 | X-H torsion
[ 8008 7997 7996 7995 ] final   57.68 input   59.86 | X-H torsion
[ 10167 10162 10161 10158 ] final  -13.28 input  -65.29 | X-H torsion
[ 10718 10713 10712 10709 ] final   43.24 input   66.30 | X-H torsion
[ 10763 10752 10751 10750 ] final -120.57 input  -60.55 | X-H torsion
[ 11005 11000 10999 10996 ] final  -69.57 input  -57.11 | X-H torsion

> <Gold.Protein.ActiveResidues>
 VAL166  LYS551  ARG553  GLY616  TRP617  ASP618  TYR619  PRO620  LYS621  CYS622 
 ASP623  PHE694  ASN695  SER759  ASP760  ASP761  ALA762  ILE779  LEU786  VAL792 
 PHE793  MET794  SER795  GLU796  ALA797  LYS798  CYS799  TRP800  GLU811  SER814 

> <Gold.Protein.RotatedAtoms>
  150.6883  134.2418  159.4475 H   0  0  0  0  0  0  0  0  0  0  0  0  # atno 6907 bound_to 6896
  152.0362  134.9736  160.0582 H   0  0  0  0  0  0  0  0  0  0  0  0  # atno 6908 bound_to 6896
  152.1256  133.4343  159.4733 H   0  0  0  0  0  0  0  0  0  0  0  0  # atno 6909 bound_to 6896
  146.2154  139.8333  142.8656 H   0  0  0  0  0  0  0  0  0  0  0  0  # atno 7974 bound_to 7965
  155.5377  140.3483  155.4440 H   0  0  0  0  0  0  0  0  0  0  0  0  # atno 8008 bound_to 7997
  156.0673  140.1354  156.9897 H   0  0  0  0  0  0  0  0  0  0  0  0  # atno 8009 bound_to 7997
  154.4510  140.0973  156.6591 H   0  0  0  0  0  0  0  0  0  0  0  0  # atno 8010 bound_to 7997
  140.7179  143.5443  150.9373 H   0  0  0  0  0  0  0  0  0  0  0  0  # atno 10167 bound_to 10162
  157.4138  130.7929  149.7453 H   0  0  0  0  0  0  0  0  0  0  0  0  # atno 10718 bound_to 10713
  154.8647  135.4198  154.2480 H   0  0  0  0  0  0  0  0  0  0  0  0  # atno 10763 bound_to 10752
  153.3432  135.6995  153.6855 H   0  0  0  0  0  0  0  0  0  0  0  0  # atno 10764 bound_to 10752
  153.5825  135.3570  155.2853 H   0  0  0  0  0  0  0  0  0  0  0  0  # atno 10765 bound_to 10752
  141.1557  133.6768  156.6620 H   0  0  0  0  0  0  0  0  0  0  0  0  # atno 11005 bound_to 11000
  145.2975  141.0185  143.3628 LP  0  0  0  0  0  0  0  0  0  0  0  0  # atno 17320 bound_to 7965
  144.9031  139.4624  143.6623 LP  0  0  0  0  0  0  0  0  0  0  0  0  # atno 17321 bound_to 7965
  139.9166  143.6656  152.3105 LP  0  0  0  0  0  0  0  0  0  0  0  0  # atno 17342 bound_to 10162
  139.7058  144.7628  151.1195 LP  0  0  0  0  0  0  0  0  0  0  0  0  # atno 17343 bound_to 10162
  155.9858  130.3979  150.3241 LP  0  0  0  0  0  0  0  0  0  0  0  0  # atno 17370 bound_to 10713
  157.1382  131.0289  151.2939 LP  0  0  0  0  0  0  0  0  0  0  0  0  # atno 17371 bound_to 10713
  140.3240  134.7984  157.4274 LP  0  0  0  0  0  0  0  0  0  0  0  0  # atno 17394 bound_to 11000
  140.1073  134.5393  155.8298 LP  0  0  0  0  0  0  0  0  0  0  0  0  # atno 17395 bound_to 11000

$$$$
