AV-unprocessed.smi:765|AV-procd|sdf|3644|dock5
  -GOLD-   22720 1 43D 1   1.00000     0.00000
 Structure written by MMmdl.
 39 40  0  0  0  0  0  0  0  0  1 V2000
  147.7993  141.3458  154.2991 C   0  0  0  0  0  0  0  0  0  0  0  0
  148.8566  140.5230  155.0489 C   0  0  1  0  0  0  0  0  0  0  0  0
  149.8536  139.8698  154.0750 C   0  0  0  0  0  0  0  0  0  0  0  0
  150.9236  139.0613  154.8217 C   0  0  0  0  0  0  0  0  0  0  0  0
  151.6529  139.9364  155.8536 C   0  0  0  0  0  0  0  0  0  0  0  0
  150.6818  140.5845  156.8653 C   0  0  1  0  0  0  0  0  0  0  0  0
  150.0550  139.5295  157.6874 C   0  0  0  0  0  0  0  0  0  0  0  0
  149.5634  138.7037  158.3322 N   0  0  0  0  0  0  0  0  0  0  0  0
  151.4699  141.4997  157.6930 N   0  0  0  0  0  0  0  0  0  0  0  0
  152.5804  141.2076  158.3911 C   0  0  0  0  0  0  0  0  0  0  0  0
  153.1104  140.0963  158.3867 O   0  0  0  0  0  0  0  0  0  0  0  0
  153.1613  142.3511  159.2366 C   0  0  2  0  0  0  0  0  0  0  0  0
  153.4838  141.9270  160.6813 C   0  0  0  0  0  0  0  0  0  0  0  0
  152.2597  143.4959  159.2170 N   0  0  0  0  0  0  0  0  0  0  0  0
  151.7678  144.2308  160.2788 C   0  0  0  0  0  0  0  0  0  0  0  0
  150.9575  145.2015  159.7640 C   0  0  0  0  0  0  0  0  0  0  0  0
  151.0187  144.9823  158.3598 C   0  0  0  0  0  0  0  0  0  0  0  0
  151.7974  143.9626  158.0359 N   0  0  0  0  0  0  0  0  0  0  0  0
  149.6061  141.3835  156.0864 C   0  0  0  0  0  0  0  0  0  0  0  0
  148.2557  142.1641  153.7411 H   0  0  0  0  0  0  0  0  0  0  0  0
  147.0749  141.7777  154.9904 H   0  0  0  0  0  0  0  0  0  0  0  0
  147.2491  140.7258  153.5909 H   0  0  0  0  0  0  0  0  0  0  0  0
  148.3331  139.7270  155.5798 H   0  0  0  0  0  0  0  0  0  0  0  0
  149.3243  139.2195  153.3778 H   0  0  0  0  0  0  0  0  0  0  0  0
  150.3371  140.6395  153.4715 H   0  0  0  0  0  0  0  0  0  0  0  0
  150.4615  138.2065  155.3167 H   0  0  0  0  0  0  0  0  0  0  0  0
  151.6412  138.6525  154.1099 H   0  0  0  0  0  0  0  0  0  0  0  0
  152.3950  139.3347  156.3803 H   0  0  0  0  0  0  0  0  0  0  0  0
  152.2101  140.7123  155.3258 H   0  0  0  0  0  0  0  0  0  0  0  0
  151.1191  142.4437  157.7648 H   0  0  0  0  0  0  0  0  0  0  0  0
  154.1013  142.6507  158.7683 H   0  0  0  0  0  0  0  0  0  0  0  0
  154.1711  141.0806  160.7002 H   0  0  0  0  0  0  0  0  0  0  0  0
  152.5861  141.6405  161.2308 H   0  0  0  0  0  0  0  0  0  0  0  0
  153.9569  142.7435  161.2275 H   0  0  0  0  0  0  0  0  0  0  0  0
  152.0310  144.0016  161.3013 H   0  0  0  0  0  0  0  0  0  0  0  0
  150.4061  145.9540  160.3078 H   0  0  0  0  0  0  0  0  0  0  0  0
  150.5236  145.5296  157.5712 H   0  0  0  0  0  0  0  0  0  0  0  0
  150.0754  142.2280  155.5787 H   0  0  0  0  0  0  0  0  0  0  0  0
  148.8832  141.8135  156.7809 H   0  0  0  0  0  0  0  0  0  0  0  0
  1  2  1  0  0  0  0
  1 20  1  0  0  0  0
  1 21  1  0  0  0  0
  1 22  1  0  0  0  0
  2 19  1  0  0  0  0
  2  3  1  0  0  0  0
  2 23  1  0  0  0  0
  3  4  1  0  0  0  0
  3 24  1  0  0  0  0
  3 25  1  0  0  0  0
  4  5  1  0  0  0  0
  4 26  1  0  0  0  0
  4 27  1  0  0  0  0
  5  6  1  0  0  0  0
  5 28  1  0  0  0  0
  5 29  1  0  0  0  0
  6  7  1  0  0  0  0
  6  9  1  0  0  0  0
  6 19  1  0  0  0  0
  7  8  3  0  0  0  0
  9 10  1  0  0  0  0
  9 30  1  0  0  0  0
 10 11  2  0  0  0  0
 10 12  1  0  0  0  0
 12 13  1  0  0  0  0
 12 14  1  0  0  0  0
 12 31  1  0  0  0  0
 13 32  1  0  0  0  0
 13 33  1  0  0  0  0
 13 34  1  0  0  0  0
 14 18  1  0  0  0  0
 14 15  1  0  0  0  0
 15 16  2  0  0  0  0
 15 35  1  0  0  0  0
 16 17  1  0  0  0  0
 16 36  1  0  0  0  0
 17 18  2  0  0  0  0
 17 37  1  0  0  0  0
 19 38  1  0  0  0  0
 19 39  1  0  0  0  0
M  END
> <s_m_source_file>
AV-unprocessed.smi

> <i_m_source_file_index>
765

> <i_lp_mmshare_version>
43012

> <i_f3d_flags>
0

> <s_epik_input>
W0NIM11bQ0BASF0oW0NIMl0xKVtDSDJdW0NIMl1bQ0gyXVtDQEBdMShDI04pW05IXUMoPU8pW0NASF0oW0NIM10pbjJbY0hdW2NIXVtjSF1uMg==

> <s_epik_cmdline>
J2VwaWtfcHl0aG9uJywgJy1waCcsICc3LjAnLCAnLXRuJywgJzgnLCAnLW1hJywgJzIwMCcsICctbWV0YWxfYmluZGluZycsICctaW1hZScsICc8aW5maWxlLm1hZT4nLCAnLW9tYWUnLCAnPG91dGZpbGUubWFlPic=

> <r_lp_tautomer_probability>
1

> <r_epik_Ionization_Penalty>
2.71142e-05

> <r_epik_Ionization_Penalty_Charging>
0

> <r_epik_Ionization_Penalty_Neutral>
2.71142e-05

> <r_epik_State_Penalty>
-0

> <r_epik_Charging_Adjusted_Penalty>
0

> <i_epik_Tot_Q>
0

> <i_epik_Tot_abs_Q>
0

> <r_epik_Metal_State_Penalty>
-0

> <b_epik_Metal_Only>
0

> <s_lp_Force_Field>
OPLS_2005

> <r_lp_Energy>
10.7607

> <b_lp_Chiralities_Consistent>
1

> <s_lp_Variant>
AV-unprocessed.smi:765-2

> <Gold.Version>
5.8.1

> <Gold.Id.Protein>
6NUR|6NUR_protein|mol2

> <Gold.PLP.Fitness>
44.4959

> <Gold.PLP.PLP>
-40.3819

> <Gold.PLP.part.hbond>
-1.0000

> <Gold.PLP.part.metal>
0.0000

> <Gold.PLP.part.buried>
-3.4139

> <Gold.PLP.part.nonpolar>
-35.5519

> <Gold.PLP.part.repulsive>
0.1527

> <Gold.PLP.ligand.clash>
0.0000

> <Gold.PLP.ligand.torsion>
0.3495

> <Gold.PLP.Chemscore.Hbond>
1.0000

> <Gold.PLP.Chemscore.CHOScore>
0.5829

> <Gold.PLP.Chemscore.Metal>
0.0000

> <Gold.Chemscore.Hbonds>
donor molecule, donor type, donor heavy atom, donor atom, acceptor molecule, acceptor atom, score
      P1  H  7997  8010       L1    11  1.00
      L1  C    17    37       P1  8028  0.39
      L1  C    17    37       P1  8029  0.22

> <Gold.PLP.Chemscore.Internal.Correction>
0.0644

> <Gold.Rescore>
     Score         DG    S(hbond)    S(metal)    S(lipo)     H(rot)  DE(clash)    DE(int)     intcor
     12.83     -16.25       0.83        0.00      99.43       1.42       0.18       3.24       ----

> <Gold.Chemscore.Fitness>
12.8309

> <Gold.Chemscore.DG>
-16.2516

> <Gold.Chemscore.ZeroCoef>
-5.4800

> <Gold.Chemscore.Hbond>
0.8293

> <Gold.Chemscore.Metal>
0.0000

> <Gold.Chemscore.Lipo>
99.4253

> <Gold.Chemscore.Internal_Hbond>
0.0000

> <Gold.Chemscore.DEClash>
0.1763

> <Gold.Chemscore.DEInternal>
3.2445

> <Gold.Chemscore.Rot>
1.4183

> <Gold.Chemscore.Internal.Correction>
   9.000000E+99

> <Gold.Chemscore.Hbonds>
donor molecule, donor type, donor heavy atom, donor atom, acceptor molecule, acceptor atom, score
      P1  H  7997  8010       L1    11  0.67

> <Gold.Chemscore.Hbond.Weighted>
-2.7698

> <Gold.Chemscore.Metal.Weighted>
-0.0000

> <Gold.Chemscore.Lipo.Weighted>
-11.6328

> <Gold.Chemscore.Internal_Hbond.Weighted>
0.0000

> <Gold.Chemscore.DEClash.Weighted>
0.1763

> <Gold.Chemscore.DEInternal.Weighted>
3.2445

> <Gold.Chemscore.Rot.Weighted>
3.6309

> <Gold.Chemscore.Internal.Correction.Weighted>
   9.000000E+99

> <Gold.Protein.RotatedTorsions>
[ 6907 6896 6895 6894 ] final  -19.10 input  -60.11 | X-H torsion
[ 7974 7965 7964 7962 ] final  -53.64 input  175.53 | X-H torsion
[ 8008 7997 7996 7995 ] final   30.04 input   59.86 | X-H torsion
[ 10167 10162 10161 10158 ] final   62.51 input  -65.29 | X-H torsion
[ 10718 10713 10712 10709 ] final    5.07 input   66.30 | X-H torsion
[ 10763 10752 10751 10750 ] final   48.41 input  -60.55 | X-H torsion
[ 11005 11000 10999 10996 ] final -168.37 input  -57.11 | X-H torsion

> <Gold.Protein.ActiveResidues>
 VAL166  LYS551  ARG553  GLY616  TRP617  ASP618  TYR619  PRO620  LYS621  CYS622 
 ASP623  PHE694  ASN695  SER759  ASP760  ASP761  ALA762  ILE779  LEU786  VAL792 
 PHE793  MET794  SER795  GLU796  ALA797  LYS798  CYS799  TRP800  GLU811  SER814 

> <Gold.Protein.RotatedAtoms>
  151.2682  135.0676  159.9123 H   0  0  0  0  0  0  0  0  0  0  0  0  # atno 6907 bound_to 6896
  152.5355  134.0158  159.7969 H   0  0  0  0  0  0  0  0  0  0  0  0  # atno 6908 bound_to 6896
  151.0392  133.5671  159.2684 H   0  0  0  0  0  0  0  0  0  0  0  0  # atno 6909 bound_to 6896
  145.8946  140.8043  142.9774 H   0  0  0  0  0  0  0  0  0  0  0  0  # atno 7974 bound_to 7965
  155.0841  140.3213  155.4592 H   0  0  0  0  0  0  0  0  0  0  0  0  # atno 8008 bound_to 7997
  156.2759  140.2089  156.5915 H   0  0  0  0  0  0  0  0  0  0  0  0  # atno 8009 bound_to 7997
  154.6955  140.0512  157.0393 H   0  0  0  0  0  0  0  0  0  0  0  0  # atno 8010 bound_to 7997
  140.1431  144.4534  150.6800 H   0  0  0  0  0  0  0  0  0  0  0  0  # atno 10167 bound_to 10162
  156.9019  130.5725  149.5648 H   0  0  0  0  0  0  0  0  0  0  0  0  # atno 10718 bound_to 10713
  152.9792  135.5945  154.3921 H   0  0  0  0  0  0  0  0  0  0  0  0  # atno 10763 bound_to 10752
  154.3576  135.2767  155.2340 H   0  0  0  0  0  0  0  0  0  0  0  0  # atno 10764 bound_to 10752
  154.4351  135.6027  153.6148 H   0  0  0  0  0  0  0  0  0  0  0  0  # atno 10765 bound_to 10752
  140.5427  134.5506  157.5103 H   0  0  0  0  0  0  0  0  0  0  0  0  # atno 11005 bound_to 11000
  144.6732  140.1582  143.7424 LP  0  0  0  0  0  0  0  0  0  0  0  0  # atno 17320 bound_to 7965
  145.8867  139.2353  143.1574 LP  0  0  0  0  0  0  0  0  0  0  0  0  # atno 17321 bound_to 7965
  140.6748  143.2300  151.5535 LP  0  0  0  0  0  0  0  0  0  0  0  0  # atno 17342 bound_to 10162
  139.5462  144.2515  152.1446 LP  0  0  0  0  0  0  0  0  0  0  0  0  # atno 17343 bound_to 10162
  156.0577  130.5636  150.9128 LP  0  0  0  0  0  0  0  0  0  0  0  0  # atno 17370 bound_to 10713
  157.6021  131.0941  150.8943 LP  0  0  0  0  0  0  0  0  0  0  0  0  # atno 17371 bound_to 10713
  139.9495  134.7641  156.0481 LP  0  0  0  0  0  0  0  0  0  0  0  0  # atno 17394 bound_to 11000
  141.1218  133.6611  156.3233 LP  0  0  0  0  0  0  0  0  0  0  0  0  # atno 17395 bound_to 11000

$$$$
