AV-unprocessed.smi:1073|AV-procd|sdf|4689|dock3
  -GOLD-   22720 3203D 1   1.00000     0.00000
 Structure written by MMmdl.
 44 44  0  0  0  0  0  0  0  0  1 V2000
  148.1345  133.1920  153.6688 C   0  0  0  0  0  0  0  0  0  0  0  0
  148.4373  134.5470  154.1028 N   0  0  0  0  0  0  0  0  0  0  0  0
  148.3996  134.9572  155.3789 C   0  0  0  0  0  0  0  0  0  0  0  0
  148.1137  134.2100  156.3160 O   0  0  0  0  0  0  0  0  0  0  0  0
  148.7629  136.4261  155.6354 C   0  0  2  0  0  0  0  0  0  0  0  0
  150.2630  136.7039  155.3751 C   0  0  0  0  0  0  0  0  0  0  0  0
  150.6807  138.1917  155.3253 C   0  0  0  0  0  0  0  0  0  0  0  0
  149.8132  139.0144  154.3577 C   0  0  0  0  0  0  0  0  0  0  0  0
  152.1645  138.3221  154.9489 C   0  0  0  0  0  0  0  0  0  0  0  0
  148.3944  136.8016  157.0014 N   0  0  0  0  0  0  0  0  0  0  0  0
  148.9134  136.2971  158.1315 C   0  0  0  0  0  0  0  0  0  0  0  0
  149.7771  135.4191  158.1474 O   0  0  0  0  0  0  0  0  0  0  0  0
  148.3456  136.8698  159.4379 C   0  0  0  0  0  0  0  0  0  0  0  0
  147.7101  135.8554  160.2950 N   0  0  0  0  0  0  0  0  0  0  0  0
  147.4714  134.5913  159.7209 C   0  0  0  0  0  0  0  0  0  0  0  0
  146.8906  133.5791  160.3929 C   0  0  0  0  0  0  0  0  0  0  0  0
  146.7031  132.2071  159.7641 C   0  0  0  0  0  0  0  0  0  0  0  0
  146.1324  131.3593  160.6201 F   0  0  0  0  0  0  0  0  0  0  0  0
  145.9194  132.3044  158.6911 F   0  0  0  0  0  0  0  0  0  0  0  0
  147.8710  131.6911  159.3791 F   0  0  0  0  0  0  0  0  0  0  0  0
  146.5400  133.8397  161.7754 C   0  0  0  0  0  0  0  0  0  0  0  0
  146.7746  135.0385  162.3440 C   0  0  0  0  0  0  0  0  0  0  0  0
  147.3923  136.1350  161.5945 C   0  0  0  0  0  0  0  0  0  0  0  0
  147.6118  137.2346  162.1030 O   0  0  0  0  0  0  0  0  0  0  0  0
  148.2341  133.1173  152.5859 H   0  0  0  0  0  0  0  0  0  0  0  0
  147.1136  132.9177  153.9372 H   0  0  0  0  0  0  0  0  0  0  0  0
  148.8191  132.4756  154.1245 H   0  0  0  0  0  0  0  0  0  0  0  0
  148.6868  135.2168  153.3896 H   0  0  0  0  0  0  0  0  0  0  0  0
  148.1697  137.0104  154.9306 H   0  0  0  0  0  0  0  0  0  0  0  0
  150.8424  136.2010  156.1512 H   0  0  0  0  0  0  0  0  0  0  0  0
  150.5615  136.2310  154.4378 H   0  0  0  0  0  0  0  0  0  0  0  0
  150.5733  138.6208  156.3213 H   0  0  0  0  0  0  0  0  0  0  0  0
  149.8629  138.6158  153.3440 H   0  0  0  0  0  0  0  0  0  0  0  0
  150.1453  140.0523  154.3223 H   0  0  0  0  0  0  0  0  0  0  0  0
  148.7669  139.0262  154.6606 H   0  0  0  0  0  0  0  0  0  0  0  0
  152.3591  137.9152  153.9560 H   0  0  0  0  0  0  0  0  0  0  0  0
  152.7999  137.7895  155.6574 H   0  0  0  0  0  0  0  0  0  0  0  0
  152.4804  139.3657  154.9487 H   0  0  0  0  0  0  0  0  0  0  0  0
  147.6926  137.5227  157.0893 H   0  0  0  0  0  0  0  0  0  0  0  0
  149.1431  137.3782  159.9831 H   0  0  0  0  0  0  0  0  0  0  0  0
  147.6312  137.6539  159.1833 H   0  0  0  0  0  0  0  0  0  0  0  0
  147.8033  134.4933  158.6974 H   0  0  0  0  0  0  0  0  0  0  0  0
  146.0794  133.0611  162.3655 H   0  0  0  0  0  0  0  0  0  0  0  0
  146.5003  135.1969  163.3767 H   0  0  0  0  0  0  0  0  0  0  0  0
  1  2  1  0  0  0  0
  1 25  1  0  0  0  0
  1 26  1  0  0  0  0
  1 27  1  0  0  0  0
  2  3  1  0  0  0  0
  2 28  1  0  0  0  0
  3  4  2  0  0  0  0
  3  5  1  0  0  0  0
  5  6  1  0  0  0  0
  5 10  1  0  0  0  0
  5 29  1  0  0  0  0
  6  7  1  0  0  0  0
  6 30  1  0  0  0  0
  6 31  1  0  0  0  0
  7  8  1  0  0  0  0
  7  9  1  0  0  0  0
  7 32  1  0  0  0  0
  8 33  1  0  0  0  0
  8 34  1  0  0  0  0
  8 35  1  0  0  0  0
  9 36  1  0  0  0  0
  9 37  1  0  0  0  0
  9 38  1  0  0  0  0
 10 11  1  0  0  0  0
 10 39  1  0  0  0  0
 11 12  2  0  0  0  0
 11 13  1  0  0  0  0
 13 14  1  0  0  0  0
 13 40  1  0  0  0  0
 13 41  1  0  0  0  0
 14 23  1  0  0  0  0
 14 15  1  0  0  0  0
 15 16  2  0  0  0  0
 15 42  1  0  0  0  0
 16 17  1  0  0  0  0
 16 21  1  0  0  0  0
 17 18  1  0  0  0  0
 17 19  1  0  0  0  0
 17 20  1  0  0  0  0
 21 22  2  0  0  0  0
 21 43  1  0  0  0  0
 22 23  1  0  0  0  0
 22 44  1  0  0  0  0
 23 24  2  0  0  0  0
M  END
> <s_m_source_file>
AV-unprocessed.smi

> <i_m_source_file_index>
1073

> <i_lp_mmshare_version>
43012

> <i_f3d_flags>
0

> <s_epik_input>
W0NIM11bTkhdQyg9TylbQ0BIXShbQ0gyXVtDSF0oW0NIM10pW0NIM10pW05IXUMoPU8pW0NIMl1uMVtjSF1jKEMoRikoRilGKVtjSF1bY0hdYzE9Tw==

> <s_epik_cmdline>
J2VwaWtfcHl0aG9uJywgJy1waCcsICc3LjAnLCAnLXRuJywgJzgnLCAnLW1hJywgJzIwMCcsICctbWV0YWxfYmluZGluZycsICctaW1hZScsICc8aW5maWxlLm1hZT4nLCAnLW9tYWUnLCAnPG91dGZpbGUubWFlPic=

> <r_lp_tautomer_probability>
1

> <r_epik_Ionization_Penalty>
7.02352e-08

> <r_epik_Ionization_Penalty_Charging>
1.57869e-08

> <r_epik_Ionization_Penalty_Neutral>
5.44484e-08

> <r_epik_State_Penalty>
-0

> <r_epik_Charging_Adjusted_Penalty>
1.57869e-08

> <i_epik_Tot_Q>
0

> <i_epik_Tot_abs_Q>
0

> <r_epik_Metal_State_Penalty>
-0

> <b_epik_Metal_Only>
0

> <s_lp_Force_Field>
OPLS_2005

> <r_lp_Energy>
18.1755

> <b_lp_Chiralities_Consistent>
1

> <s_lp_Variant>
AV-unprocessed.smi:1073-1

> <Gold.Version>
5.8.1

> <Gold.Id.Protein>
6NUR|6NUR_protein|mol2

> <Gold.PLP.Fitness>
47.5188

> <Gold.PLP.PLP>
-39.0400

> <Gold.PLP.part.hbond>
-4.0000

> <Gold.PLP.part.metal>
0.0000

> <Gold.PLP.part.buried>
-4.8671

> <Gold.PLP.part.nonpolar>
-30.9967

> <Gold.PLP.part.repulsive>
0.0099

> <Gold.PLP.ligand.clash>
0.3123

> <Gold.PLP.ligand.torsion>
0.4769

> <Gold.PLP.Chemscore.Hbond>
3.1949

> <Gold.PLP.Chemscore.CHOScore>
0.0000

> <Gold.PLP.Chemscore.Metal>
0.0000

> <Gold.Chemscore.Hbonds>
donor molecule, donor type, donor heavy atom, donor atom, acceptor molecule, acceptor atom, score
      L1  H     2    28       P1  7948  1.00
      P1  H  6896  6908       L1    12  0.96
      P1  H  6931  6943       L1    24  0.93
      P1  H  6934  6947       L1    24  0.41

> <Gold.PLP.Chemscore.Internal.Correction>
0.1603

> <Gold.Rescore>
     Score         DG    S(hbond)    S(metal)    S(lipo)     H(rot)  DE(clash)    DE(int)     intcor
     12.30     -17.02       3.06        0.00      66.25       2.51       0.00       4.72       ----

> <Gold.Chemscore.Fitness>
12.2965

> <Gold.Chemscore.DG>
-17.0206

> <Gold.Chemscore.ZeroCoef>
-5.4800

> <Gold.Chemscore.Hbond>
3.0620

> <Gold.Chemscore.Metal>
0.0000

> <Gold.Chemscore.Lipo>
66.2524

> <Gold.Chemscore.Internal_Hbond>
0.0000

> <Gold.Chemscore.DEClash>
0.0000

> <Gold.Chemscore.DEInternal>
4.7241

> <Gold.Chemscore.Rot>
2.5149

> <Gold.Chemscore.Internal.Correction>
   9.000000E+99

> <Gold.Chemscore.Hbonds>
donor molecule, donor type, donor heavy atom, donor atom, acceptor molecule, acceptor atom, score
      L1  H     2    28       P1  7948  0.82
      P1  H  6896  6908       L1    12  0.92
      P1  H  6931  6943       L1    24  0.90
      P1  H  6934  6947       L1    24  0.39

> <Gold.Chemscore.Hbond.Weighted>
-10.2272

> <Gold.Chemscore.Metal.Weighted>
-0.0000

> <Gold.Chemscore.Lipo.Weighted>
-7.7515

> <Gold.Chemscore.Internal_Hbond.Weighted>
0.0000

> <Gold.Chemscore.DEClash.Weighted>
0.0000

> <Gold.Chemscore.DEInternal.Weighted>
4.7241

> <Gold.Chemscore.Rot.Weighted>
6.4381

> <Gold.Chemscore.Internal.Correction.Weighted>
   9.000000E+99

> <Gold.Protein.RotatedTorsions>
[ 6907 6896 6895 6894 ] final  179.03 input  -60.11 | X-H torsion
[ 7974 7965 7964 7962 ] final  143.16 input  175.53 | X-H torsion
[ 8008 7997 7996 7995 ] final   89.31 input   59.86 | X-H torsion
[ 10167 10162 10161 10158 ] final  -98.63 input  -65.29 | X-H torsion
[ 10718 10713 10712 10709 ] final  104.42 input   66.30 | X-H torsion
[ 10763 10752 10751 10750 ] final -152.40 input  -60.55 | X-H torsion
[ 11005 11000 10999 10996 ] final -102.57 input  -57.11 | X-H torsion

> <Gold.Protein.ActiveResidues>
 VAL166  LYS551  ARG553  GLY616  TRP617  ASP618  TYR619  PRO620  LYS621  CYS622 
 ASP623  PHE694  ASN695  SER759  ASP760  ASP761  ALA762  ILE779  LEU786  VAL792 
 PHE793  MET794  SER795  GLU796  ALA797  LYS798  CYS799  TRP800  GLU811  SER814 

> <Gold.Protein.RotatedAtoms>
  151.6783  133.3312  159.3212 H   0  0  0  0  0  0  0  0  0  0  0  0  # atno 6907 bound_to 6896
  150.7835  134.6803  159.6450 H   0  0  0  0  0  0  0  0  0  0  0  0  # atno 6908 bound_to 6896
  152.3899  134.6462  160.0164 H   0  0  0  0  0  0  0  0  0  0  0  0  # atno 6909 bound_to 6896
  144.8945  139.5511  143.5783 H   0  0  0  0  0  0  0  0  0  0  0  0  # atno 7974 bound_to 7965
  155.9984  140.3362  155.6821 H   0  0  0  0  0  0  0  0  0  0  0  0  # atno 8008 bound_to 7997
  155.6325  140.0686  157.2662 H   0  0  0  0  0  0  0  0  0  0  0  0  # atno 8009 bound_to 7997
  154.4241  140.1757  156.1474 H   0  0  0  0  0  0  0  0  0  0  0  0  # atno 8010 bound_to 7997
  140.2710  143.3344  152.0535 H   0  0  0  0  0  0  0  0  0  0  0  0  # atno 10167 bound_to 10162
  157.6740  131.0803  150.5704 H   0  0  0  0  0  0  0  0  0  0  0  0  # atno 10718 bound_to 10713
  154.7996  135.3237  154.7582 H   0  0  0  0  0  0  0  0  0  0  0  0  # atno 10763 bound_to 10752
  153.8253  135.6884  153.4826 H   0  0  0  0  0  0  0  0  0  0  0  0  # atno 10764 bound_to 10752
  153.1706  135.4625  154.9839 H   0  0  0  0  0  0  0  0  0  0  0  0  # atno 10765 bound_to 10752
  141.1183  133.8569  157.1377 H   0  0  0  0  0  0  0  0  0  0  0  0  # atno 11005 bound_to 11000
  146.3073  139.7624  142.9046 LP  0  0  0  0  0  0  0  0  0  0  0  0  # atno 17320 bound_to 7965
  145.3725  141.0345  143.3223 LP  0  0  0  0  0  0  0  0  0  0  0  0  # atno 17321 bound_to 7965
  139.4989  144.6656  151.6363 LP  0  0  0  0  0  0  0  0  0  0  0  0  # atno 17342 bound_to 10162
  140.5890  143.9813  150.6313 LP  0  0  0  0  0  0  0  0  0  0  0  0  # atno 17343 bound_to 10162
  156.6005  130.4353  149.5899 LP  0  0  0  0  0  0  0  0  0  0  0  0  # atno 17370 bound_to 10713
  156.2510  130.6907  151.1644 LP  0  0  0  0  0  0  0  0  0  0  0  0  # atno 17371 bound_to 10713
  140.0121  134.9983  157.0417 LP  0  0  0  0  0  0  0  0  0  0  0  0  # atno 17394 bound_to 11000
  140.4581  134.1512  155.7188 LP  0  0  0  0  0  0  0  0  0  0  0  0  # atno 17395 bound_to 11000

$$$$
