AV-unprocessed.smi:190|AV-procd|sdf|1492|dock8
  -GOLD-   2262019313D 1   1.00000     0.00000
 Structure written by MMmdl.
 54 58  0  0  0  0  0  0  0  0  1 V2000
  147.2790  137.8398  153.6499 O   0  0  0  0  0  0  0  0  0  0  0  0
  147.7478  137.4421  154.9233 C   0  0  0  0  0  0  0  0  0  0  0  0
  148.9270  138.3214  155.4193 C   0  0  0  0  0  0  0  0  0  0  0  0
  149.3824  137.8954  156.8517 C   0  0  0  0  0  0  0  0  0  0  0  0
  148.3004  137.6147  157.7859 N   0  0  0  0  0  0  0  0  0  0  0  0
  147.3913  138.5175  158.2913 C   0  0  0  0  0  0  0  0  0  0  0  0
  146.5132  138.0226  159.1197 N   0  0  0  0  0  0  0  0  0  0  0  0
  146.8600  136.6816  159.2177 C   0  0  0  0  0  0  0  0  0  0  0  0
  146.3416  135.5772  159.9462 C   0  0  0  0  0  0  0  0  0  0  0  0
  145.2827  135.6962  160.7847 N   0  0  0  0  0  0  0  0  0  0  0  0
  144.1825  134.7535  160.6074 C   0  0  0  0  0  0  0  0  0  0  0  0
  143.3583  134.8110  161.9013 C   0  0  0  0  0  0  0  0  0  0  0  0
  144.0688  135.8504  162.7726 C   0  0  0  0  0  0  0  0  0  0  0  0
  145.5015  135.8695  162.2255 C   0  0  2  0  0  0  0  0  0  0  0  0
  146.2815  137.1214  162.6147 C   0  0  0  0  0  0  0  0  0  0  0  0
  147.7377  136.6576  162.7164 C   0  0  0  0  0  0  0  0  0  0  0  0
  147.7145  135.2336  162.6990 O   0  0  0  0  0  0  0  0  0  0  0  0
  146.3791  134.7708  162.8500 C   0  0  0  0  0  0  0  0  0  0  0  0
  146.9450  134.3710  159.7766 N   0  0  0  0  0  0  0  0  0  0  0  0
  148.0013  134.2571  158.9670 C   0  0  0  0  0  0  0  0  0  0  0  0
  148.5988  135.2011  158.2377 N   0  0  0  0  0  0  0  0  0  0  0  0
  147.9840  136.4087  158.3885 C   0  0  0  0  0  0  0  0  0  0  0  0
  150.0758  138.1903  154.3874 C   0  0  0  0  0  0  0  0  0  0  0  0
  151.1813  139.2432  154.5867 C   0  0  0  0  0  0  0  0  0  0  0  0
  150.6210  140.5482  154.5291 O   0  0  0  0  0  0  0  0  0  0  0  0
  149.6714  140.7830  155.5605 C   0  0  0  0  0  0  0  0  0  0  0  0
  148.4882  139.8077  155.4187 C   0  0  0  0  0  0  0  0  0  0  0  0
  147.5856  137.2163  153.0093 H   0  0  0  0  0  0  0  0  0  0  0  0
  146.9160  137.4648  155.6273 H   0  0  0  0  0  0  0  0  0  0  0  0
  148.0532  136.3975  154.8525 H   0  0  0  0  0  0  0  0  0  0  0  0
  150.0205  137.0138  156.8143 H   0  0  0  0  0  0  0  0  0  0  0  0
  150.0032  138.6759  157.2930 H   0  0  0  0  0  0  0  0  0  0  0  0
  147.3940  139.5627  158.0180 H   0  0  0  0  0  0  0  0  0  0  0  0
  143.5812  135.0558  159.7496 H   0  0  0  0  0  0  0  0  0  0  0  0
  144.5313  133.7358  160.4287 H   0  0  0  0  0  0  0  0  0  0  0  0
  142.3173  135.0785  161.7178 H   0  0  0  0  0  0  0  0  0  0  0  0
  143.3710  133.8360  162.3903 H   0  0  0  0  0  0  0  0  0  0  0  0
  143.6030  136.8250  162.6173 H   0  0  0  0  0  0  0  0  0  0  0  0
  144.0085  135.6248  163.8379 H   0  0  0  0  0  0  0  0  0  0  0  0
  146.1375  137.9600  161.9351 H   0  0  0  0  0  0  0  0  0  0  0  0
  145.9593  137.4578  163.6012 H   0  0  0  0  0  0  0  0  0  0  0  0
  148.3305  137.0153  161.8743 H   0  0  0  0  0  0  0  0  0  0  0  0
  148.2045  137.0200  163.6325 H   0  0  0  0  0  0  0  0  0  0  0  0
  146.1805  134.6823  163.9189 H   0  0  0  0  0  0  0  0  0  0  0  0
  146.2377  133.7842  162.4077 H   0  0  0  0  0  0  0  0  0  0  0  0
  148.4283  133.2681  158.8924 H   0  0  0  0  0  0  0  0  0  0  0  0
  150.5041  137.1884  154.4020 H   0  0  0  0  0  0  0  0  0  0  0  0
  149.6744  138.3201  153.3813 H   0  0  0  0  0  0  0  0  0  0  0  0
  151.7081  139.1049  155.5306 H   0  0  0  0  0  0  0  0  0  0  0  0
  151.9273  139.1497  153.7974 H   0  0  0  0  0  0  0  0  0  0  0  0
  150.1471  140.7000  156.5382 H   0  0  0  0  0  0  0  0  0  0  0  0
  149.3159  141.8100  155.4759 H   0  0  0  0  0  0  0  0  0  0  0  0
  147.9745  140.0362  154.4839 H   0  0  0  0  0  0  0  0  0  0  0  0
  147.7637  139.9937  156.2123 H   0  0  0  0  0  0  0  0  0  0  0  0
  1  2  1  0  0  0  0
  1 28  1  0  0  0  0
  2  3  1  0  0  0  0
  2 29  1  0  0  0  0
  2 30  1  0  0  0  0
  3 27  1  0  0  0  0
  3  4  1  0  0  0  0
  3 23  1  0  0  0  0
  4  5  1  0  0  0  0
  4 31  1  0  0  0  0
  4 32  1  0  0  0  0
  5 22  1  0  0  0  0
  5  6  1  0  0  0  0
  6  7  2  0  0  0  0
  6 33  1  0  0  0  0
  7  8  1  0  0  0  0
  8 22  2  0  0  0  0
  8  9  1  0  0  0  0
  9 10  1  0  0  0  0
  9 19  2  0  0  0  0
 10 14  1  0  0  0  0
 10 11  1  0  0  0  0
 11 12  1  0  0  0  0
 11 34  1  0  0  0  0
 11 35  1  0  0  0  0
 12 13  1  0  0  0  0
 12 36  1  0  0  0  0
 12 37  1  0  0  0  0
 13 14  1  0  0  0  0
 13 38  1  0  0  0  0
 13 39  1  0  0  0  0
 14 18  1  0  0  0  0
 14 15  1  0  0  0  0
 15 16  1  0  0  0  0
 15 40  1  0  0  0  0
 15 41  1  0  0  0  0
 16 17  1  0  0  0  0
 16 42  1  0  0  0  0
 16 43  1  0  0  0  0
 17 18  1  0  0  0  0
 18 44  1  0  0  0  0
 18 45  1  0  0  0  0
 19 20  1  0  0  0  0
 20 21  2  0  0  0  0
 20 46  1  0  0  0  0
 21 22  1  0  0  0  0
 23 24  1  0  0  0  0
 23 47  1  0  0  0  0
 23 48  1  0  0  0  0
 24 25  1  0  0  0  0
 24 49  1  0  0  0  0
 24 50  1  0  0  0  0
 25 26  1  0  0  0  0
 26 27  1  0  0  0  0
 26 51  1  0  0  0  0
 26 52  1  0  0  0  0
 27 53  1  0  0  0  0
 27 54  1  0  0  0  0
M  END
> <s_m_source_file>
AV-unprocessed.smi

> <i_m_source_file_index>
190

> <i_lp_mmshare_version>
43012

> <i_f3d_flags>
0

> <s_epik_input>
W0NIMl0xW0NIMl1PW0NIMl1bQ0gyXUMxKFtDSDJdW09IXSlbQ0gyXW4oW2NIXW4yKWMoYzIzKW5bY0hdbmMzTihbQ0gyXVtDSDJdW0NIMl00KVtDQF00NVtDSDJdW0NIMl1PW0NIMl01

> <s_epik_cmdline>
J2VwaWtfcHl0aG9uJywgJy1waCcsICc3LjAnLCAnLXRuJywgJzgnLCAnLW1hJywgJzIwMCcsICctbWV0YWxfYmluZGluZycsICctaW1hZScsICc8aW5maWxlLm1hZT4nLCAnLW9tYWUnLCAnPG91dGZpbGUubWFlPic=

> <r_lp_tautomer_probability>
1

> <r_epik_Ionization_Penalty>
0.00423054

> <r_epik_Ionization_Penalty_Charging>
0

> <r_epik_Ionization_Penalty_Neutral>
0.00423054

> <r_epik_State_Penalty>
0.00298851

> <r_epik_Charging_Adjusted_Penalty>
0.00298851

> <i_epik_Tot_Q>
0

> <i_epik_Tot_abs_Q>
0

> <r_epik_Metal_State_Penalty>
-0

> <b_epik_Metal_Only>
0

> <s_lp_Force_Field>
OPLS_2005

> <r_lp_Energy>
69.5451

> <b_lp_Chiralities_Consistent>
1

> <s_lp_Variant>
AV-unprocessed.smi:190-2

> <Gold.Version>
5.8.1

> <Gold.Id.Protein>
6NUR|6NUR_protein|mol2

> <Gold.PLP.Fitness>
40.3153

> <Gold.PLP.PLP>
-33.9972

> <Gold.PLP.part.hbond>
-2.9365

> <Gold.PLP.part.metal>
0.0000

> <Gold.PLP.part.buried>
-4.6712

> <Gold.PLP.part.nonpolar>
-26.6163

> <Gold.PLP.part.repulsive>
0.0651

> <Gold.PLP.ligand.clash>
0.0000

> <Gold.PLP.ligand.torsion>
0.6594

> <Gold.PLP.Chemscore.Hbond>
2.4752

> <Gold.PLP.Chemscore.CHOScore>
0.0000

> <Gold.PLP.Chemscore.Metal>
0.0000

> <Gold.Chemscore.Hbonds>
donor molecule, donor type, donor heavy atom, donor atom, acceptor molecule, acceptor atom, score
      L1  H     1    28       P1  7948  0.99
      P1  H  6934  6947       L1     7  0.41
      P1  H  7989  7998       L1    25  0.34

> <Gold.PLP.Chemscore.Internal.Correction>
0.2112

> <Gold.Rescore>
     Score         DG    S(hbond)    S(metal)    S(lipo)     H(rot)  DE(clash)    DE(int)     intcor
     16.14     -16.79       2.39        0.00      80.30       2.37       0.00       0.64       ----

> <Gold.Chemscore.Fitness>
16.1444

> <Gold.Chemscore.DG>
-16.7930

> <Gold.Chemscore.ZeroCoef>
-5.4800

> <Gold.Chemscore.Hbond>
2.3880

> <Gold.Chemscore.Metal>
0.0000

> <Gold.Chemscore.Lipo>
80.3047

> <Gold.Chemscore.Internal_Hbond>
0.0000

> <Gold.Chemscore.DEClash>
0.0047

> <Gold.Chemscore.DEInternal>
0.6438

> <Gold.Chemscore.Rot>
2.3666

> <Gold.Chemscore.Internal.Correction>
   9.000000E+99

> <Gold.Chemscore.Hbonds>
donor molecule, donor type, donor heavy atom, donor atom, acceptor molecule, acceptor atom, score
      L1  H     1    28       P1  7948  0.91
      P1  H  6934  6947       L1     7  0.06
      P1  H  7989  7998       L1    25  0.01

> <Gold.Chemscore.Hbond.Weighted>
-7.9759

> <Gold.Chemscore.Metal.Weighted>
-0.0000

> <Gold.Chemscore.Lipo.Weighted>
-9.3956

> <Gold.Chemscore.Internal_Hbond.Weighted>
0.0000

> <Gold.Chemscore.DEClash.Weighted>
0.0047

> <Gold.Chemscore.DEInternal.Weighted>
0.6438

> <Gold.Chemscore.Rot.Weighted>
6.0586

> <Gold.Chemscore.Internal.Correction.Weighted>
   9.000000E+99

> <Gold.Protein.RotatedTorsions>
[ 6907 6896 6895 6894 ] final  104.16 input  -60.11 | X-H torsion
[ 7974 7965 7964 7962 ] final  -31.87 input  175.53 | X-H torsion
[ 8008 7997 7996 7995 ] final    8.00 input   59.86 | X-H torsion
[ 10167 10162 10161 10158 ] final  152.14 input  -65.29 | X-H torsion
[ 10718 10713 10712 10709 ] final  -64.48 input   66.30 | X-H torsion
[ 10763 10752 10751 10750 ] final   94.97 input  -60.55 | X-H torsion
[ 11005 11000 10999 10996 ] final  -93.80 input  -57.11 | X-H torsion

> <Gold.Protein.ActiveResidues>
 VAL166  LYS551  ARG553  GLY616  TRP617  ASP618  TYR619  PRO620  LYS621  CYS622 
 ASP623  PHE694  ASN695  SER759  ASP760  ASP761  ALA762  ILE779  LEU786  VAL792 
 PHE793  MET794  SER795  GLU796  ALA797  LYS798  CYS799  TRP800  GLU811  SER814 

> <Gold.Protein.RotatedAtoms>
  152.5273  133.9718  159.7765 H   0  0  0  0  0  0  0  0  0  0  0  0  # atno 6907 bound_to 6896
  150.9988  133.6068  159.2705 H   0  0  0  0  0  0  0  0  0  0  0  0  # atno 6908 bound_to 6896
  151.3184  135.0818  159.9350 H   0  0  0  0  0  0  0  0  0  0  0  0  # atno 6909 bound_to 6896
  146.1034  140.5721  142.8810 H   0  0  0  0  0  0  0  0  0  0  0  0  # atno 7974 bound_to 7965
  154.7612  140.2785  155.6213 H   0  0  0  0  0  0  0  0  0  0  0  0  # atno 8008 bound_to 7997
  156.2916  140.2659  156.2318 H   0  0  0  0  0  0  0  0  0  0  0  0  # atno 8009 bound_to 7997
  155.0015  140.0372  157.2352 H   0  0  0  0  0  0  0  0  0  0  0  0  # atno 8010 bound_to 7997
  139.4835  144.5383  151.7608 H   0  0  0  0  0  0  0  0  0  0  0  0  # atno 10167 bound_to 10162
  156.0727  130.4234  150.1426 H   0  0  0  0  0  0  0  0  0  0  0  0  # atno 10718 bound_to 10713
  153.2478  135.4270  155.0766 H   0  0  0  0  0  0  0  0  0  0  0  0  # atno 10763 bound_to 10752
  154.8369  135.3418  154.6556 H   0  0  0  0  0  0  0  0  0  0  0  0  # atno 10764 bound_to 10752
  153.6978  135.7030  153.5128 H   0  0  0  0  0  0  0  0  0  0  0  0  # atno 10765 bound_to 10752
  141.1487  133.7912  157.0210 H   0  0  0  0  0  0  0  0  0  0  0  0  # atno 11005 bound_to 11000
  144.7451  140.5046  143.6841 LP  0  0  0  0  0  0  0  0  0  0  0  0  # atno 17320 bound_to 7965
  145.5809  139.1489  143.3236 LP  0  0  0  0  0  0  0  0  0  0  0  0  # atno 17321 bound_to 7965
  140.4918  144.1299  150.5952 LP  0  0  0  0  0  0  0  0  0  0  0  0  # atno 17342 bound_to 10162
  140.4162  143.2633  151.9772 LP  0  0  0  0  0  0  0  0  0  0  0  0  # atno 17343 bound_to 10162
  156.9474  130.9764  151.3505 LP  0  0  0  0  0  0  0  0  0  0  0  0  # atno 17370 bound_to 10713
  157.5806  130.8373  149.8517 LP  0  0  0  0  0  0  0  0  0  0  0  0  # atno 17371 bound_to 10713
  140.0816  134.9645  157.1633 LP  0  0  0  0  0  0  0  0  0  0  0  0  # atno 17394 bound_to 11000
  140.3569  134.2536  155.7191 LP  0  0  0  0  0  0  0  0  0  0  0  0  # atno 17395 bound_to 11000

$$$$
