AV-unprocessed.smi:1671|AV-procd|sdf|6699|dock10
  -GOLD-   22720 7433D 1   1.00000     0.00000
 Structure written by MMmdl.
 44 45  0  0  0  0  0  0  0  0  1 V2000
  148.7894  132.4937  157.1564 C   0  0  0  0  0  0  0  0  0  0  0  0
  150.3240  133.4027  156.8284 S   0  0  0  0  0  0  0  0  0  0  0  0
  149.7652  134.5813  155.5622 C   0  0  2  0  0  0  0  0  0  0  0  0
  149.3929  133.8633  154.2522 C   0  0  0  0  0  0  0  0  0  0  0  0
  150.8160  135.6762  155.3386 C   0  0  0  0  0  0  0  0  0  0  0  0
  151.8671  135.6815  155.9809 O   0  0  0  0  0  0  0  0  0  0  0  0
  150.5134  136.6097  154.4243 N   0  0  0  0  0  0  0  0  0  0  0  0
  151.3637  137.7443  154.0886 C   0  0  0  0  0  0  0  0  0  0  0  0
  151.4301  138.7742  155.2017 C   0  0  0  0  0  0  0  0  0  0  0  0
  151.7027  138.4004  156.5329 C   0  0  0  0  0  0  0  0  0  0  0  0
  151.7439  139.3960  157.5275 C   0  0  0  0  0  0  0  0  0  0  0  0
  151.5136  140.7458  157.1664 C   0  0  0  0  0  0  0  0  0  0  0  0
  151.5527  141.7662  158.1435 N   0  0  0  0  0  0  0  0  0  0  0  0
  151.3972  143.1501  157.6977 C   0  0  0  0  0  0  0  0  0  0  0  0
  151.1577  144.0780  158.8998 C   0  0  0  0  0  0  0  0  0  0  0  0
  152.2082  143.9166  159.8465 O   0  0  0  0  0  0  0  0  0  0  0  0
  152.2687  142.5882  160.3579 C   0  0  2  0  0  0  0  0  0  0  0  0
  153.3596  142.5363  161.4328 C   0  0  0  0  0  0  0  0  0  0  0  0
  152.5495  141.6097  159.2007 C   0  0  0  0  0  0  0  0  0  0  0  0
  151.2392  141.0964  155.8849 N   0  0  0  0  0  0  0  0  0  0  0  0
  151.1977  140.1380  154.9356 C   0  0  0  0  0  0  0  0  0  0  0  0
  148.9472  131.7755  157.9610 H   0  0  0  0  0  0  0  0  0  0  0  0
  148.4651  131.9472  156.2713 H   0  0  0  0  0  0  0  0  0  0  0  0
  147.9955  133.1776  157.4569 H   0  0  0  0  0  0  0  0  0  0  0  0
  148.8685  135.0703  155.9458 H   0  0  0  0  0  0  0  0  0  0  0  0
  149.1252  134.5758  153.4710 H   0  0  0  0  0  0  0  0  0  0  0  0
  148.5360  133.2050  154.3913 H   0  0  0  0  0  0  0  0  0  0  0  0
  150.2191  133.2557  153.8808 H   0  0  0  0  0  0  0  0  0  0  0  0
  149.6275  136.5403  153.9449 H   0  0  0  0  0  0  0  0  0  0  0  0
  152.3658  137.3802  153.8574 H   0  0  0  0  0  0  0  0  0  0  0  0
  150.9870  138.2373  153.1908 H   0  0  0  0  0  0  0  0  0  0  0  0
  151.8715  137.3658  156.7936 H   0  0  0  0  0  0  0  0  0  0  0  0
  151.9334  139.1086  158.5505 H   0  0  0  0  0  0  0  0  0  0  0  0
  152.2954  143.4587  157.1609 H   0  0  0  0  0  0  0  0  0  0  0  0
  150.5573  143.2362  157.0073 H   0  0  0  0  0  0  0  0  0  0  0  0
  151.1319  145.1172  158.5719 H   0  0  0  0  0  0  0  0  0  0  0  0
  150.1945  143.8679  159.3676 H   0  0  0  0  0  0  0  0  0  0  0  0
  151.3127  142.3406  160.8233 H   0  0  0  0  0  0  0  0  0  0  0  0
  153.4391  141.5380  161.8641 H   0  0  0  0  0  0  0  0  0  0  0  0
  153.1409  143.2316  162.2434 H   0  0  0  0  0  0  0  0  0  0  0  0
  154.3335  142.8013  161.0201 H   0  0  0  0  0  0  0  0  0  0  0  0
  152.5648  140.5953  159.5960 H   0  0  0  0  0  0  0  0  0  0  0  0
  153.5378  141.7998  158.7795 H   0  0  0  0  0  0  0  0  0  0  0  0
  150.9749  140.4744  153.9337 H   0  0  0  0  0  0  0  0  0  0  0  0
  1  2  1  0  0  0  0
  1 22  1  0  0  0  0
  1 23  1  0  0  0  0
  1 24  1  0  0  0  0
  2  3  1  0  0  0  0
  3  4  1  0  0  0  0
  3  5  1  0  0  0  0
  3 25  1  0  0  0  0
  4 26  1  0  0  0  0
  4 27  1  0  0  0  0
  4 28  1  0  0  0  0
  5  6  2  0  0  0  0
  5  7  1  0  0  0  0
  7  8  1  0  0  0  0
  7 29  1  0  0  0  0
  8  9  1  0  0  0  0
  8 30  1  0  0  0  0
  8 31  1  0  0  0  0
  9 21  1  0  0  0  0
  9 10  2  0  0  0  0
 10 11  1  0  0  0  0
 10 32  1  0  0  0  0
 11 12  2  0  0  0  0
 11 33  1  0  0  0  0
 12 13  1  0  0  0  0
 12 20  1  0  0  0  0
 13 19  1  0  0  0  0
 13 14  1  0  0  0  0
 14 15  1  0  0  0  0
 14 34  1  0  0  0  0
 14 35  1  0  0  0  0
 15 16  1  0  0  0  0
 15 36  1  0  0  0  0
 15 37  1  0  0  0  0
 16 17  1  0  0  0  0
 17 18  1  0  0  0  0
 17 19  1  0  0  0  0
 17 38  1  0  0  0  0
 18 39  1  0  0  0  0
 18 40  1  0  0  0  0
 18 41  1  0  0  0  0
 19 42  1  0  0  0  0
 19 43  1  0  0  0  0
 20 21  2  0  0  0  0
 21 44  1  0  0  0  0
M  END
> <s_m_source_file>
AV-unprocessed.smi

> <i_m_source_file_index>
1671

> <i_lp_mmshare_version>
43012

> <i_f3d_flags>
0

> <s_epik_input>
W0NIM11TW0NASF0oW0NIM10pQyg9TylbTkhdW0NIMl1jMVtjSF1bY0hdYyhuW2NIXTEpTjJbQ0gyXVtDSDJdT1tDQEBIXShbQ0gzXSlbQ0gyXTI=

> <s_epik_cmdline>
J2VwaWtfcHl0aG9uJywgJy1waCcsICc3LjAnLCAnLXRuJywgJzgnLCAnLW1hJywgJzIwMCcsICctbWV0YWxfYmluZGluZycsICctaW1hZScsICc8aW5maWxlLm1hZT4nLCAnLW9tYWUnLCAnPG91dGZpbGUubWFlPic=

> <r_lp_tautomer_probability>
1

> <r_epik_Ionization_Penalty>
0.00480033

> <r_epik_Ionization_Penalty_Charging>
0

> <r_epik_Ionization_Penalty_Neutral>
0.00480033

> <r_epik_State_Penalty>
0.00347981

> <r_epik_Charging_Adjusted_Penalty>
0.00347981

> <i_epik_Tot_Q>
0

> <i_epik_Tot_abs_Q>
0

> <r_epik_Metal_State_Penalty>
-0

> <b_epik_Metal_Only>
0

> <s_lp_Force_Field>
OPLS_2005

> <r_lp_Energy>
17.324

> <b_lp_Chiralities_Consistent>
1

> <s_lp_Variant>
AV-unprocessed.smi:1671-3

> <Gold.Version>
5.8.1

> <Gold.Id.Protein>
6NUR|6NUR_protein|mol2

> <Gold.PLP.Fitness>
40.7653

> <Gold.PLP.PLP>
-36.9076

> <Gold.PLP.part.hbond>
-3.5230

> <Gold.PLP.part.metal>
0.0000

> <Gold.PLP.part.buried>
-0.4962

> <Gold.PLP.part.nonpolar>
-32.9366

> <Gold.PLP.part.repulsive>
0.1551

> <Gold.PLP.ligand.clash>
0.0000

> <Gold.PLP.ligand.torsion>
0.5768

> <Gold.PLP.Chemscore.Hbond>
1.5382

> <Gold.PLP.Chemscore.CHOScore>
0.0000

> <Gold.PLP.Chemscore.Metal>
0.0000

> <Gold.Chemscore.Hbonds>
donor molecule, donor type, donor heavy atom, donor atom, acceptor molecule, acceptor atom, score
      L1  H     7    29       P1  7948  0.43
      P1  H 10752 10765       L1     6  1.00

> <Gold.PLP.Chemscore.Internal.Correction>
0.3968

> <Gold.Rescore>
     Score         DG    S(hbond)    S(metal)    S(lipo)     H(rot)  DE(clash)    DE(int)     intcor
     14.26     -16.15       1.00        0.00      98.39       1.63       0.08       1.81       ----

> <Gold.Chemscore.Fitness>
14.2626

> <Gold.Chemscore.DG>
-16.1550

> <Gold.Chemscore.ZeroCoef>
-5.4800

> <Gold.Chemscore.Hbond>
0.9969

> <Gold.Chemscore.Metal>
0.0000

> <Gold.Chemscore.Lipo>
98.3855

> <Gold.Chemscore.Internal_Hbond>
0.0000

> <Gold.Chemscore.DEClash>
0.0847

> <Gold.Chemscore.DEInternal>
1.8077

> <Gold.Chemscore.Rot>
1.6272

> <Gold.Chemscore.Internal.Correction>
   9.000000E+99

> <Gold.Chemscore.Hbonds>
donor molecule, donor type, donor heavy atom, donor atom, acceptor molecule, acceptor atom, score
      L1  H     7    29       P1  7948  0.31
      P1  H 10752 10765       L1     6  0.49

> <Gold.Chemscore.Hbond.Weighted>
-3.3296

> <Gold.Chemscore.Metal.Weighted>
-0.0000

> <Gold.Chemscore.Lipo.Weighted>
-11.5111

> <Gold.Chemscore.Internal_Hbond.Weighted>
0.0000

> <Gold.Chemscore.DEClash.Weighted>
0.0847

> <Gold.Chemscore.DEInternal.Weighted>
1.8077

> <Gold.Chemscore.Rot.Weighted>
4.1657

> <Gold.Chemscore.Internal.Correction.Weighted>
   9.000000E+99

> <Gold.Protein.RotatedTorsions>
[ 6907 6896 6895 6894 ] final   50.81 input  -60.11 | X-H torsion
[ 7974 7965 7964 7962 ] final  144.93 input  175.53 | X-H torsion
[ 8008 7997 7996 7995 ] final  168.14 input   59.86 | X-H torsion
[ 10167 10162 10161 10158 ] final -174.78 input  -65.29 | X-H torsion
[ 10718 10713 10712 10709 ] final   39.37 input   66.30 | X-H torsion
[ 10763 10752 10751 10750 ] final -162.67 input  -60.55 | X-H torsion
[ 11005 11000 10999 10996 ] final  -42.65 input  -57.11 | X-H torsion

> <Gold.Protein.ActiveResidues>
 VAL166  LYS551  ARG553  GLY616  TRP617  ASP618  TYR619  PRO620  LYS621  CYS622 
 ASP623  PHE694  ASN695  SER759  ASP760  ASP761  ALA762  ILE779  LEU786  VAL792 
 PHE793  MET794  SER795  GLU796  ALA797  LYS798  CYS799  TRP800  GLU811  SER814 

> <Gold.Protein.RotatedAtoms>
  152.3059  134.7556  160.0347 H   0  0  0  0  0  0  0  0  0  0  0  0  # atno 6907 bound_to 6896
  151.8053  133.3369  159.3547 H   0  0  0  0  0  0  0  0  0  0  0  0  # atno 6908 bound_to 6896
  150.7296  134.5645  159.5903 H   0  0  0  0  0  0  0  0  0  0  0  0  # atno 6909 bound_to 6896
  144.8794  139.5722  143.5850 H   0  0  0  0  0  0  0  0  0  0  0  0  # atno 7974 bound_to 7965
  156.1573  140.1598  156.8672 H   0  0  0  0  0  0  0  0  0  0  0  0  # atno 8008 bound_to 7997
  154.5126  140.0797  156.8056 H   0  0  0  0  0  0  0  0  0  0  0  0  # atno 8009 bound_to 7997
  155.3779  140.3403  155.4248 H   0  0  0  0  0  0  0  0  0  0  0  0  # atno 8010 bound_to 7997
  139.5616  144.1857  152.1247 H   0  0  0  0  0  0  0  0  0  0  0  0  # atno 10167 bound_to 10162
  157.3698  130.7695  149.7110 H   0  0  0  0  0  0  0  0  0  0  0  0  # atno 10718 bound_to 10713
  154.7193  135.3022  154.9072 H   0  0  0  0  0  0  0  0  0  0  0  0  # atno 10763 bound_to 10752
  153.9949  135.6714  153.4760 H   0  0  0  0  0  0  0  0  0  0  0  0  # atno 10764 bound_to 10752
  153.0820  135.5004  154.8439 H   0  0  0  0  0  0  0  0  0  0  0  0  # atno 10765 bound_to 10752
  141.0330  133.6812  156.2625 H   0  0  0  0  0  0  0  0  0  0  0  0  # atno 11005 bound_to 11000
  146.2984  139.7351  142.9109 LP  0  0  0  0  0  0  0  0  0  0  0  0  # atno 17320 bound_to 7965
  145.3982  141.0381  143.3085 LP  0  0  0  0  0  0  0  0  0  0  0  0  # atno 17321 bound_to 7965
  140.1372  144.5235  150.6766 LP  0  0  0  0  0  0  0  0  0  0  0  0  # atno 17342 bound_to 10162
  140.6896  143.2368  151.5168 LP  0  0  0  0  0  0  0  0  0  0  0  0  # atno 17343 bound_to 10162
  155.9753  130.4090  150.3858 LP  0  0  0  0  0  0  0  0  0  0  0  0  # atno 17370 bound_to 10713
  157.1947  131.0423  151.2682 LP  0  0  0  0  0  0  0  0  0  0  0  0  # atno 17371 bound_to 10713
  140.6372  134.5203  157.5566 LP  0  0  0  0  0  0  0  0  0  0  0  0  # atno 17394 bound_to 11000
  139.9221  134.8128  156.1179 LP  0  0  0  0  0  0  0  0  0  0  0  0  # atno 17395 bound_to 11000

$$$$
