AV-unprocessed.smi:3|AV-procd|sdf|32|dock3
  -GOLD-   2262015143D 1   1.00000     0.00000
 Structure written by MMmdl.
 33 35  0  0  0  0  0  0  0  0  1 V2000
  152.5517  138.8750  156.8851 C   0  0  0  0  0  0  0  0  0  0  0  0
  152.1602  140.0698  157.6186 N   0  0  0  0  0  0  0  0  0  0  0  0
  150.7875  140.5549  157.5017 C   0  0  0  0  0  0  0  0  0  0  0  0
  150.3981  140.8324  156.0512 C   0  0  1  0  0  0  0  0  0  0  0  0
  150.1426  139.6631  155.0880 C   0  0  0  0  0  0  0  0  0  0  0  0
  148.9751  140.4442  154.4786 C   0  0  2  0  0  0  0  0  0  0  0  0
  149.2108  141.0938  153.2481 O   0  0  0  0  0  0  0  0  0  0  0  0
  148.9764  141.3179  155.7370 C   0  0  0  0  0  0  0  0  0  0  0  0
  152.9191  140.5062  158.7248 C   0  0  0  0  0  0  0  0  0  0  0  0
  154.0166  139.7756  159.0462 N   0  0  0  0  0  0  0  0  0  0  0  0
  154.7602  140.1804  160.1061 C   0  0  0  0  0  0  0  0  0  0  0  0
  154.5528  141.2528  160.9080 N   0  0  0  0  0  0  0  0  0  0  0  0
  153.4603  142.0110  160.5974 C   0  0  0  0  0  0  0  0  0  0  0  0
  153.0420  143.1177  161.2027 N   0  0  0  0  0  0  0  0  0  0  0  0
  151.9496  143.5220  160.5341 C   0  0  0  0  0  0  0  0  0  0  0  0
  151.6055  142.6591  159.4248 C   0  0  0  0  0  0  0  0  0  0  0  0
  152.6240  141.6585  159.5088 C   0  0  0  0  0  0  0  0  0  0  0  0
  151.0998  141.5245  155.5818 H   0  0  0  0  0  0  0  0  0  0  0  0
  148.0697  139.8419  154.3977 H   0  0  0  0  0  0  0  0  0  0  0  0
  153.6336  138.7400  156.8932 H   0  0  0  0  0  0  0  0  0  0  0  0
  152.2391  138.9570  155.8438 H   0  0  0  0  0  0  0  0  0  0  0  0
  152.0781  137.9888  157.3070 H   0  0  0  0  0  0  0  0  0  0  0  0
  150.0885  139.8543  157.9591 H   0  0  0  0  0  0  0  0  0  0  0  0
  150.7019  141.4712  158.0863 H   0  0  0  0  0  0  0  0  0  0  0  0
  150.9692  139.4616  154.4056 H   0  0  0  0  0  0  0  0  0  0  0  0
  149.8171  138.7542  155.5965 H   0  0  0  0  0  0  0  0  0  0  0  0
  149.1676  140.4331  152.5738 H   0  0  0  0  0  0  0  0  0  0  0  0
  148.2411  140.9894  156.4731 H   0  0  0  0  0  0  0  0  0  0  0  0
  148.9016  142.3898  155.5511 H   0  0  0  0  0  0  0  0  0  0  0  0
  155.6241  139.5750  160.3372 H   0  0  0  0  0  0  0  0  0  0  0  0
  151.4129  144.4162  160.8258 H   0  0  0  0  0  0  0  0  0  0  0  0
  150.7882  142.7641  158.7239 H   0  0  0  0  0  0  0  0  0  0  0  0
  155.1951  141.4398  161.6646 H   0  0  0  0  0  0  0  0  0  0  0  0
  1  2  1  0  0  0  0
  1 20  1  0  0  0  0
  1 21  1  0  0  0  0
  1 22  1  0  0  0  0
  2  3  1  0  0  0  0
  2  9  1  0  0  0  0
  3  4  1  0  0  0  0
  3 23  1  0  0  0  0
  3 24  1  0  0  0  0
  4 18  1  0  0  0  0
  4  8  1  0  0  0  0
  4  5  1  0  0  0  0
  5  6  1  0  0  0  0
  5 25  1  0  0  0  0
  5 26  1  0  0  0  0
  6 19  1  0  0  0  0
  6  7  1  0  0  0  0
  6  8  1  0  0  0  0
  7 27  1  0  0  0  0
  8 28  1  0  0  0  0
  8 29  1  0  0  0  0
  9 17  2  0  0  0  0
  9 10  1  0  0  0  0
 10 11  2  0  0  0  0
 11 12  1  0  0  0  0
 11 30  1  0  0  0  0
 12 13  1  0  0  0  0
 12 33  1  0  0  0  0
 13 17  1  0  0  0  0
 13 14  2  0  0  0  0
 14 15  1  0  0  0  0
 15 16  2  0  0  0  0
 15 31  1  0  0  0  0
 16 17  1  0  0  0  0
 16 32  1  0  0  0  0
M  END
> <s_m_source_file>
AV-unprocessed.smi

> <i_m_source_file_index>
3

> <i_lp_mmshare_version>
43012

> <i_f3d_flags>
0

> <s_epik_input>
W25IXTFbY0hdW2NIXWMoYzEyKWMobltjSF1uMilOKFtDSDNdKVtDSDJdW0NASF0zW0NIMl1bQ0BASF0oW09IXSlbQ0gyXTM=

> <s_epik_cmdline>
J2VwaWtfcHl0aG9uJywgJy1waCcsICc3LjAnLCAnLXRuJywgJzgnLCAnLW1hJywgJzIwMCcsICctbWV0YWxfYmluZGluZycsICctaW1hZScsICc8aW5maWxlLm1hZT4nLCAnLW9tYWUnLCAnPG91dGZpbGUubWFlPic=

> <r_lp_tautomer_probability>
1.75997e-05

> <r_epik_Ionization_Penalty>
5.52529

> <r_epik_Ionization_Penalty_Charging>
0

> <r_epik_Ionization_Penalty_Neutral>
5.52529

> <r_epik_State_Penalty>
8.99615

> <r_epik_Charging_Adjusted_Penalty>
8.99615

> <i_epik_Tot_Q>
0

> <i_epik_Tot_abs_Q>
0

> <r_epik_Metal_State_Penalty>
6.01519

> <b_epik_Metal_Only>
1

> <s_lp_Force_Field>
OPLS_2005

> <r_lp_Energy>
26.4435

> <b_lp_Chiralities_Consistent>
1

> <s_lp_Variant>
AV-unprocessed.smi:3-6

> <Gold.Version>
5.8.1

> <Gold.Id.Protein>
6NUR|6NUR_protein|mol2

> <Gold.PLP.Fitness>
42.1800

> <Gold.PLP.PLP>
-33.6928

> <Gold.PLP.part.hbond>
-4.2351

> <Gold.PLP.part.metal>
0.0000

> <Gold.PLP.part.buried>
-3.1834

> <Gold.PLP.part.nonpolar>
-27.0283

> <Gold.PLP.part.repulsive>
0.0693

> <Gold.PLP.ligand.clash>
1.1392

> <Gold.PLP.ligand.torsion>
0.2878

> <Gold.PLP.Chemscore.Hbond>
2.8901

> <Gold.PLP.Chemscore.CHOScore>
0.0000

> <Gold.PLP.Chemscore.Metal>
0.0000

> <Gold.Chemscore.Hbonds>
donor molecule, donor type, donor heavy atom, donor atom, acceptor molecule, acceptor atom, score
      L1  H     7    27       P1  7957  0.89
      P1  H  7989  7998       L1     7  0.01
      P1  H  7997  8008       L1    10  0.96
      P1  H  8011  8017       L1     7  1.00

> <Gold.PLP.Chemscore.Internal.Correction>
1.5319

> <Gold.Rescore>
     Score         DG    S(hbond)    S(metal)    S(lipo)     H(rot)  DE(clash)    DE(int)     intcor
     11.62     -13.29       1.50        0.00      64.13       1.84       0.14       1.52       ----

> <Gold.Chemscore.Fitness>
11.6218

> <Gold.Chemscore.DG>
-13.2891

> <Gold.Chemscore.ZeroCoef>
-5.4800

> <Gold.Chemscore.Hbond>
1.5015

> <Gold.Chemscore.Metal>
0.0000

> <Gold.Chemscore.Lipo>
64.1324

> <Gold.Chemscore.Internal_Hbond>
0.0000

> <Gold.Chemscore.DEClash>
0.1445

> <Gold.Chemscore.DEInternal>
1.5228

> <Gold.Chemscore.Rot>
1.8396

> <Gold.Chemscore.Internal.Correction>
   9.000000E+99

> <Gold.Chemscore.Hbonds>
donor molecule, donor type, donor heavy atom, donor atom, acceptor molecule, acceptor atom, score
      L1  H     7    27       P1  7957  0.81
      P1  H  7997  8008       L1    10  0.15
      P1  H  8011  8017       L1     7  0.25

> <Gold.Chemscore.Hbond.Weighted>
-5.0150

> <Gold.Chemscore.Metal.Weighted>
-0.0000

> <Gold.Chemscore.Lipo.Weighted>
-7.5035

> <Gold.Chemscore.Internal_Hbond.Weighted>
0.0000

> <Gold.Chemscore.DEClash.Weighted>
0.1445

> <Gold.Chemscore.DEInternal.Weighted>
1.5228

> <Gold.Chemscore.Rot.Weighted>
4.7095

> <Gold.Chemscore.Internal.Correction.Weighted>
   9.000000E+99

> <Gold.Protein.RotatedTorsions>
[ 6907 6896 6895 6894 ] final    4.94 input  -60.11 | X-H torsion
[ 7974 7965 7964 7962 ] final   43.90 input  175.53 | X-H torsion
[ 8008 7997 7996 7995 ] final -121.94 input   59.86 | X-H torsion
[ 10167 10162 10161 10158 ] final -170.42 input  -65.29 | X-H torsion
[ 10718 10713 10712 10709 ] final   -1.07 input   66.30 | X-H torsion
[ 10763 10752 10751 10750 ] final  140.03 input  -60.55 | X-H torsion
[ 11005 11000 10999 10996 ] final -112.59 input  -57.11 | X-H torsion

> <Gold.Protein.ActiveResidues>
 VAL166  LYS551  ARG553  GLY616  TRP617  ASP618  TYR619  PRO620  LYS621  CYS622 
 ASP623  PHE694  ASN695  SER759  ASP760  ASP761  ALA762  ILE779  LEU786  VAL792 
 PHE793  MET794  SER795  GLU796  ALA797  LYS798  CYS799  TRP800  GLU811  SER814 

> <Gold.Protein.RotatedAtoms>
  151.6494  135.1003  160.0157 H   0  0  0  0  0  0  0  0  0  0  0  0  # atno 6907 bound_to 6896
  152.4009  133.6812  159.6324 H   0  0  0  0  0  0  0  0  0  0  0  0  # atno 6908 bound_to 6896
  150.7909  133.8709  159.3299 H   0  0  0  0  0  0  0  0  0  0  0  0  # atno 6909 bound_to 6896
  146.0615  139.5134  142.9655 H   0  0  0  0  0  0  0  0  0  0  0  0  # atno 7974 bound_to 7965
  155.1561  140.0405  157.2832 H   0  0  0  0  0  0  0  0  0  0  0  0  # atno 8008 bound_to 7997
  154.6369  140.2537  155.7340 H   0  0  0  0  0  0  0  0  0  0  0  0  # atno 8009 bound_to 7997
  156.2513  140.2863  156.0746 H   0  0  0  0  0  0  0  0  0  0  0  0  # atno 8010 bound_to 7997
  139.5863  144.1311  152.1579 H   0  0  0  0  0  0  0  0  0  0  0  0  # atno 10167 bound_to 10162
  156.8111  130.5425  149.5709 H   0  0  0  0  0  0  0  0  0  0  0  0  # atno 10718 bound_to 10713
  153.9160  135.3006  155.3448 H   0  0  0  0  0  0  0  0  0  0  0  0  # atno 10763 bound_to 10752
  154.7599  135.4939  153.9448 H   0  0  0  0  0  0  0  0  0  0  0  0  # atno 10764 bound_to 10752
  153.1167  135.6772  153.9508 H   0  0  0  0  0  0  0  0  0  0  0  0  # atno 10765 bound_to 10752
  141.0666  133.9449  157.2567 H   0  0  0  0  0  0  0  0  0  0  0  0  # atno 11005 bound_to 11000
  145.6552  141.0254  143.1739 LP  0  0  0  0  0  0  0  0  0  0  0  0  # atno 17320 bound_to 7965
  144.7178  139.8136  143.7393 LP  0  0  0  0  0  0  0  0  0  0  0  0  # atno 17321 bound_to 7965
  140.0875  144.5648  150.7078 LP  0  0  0  0  0  0  0  0  0  0  0  0  # atno 17342 bound_to 10162
  140.7134  143.2524  151.4510 LP  0  0  0  0  0  0  0  0  0  0  0  0  # atno 17343 bound_to 10162
  156.1044  130.5993  150.9947 LP  0  0  0  0  0  0  0  0  0  0  0  0  # atno 17370 bound_to 10713
  157.6505  131.0897  150.8060 LP  0  0  0  0  0  0  0  0  0  0  0  0  # atno 17371 bound_to 10713
  139.9482  135.0180  156.8916 LP  0  0  0  0  0  0  0  0  0  0  0  0  # atno 17394 bound_to 11000
  140.5761  134.0397  155.7447 LP  0  0  0  0  0  0  0  0  0  0  0  0  # atno 17395 bound_to 11000

$$$$
