AV-unprocessed.smi:240|AV-procd|sdf|1830|dock2
  -GOLD-   2262020433D 1   1.00000     0.00000
 Structure written by MMmdl.
 55 59  0  0  0  0  0  0  0  0  1 V2000
  149.3475  143.3425  158.1695 O   0  0  0  0  0  0  0  0  0  0  0  0
  150.3949  142.4903  158.5956 C   0  0  2  0  0  0  0  0  0  0  0  0
  151.5813  143.3576  159.0292 C   0  0  0  0  0  0  0  0  0  0  0  0
  152.4304  143.5735  157.7712 C   0  0  0  0  0  0  0  0  0  0  0  0
  151.8379  142.6584  156.6927 C   0  0  0  0  0  0  0  0  0  0  0  0
  150.9427  141.6418  157.4263 C   0  0  2  0  0  0  0  0  0  0  0  0
  149.9071  140.8918  156.5206 C   0  0  1  0  0  0  0  0  0  0  0  0
  149.7776  141.5990  155.1450 C   0  0  0  0  0  0  0  0  0  0  0  0
  148.8739  140.9103  154.2899 O   0  0  0  0  0  0  0  0  0  0  0  0
  149.3214  139.5947  154.0042 C   0  0  0  0  0  0  0  0  0  0  0  0
  149.3780  138.8090  155.3175 C   0  0  0  0  0  0  0  0  0  0  0  0
  150.2515  139.4797  156.2765 N   0  0  0  0  0  0  0  0  0  0  0  0
  150.4428  138.6920  157.3564 C   0  0  0  0  0  0  0  0  0  0  0  0
  151.7103  138.5835  157.8245 N   0  0  0  0  0  0  0  0  0  0  0  0
  151.9622  137.8268  158.8968 C   0  0  0  0  0  0  0  0  0  0  0  0
  151.1098  137.1089  159.6316 N   0  0  0  0  0  0  0  0  0  0  0  0
  149.8364  137.2041  159.1518 C   0  0  0  0  0  0  0  0  0  0  0  0
  149.4176  137.9641  158.0242 C   0  0  0  0  0  0  0  0  0  0  0  0
  148.0482  137.8219  157.8369 N   0  0  0  0  0  0  0  0  0  0  0  0
  147.6774  137.0264  158.8029 C   0  0  0  0  0  0  0  0  0  0  0  0
  148.6875  136.6053  159.6386 N   0  0  0  0  0  0  0  0  0  0  0  0
  148.5513  135.7275  160.7910 C   0  0  0  0  0  0  0  0  0  0  0  0
  147.8158  136.3826  161.9829 C   0  0  1  0  0  0  0  0  0  0  0  0
  148.6974  137.2842  162.6306 O   0  0  0  0  0  0  0  0  0  0  0  0
  146.5462  137.1360  161.5966 C   0  0  0  0  0  0  0  0  0  0  0  0
  145.6606  136.9604  162.8221 C   0  0  0  0  0  0  0  0  0  0  0  0
  145.9238  135.6215  163.2044 O   0  0  0  0  0  0  0  0  0  0  0  0
  147.3126  135.3629  163.0244 C   0  0  0  0  0  0  0  0  0  0  0  0
  149.2803  143.2900  157.2279 H   0  0  0  0  0  0  0  0  0  0  0  0
  150.0450  141.8904  159.4336 H   0  0  0  0  0  0  0  0  0  0  0  0
  151.2743  144.2954  159.4945 H   0  0  0  0  0  0  0  0  0  0  0  0
  152.1719  142.8140  159.7679 H   0  0  0  0  0  0  0  0  0  0  0  0
  152.4052  144.6147  157.4478 H   0  0  0  0  0  0  0  0  0  0  0  0
  153.4720  143.3182  157.9699 H   0  0  0  0  0  0  0  0  0  0  0  0
  151.2344  143.2583  156.0100 H   0  0  0  0  0  0  0  0  0  0  0  0
  152.6194  142.1772  156.1036 H   0  0  0  0  0  0  0  0  0  0  0  0
  151.6120  140.8914  157.8514 H   0  0  0  0  0  0  0  0  0  0  0  0
  148.9253  140.9274  156.9933 H   0  0  0  0  0  0  0  0  0  0  0  0
  149.3899  142.6106  155.2611 H   0  0  0  0  0  0  0  0  0  0  0  0
  150.7509  141.6866  154.6587 H   0  0  0  0  0  0  0  0  0  0  0  0
  148.6245  139.1229  153.3115 H   0  0  0  0  0  0  0  0  0  0  0  0
  150.2965  139.6183  153.5148 H   0  0  0  0  0  0  0  0  0  0  0  0
  148.3723  138.7184  155.7295 H   0  0  0  0  0  0  0  0  0  0  0  0
  149.7392  137.7977  155.1242 H   0  0  0  0  0  0  0  0  0  0  0  0
  152.9946  137.7932  159.2126 H   0  0  0  0  0  0  0  0  0  0  0  0
  146.6492  136.7208  158.9329 H   0  0  0  0  0  0  0  0  0  0  0  0
  148.0246  134.8263  160.4741 H   0  0  0  0  0  0  0  0  0  0  0  0
  149.5485  135.4062  161.0950 H   0  0  0  0  0  0  0  0  0  0  0  0
  149.0874  136.8425  163.3696 H   0  0  0  0  0  0  0  0  0  0  0  0
  146.7149  138.1804  161.3303 H   0  0  0  0  0  0  0  0  0  0  0  0
  146.0628  136.6505  160.7482 H   0  0  0  0  0  0  0  0  0  0  0  0
  145.9564  137.6394  163.6233 H   0  0  0  0  0  0  0  0  0  0  0  0
  144.6034  137.1166  162.6061 H   0  0  0  0  0  0  0  0  0  0  0  0
  147.4401  134.3325  162.6909 H   0  0  0  0  0  0  0  0  0  0  0  0
  147.8298  135.4615  163.9802 H   0  0  0  0  0  0  0  0  0  0  0  0
  1  2  1  0  0  0  0
  1 29  1  0  0  0  0
  2  6  1  0  0  0  0
  2  3  1  0  0  0  0
  2 30  1  0  0  0  0
  3  4  1  0  0  0  0
  3 31  1  0  0  0  0
  3 32  1  0  0  0  0
  4  5  1  0  0  0  0
  4 33  1  0  0  0  0
  4 34  1  0  0  0  0
  5  6  1  0  0  0  0
  5 35  1  0  0  0  0
  5 36  1  0  0  0  0
  6  7  1  0  0  0  0
  6 37  1  0  0  0  0
  7 12  1  0  0  0  0
  7  8  1  0  0  0  0
  7 38  1  0  0  0  0
  8  9  1  0  0  0  0
  8 39  1  0  0  0  0
  8 40  1  0  0  0  0
  9 10  1  0  0  0  0
 10 11  1  0  0  0  0
 10 41  1  0  0  0  0
 10 42  1  0  0  0  0
 11 12  1  0  0  0  0
 11 43  1  0  0  0  0
 11 44  1  0  0  0  0
 12 13  1  0  0  0  0
 13 18  1  0  0  0  0
 13 14  2  0  0  0  0
 14 15  1  0  0  0  0
 15 16  2  0  0  0  0
 15 45  1  0  0  0  0
 16 17  1  0  0  0  0
 17 21  1  0  0  0  0
 17 18  2  0  0  0  0
 18 19  1  0  0  0  0
 19 20  2  0  0  0  0
 20 21  1  0  0  0  0
 20 46  1  0  0  0  0
 21 22  1  0  0  0  0
 22 23  1  0  0  0  0
 22 47  1  0  0  0  0
 22 48  1  0  0  0  0
 23 28  1  0  0  0  0
 23 24  1  0  0  0  0
 23 25  1  0  0  0  0
 24 49  1  0  0  0  0
 25 26  1  0  0  0  0
 25 50  1  0  0  0  0
 25 51  1  0  0  0  0
 26 27  1  0  0  0  0
 26 52  1  0  0  0  0
 26 53  1  0  0  0  0
 27 28  1  0  0  0  0
 28 54  1  0  0  0  0
 28 55  1  0  0  0  0
M  END
> <s_m_source_file>
AV-unprocessed.smi

> <i_m_source_file_index>
240

> <i_lp_mmshare_version>
43012

> <i_f3d_flags>
0

> <s_epik_input>
W09IXVtDQEBIXTFbQ0gyXVtDSDJdW0NIMl1bQ0BIXTFbQ0BASF0yW0NIMl1PW0NIMl1bQ0gyXU4yYyhuW2NIXW4zKWMoYzM0KW5bY0hdbjRbQ0gyXVtDQEBdNShbT0hdKVtDSDJdW0NIMl1PW0NIMl01

> <s_epik_cmdline>
J2VwaWtfcHl0aG9uJywgJy1waCcsICc3LjAnLCAnLXRuJywgJzgnLCAnLW1hJywgJzIwMCcsICctbWV0YWxfYmluZGluZycsICctaW1hZScsICc8aW5maWxlLm1hZT4nLCAnLW9tYWUnLCAnPG91dGZpbGUubWFlPic=

> <r_lp_tautomer_probability>
1

> <r_epik_Ionization_Penalty>
0.000130618

> <r_epik_Ionization_Penalty_Charging>
0

> <r_epik_Ionization_Penalty_Neutral>
0.000130618

> <r_epik_State_Penalty>
-0

> <r_epik_Charging_Adjusted_Penalty>
0

> <i_epik_Tot_Q>
0

> <i_epik_Tot_abs_Q>
0

> <r_epik_Metal_State_Penalty>
-0

> <b_epik_Metal_Only>
0

> <s_lp_Force_Field>
OPLS_2005

> <r_lp_Energy>
63.9037

> <b_lp_Chiralities_Consistent>
1

> <s_lp_Variant>
AV-unprocessed.smi:240-7

> <Gold.Version>
5.8.1

> <Gold.Id.Protein>
6NUR|6NUR_protein|mol2

> <Gold.PLP.Fitness>
43.2079

> <Gold.PLP.PLP>
-40.3839

> <Gold.PLP.part.hbond>
-4.4064

> <Gold.PLP.part.metal>
0.0000

> <Gold.PLP.part.buried>
-4.4475

> <Gold.PLP.part.nonpolar>
-31.8691

> <Gold.PLP.part.repulsive>
0.2076

> <Gold.PLP.ligand.clash>
0.0000

> <Gold.PLP.ligand.torsion>
2.1796

> <Gold.PLP.Chemscore.Hbond>
2.2452

> <Gold.PLP.Chemscore.CHOScore>
0.0000

> <Gold.PLP.Chemscore.Metal>
0.0000

> <Gold.Chemscore.Hbonds>
donor molecule, donor type, donor heavy atom, donor atom, acceptor molecule, acceptor atom, score
      L1  H     1    29       P1  8028  0.47
      P1  H  6896  6907       L1    16  1.00
      P1  H  6931  6943       L1    24  0.19

> <Gold.PLP.Chemscore.Internal.Correction>
0.4476

> <Gold.Rescore>
     Score         DG    S(hbond)    S(metal)    S(lipo)     H(rot)  DE(clash)    DE(int)     intcor
     10.45     -15.86       1.95        0.00      98.68       3.00       2.17       3.24       ----

> <Gold.Chemscore.Fitness>
10.4512

> <Gold.Chemscore.DG>
-15.8616

> <Gold.Chemscore.ZeroCoef>
-5.4800

> <Gold.Chemscore.Hbond>
1.9540

> <Gold.Chemscore.Metal>
0.0000

> <Gold.Chemscore.Lipo>
98.6776

> <Gold.Chemscore.Internal_Hbond>
0.0000

> <Gold.Chemscore.DEClash>
2.1675

> <Gold.Chemscore.DEInternal>
3.2429

> <Gold.Chemscore.Rot>
3.0039

> <Gold.Chemscore.Internal.Correction>
   9.000000E+99

> <Gold.Chemscore.Hbonds>
donor molecule, donor type, donor heavy atom, donor atom, acceptor molecule, acceptor atom, score
      L1  H     1    29       P1  8028  0.38
      P1  H  6896  6907       L1    16  0.48
      P1  H  6931  6943       L1    24  0.18

> <Gold.Chemscore.Hbond.Weighted>
-6.5263

> <Gold.Chemscore.Metal.Weighted>
-0.0000

> <Gold.Chemscore.Lipo.Weighted>
-11.5453

> <Gold.Chemscore.Internal_Hbond.Weighted>
0.0000

> <Gold.Chemscore.DEClash.Weighted>
2.1675

> <Gold.Chemscore.DEInternal.Weighted>
3.2429

> <Gold.Chemscore.Rot.Weighted>
7.6899

> <Gold.Chemscore.Internal.Correction.Weighted>
   9.000000E+99

> <Gold.Protein.RotatedTorsions>
[ 6907 6896 6895 6894 ] final  -10.81 input  -60.11 | X-H torsion
[ 7974 7965 7964 7962 ] final  147.19 input  175.53 | X-H torsion
[ 8008 7997 7996 7995 ] final -160.44 input   59.86 | X-H torsion
[ 10167 10162 10161 10158 ] final -153.54 input  -65.29 | X-H torsion
[ 10718 10713 10712 10709 ] final  -60.44 input   66.30 | X-H torsion
[ 10763 10752 10751 10750 ] final   74.55 input  -60.55 | X-H torsion
[ 11005 11000 10999 10996 ] final  157.63 input  -57.11 | X-H torsion

> <Gold.Protein.ActiveResidues>
 VAL166  LYS551  ARG553  GLY616  TRP617  ASP618  TYR619  PRO620  LYS621  CYS622 
 ASP623  PHE694  ASN695  SER759  ASP760  ASP761  ALA762  ILE779  LEU786  VAL792 
 PHE793  MET794  SER795  GLU796  ALA797  LYS798  CYS799  TRP800  GLU811  SER814 

> <Gold.Protein.RotatedAtoms>
  151.3961  135.0964  159.9541 H   0  0  0  0  0  0  0  0  0  0  0  0  # atno 6907 bound_to 6896
  152.5065  133.8933  159.7415 H   0  0  0  0  0  0  0  0  0  0  0  0  # atno 6908 bound_to 6896
  150.9397  133.6615  159.2822 H   0  0  0  0  0  0  0  0  0  0  0  0  # atno 6909 bound_to 6896
  144.8611  139.5998  143.5930 H   0  0  0  0  0  0  0  0  0  0  0  0  # atno 7974 bound_to 7965
  155.7774  140.0860  157.2077 H   0  0  0  0  0  0  0  0  0  0  0  0  # atno 8008 bound_to 7997
  154.3992  140.1514  156.3070 H   0  0  0  0  0  0  0  0  0  0  0  0  # atno 8009 bound_to 7997
  155.8687  140.3426  155.5809 H   0  0  0  0  0  0  0  0  0  0  0  0  # atno 8010 bound_to 7997
  139.7088  143.9142  152.2459 H   0  0  0  0  0  0  0  0  0  0  0  0  # atno 10167 bound_to 10162
  156.0990  130.4189  150.0854 H   0  0  0  0  0  0  0  0  0  0  0  0  # atno 10718 bound_to 10713
  153.0594  135.5021  154.8059 H   0  0  0  0  0  0  0  0  0  0  0  0  # atno 10763 bound_to 10752
  154.6859  135.2976  154.9550 H   0  0  0  0  0  0  0  0  0  0  0  0  # atno 10764 bound_to 10752
  154.0321  135.6728  153.4834 H   0  0  0  0  0  0  0  0  0  0  0  0  # atno 10765 bound_to 10752
  140.1788  134.8491  157.2778 H   0  0  0  0  0  0  0  0  0  0  0  0  # atno 11005 bound_to 11000
  146.2861  139.7008  142.9194 LP  0  0  0  0  0  0  0  0  0  0  0  0  # atno 17320 bound_to 7965
  145.4311  141.0415  143.2910 LP  0  0  0  0  0  0  0  0  0  0  0  0  # atno 17321 bound_to 7965
  139.9006  144.6914  150.8670 LP  0  0  0  0  0  0  0  0  0  0  0  0  # atno 17342 bound_to 10162
  140.7728  143.3517  151.2001 LP  0  0  0  0  0  0  0  0  0  0  0  0  # atno 17343 bound_to 10162
  156.8846  130.9568  151.3595 LP  0  0  0  0  0  0  0  0  0  0  0  0  # atno 17370 bound_to 10713
  157.6157  130.8616  149.9024 LP  0  0  0  0  0  0  0  0  0  0  0  0  # atno 17371 bound_to 10713
  140.2292  134.3930  155.7530 LP  0  0  0  0  0  0  0  0  0  0  0  0  # atno 17394 bound_to 11000
  141.2222  133.7206  156.8613 LP  0  0  0  0  0  0  0  0  0  0  0  0  # atno 17395 bound_to 11000

$$$$
