AV-unprocessed.smi:1513|AV-procd|sdf|6112|dock4
  -GOLD-   22720 6243D 1   1.00000     0.00000
 Structure written by MMmdl.
 32 33  0  0  0  0  0  0  0  0  3 V2000
  155.5718  137.3572  158.5718 N   0  5  0  0  0  0  0  0  0  0  0  0
  153.9854  137.1794  158.3326 S   0  0  0  0  0  0  0  0  0  0  0  0
  153.7113  136.6041  157.0051 O   0  0  0  0  0  0  0  0  0  0  0  0
  153.3649  136.4820  159.4707 O   0  0  0  0  0  0  0  0  0  0  0  0
  153.6762  138.7711  158.3672 N   0  5  0  0  0  0  0  0  0  0  0  0
  152.4555  139.2553  158.9915 C   0  0  0  0  0  0  0  0  0  0  0  0
  152.3277  140.7815  158.8702 C   0  0  0  0  0  0  0  0  0  0  0  0
  152.8885  141.5820  159.8946 C   0  0  0  0  0  0  0  0  0  0  0  0
  152.8047  142.9833  159.8107 C   0  0  0  0  0  0  0  0  0  0  0  0
  152.1586  143.5452  158.6981 C   0  0  0  0  0  0  0  0  0  0  0  0
  151.6147  142.8071  157.7112 N   0  0  0  0  0  0  0  0  0  0  0  0
  151.6848  141.4530  157.7785 C   0  0  0  0  0  0  0  0  0  0  0  0
  151.0586  140.7634  156.7172 N   0  0  0  0  0  0  0  0  0  0  0  0
  150.3969  141.6466  155.7649 C   0  0  0  0  0  0  0  0  0  0  0  0
  149.5579  140.8185  154.7764 C   0  0  0  0  0  0  0  0  0  0  0  0
  150.3835  139.8426  154.1449 O   0  0  0  0  0  0  0  0  0  0  0  0
  150.9549  138.9385  155.0870 C   0  0  0  0  0  0  0  0  0  0  0  0
  151.8425  139.7174  156.0724 C   0  0  0  0  0  0  0  0  0  0  0  0
  155.9031  138.1201  157.9699 H   0  0  0  0  0  0  0  0  0  0  0  0
  151.5700  138.7927  158.5534 H   0  0  0  0  0  0  0  0  0  0  0  0
  152.4090  139.0077  160.0526 H   0  0  0  0  0  0  0  0  0  0  0  0
  153.3862  141.1450  160.7500 H   0  0  0  0  0  0  0  0  0  0  0  0
  153.2265  143.6100  160.5821 H   0  0  0  0  0  0  0  0  0  0  0  0
  152.0748  144.6171  158.5975 H   0  0  0  0  0  0  0  0  0  0  0  0
  149.7586  142.3588  156.2888 H   0  0  0  0  0  0  0  0  0  0  0  0
  151.1484  142.2249  155.2261 H   0  0  0  0  0  0  0  0  0  0  0  0
  148.7263  140.3303  155.2863 H   0  0  0  0  0  0  0  0  0  0  0  0
  149.1264  141.4677  154.0149 H   0  0  0  0  0  0  0  0  0  0  0  0
  150.1657  138.4007  155.6154 H   0  0  0  0  0  0  0  0  0  0  0  0
  151.5466  138.1948  154.5533 H   0  0  0  0  0  0  0  0  0  0  0  0
  152.6845  140.1589  155.5379 H   0  0  0  0  0  0  0  0  0  0  0  0
  152.2501  139.0439  156.8272 H   0  0  0  0  0  0  0  0  0  0  0  0
  1  2  1  0  0  0  0
  1 19  1  0  0  0  0
  2  3  2  0  0  0  0
  2  4  2  0  0  0  0
  2  5  1  0  0  0  0
  5  6  1  0  0  0  0
  6  7  1  0  0  0  0
  6 20  1  0  0  0  0
  6 21  1  0  0  0  0
  7 12  1  0  0  0  0
  7  8  2  0  0  0  0
  8  9  1  0  0  0  0
  8 22  1  0  0  0  0
  9 10  2  0  0  0  0
  9 23  1  0  0  0  0
 10 11  1  0  0  0  0
 10 24  1  0  0  0  0
 11 12  2  0  0  0  0
 12 13  1  0  0  0  0
 13 18  1  0  0  0  0
 13 14  1  0  0  0  0
 14 15  1  0  0  0  0
 14 25  1  0  0  0  0
 14 26  1  0  0  0  0
 15 16  1  0  0  0  0
 15 27  1  0  0  0  0
 15 28  1  0  0  0  0
 16 17  1  0  0  0  0
 17 18  1  0  0  0  0
 17 29  1  0  0  0  0
 17 30  1  0  0  0  0
 18 31  1  0  0  0  0
 18 32  1  0  0  0  0
M  CHG  1   1  -1
M  CHG  1   5  -1
M  END
> <s_m_source_file>
AV-unprocessed.smi

> <i_m_source_file_index>
1513

> <i_lp_mmshare_version>
43012

> <i_f3d_flags>
0

> <s_epik_input>
W05IMl1TKD1PKSg9TylbTkhdW0NIMl1jMVtjSF1bY0hdW2NIXW5jMU4yW0NIMl1bQ0gyXU9bQ0gyXVtDSDJdMg==

> <s_epik_cmdline>
J2VwaWtfcHl0aG9uJywgJy1waCcsICc3LjAnLCAnLXRuJywgJzgnLCAnLW1hJywgJzIwMCcsICctbWV0YWxfYmluZGluZycsICctaW1hZScsICc8aW5maWxlLm1hZT4nLCAnLW9tYWUnLCAnPG91dGZpbGUubWFlPic=

> <r_lp_tautomer_probability>
1

> <r_epik_Ionization_Penalty>
9.15309

> <r_epik_Ionization_Penalty_Charging>
9.0542

> <r_epik_Ionization_Penalty_Neutral>
0.0988939

> <r_epik_State_Penalty>
4.65345

> <r_epik_Charging_Adjusted_Penalty>
13.7077

> <i_epik_Tot_Q>
-2

> <i_epik_Tot_abs_Q>
2

> <r_epik_Metal_State_Penalty>
1.24006

> <b_epik_Metal_Only>
1

> <s_lp_Force_Field>
OPLS_2005

> <r_lp_Energy>
26.0571

> <b_lp_Chiralities_Consistent>
1

> <s_lp_Variant>
AV-unprocessed.smi:1513-5

> <Gold.Version>
5.8.1

> <Gold.Id.Protein>
6NUR|6NUR_protein|mol2

> <Gold.PLP.Fitness>
47.1902

> <Gold.PLP.PLP>
-33.1978

> <Gold.PLP.part.hbond>
-4.0000

> <Gold.PLP.part.metal>
0.0000

> <Gold.PLP.part.buried>
-4.5495

> <Gold.PLP.part.nonpolar>
-25.1676

> <Gold.PLP.part.repulsive>
0.9269

> <Gold.PLP.ligand.clash>
0.0000

> <Gold.PLP.ligand.torsion>
1.0682

> <Gold.PLP.Chemscore.Hbond>
4.9760

> <Gold.PLP.Chemscore.CHOScore>
0.0000

> <Gold.PLP.Chemscore.Metal>
0.0000

> <Gold.Chemscore.Hbonds>
donor molecule, donor type, donor heavy atom, donor atom, acceptor molecule, acceptor atom, score
      P1  H  6896  6908       L1     4  0.99
      P1  H  7989  7998       L1    16  1.00
      P1  H  7997  8008       L1     5  1.92
      P1  H 10752 10763       L1     3  0.98

> <Gold.PLP.Chemscore.Internal.Correction>
1.2009

> <Gold.Rescore>
     Score         DG    S(hbond)    S(metal)    S(lipo)     H(rot)  DE(clash)    DE(int)     intcor
     17.60     -18.64       2.77        0.00      74.08       1.86       0.00       1.04       ----

> <Gold.Chemscore.Fitness>
17.6008

> <Gold.Chemscore.DG>
-18.6433

> <Gold.Chemscore.ZeroCoef>
-5.4800

> <Gold.Chemscore.Hbond>
2.7721

> <Gold.Chemscore.Metal>
0.0000

> <Gold.Chemscore.Lipo>
74.0823

> <Gold.Chemscore.Internal_Hbond>
0.0000

> <Gold.Chemscore.DEClash>
0.0015

> <Gold.Chemscore.DEInternal>
1.0411

> <Gold.Chemscore.Rot>
1.8606

> <Gold.Chemscore.Internal.Correction>
   9.000000E+99

> <Gold.Chemscore.Hbonds>
donor molecule, donor type, donor heavy atom, donor atom, acceptor molecule, acceptor atom, score
      P1  H  6896  6908       L1     4  0.90
      P1  H  7989  7998       L1    16  0.19
      P1  H  7997  8008       L1     5  0.85
      P1  H 10752 10763       L1     3  0.88

> <Gold.Chemscore.Hbond.Weighted>
-9.2588

> <Gold.Chemscore.Metal.Weighted>
-0.0000

> <Gold.Chemscore.Lipo.Weighted>
-8.6676

> <Gold.Chemscore.Internal_Hbond.Weighted>
0.0000

> <Gold.Chemscore.DEClash.Weighted>
0.0015

> <Gold.Chemscore.DEInternal.Weighted>
1.0411

> <Gold.Chemscore.Rot.Weighted>
4.7631

> <Gold.Chemscore.Internal.Correction.Weighted>
   9.000000E+99

> <Gold.Protein.RotatedTorsions>
[ 6907 6896 6895 6894 ] final  -93.24 input  -60.11 | X-H torsion
[ 7974 7965 7964 7962 ] final  121.19 input  175.53 | X-H torsion
[ 8008 7997 7996 7995 ] final  -87.48 input   59.86 | X-H torsion
[ 10167 10162 10161 10158 ] final  178.82 input  -65.29 | X-H torsion
[ 10718 10713 10712 10709 ] final  167.84 input   66.30 | X-H torsion
[ 10763 10752 10751 10750 ] final  132.15 input  -60.55 | X-H torsion
[ 11005 11000 10999 10996 ] final  -66.69 input  -57.11 | X-H torsion

> <Gold.Protein.ActiveResidues>
 VAL166  LYS551  ARG553  GLY616  TRP617  ASP618  TYR619  PRO620  LYS621  CYS622 
 ASP623  PHE694  ASN695  SER759  ASP760  ASP761  ALA762  ILE779  LEU786  VAL792 
 PHE793  MET794  SER795  GLU796  ALA797  LYS798  CYS799  TRP800  GLU811  SER814 

> <Gold.Protein.RotatedAtoms>
  150.6919  134.1998  159.4317 H   0  0  0  0  0  0  0  0  0  0  0  0  # atno 6907 bound_to 6896
  151.9965  134.9949  160.0573 H   0  0  0  0  0  0  0  0  0  0  0  0  # atno 6908 bound_to 6896
  152.1619  133.4552  159.4902 H   0  0  0  0  0  0  0  0  0  0  0  0  # atno 6909 bound_to 6896
  145.1222  139.3381  143.4708 H   0  0  0  0  0  0  0  0  0  0  0  0  # atno 7974 bound_to 7965
  154.6637  140.0565  157.0090 H   0  0  0  0  0  0  0  0  0  0  0  0  # atno 8008 bound_to 7997
  155.1190  140.3245  155.4483 H   0  0  0  0  0  0  0  0  0  0  0  0  # atno 8009 bound_to 7997
  156.2629  140.2001  156.6313 H   0  0  0  0  0  0  0  0  0  0  0  0  # atno 8010 bound_to 7997
  139.5310  144.2635  152.0688 H   0  0  0  0  0  0  0  0  0  0  0  0  # atno 10167 bound_to 10162
  157.0458  131.0299  151.2698 H   0  0  0  0  0  0  0  0  0  0  0  0  # atno 10718 bound_to 10713
  153.7860  135.3162  155.3372 H   0  0  0  0  0  0  0  0  0  0  0  0  # atno 10763 bound_to 10752
  154.8144  135.4646  154.0605 H   0  0  0  0  0  0  0  0  0  0  0  0  # atno 10764 bound_to 10752
  153.1908  135.6908  153.8440 H   0  0  0  0  0  0  0  0  0  0  0  0  # atno 10765 bound_to 10752
  141.1489  133.6704  156.6179 H   0  0  0  0  0  0  0  0  0  0  0  0  # atno 11005 bound_to 11000
  146.3520  140.1187  142.8601 LP  0  0  0  0  0  0  0  0  0  0  0  0  # atno 17320 bound_to 7965
  145.0727  140.9167  143.4872 LP  0  0  0  0  0  0  0  0  0  0  0  0  # atno 17321 bound_to 7965
  140.2098  144.4574  150.6391 LP  0  0  0  0  0  0  0  0  0  0  0  0  # atno 17342 bound_to 10162
  140.6488  143.2220  151.6125 LP  0  0  0  0  0  0  0  0  0  0  0  0  # atno 17343 bound_to 10162
  157.5069  130.7914  149.7663 LP  0  0  0  0  0  0  0  0  0  0  0  0  # atno 17370 bound_to 10713
  156.0023  130.3873  150.2558 LP  0  0  0  0  0  0  0  0  0  0  0  0  # atno 17371 bound_to 10713
  140.3564  134.7725  157.4503 LP  0  0  0  0  0  0  0  0  0  0  0  0  # atno 17394 bound_to 11000
  140.0820  134.5718  155.8531 LP  0  0  0  0  0  0  0  0  0  0  0  0  # atno 17395 bound_to 11000

$$$$
