AV-unprocessed.smi:1116|AV-procd|sdf|4808|dock1
  -GOLD-   22720 3353D 1   1.00000     0.00000
 Structure written by MMmdl.
 36 37  0  0  0  0  0  0  0  0  1 V2000
  152.1698  143.6523  161.8564 C   0  0  0  0  0  0  0  0  0  0  0  0
  151.7268  143.6284  160.4335 C   0  0  0  0  0  0  0  0  0  0  0  0
  151.4259  142.5084  159.7712 N   0  0  0  0  0  0  0  0  0  0  0  0
  151.0335  142.7518  158.4511 C   0  0  0  0  0  0  0  0  0  0  0  0
  150.6588  141.6081  157.5579 C   0  0  0  0  0  0  0  0  0  0  0  0
  150.8599  141.9395  156.0695 C   0  0  0  0  0  0  0  0  0  0  0  0
  149.5901  141.9847  155.3530 N   0  0  0  0  0  0  0  0  0  0  0  0
  149.2175  141.1307  154.3876 C   0  0  0  0  0  0  0  0  0  0  0  0
  149.9310  140.2080  153.9930 O   0  0  0  0  0  0  0  0  0  0  0  0
  147.8225  141.3528  153.7934 C   0  0  0  0  0  0  0  0  0  0  0  0
  146.9178  142.2390  154.6724 C   0  0  0  0  0  0  0  0  0  0  0  0
  146.1051  141.4355  155.7065 C   0  0  1  0  0  0  0  0  0  0  0  0
  146.8529  141.1561  156.9209 N   0  0  0  0  0  0  0  0  0  0  0  0
  146.2685  141.6693  158.0121 C   0  0  0  0  0  0  0  0  0  0  0  0
  146.6848  141.5769  159.1643 O   0  0  0  0  0  0  0  0  0  0  0  0
  145.1537  142.2989  157.6259 N   0  0  0  0  0  0  0  0  0  0  0  0
  144.9643  142.2364  156.3091 C   0  0  0  0  0  0  0  0  0  0  0  0
  144.0386  142.7326  155.6701 O   0  0  0  0  0  0  0  0  0  0  0  0
  151.0433  144.0844  158.1213 C   0  0  0  0  0  0  0  0  0  0  0  0
  151.5465  145.0815  159.4584 S   0  0  0  0  0  0  0  0  0  0  0  0
  152.2291  142.6404  162.2584 H   0  0  0  0  0  0  0  0  0  0  0  0
  151.4634  144.2262  162.4565 H   0  0  0  0  0  0  0  0  0  0  0  0
  153.1532  144.1165  161.9325 H   0  0  0  0  0  0  0  0  0  0  0  0
  151.2471  140.7284  157.8223 H   0  0  0  0  0  0  0  0  0  0  0  0
  149.6178  141.3319  157.7291 H   0  0  0  0  0  0  0  0  0  0  0  0
  151.3369  142.9148  155.9692 H   0  0  0  0  0  0  0  0  0  0  0  0
  151.5302  141.2167  155.6010 H   0  0  0  0  0  0  0  0  0  0  0  0
  148.9441  142.7148  155.6158 H   0  0  0  0  0  0  0  0  0  0  0  0
  147.9407  141.8069  152.8091 H   0  0  0  0  0  0  0  0  0  0  0  0
  147.3483  140.3830  153.6361 H   0  0  0  0  0  0  0  0  0  0  0  0
  147.5260  142.9905  155.1796 H   0  0  0  0  0  0  0  0  0  0  0  0
  146.2215  142.7892  154.0372 H   0  0  0  0  0  0  0  0  0  0  0  0
  145.7246  140.5068  155.2792 H   0  0  0  0  0  0  0  0  0  0  0  0
  147.7107  140.6237  156.9290 H   0  0  0  0  0  0  0  0  0  0  0  0
  144.5302  142.7761  158.2602 H   0  0  0  0  0  0  0  0  0  0  0  0
  150.7860  144.5386  157.1760 H   0  0  0  0  0  0  0  0  0  0  0  0
  1  2  1  0  0  0  0
  1 21  1  0  0  0  0
  1 22  1  0  0  0  0
  1 23  1  0  0  0  0
  2 20  1  0  0  0  0
  2  3  2  0  0  0  0
  3  4  1  0  0  0  0
  4  5  1  0  0  0  0
  4 19  2  0  0  0  0
  5  6  1  0  0  0  0
  5 24  1  0  0  0  0
  5 25  1  0  0  0  0
  6  7  1  0  0  0  0
  6 26  1  0  0  0  0
  6 27  1  0  0  0  0
  7  8  1  0  0  0  0
  7 28  1  0  0  0  0
  8  9  2  0  0  0  0
  8 10  1  0  0  0  0
 10 11  1  0  0  0  0
 10 29  1  0  0  0  0
 10 30  1  0  0  0  0
 11 12  1  0  0  0  0
 11 31  1  0  0  0  0
 11 32  1  0  0  0  0
 12 17  1  0  0  0  0
 12 13  1  0  0  0  0
 12 33  1  0  0  0  0
 13 14  1  0  0  0  0
 13 34  1  0  0  0  0
 14 15  2  0  0  0  0
 14 16  1  0  0  0  0
 16 17  1  0  0  0  0
 16 35  1  0  0  0  0
 17 18  2  0  0  0  0
 19 20  1  0  0  0  0
 19 36  1  0  0  0  0
M  END
> <s_m_source_file>
AV-unprocessed.smi

> <i_m_source_file_index>
1116

> <i_lp_mmshare_version>
43012

> <i_f3d_flags>
0

> <s_epik_input>
W0NIM11jMW5jKFtjSF1zMSlbQ0gyXVtDSDJdW05IXUMoPU8pW0NIMl1bQ0gyXVtDQEBIXTJbTkhdQyg9TylbTkhdQzI9Tw==

> <s_epik_cmdline>
J2VwaWtfcHl0aG9uJywgJy1waCcsICc3LjAnLCAnLXRuJywgJzgnLCAnLW1hJywgJzIwMCcsICctbWV0YWxfYmluZGluZycsICctaW1hZScsICc8aW5maWxlLm1hZT4nLCAnLW9tYWUnLCAnPG91dGZpbGUubWFlPic=

> <r_lp_tautomer_probability>
1

> <r_epik_Ionization_Penalty>
0.00889251

> <r_epik_Ionization_Penalty_Charging>
0

> <r_epik_Ionization_Penalty_Neutral>
0.00889251

> <r_epik_State_Penalty>
0.00583796

> <r_epik_Charging_Adjusted_Penalty>
0.00583796

> <i_epik_Tot_Q>
0

> <i_epik_Tot_abs_Q>
0

> <r_epik_Metal_State_Penalty>
0.408839

> <b_epik_Metal_Only>
0

> <s_lp_Force_Field>
OPLS_2005

> <r_lp_Energy>
13.0769

> <b_lp_Chiralities_Consistent>
1

> <s_lp_Variant>
AV-unprocessed.smi:1116-2

> <Gold.Version>
5.8.1

> <Gold.Id.Protein>
6NUR|6NUR_protein|mol2

> <Gold.PLP.Fitness>
48.1054

> <Gold.PLP.PLP>
-39.4904

> <Gold.PLP.part.hbond>
-3.0900

> <Gold.PLP.part.metal>
0.0000

> <Gold.PLP.part.buried>
-6.0552

> <Gold.PLP.part.nonpolar>
-31.2614

> <Gold.PLP.part.repulsive>
1.5790

> <Gold.PLP.ligand.clash>
0.0000

> <Gold.PLP.ligand.torsion>
1.3378

> <Gold.PLP.Chemscore.Hbond>
2.7280

> <Gold.PLP.Chemscore.CHOScore>
0.9798

> <Gold.PLP.Chemscore.Metal>
0.0000

> <Gold.Chemscore.Hbonds>
donor molecule, donor type, donor heavy atom, donor atom, acceptor molecule, acceptor atom, score
      L1  H     7    28       P1  8028  0.77
      P1  H  6934  6946       L1    15  0.69
      P1  H  7989  7998       L1     9  0.82
      L1  C    19    36       P1  8028  1.00

> <Gold.PLP.Chemscore.Internal.Correction>
0.1673

> <Gold.Rescore>
     Score         DG    S(hbond)    S(metal)    S(lipo)     H(rot)  DE(clash)    DE(int)     intcor
     13.60     -14.97       1.84        0.00      90.65       2.83       0.13       1.23       ----

> <Gold.Chemscore.Fitness>
13.6037

> <Gold.Chemscore.DG>
-14.9667

> <Gold.Chemscore.ZeroCoef>
-5.4800

> <Gold.Chemscore.Hbond>
1.8359

> <Gold.Chemscore.Metal>
0.0000

> <Gold.Chemscore.Lipo>
90.6476

> <Gold.Chemscore.Internal_Hbond>
0.0000

> <Gold.Chemscore.DEClash>
0.1291

> <Gold.Chemscore.DEInternal>
1.2340

> <Gold.Chemscore.Rot>
2.8324

> <Gold.Chemscore.Internal.Correction>
   9.000000E+99

> <Gold.Chemscore.Hbonds>
donor molecule, donor type, donor heavy atom, donor atom, acceptor molecule, acceptor atom, score
      L1  H     7    28       P1  8028  0.75
      P1  H  6934  6946       L1    15  0.68
      P1  H  7989  7998       L1     9  0.61

> <Gold.Chemscore.Hbond.Weighted>
-6.1319

> <Gold.Chemscore.Metal.Weighted>
-0.0000

> <Gold.Chemscore.Lipo.Weighted>
-10.6058

> <Gold.Chemscore.Internal_Hbond.Weighted>
0.0000

> <Gold.Chemscore.DEClash.Weighted>
0.1291

> <Gold.Chemscore.DEInternal.Weighted>
1.2340

> <Gold.Chemscore.Rot.Weighted>
7.2510

> <Gold.Chemscore.Internal.Correction.Weighted>
   9.000000E+99

> <Gold.Protein.RotatedTorsions>
[ 6907 6896 6895 6894 ] final -178.75 input  -60.11 | X-H torsion
[ 7974 7965 7964 7962 ] final -140.90 input  175.53 | X-H torsion
[ 8008 7997 7996 7995 ] final   90.03 input   59.86 | X-H torsion
[ 10167 10162 10161 10158 ] final  -49.72 input  -65.29 | X-H torsion
[ 10718 10713 10712 10709 ] final  -65.62 input   66.30 | X-H torsion
[ 10763 10752 10751 10750 ] final  126.51 input  -60.55 | X-H torsion
[ 11005 11000 10999 10996 ] final    0.70 input  -57.11 | X-H torsion

> <Gold.Protein.ActiveResidues>
 VAL166  LYS551  ARG553  GLY616  TRP617  ASP618  TYR619  PRO620  LYS621  CYS622 
 ASP623  PHE694  ASN695  SER759  ASP760  ASP761  ALA762  ILE779  LEU786  VAL792 
 PHE793  MET794  SER795  GLU796  ALA797  LYS798  CYS799  TRP800  GLU811  SER814 

> <Gold.Protein.RotatedAtoms>
  151.6422  133.3325  159.3132 H   0  0  0  0  0  0  0  0  0  0  0  0  # atno 6907 bound_to 6896
  150.8002  134.7094  159.6604 H   0  0  0  0  0  0  0  0  0  0  0  0  # atno 6908 bound_to 6896
  152.4093  134.6156  160.0088 H   0  0  0  0  0  0  0  0  0  0  0  0  # atno 6909 bound_to 6896
  144.8561  140.6144  143.5359 H   0  0  0  0  0  0  0  0  0  0  0  0  # atno 7974 bound_to 7965
  156.0071  140.3354  155.6903 H   0  0  0  0  0  0  0  0  0  0  0  0  # atno 8008 bound_to 7997
  155.6209  140.0675  157.2696 H   0  0  0  0  0  0  0  0  0  0  0  0  # atno 8009 bound_to 7997
  154.4268  140.1776  156.1359 H   0  0  0  0  0  0  0  0  0  0  0  0  # atno 8010 bound_to 7997
  140.6672  143.2686  151.4256 H   0  0  0  0  0  0  0  0  0  0  0  0  # atno 10167 bound_to 10162
  156.0659  130.4250  150.1590 H   0  0  0  0  0  0  0  0  0  0  0  0  # atno 10718 bound_to 10713
  153.6944  135.3293  155.3210 H   0  0  0  0  0  0  0  0  0  0  0  0  # atno 10763 bound_to 10752
  154.8431  135.4439  154.1475 H   0  0  0  0  0  0  0  0  0  0  0  0  # atno 10764 bound_to 10752
  153.2525  135.6983  153.7742 H   0  0  0  0  0  0  0  0  0  0  0  0  # atno 10765 bound_to 10752
  140.6237  133.9638  155.8238 H   0  0  0  0  0  0  0  0  0  0  0  0  # atno 11005 bound_to 11000
  145.4404  139.1536  143.3973 LP  0  0  0  0  0  0  0  0  0  0  0  0  # atno 17320 bound_to 7965
  146.2824  140.4525  142.8771 LP  0  0  0  0  0  0  0  0  0  0  0  0  # atno 17321 bound_to 7965
  139.5925  144.1469  152.2105 LP  0  0  0  0  0  0  0  0  0  0  0  0  # atno 17342 bound_to 10162
  140.0828  144.5686  150.7110 LP  0  0  0  0  0  0  0  0  0  0  0  0  # atno 17343 bound_to 10162
  156.9650  130.9817  151.3471 LP  0  0  0  0  0  0  0  0  0  0  0  0  # atno 17370 bound_to 10713
  157.5700  130.8304  149.8379 LP  0  0  0  0  0  0  0  0  0  0  0  0  # atno 17371 bound_to 10713
  141.0725  134.0185  157.3506 LP  0  0  0  0  0  0  0  0  0  0  0  0  # atno 17394 bound_to 11000
  139.9143  135.0195  156.7819 LP  0  0  0  0  0  0  0  0  0  0  0  0  # atno 17395 bound_to 11000

$$$$
