AV-unprocessed.smi:1929|AV-procd|sdf|7802|dock3
  -GOLD-   22720 9543D 1   1.00000     0.00000
 Structure written by MMmdl.
 43 44  0  0  0  0  0  0  0  0  2 V2000
  146.5337  134.0735  153.8268 C   0  0  0  0  0  0  0  0  0  0  0  0
  146.7682  135.4214  153.3329 N   0  0  0  0  0  0  0  0  0  0  0  0
  146.0558  136.4950  153.7034 C   0  0  0  0  0  0  0  0  0  0  0  0
  145.1238  136.4440  154.5060 O   0  0  0  0  0  0  0  0  0  0  0  0
  146.4591  137.8367  153.0798 C   0  0  0  0  0  0  0  0  0  0  0  0
  147.0203  138.8160  154.0386 N   0  0  0  0  0  0  0  0  0  0  0  0
  146.9470  140.1586  153.4527 C   0  0  0  0  0  0  0  0  0  0  0  0
  147.3993  141.2202  154.4699 C   0  0  0  0  0  0  0  0  0  0  0  0
  148.8323  140.9505  154.9489 C   0  0  0  0  0  0  0  0  0  0  0  0
  149.1965  141.9067  155.9904 N   0  0  0  0  0  0  0  0  0  0  0  0
  150.2744  141.8131  156.7823 C   0  0  0  0  0  0  0  0  0  0  0  0
  151.0810  140.8854  156.7230 O   0  0  0  0  0  0  0  0  0  0  0  0
  150.3362  142.8439  157.6435 N   0  0  0  0  0  0  0  0  0  0  0  0
  151.3220  143.1220  158.6297 C   0  0  0  0  0  0  0  0  0  0  0  0
  152.3751  142.1920  158.7779 C   0  0  0  0  0  0  0  0  0  0  0  0
  153.3694  142.4146  159.7521 C   0  0  0  0  0  0  0  0  0  0  0  0
  153.3042  143.5077  160.5416 N   0  3  0  0  0  0  0  0  0  0  0  0
  152.3110  144.4175  160.4473 C   0  0  0  0  0  0  0  0  0  0  0  0
  151.2882  144.2481  159.4917 C   0  0  0  0  0  0  0  0  0  0  0  0
  148.9182  139.5067  155.4703 C   0  0  0  0  0  0  0  0  0  0  0  0
  148.4050  138.5029  154.4224 C   0  0  0  0  0  0  0  0  0  0  0  0
  147.2597  133.3868  153.3918 H   0  0  0  0  0  0  0  0  0  0  0  0
  145.5343  133.7297  153.5574 H   0  0  0  0  0  0  0  0  0  0  0  0
  146.6354  134.0347  154.9120 H   0  0  0  0  0  0  0  0  0  0  0  0
  147.5205  135.5482  152.6714 H   0  0  0  0  0  0  0  0  0  0  0  0
  147.1705  137.6679  152.2687 H   0  0  0  0  0  0  0  0  0  0  0  0
  145.5622  138.2545  152.6202 H   0  0  0  0  0  0  0  0  0  0  0  0
  147.5591  140.2141  152.5506 H   0  0  0  0  0  0  0  0  0  0  0  0
  145.9208  140.3755  153.1532 H   0  0  0  0  0  0  0  0  0  0  0  0
  147.3360  142.2115  154.0194 H   0  0  0  0  0  0  0  0  0  0  0  0
  146.7141  141.2219  155.3194 H   0  0  0  0  0  0  0  0  0  0  0  0
  149.5072  141.0661  154.0985 H   0  0  0  0  0  0  0  0  0  0  0  0
  148.5804  142.6972  156.1132 H   0  0  0  0  0  0  0  0  0  0  0  0
  149.5549  143.4830  157.6214 H   0  0  0  0  0  0  0  0  0  0  0  0
  152.4266  141.3155  158.1479 H   0  0  0  0  0  0  0  0  0  0  0  0
  154.2079  141.7548  159.9229 H   0  0  0  0  0  0  0  0  0  0  0  0
  152.3599  145.2463  161.1383 H   0  0  0  0  0  0  0  0  0  0  0  0
  150.4957  144.9788  159.4492 H   0  0  0  0  0  0  0  0  0  0  0  0
  149.9477  139.2630  155.7351 H   0  0  0  0  0  0  0  0  0  0  0  0
  148.3322  139.4051  156.3852 H   0  0  0  0  0  0  0  0  0  0  0  0
  148.4741  137.5040  154.8531 H   0  0  0  0  0  0  0  0  0  0  0  0
  149.0504  138.5120  153.5422 H   0  0  0  0  0  0  0  0  0  0  0  0
  154.0331  143.6502  161.2415 H   0  0  0  0  0  0  0  0  0  0  0  0
  1  2  1  0  0  0  0
  1 22  1  0  0  0  0
  1 23  1  0  0  0  0
  1 24  1  0  0  0  0
  2  3  1  0  0  0  0
  2 25  1  0  0  0  0
  3  4  2  0  0  0  0
  3  5  1  0  0  0  0
  5  6  1  0  0  0  0
  5 26  1  0  0  0  0
  5 27  1  0  0  0  0
  6 21  1  0  0  0  0
  6  7  1  0  0  0  0
  7  8  1  0  0  0  0
  7 28  1  0  0  0  0
  7 29  1  0  0  0  0
  8  9  1  0  0  0  0
  8 30  1  0  0  0  0
  8 31  1  0  0  0  0
  9 10  1  0  0  0  0
  9 20  1  0  0  0  0
  9 32  1  0  0  0  0
 10 11  1  0  0  0  0
 10 33  1  0  0  0  0
 11 12  2  0  0  0  0
 11 13  1  0  0  0  0
 13 14  1  0  0  0  0
 13 34  1  0  0  0  0
 14 19  1  0  0  0  0
 14 15  2  0  0  0  0
 15 16  1  0  0  0  0
 15 35  1  0  0  0  0
 16 17  2  0  0  0  0
 16 36  1  0  0  0  0
 17 18  1  0  0  0  0
 17 43  1  0  0  0  0
 18 19  2  0  0  0  0
 18 37  1  0  0  0  0
 19 38  1  0  0  0  0
 20 21  1  0  0  0  0
 20 39  1  0  0  0  0
 20 40  1  0  0  0  0
 21 41  1  0  0  0  0
 21 42  1  0  0  0  0
M  CHG  1  17   1
M  END
> <s_m_source_file>
AV-unprocessed.smi

> <i_m_source_file_index>
1929

> <i_lp_mmshare_version>
43012

> <i_f3d_flags>
0

> <s_epik_input>
W0NIM11bTkhdQyg9TylbQ0gyXU4xW0NIMl1bQ0gyXVtDSF0oW0NIMl1bQ0gyXTEpW05IXUMoPU8pW05IXWMyW2NIXVtjSF1uW2NIXVtjSF0y

> <s_epik_cmdline>
J2VwaWtfcHl0aG9uJywgJy1waCcsICc3LjAnLCAnLXRuJywgJzgnLCAnLW1hJywgJzIwMCcsICctbWV0YWxfYmluZGluZycsICctaW1hZScsICc8aW5maWxlLm1hZT4nLCAnLW9tYWUnLCAnPG91dGZpbGUubWFlPic=

> <r_epik_Ionization_Penalty>
1.15133

> <r_epik_Ionization_Penalty_Charging>
0.995513

> <r_epik_Ionization_Penalty_Neutral>
0.155816

> <r_epik_State_Penalty>
1.22166

> <r_epik_Charging_Adjusted_Penalty>
2.21717

> <i_epik_Tot_Q>
1

> <i_epik_Tot_abs_Q>
1

> <r_epik_Metal_State_Penalty>
1.32497

> <b_epik_Metal_Only>
0

> <s_lp_Force_Field>
OPLS_2005

> <r_lp_Energy>
25.1405

> <b_lp_Chiralities_Consistent>
1

> <s_lp_Variant>
AV-unprocessed.smi:1929-4

> <Gold.Version>
5.8.1

> <Gold.Id.Protein>
6NUR|6NUR_protein|mol2

> <Gold.PLP.Fitness>
44.9650

> <Gold.PLP.PLP>
-37.3791

> <Gold.PLP.part.hbond>
-3.0000

> <Gold.PLP.part.metal>
0.0000

> <Gold.PLP.part.buried>
-3.3067

> <Gold.PLP.part.nonpolar>
-30.9654

> <Gold.PLP.part.repulsive>
0.6452

> <Gold.PLP.ligand.clash>
0.0000

> <Gold.PLP.ligand.torsion>
0.3282

> <Gold.PLP.Chemscore.Hbond>
2.7454

> <Gold.PLP.Chemscore.CHOScore>
0.0000

> <Gold.PLP.Chemscore.Metal>
0.0000

> <Gold.Chemscore.Hbonds>
donor molecule, donor type, donor heavy atom, donor atom, acceptor molecule, acceptor atom, score
      L1  H     2    25       P1  7948  1.00
      L1  H    10    33       P1  8028  0.52
      L1  H    13    34       P1  8028  0.04

> <Gold.PLP.Chemscore.Internal.Correction>
0.0060

> <Gold.Rescore>
     Score         DG    S(hbond)    S(metal)    S(lipo)     H(rot)  DE(clash)    DE(int)     intcor
     18.28     -22.85       2.95        0.00     101.33       1.69       1.39       3.18       ----

> <Gold.Chemscore.Fitness>
18.2830

> <Gold.Chemscore.DG>
-22.8536

> <Gold.Chemscore.ZeroCoef>
-5.4800

> <Gold.Chemscore.Hbond>
2.9463

> <Gold.Chemscore.Metal>
0.0000

> <Gold.Chemscore.Lipo>
101.3262

> <Gold.Chemscore.Internal_Hbond>
0.0000

> <Gold.Chemscore.DEClash>
1.3861

> <Gold.Chemscore.DEInternal>
3.1845

> <Gold.Chemscore.Rot>
1.6883

> <Gold.Chemscore.Internal.Correction>
   9.000000E+99

> <Gold.Chemscore.Hbonds>
donor molecule, donor type, donor heavy atom, donor atom, acceptor molecule, acceptor atom, score
      L1  H     2    25       P1  7948  1.00
      L1  H    10    33       P1  8028  0.51
      L1  H    13    34       P1  8028  0.04

> <Gold.Chemscore.Hbond.Weighted>
-9.8405

> <Gold.Chemscore.Metal.Weighted>
-0.0000

> <Gold.Chemscore.Lipo.Weighted>
-11.8552

> <Gold.Chemscore.Internal_Hbond.Weighted>
0.0000

> <Gold.Chemscore.DEClash.Weighted>
1.3861

> <Gold.Chemscore.DEInternal.Weighted>
3.1845

> <Gold.Chemscore.Rot.Weighted>
4.3221

> <Gold.Chemscore.Internal.Correction.Weighted>
   9.000000E+99

> <Gold.Protein.RotatedTorsions>
[ 6907 6896 6895 6894 ] final  101.21 input  -60.11 | X-H torsion
[ 7974 7965 7964 7962 ] final   21.88 input  175.53 | X-H torsion
[ 8008 7997 7996 7995 ] final  141.64 input   59.86 | X-H torsion
[ 10167 10162 10161 10158 ] final   85.13 input  -65.29 | X-H torsion
[ 10718 10713 10712 10709 ] final -141.93 input   66.30 | X-H torsion
[ 10763 10752 10751 10750 ] final -116.24 input  -60.55 | X-H torsion
[ 11005 11000 10999 10996 ] final   14.33 input  -57.11 | X-H torsion

> <Gold.Protein.ActiveResidues>
 VAL166  LYS551  ARG553  GLY616  TRP617  ASP618  TYR619  PRO620  LYS621  CYS622 
 ASP623  PHE694  ASN695  SER759  ASP760  ASP761  ALA762  ILE779  LEU786  VAL792 
 PHE793  MET794  SER795  GLU796  ALA797  LYS798  CYS799  TRP800  GLU811  SER814 

> <Gold.Protein.RotatedAtoms>
  152.5354  134.0160  159.7959 H   0  0  0  0  0  0  0  0  0  0  0  0  # atno 6907 bound_to 6896
  151.0354  133.5745  159.2663 H   0  0  0  0  0  0  0  0  0  0  0  0  # atno 6908 bound_to 6896
  151.2734  135.0699  159.9196 H   0  0  0  0  0  0  0  0  0  0  0  0  # atno 6909 bound_to 6896
  146.2053  139.7964  142.8731 H   0  0  0  0  0  0  0  0  0  0  0  0  # atno 7974 bound_to 7965
  156.2962  140.2310  156.4597 H   0  0  0  0  0  0  0  0  0  0  0  0  # atno 8008 bound_to 7997
  154.8029  140.0447  157.1307 H   0  0  0  0  0  0  0  0  0  0  0  0  # atno 8009 bound_to 7997
  154.9512  140.3042  155.5077 H   0  0  0  0  0  0  0  0  0  0  0  0  # atno 8010 bound_to 7997
  139.9009  144.6330  150.8638 H   0  0  0  0  0  0  0  0  0  0  0  0  # atno 10167 bound_to 10162
  156.3399  130.7632  151.1766 H   0  0  0  0  0  0  0  0  0  0  0  0  # atno 10718 bound_to 10713
  154.8512  135.4353  154.1789 H   0  0  0  0  0  0  0  0  0  0  0  0  # atno 10763 bound_to 10752
  153.2885  135.6959  153.7322 H   0  0  0  0  0  0  0  0  0  0  0  0  # atno 10764 bound_to 10752
  153.6499  135.3453  155.3071 H   0  0  0  0  0  0  0  0  0  0  0  0  # atno 10765 bound_to 10752
  140.4708  134.1033  155.7732 H   0  0  0  0  0  0  0  0  0  0  0  0  # atno 11005 bound_to 11000
  145.3343  141.0273  143.3429 LP  0  0  0  0  0  0  0  0  0  0  0  0  # atno 17320 bound_to 7965
  144.8777  139.4948  143.6738 LP  0  0  0  0  0  0  0  0  0  0  0  0  # atno 17321 bound_to 7965
  140.7707  143.3437  151.2154 LP  0  0  0  0  0  0  0  0  0  0  0  0  # atno 17342 bound_to 10162
  139.7026  143.9508  152.2912 LP  0  0  0  0  0  0  0  0  0  0  0  0  # atno 17343 bound_to 10162
  157.7445  131.0457  150.4858 LP  0  0  0  0  0  0  0  0  0  0  0  0  # atno 17370 bound_to 10713
  156.5037  130.4123  149.6339 LP  0  0  0  0  0  0  0  0  0  0  0  0  # atno 17371 bound_to 10713
  141.1578  133.8850  157.1931 LP  0  0  0  0  0  0  0  0  0  0  0  0  # atno 17394 bound_to 11000
  139.9886  135.0073  156.9923 LP  0  0  0  0  0  0  0  0  0  0  0  0  # atno 17395 bound_to 11000

$$$$
