AV-unprocessed.smi:54|AV-procd|sdf|532|dock3
  -GOLD-   2262016413D 1   1.00000     0.00000
 Structure written by MMmdl.
 44 46  0  0  0  0  0  0  0  0  1 V2000
  151.7773  144.8353  157.5226 C   0  0  0  0  0  0  0  0  0  0  0  0
  151.5441  143.7574  158.5930 C   0  0  0  0  0  0  0  0  0  0  0  0
  152.3703  144.0406  159.8585 C   0  0  0  0  0  0  0  0  0  0  0  0
  151.8658  142.3657  158.0366 C   0  0  0  0  0  0  0  0  0  0  0  0
  152.7409  141.6522  158.5284 O   0  0  0  0  0  0  0  0  0  0  0  0
  151.0726  141.9544  156.8918 N   0  0  0  0  0  0  0  0  0  0  0  0
  151.1424  140.7792  156.2243 C   0  0  0  0  0  0  0  0  0  0  0  0
  150.0740  140.1364  155.7749 N   0  0  0  0  0  0  0  0  0  0  0  0
  150.3474  138.9710  155.1147 C   0  0  0  0  0  0  0  0  0  0  0  0
  151.5946  138.4303  154.8823 C   0  0  0  0  0  0  0  0  0  0  0  0
  151.4760  137.2358  154.1809 N   0  0  0  0  0  0  0  0  0  0  0  0
  150.1906  137.0936  154.0138 C   0  0  0  0  0  0  0  0  0  0  0  0
  149.4317  138.1030  154.5593 N   0  0  0  0  0  0  0  0  0  0  0  0
  147.9431  138.2768  154.5648 C   0  0  1  0  0  0  0  0  0  0  0  0
  147.6360  139.2165  155.5516 O   0  0  0  0  0  0  0  0  0  0  0  0
  146.9641  140.3461  154.9943 C   0  0  1  0  0  0  0  0  0  0  0  0
  147.3250  141.6344  155.7547 C   0  0  0  0  0  0  0  0  0  0  0  0
  146.9400  142.7646  155.0022 O   0  0  0  0  0  0  0  0  0  0  0  0
  147.3307  140.3300  153.5032 C   0  0  1  0  0  0  0  0  0  0  0  0
  148.5503  141.0110  153.2566 O   0  0  0  0  0  0  0  0  0  0  0  0
  147.4257  138.8363  153.2267 C   0  0  1  0  0  0  0  0  0  0  0  0
  148.2100  138.5277  152.0871 O   0  0  0  0  0  0  0  0  0  0  0  0
  152.7612  139.1173  155.3560 C   0  0  0  0  0  0  0  0  0  0  0  0
  153.9395  138.7881  155.2387 O   0  0  0  0  0  0  0  0  0  0  0  0
  152.4392  140.3045  156.0265 N   0  0  0  0  0  0  0  0  0  0  0  0
  147.5478  137.2913  154.8135 H   0  0  0  0  0  0  0  0  0  0  0  0
  145.8912  140.1590  155.0695 H   0  0  0  0  0  0  0  0  0  0  0  0
  146.5565  140.8011  152.8966 H   0  0  0  0  0  0  0  0  0  0  0  0
  146.4201  138.4404  153.0782 H   0  0  0  0  0  0  0  0  0  0  0  0
  151.1917  144.6360  156.6242 H   0  0  0  0  0  0  0  0  0  0  0  0
  152.8270  144.8906  157.2307 H   0  0  0  0  0  0  0  0  0  0  0  0
  151.4852  145.8191  157.8909 H   0  0  0  0  0  0  0  0  0  0  0  0
  150.4890  143.7775  158.8695 H   0  0  0  0  0  0  0  0  0  0  0  0
  152.2193  143.2676  160.6132 H   0  0  0  0  0  0  0  0  0  0  0  0
  152.0844  144.9932  160.3051 H   0  0  0  0  0  0  0  0  0  0  0  0
  153.4377  144.0871  159.6389 H   0  0  0  0  0  0  0  0  0  0  0  0
  150.4117  142.6340  156.5456 H   0  0  0  0  0  0  0  0  0  0  0  0
  149.7666  136.2496  153.4903 H   0  0  0  0  0  0  0  0  0  0  0  0
  146.8586  141.6594  156.7399 H   0  0  0  0  0  0  0  0  0  0  0  0
  148.4038  141.6946  155.9023 H   0  0  0  0  0  0  0  0  0  0  0  0
  147.5429  143.4683  155.1876 H   0  0  0  0  0  0  0  0  0  0  0  0
  148.7513  140.9369  152.3360 H   0  0  0  0  0  0  0  0  0  0  0  0
  148.7754  139.2644  151.9102 H   0  0  0  0  0  0  0  0  0  0  0  0
  153.2132  140.8419  156.3882 H   0  0  0  0  0  0  0  0  0  0  0  0
  1  2  1  0  0  0  0
  1 30  1  0  0  0  0
  1 31  1  0  0  0  0
  1 32  1  0  0  0  0
  2  3  1  0  0  0  0
  2  4  1  0  0  0  0
  2 33  1  0  0  0  0
  3 34  1  0  0  0  0
  3 35  1  0  0  0  0
  3 36  1  0  0  0  0
  4  5  2  0  0  0  0
  4  6  1  0  0  0  0
  6 37  1  0  0  0  0
  6  7  1  0  0  0  0
  7 25  1  0  0  0  0
  7  8  2  0  0  0  0
  8  9  1  0  0  0  0
  9 13  1  0  0  0  0
  9 10  2  0  0  0  0
 10 11  1  0  0  0  0
 10 23  1  0  0  0  0
 11 12  2  0  0  0  0
 12 13  1  0  0  0  0
 12 38  1  0  0  0  0
 13 14  1  0  0  0  0
 14 26  1  0  0  0  0
 14 21  1  0  0  0  0
 14 15  1  0  0  0  0
 15 16  1  0  0  0  0
 16 27  1  0  0  0  0
 16 17  1  0  0  0  0
 16 19  1  0  0  0  0
 17 18  1  0  0  0  0
 17 39  1  0  0  0  0
 17 40  1  0  0  0  0
 18 41  1  0  0  0  0
 19 28  1  0  0  0  0
 19 20  1  0  0  0  0
 19 21  1  0  0  0  0
 20 42  1  0  0  0  0
 21 29  1  0  0  0  0
 21 22  1  0  0  0  0
 22 43  1  0  0  0  0
 23 24  2  0  0  0  0
 23 25  1  0  0  0  0
 25 44  1  0  0  0  0
M  END
> <s_m_source_file>
AV-unprocessed.smi

> <i_m_source_file_index>
54

> <i_lp_mmshare_version>
43012

> <i_f3d_flags>
0

> <s_epik_input>
W0NIM11bQ0hdKFtDSDNdKUMoPU8pW05IXWMobjEpW25IXWMoPU8pYyhjMTIpbltjSF1uMltDQEBIXTNPW0NASF0oW0NIMl1bT0hdKVtDQEBIXShbT0hdKVtDQEhdM1tPSF0=

> <s_epik_cmdline>
J2VwaWtfcHl0aG9uJywgJy1waCcsICc3LjAnLCAnLXRuJywgJzgnLCAnLW1hJywgJzIwMCcsICctbWV0YWxfYmluZGluZycsICctaW1hZScsICc8aW5maWxlLm1hZT4nLCAnLW9tYWUnLCAnPG91dGZpbGUubWFlPic=

> <r_lp_tautomer_probability>
0.85571

> <r_epik_Ionization_Penalty>
0.0316551

> <r_epik_Ionization_Penalty_Charging>
0.0316043

> <r_epik_Ionization_Penalty_Neutral>
5.07097e-05

> <r_epik_State_Penalty>
3.15494e-07

> <r_epik_Charging_Adjusted_Penalty>
0.0316047

> <i_epik_Tot_Q>
0

> <i_epik_Tot_abs_Q>
0

> <r_epik_Metal_State_Penalty>
0.421206

> <b_epik_Metal_Only>
0

> <s_epik_Chemistry_Notes>
This compound contains an acetal/aminal-like group ( X-CH(R)-Y where X, Y are N, S, or O) that may be acid/base labile, releasing an aldehyde.

> <s_lp_Force_Field>
OPLS_2005

> <r_lp_Energy>
45.6479

> <b_lp_Chiralities_Consistent>
1

> <s_lp_Variant>
AV-unprocessed.smi:54-4

> <Gold.Version>
5.8.1

> <Gold.Id.Protein>
6NUR|6NUR_protein|mol2

> <Gold.PLP.Fitness>
44.8557

> <Gold.PLP.PLP>
-32.1461

> <Gold.PLP.part.hbond>
-5.2594

> <Gold.PLP.part.metal>
0.0000

> <Gold.PLP.part.buried>
-2.6091

> <Gold.PLP.part.nonpolar>
-25.8755

> <Gold.PLP.part.repulsive>
0.6804

> <Gold.PLP.ligand.clash>
0.0000

> <Gold.PLP.ligand.torsion>
0.9496

> <Gold.PLP.Chemscore.Hbond>
3.9338

> <Gold.PLP.Chemscore.CHOScore>
0.7875

> <Gold.PLP.Chemscore.Metal>
0.0000

> <Gold.Chemscore.Hbonds>
donor molecule, donor type, donor heavy atom, donor atom, acceptor molecule, acceptor atom, score
      L1  H    18    41       P1  8028  0.80
      L1  H    20    42       P1  7957  0.93
      L1  H    22    43       P1  7957  0.52
      P1  H  7954  7966       L1    22  0.19
      P1  H  7997  8008       L1    24  0.31
      P1  H 10752 10764       L1    11  0.62
      L1  C    12    38       P1  7948  0.34

> <Gold.PLP.Chemscore.Internal.Correction>
0.4449

> <Gold.Rescore>
     Score         DG    S(hbond)    S(metal)    S(lipo)     H(rot)  DE(clash)    DE(int)     intcor
      8.21     -12.92       3.07        0.00      64.60       4.05       2.04       2.67       ----

> <Gold.Chemscore.Fitness>
8.2143

> <Gold.Chemscore.DG>
-12.9207

> <Gold.Chemscore.ZeroCoef>
-5.4800

> <Gold.Chemscore.Hbond>
3.0685

> <Gold.Chemscore.Metal>
0.0000

> <Gold.Chemscore.Lipo>
64.5994

> <Gold.Chemscore.Internal_Hbond>
0.0000

> <Gold.Chemscore.DEClash>
2.0385

> <Gold.Chemscore.DEInternal>
2.6679

> <Gold.Chemscore.Rot>
4.0493

> <Gold.Chemscore.Internal.Correction>
   9.000000E+99

> <Gold.Chemscore.Hbonds>
donor molecule, donor type, donor heavy atom, donor atom, acceptor molecule, acceptor atom, score
      L1  H    18    41       P1  8028  0.12
      L1  H    20    42       P1  7957  0.90
      L1  H    22    43       P1  7957  0.50
      P1  H  7954  7966       L1    22  0.01
      P1  H  7997  8008       L1    24  0.01
      P1  H 10752 10764       L1    11  0.60

> <Gold.Chemscore.Hbond.Weighted>
-10.2488

> <Gold.Chemscore.Metal.Weighted>
-0.0000

> <Gold.Chemscore.Lipo.Weighted>
-7.5581

> <Gold.Chemscore.Internal_Hbond.Weighted>
0.0000

> <Gold.Chemscore.DEClash.Weighted>
2.0385

> <Gold.Chemscore.DEInternal.Weighted>
2.6679

> <Gold.Chemscore.Rot.Weighted>
10.3662

> <Gold.Chemscore.Internal.Correction.Weighted>
   9.000000E+99

> <Gold.Protein.RotatedTorsions>
[ 6907 6896 6895 6894 ] final  121.01 input  -60.11 | X-H torsion
[ 7974 7965 7964 7962 ] final -113.15 input  175.53 | X-H torsion
[ 8008 7997 7996 7995 ] final  -32.89 input   59.86 | X-H torsion
[ 10167 10162 10161 10158 ] final  131.53 input  -65.29 | X-H torsion
[ 10718 10713 10712 10709 ] final  -34.63 input   66.30 | X-H torsion
[ 10763 10752 10751 10750 ] final  -66.81 input  -60.55 | X-H torsion
[ 11005 11000 10999 10996 ] final   21.43 input  -57.11 | X-H torsion

> <Gold.Protein.ActiveResidues>
 VAL166  LYS551  ARG553  GLY616  TRP617  ASP618  TYR619  PRO620  LYS621  CYS622 
 ASP623  PHE694  ASN695  SER759  ASP760  ASP761  ALA762  ILE779  LEU786  VAL792 
 PHE793  MET794  SER795  GLU796  ALA797  LYS798  CYS799  TRP800  GLU811  SER814 

> <Gold.Protein.RotatedAtoms>
  152.4354  133.7352  159.6609 H   0  0  0  0  0  0  0  0  0  0  0  0  # atno 6907 bound_to 6896
  150.8238  133.8197  159.3133 H   0  0  0  0  0  0  0  0  0  0  0  0  # atno 6908 bound_to 6896
  151.5871  135.1058  160.0082 H   0  0  0  0  0  0  0  0  0  0  0  0  # atno 6909 bound_to 6896
  145.1354  140.8748  143.3733 H   0  0  0  0  0  0  0  0  0  0  0  0  # atno 7974 bound_to 7965
  154.4165  140.1725  156.1800 H   0  0  0  0  0  0  0  0  0  0  0  0  # atno 8008 bound_to 7997
  155.9690  140.3387  155.6534 H   0  0  0  0  0  0  0  0  0  0  0  0  # atno 8009 bound_to 7997
  155.6650  140.0705  157.2531 H   0  0  0  0  0  0  0  0  0  0  0  0  # atno 8010 bound_to 7997
  139.5379  144.6702  151.4721 H   0  0  0  0  0  0  0  0  0  0  0  0  # atno 10167 bound_to 10162
  156.3483  130.4304  149.7727 H   0  0  0  0  0  0  0  0  0  0  0  0  # atno 10718 bound_to 10713
  154.3654  135.6107  153.5712 H   0  0  0  0  0  0  0  0  0  0  0  0  # atno 10763 bound_to 10752
  152.9792  135.5825  154.4585 H   0  0  0  0  0  0  0  0  0  0  0  0  # atno 10764 bound_to 10752
  154.4329  135.2848  155.1877 H   0  0  0  0  0  0  0  0  0  0  0  0  # atno 10765 bound_to 10752
  140.3917  134.1812  155.7662 H   0  0  0  0  0  0  0  0  0  0  0  0  # atno 11005 bound_to 11000
  145.0590  139.3121  143.5890 LP  0  0  0  0  0  0  0  0  0  0  0  0  # atno 17320 bound_to 7965
  146.3510  140.0025  142.8675 LP  0  0  0  0  0  0  0  0  0  0  0  0  # atno 17321 bound_to 7965
  140.6596  143.8527  150.6873 LP  0  0  0  0  0  0  0  0  0  0  0  0  # atno 17342 bound_to 10162
  140.1917  143.4031  152.1858 LP  0  0  0  0  0  0  0  0  0  0  0  0  # atno 17343 bound_to 10162
  156.4937  130.8097  151.3105 LP  0  0  0  0  0  0  0  0  0  0  0  0  # atno 17370 bound_to 10713
  157.7457  130.9967  150.2789 LP  0  0  0  0  0  0  0  0  0  0  0  0  # atno 17371 bound_to 10713
  141.1888  133.8251  157.0979 LP  0  0  0  0  0  0  0  0  0  0  0  0  # atno 17394 bound_to 11000
  140.0402  134.9858  157.0947 LP  0  0  0  0  0  0  0  0  0  0  0  0  # atno 17395 bound_to 11000

$$$$
