AV-unprocessed.smi:3234|AV-procd|sdf|12354|dock5
  -GOLD-   2272018213D 1   1.00000     0.00000
 Structure written by MMmdl.
 38 40  0  0  0  0  0  0  0  0  3 V2000
  145.0505  138.4582  153.0365 O   0  0  0  0  0  0  0  0  0  0  0  0
  146.0527  137.8691  152.6327 C   0  0  0  0  0  0  0  0  0  0  0  0
  147.3188  138.2963  152.7830 N   0  0  0  0  0  0  0  0  0  0  0  0
  147.7812  139.4936  153.3955 C   0  0  0  0  0  0  0  0  0  0  0  0
  146.9765  140.6476  153.2666 C   0  0  0  0  0  0  0  0  0  0  0  0
  147.3872  141.8537  153.8702 C   0  0  0  0  0  0  0  0  0  0  0  0
  148.5382  141.8950  154.5747 N   0  3  0  0  0  0  0  0  0  0  0  0
  149.3331  140.8157  154.7382 C   0  0  0  0  0  0  0  0  0  0  0  0
  148.9748  139.5822  154.1570 C   0  0  0  0  0  0  0  0  0  0  0  0
  146.0058  136.6898  151.9961 N   0  0  0  0  0  0  0  0  0  0  0  0
  144.7780  135.9598  151.6950 C   0  0  2  0  0  0  0  0  0  0  0  0
  144.2858  135.0543  152.8276 C   0  0  0  0  0  0  0  0  0  0  0  0
  143.5538  133.9048  152.1132 C   0  0  0  0  0  0  0  0  0  0  0  0
  143.8186  134.0618  150.6638 N   0  3  2  0  0  0  0  0  0  0  0  0
  143.9815  132.7876  149.9321 C   0  0  0  0  0  0  0  0  0  0  0  0
  144.4188  131.6391  150.8096 C   0  0  0  0  0  0  0  0  0  0  0  0
  145.4098  132.3008  149.8766 C   0  0  0  0  0  0  0  0  0  0  0  0
  144.9661  134.9784  150.5421 C   0  0  0  0  0  0  0  0  0  0  0  0
  148.0408  137.6617  152.4743 H   0  0  0  0  0  0  0  0  0  0  0  0
  146.0537  140.6152  152.7052 H   0  0  0  0  0  0  0  0  0  0  0  0
  146.8327  142.7789  153.8125 H   0  0  0  0  0  0  0  0  0  0  0  0
  150.2239  140.9680  155.3300 H   0  0  0  0  0  0  0  0  0  0  0  0
  149.6152  138.7285  154.3174 H   0  0  0  0  0  0  0  0  0  0  0  0
  146.8749  136.2693  151.7006 H   0  0  0  0  0  0  0  0  0  0  0  0
  143.9875  136.6639  151.4262 H   0  0  0  0  0  0  0  0  0  0  0  0
  145.1302  134.6534  153.3904 H   0  0  0  0  0  0  0  0  0  0  0  0
  143.6427  135.5857  153.5299 H   0  0  0  0  0  0  0  0  0  0  0  0
  143.9161  132.9435  152.4809 H   0  0  0  0  0  0  0  0  0  0  0  0
  142.4785  133.9423  152.2894 H   0  0  0  0  0  0  0  0  0  0  0  0
  143.3073  132.6181  149.0942 H   0  0  0  0  0  0  0  0  0  0  0  0
  144.5355  131.8201  151.8767 H   0  0  0  0  0  0  0  0  0  0  0  0
  144.0724  130.6426  150.5425 H   0  0  0  0  0  0  0  0  0  0  0  0
  145.7156  131.7395  148.9960 H   0  0  0  0  0  0  0  0  0  0  0  0
  146.1843  132.9215  150.3241 H   0  0  0  0  0  0  0  0  0  0  0  0
  144.9836  135.4714  149.5694 H   0  0  0  0  0  0  0  0  0  0  0  0
  145.8972  134.4206  150.6605 H   0  0  0  0  0  0  0  0  0  0  0  0
  143.0211  134.5445  150.2748 H   0  0  0  0  0  0  0  0  0  0  0  0
  148.8169  142.7773  155.0054 H   0  0  0  0  0  0  0  0  0  0  0  0
  1  2  2  0  0  0  0
  2  3  1  0  0  0  0
  2 10  1  0  0  0  0
  3  4  1  0  0  0  0
  3 19  1  0  0  0  0
  4  9  1  0  0  0  0
  4  5  2  0  0  0  0
  5  6  1  0  0  0  0
  5 20  1  0  0  0  0
  6  7  2  0  0  0  0
  6 21  1  0  0  0  0
  7  8  1  0  0  0  0
  7 38  1  0  0  0  0
  8  9  2  0  0  0  0
  8 22  1  0  0  0  0
  9 23  1  0  0  0  0
 10 11  1  0  0  0  0
 10 24  1  0  0  0  0
 11 18  1  0  0  0  0
 11 12  1  0  0  0  0
 11 25  1  0  0  0  0
 12 13  1  0  0  0  0
 12 26  1  0  0  0  0
 12 27  1  0  0  0  0
 13 14  1  0  0  0  0
 13 28  1  0  0  0  0
 13 29  1  0  0  0  0
 14 15  1  0  0  0  0
 14 18  1  0  0  0  0
 14 37  1  0  0  0  0
 15 17  1  0  0  0  0
 15 16  1  0  0  0  0
 15 30  1  0  0  0  0
 16 17  1  0  0  0  0
 16 31  1  0  0  0  0
 16 32  1  0  0  0  0
 17 33  1  0  0  0  0
 17 34  1  0  0  0  0
 18 35  1  0  0  0  0
 18 36  1  0  0  0  0
M  CHG  1   7   1
M  CHG  1  14   1
M  END
> <s_m_source_file>
AV-unprocessed.smi

> <i_m_source_file_index>
3234

> <i_lp_mmshare_version>
43012

> <i_f3d_flags>
0

> <s_epik_input>
W2NIXTFbY0hdbltjSF1bY0hdYzFbTkhdQyg9TylbTkhdW0NAQEhdMltDSDJdW0NIMl1OKFtDSDJdMilbQ0hdM1tDSDJdW0NIMl0z

> <s_epik_cmdline>
J2VwaWtfcHl0aG9uJywgJy1waCcsICc3LjAnLCAnLXRuJywgJzgnLCAnLW1hJywgJzIwMCcsICctbWV0YWxfYmluZGluZycsICctaW1hZScsICc8aW5maWxlLm1hZT4nLCAnLW9tYWUnLCAnPG91dGZpbGUubWFlPic=

> <r_epik_Ionization_Penalty>
1.14489

> <r_epik_Ionization_Penalty_Charging>
1.14487

> <r_epik_Ionization_Penalty_Neutral>
1.95212e-05

> <r_epik_State_Penalty>
1.205

> <r_epik_Charging_Adjusted_Penalty>
2.34987

> <i_epik_Tot_Q>
2

> <i_epik_Tot_abs_Q>
2

> <r_epik_Metal_State_Penalty>
1.28709

> <b_epik_Metal_Only>
0

> <s_lp_Force_Field>
OPLS_2005

> <r_lp_Energy>
48.7284

> <b_lp_Chiralities_Consistent>
1

> <s_lp_Variant>
AV-unprocessed.smi:3234-7

> <Gold.Version>
5.8.1

> <Gold.Id.Protein>
6NUR|6NUR_protein|mol2

> <Gold.PLP.Fitness>
47.2141

> <Gold.PLP.PLP>
-32.7722

> <Gold.PLP.part.hbond>
-4.1252

> <Gold.PLP.part.metal>
0.0000

> <Gold.PLP.part.buried>
-4.0314

> <Gold.PLP.part.nonpolar>
-30.4151

> <Gold.PLP.part.repulsive>
4.4760

> <Gold.PLP.ligand.clash>
0.0000

> <Gold.PLP.ligand.torsion>
1.4529

> <Gold.PLP.Chemscore.Hbond>
5.3615

> <Gold.PLP.Chemscore.CHOScore>
0.0000

> <Gold.PLP.Chemscore.Metal>
0.0000

> <Gold.Chemscore.Hbonds>
donor molecule, donor type, donor heavy atom, donor atom, acceptor molecule, acceptor atom, score
      L1  H     3    19       P1  7948  1.00
      L1  H     7    38       P1  8028  1.98
      L1  H    10    24       P1  7948  0.92
      L1  H    14    37       P1 10186  1.43

> <Gold.PLP.Chemscore.Internal.Correction>
1.2632

> <Gold.Rescore>
     Score         DG    S(hbond)    S(metal)    S(lipo)     H(rot)  DE(clash)    DE(int)     intcor
     18.96     -23.27       3.27        0.00      85.53       1.22       1.66       2.65       ----

> <Gold.Chemscore.Fitness>
18.9599

> <Gold.Chemscore.DG>
-23.2719

> <Gold.Chemscore.ZeroCoef>
-5.4800

> <Gold.Chemscore.Hbond>
3.2695

> <Gold.Chemscore.Metal>
0.0000

> <Gold.Chemscore.Lipo>
85.5327

> <Gold.Chemscore.Internal_Hbond>
0.0000

> <Gold.Chemscore.DEClash>
1.6605

> <Gold.Chemscore.DEInternal>
2.6515

> <Gold.Chemscore.Rot>
1.2248

> <Gold.Chemscore.Internal.Correction>
   9.000000E+99

> <Gold.Chemscore.Hbonds>
donor molecule, donor type, donor heavy atom, donor atom, acceptor molecule, acceptor atom, score
      L1  H     3    19       P1  7948  1.00
      L1  H     7    38       P1  8028  0.92
      L1  H    10    24       P1  7948  0.84
      L1  H    14    37       P1 10186  0.47

> <Gold.Chemscore.Hbond.Weighted>
-10.9200

> <Gold.Chemscore.Metal.Weighted>
-0.0000

> <Gold.Chemscore.Lipo.Weighted>
-10.0073

> <Gold.Chemscore.Internal_Hbond.Weighted>
0.0000

> <Gold.Chemscore.DEClash.Weighted>
1.6605

> <Gold.Chemscore.DEInternal.Weighted>
2.6515

> <Gold.Chemscore.Rot.Weighted>
3.1355

> <Gold.Chemscore.Internal.Correction.Weighted>
   9.000000E+99

> <Gold.Protein.RotatedTorsions>
[ 6907 6896 6895 6894 ] final   34.91 input  -60.11 | X-H torsion
[ 7974 7965 7964 7962 ] final  -86.91 input  175.53 | X-H torsion
[ 8008 7997 7996 7995 ] final  -48.16 input   59.86 | X-H torsion
[ 10167 10162 10161 10158 ] final  146.13 input  -65.29 | X-H torsion
[ 10718 10713 10712 10709 ] final -131.73 input   66.30 | X-H torsion
[ 10763 10752 10751 10750 ] final  -75.78 input  -60.55 | X-H torsion
[ 11005 11000 10999 10996 ] final  -98.07 input  -57.11 | X-H torsion

> <Gold.Protein.ActiveResidues>
 VAL166  LYS551  ARG553  GLY616  TRP617  ASP618  TYR619  PRO620  LYS621  CYS622 
 ASP623  PHE694  ASN695  SER759  ASP760  ASP761  ALA762  ILE779  LEU786  VAL792 
 PHE793  MET794  SER795  GLU796  ALA797  LYS798  CYS799  TRP800  GLU811  SER814 

> <Gold.Protein.RotatedAtoms>
  152.1089  134.9288  160.0567 H   0  0  0  0  0  0  0  0  0  0  0  0  # atno 6907 bound_to 6896
  152.0473  133.3999  159.4370 H   0  0  0  0  0  0  0  0  0  0  0  0  # atno 6908 bound_to 6896
  150.6842  134.3268  159.4853 H   0  0  0  0  0  0  0  0  0  0  0  0  # atno 6909 bound_to 6896
  145.4735  140.9559  143.1904 H   0  0  0  0  0  0  0  0  0  0  0  0  # atno 7974 bound_to 7965
  154.4025  140.1328  156.4294 H   0  0  0  0  0  0  0  0  0  0  0  0  # atno 8008 bound_to 7997
  155.7565  140.3487  155.5156 H   0  0  0  0  0  0  0  0  0  0  0  0  # atno 8009 bound_to 7997
  155.8899  140.1001  157.1416 H   0  0  0  0  0  0  0  0  0  0  0  0  # atno 8010 bound_to 7997
  139.4913  144.5852  151.6792 H   0  0  0  0  0  0  0  0  0  0  0  0  # atno 10167 bound_to 10162
  156.2274  130.7016  151.0821 H   0  0  0  0  0  0  0  0  0  0  0  0  # atno 10718 bound_to 10713
  154.4911  135.5820  153.6460 H   0  0  0  0  0  0  0  0  0  0  0  0  # atno 10763 bound_to 10752
  152.9862  135.6113  154.3124 H   0  0  0  0  0  0  0  0  0  0  0  0  # atno 10764 bound_to 10752
  154.3023  135.2846  155.2584 H   0  0  0  0  0  0  0  0  0  0  0  0  # atno 10765 bound_to 10752
  141.1357  133.8218  157.0791 H   0  0  0  0  0  0  0  0  0  0  0  0  # atno 11005 bound_to 11000
  144.7931  139.6289  143.7104 LP  0  0  0  0  0  0  0  0  0  0  0  0  # atno 17320 bound_to 7965
  146.2383  139.5949  142.9509 LP  0  0  0  0  0  0  0  0  0  0  0  0  # atno 17321 bound_to 7965
  140.5467  144.0492  150.6110 LP  0  0  0  0  0  0  0  0  0  0  0  0  # atno 17342 bound_to 10162
  140.3533  143.2950  152.0464 LP  0  0  0  0  0  0  0  0  0  0  0  0  # atno 17343 bound_to 10162
  157.7117  131.0731  150.6477 LP  0  0  0  0  0  0  0  0  0  0  0  0  # atno 17370 bound_to 10713
  156.6543  130.4494  149.5709 LP  0  0  0  0  0  0  0  0  0  0  0  0  # atno 17371 bound_to 10713
  140.0463  134.9829  157.1054 LP  0  0  0  0  0  0  0  0  0  0  0  0  # atno 17394 bound_to 11000
  140.4058  134.2034  155.7163 LP  0  0  0  0  0  0  0  0  0  0  0  0  # atno 17395 bound_to 11000

$$$$
