AV-unprocessed.smi:2633|AV-procd|sdf|10253|dock3
  -GOLD-   2272014263D 1   1.00000     0.00000
 Structure written by MMmdl.
 36 38  0  0  0  0  0  0  0  0  2 V2000
  153.4002  139.1657  155.1446 O   0  0  0  0  0  0  0  0  0  0  0  0
  152.0223  139.0185  155.4061 C   0  0  0  0  0  0  0  0  0  0  0  0
  151.7270  139.4303  156.8548 C   0  0  0  0  0  0  0  0  0  0  0  0
  151.3400  140.8437  156.9510 N   0  0  0  0  0  0  0  0  0  0  0  0
  150.4880  141.5826  156.1829 C   0  0  0  0  0  0  0  0  0  0  0  0
  149.6994  141.1043  155.0032 C   0  0  0  0  0  0  0  0  0  0  0  0
  148.2686  141.6111  155.0075 C   0  0  0  0  0  0  0  0  0  0  0  0
  147.5554  141.6995  156.2218 C   0  0  0  0  0  0  0  0  0  0  0  0
  146.2321  142.1815  156.2312 C   0  0  0  0  0  0  0  0  0  0  0  0
  145.6170  142.5755  155.0270 C   0  0  0  0  0  0  0  0  0  0  0  0
  146.3256  142.4873  153.8132 C   0  0  0  0  0  0  0  0  0  0  0  0
  147.6492  142.0059  153.8027 C   0  0  0  0  0  0  0  0  0  0  0  0
  150.4864  142.8487  156.6920 N   0  3  0  0  0  0  0  0  0  0  0  0
  151.3279  142.9150  157.8025 C   0  0  0  0  0  0  0  0  0  0  0  0
  151.6392  143.9749  158.6486 C   0  0  0  0  0  0  0  0  0  0  0  0
  152.5381  143.7012  159.7004 C   0  0  0  0  0  0  0  0  0  0  0  0
  153.0901  142.4160  159.8792 C   0  0  0  0  0  0  0  0  0  0  0  0
  152.7674  141.3496  159.0140 C   0  0  0  0  0  0  0  0  0  0  0  0
  151.8784  141.6291  157.9764 C   0  0  0  0  0  0  0  0  0  0  0  0
  153.8240  138.3312  155.2780 H   0  0  0  0  0  0  0  0  0  0  0  0
  151.4581  139.6370  154.7071 H   0  0  0  0  0  0  0  0  0  0  0  0
  151.7373  137.9809  155.2304 H   0  0  0  0  0  0  0  0  0  0  0  0
  150.9355  138.8175  157.2875 H   0  0  0  0  0  0  0  0  0  0  0  0
  152.6070  139.2805  157.4811 H   0  0  0  0  0  0  0  0  0  0  0  0
  150.2055  141.4181  154.0896 H   0  0  0  0  0  0  0  0  0  0  0  0
  149.6820  140.0140  154.9923 H   0  0  0  0  0  0  0  0  0  0  0  0
  148.0234  141.4014  157.1490 H   0  0  0  0  0  0  0  0  0  0  0  0
  145.6891  142.2495  157.1625 H   0  0  0  0  0  0  0  0  0  0  0  0
  144.6021  142.9452  155.0344 H   0  0  0  0  0  0  0  0  0  0  0  0
  145.8542  142.7901  152.8898 H   0  0  0  0  0  0  0  0  0  0  0  0
  148.1868  141.9435  152.8677 H   0  0  0  0  0  0  0  0  0  0  0  0
  151.2161  144.9597  158.5148 H   0  0  0  0  0  0  0  0  0  0  0  0
  152.8086  144.4928  160.3842 H   0  0  0  0  0  0  0  0  0  0  0  0
  153.7749  142.2437  160.6970 H   0  0  0  0  0  0  0  0  0  0  0  0
  153.1936  140.3683  159.1610 H   0  0  0  0  0  0  0  0  0  0  0  0
  149.9375  143.6077  156.3088 H   0  0  0  0  0  0  0  0  0  0  0  0
  1  2  1  0  0  0  0
  1 20  1  0  0  0  0
  2  3  1  0  0  0  0
  2 21  1  0  0  0  0
  2 22  1  0  0  0  0
  3  4  1  0  0  0  0
  3 23  1  0  0  0  0
  3 24  1  0  0  0  0
  4 19  1  0  0  0  0
  4  5  1  0  0  0  0
  5  6  1  0  0  0  0
  5 13  2  0  0  0  0
  6  7  1  0  0  0  0
  6 25  1  0  0  0  0
  6 26  1  0  0  0  0
  7 12  1  0  0  0  0
  7  8  2  0  0  0  0
  8  9  1  0  0  0  0
  8 27  1  0  0  0  0
  9 10  2  0  0  0  0
  9 28  1  0  0  0  0
 10 11  1  0  0  0  0
 10 29  1  0  0  0  0
 11 12  2  0  0  0  0
 11 30  1  0  0  0  0
 12 31  1  0  0  0  0
 13 14  1  0  0  0  0
 13 36  1  0  0  0  0
 14 19  2  0  0  0  0
 14 15  1  0  0  0  0
 15 16  2  0  0  0  0
 15 32  1  0  0  0  0
 16 17  1  0  0  0  0
 16 33  1  0  0  0  0
 17 18  2  0  0  0  0
 17 34  1  0  0  0  0
 18 19  1  0  0  0  0
 18 35  1  0  0  0  0
M  CHG  1  13   1
M  END
> <s_m_source_file>
AV-unprocessed.smi

> <i_m_source_file_index>
2633

> <i_lp_mmshare_version>
43012

> <i_f3d_flags>
0

> <s_epik_input>
W2NIXTFbY0hdW2NIXVtjSF1jKGMxMiluKFtDSDJdW0NIMl1bT0hdKWMobjIpW0NIMl1jM1tjSF1bY0hdW2NIXVtjSF1bY0hdMw==

> <s_epik_cmdline>
J2VwaWtfcHl0aG9uJywgJy1waCcsICc3LjAnLCAnLXRuJywgJzgnLCAnLW1hJywgJzIwMCcsICctbWV0YWxfYmluZGluZycsICctaW1hZScsICc8aW5maWxlLm1hZT4nLCAnLW9tYWUnLCAnPG91dGZpbGUubWFlPic=

> <r_epik_Ionization_Penalty>
1.35779

> <r_epik_Ionization_Penalty_Charging>
1.35779

> <r_epik_Ionization_Penalty_Neutral>
5.76693e-08

> <r_epik_State_Penalty>
1.43641

> <r_epik_Charging_Adjusted_Penalty>
2.79419

> <i_epik_Tot_Q>
1

> <i_epik_Tot_abs_Q>
1

> <r_epik_Metal_State_Penalty>
5.47429

> <b_epik_Metal_Only>
0

> <s_lp_Force_Field>
OPLS_2005

> <r_lp_Energy>
16.7782

> <b_lp_Chiralities_Consistent>
1

> <s_lp_Variant>
AV-unprocessed.smi:2633-2

> <Gold.Version>
5.8.1

> <Gold.Id.Protein>
6NUR|6NUR_protein|mol2

> <Gold.PLP.Fitness>
53.2569

> <Gold.PLP.PLP>
-46.1246

> <Gold.PLP.part.hbond>
-2.0000

> <Gold.PLP.part.metal>
0.0000

> <Gold.PLP.part.buried>
-5.5524

> <Gold.PLP.part.nonpolar>
-38.2720

> <Gold.PLP.part.repulsive>
0.0509

> <Gold.PLP.ligand.clash>
0.0000

> <Gold.PLP.ligand.torsion>
0.9438

> <Gold.PLP.Chemscore.Hbond>
3.0000

> <Gold.PLP.Chemscore.CHOScore>
0.0000

> <Gold.PLP.Chemscore.Metal>
0.0000

> <Gold.Chemscore.Hbonds>
donor molecule, donor type, donor heavy atom, donor atom, acceptor molecule, acceptor atom, score
      L1  H    13    36       P1  8028  2.00
      P1  H  7997  8010       L1     1  1.00

> <Gold.PLP.Chemscore.Internal.Correction>
0.0199

> <Gold.Rescore>
     Score         DG    S(hbond)    S(metal)    S(lipo)     H(rot)  DE(clash)    DE(int)     intcor
     19.35     -20.17       1.91        0.00     115.19       2.02       0.03       0.78       ----

> <Gold.Chemscore.Fitness>
19.3534

> <Gold.Chemscore.DG>
-20.1674

> <Gold.Chemscore.ZeroCoef>
-5.4800

> <Gold.Chemscore.Hbond>
1.9112

> <Gold.Chemscore.Metal>
0.0000

> <Gold.Chemscore.Lipo>
115.1923

> <Gold.Chemscore.Internal_Hbond>
0.0000

> <Gold.Chemscore.DEClash>
0.0341

> <Gold.Chemscore.DEInternal>
0.7798

> <Gold.Chemscore.Rot>
2.0209

> <Gold.Chemscore.Internal.Correction>
   9.000000E+99

> <Gold.Chemscore.Hbonds>
donor molecule, donor type, donor heavy atom, donor atom, acceptor molecule, acceptor atom, score
      L1  H    13    36       P1  8028  1.00
      P1  H  7997  8010       L1     1  0.24

> <Gold.Chemscore.Hbond.Weighted>
-6.3834

> <Gold.Chemscore.Metal.Weighted>
-0.0000

> <Gold.Chemscore.Lipo.Weighted>
-13.4775

> <Gold.Chemscore.Internal_Hbond.Weighted>
0.0000

> <Gold.Chemscore.DEClash.Weighted>
0.0341

> <Gold.Chemscore.DEInternal.Weighted>
0.7798

> <Gold.Chemscore.Rot.Weighted>
5.1735

> <Gold.Chemscore.Internal.Correction.Weighted>
   9.000000E+99

> <Gold.Protein.RotatedTorsions>
[ 6907 6896 6895 6894 ] final  112.31 input  -60.11 | X-H torsion
[ 7974 7965 7964 7962 ] final  -15.67 input  175.53 | X-H torsion
[ 8008 7997 7996 7995 ] final   89.11 input   59.86 | X-H torsion
[ 10167 10162 10161 10158 ] final  -65.18 input  -65.29 | X-H torsion
[ 10718 10713 10712 10709 ] final   14.77 input   66.30 | X-H torsion
[ 10763 10752 10751 10750 ] final  124.02 input  -60.55 | X-H torsion
[ 11005 11000 10999 10996 ] final   -6.02 input  -57.11 | X-H torsion

> <Gold.Protein.ActiveResidues>
 VAL166  LYS551  ARG553  GLY616  TRP617  ASP618  TYR619  PRO620  LYS621  CYS622 
 ASP623  PHE694  ASN695  SER759  ASP760  ASP761  ALA762  ILE779  LEU786  VAL792 
 PHE793  MET794  SER795  GLU796  ALA797  LYS798  CYS799  TRP800  GLU811  SER814 

> <Gold.Protein.RotatedAtoms>
  152.4923  133.8534  159.7212 H   0  0  0  0  0  0  0  0  0  0  0  0  # atno 6907 bound_to 6896
  150.9065  133.7043  159.2872 H   0  0  0  0  0  0  0  0  0  0  0  0  # atno 6908 bound_to 6896
  151.4467  135.1030  159.9738 H   0  0  0  0  0  0  0  0  0  0  0  0  # atno 6909 bound_to 6896
  146.2022  140.3526  142.8419 H   0  0  0  0  0  0  0  0  0  0  0  0  # atno 7974 bound_to 7965
  155.9959  140.3364  155.6798 H   0  0  0  0  0  0  0  0  0  0  0  0  # atno 8008 bound_to 7997
  155.6356  140.0690  157.2653 H   0  0  0  0  0  0  0  0  0  0  0  0  # atno 8009 bound_to 7997
  154.4234  140.1752  156.1506 H   0  0  0  0  0  0  0  0  0  0  0  0  # atno 8010 bound_to 7997
  140.5748  143.2321  151.6464 H   0  0  0  0  0  0  0  0  0  0  0  0  # atno 10167 bound_to 10162
  157.0439  130.6242  149.5756 H   0  0  0  0  0  0  0  0  0  0  0  0  # atno 10718 bound_to 10713
  153.6548  135.3356  155.3110 H   0  0  0  0  0  0  0  0  0  0  0  0  # atno 10763 bound_to 10752
  154.8529  135.4349  154.1866 H   0  0  0  0  0  0  0  0  0  0  0  0  # atno 10764 bound_to 10752
  153.2818  135.7009  153.7453 H   0  0  0  0  0  0  0  0  0  0  0  0  # atno 10765 bound_to 10752
  140.6975  133.9018  155.8660 H   0  0  0  0  0  0  0  0  0  0  0  0  # atno 11005 bound_to 11000
  144.8709  140.7271  143.6047 LP  0  0  0  0  0  0  0  0  0  0  0  0  # atno 17320 bound_to 7965
  145.3445  139.1723  143.4468 LP  0  0  0  0  0  0  0  0  0  0  0  0  # atno 17321 bound_to 7965
  139.5137  144.3435  152.0718 LP  0  0  0  0  0  0  0  0  0  0  0  0  # atno 17342 bound_to 10162
  140.2577  144.4101  150.6197 LP  0  0  0  0  0  0  0  0  0  0  0  0  # atno 17343 bound_to 10162
  156.0029  130.5111  150.7727 LP  0  0  0  0  0  0  0  0  0  0  0  0  # atno 17370 bound_to 10713
  157.5083  131.0923  151.0230 LP  0  0  0  0  0  0  0  0  0  0  0  0  # atno 17371 bound_to 10713
  141.0191  134.0914  157.4140 LP  0  0  0  0  0  0  0  0  0  0  0  0  # atno 17394 bound_to 11000
  139.8906  135.0113  156.6745 LP  0  0  0  0  0  0  0  0  0  0  0  0  # atno 17395 bound_to 11000

$$$$
