AV-unprocessed.smi:2862|AV-procd|sdf|11010|dock7
  -GOLD-   2272015473D 1   1.00000     0.00000
 Structure written by MMmdl.
 52 54  0  0  0  0  0  0  0  0  1 V2000
  147.3850  136.8128  162.8320 C   0  0  0  0  0  0  0  0  0  0  0  0
  147.9501  135.9953  161.6600 C   0  0  2  0  0  0  0  0  0  0  0  0
  148.0753  136.8367  160.4771 N   0  0  0  0  0  0  0  0  0  0  0  0
  148.5163  136.4533  159.2665 C   0  0  0  0  0  0  0  0  0  0  0  0
  148.9374  135.3205  159.0366 O   0  0  0  0  0  0  0  0  0  0  0  0
  148.4709  137.4854  158.1240 C   0  0  0  0  0  0  0  0  0  0  0  0
  149.7959  137.8947  157.6195 N   0  0  0  0  0  0  0  0  0  0  0  0
  150.2919  137.1985  156.4987 C   0  0  0  0  0  0  0  0  0  0  0  0
  151.5093  137.4404  155.9890 C   0  0  0  0  0  0  0  0  0  0  0  0
  152.3304  138.4417  156.6242 C   0  0  0  0  0  0  0  0  0  0  0  0
  151.8711  139.1040  157.7096 C   0  0  0  0  0  0  0  0  0  0  0  0
  152.6524  140.1528  158.3737 C   0  0  0  0  0  0  0  0  0  0  0  0
  153.7489  139.9314  158.8908 O   0  0  0  0  0  0  0  0  0  0  0  0
  152.0756  141.3891  158.4048 N   0  0  0  0  0  0  0  0  0  0  0  0
  150.9970  141.8006  157.4890 C   0  0  0  0  0  0  0  0  0  0  0  0
  152.5899  142.4920  159.2464 C   0  0  1  0  0  0  0  0  0  0  0  0
  152.0733  143.8658  158.7735 C   0  0  0  0  0  0  0  0  0  0  0  0
  152.3704  142.3034  160.7417 C   0  0  0  0  0  0  0  0  0  0  0  0
  152.5674  143.4476  161.7068 C   0  0  0  0  0  0  0  0  0  0  0  0
  153.5321  142.2823  161.7050 C   0  0  0  0  0  0  0  0  0  0  0  0
  150.5140  138.8756  158.2525 C   0  0  0  0  0  0  0  0  0  0  0  0
  150.0468  139.4764  159.2242 O   0  0  0  0  0  0  0  0  0  0  0  0
  147.0957  134.7713  161.3901 C   0  0  0  0  0  0  0  0  0  0  0  0
  146.2988  134.1114  162.4891 C   0  0  0  0  0  0  0  0  0  0  0  0
  147.5035  133.4104  161.8995 C   0  0  0  0  0  0  0  0  0  0  0  0
  147.3066  136.2025  163.7320 H   0  0  0  0  0  0  0  0  0  0  0  0
  146.3904  137.1975  162.6042 H   0  0  0  0  0  0  0  0  0  0  0  0
  148.0251  137.6633  163.0688 H   0  0  0  0  0  0  0  0  0  0  0  0
  148.9452  135.6433  161.9385 H   0  0  0  0  0  0  0  0  0  0  0  0
  147.7564  137.7898  160.5731 H   0  0  0  0  0  0  0  0  0  0  0  0
  147.8684  137.0666  157.3169 H   0  0  0  0  0  0  0  0  0  0  0  0
  147.9126  138.3589  158.4655 H   0  0  0  0  0  0  0  0  0  0  0  0
  149.6256  136.4540  156.0874 H   0  0  0  0  0  0  0  0  0  0  0  0
  151.8698  136.8917  155.1314 H   0  0  0  0  0  0  0  0  0  0  0  0
  153.3108  138.6546  156.2223 H   0  0  0  0  0  0  0  0  0  0  0  0
  151.0243  141.2657  156.5385 H   0  0  0  0  0  0  0  0  0  0  0  0
  151.0641  142.8570  157.2270 H   0  0  0  0  0  0  0  0  0  0  0  0
  150.0232  141.6360  157.9509 H   0  0  0  0  0  0  0  0  0  0  0  0
  153.6701  142.5480  159.1016 H   0  0  0  0  0  0  0  0  0  0  0  0
  152.5949  144.6718  159.2904 H   0  0  0  0  0  0  0  0  0  0  0  0
  151.0089  143.9998  158.9648 H   0  0  0  0  0  0  0  0  0  0  0  0
  152.2418  144.0021  157.7048 H   0  0  0  0  0  0  0  0  0  0  0  0
  151.5457  141.6374  160.9865 H   0  0  0  0  0  0  0  0  0  0  0  0
  152.9242  144.3948  161.3072 H   0  0  0  0  0  0  0  0  0  0  0  0
  151.8728  143.5251  162.5408 H   0  0  0  0  0  0  0  0  0  0  0  0
  153.4797  141.5816  162.5357 H   0  0  0  0  0  0  0  0  0  0  0  0
  154.5286  142.4568  161.3046 H   0  0  0  0  0  0  0  0  0  0  0  0
  146.6238  134.7809  160.4090 H   0  0  0  0  0  0  0  0  0  0  0  0
  146.3948  134.5103  163.4972 H   0  0  0  0  0  0  0  0  0  0  0  0
  145.3149  133.7242  162.2322 H   0  0  0  0  0  0  0  0  0  0  0  0
  147.3245  132.5584  161.2467 H   0  0  0  0  0  0  0  0  0  0  0  0
  148.3994  133.3471  162.5141 H   0  0  0  0  0  0  0  0  0  0  0  0
  1  2  1  0  0  0  0
  1 26  1  0  0  0  0
  1 27  1  0  0  0  0
  1 28  1  0  0  0  0
  2  3  1  0  0  0  0
  2 23  1  0  0  0  0
  2 29  1  0  0  0  0
  3  4  1  0  0  0  0
  3 30  1  0  0  0  0
  4  5  2  0  0  0  0
  4  6  1  0  0  0  0
  6  7  1  0  0  0  0
  6 31  1  0  0  0  0
  6 32  1  0  0  0  0
  7 21  1  0  0  0  0
  7  8  1  0  0  0  0
  8  9  2  0  0  0  0
  8 33  1  0  0  0  0
  9 10  1  0  0  0  0
  9 34  1  0  0  0  0
 10 11  2  0  0  0  0
 10 35  1  0  0  0  0
 11 12  1  0  0  0  0
 11 21  1  0  0  0  0
 12 13  2  0  0  0  0
 12 14  1  0  0  0  0
 14 15  1  0  0  0  0
 14 16  1  0  0  0  0
 15 36  1  0  0  0  0
 15 37  1  0  0  0  0
 15 38  1  0  0  0  0
 16 17  1  0  0  0  0
 16 18  1  0  0  0  0
 16 39  1  0  0  0  0
 17 40  1  0  0  0  0
 17 41  1  0  0  0  0
 17 42  1  0  0  0  0
 18 20  1  0  0  0  0
 18 19  1  0  0  0  0
 18 43  1  0  0  0  0
 19 20  1  0  0  0  0
 19 44  1  0  0  0  0
 19 45  1  0  0  0  0
 20 46  1  0  0  0  0
 20 47  1  0  0  0  0
 21 22  2  0  0  0  0
 23 25  1  0  0  0  0
 23 24  1  0  0  0  0
 23 48  1  0  0  0  0
 24 25  1  0  0  0  0
 24 49  1  0  0  0  0
 24 50  1  0  0  0  0
 25 51  1  0  0  0  0
 25 52  1  0  0  0  0
M  END
> <s_m_source_file>
AV-unprocessed.smi

> <i_m_source_file_index>
2862

> <i_lp_mmshare_version>
43012

> <i_f3d_flags>
0

> <s_epik_input>
W0NIMl0xW0NIMl1bQ0hdMVtDQEhdKFtDSDNdKVtOSF1DKD1PKVtDSDJdbjJbY0hdW2NIXVtjSF1jKGMyPU8pQyg9TylOKFtDSDNdKVtDQEhdKFtDSDNdKVtDSF0zW0NIMl1bQ0gyXTM=

> <s_epik_cmdline>
J2VwaWtfcHl0aG9uJywgJy1waCcsICc3LjAnLCAnLXRuJywgJzgnLCAnLW1hJywgJzIwMCcsICctbWV0YWxfYmluZGluZycsICctaW1hZScsICc8aW5maWxlLm1hZT4nLCAnLW9tYWUnLCAnPG91dGZpbGUubWFlPic=

> <r_lp_tautomer_probability>
1

> <r_epik_Ionization_Penalty>
4.00841e-08

> <r_epik_Ionization_Penalty_Charging>
2.07773e-08

> <r_epik_Ionization_Penalty_Neutral>
1.93069e-08

> <r_epik_State_Penalty>
-0

> <r_epik_Charging_Adjusted_Penalty>
2.07773e-08

> <i_epik_Tot_Q>
0

> <i_epik_Tot_abs_Q>
0

> <r_epik_Metal_State_Penalty>
-0

> <b_epik_Metal_Only>
0

> <s_lp_Force_Field>
OPLS_2005

> <r_lp_Energy>
59.7867

> <b_lp_Chiralities_Consistent>
1

> <s_lp_Variant>
AV-unprocessed.smi:2862-3

> <Gold.Version>
5.8.1

> <Gold.Id.Protein>
6NUR|6NUR_protein|mol2

> <Gold.PLP.Fitness>
48.5755

> <Gold.PLP.PLP>
-48.8500

> <Gold.PLP.part.hbond>
-3.5217

> <Gold.PLP.part.metal>
0.0000

> <Gold.PLP.part.buried>
-2.8092

> <Gold.PLP.part.nonpolar>
-42.0894

> <Gold.PLP.part.repulsive>
0.4648

> <Gold.PLP.ligand.clash>
3.2339

> <Gold.PLP.ligand.torsion>
3.6970

> <Gold.PLP.Chemscore.Hbond>
2.0000

> <Gold.PLP.Chemscore.CHOScore>
0.0000

> <Gold.PLP.Chemscore.Metal>
0.0000

> <Gold.Chemscore.Hbonds>
donor molecule, donor type, donor heavy atom, donor atom, acceptor molecule, acceptor atom, score
      P1  H  6896  6907       L1     5  1.00
      P1  H  7997  8008       L1    13  0.99

> <Gold.PLP.Chemscore.Internal.Correction>
4.3533

> <Gold.Rescore>
     Score         DG    S(hbond)    S(metal)    S(lipo)     H(rot)  DE(clash)    DE(int)     intcor
     16.22     -21.30       1.66        0.00     125.88       1.73       0.09       5.00       ----

> <Gold.Chemscore.Fitness>
16.2168

> <Gold.Chemscore.DG>
-21.3048

> <Gold.Chemscore.ZeroCoef>
-5.4800

> <Gold.Chemscore.Hbond>
1.6582

> <Gold.Chemscore.Metal>
0.0000

> <Gold.Chemscore.Lipo>
125.8750

> <Gold.Chemscore.Internal_Hbond>
0.0000

> <Gold.Chemscore.DEClash>
0.0858

> <Gold.Chemscore.DEInternal>
5.0023

> <Gold.Chemscore.Rot>
1.7348

> <Gold.Chemscore.Internal.Correction>
   9.000000E+99

> <Gold.Chemscore.Hbonds>
donor molecule, donor type, donor heavy atom, donor atom, acceptor molecule, acceptor atom, score
      P1  H  6896  6907       L1     5  0.93
      P1  H  7997  8008       L1    13  0.31

> <Gold.Chemscore.Hbond.Weighted>
-5.5385

> <Gold.Chemscore.Metal.Weighted>
-0.0000

> <Gold.Chemscore.Lipo.Weighted>
-14.7274

> <Gold.Chemscore.Internal_Hbond.Weighted>
0.0000

> <Gold.Chemscore.DEClash.Weighted>
0.0858

> <Gold.Chemscore.DEInternal.Weighted>
5.0023

> <Gold.Chemscore.Rot.Weighted>
4.4412

> <Gold.Chemscore.Internal.Correction.Weighted>
   9.000000E+99

> <Gold.Protein.RotatedTorsions>
[ 6907 6896 6895 6894 ] final  -87.92 input  -60.11 | X-H torsion
[ 7974 7965 7964 7962 ] final  -69.91 input  175.53 | X-H torsion
[ 8008 7997 7996 7995 ] final -113.53 input   59.86 | X-H torsion
[ 10167 10162 10161 10158 ] final   22.60 input  -65.29 | X-H torsion
[ 10718 10713 10712 10709 ] final -134.85 input   66.30 | X-H torsion
[ 10763 10752 10751 10750 ] final  114.31 input  -60.55 | X-H torsion
[ 11005 11000 10999 10996 ] final -177.63 input  -57.11 | X-H torsion

> <Gold.Protein.ActiveResidues>
 VAL166  LYS551  ARG553  GLY616  TRP617  ASP618  TYR619  PRO620  LYS621  CYS622 
 ASP623  PHE694  ASN695  SER759  ASP760  ASP761  ALA762  ILE779  LEU786  VAL792 
 PHE793  MET794  SER795  GLU796  ALA797  LYS798  CYS799  TRP800  GLU811  SER814 

> <Gold.Protein.RotatedAtoms>
  150.6867  134.2821  159.4631 H   0  0  0  0  0  0  0  0  0  0  0  0  # atno 6907 bound_to 6896
  152.0734  134.9516  160.0583 H   0  0  0  0  0  0  0  0  0  0  0  0  # atno 6908 bound_to 6896
  152.0897  133.4159  159.4575 H   0  0  0  0  0  0  0  0  0  0  0  0  # atno 6909 bound_to 6896
  145.6978  140.9128  143.0747 H   0  0  0  0  0  0  0  0  0  0  0  0  # atno 7974 bound_to 7965
  155.0221  140.0393  157.2441 H   0  0  0  0  0  0  0  0  0  0  0  0  # atno 8008 bound_to 7997
  154.7369  140.2741  155.6384 H   0  0  0  0  0  0  0  0  0  0  0  0  # atno 8009 bound_to 7997
  156.2855  140.2673  156.2085 H   0  0  0  0  0  0  0  0  0  0  0  0  # atno 8010 bound_to 7997
  140.5335  143.9800  150.6479 H   0  0  0  0  0  0  0  0  0  0  0  0  # atno 10167 bound_to 10162
  156.2598  130.7203  151.1133 H   0  0  0  0  0  0  0  0  0  0  0  0  # atno 10718 bound_to 10713
  153.5055  135.3629  155.2561 H   0  0  0  0  0  0  0  0  0  0  0  0  # atno 10763 bound_to 10752
  154.8745  135.4010  154.3429 H   0  0  0  0  0  0  0  0  0  0  0  0  # atno 10764 bound_to 10752
  153.4073  135.7077  153.6450 H   0  0  0  0  0  0  0  0  0  0  0  0  # atno 10765 bound_to 10752
  140.4388  134.6451  157.4747 H   0  0  0  0  0  0  0  0  0  0  0  0  # atno 11005 bound_to 11000
  144.6977  139.8907  143.7453 LP  0  0  0  0  0  0  0  0  0  0  0  0  # atno 17320 bound_to 7965
  146.0825  139.3813  143.0455 LP  0  0  0  0  0  0  0  0  0  0  0  0  # atno 17321 bound_to 7965
  140.3181  143.3154  152.0811 LP  0  0  0  0  0  0  0  0  0  0  0  0  # atno 17342 bound_to 10162
  139.4963  144.6592  151.6504 LP  0  0  0  0  0  0  0  0  0  0  0  0  # atno 17343 bound_to 10162
  157.7246  131.0658  150.5987 LP  0  0  0  0  0  0  0  0  0  0  0  0  # atno 17370 bound_to 10713
  156.6074  130.4370  149.5873 LP  0  0  0  0  0  0  0  0  0  0  0  0  # atno 17371 bound_to 10713
  140.0084  134.6728  155.9419 LP  0  0  0  0  0  0  0  0  0  0  0  0  # atno 17394 bound_to 11000
  141.1714  133.6537  156.4667 LP  0  0  0  0  0  0  0  0  0  0  0  0  # atno 17395 bound_to 11000

$$$$
