AV-unprocessed.smi:3056|AV-procd|sdf|11659|dock8
  -GOLD-   2272017 63D 1   1.00000     0.00000
 Structure written by MMmdl.
 47 48  0  0  0  0  0  0  0  0  1 V2000
  153.0897  142.7110  161.1819 C   0  0  0  0  0  0  0  0  0  0  0  0
  152.9105  141.6624  160.1223 C   0  0  0  0  0  0  0  0  0  0  0  0
  153.9044  140.8237  159.5426 C   0  0  0  0  0  0  0  0  0  0  0  0
  153.4162  140.0091  158.6223 N   0  0  0  0  0  0  0  0  0  0  0  0
  152.0940  140.2912  158.5839 N   0  0  0  0  0  0  0  0  0  0  0  0
  151.2173  139.6010  157.6445 C   0  0  2  0  0  0  0  0  0  0  0  0
  151.6319  139.9373  156.1984 C   0  0  0  0  0  0  0  0  0  0  0  0
  149.7162  139.8903  157.9348 C   0  0  1  0  0  0  0  0  0  0  0  0
  149.2601  141.2604  157.4024 C   0  0  0  0  0  0  0  0  0  0  0  0
  148.8702  138.8977  157.2670 N   0  0  0  0  0  0  0  0  0  0  0  0
  149.3126  137.4979  157.4135 C   0  0  0  0  0  0  0  0  0  0  0  0
  149.4259  136.9839  158.8630 C   0  0  0  0  0  0  0  0  0  0  0  0
  150.5341  136.6734  159.3040 O   0  0  0  0  0  0  0  0  0  0  0  0
  148.3045  136.9032  159.6196 N   0  0  0  0  0  0  0  0  0  0  0  0
  146.9712  137.2397  159.1126 C   0  0  0  0  0  0  0  0  0  0  0  0
  146.1222  135.9567  159.0985 C   0  0  0  0  0  0  0  0  0  0  0  0
  146.0657  135.4069  160.4127 O   0  0  0  0  0  0  0  0  0  0  0  0
  147.3493  135.0927  160.9509 C   0  0  2  0  0  0  0  0  0  0  0  0
  147.1496  134.4934  162.3473 C   0  0  0  0  0  0  0  0  0  0  0  0
  148.2130  136.3699  160.9830 C   0  0  0  0  0  0  0  0  0  0  0  0
  151.7645  141.2855  159.4816 C   0  0  0  0  0  0  0  0  0  0  0  0
  154.1406  142.8662  161.4262 H   0  0  0  0  0  0  0  0  0  0  0  0
  152.5819  142.4383  162.1071 H   0  0  0  0  0  0  0  0  0  0  0  0
  152.6886  143.6741  160.8654 H   0  0  0  0  0  0  0  0  0  0  0  0
  154.9620  140.7871  159.7585 H   0  0  0  0  0  0  0  0  0  0  0  0
  151.3882  138.5319  157.7823 H   0  0  0  0  0  0  0  0  0  0  0  0
  151.1356  139.2888  155.4769 H   0  0  0  0  0  0  0  0  0  0  0  0
  152.7051  139.8029  156.0586 H   0  0  0  0  0  0  0  0  0  0  0  0
  151.3901  140.9690  155.9412 H   0  0  0  0  0  0  0  0  0  0  0  0
  149.5493  139.8841  159.0128 H   0  0  0  0  0  0  0  0  0  0  0  0
  149.7517  142.0787  157.9280 H   0  0  0  0  0  0  0  0  0  0  0  0
  148.1871  141.4002  157.5400 H   0  0  0  0  0  0  0  0  0  0  0  0
  149.4745  141.3680  156.3385 H   0  0  0  0  0  0  0  0  0  0  0  0
  148.7498  139.1572  156.2988 H   0  0  0  0  0  0  0  0  0  0  0  0
  148.5961  136.8625  156.8924 H   0  0  0  0  0  0  0  0  0  0  0  0
  150.2672  137.3765  156.9059 H   0  0  0  0  0  0  0  0  0  0  0  0
  146.5139  137.9871  159.7625 H   0  0  0  0  0  0  0  0  0  0  0  0
  146.9913  137.6797  158.1148 H   0  0  0  0  0  0  0  0  0  0  0  0
  145.1086  136.1769  158.7636 H   0  0  0  0  0  0  0  0  0  0  0  0
  146.5364  135.2236  158.4043 H   0  0  0  0  0  0  0  0  0  0  0  0
  147.8265  134.3442  160.3158 H   0  0  0  0  0  0  0  0  0  0  0  0
  148.1045  134.2259  162.8001 H   0  0  0  0  0  0  0  0  0  0  0  0
  146.5403  133.5907  162.3002 H   0  0  0  0  0  0  0  0  0  0  0  0
  146.6497  135.1989  163.0117 H   0  0  0  0  0  0  0  0  0  0  0  0
  149.1767  136.1398  161.4331 H   0  0  0  0  0  0  0  0  0  0  0  0
  147.7551  137.1208  161.6291 H   0  0  0  0  0  0  0  0  0  0  0  0
  150.7514  141.6462  159.5831 H   0  0  0  0  0  0  0  0  0  0  0  0
  1  2  1  0  0  0  0
  1 22  1  0  0  0  0
  1 23  1  0  0  0  0
  1 24  1  0  0  0  0
  2 21  2  0  0  0  0
  2  3  1  0  0  0  0
  3  4  2  0  0  0  0
  3 25  1  0  0  0  0
  4  5  1  0  0  0  0
  5  6  1  0  0  0  0
  5 21  1  0  0  0  0
  6  7  1  0  0  0  0
  6  8  1  0  0  0  0
  6 26  1  0  0  0  0
  7 27  1  0  0  0  0
  7 28  1  0  0  0  0
  7 29  1  0  0  0  0
  8  9  1  0  0  0  0
  8 10  1  0  0  0  0
  8 30  1  0  0  0  0
  9 31  1  0  0  0  0
  9 32  1  0  0  0  0
  9 33  1  0  0  0  0
 10 11  1  0  0  0  0
 10 34  1  0  0  0  0
 11 12  1  0  0  0  0
 11 35  1  0  0  0  0
 11 36  1  0  0  0  0
 12 13  2  0  0  0  0
 12 14  1  0  0  0  0
 14 20  1  0  0  0  0
 14 15  1  0  0  0  0
 15 16  1  0  0  0  0
 15 37  1  0  0  0  0
 15 38  1  0  0  0  0
 16 17  1  0  0  0  0
 16 39  1  0  0  0  0
 16 40  1  0  0  0  0
 17 18  1  0  0  0  0
 18 19  1  0  0  0  0
 18 20  1  0  0  0  0
 18 41  1  0  0  0  0
 19 42  1  0  0  0  0
 19 43  1  0  0  0  0
 19 44  1  0  0  0  0
 20 45  1  0  0  0  0
 20 46  1  0  0  0  0
 21 47  1  0  0  0  0
M  END
> <s_m_source_file>
AV-unprocessed.smi

> <i_m_source_file_index>
3056

> <i_lp_mmshare_version>
43012

> <i_f3d_flags>
0

> <s_epik_input>
W0NIM11jMVtjSF1ubihbY0hdMSlbQ0BIXShbQ0gzXSlbQ0BIXShbQ0gzXSlbTkhdW0NIMl1DKD1PKU4yW0NIMl1bQ0gyXU9bQ0BASF0oW0NIM10pW0NIMl0y

> <s_epik_cmdline>
J2VwaWtfcHl0aG9uJywgJy1waCcsICc3LjAnLCAnLXRuJywgJzgnLCAnLW1hJywgJzIwMCcsICctbWV0YWxfYmluZGluZycsICctaW1hZScsICc8aW5maWxlLm1hZT4nLCAnLW9tYWUnLCAnPG91dGZpbGUubWFlPic=

> <r_lp_tautomer_probability>
1

> <r_epik_Ionization_Penalty>
0.667689

> <r_epik_Ionization_Penalty_Charging>
0

> <r_epik_Ionization_Penalty_Neutral>
0.667689

> <r_epik_State_Penalty>
0.684601

> <r_epik_Charging_Adjusted_Penalty>
0.684601

> <i_epik_Tot_Q>
0

> <i_epik_Tot_abs_Q>
0

> <r_epik_Metal_State_Penalty>
0.681448

> <b_epik_Metal_Only>
0

> <s_lp_Force_Field>
OPLS_2005

> <r_lp_Energy>
30.5855

> <b_lp_Chiralities_Consistent>
1

> <s_lp_Variant>
AV-unprocessed.smi:3056-15

> <Gold.Version>
5.8.1

> <Gold.Id.Protein>
6NUR|6NUR_protein|mol2

> <Gold.PLP.Fitness>
40.1362

> <Gold.PLP.PLP>
-35.0084

> <Gold.PLP.part.hbond>
-2.0000

> <Gold.PLP.part.metal>
0.0000

> <Gold.PLP.part.buried>
-4.2009

> <Gold.PLP.part.nonpolar>
-28.1248

> <Gold.PLP.part.repulsive>
0.0000

> <Gold.PLP.ligand.clash>
0.0000

> <Gold.PLP.ligand.torsion>
0.4845

> <Gold.PLP.Chemscore.Hbond>
2.0000

> <Gold.PLP.Chemscore.CHOScore>
0.0000

> <Gold.PLP.Chemscore.Metal>
0.0000

> <Gold.Chemscore.Hbonds>
donor molecule, donor type, donor heavy atom, donor atom, acceptor molecule, acceptor atom, score
      P1  H  6896  6909       L1    13  1.00
      P1  H  7997  8009       L1     4  1.00

> <Gold.PLP.Chemscore.Internal.Correction>
0.0967

> <Gold.Rescore>
     Score         DG    S(hbond)    S(metal)    S(lipo)     H(rot)  DE(clash)    DE(int)     intcor
     16.05     -16.46       1.72        0.00      81.40       1.68       0.03       0.38       ----

> <Gold.Chemscore.Fitness>
16.0453

> <Gold.Chemscore.DG>
-16.4575

> <Gold.Chemscore.ZeroCoef>
-5.4800

> <Gold.Chemscore.Hbond>
1.7222

> <Gold.Chemscore.Metal>
0.0000

> <Gold.Chemscore.Lipo>
81.4046

> <Gold.Chemscore.Internal_Hbond>
0.0000

> <Gold.Chemscore.DEClash>
0.0331

> <Gold.Chemscore.DEInternal>
0.3791

> <Gold.Chemscore.Rot>
1.6793

> <Gold.Chemscore.Internal.Correction>
   9.000000E+99

> <Gold.Chemscore.Hbonds>
donor molecule, donor type, donor heavy atom, donor atom, acceptor molecule, acceptor atom, score
      P1  H  6896  6909       L1    13  0.98
      P1  H  7997  8009       L1     4  0.62

> <Gold.Chemscore.Hbond.Weighted>
-5.7522

> <Gold.Chemscore.Metal.Weighted>
-0.0000

> <Gold.Chemscore.Lipo.Weighted>
-9.5243

> <Gold.Chemscore.Internal_Hbond.Weighted>
0.0000

> <Gold.Chemscore.DEClash.Weighted>
0.0331

> <Gold.Chemscore.DEInternal.Weighted>
0.3791

> <Gold.Chemscore.Rot.Weighted>
4.2990

> <Gold.Chemscore.Internal.Correction.Weighted>
   9.000000E+99

> <Gold.Protein.RotatedTorsions>
[ 6907 6896 6895 6894 ] final   77.47 input  -60.11 | X-H torsion
[ 7974 7965 7964 7962 ] final -156.33 input  175.53 | X-H torsion
[ 8008 7997 7996 7995 ] final  151.27 input   59.86 | X-H torsion
[ 10167 10162 10161 10158 ] final   31.74 input  -65.29 | X-H torsion
[ 10718 10713 10712 10709 ] final  160.43 input   66.30 | X-H torsion
[ 10763 10752 10751 10750 ] final -157.87 input  -60.55 | X-H torsion
[ 11005 11000 10999 10996 ] final   31.52 input  -57.11 | X-H torsion

> <Gold.Protein.ActiveResidues>
 VAL166  LYS551  ARG553  GLY616  TRP617  ASP618  TYR619  PRO620  LYS621  CYS622 
 ASP623  PHE694  ASN695  SER759  ASP760  ASP761  ALA762  ILE779  LEU786  VAL792 
 PHE793  MET794  SER795  GLU796  ALA797  LYS798  CYS799  TRP800  GLU811  SER814 

> <Gold.Protein.RotatedAtoms>
  152.5119  134.3811  159.9351 H   0  0  0  0  0  0  0  0  0  0  0  0  # atno 6907 bound_to 6896
  151.3768  133.3829  159.2713 H   0  0  0  0  0  0  0  0  0  0  0  0  # atno 6908 bound_to 6896
  150.9535  134.8952  159.7745 H   0  0  0  0  0  0  0  0  0  0  0  0  # atno 6909 bound_to 6896
  144.7598  140.4125  143.5985 H   0  0  0  0  0  0  0  0  0  0  0  0  # atno 7974 bound_to 7965
  156.2681  140.2052  156.6150 H   0  0  0  0  0  0  0  0  0  0  0  0  # atno 8008 bound_to 7997
  154.6802  140.0541  157.0282 H   0  0  0  0  0  0  0  0  0  0  0  0  # atno 8009 bound_to 7997
  155.1012  140.3206  155.4549 H   0  0  0  0  0  0  0  0  0  0  0  0  # atno 8010 bound_to 7997
  140.4561  144.0976  150.6202 H   0  0  0  0  0  0  0  0  0  0  0  0  # atno 10167 bound_to 10162
  157.1506  131.0563  151.2282 H   0  0  0  0  0  0  0  0  0  0  0  0  # atno 10718 bound_to 10713
  154.7602  135.3115  154.8393 H   0  0  0  0  0  0  0  0  0  0  0  0  # atno 10763 bound_to 10752
  153.9156  135.6801  153.4753 H   0  0  0  0  0  0  0  0  0  0  0  0  # atno 10764 bound_to 10752
  153.1202  135.4826  154.9114 H   0  0  0  0  0  0  0  0  0  0  0  0  # atno 10765 bound_to 10752
  140.2830  134.2951  155.7795 H   0  0  0  0  0  0  0  0  0  0  0  0  # atno 11005 bound_to 11000
  145.6657  139.1589  143.2783 LP  0  0  0  0  0  0  0  0  0  0  0  0  # atno 17320 bound_to 7965
  146.1649  140.6733  142.9260 LP  0  0  0  0  0  0  0  0  0  0  0  0  # atno 17321 bound_to 7965
  140.4149  143.2639  151.9787 LP  0  0  0  0  0  0  0  0  0  0  0  0  # atno 17342 bound_to 10162
  139.4801  144.5883  151.7816 LP  0  0  0  0  0  0  0  0  0  0  0  0  # atno 17343 bound_to 10162
  157.4224  130.7445  149.6924 LP  0  0  0  0  0  0  0  0  0  0  0  0  # atno 17370 bound_to 10713
  155.9771  130.4067  150.3733 LP  0  0  0  0  0  0  0  0  0  0  0  0  # atno 17371 bound_to 10713
  141.2159  133.7537  156.9509 LP  0  0  0  0  0  0  0  0  0  0  0  0  # atno 17394 bound_to 11000
  140.1266  134.9383  157.2278 LP  0  0  0  0  0  0  0  0  0  0  0  0  # atno 17395 bound_to 11000

$$$$
