AV-unprocessed.smi:2319|AV-procd|sdf|9278|dock8
  -GOLD-   2272012503D 1   1.00000     0.00000
 Structure written by MMmdl.
 46 47  0  0  0  0  0  0  0  0  1 V2000
  147.4992  142.3046  154.0996 C   0  0  0  0  0  0  0  0  0  0  0  0
  147.5628  140.9401  154.7936 C   0  0  0  0  0  0  0  0  0  0  0  0
  148.9108  140.3029  154.7095 C   0  0  0  0  0  0  0  0  0  0  0  0
  149.9678  141.0268  155.1631 O   0  0  0  0  0  0  0  0  0  0  0  0
  151.1379  140.2667  155.0121 N   0  0  0  0  0  0  0  0  0  0  0  0
  150.7741  139.1094  154.4795 C   0  0  0  0  0  0  0  0  0  0  0  0
  151.8160  138.0496  154.2542 C   0  0  0  0  0  0  0  0  0  0  0  0
  149.3673  139.1042  154.2468 C   0  0  0  0  0  0  0  0  0  0  0  0
  148.5449  138.0766  153.7218 N   0  0  0  0  0  0  0  0  0  0  0  0
  147.3037  137.7602  154.1197 C   0  0  0  0  0  0  0  0  0  0  0  0
  146.6896  138.3242  155.0247 O   0  0  0  0  0  0  0  0  0  0  0  0
  146.8189  136.7225  153.4248 N   0  0  0  0  0  0  0  0  0  0  0  0
  145.5191  136.0935  153.6508 C   0  0  1  0  0  0  0  0  0  0  0  0
  144.4390  137.1226  153.9193 C   0  0  0  0  0  0  0  0  0  0  0  0
  143.1515  136.3860  153.5289 C   0  0  0  0  0  0  0  0  0  0  0  0
  142.5356  135.6337  154.7208 C   0  0  0  0  0  0  0  0  0  0  0  0
  142.1211  137.3201  152.8755 C   0  0  0  0  0  0  0  0  0  0  0  0
  143.5481  135.4069  152.5694 O   0  0  0  0  0  0  0  0  0  0  0  0
  144.9656  135.3454  152.4186 C   0  0  0  0  0  0  0  0  0  0  0  0
  145.2927  136.0159  151.0676 C   0  0  0  0  0  0  0  0  0  0  0  0
  145.3739  133.8639  152.4019 C   0  0  0  0  0  0  0  0  0  0  0  0
  146.5004  142.7344  154.1765 H   0  0  0  0  0  0  0  0  0  0  0  0
  147.7451  142.2186  153.0407 H   0  0  0  0  0  0  0  0  0  0  0  0
  148.1997  143.0087  154.5502 H   0  0  0  0  0  0  0  0  0  0  0  0
  147.2842  141.0534  155.8416 H   0  0  0  0  0  0  0  0  0  0  0  0
  146.8177  140.2780  154.3519 H   0  0  0  0  0  0  0  0  0  0  0  0
  151.4042  137.0521  154.4077 H   0  0  0  0  0  0  0  0  0  0  0  0
  152.6561  138.1631  154.9402 H   0  0  0  0  0  0  0  0  0  0  0  0
  152.2108  138.0989  153.2395 H   0  0  0  0  0  0  0  0  0  0  0  0
  148.9804  137.4564  153.0551 H   0  0  0  0  0  0  0  0  0  0  0  0
  147.3974  136.3213  152.7017 H   0  0  0  0  0  0  0  0  0  0  0  0
  145.5655  135.4211  154.5099 H   0  0  0  0  0  0  0  0  0  0  0  0
  144.4363  137.4749  154.9516 H   0  0  0  0  0  0  0  0  0  0  0  0
  144.5864  137.9935  153.2786 H   0  0  0  0  0  0  0  0  0  0  0  0
  142.2198  136.3247  155.5029 H   0  0  0  0  0  0  0  0  0  0  0  0
  143.2456  134.9342  155.1627 H   0  0  0  0  0  0  0  0  0  0  0  0
  141.6609  135.0598  154.4132 H   0  0  0  0  0  0  0  0  0  0  0  0
  141.8022  138.1005  153.5671 H   0  0  0  0  0  0  0  0  0  0  0  0
  141.2336  136.7698  152.5623 H   0  0  0  0  0  0  0  0  0  0  0  0
  142.5333  137.8064  151.9907 H   0  0  0  0  0  0  0  0  0  0  0  0
  146.3599  135.9769  150.8469 H   0  0  0  0  0  0  0  0  0  0  0  0
  144.9872  137.0622  151.0523 H   0  0  0  0  0  0  0  0  0  0  0  0
  144.7746  135.5152  150.2494 H   0  0  0  0  0  0  0  0  0  0  0  0
  146.4521  133.7515  152.2869 H   0  0  0  0  0  0  0  0  0  0  0  0
  144.8968  133.3332  151.5777 H   0  0  0  0  0  0  0  0  0  0  0  0
  145.0837  133.3631  153.3259 H   0  0  0  0  0  0  0  0  0  0  0  0
  1  2  1  0  0  0  0
  1 22  1  0  0  0  0
  1 23  1  0  0  0  0
  1 24  1  0  0  0  0
  2  3  1  0  0  0  0
  2 25  1  0  0  0  0
  2 26  1  0  0  0  0
  3  8  2  0  0  0  0
  3  4  1  0  0  0  0
  4  5  1  0  0  0  0
  5  6  2  0  0  0  0
  6  7  1  0  0  0  0
  6  8  1  0  0  0  0
  7 27  1  0  0  0  0
  7 28  1  0  0  0  0
  7 29  1  0  0  0  0
  8  9  1  0  0  0  0
  9 10  1  0  0  0  0
  9 30  1  0  0  0  0
 10 11  2  0  0  0  0
 10 12  1  0  0  0  0
 12 13  1  0  0  0  0
 12 31  1  0  0  0  0
 13 19  1  0  0  0  0
 13 14  1  0  0  0  0
 13 32  1  0  0  0  0
 14 15  1  0  0  0  0
 14 33  1  0  0  0  0
 14 34  1  0  0  0  0
 15 16  1  0  0  0  0
 15 17  1  0  0  0  0
 15 18  1  0  0  0  0
 16 35  1  0  0  0  0
 16 36  1  0  0  0  0
 16 37  1  0  0  0  0
 17 38  1  0  0  0  0
 17 39  1  0  0  0  0
 17 40  1  0  0  0  0
 18 19  1  0  0  0  0
 19 20  1  0  0  0  0
 19 21  1  0  0  0  0
 20 41  1  0  0  0  0
 20 42  1  0  0  0  0
 20 43  1  0  0  0  0
 21 44  1  0  0  0  0
 21 45  1  0  0  0  0
 21 46  1  0  0  0  0
M  END
> <s_m_source_file>
AV-unprocessed.smi

> <i_m_source_file_index>
2319

> <i_lp_mmshare_version>
43012

> <i_f3d_flags>
0

> <s_epik_input>
W0NIM11bQ0gyXWMxb25jKFtDSDNdKWMxW05IXUMoPU8pW05IXVtDQEBIXShDKE8yKShbQ0gzXSlbQ0gzXSlbQ0gyXUMyKFtDSDNdKVtDSDNd

> <s_epik_cmdline>
J2VwaWtfcHl0aG9uJywgJy1waCcsICc3LjAnLCAnLXRuJywgJzgnLCAnLW1hJywgJzIwMCcsICctbWV0YWxfYmluZGluZycsICctaW1hZScsICc8aW5maWxlLm1hZT4nLCAnLW9tYWUnLCAnPG91dGZpbGUubWFlPic=

> <r_lp_tautomer_probability>
1

> <r_epik_Ionization_Penalty>
3.17207e-05

> <r_epik_Ionization_Penalty_Charging>
0

> <r_epik_Ionization_Penalty_Neutral>
3.17207e-05

> <r_epik_State_Penalty>
-0

> <r_epik_Charging_Adjusted_Penalty>
0

> <i_epik_Tot_Q>
0

> <i_epik_Tot_abs_Q>
0

> <r_epik_Metal_State_Penalty>
-0

> <b_epik_Metal_Only>
0

> <s_lp_Force_Field>
OPLS_2005

> <r_lp_Energy>
19.7342

> <b_lp_Chiralities_Consistent>
1

> <s_lp_Variant>
AV-unprocessed.smi:2319-2

> <Gold.Version>
5.8.1

> <Gold.Id.Protein>
6NUR|6NUR_protein|mol2

> <Gold.PLP.Fitness>
35.6847

> <Gold.PLP.PLP>
-28.7197

> <Gold.PLP.part.hbond>
-3.6804

> <Gold.PLP.part.metal>
0.0000

> <Gold.PLP.part.buried>
-3.8235

> <Gold.PLP.part.nonpolar>
-21.6882

> <Gold.PLP.part.repulsive>
0.3652

> <Gold.PLP.ligand.clash>
0.0000

> <Gold.PLP.ligand.torsion>
0.5807

> <Gold.PLP.Chemscore.Hbond>
2.6175

> <Gold.PLP.Chemscore.CHOScore>
0.0000

> <Gold.PLP.Chemscore.Metal>
0.0000

> <Gold.Chemscore.Hbonds>
donor molecule, donor type, donor heavy atom, donor atom, acceptor molecule, acceptor atom, score
      L1  H     9    30       P1  7948  1.00
      L1  H    12    31       P1  7948  1.00
      P1  H  7989  7998       L1     5  0.57

> <Gold.PLP.Chemscore.Internal.Correction>
0.2740

> <Gold.Rescore>
     Score         DG    S(hbond)    S(metal)    S(lipo)     H(rot)  DE(clash)    DE(int)     intcor
     12.90     -17.41       1.93        0.00      72.30       1.16       0.06       4.45       ----

> <Gold.Chemscore.Fitness>
12.9047

> <Gold.Chemscore.DG>
-17.4118

> <Gold.Chemscore.ZeroCoef>
-5.4800

> <Gold.Chemscore.Hbond>
1.9281

> <Gold.Chemscore.Metal>
0.0000

> <Gold.Chemscore.Lipo>
72.2990

> <Gold.Chemscore.Internal_Hbond>
0.0000

> <Gold.Chemscore.DEClash>
0.0569

> <Gold.Chemscore.DEInternal>
4.4502

> <Gold.Chemscore.Rot>
1.1590

> <Gold.Chemscore.Internal.Correction>
   9.000000E+99

> <Gold.Chemscore.Hbonds>
donor molecule, donor type, donor heavy atom, donor atom, acceptor molecule, acceptor atom, score
      L1  H     9    30       P1  7948  0.98
      L1  H    12    31       P1  7948  0.95
      P1  H  7989  7998       L1     5  0.01

> <Gold.Chemscore.Hbond.Weighted>
-6.4399

> <Gold.Chemscore.Metal.Weighted>
-0.0000

> <Gold.Chemscore.Lipo.Weighted>
-8.4590

> <Gold.Chemscore.Internal_Hbond.Weighted>
0.0000

> <Gold.Chemscore.DEClash.Weighted>
0.0569

> <Gold.Chemscore.DEInternal.Weighted>
4.4502

> <Gold.Chemscore.Rot.Weighted>
2.9671

> <Gold.Chemscore.Internal.Correction.Weighted>
   9.000000E+99

> <Gold.Protein.RotatedTorsions>
[ 6907 6896 6895 6894 ] final -123.93 input  -60.11 | X-H torsion
[ 7974 7965 7964 7962 ] final  141.53 input  175.53 | X-H torsion
[ 8008 7997 7996 7995 ] final  -50.92 input   59.86 | X-H torsion
[ 10167 10162 10161 10158 ] final  -92.39 input  -65.29 | X-H torsion
[ 10718 10713 10712 10709 ] final   19.41 input   66.30 | X-H torsion
[ 10763 10752 10751 10750 ] final  -68.73 input  -60.55 | X-H torsion
[ 11005 11000 10999 10996 ] final   95.30 input  -57.11 | X-H torsion

> <Gold.Protein.ActiveResidues>
 VAL166  LYS551  ARG553  GLY616  TRP617  ASP618  TYR619  PRO620  LYS621  CYS622 
 ASP623  PHE694  ASN695  SER759  ASP760  ASP761  ALA762  ILE779  LEU786  VAL792 
 PHE793  MET794  SER795  GLU796  ALA797  LYS798  CYS799  TRP800  GLU811  SER814 

> <Gold.Protein.RotatedAtoms>
  150.8718  133.7494  159.2958 H   0  0  0  0  0  0  0  0  0  0  0  0  # atno 6907 bound_to 6896
  151.5104  135.1063  159.9862 H   0  0  0  0  0  0  0  0  0  0  0  0  # atno 6908 bound_to 6896
  152.4700  133.7964  159.6985 H   0  0  0  0  0  0  0  0  0  0  0  0  # atno 6909 bound_to 6896
  144.9088  139.5321  143.5718 H   0  0  0  0  0  0  0  0  0  0  0  0  # atno 7974 bound_to 7965
  154.4072  140.1260  156.4745 H   0  0  0  0  0  0  0  0  0  0  0  0  # atno 8008 bound_to 7997
  155.7146  140.3493  155.4969 H   0  0  0  0  0  0  0  0  0  0  0  0  # atno 8009 bound_to 7997
  155.9269  140.1062  157.1153 H   0  0  0  0  0  0  0  0  0  0  0  0  # atno 8010 bound_to 7997
  140.3353  143.2972  151.9897 H   0  0  0  0  0  0  0  0  0  0  0  0  # atno 10167 bound_to 10162
  157.1100  130.6504  149.5895 H   0  0  0  0  0  0  0  0  0  0  0  0  # atno 10718 bound_to 10713
  154.3932  135.6048  153.5855 H   0  0  0  0  0  0  0  0  0  0  0  0  # atno 10763 bound_to 10752
  152.9787  135.5888  154.4273 H   0  0  0  0  0  0  0  0  0  0  0  0  # atno 10764 bound_to 10752
  154.4060  135.2843  155.2045 H   0  0  0  0  0  0  0  0  0  0  0  0  # atno 10765 bound_to 10752
  139.8790  134.8891  156.3991 H   0  0  0  0  0  0  0  0  0  0  0  0  # atno 11005 bound_to 11000
  146.3148  139.7878  142.8992 LP  0  0  0  0  0  0  0  0  0  0  0  0  # atno 17320 bound_to 7965
  145.3489  141.0303  143.3350 LP  0  0  0  0  0  0  0  0  0  0  0  0  # atno 17321 bound_to 7965
  139.4849  144.6202  151.7270 LP  0  0  0  0  0  0  0  0  0  0  0  0  # atno 17342 bound_to 10162
  140.5360  144.0656  150.6070 LP  0  0  0  0  0  0  0  0  0  0  0  0  # atno 17343 bound_to 10162
  155.9853  130.4882  150.7023 LP  0  0  0  0  0  0  0  0  0  0  0  0  # atno 17370 bound_to 10713
  157.4567  131.0878  151.0789 LP  0  0  0  0  0  0  0  0  0  0  0  0  # atno 17371 bound_to 10713
  140.9279  133.7599  155.9988 LP  0  0  0  0  0  0  0  0  0  0  0  0  # atno 17394 bound_to 11000
  140.8364  134.3118  157.5330 LP  0  0  0  0  0  0  0  0  0  0  0  0  # atno 17395 bound_to 11000

$$$$
