AV-unprocessed.smi:2923|AV-procd|sdf|11205|dock9
  -GOLD-   2272016 93D 1   1.00000     0.00000
 Structure written by MMmdl.
 47 49  0  0  0  0  0  0  0  0  2 V2000
  146.6231  139.8190  151.0682 C   0  0  0  0  0  0  0  0  0  0  0  0
  147.0118  138.9648  152.1846 N   0  0  0  0  0  0  0  0  0  0  0  0
  146.4959  137.6057  152.2849 C   0  0  0  0  0  0  0  0  0  0  0  0
  147.8314  139.4822  153.2111 C   0  0  0  0  0  0  0  0  0  0  0  0
  147.6149  140.7449  153.8147 C   0  0  0  0  0  0  0  0  0  0  0  0
  148.4811  141.1930  154.8329 C   0  0  0  0  0  0  0  0  0  0  0  0
  149.5629  140.3863  155.2431 C   0  0  0  0  0  0  0  0  0  0  0  0
  150.4015  140.8869  156.2766 N   0  0  0  0  0  0  0  0  0  0  0  0
  150.0988  141.7323  157.2770 C   0  0  0  0  0  0  0  0  0  0  0  0
  148.9929  142.2316  157.4813 O   0  0  0  0  0  0  0  0  0  0  0  0
  151.1678  141.9701  158.0482 N   0  0  0  0  0  0  0  0  0  0  0  0
  151.1741  142.8563  159.2135 C   0  0  1  0  0  0  0  0  0  0  0  0
  152.2514  142.4759  160.2539 C   0  0  1  0  0  0  0  0  0  0  0  0
  153.0348  141.1868  160.1935 C   0  0  0  0  0  0  0  0  0  0  0  0
  154.3374  141.6137  159.5108 C   0  0  0  0  0  0  0  0  0  0  0  0
  154.0114  142.8218  158.8272 O   0  0  0  0  0  0  0  0  0  0  0  0
  153.1251  143.5678  159.6586 C   0  0  1  0  0  0  0  0  0  0  0  0
  151.9047  144.2029  158.9605 C   0  0  0  0  0  0  0  0  0  0  0  0
  152.1226  144.6751  157.5162 C   0  0  0  0  0  0  0  0  0  0  0  0
  151.3012  145.3921  159.7135 C   0  0  0  0  0  0  0  0  0  0  0  0
  149.7304  139.1276  154.6174 C   0  0  0  0  0  0  0  0  0  0  0  0
  148.8765  138.7375  153.6466 N   0  3  0  0  0  0  0  0  0  0  0  0
  147.5016  140.1372  150.5060 H   0  0  0  0  0  0  0  0  0  0  0  0
  146.1006  140.7063  151.4272 H   0  0  0  0  0  0  0  0  0  0  0  0
  145.9577  139.2965  150.3809 H   0  0  0  0  0  0  0  0  0  0  0  0
  145.8747  137.4968  153.1742 H   0  0  0  0  0  0  0  0  0  0  0  0
  147.3146  136.8877  152.3394 H   0  0  0  0  0  0  0  0  0  0  0  0
  145.8863  137.3480  151.4187 H   0  0  0  0  0  0  0  0  0  0  0  0
  146.7968  141.3814  153.5132 H   0  0  0  0  0  0  0  0  0  0  0  0
  148.3137  142.1565  155.2920 H   0  0  0  0  0  0  0  0  0  0  0  0
  151.3467  140.5321  156.2745 H   0  0  0  0  0  0  0  0  0  0  0  0
  152.0426  141.5256  157.8112 H   0  0  0  0  0  0  0  0  0  0  0  0
  150.1921  142.9806  159.6743 H   0  0  0  0  0  0  0  0  0  0  0  0
  151.9268  142.7434  161.2606 H   0  0  0  0  0  0  0  0  0  0  0  0
  153.2290  140.7756  161.1844 H   0  0  0  0  0  0  0  0  0  0  0  0
  152.5194  140.4172  159.6195 H   0  0  0  0  0  0  0  0  0  0  0  0
  155.1074  141.8248  160.2543 H   0  0  0  0  0  0  0  0  0  0  0  0
  154.7217  140.8576  158.8257 H   0  0  0  0  0  0  0  0  0  0  0  0
  153.6344  144.1863  160.3992 H   0  0  0  0  0  0  0  0  0  0  0  0
  152.7499  145.5662  157.4781 H   0  0  0  0  0  0  0  0  0  0  0  0
  151.1778  144.9173  157.0286 H   0  0  0  0  0  0  0  0  0  0  0  0
  152.6165  143.9196  156.9051 H   0  0  0  0  0  0  0  0  0  0  0  0
  151.9662  146.2562  159.6990 H   0  0  0  0  0  0  0  0  0  0  0  0
  151.1107  145.1520  160.7599 H   0  0  0  0  0  0  0  0  0  0  0  0
  150.3503  145.6993  159.2766 H   0  0  0  0  0  0  0  0  0  0  0  0
  150.5007  138.4089  154.8502 H   0  0  0  0  0  0  0  0  0  0  0  0
  149.0284  137.8251  153.2164 H   0  0  0  0  0  0  0  0  0  0  0  0
  1  2  1  0  0  0  0
  1 23  1  0  0  0  0
  1 24  1  0  0  0  0
  1 25  1  0  0  0  0
  2  3  1  0  0  0  0
  2  4  1  0  0  0  0
  3 26  1  0  0  0  0
  3 27  1  0  0  0  0
  3 28  1  0  0  0  0
  4 22  1  0  0  0  0
  4  5  2  0  0  0  0
  5  6  1  0  0  0  0
  5 29  1  0  0  0  0
  6  7  2  0  0  0  0
  6 30  1  0  0  0  0
  7  8  1  0  0  0  0
  7 21  1  0  0  0  0
  8  9  1  0  0  0  0
  8 31  1  0  0  0  0
  9 10  2  0  0  0  0
  9 11  1  0  0  0  0
 11 12  1  0  0  0  0
 11 32  1  0  0  0  0
 12 18  1  0  0  0  0
 12 13  1  0  0  0  0
 12 33  1  0  0  0  0
 13 17  1  0  0  0  0
 13 14  1  0  0  0  0
 13 34  1  0  0  0  0
 14 15  1  0  0  0  0
 14 35  1  0  0  0  0
 14 36  1  0  0  0  0
 15 16  1  0  0  0  0
 15 37  1  0  0  0  0
 15 38  1  0  0  0  0
 16 17  1  0  0  0  0
 17 18  1  0  0  0  0
 17 39  1  0  0  0  0
 18 19  1  0  0  0  0
 18 20  1  0  0  0  0
 19 40  1  0  0  0  0
 19 41  1  0  0  0  0
 19 42  1  0  0  0  0
 20 43  1  0  0  0  0
 20 44  1  0  0  0  0
 20 45  1  0  0  0  0
 21 22  2  0  0  0  0
 21 46  1  0  0  0  0
 22 47  1  0  0  0  0
M  CHG  1  22   1
M  END
> <s_m_source_file>
AV-unprocessed.smi

> <i_m_source_file_index>
2923

> <i_lp_mmshare_version>
43012

> <i_f3d_flags>
0

> <s_epik_input>
W0NIM11OKFtDSDNdKWMxW2NIXVtjSF1jKFtjSF1uMSlbTkhdQyg9TylbTkhdW0NASF0yQyhbQ0gzXSkoW0NIM10pW0NAQEhdKFtDQEhdMjMpT1tDSDJdW0NIMl0z

> <s_epik_cmdline>
J2VwaWtfcHl0aG9uJywgJy1waCcsICc3LjAnLCAnLXRuJywgJzgnLCAnLW1hJywgJzIwMCcsICctbWV0YWxfYmluZGluZycsICctaW1hZScsICc8aW5maWxlLm1hZT4nLCAnLW9tYWUnLCAnPG91dGZpbGUubWFlPic=

> <r_lp_tautomer_probability>
0.999994

> <r_epik_Ionization_Penalty>
0.252205

> <r_epik_Ionization_Penalty_Charging>
0.252185

> <r_epik_Ionization_Penalty_Neutral>
1.99479e-05

> <r_epik_State_Penalty>
0.243573

> <r_epik_Charging_Adjusted_Penalty>
0.495758

> <i_epik_Tot_Q>
1

> <i_epik_Tot_abs_Q>
1

> <r_epik_Metal_State_Penalty>
0.534372

> <b_epik_Metal_Only>
0

> <s_lp_Force_Field>
OPLS_2005

> <r_lp_Energy>
46.5408

> <b_lp_Chiralities_Consistent>
1

> <s_lp_Variant>
AV-unprocessed.smi:2923-4

> <Gold.Version>
5.8.1

> <Gold.Id.Protein>
6NUR|6NUR_protein|mol2

> <Gold.PLP.Fitness>
40.8615

> <Gold.PLP.PLP>
-37.8030

> <Gold.PLP.part.hbond>
-1.9185

> <Gold.PLP.part.metal>
0.0000

> <Gold.PLP.part.buried>
8.8500

> <Gold.PLP.part.nonpolar>
-44.9751

> <Gold.PLP.part.repulsive>
0.9784

> <Gold.PLP.ligand.clash>
0.0000

> <Gold.PLP.ligand.torsion>
1.2454

> <Gold.PLP.Chemscore.Hbond>
1.7875

> <Gold.PLP.Chemscore.CHOScore>
0.0000

> <Gold.PLP.Chemscore.Metal>
0.0000

> <Gold.Chemscore.Hbonds>
donor molecule, donor type, donor heavy atom, donor atom, acceptor molecule, acceptor atom, score
      L1  H    22    47       P1  7948  1.82

> <Gold.PLP.Chemscore.Internal.Correction>
0.1870

> <Gold.Rescore>
     Score         DG    S(hbond)    S(metal)    S(lipo)     H(rot)  DE(clash)    DE(int)     intcor
     14.38     -20.75       0.76        0.00     130.66       1.00       4.07       2.30       ----

> <Gold.Chemscore.Fitness>
14.3759

> <Gold.Chemscore.DG>
-20.7521

> <Gold.Chemscore.ZeroCoef>
-5.4800

> <Gold.Chemscore.Hbond>
0.7618

> <Gold.Chemscore.Metal>
0.0000

> <Gold.Chemscore.Lipo>
130.6633

> <Gold.Chemscore.Internal_Hbond>
0.0000

> <Gold.Chemscore.DEClash>
4.0717

> <Gold.Chemscore.DEInternal>
2.3044

> <Gold.Chemscore.Rot>
1.0000

> <Gold.Chemscore.Internal.Correction>
   9.000000E+99

> <Gold.Chemscore.Hbonds>
donor molecule, donor type, donor heavy atom, donor atom, acceptor molecule, acceptor atom, score
      L1  H    22    47       P1  7948  0.87

> <Gold.Chemscore.Hbond.Weighted>
-2.5445

> <Gold.Chemscore.Metal.Weighted>
-0.0000

> <Gold.Chemscore.Lipo.Weighted>
-15.2876

> <Gold.Chemscore.Internal_Hbond.Weighted>
0.0000

> <Gold.Chemscore.DEClash.Weighted>
4.0717

> <Gold.Chemscore.DEInternal.Weighted>
2.3044

> <Gold.Chemscore.Rot.Weighted>
2.5600

> <Gold.Chemscore.Internal.Correction.Weighted>
   9.000000E+99

> <Gold.Protein.RotatedTorsions>
[ 6907 6896 6895 6894 ] final  -58.65 input  -60.11 | X-H torsion
[ 7974 7965 7964 7962 ] final    7.63 input  175.53 | X-H torsion
[ 8008 7997 7996 7995 ] final -156.66 input   59.86 | X-H torsion
[ 10167 10162 10161 10158 ] final  -80.22 input  -65.29 | X-H torsion
[ 10718 10713 10712 10709 ] final -168.85 input   66.30 | X-H torsion
[ 10763 10752 10751 10750 ] final -113.66 input  -60.55 | X-H torsion
[ 11005 11000 10999 10996 ] final  119.13 input  -57.11 | X-H torsion

> <Gold.Protein.ActiveResidues>
 VAL166  LYS551  ARG553  GLY616  TRP617  ASP618  TYR619  PRO620  LYS621  CYS622 
 ASP623  PHE694  ASN695  SER759  ASP760  ASP761  ALA762  ILE779  LEU786  VAL792 
 PHE793  MET794  SER795  GLU796  ALA797  LYS798  CYS799  TRP800  GLU811  SER814 

> <Gold.Protein.RotatedAtoms>
  150.7991  134.7071  159.6582 H   0  0  0  0  0  0  0  0  0  0  0  0  # atno 6907 bound_to 6896
  152.4106  134.6128  160.0040 H   0  0  0  0  0  0  0  0  0  0  0  0  # atno 6908 bound_to 6896
  151.6372  133.3291  159.3158 H   0  0  0  0  0  0  0  0  0  0  0  0  # atno 6909 bound_to 6896
  146.2425  140.0054  142.8412 H   0  0  0  0  0  0  0  0  0  0  0  0  # atno 7974 bound_to 7965
  155.7205  140.0789  157.2332 H   0  0  0  0  0  0  0  0  0  0  0  0  # atno 8008 bound_to 7997
  154.4046  140.1613  156.2451 H   0  0  0  0  0  0  0  0  0  0  0  0  # atno 8009 bound_to 7997
  155.9201  140.3398  155.6168 H   0  0  0  0  0  0  0  0  0  0  0  0  # atno 8010 bound_to 7997
  140.4522  143.2479  151.8471 H   0  0  0  0  0  0  0  0  0  0  0  0  # atno 10167 bound_to 10162
  156.7030  130.9204  151.3081 H   0  0  0  0  0  0  0  0  0  0  0  0  # atno 10718 bound_to 10713
  154.8406  135.4446  154.1385 H   0  0  0  0  0  0  0  0  0  0  0  0  # atno 10763 bound_to 10752
  153.2576  135.6933  153.7618 H   0  0  0  0  0  0  0  0  0  0  0  0  # atno 10764 bound_to 10752
  153.6907  135.3388  155.3177 H   0  0  0  0  0  0  0  0  0  0  0  0  # atno 10765 bound_to 10752
  139.9135  134.9626  156.7609 H   0  0  0  0  0  0  0  0  0  0  0  0  # atno 11005 bound_to 11000
  145.1377  140.9553  143.4507 LP  0  0  0  0  0  0  0  0  0  0  0  0  # atno 17320 bound_to 7965
  145.0326  139.3328  143.6017 LP  0  0  0  0  0  0  0  0  0  0  0  0  # atno 17321 bound_to 7965
  139.4798  144.5106  151.8938 LP  0  0  0  0  0  0  0  0  0  0  0  0  # atno 17342 bound_to 10162
  140.4193  144.2265  150.5887 LP  0  0  0  0  0  0  0  0  0  0  0  0  # atno 17343 bound_to 10162
  157.6966  130.9288  150.0661 LP  0  0  0  0  0  0  0  0  0  0  0  0  # atno 17370 bound_to 10713
  156.1715  130.3646  149.9158 LP  0  0  0  0  0  0  0  0  0  0  0  0  # atno 17371 bound_to 10713
  140.6698  133.9569  155.7850 LP  0  0  0  0  0  0  0  0  0  0  0  0  # atno 17394 bound_to 11000
  141.0585  134.0381  157.3690 LP  0  0  0  0  0  0  0  0  0  0  0  0  # atno 17395 bound_to 11000

$$$$
