AV-unprocessed.smi:648|AV-procd|sdf|3177|dock3
  -GOLD-   22720 0103D 1   1.00000     0.00000
 Structure written by MMmdl.
 45 46  0  0  0  0  0  0  0  0  1 V2000
  142.1231  136.1385  153.9602 C   0  0  0  0  0  0  0  0  0  0  0  0
  143.5217  135.8629  153.3886 C   0  0  1  0  0  0  0  0  0  0  0  0
  143.4506  134.9034  152.1875 C   0  0  0  0  0  0  0  0  0  0  0  0
  144.8323  134.5839  151.5734 C   0  0  0  0  0  0  0  0  0  0  0  0
  145.6396  133.6382  152.4923 C   0  0  0  0  0  0  0  0  0  0  0  0
  144.6138  133.8353  150.2423 C   0  0  0  0  0  0  0  0  0  0  0  0
  145.5974  135.9048  151.2715 C   0  0  0  0  0  0  0  0  0  0  0  0
  145.6527  136.9673  152.4091 C   0  0  2  0  0  0  0  0  0  0  0  0
  146.1869  138.2869  151.7739 C   0  0  0  0  0  0  0  0  0  0  0  0
  147.5516  138.2342  151.4043 O   0  0  0  0  0  0  0  0  0  0  0  0
  146.6202  136.4938  153.4193 N   0  0  0  0  0  0  0  0  0  0  0  0
  146.7822  137.2664  154.6524 C   0  0  0  0  0  0  0  0  0  0  0  0
  148.1702  137.0202  155.2576 C   0  0  0  0  0  0  0  0  0  0  0  0
  149.0092  138.1983  155.1714 N   0  0  0  0  0  0  0  0  0  0  0  0
  149.4721  138.8574  154.1081 C   0  0  0  0  0  0  0  0  0  0  0  0
  150.2172  139.9106  154.4140 N   0  0  0  0  0  0  0  0  0  0  0  0
  150.1680  139.8362  155.7775 C   0  0  0  0  0  0  0  0  0  0  0  0
  149.4543  138.8299  156.2828 N   0  0  0  0  0  0  0  0  0  0  0  0
  144.2247  137.1723  152.9884 C   0  0  0  0  0  0  0  0  0  0  0  0
  141.4781  136.6149  153.2211 H   0  0  0  0  0  0  0  0  0  0  0  0
  142.1764  136.7962  154.8282 H   0  0  0  0  0  0  0  0  0  0  0  0
  141.6398  135.2143  154.2780 H   0  0  0  0  0  0  0  0  0  0  0  0
  144.0994  135.3924  154.1839 H   0  0  0  0  0  0  0  0  0  0  0  0
  142.9547  133.9776  152.4827 H   0  0  0  0  0  0  0  0  0  0  0  0
  142.8125  135.3528  151.4248 H   0  0  0  0  0  0  0  0  0  0  0  0
  146.6298  133.4400  152.0811 H   0  0  0  0  0  0  0  0  0  0  0  0
  145.1374  132.6770  152.6046 H   0  0  0  0  0  0  0  0  0  0  0  0
  145.7782  134.0335  153.4964 H   0  0  0  0  0  0  0  0  0  0  0  0
  145.5629  133.5902  149.7641 H   0  0  0  0  0  0  0  0  0  0  0  0
  144.0360  134.4312  149.5345 H   0  0  0  0  0  0  0  0  0  0  0  0
  144.0728  132.9007  150.3949 H   0  0  0  0  0  0  0  0  0  0  0  0
  146.6065  135.6767  150.9241 H   0  0  0  0  0  0  0  0  0  0  0  0
  145.1015  136.3628  150.4143 H   0  0  0  0  0  0  0  0  0  0  0  0
  145.5888  138.5776  150.9090 H   0  0  0  0  0  0  0  0  0  0  0  0
  146.1111  139.1109  152.4840 H   0  0  0  0  0  0  0  0  0  0  0  0
  147.9604  137.5172  151.8646 H   0  0  0  0  0  0  0  0  0  0  0  0
  147.5270  136.3668  152.9817 H   0  0  0  0  0  0  0  0  0  0  0  0
  146.6682  138.3319  154.4578 H   0  0  0  0  0  0  0  0  0  0  0  0
  146.0236  136.9884  155.3832 H   0  0  0  0  0  0  0  0  0  0  0  0
  148.0806  136.7365  156.3072 H   0  0  0  0  0  0  0  0  0  0  0  0
  148.6727  136.1976  154.7468 H   0  0  0  0  0  0  0  0  0  0  0  0
  149.2606  138.5617  153.0909 H   0  0  0  0  0  0  0  0  0  0  0  0
  150.6725  140.5458  156.4169 H   0  0  0  0  0  0  0  0  0  0  0  0
  143.6135  137.6674  152.2321 H   0  0  0  0  0  0  0  0  0  0  0  0
  144.2340  137.8565  153.8365 H   0  0  0  0  0  0  0  0  0  0  0  0
  1  2  1  0  0  0  0
  1 20  1  0  0  0  0
  1 21  1  0  0  0  0
  1 22  1  0  0  0  0
  2 19  1  0  0  0  0
  2  3  1  0  0  0  0
  2 23  1  0  0  0  0
  3  4  1  0  0  0  0
  3 24  1  0  0  0  0
  3 25  1  0  0  0  0
  4  5  1  0  0  0  0
  4  6  1  0  0  0  0
  4  7  1  0  0  0  0
  5 26  1  0  0  0  0
  5 27  1  0  0  0  0
  5 28  1  0  0  0  0
  6 29  1  0  0  0  0
  6 30  1  0  0  0  0
  6 31  1  0  0  0  0
  7  8  1  0  0  0  0
  7 32  1  0  0  0  0
  7 33  1  0  0  0  0
  8  9  1  0  0  0  0
  8 11  1  0  0  0  0
  8 19  1  0  0  0  0
  9 10  1  0  0  0  0
  9 34  1  0  0  0  0
  9 35  1  0  0  0  0
 10 36  1  0  0  0  0
 11 12  1  0  0  0  0
 11 37  1  0  0  0  0
 12 13  1  0  0  0  0
 12 38  1  0  0  0  0
 12 39  1  0  0  0  0
 13 14  1  0  0  0  0
 13 40  1  0  0  0  0
 13 41  1  0  0  0  0
 14 18  1  0  0  0  0
 14 15  1  0  0  0  0
 15 16  2  0  0  0  0
 15 42  1  0  0  0  0
 16 17  1  0  0  0  0
 17 18  2  0  0  0  0
 17 43  1  0  0  0  0
 19 44  1  0  0  0  0
 19 45  1  0  0  0  0
M  END
> <s_m_source_file>
AV-unprocessed.smi

> <i_m_source_file_index>
648

> <i_lp_mmshare_version>
43012

> <i_f3d_flags>
0

> <s_epik_input>
W0NIM11DMShbQ0gzXSlbQ0gyXVtDQEBIXShbQ0gzXSlbQ0gyXVtDQF0oW0NIMl0xKShbQ0gyXVtPSF0pW05IXVtDSDJdW0NIMl1uMltjSF1uW2NIXW4y

> <s_epik_cmdline>
J2VwaWtfcHl0aG9uJywgJy1waCcsICc3LjAnLCAnLXRuJywgJzgnLCAnLW1hJywgJzIwMCcsICctbWV0YWxfYmluZGluZycsICctaW1hZScsICc8aW5maWxlLm1hZT4nLCAnLW9tYWUnLCAnPG91dGZpbGUubWFlPic=

> <r_lp_tautomer_probability>
1

> <r_epik_Ionization_Penalty>
2.45849

> <r_epik_Ionization_Penalty_Charging>
0

> <r_epik_Ionization_Penalty_Neutral>
2.45849

> <r_epik_State_Penalty>
2.62037

> <r_epik_Charging_Adjusted_Penalty>
2.62037

> <i_epik_Tot_Q>
0

> <i_epik_Tot_abs_Q>
0

> <r_epik_Metal_State_Penalty>
2.62024

> <b_epik_Metal_Only>
0

> <s_lp_Force_Field>
OPLS_2005

> <r_lp_Energy>
32.8017

> <b_lp_Chiralities_Consistent>
1

> <s_lp_Variant>
AV-unprocessed.smi:648-8

> <Gold.Version>
5.8.1

> <Gold.Id.Protein>
6NUR|6NUR_protein|mol2

> <Gold.PLP.Fitness>
45.0574

> <Gold.PLP.PLP>
-29.1562

> <Gold.PLP.part.hbond>
-4.5803

> <Gold.PLP.part.metal>
0.0000

> <Gold.PLP.part.buried>
-2.6526

> <Gold.PLP.part.nonpolar>
-23.0171

> <Gold.PLP.part.repulsive>
0.1174

> <Gold.PLP.ligand.clash>
0.0000

> <Gold.PLP.ligand.torsion>
0.6264

> <Gold.PLP.Chemscore.Hbond>
3.8420

> <Gold.PLP.Chemscore.CHOScore>
1.8667

> <Gold.PLP.Chemscore.Metal>
0.0000

> <Gold.Chemscore.Hbonds>
donor molecule, donor type, donor heavy atom, donor atom, acceptor molecule, acceptor atom, score
      L1  H    10    36       P1  7948  0.96
      L1  H    11    37       P1  7948  1.00
      P1  H  7954  7966       L1    10  0.80
      P1  H  7989  7998       L1    16  1.00
      L1  C    15    42       P1  7948  0.78
      L1  C    15    42       P1  7957  0.88

> <Gold.PLP.Chemscore.Internal.Correction>
0.0277

> <Gold.Rescore>
     Score         DG    S(hbond)    S(metal)    S(lipo)     H(rot)  DE(clash)    DE(int)     intcor
     13.37     -14.44       3.25        0.00      52.17       3.12       0.26       0.81       ----

> <Gold.Chemscore.Fitness>
13.3715

> <Gold.Chemscore.DG>
-14.4396

> <Gold.Chemscore.ZeroCoef>
-5.4800

> <Gold.Chemscore.Hbond>
3.2451

> <Gold.Chemscore.Metal>
0.0000

> <Gold.Chemscore.Lipo>
52.1703

> <Gold.Chemscore.Internal_Hbond>
0.0000

> <Gold.Chemscore.DEClash>
0.2606

> <Gold.Chemscore.DEInternal>
0.8075

> <Gold.Chemscore.Rot>
3.1183

> <Gold.Chemscore.Internal.Correction>
   9.000000E+99

> <Gold.Chemscore.Hbonds>
donor molecule, donor type, donor heavy atom, donor atom, acceptor molecule, acceptor atom, score
      L1  H    10    36       P1  7948  0.91
      L1  H    11    37       P1  7948  1.00
      P1  H  7954  7966       L1    10  0.12
      P1  H  7989  7998       L1    16  0.97

> <Gold.Chemscore.Hbond.Weighted>
-10.8385

> <Gold.Chemscore.Metal.Weighted>
-0.0000

> <Gold.Chemscore.Lipo.Weighted>
-6.1039

> <Gold.Chemscore.Internal_Hbond.Weighted>
0.0000

> <Gold.Chemscore.DEClash.Weighted>
0.2606

> <Gold.Chemscore.DEInternal.Weighted>
0.8075

> <Gold.Chemscore.Rot.Weighted>
7.9829

> <Gold.Chemscore.Internal.Correction.Weighted>
   9.000000E+99

> <Gold.Protein.RotatedTorsions>
[ 6907 6896 6895 6894 ] final   80.13 input  -60.11 | X-H torsion
[ 7974 7965 7964 7962 ] final   22.18 input  175.53 | X-H torsion
[ 8008 7997 7996 7995 ] final  -13.92 input   59.86 | X-H torsion
[ 10167 10162 10161 10158 ] final  -23.05 input  -65.29 | X-H torsion
[ 10718 10713 10712 10709 ] final   98.88 input   66.30 | X-H torsion
[ 10763 10752 10751 10750 ] final   14.71 input  -60.55 | X-H torsion
[ 11005 11000 10999 10996 ] final -140.62 input  -57.11 | X-H torsion

> <Gold.Protein.ActiveResidues>
 VAL166  LYS551  ARG553  GLY616  TRP617  ASP618  TYR619  PRO620  LYS621  CYS622 
 ASP623  PHE694  ASN695  SER759  ASP760  ASP761  ALA762  ILE779  LEU786  VAL792 
 PHE793  MET794  SER795  GLU796  ALA797  LYS798  CYS799  TRP800  GLU811  SER814 

> <Gold.Protein.RotatedAtoms>
  152.5224  134.3404  159.9214 H   0  0  0  0  0  0  0  0  0  0  0  0  # atno 6907 bound_to 6896
  151.3354  133.3977  159.2674 H   0  0  0  0  0  0  0  0  0  0  0  0  # atno 6908 bound_to 6896
  150.9847  134.9212  159.7922 H   0  0  0  0  0  0  0  0  0  0  0  0  # atno 6909 bound_to 6896
  146.2040  139.7922  142.8740 H   0  0  0  0  0  0  0  0  0  0  0  0  # atno 7974 bound_to 7965
  154.5252  140.2236  155.8903 H   0  0  0  0  0  0  0  0  0  0  0  0  # atno 8008 bound_to 7997
  156.1705  140.3122  155.8930 H   0  0  0  0  0  0  0  0  0  0  0  0  # atno 8009 bound_to 7997
  155.3567  140.0459  157.3037 H   0  0  0  0  0  0  0  0  0  0  0  0  # atno 8010 bound_to 7997
  140.7287  143.4478  151.0561 H   0  0  0  0  0  0  0  0  0  0  0  0  # atno 10167 bound_to 10162
  157.6887  131.0653  150.4863 H   0  0  0  0  0  0  0  0  0  0  0  0  # atno 10718 bound_to 10713
  153.1595  135.6793  153.8763 H   0  0  0  0  0  0  0  0  0  0  0  0  # atno 10763 bound_to 10752
  153.8163  135.3136  155.3407 H   0  0  0  0  0  0  0  0  0  0  0  0  # atno 10764 bound_to 10752
  154.7922  135.4828  154.0167 H   0  0  0  0  0  0  0  0  0  0  0  0  # atno 10765 bound_to 10752
  140.8405  134.2408  157.4812 H   0  0  0  0  0  0  0  0  0  0  0  0  # atno 11005 bound_to 11000
  145.3386  141.0282  143.3405 LP  0  0  0  0  0  0  0  0  0  0  0  0  # atno 17320 bound_to 7965
  144.8748  139.4986  143.6750 LP  0  0  0  0  0  0  0  0  0  0  0  0  # atno 17321 bound_to 7965
  139.8151  143.7896  152.3174 LP  0  0  0  0  0  0  0  0  0  0  0  0  # atno 17342 bound_to 10162
  139.7960  144.7392  150.9890 LP  0  0  0  0  0  0  0  0  0  0  0  0  # atno 17343 bound_to 10162
  156.5192  130.4158  149.6259 LP  0  0  0  0  0  0  0  0  0  0  0  0  # atno 17370 bound_to 10713
  156.3170  130.7260  151.2164 LP  0  0  0  0  0  0  0  0  0  0  0  0  # atno 17371 bound_to 10713
  139.8703  134.9633  156.4456 LP  0  0  0  0  0  0  0  0  0  0  0  0  # atno 17394 bound_to 11000
  140.8901  133.7855  155.9562 LP  0  0  0  0  0  0  0  0  0  0  0  0  # atno 17395 bound_to 11000

$$$$
