AV-unprocessed.smi:3019|AV-procd|sdf|11487|dock1
  -GOLD-   2272016423D 1   1.00000     0.00000
 Structure written by MMmdl.
 31 32  0  0  0  0  0  0  0  0  2 V2000
  152.6439  140.7991  159.8187 C   0  0  0  0  0  0  0  0  0  0  0  0
  152.6715  142.1018  159.0058 C   0  0  0  0  0  0  0  0  0  0  0  0
  152.5169  143.3560  159.8789 C   0  0  0  0  0  0  0  0  0  0  0  0
  151.6744  142.0787  157.8881 C   0  0  0  0  0  0  0  0  0  0  0  0
  150.7975  143.0685  157.7238 N   0  0  0  0  0  0  0  0  0  0  0  0
  150.1111  142.6607  156.6359 N   0  0  0  0  0  0  0  0  0  0  0  0
  150.5982  141.4903  156.2183 C   0  0  0  0  0  0  0  0  0  0  0  0
  150.0389  140.7683  155.0333 C   0  0  2  0  0  0  0  0  0  0  0  0
  148.8243  141.4931  154.4217 C   0  0  0  0  0  0  0  0  0  0  0  0
  148.2534  140.6853  153.3263 N   0  3  0  0  0  0  0  0  0  0  0  0
  147.9234  139.3188  153.7776 C   0  0  0  0  0  0  0  0  0  0  0  0
  149.1581  138.6588  154.4166 C   0  0  0  0  0  0  0  0  0  0  0  0
  149.6432  139.4733  155.4788 O   0  0  0  0  0  0  0  0  0  0  0  0
  151.5998  141.0591  156.9786 N   0  0  0  0  0  0  0  0  0  0  0  0
  149.3535  143.1930  156.2324 H   0  0  0  0  0  0  0  0  0  0  0  0
  152.8265  139.9341  159.1801 H   0  0  0  0  0  0  0  0  0  0  0  0
  151.6793  140.6558  160.3067 H   0  0  0  0  0  0  0  0  0  0  0  0
  153.4105  140.8046  160.5938 H   0  0  0  0  0  0  0  0  0  0  0  0
  153.6634  142.1617  158.5548 H   0  0  0  0  0  0  0  0  0  0  0  0
  152.6147  144.2641  159.2832 H   0  0  0  0  0  0  0  0  0  0  0  0
  153.2797  143.3883  160.6570 H   0  0  0  0  0  0  0  0  0  0  0  0
  151.5429  143.3816  160.3683 H   0  0  0  0  0  0  0  0  0  0  0  0
  150.8284  140.6653  154.2860 H   0  0  0  0  0  0  0  0  0  0  0  0
  148.0555  141.6569  155.1784 H   0  0  0  0  0  0  0  0  0  0  0  0
  149.1119  142.4722  154.0376 H   0  0  0  0  0  0  0  0  0  0  0  0
  147.4185  141.1344  152.9767 H   0  0  0  0  0  0  0  0  0  0  0  0
  147.1065  139.3670  154.4989 H   0  0  0  0  0  0  0  0  0  0  0  0
  147.5695  138.7321  152.9296 H   0  0  0  0  0  0  0  0  0  0  0  0
  148.8973  137.6776  154.8139 H   0  0  0  0  0  0  0  0  0  0  0  0
  149.9443  138.5037  153.6758 H   0  0  0  0  0  0  0  0  0  0  0  0
  148.9316  140.6250  152.5803 H   0  0  0  0  0  0  0  0  0  0  0  0
  1  2  1  0  0  0  0
  1 16  1  0  0  0  0
  1 17  1  0  0  0  0
  1 18  1  0  0  0  0
  2  3  1  0  0  0  0
  2  4  1  0  0  0  0
  2 19  1  0  0  0  0
  3 20  1  0  0  0  0
  3 21  1  0  0  0  0
  3 22  1  0  0  0  0
  4 14  1  0  0  0  0
  4  5  2  0  0  0  0
  5  6  1  0  0  0  0
  6 15  1  0  0  0  0
  6  7  1  0  0  0  0
  7  8  1  0  0  0  0
  7 14  2  0  0  0  0
  8 13  1  0  0  0  0
  8  9  1  0  0  0  0
  8 23  1  0  0  0  0
  9 10  1  0  0  0  0
  9 24  1  0  0  0  0
  9 25  1  0  0  0  0
 10 11  1  0  0  0  0
 10 26  1  0  0  0  0
 10 31  1  0  0  0  0
 11 12  1  0  0  0  0
 11 27  1  0  0  0  0
 11 28  1  0  0  0  0
 12 13  1  0  0  0  0
 12 29  1  0  0  0  0
 12 30  1  0  0  0  0
M  CHG  1  10   1
M  END
> <s_m_source_file>
AV-unprocessed.smi

> <i_m_source_file_index>
3019

> <i_lp_mmshare_version>
43012

> <i_f3d_flags>
0

> <s_epik_input>
W0NIM11bQ0hdKFtDSDNdKWMxbltuSF1jKG4xKVtDQEBIXTJbQ0gyXVtOSF1bQ0gyXVtDSDJdTzI=

> <s_epik_cmdline>
J2VwaWtfcHl0aG9uJywgJy1waCcsICc3LjAnLCAnLXRuJywgJzgnLCAnLW1hJywgJzIwMCcsICctbWV0YWxfYmluZGluZycsICctaW1hZScsICc8aW5maWxlLm1hZT4nLCAnLW9tYWUnLCAnPG91dGZpbGUubWFlPic=

> <r_epik_Ionization_Penalty>
0.162344

> <r_epik_Ionization_Penalty_Charging>
0.125708

> <r_epik_Ionization_Penalty_Neutral>
0.0366363

> <r_epik_State_Penalty>
1.18286

> <r_epik_Charging_Adjusted_Penalty>
1.30856

> <i_epik_Tot_Q>
1

> <i_epik_Tot_abs_Q>
1

> <r_epik_Metal_State_Penalty>
1.49333

> <b_epik_Metal_Only>
0

> <s_lp_Force_Field>
OPLS_2005

> <r_lp_Energy>
8.53585

> <b_lp_Chiralities_Consistent>
1

> <s_lp_Variant>
AV-unprocessed.smi:3019-3

> <Gold.Version>
5.8.1

> <Gold.Id.Protein>
6NUR|6NUR_protein|mol2

> <Gold.PLP.Fitness>
31.7538

> <Gold.PLP.PLP>
-26.2802

> <Gold.PLP.part.hbond>
-2.0000

> <Gold.PLP.part.metal>
0.0000

> <Gold.PLP.part.buried>
-2.0176

> <Gold.PLP.part.nonpolar>
-21.7179

> <Gold.PLP.part.repulsive>
0.3797

> <Gold.PLP.ligand.clash>
0.0000

> <Gold.PLP.ligand.torsion>
0.0893

> <Gold.PLP.Chemscore.Hbond>
1.8640

> <Gold.PLP.Chemscore.CHOScore>
0.0000

> <Gold.PLP.Chemscore.Metal>
0.0000

> <Gold.Chemscore.Hbonds>
donor molecule, donor type, donor heavy atom, donor atom, acceptor molecule, acceptor atom, score
      L1  H     6    15       P1  8028  0.90
      L1  H    10    31       P1  7957  1.00

> <Gold.PLP.Chemscore.Internal.Correction>
0.0602

> <Gold.Rescore>
     Score         DG    S(hbond)    S(metal)    S(lipo)     H(rot)  DE(clash)    DE(int)     intcor
     15.41     -15.47       1.99        0.00      56.63       1.28       0.01       0.04       ----

> <Gold.Chemscore.Fitness>
15.4134

> <Gold.Chemscore.DG>
-15.4675

> <Gold.Chemscore.ZeroCoef>
-5.4800

> <Gold.Chemscore.Hbond>
1.9871

> <Gold.Chemscore.Metal>
0.0000

> <Gold.Chemscore.Lipo>
56.6321

> <Gold.Chemscore.Internal_Hbond>
0.0000

> <Gold.Chemscore.DEClash>
0.0093

> <Gold.Chemscore.DEInternal>
0.0448

> <Gold.Chemscore.Rot>
1.2795

> <Gold.Chemscore.Internal.Correction>
   9.000000E+99

> <Gold.Chemscore.Hbonds>
donor molecule, donor type, donor heavy atom, donor atom, acceptor molecule, acceptor atom, score
      L1  H     6    15       P1  8028  0.88
      L1  H    10    31       P1  7957  0.99

> <Gold.Chemscore.Hbond.Weighted>
-6.6370

> <Gold.Chemscore.Metal.Weighted>
-0.0000

> <Gold.Chemscore.Lipo.Weighted>
-6.6260

> <Gold.Chemscore.Internal_Hbond.Weighted>
0.0000

> <Gold.Chemscore.DEClash.Weighted>
0.0093

> <Gold.Chemscore.DEInternal.Weighted>
0.0448

> <Gold.Chemscore.Rot.Weighted>
3.2754

> <Gold.Chemscore.Internal.Correction.Weighted>
   9.000000E+99

> <Gold.Protein.RotatedTorsions>
[ 6907 6896 6895 6894 ] final -107.60 input  -60.11 | X-H torsion
[ 7974 7965 7964 7962 ] final   88.02 input  175.53 | X-H torsion
[ 8008 7997 7996 7995 ] final  -86.14 input   59.86 | X-H torsion
[ 10167 10162 10161 10158 ] final  -96.05 input  -65.29 | X-H torsion
[ 10718 10713 10712 10709 ] final  156.28 input   66.30 | X-H torsion
[ 10763 10752 10751 10750 ] final   16.35 input  -60.55 | X-H torsion
[ 11005 11000 10999 10996 ] final  178.24 input  -57.11 | X-H torsion

> <Gold.Protein.ActiveResidues>
 VAL166  LYS551  ARG553  GLY616  TRP617  ASP618  TYR619  PRO620  LYS621  CYS622 
 ASP623  PHE694  ASN695  SER759  ASP760  ASP761  ALA762  ILE779  LEU786  VAL792 
 PHE793  MET794  SER795  GLU796  ALA797  LYS798  CYS799  TRP800  GLU811  SER814 

> <Gold.Protein.RotatedAtoms>
  150.7453  133.9803  159.3573 H   0  0  0  0  0  0  0  0  0  0  0  0  # atno 6907 bound_to 6896
  151.7743  135.0776  160.0374 H   0  0  0  0  0  0  0  0  0  0  0  0  # atno 6908 bound_to 6896
  152.3317  133.5929  159.5851 H   0  0  0  0  0  0  0  0  0  0  0  0  # atno 6909 bound_to 6896
  145.5512  139.2296  143.2511 H   0  0  0  0  0  0  0  0  0  0  0  0  # atno 7974 bound_to 7965
  154.6486  140.0582  156.9929 H   0  0  0  0  0  0  0  0  0  0  0  0  # atno 8008 bound_to 7997
  155.1406  140.3265  155.4434 H   0  0  0  0  0  0  0  0  0  0  0  0  # atno 8009 bound_to 7997
  156.2565  140.1964  156.6522 H   0  0  0  0  0  0  0  0  0  0  0  0  # atno 8010 bound_to 7997
  140.2978  143.3181  152.0279 H   0  0  0  0  0  0  0  0  0  0  0  0  # atno 10167 bound_to 10162
  157.2070  131.0689  151.1992 H   0  0  0  0  0  0  0  0  0  0  0  0  # atno 10718 bound_to 10713
  153.1439  135.6765  153.8984 H   0  0  0  0  0  0  0  0  0  0  0  0  # atno 10763 bound_to 10752
  153.8432  135.3102  155.3429 H   0  0  0  0  0  0  0  0  0  0  0  0  # atno 10764 bound_to 10752
  154.7809  135.4888  153.9928 H   0  0  0  0  0  0  0  0  0  0  0  0  # atno 10765 bound_to 10752
  140.3930  134.6845  157.4518 H   0  0  0  0  0  0  0  0  0  0  0  0  # atno 11005 bound_to 11000
  146.1915  140.6335  142.9143 LP  0  0  0  0  0  0  0  0  0  0  0  0  # atno 17320 bound_to 7965
  144.7528  140.5234  143.6790 LP  0  0  0  0  0  0  0  0  0  0  0  0  # atno 17321 bound_to 7965
  139.4922  144.6478  151.6741 LP  0  0  0  0  0  0  0  0  0  0  0  0  # atno 17342 bound_to 10162
  140.5677  144.0162  150.6201 LP  0  0  0  0  0  0  0  0  0  0  0  0  # atno 17343 bound_to 10162
  157.3710  130.7181  149.6565 LP  0  0  0  0  0  0  0  0  0  0  0  0  # atno 17370 bound_to 10713
  155.9694  130.4199  150.4396 LP  0  0  0  0  0  0  0  0  0  0  0  0  # atno 17371 bound_to 10713
  140.0393  134.6291  155.9002 LP  0  0  0  0  0  0  0  0  0  0  0  0  # atno 17394 bound_to 11000
  141.1884  133.6562  156.5323 LP  0  0  0  0  0  0  0  0  0  0  0  0  # atno 17395 bound_to 11000

$$$$
