AV-unprocessed.smi:3278|AV-procd|sdf|12543|dock1
  -GOLD-   2272018453D 1   1.00000     0.00000
 Structure written by MMmdl.
 39 40  0  0  0  0  0  0  0  0  2 V2000
  154.8174  140.5155  160.7902 C   0  0  0  0  0  0  0  0  0  0  0  0
  153.8607  141.5973  160.6954 N   0  0  0  0  0  0  0  0  0  0  0  0
  153.2650  142.1231  159.5703 C   0  0  0  0  0  0  0  0  0  0  0  0
  152.4305  143.1296  159.9735 C   0  0  0  0  0  0  0  0  0  0  0  0
  151.5401  144.0117  159.1238 C   0  0  2  0  0  0  0  0  0  0  0  0
  151.8879  145.4913  159.3615 C   0  0  0  0  0  0  0  0  0  0  0  0
  150.1740  143.8725  159.4683 O   0  0  0  0  0  0  0  0  0  0  0  0
  151.6751  143.6557  157.6273 C   0  0  0  0  0  0  0  0  0  0  0  0
  150.4804  142.9382  157.1262 N   0  3  0  0  0  0  0  0  0  0  0  0
  150.7513  141.7937  156.2289 C   0  0  1  0  0  0  0  0  0  0  0  0
  151.6222  140.7296  156.9335 C   0  0  0  0  0  0  0  0  0  0  0  0
  151.9690  139.5414  156.0208 C   0  0  0  0  0  0  0  0  0  0  0  0
  150.7235  138.7931  155.5273 C   0  0  0  0  0  0  0  0  0  0  0  0
  149.6629  139.8779  154.5362 S   0  0  0  0  0  0  0  0  0  0  0  0
  149.4139  141.1947  155.7577 C   0  0  0  0  0  0  0  0  0  0  0  0
  152.6009  143.1416  161.3896 C   0  0  0  0  0  0  0  0  0  0  0  0
  153.4503  142.2222  161.8167 N   0  0  0  0  0  0  0  0  0  0  0  0
  155.0349  140.1204  159.7974 H   0  0  0  0  0  0  0  0  0  0  0  0
  154.4102  139.7153  161.4089 H   0  0  0  0  0  0  0  0  0  0  0  0
  155.7431  140.8794  161.2373 H   0  0  0  0  0  0  0  0  0  0  0  0
  153.4791  141.7400  158.5833 H   0  0  0  0  0  0  0  0  0  0  0  0
  152.9229  145.7048  159.0919 H   0  0  0  0  0  0  0  0  0  0  0  0
  151.7600  145.7646  160.4098 H   0  0  0  0  0  0  0  0  0  0  0  0
  151.2536  146.1521  158.7691 H   0  0  0  0  0  0  0  0  0  0  0  0
  149.8847  143.0068  159.2218 H   0  0  0  0  0  0  0  0  0  0  0  0
  151.8313  144.5573  157.0329 H   0  0  0  0  0  0  0  0  0  0  0  0
  152.5564  143.0309  157.4837 H   0  0  0  0  0  0  0  0  0  0  0  0
  149.9329  142.6172  157.9120 H   0  0  0  0  0  0  0  0  0  0  0  0
  151.2791  142.1704  155.3513 H   0  0  0  0  0  0  0  0  0  0  0  0
  152.5557  141.1728  157.2788 H   0  0  0  0  0  0  0  0  0  0  0  0
  151.1120  140.3661  157.8266 H   0  0  0  0  0  0  0  0  0  0  0  0
  152.5509  139.8894  155.1665 H   0  0  0  0  0  0  0  0  0  0  0  0
  152.6113  138.8476  156.5639 H   0  0  0  0  0  0  0  0  0  0  0  0
  151.0133  137.9363  154.9189 H   0  0  0  0  0  0  0  0  0  0  0  0
  150.1505  138.4073  156.3711 H   0  0  0  0  0  0  0  0  0  0  0  0
  148.8538  140.7905  156.6019 H   0  0  0  0  0  0  0  0  0  0  0  0
  148.7913  141.9651  155.3015 H   0  0  0  0  0  0  0  0  0  0  0  0
  152.1292  143.7851  162.1178 H   0  0  0  0  0  0  0  0  0  0  0  0
  149.9294  143.6110  156.6121 H   0  0  0  0  0  0  0  0  0  0  0  0
  1  2  1  0  0  0  0
  1 18  1  0  0  0  0
  1 19  1  0  0  0  0
  1 20  1  0  0  0  0
  2 17  1  0  0  0  0
  2  3  1  0  0  0  0
  3  4  2  0  0  0  0
  3 21  1  0  0  0  0
  4  5  1  0  0  0  0
  4 16  1  0  0  0  0
  5  6  1  0  0  0  0
  5  7  1  0  0  0  0
  5  8  1  0  0  0  0
  6 22  1  0  0  0  0
  6 23  1  0  0  0  0
  6 24  1  0  0  0  0
  7 25  1  0  0  0  0
  8  9  1  0  0  0  0
  8 26  1  0  0  0  0
  8 27  1  0  0  0  0
  9 10  1  0  0  0  0
  9 28  1  0  0  0  0
  9 39  1  0  0  0  0
 10 15  1  0  0  0  0
 10 11  1  0  0  0  0
 10 29  1  0  0  0  0
 11 12  1  0  0  0  0
 11 30  1  0  0  0  0
 11 31  1  0  0  0  0
 12 13  1  0  0  0  0
 12 32  1  0  0  0  0
 12 33  1  0  0  0  0
 13 14  1  0  0  0  0
 13 34  1  0  0  0  0
 13 35  1  0  0  0  0
 14 15  1  0  0  0  0
 15 36  1  0  0  0  0
 15 37  1  0  0  0  0
 16 17  2  0  0  0  0
 16 38  1  0  0  0  0
M  CHG  1   9   1
M  END
> <s_m_source_file>
AV-unprocessed.smi

> <i_m_source_file_index>
3278

> <i_lp_mmshare_version>
43012

> <i_f3d_flags>
0

> <s_epik_input>
W0NIM11uMVtjSF1jKFtjSF1uMSlbQ0BAXShbQ0gzXSkoW09IXSlbQ0gyXVtOSF1bQ0BASF0yW0NIMl1bQ0gyXVtDSDJdU1tDSDJdMg==

> <s_epik_cmdline>
J2VwaWtfcHl0aG9uJywgJy1waCcsICc3LjAnLCAnLXRuJywgJzgnLCAnLW1hJywgJzIwMCcsICctbWV0YWxfYmluZGluZycsICctaW1hZScsICc8aW5maWxlLm1hZT4nLCAnLW9tYWUnLCAnPG91dGZpbGUubWFlPic=

> <r_lp_tautomer_probability>
1

> <r_epik_Ionization_Penalty>
0.0185703

> <r_epik_Ionization_Penalty_Charging>
0.0185619

> <r_epik_Ionization_Penalty_Neutral>
8.47286e-06

> <r_epik_State_Penalty>
0.0147768

> <r_epik_Charging_Adjusted_Penalty>
0.0333386

> <i_epik_Tot_Q>
1

> <i_epik_Tot_abs_Q>
1

> <r_epik_Metal_State_Penalty>
0.0147782

> <b_epik_Metal_Only>
0

> <s_lp_Force_Field>
OPLS_2005

> <r_lp_Energy>
8.58851

> <b_lp_Chiralities_Consistent>
1

> <s_lp_Variant>
AV-unprocessed.smi:3278-4

> <Gold.Version>
5.8.1

> <Gold.Id.Protein>
6NUR|6NUR_protein|mol2

> <Gold.PLP.Fitness>
50.7520

> <Gold.PLP.PLP>
-47.3129

> <Gold.PLP.part.hbond>
-1.1393

> <Gold.PLP.part.metal>
0.0000

> <Gold.PLP.part.buried>
-4.7332

> <Gold.PLP.part.nonpolar>
-41.0297

> <Gold.PLP.part.repulsive>
0.0332

> <Gold.PLP.ligand.clash>
0.0000

> <Gold.PLP.ligand.torsion>
1.2975

> <Gold.PLP.Chemscore.Hbond>
2.0000

> <Gold.PLP.Chemscore.CHOScore>
0.0000

> <Gold.PLP.Chemscore.Metal>
0.0000

> <Gold.Chemscore.Hbonds>
donor molecule, donor type, donor heavy atom, donor atom, acceptor molecule, acceptor atom, score
      L1  H     9    39       P1  8028  2.00

> <Gold.PLP.Chemscore.Internal.Correction>
0.0340

> <Gold.Rescore>
     Score         DG    S(hbond)    S(metal)    S(lipo)     H(rot)  DE(clash)    DE(int)     intcor
     16.48     -17.86       0.99        0.00     121.39       2.00       0.08       1.30       ----

> <Gold.Chemscore.Fitness>
16.4777

> <Gold.Chemscore.DG>
-17.8650

> <Gold.Chemscore.ZeroCoef>
-5.4800

> <Gold.Chemscore.Hbond>
0.9918

> <Gold.Chemscore.Metal>
0.0000

> <Gold.Chemscore.Lipo>
121.3855

> <Gold.Chemscore.Internal_Hbond>
0.0000

> <Gold.Chemscore.DEClash>
0.0824

> <Gold.Chemscore.DEInternal>
1.3049

> <Gold.Chemscore.Rot>
2.0038

> <Gold.Chemscore.Internal.Correction>
   9.000000E+99

> <Gold.Chemscore.Hbonds>
donor molecule, donor type, donor heavy atom, donor atom, acceptor molecule, acceptor atom, score
      L1  H     9    39       P1  8028  1.00

> <Gold.Chemscore.Hbond.Weighted>
-3.3125

> <Gold.Chemscore.Metal.Weighted>
-0.0000

> <Gold.Chemscore.Lipo.Weighted>
-14.2021

> <Gold.Chemscore.Internal_Hbond.Weighted>
0.0000

> <Gold.Chemscore.DEClash.Weighted>
0.0824

> <Gold.Chemscore.DEInternal.Weighted>
1.3049

> <Gold.Chemscore.Rot.Weighted>
5.1296

> <Gold.Chemscore.Internal.Correction.Weighted>
   9.000000E+99

> <Gold.Protein.RotatedTorsions>
[ 6907 6896 6895 6894 ] final   98.68 input  -60.11 | X-H torsion
[ 7974 7965 7964 7962 ] final -135.19 input  175.53 | X-H torsion
[ 8008 7997 7996 7995 ] final   22.61 input   59.86 | X-H torsion
[ 10167 10162 10161 10158 ] final   31.67 input  -65.29 | X-H torsion
[ 10718 10713 10712 10709 ] final    3.61 input   66.30 | X-H torsion
[ 10763 10752 10751 10750 ] final   81.95 input  -60.55 | X-H torsion
[ 11005 11000 10999 10996 ] final  -17.42 input  -57.11 | X-H torsion

> <Gold.Protein.ActiveResidues>
 VAL166  LYS551  ARG553  GLY616  TRP617  ASP618  TYR619  PRO620  LYS621  CYS622 
 ASP623  PHE694  ASN695  SER759  ASP760  ASP761  ALA762  ILE779  LEU786  VAL792 
 PHE793  MET794  SER795  GLU796  ALA797  LYS798  CYS799  TRP800  GLU811  SER814 

> <Gold.Protein.RotatedAtoms>
  152.5405  134.0543  159.8123 H   0  0  0  0  0  0  0  0  0  0  0  0  # atno 6907 bound_to 6896
  151.0680  133.5481  159.2636 H   0  0  0  0  0  0  0  0  0  0  0  0  # atno 6908 bound_to 6896
  151.2355  135.0578  159.9058 H   0  0  0  0  0  0  0  0  0  0  0  0  # atno 6909 bound_to 6896
  144.9036  140.6803  143.5069 H   0  0  0  0  0  0  0  0  0  0  0  0  # atno 7974 bound_to 7965
  154.9684  140.3087  155.4999 H   0  0  0  0  0  0  0  0  0  0  0  0  # atno 8008 bound_to 7997
  156.2969  140.2288  156.4713 H   0  0  0  0  0  0  0  0  0  0  0  0  # atno 8009 bound_to 7997
  154.7900  140.0440  157.1182 H   0  0  0  0  0  0  0  0  0  0  0  0  # atno 8010 bound_to 7997
  140.4568  144.0967  150.6203 H   0  0  0  0  0  0  0  0  0  0  0  0  # atno 10167 bound_to 10162
  156.8804  130.5651  149.5653 H   0  0  0  0  0  0  0  0  0  0  0  0  # atno 10718 bound_to 10713
  153.1161  135.4746  154.9117 H   0  0  0  0  0  0  0  0  0  0  0  0  # atno 10763 bound_to 10752
  154.7529  135.3111  154.8526 H   0  0  0  0  0  0  0  0  0  0  0  0  # atno 10764 bound_to 10752
  153.9102  135.6866  153.4805 H   0  0  0  0  0  0  0  0  0  0  0  0  # atno 10765 bound_to 10752
  140.8167  133.8099  155.9617 H   0  0  0  0  0  0  0  0  0  0  0  0  # atno 11005 bound_to 11000
  145.3574  139.1690  143.4401 LP  0  0  0  0  0  0  0  0  0  0  0  0  # atno 17320 bound_to 7965
  146.3121  140.3633  142.8667 LP  0  0  0  0  0  0  0  0  0  0  0  0  # atno 17321 bound_to 7965
  140.4142  143.2642  151.9796 LP  0  0  0  0  0  0  0  0  0  0  0  0  # atno 17342 bound_to 10162
  139.4802  144.5889  151.7806 LP  0  0  0  0  0  0  0  0  0  0  0  0  # atno 17343 bound_to 10162
  156.0680  130.5719  150.9327 LP  0  0  0  0  0  0  0  0  0  0  0  0  # atno 17370 bound_to 10713
  157.6143  131.0934  150.8738 LP  0  0  0  0  0  0  0  0  0  0  0  0  # atno 17371 bound_to 10713
  140.9142  134.2223  157.4967 LP  0  0  0  0  0  0  0  0  0  0  0  0  # atno 17394 bound_to 11000
  139.8711  134.9763  156.4918 LP  0  0  0  0  0  0  0  0  0  0  0  0  # atno 17395 bound_to 11000

$$$$
