AV-unprocessed.smi:743|AV-procd|sdf|3565|dock6
  -GOLD-   22720 0563D 1   1.00000     0.00000
 Structure written by MMmdl.
 28 29  0  0  0  0  0  0  0  0  1 V2000
  151.9180  145.4119  159.6614 C   0  0  0  0  0  0  0  0  0  0  0  0
  151.7898  144.1567  158.9524 N   0  0  0  0  0  0  0  0  0  0  0  0
  151.3696  143.9408  157.6582 C   0  0  0  0  0  0  0  0  0  0  0  0
  151.4061  142.5923  157.4300 C   0  0  0  0  0  0  0  0  0  0  0  0
  151.0514  141.8215  156.1798 C   0  0  1  0  0  0  0  0  0  0  0  0
  152.1544  140.9391  155.7849 N   0  0  0  0  0  0  0  0  0  0  0  0
  152.0607  139.6964  155.2789 C   0  0  0  0  0  0  0  0  0  0  0  0
  153.0589  139.0661  154.9379 O   0  0  0  0  0  0  0  0  0  0  0  0
  150.6771  139.0421  155.1555 C   0  0  0  0  0  0  0  0  0  0  0  0
  149.5218  140.0523  155.2075 C   0  0  0  0  0  0  0  0  0  0  0  0
  149.7258  141.0434  156.3589 C   0  0  2  0  0  0  0  0  0  0  0  0
  148.5939  141.9500  156.4304 N   0  0  0  0  0  0  0  0  0  0  0  0
  151.8734  142.0671  158.6697 C   0  0  0  0  0  0  0  0  0  0  0  0
  152.0985  143.0027  159.5774 N   0  0  0  0  0  0  0  0  0  0  0  0
  149.7615  140.4821  157.2938 H   0  0  0  0  0  0  0  0  0  0  0  0
  151.9877  146.2356  158.9502 H   0  0  0  0  0  0  0  0  0  0  0  0
  152.8163  145.4038  160.2800 H   0  0  0  0  0  0  0  0  0  0  0  0
  151.0456  145.5634  160.2975 H   0  0  0  0  0  0  0  0  0  0  0  0
  151.0821  144.7569  157.0114 H   0  0  0  0  0  0  0  0  0  0  0  0
  150.9298  142.5151  155.3461 H   0  0  0  0  0  0  0  0  0  0  0  0
  153.0824  141.3279  155.8703 H   0  0  0  0  0  0  0  0  0  0  0  0
  150.6274  138.4648  154.2317 H   0  0  0  0  0  0  0  0  0  0  0  0
  150.5749  138.3300  155.9750 H   0  0  0  0  0  0  0  0  0  0  0  0
  149.4572  140.5860  154.2577 H   0  0  0  0  0  0  0  0  0  0  0  0
  148.5787  139.5180  155.3286 H   0  0  0  0  0  0  0  0  0  0  0  0
  148.8192  142.8129  155.9565 H   0  0  0  0  0  0  0  0  0  0  0  0
  147.8080  141.5500  155.9379 H   0  0  0  0  0  0  0  0  0  0  0  0
  152.0531  141.0356  158.9346 H   0  0  0  0  0  0  0  0  0  0  0  0
  1  2  1  0  0  0  0
  1 16  1  0  0  0  0
  1 17  1  0  0  0  0
  1 18  1  0  0  0  0
  2 14  1  0  0  0  0
  2  3  1  0  0  0  0
  3  4  2  0  0  0  0
  3 19  1  0  0  0  0
  4  5  1  0  0  0  0
  4 13  1  0  0  0  0
  5 11  1  0  0  0  0
  5  6  1  0  0  0  0
  5 20  1  0  0  0  0
  6  7  1  0  0  0  0
  6 21  1  0  0  0  0
  7  8  2  0  0  0  0
  7  9  1  0  0  0  0
  9 10  1  0  0  0  0
  9 22  1  0  0  0  0
  9 23  1  0  0  0  0
 10 11  1  0  0  0  0
 10 24  1  0  0  0  0
 10 25  1  0  0  0  0
 11 15  1  0  0  0  0
 11 12  1  0  0  0  0
 12 26  1  0  0  0  0
 12 27  1  0  0  0  0
 13 14  2  0  0  0  0
 13 28  1  0  0  0  0
M  END
> <s_m_source_file>
AV-unprocessed.smi

> <i_m_source_file_index>
743

> <i_lp_mmshare_version>
43012

> <i_f3d_flags>
0

> <s_epik_input>
W0NIM11uMVtjSF1jKFtjSF1uMSlbQ0BASF0yW05IXUMoPU8pW0NIMl1bQ0gyXVtDQEBIXTJbTkgyXQ==

> <s_epik_cmdline>
J2VwaWtfcHl0aG9uJywgJy1waCcsICc3LjAnLCAnLXRuJywgJzgnLCAnLW1hJywgJzIwMCcsICctbWV0YWxfYmluZGluZycsICctaW1hZScsICc8aW5maWxlLm1hZT4nLCAnLW9tYWUnLCAnPG91dGZpbGUubWFlPic=

> <r_lp_tautomer_probability>
1

> <r_epik_Ionization_Penalty>
2.50279

> <r_epik_Ionization_Penalty_Charging>
0

> <r_epik_Ionization_Penalty_Neutral>
2.50279

> <r_epik_State_Penalty>
2.66754

> <r_epik_Charging_Adjusted_Penalty>
2.66754

> <i_epik_Tot_Q>
0

> <i_epik_Tot_abs_Q>
0

> <r_epik_Metal_State_Penalty>
2.66721

> <b_epik_Metal_Only>
0

> <s_lp_Force_Field>
OPLS_2005

> <r_lp_Energy>
8.34042

> <b_lp_Chiralities_Consistent>
1

> <s_lp_Variant>
AV-unprocessed.smi:743-6

> <Gold.Version>
5.8.1

> <Gold.Id.Protein>
6NUR|6NUR_protein|mol2

> <Gold.PLP.Fitness>
35.0848

> <Gold.PLP.PLP>
-26.9592

> <Gold.PLP.part.hbond>
-2.0000

> <Gold.PLP.part.metal>
0.0000

> <Gold.PLP.part.buried>
-1.1879

> <Gold.PLP.part.nonpolar>
-24.3339

> <Gold.PLP.part.repulsive>
0.1936

> <Gold.PLP.ligand.clash>
0.0000

> <Gold.PLP.ligand.torsion>
0.1812

> <Gold.PLP.Chemscore.Hbond>
1.9913

> <Gold.PLP.Chemscore.CHOScore>
0.8294

> <Gold.PLP.Chemscore.Metal>
0.0000

> <Gold.Chemscore.Hbonds>
donor molecule, donor type, donor heavy atom, donor atom, acceptor molecule, acceptor atom, score
      L1  H    12    26       P1  8028  1.00
      P1  H  7997  8010       L1     8  0.95
      L1  C     3    19       P1  8028  0.85

> <Gold.PLP.Chemscore.Internal.Correction>
0.0260

> <Gold.Rescore>
     Score         DG    S(hbond)    S(metal)    S(lipo)     H(rot)  DE(clash)    DE(int)     intcor
     15.08     -16.72       1.83        0.00      65.83       1.00       1.63       0.01       ----

> <Gold.Chemscore.Fitness>
15.0785

> <Gold.Chemscore.DG>
-16.7205

> <Gold.Chemscore.ZeroCoef>
-5.4800

> <Gold.Chemscore.Hbond>
1.8259

> <Gold.Chemscore.Metal>
0.0000

> <Gold.Chemscore.Lipo>
65.8285

> <Gold.Chemscore.Internal_Hbond>
0.0000

> <Gold.Chemscore.DEClash>
1.6288

> <Gold.Chemscore.DEInternal>
0.0132

> <Gold.Chemscore.Rot>
1.0000

> <Gold.Chemscore.Internal.Correction>
   9.000000E+99

> <Gold.Chemscore.Hbonds>
donor molecule, donor type, donor heavy atom, donor atom, acceptor molecule, acceptor atom, score
      L1  H    12    26       P1  8028  0.98
      P1  H  7997  8010       L1     8  0.20

> <Gold.Chemscore.Hbond.Weighted>
-6.0985

> <Gold.Chemscore.Metal.Weighted>
-0.0000

> <Gold.Chemscore.Lipo.Weighted>
-7.7019

> <Gold.Chemscore.Internal_Hbond.Weighted>
0.0000

> <Gold.Chemscore.DEClash.Weighted>
1.6288

> <Gold.Chemscore.DEInternal.Weighted>
0.0132

> <Gold.Chemscore.Rot.Weighted>
2.5600

> <Gold.Chemscore.Internal.Correction.Weighted>
   9.000000E+99

> <Gold.Protein.RotatedTorsions>
[ 6907 6896 6895 6894 ] final -143.08 input  -60.11 | X-H torsion
[ 7974 7965 7964 7962 ] final  109.37 input  175.53 | X-H torsion
[ 8008 7997 7996 7995 ] final  103.93 input   59.86 | X-H torsion
[ 10167 10162 10161 10158 ] final  131.38 input  -65.29 | X-H torsion
[ 10718 10713 10712 10709 ] final  150.97 input   66.30 | X-H torsion
[ 10763 10752 10751 10750 ] final  106.37 input  -60.55 | X-H torsion
[ 11005 11000 10999 10996 ] final   36.64 input  -57.11 | X-H torsion

> <Gold.Protein.ActiveResidues>
 VAL166  LYS551  ARG553  GLY616  TRP617  ASP618  TYR619  PRO620  LYS621  CYS622 
 ASP623  PHE694  ASN695  SER759  ASP760  ASP761  ALA762  ILE779  LEU786  VAL792 
 PHE793  MET794  SER795  GLU796  ALA797  LYS798  CYS799  TRP800  GLU811  SER814 

> <Gold.Protein.RotatedAtoms>
  151.0956  133.5282  159.2612 H   0  0  0  0  0  0  0  0  0  0  0  0  # atno 6907 bound_to 6896
  151.2133  135.0489  159.8930 H   0  0  0  0  0  0  0  0  0  0  0  0  # atno 6908 bound_to 6896
  152.5438  134.0769  159.8272 H   0  0  0  0  0  0  0  0  0  0  0  0  # atno 6909 bound_to 6896
  145.2687  139.2675  143.3978 H   0  0  0  0  0  0  0  0  0  0  0  0  # atno 7974 bound_to 7965
  156.1528  140.3156  155.8676 H   0  0  0  0  0  0  0  0  0  0  0  0  # atno 8008 bound_to 7997
  155.3938  140.0495  157.3056 H   0  0  0  0  0  0  0  0  0  0  0  0  # atno 8009 bound_to 7997
  154.5074  140.2152  155.9236 H   0  0  0  0  0  0  0  0  0  0  0  0  # atno 8010 bound_to 7997
  139.5386  144.6708  151.4699 H   0  0  0  0  0  0  0  0  0  0  0  0  # atno 10167 bound_to 10162
  157.2766  131.0827  151.1561 H   0  0  0  0  0  0  0  0  0  0  0  0  # atno 10718 bound_to 10713
  153.3921  135.3879  155.1930 H   0  0  0  0  0  0  0  0  0  0  0  0  # atno 10763 bound_to 10752
  154.8720  135.3751  154.4724 H   0  0  0  0  0  0  0  0  0  0  0  0  # atno 10764 bound_to 10752
  153.5212  135.7087  153.5792 H   0  0  0  0  0  0  0  0  0  0  0  0  # atno 10765 bound_to 10752
  140.2305  134.3533  155.7966 H   0  0  0  0  0  0  0  0  0  0  0  0  # atno 11005 bound_to 11000
  146.3253  140.3123  142.8627 LP  0  0  0  0  0  0  0  0  0  0  0  0  # atno 17320 bound_to 7965
  144.9354  140.8021  143.5663 LP  0  0  0  0  0  0  0  0  0  0  0  0  # atno 17321 bound_to 7965
  140.6606  143.8507  150.6883 LP  0  0  0  0  0  0  0  0  0  0  0  0  # atno 17342 bound_to 10162
  140.1900  143.4044  152.1870 LP  0  0  0  0  0  0  0  0  0  0  0  0  # atno 17343 bound_to 10162
  157.3012  130.6843  149.6165 LP  0  0  0  0  0  0  0  0  0  0  0  0  # atno 17370 bound_to 10713
  155.9664  130.4391  150.5246 LP  0  0  0  0  0  0  0  0  0  0  0  0  # atno 17371 bound_to 10713
  141.2218  133.7243  156.8724 LP  0  0  0  0  0  0  0  0  0  0  0  0  # atno 17394 bound_to 11000
  140.1755  134.9070  157.2886 LP  0  0  0  0  0  0  0  0  0  0  0  0  # atno 17395 bound_to 11000

$$$$
