AV-unprocessed.smi:1430|AV-procd|sdf|5827|dock4
  -GOLD-   22720 5483D 1   1.00000     0.00000
 Structure written by MMmdl.
 47 48  0  0  0  0  0  0  0  0  2 V2000
  151.4649  141.5177  158.2569 C   0  0  0  0  0  0  0  0  0  0  0  0
  151.5465  141.3536  156.8456 O   0  0  0  0  0  0  0  0  0  0  0  0
  151.0615  140.1863  156.2924 C   0  0  0  0  0  0  0  0  0  0  0  0
  150.8107  139.0912  157.1425 C   0  0  0  0  0  0  0  0  0  0  0  0
  150.3158  137.8958  156.5869 C   0  0  0  0  0  0  0  0  0  0  0  0
  150.0790  137.8355  155.1926 C   0  0  0  0  0  0  0  0  0  0  0  0
  149.5993  136.6859  154.5077 N   0  0  0  0  0  0  0  0  0  0  0  0
  149.1329  135.5359  155.0232 C   0  0  0  0  0  0  0  0  0  0  0  0
  148.9995  135.2923  156.2215 O   0  0  0  0  0  0  0  0  0  0  0  0
  148.8165  134.6640  154.0554 N   0  0  0  0  0  0  0  0  0  0  0  0
  148.2745  133.3229  154.2685 C   0  0  0  0  0  0  0  0  0  0  0  0
  147.8678  132.6037  152.9623 C   0  0  0  0  0  0  0  0  0  0  0  0
  146.8219  133.3282  152.1975 N   0  3  1  0  0  0  0  0  0  0  0  0
  146.0194  132.4377  151.3298 C   0  0  0  0  0  0  0  0  0  0  0  0
  145.0562  133.2686  150.4632 C   0  0  1  0  0  0  0  0  0  0  0  0
  144.1406  132.3829  149.6113 C   0  0  0  0  0  0  0  0  0  0  0  0
  144.2330  134.0734  151.3044 O   0  0  0  0  0  0  0  0  0  0  0  0
  144.9409  134.9562  152.1761 C   0  0  2  0  0  0  0  0  0  0  0  0
  145.5921  136.1274  151.4188 C   0  0  0  0  0  0  0  0  0  0  0  0
  145.9356  134.1615  153.0438 C   0  0  0  0  0  0  0  0  0  0  0  0
  150.3752  138.9831  154.4280 C   0  0  0  0  0  0  0  0  0  0  0  0
  150.8497  140.1316  154.9542 N   0  0  0  0  0  0  0  0  0  0  0  0
  151.8866  142.4841  158.5327 H   0  0  0  0  0  0  0  0  0  0  0  0
  152.0323  140.7476  158.7813 H   0  0  0  0  0  0  0  0  0  0  0  0
  150.4301  141.4986  158.6018 H   0  0  0  0  0  0  0  0  0  0  0  0
  150.9984  139.1656  158.2034 H   0  0  0  0  0  0  0  0  0  0  0  0
  150.1440  137.0533  157.2380 H   0  0  0  0  0  0  0  0  0  0  0  0
  149.5683  136.7672  153.5017 H   0  0  0  0  0  0  0  0  0  0  0  0
  148.9442  134.9542  153.0967 H   0  0  0  0  0  0  0  0  0  0  0  0
  148.9945  132.7178  154.8215 H   0  0  0  0  0  0  0  0  0  0  0  0
  147.4051  133.4230  154.9182 H   0  0  0  0  0  0  0  0  0  0  0  0
  148.7560  132.5134  152.3358 H   0  0  0  0  0  0  0  0  0  0  0  0
  147.5433  131.5834  153.1720 H   0  0  0  0  0  0  0  0  0  0  0  0
  146.6806  131.8570  150.6850 H   0  0  0  0  0  0  0  0  0  0  0  0
  145.4658  131.7273  151.9462 H   0  0  0  0  0  0  0  0  0  0  0  0
  145.6288  133.9072  149.7900 H   0  0  0  0  0  0  0  0  0  0  0  0
  144.7208  131.7479  148.9411 H   0  0  0  0  0  0  0  0  0  0  0  0
  143.4726  132.9881  148.9980 H   0  0  0  0  0  0  0  0  0  0  0  0
  143.5243  131.7352  150.2356 H   0  0  0  0  0  0  0  0  0  0  0  0
  144.1925  135.3884  152.8409 H   0  0  0  0  0  0  0  0  0  0  0  0
  146.0112  136.8524  152.1171 H   0  0  0  0  0  0  0  0  0  0  0  0
  144.8578  136.6495  150.8052 H   0  0  0  0  0  0  0  0  0  0  0  0
  146.4029  135.8018  150.7673 H   0  0  0  0  0  0  0  0  0  0  0  0
  145.3894  133.5148  153.7324 H   0  0  0  0  0  0  0  0  0  0  0  0
  146.5211  134.8485  153.6549 H   0  0  0  0  0  0  0  0  0  0  0  0
  150.2244  138.9828  153.3583 H   0  0  0  0  0  0  0  0  0  0  0  0
  147.3128  133.9562  151.5770 H   0  0  0  0  0  0  0  0  0  0  0  0
  1  2  1  0  0  0  0
  1 23  1  0  0  0  0
  1 24  1  0  0  0  0
  1 25  1  0  0  0  0
  2  3  1  0  0  0  0
  3 22  1  0  0  0  0
  3  4  2  0  0  0  0
  4  5  1  0  0  0  0
  4 26  1  0  0  0  0
  5  6  2  0  0  0  0
  5 27  1  0  0  0  0
  6  7  1  0  0  0  0
  6 21  1  0  0  0  0
  7  8  1  0  0  0  0
  7 28  1  0  0  0  0
  8  9  2  0  0  0  0
  8 10  1  0  0  0  0
 10 11  1  0  0  0  0
 10 29  1  0  0  0  0
 11 12  1  0  0  0  0
 11 30  1  0  0  0  0
 11 31  1  0  0  0  0
 12 13  1  0  0  0  0
 12 32  1  0  0  0  0
 12 33  1  0  0  0  0
 13 20  1  0  0  0  0
 13 14  1  0  0  0  0
 13 47  1  0  0  0  0
 14 15  1  0  0  0  0
 14 34  1  0  0  0  0
 14 35  1  0  0  0  0
 15 16  1  0  0  0  0
 15 17  1  0  0  0  0
 15 36  1  0  0  0  0
 16 37  1  0  0  0  0
 16 38  1  0  0  0  0
 16 39  1  0  0  0  0
 17 18  1  0  0  0  0
 18 19  1  0  0  0  0
 18 20  1  0  0  0  0
 18 40  1  0  0  0  0
 19 41  1  0  0  0  0
 19 42  1  0  0  0  0
 19 43  1  0  0  0  0
 20 44  1  0  0  0  0
 20 45  1  0  0  0  0
 21 22  2  0  0  0  0
 21 46  1  0  0  0  0
M  CHG  1  13   1
M  END
> <s_m_source_file>
AV-unprocessed.smi

> <i_m_source_file_index>
1430

> <i_lp_mmshare_version>
43012

> <i_f3d_flags>
0

> <s_epik_input>
W0NIM11PYzFbY0hdW2NIXWMoW2NIXW4xKVtOSF1DKD1PKVtOSF1bQ0gyXVtDSDJdTjJbQ0gyXVtDQEBIXShbQ0gzXSlPW0NAQEhdKFtDSDNdKVtDSDJdMg==

> <s_epik_cmdline>
J2VwaWtfcHl0aG9uJywgJy1waCcsICc3LjAnLCAnLXRuJywgJzgnLCAnLW1hJywgJzIwMCcsICctbWV0YWxfYmluZGluZycsICctaW1hZScsICc8aW5maWxlLm1hZT4nLCAnLW9tYWUnLCAnPG91dGZpbGUubWFlPic=

> <r_lp_tautomer_probability>
1

> <r_epik_Ionization_Penalty>
0.602607

> <r_epik_Ionization_Penalty_Charging>
0.602531

> <r_epik_Ionization_Penalty_Neutral>
7.66983e-05

> <r_epik_State_Penalty>
0.617039

> <r_epik_Charging_Adjusted_Penalty>
1.21957

> <i_epik_Tot_Q>
1

> <i_epik_Tot_abs_Q>
1

> <r_epik_Metal_State_Penalty>
0.617043

> <b_epik_Metal_Only>
0

> <s_lp_Force_Field>
OPLS_2005

> <r_lp_Energy>
27.5675

> <b_lp_Chiralities_Consistent>
1

> <s_lp_Variant>
AV-unprocessed.smi:1430-6

> <Gold.Version>
5.8.1

> <Gold.Id.Protein>
6NUR|6NUR_protein|mol2

> <Gold.PLP.Fitness>
43.1825

> <Gold.PLP.PLP>
-32.6165

> <Gold.PLP.part.hbond>
-3.0000

> <Gold.PLP.part.metal>
0.0000

> <Gold.PLP.part.buried>
-4.9805

> <Gold.PLP.part.nonpolar>
-24.7386

> <Gold.PLP.part.repulsive>
0.2924

> <Gold.PLP.ligand.clash>
0.0294

> <Gold.PLP.ligand.torsion>
0.5703

> <Gold.PLP.Chemscore.Hbond>
2.9000

> <Gold.PLP.Chemscore.CHOScore>
1.0000

> <Gold.PLP.Chemscore.Metal>
0.0000

> <Gold.Chemscore.Hbonds>
donor molecule, donor type, donor heavy atom, donor atom, acceptor molecule, acceptor atom, score
      L1  H     7    28       P1  7948  1.00
      L1  H    10    29       P1  7948  0.90
      P1  H  7989  7998       L1    22  1.00
      L1  C    21    46       P1  7957  1.00

> <Gold.PLP.Chemscore.Internal.Correction>
0.0361

> <Gold.Rescore>
     Score         DG    S(hbond)    S(metal)    S(lipo)     H(rot)  DE(clash)    DE(int)     intcor
     16.44     -18.32       2.65        0.00      72.55       1.76       0.37       1.51       ----

> <Gold.Chemscore.Fitness>
16.4364

> <Gold.Chemscore.DG>
-18.3158

> <Gold.Chemscore.ZeroCoef>
-5.4800

> <Gold.Chemscore.Hbond>
2.6512

> <Gold.Chemscore.Metal>
0.0000

> <Gold.Chemscore.Lipo>
72.5463

> <Gold.Chemscore.Internal_Hbond>
0.0000

> <Gold.Chemscore.DEClash>
0.3703

> <Gold.Chemscore.DEInternal>
1.5091

> <Gold.Chemscore.Rot>
1.7606

> <Gold.Chemscore.Internal.Correction>
   9.000000E+99

> <Gold.Chemscore.Hbonds>
donor molecule, donor type, donor heavy atom, donor atom, acceptor molecule, acceptor atom, score
      L1  H     7    28       P1  7948  0.72
      L1  H    10    29       P1  7948  0.17
      P1  H  7989  7998       L1    22  0.30

> <Gold.Chemscore.Hbond.Weighted>
-8.8551

> <Gold.Chemscore.Metal.Weighted>
-0.0000

> <Gold.Chemscore.Lipo.Weighted>
-8.4879

> <Gold.Chemscore.Internal_Hbond.Weighted>
0.0000

> <Gold.Chemscore.DEClash.Weighted>
0.3703

> <Gold.Chemscore.DEInternal.Weighted>
1.5091

> <Gold.Chemscore.Rot.Weighted>
4.5072

> <Gold.Chemscore.Internal.Correction.Weighted>
   9.000000E+99

> <Gold.Protein.RotatedTorsions>
[ 6907 6896 6895 6894 ] final   96.48 input  -60.11 | X-H torsion
[ 7974 7965 7964 7962 ] final   45.71 input  175.53 | X-H torsion
[ 8008 7997 7996 7995 ] final  -49.88 input   59.86 | X-H torsion
[ 10167 10162 10161 10158 ] final  -73.55 input  -65.29 | X-H torsion
[ 10718 10713 10712 10709 ] final  135.43 input   66.30 | X-H torsion
[ 10763 10752 10751 10750 ] final -106.56 input  -60.55 | X-H torsion
[ 11005 11000 10999 10996 ] final -139.77 input  -57.11 | X-H torsion

> <Gold.Protein.ActiveResidues>
 VAL166  LYS551  ARG553  GLY616  TRP617  ASP618  TYR619  PRO620  LYS621  CYS622 
 ASP623  PHE694  ASN695  SER759  ASP760  ASP761  ALA762  ILE779  LEU786  VAL792 
 PHE793  MET794  SER795  GLU796  ALA797  LYS798  CYS799  TRP800  GLU811  SER814 

> <Gold.Protein.RotatedAtoms>
  152.5434  134.0880  159.8263 H   0  0  0  0  0  0  0  0  0  0  0  0  # atno 6907 bound_to 6896
  151.0973  133.5263  159.2619 H   0  0  0  0  0  0  0  0  0  0  0  0  # atno 6908 bound_to 6896
  151.2031  135.0460  159.8935 H   0  0  0  0  0  0  0  0  0  0  0  0  # atno 6909 bound_to 6896
  146.0455  139.4934  142.9751 H   0  0  0  0  0  0  0  0  0  0  0  0  # atno 7974 bound_to 7965
  154.4052  140.1286  156.4575 H   0  0  0  0  0  0  0  0  0  0  0  0  # atno 8008 bound_to 7997
  155.7305  140.3491  155.5037 H   0  0  0  0  0  0  0  0  0  0  0  0  # atno 8009 bound_to 7997
  155.9131  140.1039  157.1254 H   0  0  0  0  0  0  0  0  0  0  0  0  # atno 8010 bound_to 7997
  140.5100  143.2346  151.7608 H   0  0  0  0  0  0  0  0  0  0  0  0  # atno 10167 bound_to 10162
  157.4571  131.1070  150.9964 H   0  0  0  0  0  0  0  0  0  0  0  0  # atno 10718 bound_to 10713
  154.8020  135.4707  154.0298 H   0  0  0  0  0  0  0  0  0  0  0  0  # atno 10763 bound_to 10752
  153.1797  135.6838  153.8502 H   0  0  0  0  0  0  0  0  0  0  0  0  # atno 10764 bound_to 10752
  153.8057  135.3224  155.3373 H   0  0  0  0  0  0  0  0  0  0  0  0  # atno 10765 bound_to 10752
  140.8487  134.2312  157.4772 H   0  0  0  0  0  0  0  0  0  0  0  0  # atno 11005 bound_to 11000
  145.6813  141.0190  143.1605 LP  0  0  0  0  0  0  0  0  0  0  0  0  # atno 17320 bound_to 7965
  144.7096  139.8424  143.7419 LP  0  0  0  0  0  0  0  0  0  0  0  0  # atno 17321 bound_to 7965
  139.4894  144.4403  151.9772 LP  0  0  0  0  0  0  0  0  0  0  0  0  # atno 17342 bound_to 10162
  140.3495  144.3106  150.5952 LP  0  0  0  0  0  0  0  0  0  0  0  0  # atno 17343 bound_to 10162
  157.0774  130.5889  149.5414 LP  0  0  0  0  0  0  0  0  0  0  0  0  # atno 17370 bound_to 10713
  156.0012  130.5091  150.7670 LP  0  0  0  0  0  0  0  0  0  0  0  0  # atno 17371 bound_to 10713
  139.8704  134.9672  156.4589 LP  0  0  0  0  0  0  0  0  0  0  0  0  # atno 17394 bound_to 11000
  140.8814  133.7915  155.9471 LP  0  0  0  0  0  0  0  0  0  0  0  0  # atno 17395 bound_to 11000

$$$$
