AV-unprocessed.smi:1106|AV-procd|sdf|4777|dock7
  -GOLD-   22720 3313D 1   1.00000     0.00000
 Structure written by MMmdl.
 48 49  0  0  0  0  0  0  0  0  2 V2000
  152.5972  141.0040  157.3813 C   0  0  0  0  0  0  0  0  0  0  0  0
  151.9920  140.8412  155.9790 C   0  0  0  0  0  0  0  0  0  0  0  0
  150.5666  141.0441  155.9550 N   0  0  0  0  0  0  0  0  0  0  0  0
  149.8766  141.4784  157.0702 C   0  0  0  0  0  0  0  0  0  0  0  0
  148.5402  141.6719  157.0754 C   0  0  0  0  0  0  0  0  0  0  0  0
  147.8517  142.1255  158.2382 C   0  0  0  0  0  0  0  0  0  0  0  0
  147.2746  142.4988  159.1693 N   0  0  0  0  0  0  0  0  0  0  0  0
  147.7363  141.4225  155.8812 C   0  0  0  0  0  0  0  0  0  0  0  0
  146.5177  141.5997  155.8284 O   0  0  0  0  0  0  0  0  0  0  0  0
  148.4722  140.9607  154.7608 N   0  0  0  0  0  0  0  0  0  0  0  0
  147.7268  140.6868  153.5405 C   0  0  0  0  0  0  0  0  0  0  0  0
  147.5357  139.1829  153.2411 C   0  0  2  0  0  0  0  0  0  0  0  0
  148.8031  138.6527  152.9111 O   0  0  0  0  0  0  0  0  0  0  0  0
  146.5678  138.9018  152.0717 C   0  0  0  0  0  0  0  0  0  0  0  0
  146.2443  137.4588  151.9359 N   0  3  2  0  0  0  0  0  0  0  0  0
  145.7044  137.1257  150.5928 C   0  0  0  0  0  0  0  0  0  0  0  0
  145.5095  135.6083  150.4325 C   0  0  0  0  0  0  0  0  0  0  0  0
  144.5961  135.0414  151.5325 C   0  0  1  0  0  0  0  0  0  0  0  0
  144.4195  133.5221  151.3999 C   0  0  0  0  0  0  0  0  0  0  0  0
  145.1611  135.4313  152.9086 C   0  0  0  0  0  0  0  0  0  0  0  0
  145.3602  136.9522  153.0196 C   0  0  0  0  0  0  0  0  0  0  0  0
  149.8756  140.7674  154.7523 C   0  0  0  0  0  0  0  0  0  0  0  0
  150.4746  140.3861  153.7431 O   0  0  0  0  0  0  0  0  0  0  0  0
  153.6803  140.8849  157.3493 H   0  0  0  0  0  0  0  0  0  0  0  0
  152.2051  140.2625  158.0779 H   0  0  0  0  0  0  0  0  0  0  0  0
  152.3841  141.9925  157.7890 H   0  0  0  0  0  0  0  0  0  0  0  0
  152.4113  141.5779  155.2923 H   0  0  0  0  0  0  0  0  0  0  0  0
  152.1933  139.8599  155.5451 H   0  0  0  0  0  0  0  0  0  0  0  0
  150.4294  141.6737  157.9781 H   0  0  0  0  0  0  0  0  0  0  0  0
  146.7716  141.2118  153.5854 H   0  0  0  0  0  0  0  0  0  0  0  0
  148.2692  141.1837  152.7333 H   0  0  0  0  0  0  0  0  0  0  0  0
  147.1984  138.6807  154.1468 H   0  0  0  0  0  0  0  0  0  0  0  0
  148.6775  137.8503  152.4269 H   0  0  0  0  0  0  0  0  0  0  0  0
  145.6364  139.4558  152.1908 H   0  0  0  0  0  0  0  0  0  0  0  0
  147.0245  139.2712  151.1519 H   0  0  0  0  0  0  0  0  0  0  0  0
  144.7580  137.6471  150.4388 H   0  0  0  0  0  0  0  0  0  0  0  0
  146.3908  137.4790  149.8221 H   0  0  0  0  0  0  0  0  0  0  0  0
  145.0874  135.3955  149.4495 H   0  0  0  0  0  0  0  0  0  0  0  0
  146.4807  135.1120  150.4650 H   0  0  0  0  0  0  0  0  0  0  0  0
  143.6114  135.4997  151.4268 H   0  0  0  0  0  0  0  0  0  0  0  0
  145.3723  133.0007  151.4980 H   0  0  0  0  0  0  0  0  0  0  0  0
  143.9946  133.2598  150.4305 H   0  0  0  0  0  0  0  0  0  0  0  0
  143.7486  133.1365  152.1679 H   0  0  0  0  0  0  0  0  0  0  0  0
  144.4893  135.0918  153.6979 H   0  0  0  0  0  0  0  0  0  0  0  0
  146.1138  134.9263  153.0762 H   0  0  0  0  0  0  0  0  0  0  0  0
  145.7843  137.1814  153.9965 H   0  0  0  0  0  0  0  0  0  0  0  0
  144.3953  137.4592  152.9698 H   0  0  0  0  0  0  0  0  0  0  0  0
  147.1235  136.9669  152.0136 H   0  0  0  0  0  0  0  0  0  0  0  0
  1  2  1  0  0  0  0
  1 24  1  0  0  0  0
  1 25  1  0  0  0  0
  1 26  1  0  0  0  0
  2  3  1  0  0  0  0
  2 27  1  0  0  0  0
  2 28  1  0  0  0  0
  3 22  1  0  0  0  0
  3  4  1  0  0  0  0
  4  5  2  0  0  0  0
  4 29  1  0  0  0  0
  5  6  1  0  0  0  0
  5  8  1  0  0  0  0
  6  7  3  0  0  0  0
  8  9  2  0  0  0  0
  8 10  1  0  0  0  0
 10 11  1  0  0  0  0
 10 22  1  0  0  0  0
 11 12  1  0  0  0  0
 11 30  1  0  0  0  0
 11 31  1  0  0  0  0
 12 13  1  0  0  0  0
 12 14  1  0  0  0  0
 12 32  1  0  0  0  0
 13 33  1  0  0  0  0
 14 15  1  0  0  0  0
 14 34  1  0  0  0  0
 14 35  1  0  0  0  0
 15 21  1  0  0  0  0
 15 16  1  0  0  0  0
 15 48  1  0  0  0  0
 16 17  1  0  0  0  0
 16 36  1  0  0  0  0
 16 37  1  0  0  0  0
 17 18  1  0  0  0  0
 17 38  1  0  0  0  0
 17 39  1  0  0  0  0
 18 19  1  0  0  0  0
 18 20  1  0  0  0  0
 18 40  1  0  0  0  0
 19 41  1  0  0  0  0
 19 42  1  0  0  0  0
 19 43  1  0  0  0  0
 20 21  1  0  0  0  0
 20 44  1  0  0  0  0
 20 45  1  0  0  0  0
 21 46  1  0  0  0  0
 21 47  1  0  0  0  0
 22 23  2  0  0  0  0
M  CHG  1  15   1
M  END
> <s_m_source_file>
AV-unprocessed.smi

> <i_m_source_file_index>
1106

> <i_lp_mmshare_version>
43012

> <i_f3d_flags>
0

> <s_epik_input>
W0NIM11bQ0gyXW4xW2NIXWMoQyNOKWMoPU8pbihjMT1PKVtDSDJdW0NASF0oW09IXSlbQ0gyXU4yW0NIMl1bQ0gyXVtDSF0oW0NIM10pW0NIMl1bQ0gyXTI=

> <s_epik_cmdline>
J2VwaWtfcHl0aG9uJywgJy1waCcsICc3LjAnLCAnLXRuJywgJzgnLCAnLW1hJywgJzIwMCcsICctbWV0YWxfYmluZGluZycsICctaW1hZScsICc8aW5maWxlLm1hZT4nLCAnLW9tYWUnLCAnPG91dGZpbGUubWFlPic=

> <r_epik_Ionization_Penalty>
0.00136816

> <r_epik_Ionization_Penalty_Charging>
0.00136813

> <r_epik_Ionization_Penalty_Neutral>
3.19882e-08

> <r_epik_State_Penalty>
0.000910892

> <r_epik_Charging_Adjusted_Penalty>
0.00227902

> <i_epik_Tot_Q>
1

> <i_epik_Tot_abs_Q>
1

> <r_epik_Metal_State_Penalty>
-0

> <b_epik_Metal_Only>
0

> <s_lp_Force_Field>
OPLS_2005

> <r_lp_Energy>
27.8711

> <b_lp_Chiralities_Consistent>
1

> <s_lp_Variant>
AV-unprocessed.smi:1106-1

> <Gold.Version>
5.8.1

> <Gold.Id.Protein>
6NUR|6NUR_protein|mol2

> <Gold.PLP.Fitness>
49.1742

> <Gold.PLP.PLP>
-37.9979

> <Gold.PLP.part.hbond>
-3.7880

> <Gold.PLP.part.metal>
0.0000

> <Gold.PLP.part.buried>
2.2261

> <Gold.PLP.part.nonpolar>
-35.2886

> <Gold.PLP.part.repulsive>
0.7510

> <Gold.PLP.ligand.clash>
0.0000

> <Gold.PLP.ligand.torsion>
0.4261

> <Gold.PLP.Chemscore.Hbond>
4.0000

> <Gold.PLP.Chemscore.CHOScore>
0.0000

> <Gold.PLP.Chemscore.Metal>
0.0000

> <Gold.Chemscore.Hbonds>
donor molecule, donor type, donor heavy atom, donor atom, acceptor molecule, acceptor atom, score
      L1  H    13    33       P1  7948  1.00
      L1  H    15    48       P1  7948  2.00
      P1  H  6934  6946       L1     7  0.27
      P1  H  7989  7998       L1    23  0.26

> <Gold.PLP.Chemscore.Internal.Correction>
0.0286

> <Gold.Rescore>
     Score         DG    S(hbond)    S(metal)    S(lipo)     H(rot)  DE(clash)    DE(int)     intcor
     14.09     -17.80       2.94        0.00      75.70       2.48       1.76       1.95       ----

> <Gold.Chemscore.Fitness>
14.0917

> <Gold.Chemscore.DG>
-17.8026

> <Gold.Chemscore.ZeroCoef>
-5.4800

> <Gold.Chemscore.Hbond>
2.9414

> <Gold.Chemscore.Metal>
0.0000

> <Gold.Chemscore.Lipo>
75.7005

> <Gold.Chemscore.Internal_Hbond>
0.0000

> <Gold.Chemscore.DEClash>
1.7642

> <Gold.Chemscore.DEInternal>
1.9467

> <Gold.Chemscore.Rot>
2.4838

> <Gold.Chemscore.Internal.Correction>
   9.000000E+99

> <Gold.Chemscore.Hbonds>
donor molecule, donor type, donor heavy atom, donor atom, acceptor molecule, acceptor atom, score
      L1  H    13    33       P1  7948  0.99
      L1  H    15    48       P1  7948  0.99
      P1  H  6934  6946       L1     7  0.22
      P1  H  7989  7998       L1    23  0.26

> <Gold.Chemscore.Hbond.Weighted>
-9.8241

> <Gold.Chemscore.Metal.Weighted>
-0.0000

> <Gold.Chemscore.Lipo.Weighted>
-8.8570

> <Gold.Chemscore.Internal_Hbond.Weighted>
0.0000

> <Gold.Chemscore.DEClash.Weighted>
1.7642

> <Gold.Chemscore.DEInternal.Weighted>
1.9467

> <Gold.Chemscore.Rot.Weighted>
6.3585

> <Gold.Chemscore.Internal.Correction.Weighted>
   9.000000E+99

> <Gold.Protein.RotatedTorsions>
[ 6907 6896 6895 6894 ] final -100.33 input  -60.11 | X-H torsion
[ 7974 7965 7964 7962 ] final  -77.78 input  175.53 | X-H torsion
[ 8008 7997 7996 7995 ] final  -71.75 input   59.86 | X-H torsion
[ 10167 10162 10161 10158 ] final  -59.51 input  -65.29 | X-H torsion
[ 10718 10713 10712 10709 ] final    3.10 input   66.30 | X-H torsion
[ 10763 10752 10751 10750 ] final -130.34 input  -60.55 | X-H torsion
[ 11005 11000 10999 10996 ] final  162.53 input  -57.11 | X-H torsion

> <Gold.Protein.ActiveResidues>
 VAL166  LYS551  ARG553  GLY616  TRP617  ASP618  TYR619  PRO620  LYS621  CYS622 
 ASP623  PHE694  ASN695  SER759  ASP760  ASP761  ALA762  ILE779  LEU786  VAL792 
 PHE793  MET794  SER795  GLU796  ALA797  LYS798  CYS799  TRP800  GLU811  SER814 

> <Gold.Protein.RotatedAtoms>
  150.7112  134.0903  159.3929 H   0  0  0  0  0  0  0  0  0  0  0  0  # atno 6907 bound_to 6896
  151.8888  135.0422  160.0505 H   0  0  0  0  0  0  0  0  0  0  0  0  # atno 6908 bound_to 6896
  152.2508  133.5178  159.5361 H   0  0  0  0  0  0  0  0  0  0  0  0  # atno 6909 bound_to 6896
  145.5952  140.9421  143.1270 H   0  0  0  0  0  0  0  0  0  0  0  0  # atno 7974 bound_to 7965
  154.5112  140.0810  156.7993 H   0  0  0  0  0  0  0  0  0  0  0  0  # atno 8008 bound_to 7997
  155.3781  140.3426  155.4227 H   0  0  0  0  0  0  0  0  0  0  0  0  # atno 8009 bound_to 7997
  156.1575  140.1578  156.8655 H   0  0  0  0  0  0  0  0  0  0  0  0  # atno 8010 bound_to 7997
  140.6131  143.2393  151.5663 H   0  0  0  0  0  0  0  0  0  0  0  0  # atno 10167 bound_to 10162
  156.8728  130.5626  149.5656 H   0  0  0  0  0  0  0  0  0  0  0  0  # atno 10718 bound_to 10713
  154.8755  135.3865  154.4068 H   0  0  0  0  0  0  0  0  0  0  0  0  # atno 10763 bound_to 10752
  153.4786  135.7030  153.5956 H   0  0  0  0  0  0  0  0  0  0  0  0  # atno 10764 bound_to 10752
  153.4382  135.3862  155.2179 H   0  0  0  0  0  0  0  0  0  0  0  0  # atno 10765 bound_to 10752
  140.2267  134.8155  157.3276 H   0  0  0  0  0  0  0  0  0  0  0  0  # atno 11005 bound_to 11000
  144.7334  139.7658  143.7338 LP  0  0  0  0  0  0  0  0  0  0  0  0  # atno 17320 bound_to 7965
  146.1617  139.4734  142.9984 LP  0  0  0  0  0  0  0  0  0  0  0  0  # atno 17321 bound_to 7965
  139.5376  144.2736  152.1285 LP  0  0  0  0  0  0  0  0  0  0  0  0  # atno 17342 bound_to 10162
  140.1939  144.4724  150.6465 LP  0  0  0  0  0  0  0  0  0  0  0  0  # atno 17343 bound_to 10162
  156.0717  130.5749  150.9397 LP  0  0  0  0  0  0  0  0  0  0  0  0  # atno 17370 bound_to 10713
  157.6186  131.0931  150.8665 LP  0  0  0  0  0  0  0  0  0  0  0  0  # atno 17371 bound_to 10713
  140.1793  134.4510  155.7782 LP  0  0  0  0  0  0  0  0  0  0  0  0  # atno 17394 bound_to 11000
  141.2220  133.6976  156.7841 LP  0  0  0  0  0  0  0  0  0  0  0  0  # atno 17395 bound_to 11000

$$$$
