AV-unprocessed.smi:1762|AV-procd|sdf|7119|dock7
  -GOLD-   22720 8353D 1   1.00000     0.00000
 Structure written by MMmdl.
 52 53  0  0  0  0  0  0  0  0  3 V2000
  151.2092  134.5522  155.8404 C   0  0  0  0  0  0  0  0  0  0  0  0
  150.0271  135.1444  155.0648 C   0  0  2  0  0  0  0  0  0  0  0  0
  150.1102  136.6793  154.9709 C   0  0  0  0  0  0  0  0  0  0  0  0
  148.9102  137.2381  154.2906 N   0  3  2  0  0  0  0  0  0  0  0  0
  148.9366  138.7223  154.0615 C   0  0  2  0  0  0  0  0  0  0  0  0
  149.5175  139.4544  155.2963 C   0  0  0  0  0  0  0  0  0  0  0  0
  148.9134  139.3721  156.3714 O   0  0  0  0  0  0  0  0  0  0  0  0
  150.6851  140.0821  154.9914 N   0  5  0  0  0  0  0  0  0  0  0  0
  151.4826  140.8474  155.9479 C   0  0  0  0  0  0  0  0  0  0  0  0
  150.6318  141.9775  156.5730 C   0  0  0  0  0  0  0  0  0  0  0  0
  151.2969  142.7388  157.7179 C   0  0  0  0  0  0  0  0  0  0  0  0
  151.4700  144.1400  157.6452 C   0  0  0  0  0  0  0  0  0  0  0  0
  152.0985  144.8001  158.7182 C   0  0  0  0  0  0  0  0  0  0  0  0
  152.5383  144.0397  159.8183 C   0  0  0  0  0  0  0  0  0  0  0  0
  152.3286  142.6467  159.7956 C   0  0  0  0  0  0  0  0  0  0  0  0
  151.7273  142.0033  158.7721 N   0  0  0  0  0  0  0  0  0  0  0  0
  147.5656  139.3457  153.6288 C   0  0  0  0  0  0  0  0  0  0  0  0
  146.9739  138.6773  152.3720 C   0  0  0  0  0  0  0  0  0  0  0  0
  147.5844  140.8790  153.4539 C   0  0  0  0  0  0  0  0  0  0  0  0
  147.6901  136.7832  155.0188 C   0  0  0  0  0  0  0  0  0  0  0  0
  147.6357  135.2500  155.1382 C   0  0  1  0  0  0  0  0  0  0  0  0
  147.3122  134.5425  153.8101 C   0  0  0  0  0  0  0  0  0  0  0  0
  148.8332  134.7645  155.7392 O   0  0  0  0  0  0  0  0  0  0  0  0
  152.1571  134.7954  155.3595 H   0  0  0  0  0  0  0  0  0  0  0  0
  151.1344  133.4658  155.8945 H   0  0  0  0  0  0  0  0  0  0  0  0
  151.2436  134.9347  156.8610 H   0  0  0  0  0  0  0  0  0  0  0  0
  150.0359  134.7164  154.0622 H   0  0  0  0  0  0  0  0  0  0  0  0
  150.2028  137.1207  155.9646 H   0  0  0  0  0  0  0  0  0  0  0  0
  151.0224  136.9163  154.4277 H   0  0  0  0  0  0  0  0  0  0  0  0
  149.6084  138.8668  153.2113 H   0  0  0  0  0  0  0  0  0  0  0  0
  151.8795  140.2118  156.7399 H   0  0  0  0  0  0  0  0  0  0  0  0
  152.3527  141.3046  155.4744 H   0  0  0  0  0  0  0  0  0  0  0  0
  150.3743  142.6959  155.7936 H   0  0  0  0  0  0  0  0  0  0  0  0
  149.6809  141.5724  156.9219 H   0  0  0  0  0  0  0  0  0  0  0  0
  151.1187  144.6961  156.7883 H   0  0  0  0  0  0  0  0  0  0  0  0
  152.2405  145.8704  158.6971 H   0  0  0  0  0  0  0  0  0  0  0  0
  153.0249  144.5117  160.6587 H   0  0  0  0  0  0  0  0  0  0  0  0
  152.6546  142.0318  160.6213 H   0  0  0  0  0  0  0  0  0  0  0  0
  146.8418  139.1192  154.4105 H   0  0  0  0  0  0  0  0  0  0  0  0
  147.5558  138.9015  151.4775 H   0  0  0  0  0  0  0  0  0  0  0  0
  145.9551  139.0201  152.1899 H   0  0  0  0  0  0  0  0  0  0  0  0
  146.9392  137.5929  152.4822 H   0  0  0  0  0  0  0  0  0  0  0  0
  148.1650  141.1794  152.5819 H   0  0  0  0  0  0  0  0  0  0  0  0
  148.0052  141.3871  154.3209 H   0  0  0  0  0  0  0  0  0  0  0  0
  146.5738  141.2626  153.3123 H   0  0  0  0  0  0  0  0  0  0  0  0
  147.6886  137.2272  156.0156 H   0  0  0  0  0  0  0  0  0  0  0  0
  146.7751  137.1201  154.5325 H   0  0  0  0  0  0  0  0  0  0  0  0
  146.8312  135.0007  155.8309 H   0  0  0  0  0  0  0  0  0  0  0  0
  146.3259  134.8346  153.4485 H   0  0  0  0  0  0  0  0  0  0  0  0
  147.3087  133.4599  153.9367 H   0  0  0  0  0  0  0  0  0  0  0  0
  148.0271  134.7867  153.0247 H   0  0  0  0  0  0  0  0  0  0  0  0
  148.8755  136.8199  153.3719 H   0  0  0  0  0  0  0  0  0  0  0  0
  1  2  1  0  0  0  0
  1 24  1  0  0  0  0
  1 25  1  0  0  0  0
  1 26  1  0  0  0  0
  2 23  1  0  0  0  0
  2  3  1  0  0  0  0
  2 27  1  0  0  0  0
  3  4  1  0  0  0  0
  3 28  1  0  0  0  0
  3 29  1  0  0  0  0
  4  5  1  0  0  0  0
  4 20  1  0  0  0  0
  4 52  1  0  0  0  0
  5  6  1  0  0  0  0
  5 17  1  0  0  0  0
  5 30  1  0  0  0  0
  6  7  2  0  0  0  0
  6  8  1  0  0  0  0
  8  9  1  0  0  0  0
  9 10  1  0  0  0  0
  9 31  1  0  0  0  0
  9 32  1  0  0  0  0
 10 11  1  0  0  0  0
 10 33  1  0  0  0  0
 10 34  1  0  0  0  0
 11 16  1  0  0  0  0
 11 12  2  0  0  0  0
 12 13  1  0  0  0  0
 12 35  1  0  0  0  0
 13 14  2  0  0  0  0
 13 36  1  0  0  0  0
 14 15  1  0  0  0  0
 14 37  1  0  0  0  0
 15 16  2  0  0  0  0
 15 38  1  0  0  0  0
 17 18  1  0  0  0  0
 17 19  1  0  0  0  0
 17 39  1  0  0  0  0
 18 40  1  0  0  0  0
 18 41  1  0  0  0  0
 18 42  1  0  0  0  0
 19 43  1  0  0  0  0
 19 44  1  0  0  0  0
 19 45  1  0  0  0  0
 20 21  1  0  0  0  0
 20 46  1  0  0  0  0
 20 47  1  0  0  0  0
 21 22  1  0  0  0  0
 21 23  1  0  0  0  0
 21 48  1  0  0  0  0
 22 49  1  0  0  0  0
 22 50  1  0  0  0  0
 22 51  1  0  0  0  0
M  CHG  1   4   1
M  CHG  1   8  -1
M  END
> <s_m_source_file>
AV-unprocessed.smi

> <i_m_source_file_index>
1762

> <i_lp_mmshare_version>
43012

> <i_f3d_flags>
0

> <s_epik_input>
W0NIM11bQ0BASF0xW0NIMl1OKFtDSDJdW0NASF0oTzEpW0NIM10pW0NAQEhdKFtDSF0oW0NIM10pW0NIM10pQyg9TylbTkhdW0NIMl1bQ0gyXWMyW2NIXVtjSF1bY0hdW2NIXW4y

> <s_epik_cmdline>
J2VwaWtfcHl0aG9uJywgJy1waCcsICc3LjAnLCAnLXRuJywgJzgnLCAnLW1hJywgJzIwMCcsICctbWV0YWxfYmluZGluZycsICctaW1hZScsICc8aW5maWxlLm1hZT4nLCAnLW9tYWUnLCAnPG91dGZpbGUubWFlPic=

> <r_epik_Ionization_Penalty>
7.82966

> <r_epik_Ionization_Penalty_Charging>
7.7461

> <r_epik_Ionization_Penalty_Neutral>
0.0835571

> <r_epik_State_Penalty>
8.52273

> <r_epik_Charging_Adjusted_Penalty>
16.2688

> <i_epik_Tot_Q>
0

> <i_epik_Tot_abs_Q>
2

> <r_epik_Metal_State_Penalty>
4.47451

> <b_epik_Metal_Only>
1

> <s_lp_Force_Field>
OPLS_2005

> <r_lp_Energy>
24.7252

> <b_lp_Chiralities_Consistent>
1

> <s_lp_Variant>
AV-unprocessed.smi:1762-21

> <Gold.Version>
5.8.1

> <Gold.Id.Protein>
6NUR|6NUR_protein|mol2

> <Gold.PLP.Fitness>
50.0727

> <Gold.PLP.PLP>
-43.1010

> <Gold.PLP.part.hbond>
-2.0000

> <Gold.PLP.part.metal>
0.0000

> <Gold.PLP.part.buried>
-3.5973

> <Gold.PLP.part.nonpolar>
-37.9408

> <Gold.PLP.part.repulsive>
0.0962

> <Gold.PLP.ligand.clash>
0.0000

> <Gold.PLP.ligand.torsion>
0.4405

> <Gold.PLP.Chemscore.Hbond>
2.5000

> <Gold.PLP.Chemscore.CHOScore>
0.0000

> <Gold.PLP.Chemscore.Metal>
0.0000

> <Gold.Chemscore.Hbonds>
donor molecule, donor type, donor heavy atom, donor atom, acceptor molecule, acceptor atom, score
      L1  H     4    52       P1  7948  2.00
      P1  H  7989  7998       L1     8  0.55

> <Gold.PLP.Chemscore.Internal.Correction>
0.3526

> <Gold.Rescore>
     Score         DG    S(hbond)    S(metal)    S(lipo)     H(rot)  DE(clash)    DE(int)     intcor
     19.12     -19.57       1.02        0.00     126.39       1.60       0.07       0.38       ----

> <Gold.Chemscore.Fitness>
19.1229

> <Gold.Chemscore.DG>
-19.5730

> <Gold.Chemscore.ZeroCoef>
-5.4800

> <Gold.Chemscore.Hbond>
1.0194

> <Gold.Chemscore.Metal>
0.0000

> <Gold.Chemscore.Lipo>
126.3857

> <Gold.Chemscore.Internal_Hbond>
0.0000

> <Gold.Chemscore.DEClash>
0.0701

> <Gold.Chemscore.DEInternal>
0.3800

> <Gold.Chemscore.Rot>
1.6012

> <Gold.Chemscore.Internal.Correction>
   9.000000E+99

> <Gold.Chemscore.Hbonds>
donor molecule, donor type, donor heavy atom, donor atom, acceptor molecule, acceptor atom, score
      L1  H     4    52       P1  7948  0.99
      P1  H  7989  7998       L1     8  0.03

> <Gold.Chemscore.Hbond.Weighted>
-3.4048

> <Gold.Chemscore.Metal.Weighted>
-0.0000

> <Gold.Chemscore.Lipo.Weighted>
-14.7871

> <Gold.Chemscore.Internal_Hbond.Weighted>
0.0000

> <Gold.Chemscore.DEClash.Weighted>
0.0701

> <Gold.Chemscore.DEInternal.Weighted>
0.3800

> <Gold.Chemscore.Rot.Weighted>
4.0990

> <Gold.Chemscore.Internal.Correction.Weighted>
   9.000000E+99

> <Gold.Protein.RotatedTorsions>
[ 6907 6896 6895 6894 ] final -167.25 input  -60.11 | X-H torsion
[ 7974 7965 7964 7962 ] final  156.46 input  175.53 | X-H torsion
[ 8008 7997 7996 7995 ] final   90.46 input   59.86 | X-H torsion
[ 10167 10162 10161 10158 ] final  171.71 input  -65.29 | X-H torsion
[ 10718 10713 10712 10709 ] final -111.05 input   66.30 | X-H torsion
[ 10763 10752 10751 10750 ] final  124.43 input  -60.55 | X-H torsion
[ 11005 11000 10999 10996 ] final   83.57 input  -57.11 | X-H torsion

> <Gold.Protein.ActiveResidues>
 VAL166  LYS551  ARG553  GLY616  TRP617  ASP618  TYR619  PRO620  LYS621  CYS622 
 ASP623  PHE694  ASN695  SER759  ASP760  ASP761  ALA762  ILE779  LEU786  VAL792 
 PHE793  MET794  SER795  GLU796  ALA797  LYS798  CYS799  TRP800  GLU811  SER814 

> <Gold.Protein.RotatedAtoms>
  151.4566  133.3603  159.2802 H   0  0  0  0  0  0  0  0  0  0  0  0  # atno 6907 bound_to 6896
  150.9054  134.8471  159.7400 H   0  0  0  0  0  0  0  0  0  0  0  0  # atno 6908 bound_to 6896
  152.4903  134.4490  159.9620 H   0  0  0  0  0  0  0  0  0  0  0  0  # atno 6909 bound_to 6896
  144.7962  139.7206  143.6201 H   0  0  0  0  0  0  0  0  0  0  0  0  # atno 7974 bound_to 7965
  156.0123  140.3349  155.6953 H   0  0  0  0  0  0  0  0  0  0  0  0  # atno 8008 bound_to 7997
  155.6140  140.0668  157.2715 H   0  0  0  0  0  0  0  0  0  0  0  0  # atno 8009 bound_to 7997
  154.4286  140.1788  156.1290 H   0  0  0  0  0  0  0  0  0  0  0  0  # atno 8010 bound_to 7997
  139.5054  144.3456  151.9975 H   0  0  0  0  0  0  0  0  0  0  0  0  # atno 10167 bound_to 10162
  156.0625  130.5847  150.8321 H   0  0  0  0  0  0  0  0  0  0  0  0  # atno 10718 bound_to 10713
  153.6612  135.3346  155.3127 H   0  0  0  0  0  0  0  0  0  0  0  0  # atno 10763 bound_to 10752
  154.8514  135.4364  154.1802 H   0  0  0  0  0  0  0  0  0  0  0  0  # atno 10764 bound_to 10752
  153.2770  135.7005  153.7499 H   0  0  0  0  0  0  0  0  0  0  0  0  # atno 10765 bound_to 10752
  139.9027  134.8154  156.2327 H   0  0  0  0  0  0  0  0  0  0  0  0  # atno 11005 bound_to 11000
  146.2231  139.5672  142.9605 LP  0  0  0  0  0  0  0  0  0  0  0  0  # atno 17320 bound_to 7965
  145.5668  141.0398  143.2196 LP  0  0  0  0  0  0  0  0  0  0  0  0  # atno 17321 bound_to 7965
  140.2893  144.3772  150.6093 LP  0  0  0  0  0  0  0  0  0  0  0  0  # atno 17342 bound_to 10162
  140.5959  143.2167  151.7165 LP  0  0  0  0  0  0  0  0  0  0  0  0  # atno 17343 bound_to 10162
  157.5644  131.0946  150.9512 LP  0  0  0  0  0  0  0  0  0  0  0  0  # atno 17370 bound_to 10713
  156.9742  130.5502  149.5292 LP  0  0  0  0  0  0  0  0  0  0  0  0  # atno 17371 bound_to 10713
  141.0335  133.6976  156.1472 LP  0  0  0  0  0  0  0  0  0  0  0  0  # atno 17394 bound_to 11000
  140.7061  134.4512  157.5584 LP  0  0  0  0  0  0  0  0  0  0  0  0  # atno 17395 bound_to 11000

$$$$
