AV-unprocessed.smi:2499|AV-procd|sdf|9836|dock9
  -GOLD-   2272013463D 1   1.00000     0.00000
 Structure written by MMmdl.
 27 28  0  0  0  0  0  0  0  0  1 V2000
  150.9114  141.6146  158.2699 C   0  0  0  0  0  0  0  0  0  0  0  0
  151.1359  142.6113  157.1246 C   0  0  1  0  0  0  0  0  0  0  0  0
  149.9759  142.5723  156.2392 N   0  0  0  0  0  0  0  0  0  0  0  0
  149.7237  141.6325  155.3151 C   0  0  0  0  0  0  0  0  0  0  0  0
  150.4784  140.6702  155.1429 O   0  0  0  0  0  0  0  0  0  0  0  0
  148.5311  141.9089  154.6648 N   0  0  0  0  0  0  0  0  0  0  0  0
  147.9376  140.9591  154.0107 C   0  0  0  0  0  0  0  0  0  0  0  0
  146.7608  141.0379  153.2833 N   0  0  0  0  0  0  0  0  0  0  0  0
  146.4949  139.7989  152.7690 C   0  0  0  0  0  0  0  0  0  0  0  0
  147.4625  138.9730  153.1571 C   0  0  0  0  0  0  0  0  0  0  0  0
  148.3625  139.6531  153.9206 O   0  0  0  0  0  0  0  0  0  0  0  0
  151.4360  143.9992  157.6663 C   0  0  0  0  0  0  0  0  0  0  0  0
  152.5849  144.2432  158.6164 C   0  0  0  0  0  0  0  0  0  0  0  0
  151.1605  144.3460  159.1105 C   0  0  0  0  0  0  0  0  0  0  0  0
  151.7791  141.5711  158.9287 H   0  0  0  0  0  0  0  0  0  0  0  0
  150.7402  140.6075  157.8879 H   0  0  0  0  0  0  0  0  0  0  0  0
  150.0481  141.8930  158.8755 H   0  0  0  0  0  0  0  0  0  0  0  0
  152.0104  142.2694  156.5676 H   0  0  0  0  0  0  0  0  0  0  0  0
  149.3103  143.3259  156.3328 H   0  0  0  0  0  0  0  0  0  0  0  0
  146.1712  141.8439  153.1330 H   0  0  0  0  0  0  0  0  0  0  0  0
  145.6158  139.6358  152.1629 H   0  0  0  0  0  0  0  0  0  0  0  0
  147.6454  137.9231  152.9825 H   0  0  0  0  0  0  0  0  0  0  0  0
  151.2357  144.7949  156.9511 H   0  0  0  0  0  0  0  0  0  0  0  0
  153.1668  143.3842  158.9447 H   0  0  0  0  0  0  0  0  0  0  0  0
  153.1461  145.1675  158.4962 H   0  0  0  0  0  0  0  0  0  0  0  0
  150.7712  145.3398  159.3222 H   0  0  0  0  0  0  0  0  0  0  0  0
  150.7989  143.5540  159.7633 H   0  0  0  0  0  0  0  0  0  0  0  0
  1  2  1  0  0  0  0
  1 15  1  0  0  0  0
  1 16  1  0  0  0  0
  1 17  1  0  0  0  0
  2  3  1  0  0  0  0
  2 12  1  0  0  0  0
  2 18  1  0  0  0  0
  3 19  1  0  0  0  0
  3  4  1  0  0  0  0
  4  6  1  0  0  0  0
  4  5  2  0  0  0  0
  6  7  2  0  0  0  0
  7 11  1  0  0  0  0
  7  8  1  0  0  0  0
  8 20  1  0  0  0  0
  8  9  1  0  0  0  0
  9 21  1  0  0  0  0
  9 10  2  0  0  0  0
 10 22  1  0  0  0  0
 10 11  1  0  0  0  0
 12 14  1  0  0  0  0
 12 13  1  0  0  0  0
 12 23  1  0  0  0  0
 13 14  1  0  0  0  0
 13 24  1  0  0  0  0
 13 25  1  0  0  0  0
 14 26  1  0  0  0  0
 14 27  1  0  0  0  0
M  END
> <s_m_source_file>
AV-unprocessed.smi

> <i_m_source_file_index>
2499

> <i_lp_mmshare_version>
43012

> <i_f3d_flags>
0

> <s_epik_input>
W0NIMl0xW0NIMl1bQ0hdMVtDQEhdKFtDSDNdKVtOSF1DKD1PKVtOSF1jMm5bY0hdW2NIXW8y

> <s_epik_cmdline>
J2VwaWtfcHl0aG9uJywgJy1waCcsICc3LjAnLCAnLXRuJywgJzgnLCAnLW1hJywgJzIwMCcsICctbWV0YWxfYmluZGluZycsICctaW1hZScsICc8aW5maWxlLm1hZT4nLCAnLW9tYWUnLCAnPG91dGZpbGUubWFlPic=

> <r_lp_tautomer_probability>
0.107061

> <r_epik_Ionization_Penalty>
1.51515

> <r_epik_Ionization_Penalty_Charging>
1.51478

> <r_epik_Ionization_Penalty_Neutral>
0.000369309

> <r_epik_State_Penalty>
2.62718

> <r_epik_Charging_Adjusted_Penalty>
4.14196

> <i_epik_Tot_Q>
0

> <i_epik_Tot_abs_Q>
0

> <r_epik_Metal_State_Penalty>
3.5378

> <b_epik_Metal_Only>
0

> <s_lp_Force_Field>
OPLS_2005

> <r_lp_Energy>
35.9469

> <b_lp_Chiralities_Consistent>
1

> <s_lp_Variant>
AV-unprocessed.smi:2499-6

> <Gold.Version>
5.8.1

> <Gold.Id.Protein>
6NUR|6NUR_protein|mol2

> <Gold.PLP.Fitness>
38.6132

> <Gold.PLP.PLP>
-27.8417

> <Gold.PLP.part.hbond>
-2.5447

> <Gold.PLP.part.metal>
0.0000

> <Gold.PLP.part.buried>
-1.7250

> <Gold.PLP.part.nonpolar>
-25.2684

> <Gold.PLP.part.repulsive>
1.7463

> <Gold.PLP.ligand.clash>
0.0000

> <Gold.PLP.ligand.torsion>
1.0084

> <Gold.PLP.Chemscore.Hbond>
1.9440

> <Gold.PLP.Chemscore.CHOScore>
1.9652

> <Gold.PLP.Chemscore.Metal>
0.0000

> <Gold.Chemscore.Hbonds>
donor molecule, donor type, donor heavy atom, donor atom, acceptor molecule, acceptor atom, score
      L1  H     3    19       P1  8028  0.85
      P1  H  7989  7998       L1     5  0.91
      L1  C     9    21       P1 10175  0.95
      L1  C    10    22       P1  7948  1.00

> <Gold.PLP.Chemscore.Internal.Correction>
1.0608

> <Gold.Rescore>
     Score         DG    S(hbond)    S(metal)    S(lipo)     H(rot)  DE(clash)    DE(int)     intcor
     12.66     -15.35       1.53        0.00      68.94       1.29       0.20       2.48       ----

> <Gold.Chemscore.Fitness>
12.6626

> <Gold.Chemscore.DG>
-15.3466

> <Gold.Chemscore.ZeroCoef>
-5.4800

> <Gold.Chemscore.Hbond>
1.5291

> <Gold.Chemscore.Metal>
0.0000

> <Gold.Chemscore.Lipo>
68.9375

> <Gold.Chemscore.Internal_Hbond>
0.0000

> <Gold.Chemscore.DEClash>
0.2012

> <Gold.Chemscore.DEInternal>
2.4827

> <Gold.Chemscore.Rot>
1.2915

> <Gold.Chemscore.Internal.Correction>
   9.000000E+99

> <Gold.Chemscore.Hbonds>
donor molecule, donor type, donor heavy atom, donor atom, acceptor molecule, acceptor atom, score
      L1  H     3    19       P1  8028  0.82
      P1  H  7989  7998       L1     5  0.69

> <Gold.Chemscore.Hbond.Weighted>
-5.1071

> <Gold.Chemscore.Metal.Weighted>
-0.0000

> <Gold.Chemscore.Lipo.Weighted>
-8.0657

> <Gold.Chemscore.Internal_Hbond.Weighted>
0.0000

> <Gold.Chemscore.DEClash.Weighted>
0.2012

> <Gold.Chemscore.DEInternal.Weighted>
2.4827

> <Gold.Chemscore.Rot.Weighted>
3.3062

> <Gold.Chemscore.Internal.Correction.Weighted>
   9.000000E+99

> <Gold.Protein.RotatedTorsions>
[ 6907 6896 6895 6894 ] final  -85.22 input  -60.11 | X-H torsion
[ 7974 7965 7964 7962 ] final  -67.35 input  175.53 | X-H torsion
[ 8008 7997 7996 7995 ] final  130.67 input   59.86 | X-H torsion
[ 10167 10162 10161 10158 ] final  -66.37 input  -65.29 | X-H torsion
[ 10718 10713 10712 10709 ] final -166.39 input   66.30 | X-H torsion
[ 10763 10752 10751 10750 ] final  162.74 input  -60.55 | X-H torsion
[ 11005 11000 10999 10996 ] final   73.08 input  -57.11 | X-H torsion

> <Gold.Protein.ActiveResidues>
 VAL166  LYS551  ARG553  GLY616  TRP617  ASP618  TYR619  PRO620  LYS621  CYS622 
 ASP623  PHE694  ASN695  SER759  ASP760  ASP761  ALA762  ILE779  LEU786  VAL792 
 PHE793  MET794  SER795  GLU796  ALA797  LYS798  CYS799  TRP800  GLU811  SER814 

> <Gold.Protein.RotatedAtoms>
  150.6871  134.3237  159.4797 H   0  0  0  0  0  0  0  0  0  0  0  0  # atno 6907 bound_to 6896
  152.1110  134.9272  160.0576 H   0  0  0  0  0  0  0  0  0  0  0  0  # atno 6908 bound_to 6896
  152.0514  133.3986  159.4416 H   0  0  0  0  0  0  0  0  0  0  0  0  # atno 6909 bound_to 6896
  145.7303  140.9000  143.0583 H   0  0  0  0  0  0  0  0  0  0  0  0  # atno 7974 bound_to 7965
  156.2958  140.2590  156.2799 H   0  0  0  0  0  0  0  0  0  0  0  0  # atno 8008 bound_to 7997
  154.9612  140.0392  157.2209 H   0  0  0  0  0  0  0  0  0  0  0  0  # atno 8009 bound_to 7997
  154.7945  140.2817  155.5971 H   0  0  0  0  0  0  0  0  0  0  0  0  # atno 8010 bound_to 7997
  140.5662  143.2315  151.6630 H   0  0  0  0  0  0  0  0  0  0  0  0  # atno 10167 bound_to 10162
  156.6672  130.9069  151.3038 H   0  0  0  0  0  0  0  0  0  0  0  0  # atno 10718 bound_to 10713
  154.2831  135.2763  155.2688 H   0  0  0  0  0  0  0  0  0  0  0  0  # atno 10763 bound_to 10752
  154.5201  135.5758  153.6677 H   0  0  0  0  0  0  0  0  0  0  0  0  # atno 10764 bound_to 10752
  152.9926  135.6202  154.2991 H   0  0  0  0  0  0  0  0  0  0  0  0  # atno 10765 bound_to 10752
  139.9458  134.7316  156.0983 H   0  0  0  0  0  0  0  0  0  0  0  0  # atno 11005 bound_to 11000
  144.6894  139.9322  143.7472 LP  0  0  0  0  0  0  0  0  0  0  0  0  # atno 17320 bound_to 7965
  146.0543  139.3541  143.0620 LP  0  0  0  0  0  0  0  0  0  0  0  0  # atno 17321 bound_to 7965
  139.5094  144.3578  152.0591 LP  0  0  0  0  0  0  0  0  0  0  0  0  # atno 17342 bound_to 10162
  140.2710  144.3964  150.6151 LP  0  0  0  0  0  0  0  0  0  0  0  0  # atno 17343 bound_to 10162
  157.7090  130.9418  150.1024 LP  0  0  0  0  0  0  0  0  0  0  0  0  # atno 17370 bound_to 10713
  156.1966  130.3657  149.8841 LP  0  0  0  0  0  0  0  0  0  0  0  0  # atno 17371 bound_to 10713
  141.1108  133.6644  156.2973 LP  0  0  0  0  0  0  0  0  0  0  0  0  # atno 17394 bound_to 11000
  140.5838  134.5719  157.5485 LP  0  0  0  0  0  0  0  0  0  0  0  0  # atno 17395 bound_to 11000

$$$$
