AV-unprocessed.smi:1562|AV-procd|sdf|6288|dock1
  -GOLD-   22720 6483D 1   1.00000     0.00000
 Structure written by MMmdl.
 41 42  0  0  0  0  0  0  0  0  2 V2000
  148.4337  142.8720  153.7991 N   0  0  0  0  0  0  0  0  0  0  0  0
  148.7652  141.5788  153.7719 C   0  0  0  0  0  0  0  0  0  0  0  0
  147.9314  140.6949  153.5836 O   0  0  0  0  0  0  0  0  0  0  0  0
  150.2443  141.2305  153.9858 C   0  0  0  0  0  0  0  0  0  0  0  0
  150.4611  139.6981  153.9850 C   0  0  0  0  0  0  0  0  0  0  0  0
  151.9149  139.3421  154.3450 C   0  0  0  0  0  0  0  0  0  0  0  0
  152.2332  139.9333  155.6555 N   0  0  0  0  0  0  0  0  0  0  0  0
  152.2940  139.2706  156.8383 C   0  0  0  0  0  0  0  0  0  0  0  0
  151.8197  138.1465  157.0090 O   0  0  0  0  0  0  0  0  0  0  0  0
  152.8816  139.9520  157.8350 N   0  0  0  0  0  0  0  0  0  0  0  0
  153.0610  139.4461  159.1888 C   0  0  0  0  0  0  0  0  0  0  0  0
  154.0760  140.3025  159.9582 C   0  0  0  0  0  0  0  0  0  0  0  0
  153.4800  141.6174  160.4226 C   0  0  0  0  0  0  0  0  0  0  0  0
  153.2247  142.6830  159.5322 C   0  0  0  0  0  0  0  0  0  0  0  0
  152.6734  143.8814  160.0318 C   0  0  0  0  0  0  0  0  0  0  0  0
  152.3914  143.9898  161.4094 C   0  0  0  0  0  0  0  0  0  0  0  0
  152.6675  142.8951  162.2538 C   0  0  0  0  0  0  0  0  0  0  0  0
  153.1943  141.7631  161.7370 N   0  3  0  0  0  0  0  0  0  0  0  0
  152.2145  141.3993  155.5903 C   0  0  0  0  0  0  0  0  0  0  0  0
  150.7770  141.8638  155.2930 C   0  0  0  0  0  0  0  0  0  0  0  0
  147.4704  143.1435  153.6645 H   0  0  0  0  0  0  0  0  0  0  0  0
  149.1435  143.5724  153.9554 H   0  0  0  0  0  0  0  0  0  0  0  0
  150.8209  141.6462  153.1572 H   0  0  0  0  0  0  0  0  0  0  0  0
  149.7902  139.2176  154.6994 H   0  0  0  0  0  0  0  0  0  0  0  0
  150.2145  139.2868  153.0055 H   0  0  0  0  0  0  0  0  0  0  0  0
  152.0524  138.2619  154.3012 H   0  0  0  0  0  0  0  0  0  0  0  0
  152.5933  139.7485  153.5935 H   0  0  0  0  0  0  0  0  0  0  0  0
  153.2378  140.8752  157.6339 H   0  0  0  0  0  0  0  0  0  0  0  0
  152.1027  139.4444  159.7111 H   0  0  0  0  0  0  0  0  0  0  0  0
  153.4032  138.4114  159.1376 H   0  0  0  0  0  0  0  0  0  0  0  0
  154.4472  139.7531  160.8246 H   0  0  0  0  0  0  0  0  0  0  0  0
  154.9439  140.5111  159.3310 H   0  0  0  0  0  0  0  0  0  0  0  0
  153.4490  142.5859  158.4798 H   0  0  0  0  0  0  0  0  0  0  0  0
  152.4707  144.7080  159.3664 H   0  0  0  0  0  0  0  0  0  0  0  0
  151.9700  144.8994  161.8120 H   0  0  0  0  0  0  0  0  0  0  0  0
  152.4854  142.8905  163.3187 H   0  0  0  0  0  0  0  0  0  0  0  0
  152.5774  141.8650  156.5077 H   0  0  0  0  0  0  0  0  0  0  0  0
  152.8894  141.7367  154.8026 H   0  0  0  0  0  0  0  0  0  0  0  0
  150.7517  142.9517  155.2191 H   0  0  0  0  0  0  0  0  0  0  0  0
  150.1349  141.5974  156.1346 H   0  0  0  0  0  0  0  0  0  0  0  0
  153.3880  140.9843  162.3672 H   0  0  0  0  0  0  0  0  0  0  0  0
  1  2  1  0  0  0  0
  1 21  1  0  0  0  0
  1 22  1  0  0  0  0
  2  3  2  0  0  0  0
  2  4  1  0  0  0  0
  4 20  1  0  0  0  0
  4  5  1  0  0  0  0
  4 23  1  0  0  0  0
  5  6  1  0  0  0  0
  5 24  1  0  0  0  0
  5 25  1  0  0  0  0
  6  7  1  0  0  0  0
  6 26  1  0  0  0  0
  6 27  1  0  0  0  0
  7  8  1  0  0  0  0
  7 19  1  0  0  0  0
  8  9  2  0  0  0  0
  8 10  1  0  0  0  0
 10 11  1  0  0  0  0
 10 28  1  0  0  0  0
 11 12  1  0  0  0  0
 11 29  1  0  0  0  0
 11 30  1  0  0  0  0
 12 13  1  0  0  0  0
 12 31  1  0  0  0  0
 12 32  1  0  0  0  0
 13 18  1  0  0  0  0
 13 14  2  0  0  0  0
 14 15  1  0  0  0  0
 14 33  1  0  0  0  0
 15 16  2  0  0  0  0
 15 34  1  0  0  0  0
 16 17  1  0  0  0  0
 16 35  1  0  0  0  0
 17 18  2  0  0  0  0
 17 36  1  0  0  0  0
 18 41  1  0  0  0  0
 19 20  1  0  0  0  0
 19 37  1  0  0  0  0
 19 38  1  0  0  0  0
 20 39  1  0  0  0  0
 20 40  1  0  0  0  0
M  CHG  1  18   1
M  END
> <s_m_source_file>
AV-unprocessed.smi

> <i_m_source_file_index>
1562

> <i_lp_mmshare_version>
43012

> <i_f3d_flags>
0

> <s_epik_input>
W05IMl1DKD1PKVtDSF0xW0NIMl1bQ0gyXU4oW0NIMl1bQ0gyXTEpQyg9TylbTkhdW0NIMl1bQ0gyXWMyW2NIXVtjSF1bY0hdW2NIXW4y

> <s_epik_cmdline>
J2VwaWtfcHl0aG9uJywgJy1waCcsICc3LjAnLCAnLXRuJywgJzgnLCAnLW1hJywgJzIwMCcsICctbWV0YWxfYmluZGluZycsICctaW1hZScsICc8aW5maWxlLm1hZT4nLCAnLW9tYWUnLCAnPG91dGZpbGUubWFlPic=

> <r_epik_Ionization_Penalty>
1.55599

> <r_epik_Ionization_Penalty_Charging>
1.55593

> <r_epik_Ionization_Penalty_Neutral>
5.20779e-05

> <r_epik_State_Penalty>
1.65054

> <r_epik_Charging_Adjusted_Penalty>
3.20648

> <i_epik_Tot_Q>
1

> <i_epik_Tot_abs_Q>
1

> <r_epik_Metal_State_Penalty>
1.69236

> <b_epik_Metal_Only>
0

> <s_lp_Force_Field>
OPLS_2005

> <r_lp_Energy>
33.1399

> <b_lp_Chiralities_Consistent>
1

> <s_lp_Variant>
AV-unprocessed.smi:1562-2

> <Gold.Version>
5.8.1

> <Gold.Id.Protein>
6NUR|6NUR_protein|mol2

> <Gold.PLP.Fitness>
45.5652

> <Gold.PLP.PLP>
-43.6367

> <Gold.PLP.part.hbond>
-1.0000

> <Gold.PLP.part.metal>
0.0000

> <Gold.PLP.part.buried>
-4.9170

> <Gold.PLP.part.nonpolar>
-36.7794

> <Gold.PLP.part.repulsive>
0.3803

> <Gold.PLP.ligand.clash>
0.0000

> <Gold.PLP.ligand.torsion>
0.5814

> <Gold.PLP.Chemscore.Hbond>
0.9760

> <Gold.PLP.Chemscore.CHOScore>
0.0000

> <Gold.PLP.Chemscore.Metal>
0.0000

> <Gold.Chemscore.Hbonds>
donor molecule, donor type, donor heavy atom, donor atom, acceptor molecule, acceptor atom, score
      L1  H     1    22       P1  8028  0.30

> <Gold.PLP.Chemscore.Internal.Correction>
0.1633

> <Gold.Rescore>
     Score         DG    S(hbond)    S(metal)    S(lipo)     H(rot)  DE(clash)    DE(int)     intcor
     14.70     -15.98       0.94        0.00     107.44       2.03       0.48       0.81       ----

> <Gold.Chemscore.Fitness>
14.6956

> <Gold.Chemscore.DG>
-15.9793

> <Gold.Chemscore.ZeroCoef>
-5.4800

> <Gold.Chemscore.Hbond>
0.9390

> <Gold.Chemscore.Metal>
0.0000

> <Gold.Chemscore.Lipo>
107.4361

> <Gold.Chemscore.Internal_Hbond>
0.0000

> <Gold.Chemscore.DEClash>
0.4783

> <Gold.Chemscore.DEInternal>
0.8054

> <Gold.Chemscore.Rot>
2.0339

> <Gold.Chemscore.Internal.Correction>
   9.000000E+99

> <Gold.Chemscore.Hbonds>
donor molecule, donor type, donor heavy atom, donor atom, acceptor molecule, acceptor atom, score
      L1  H     1    22       P1  8028  0.30

> <Gold.Chemscore.Hbond.Weighted>
-3.1361

> <Gold.Chemscore.Metal.Weighted>
-0.0000

> <Gold.Chemscore.Lipo.Weighted>
-12.5700

> <Gold.Chemscore.Internal_Hbond.Weighted>
0.0000

> <Gold.Chemscore.DEClash.Weighted>
0.4783

> <Gold.Chemscore.DEInternal.Weighted>
0.8054

> <Gold.Chemscore.Rot.Weighted>
5.2069

> <Gold.Chemscore.Internal.Correction.Weighted>
   9.000000E+99

> <Gold.Protein.RotatedTorsions>
[ 6907 6896 6895 6894 ] final -115.55 input  -60.11 | X-H torsion
[ 7974 7965 7964 7962 ] final -127.87 input  175.53 | X-H torsion
[ 8008 7997 7996 7995 ] final  -66.19 input   59.86 | X-H torsion
[ 10167 10162 10161 10158 ] final  -66.34 input  -65.29 | X-H torsion
[ 10718 10713 10712 10709 ] final   94.73 input   66.30 | X-H torsion
[ 10763 10752 10751 10750 ] final    6.46 input  -60.55 | X-H torsion
[ 11005 11000 10999 10996 ] final  111.37 input  -57.11 | X-H torsion

> <Gold.Protein.ActiveResidues>
 VAL166  LYS551  ARG553  GLY616  TRP617  ASP618  TYR619  PRO620  LYS621  CYS622 
 ASP623  PHE694  ASN695  SER759  ASP760  ASP761  ALA762  ILE779  LEU786  VAL792 
 PHE793  MET794  SER795  GLU796  ALA797  LYS798  CYS799  TRP800  GLU811  SER814 

> <Gold.Protein.RotatedAtoms>
  150.7987  133.8642  159.3240 H   0  0  0  0  0  0  0  0  0  0  0  0  # atno 6907 bound_to 6896
  151.6460  135.1005  160.0160 H   0  0  0  0  0  0  0  0  0  0  0  0  # atno 6908 bound_to 6896
  152.4072  133.6867  159.6401 H   0  0  0  0  0  0  0  0  0  0  0  0  # atno 6909 bound_to 6896
  144.9728  140.7562  143.4660 H   0  0  0  0  0  0  0  0  0  0  0  0  # atno 7974 bound_to 7965
  154.4719  140.0918  156.7165 H   0  0  0  0  0  0  0  0  0  0  0  0  # atno 8008 bound_to 7997
  155.4702  140.3464  155.4306 H   0  0  0  0  0  0  0  0  0  0  0  0  # atno 8009 bound_to 7997
  156.1052  140.1433  156.9402 H   0  0  0  0  0  0  0  0  0  0  0  0  # atno 8010 bound_to 7997
  140.5664  143.2315  151.6626 H   0  0  0  0  0  0  0  0  0  0  0  0  # atno 10167 bound_to 10162
  157.6945  131.0522  150.4231 H   0  0  0  0  0  0  0  0  0  0  0  0  # atno 10718 bound_to 10713
  153.2475  135.6910  153.7715 H   0  0  0  0  0  0  0  0  0  0  0  0  # atno 10763 bound_to 10752
  153.6822  135.3326  155.3182 H   0  0  0  0  0  0  0  0  0  0  0  0  # atno 10764 bound_to 10752
  154.8381  135.4525  154.1420 H   0  0  0  0  0  0  0  0  0  0  0  0  # atno 10765 bound_to 10752
  139.8902  134.9506  156.6422 H   0  0  0  0  0  0  0  0  0  0  0  0  # atno 11005 bound_to 11000
  145.2534  139.2022  143.4930 LP  0  0  0  0  0  0  0  0  0  0  0  0  # atno 17320 bound_to 7965
  146.3387  140.2452  142.8597 LP  0  0  0  0  0  0  0  0  0  0  0  0  # atno 17321 bound_to 7965
  139.5095  144.3574  152.0594 LP  0  0  0  0  0  0  0  0  0  0  0  0  # atno 17342 bound_to 10162
  140.2706  144.3968  150.6152 LP  0  0  0  0  0  0  0  0  0  0  0  0  # atno 17343 bound_to 10162
  156.4604  130.4031  149.6580 LP  0  0  0  0  0  0  0  0  0  0  0  0  # atno 17370 bound_to 10713
  156.3697  130.7524  151.2505 LP  0  0  0  0  0  0  0  0  0  0  0  0  # atno 17371 bound_to 10713
  140.7585  133.8837  155.8400 LP  0  0  0  0  0  0  0  0  0  0  0  0  # atno 17394 bound_to 11000
  140.9942  134.1238  157.4380 LP  0  0  0  0  0  0  0  0  0  0  0  0  # atno 17395 bound_to 11000

$$$$
