AV-unprocessed.smi:17|AV-procd|sdf|99|dock8
  -GOLD-   2262015243D 1   1.00000     0.00000
 Structure written by MMmdl.
 57 59  0  0  0  0  0  0  0  0  1 V2000
  150.0620  134.5748  156.3940 C   0  0  0  0  0  0  0  0  0  0  0  0
  148.6033  134.3690  156.8265 C   0  0  0  0  0  0  0  0  0  0  0  0
  148.2706  135.1195  158.0406 N   0  0  0  0  0  0  0  0  0  0  0  0
  148.3962  136.4746  158.0266 C   0  0  0  0  0  0  0  0  0  0  0  0
  147.3464  137.2105  157.5747 N   0  0  0  0  0  0  0  0  0  0  0  0
  147.4080  138.5443  157.5556 C   0  0  0  0  0  0  0  0  0  0  0  0
  148.4121  139.3370  157.9300 N   0  0  0  0  0  0  0  0  0  0  0  0
  149.4789  138.6093  158.3664 C   0  0  0  0  0  0  0  0  0  0  0  0
  149.5593  137.1887  158.4437 C   0  0  0  0  0  0  0  0  0  0  0  0
  150.8161  136.8198  158.9132 N   0  0  0  0  0  0  0  0  0  0  0  0
  151.4303  137.9513  159.1225 C   0  0  0  0  0  0  0  0  0  0  0  0
  150.6970  139.0764  158.8278 N   0  0  0  0  0  0  0  0  0  0  0  0
  151.1328  140.4546  158.9688 C   0  0  0  0  0  0  0  0  0  0  0  0
  150.9561  141.2853  157.6733 C   0  0  2  0  0  0  0  0  0  0  0  0
  151.4867  140.5549  156.4149 C   0  0  0  0  0  0  0  0  0  0  0  0
  152.6567  139.8162  156.7004 O   0  0  0  0  0  0  0  0  0  0  0  0
  151.5551  142.7066  157.8212 C   0  0  2  0  0  0  0  0  0  0  0  0
  152.5005  142.8824  158.9965 C   0  0  0  0  0  0  0  0  0  0  0  0
  152.5376  144.3979  159.1489 C   0  0  0  0  0  0  0  0  0  0  0  0
  151.2327  144.8438  158.7996 O   0  0  0  0  0  0  0  0  0  0  0  0
  150.5309  143.8086  158.1166 C   0  0  0  0  0  0  0  0  0  0  0  0
  147.8630  134.4325  159.2714 C   0  0  2  0  0  0  0  0  0  0  0  0
  147.8088  132.9095  159.0660 C   0  0  0  0  0  0  0  0  0  0  0  0
  146.5380  134.9758  159.8484 C   0  0  0  0  0  0  0  0  0  0  0  0
  146.7069  136.6529  160.6158 S   0  0  0  0  0  0  0  0  0  0  0  0
  145.9892  136.4043  162.2924 C   0  0  0  0  0  0  0  0  0  0  0  0
  148.1412  136.9289  160.7868 O   0  0  0  0  0  0  0  0  0  0  0  0
  145.8595  137.6112  159.8891 O   0  0  0  0  0  0  0  0  0  0  0  0
  150.2883  133.9814  155.5082 H   0  0  0  0  0  0  0  0  0  0  0  0
  150.7545  134.2745  157.1804 H   0  0  0  0  0  0  0  0  0  0  0  0
  150.2629  135.6187  156.1512 H   0  0  0  0  0  0  0  0  0  0  0  0
  147.9301  134.6426  156.0141 H   0  0  0  0  0  0  0  0  0  0  0  0
  148.4382  133.3061  156.9991 H   0  0  0  0  0  0  0  0  0  0  0  0
  146.5262  139.0487  157.1893 H   0  0  0  0  0  0  0  0  0  0  0  0
  152.4404  137.9977  159.5031 H   0  0  0  0  0  0  0  0  0  0  0  0
  150.5645  140.8948  159.7883 H   0  0  0  0  0  0  0  0  0  0  0  0
  152.1773  140.4617  159.2821 H   0  0  0  0  0  0  0  0  0  0  0  0
  149.8821  141.4056  157.5237 H   0  0  0  0  0  0  0  0  0  0  0  0
  150.7360  139.8776  156.0076 H   0  0  0  0  0  0  0  0  0  0  0  0
  151.7098  141.2656  155.6196 H   0  0  0  0  0  0  0  0  0  0  0  0
  152.6990  139.0798  156.1093 H   0  0  0  0  0  0  0  0  0  0  0  0
  152.0953  142.9714  156.9105 H   0  0  0  0  0  0  0  0  0  0  0  0
  152.0849  142.4251  159.8957 H   0  0  0  0  0  0  0  0  0  0  0  0
  153.4899  142.4589  158.8221 H   0  0  0  0  0  0  0  0  0  0  0  0
  152.8135  144.7113  160.1559 H   0  0  0  0  0  0  0  0  0  0  0  0
  153.2532  144.8323  158.4496 H   0  0  0  0  0  0  0  0  0  0  0  0
  150.0590  144.1890  157.2102 H   0  0  0  0  0  0  0  0  0  0  0  0
  149.7437  143.4415  158.7764 H   0  0  0  0  0  0  0  0  0  0  0  0
  148.6055  134.6098  160.0464 H   0  0  0  0  0  0  0  0  0  0  0  0
  147.6027  132.3959  160.0051 H   0  0  0  0  0  0  0  0  0  0  0  0
  148.7582  132.5299  158.6874 H   0  0  0  0  0  0  0  0  0  0  0  0
  147.0298  132.6262  158.3580 H   0  0  0  0  0  0  0  0  0  0  0  0
  145.7338  134.9999  159.1142 H   0  0  0  0  0  0  0  0  0  0  0  0
  146.2061  134.3118  160.6470 H   0  0  0  0  0  0  0  0  0  0  0  0
  146.1281  137.3117  162.8795 H   0  0  0  0  0  0  0  0  0  0  0  0
  146.4929  135.5753  162.7888 H   0  0  0  0  0  0  0  0  0  0  0  0
  144.9253  136.1921  162.2177 H   0  0  0  0  0  0  0  0  0  0  0  0
  1  2  1  0  0  0  0
  1 29  1  0  0  0  0
  1 30  1  0  0  0  0
  1 31  1  0  0  0  0
  2  3  1  0  0  0  0
  2 32  1  0  0  0  0
  2 33  1  0  0  0  0
  3  4  1  0  0  0  0
  3 22  1  0  0  0  0
  4  9  1  0  0  0  0
  4  5  2  0  0  0  0
  5  6  1  0  0  0  0
  6  7  2  0  0  0  0
  6 34  1  0  0  0  0
  7  8  1  0  0  0  0
  8 12  1  0  0  0  0
  8  9  2  0  0  0  0
  9 10  1  0  0  0  0
 10 11  2  0  0  0  0
 11 12  1  0  0  0  0
 11 35  1  0  0  0  0
 12 13  1  0  0  0  0
 13 14  1  0  0  0  0
 13 36  1  0  0  0  0
 13 37  1  0  0  0  0
 14 15  1  0  0  0  0
 14 17  1  0  0  0  0
 14 38  1  0  0  0  0
 15 16  1  0  0  0  0
 15 39  1  0  0  0  0
 15 40  1  0  0  0  0
 16 41  1  0  0  0  0
 17 21  1  0  0  0  0
 17 18  1  0  0  0  0
 17 42  1  0  0  0  0
 18 19  1  0  0  0  0
 18 43  1  0  0  0  0
 18 44  1  0  0  0  0
 19 20  1  0  0  0  0
 19 45  1  0  0  0  0
 19 46  1  0  0  0  0
 20 21  1  0  0  0  0
 21 47  1  0  0  0  0
 21 48  1  0  0  0  0
 22 23  1  0  0  0  0
 22 24  1  0  0  0  0
 22 49  1  0  0  0  0
 23 50  1  0  0  0  0
 23 51  1  0  0  0  0
 23 52  1  0  0  0  0
 24 25  1  0  0  0  0
 24 53  1  0  0  0  0
 24 54  1  0  0  0  0
 25 26  1  0  0  0  0
 25 27  2  0  0  0  0
 25 28  2  0  0  0  0
 26 55  1  0  0  0  0
 26 56  1  0  0  0  0
 26 57  1  0  0  0  0
M  END
> <s_m_source_file>
AV-unprocessed.smi

> <i_m_source_file_index>
17

> <i_lp_mmshare_version>
43012

> <i_f3d_flags>
0

> <s_epik_input>
W0NIM11TKD1PKSg9TylbQ0gyXVtDQEBIXShbQ0gzXSlOKFtDSDJdW0NIM10pYyhuW2NIXW4xKWMoYzEyKW5bY0hdbjJbQ0gyXVtDQEhdKFtDSDJdW09IXSlbQ0BASF0zW0NIMl1bQ0gyXU9bQ0gyXTM=

> <s_epik_cmdline>
J2VwaWtfcHl0aG9uJywgJy1waCcsICc3LjAnLCAnLXRuJywgJzgnLCAnLW1hJywgJzIwMCcsICctbWV0YWxfYmluZGluZycsICctaW1hZScsICc8aW5maWxlLm1hZT4nLCAnLW9tYWUnLCAnPG91dGZpbGUubWFlPic=

> <r_lp_tautomer_probability>
1

> <r_epik_Ionization_Penalty>
0.00119955

> <r_epik_Ionization_Penalty_Charging>
0

> <r_epik_Ionization_Penalty_Neutral>
0.00119955

> <r_epik_State_Penalty>
0.000665399

> <r_epik_Charging_Adjusted_Penalty>
0.000665399

> <i_epik_Tot_Q>
0

> <i_epik_Tot_abs_Q>
0

> <r_epik_Metal_State_Penalty>
-0

> <b_epik_Metal_Only>
0

> <s_lp_Force_Field>
OPLS_2005

> <r_lp_Energy>
33.2615

> <b_lp_Chiralities_Consistent>
1

> <s_lp_Variant>
AV-unprocessed.smi:17-1

> <Gold.Version>
5.8.1

> <Gold.Id.Protein>
6NUR|6NUR_protein|mol2

> <Gold.PLP.Fitness>
46.0526

> <Gold.PLP.PLP>
-40.7406

> <Gold.PLP.part.hbond>
-4.9992

> <Gold.PLP.part.metal>
0.0000

> <Gold.PLP.part.buried>
-5.7486

> <Gold.PLP.part.nonpolar>
-29.9464

> <Gold.PLP.part.repulsive>
0.1065

> <Gold.PLP.ligand.clash>
0.0000

> <Gold.PLP.ligand.torsion>
3.4696

> <Gold.PLP.Chemscore.Hbond>
3.8882

> <Gold.PLP.Chemscore.CHOScore>
0.0000

> <Gold.PLP.Chemscore.Metal>
0.0000

> <Gold.Chemscore.Hbonds>
donor molecule, donor type, donor heavy atom, donor atom, acceptor molecule, acceptor atom, score
      P1  H  6896  6908       L1    10  1.00
      P1  H  6931  6943       L1    27  0.98
      P1  H  6934  6947       L1    28  0.06
      P1  H  7997  8010       L1    16  0.50

> <Gold.PLP.Chemscore.Internal.Correction>
0.5867

> <Gold.Rescore>
     Score         DG    S(hbond)    S(metal)    S(lipo)     H(rot)  DE(clash)    DE(int)     intcor
     13.31     -18.55       3.48        0.00      89.14       3.51       0.03       5.21       ----

> <Gold.Chemscore.Fitness>
13.3150

> <Gold.Chemscore.DG>
-18.5545

> <Gold.Chemscore.ZeroCoef>
-5.4800

> <Gold.Chemscore.Hbond>
3.4791

> <Gold.Chemscore.Metal>
0.0000

> <Gold.Chemscore.Lipo>
89.1396

> <Gold.Chemscore.Internal_Hbond>
0.0000

> <Gold.Chemscore.DEClash>
0.0255

> <Gold.Chemscore.DEInternal>
5.2140

> <Gold.Chemscore.Rot>
3.5059

> <Gold.Chemscore.Internal.Correction>
   9.000000E+99

> <Gold.Chemscore.Hbonds>
donor molecule, donor type, donor heavy atom, donor atom, acceptor molecule, acceptor atom, score
      P1  H  6896  6908       L1    10  0.94
      P1  H  6931  6943       L1    27  0.93
      P1  H  7997  8010       L1    16  0.02

> <Gold.Chemscore.Hbond.Weighted>
-11.6201

> <Gold.Chemscore.Metal.Weighted>
-0.0000

> <Gold.Chemscore.Lipo.Weighted>
-10.4293

> <Gold.Chemscore.Internal_Hbond.Weighted>
0.0000

> <Gold.Chemscore.DEClash.Weighted>
0.0255

> <Gold.Chemscore.DEInternal.Weighted>
5.2140

> <Gold.Chemscore.Rot.Weighted>
8.9750

> <Gold.Chemscore.Internal.Correction.Weighted>
   9.000000E+99

> <Gold.Protein.RotatedTorsions>
[ 6907 6896 6895 6894 ] final -148.53 input  -60.11 | X-H torsion
[ 7974 7965 7964 7962 ] final  153.46 input  175.53 | X-H torsion
[ 8008 7997 7996 7995 ] final   71.84 input   59.86 | X-H torsion
[ 10167 10162 10161 10158 ] final  158.77 input  -65.29 | X-H torsion
[ 10718 10713 10712 10709 ] final   24.77 input   66.30 | X-H torsion
[ 10763 10752 10751 10750 ] final    8.90 input  -60.55 | X-H torsion
[ 11005 11000 10999 10996 ] final -131.75 input  -57.11 | X-H torsion

> <Gold.Protein.ActiveResidues>
 VAL166  LYS551  ARG553  GLY616  TRP617  ASP618  TYR619  PRO620  LYS621  CYS622 
 ASP623  PHE694  ASN695  SER759  ASP760  ASP761  ALA762  ILE779  LEU786  VAL792 
 PHE793  MET794  SER795  GLU796  ALA797  LYS798  CYS799  TRP800  GLU811  SER814 

> <Gold.Protein.RotatedAtoms>
  151.1712  133.4783  159.2593 H   0  0  0  0  0  0  0  0  0  0  0  0  # atno 6907 bound_to 6896
  151.1354  135.0152  159.8611 H   0  0  0  0  0  0  0  0  0  0  0  0  # atno 6908 bound_to 6896
  152.5461  134.1611  159.8611 H   0  0  0  0  0  0  0  0  0  0  0  0  # atno 6909 bound_to 6896
  144.8153  139.6804  143.6124 H   0  0  0  0  0  0  0  0  0  0  0  0  # atno 7974 bound_to 7965
  155.7600  140.3487  155.5193 H   0  0  0  0  0  0  0  0  0  0  0  0  # atno 8008 bound_to 7997
  155.8923  140.1020  157.1430 H   0  0  0  0  0  0  0  0  0  0  0  0  # atno 8009 bound_to 7997
  154.4035  140.1302  156.4319 H   0  0  0  0  0  0  0  0  0  0  0  0  # atno 8010 bound_to 7997
  139.4828  144.4793  151.8466 H   0  0  0  0  0  0  0  0  0  0  0  0  # atno 10167 bound_to 10162
  157.1843  130.6817  149.6125 H   0  0  0  0  0  0  0  0  0  0  0  0  # atno 10718 bound_to 10713
  153.2200  135.6880  153.8012 H   0  0  0  0  0  0  0  0  0  0  0  0  # atno 10763 bound_to 10752
  153.7214  135.3267  155.3268 H   0  0  0  0  0  0  0  0  0  0  0  0  # atno 10764 bound_to 10752
  154.8264  135.4614  154.1043 H   0  0  0  0  0  0  0  0  0  0  0  0  # atno 10765 bound_to 10752
  140.9231  134.1418  157.4298 H   0  0  0  0  0  0  0  0  0  0  0  0  # atno 11005 bound_to 11000
  146.2455  139.6090  142.9462 LP  0  0  0  0  0  0  0  0  0  0  0  0  # atno 17320 bound_to 7965
  145.5229  141.0431  143.2425 LP  0  0  0  0  0  0  0  0  0  0  0  0  # atno 17321 bound_to 7965
  140.4268  144.2169  150.5887 LP  0  0  0  0  0  0  0  0  0  0  0  0  # atno 17342 bound_to 10162
  140.4819  143.2376  151.8943 LP  0  0  0  0  0  0  0  0  0  0  0  0  # atno 17343 bound_to 10162
  155.9720  130.4636  150.6188 LP  0  0  0  0  0  0  0  0  0  0  0  0  # atno 17370 bound_to 10713
  157.3922  131.0797  151.1383 LP  0  0  0  0  0  0  0  0  0  0  0  0  # atno 17371 bound_to 10713
  139.8779  134.9978  156.5868 LP  0  0  0  0  0  0  0  0  0  0  0  0  # atno 17394 bound_to 11000
  140.7962  133.8542  155.8687 LP  0  0  0  0  0  0  0  0  0  0  0  0  # atno 17395 bound_to 11000

$$$$
