AV-unprocessed.smi:370|AV-procd|sdf|2440|dock4
  -GOLD-   2262022383D 1   1.00000     0.00000
 Structure written by MMmdl.
 42 43  0  0  0  0  0  0  0  0  3 V2000
  151.7726  143.4810  158.9555 C   0  0  0  0  0  0  0  0  0  0  0  0
  152.0368  142.1527  158.3345 C   0  0  0  0  0  0  0  0  0  0  0  0
  151.4435  141.4705  157.3101 C   0  0  0  0  0  0  0  0  0  0  0  0
  152.1963  140.2677  157.2465 C   0  0  0  0  0  0  0  0  0  0  0  0
  151.8848  139.2705  156.2851 N   0  0  0  0  0  0  0  0  0  0  0  0
  152.7200  138.5626  155.5029 C   0  0  0  0  0  0  0  0  0  0  0  0
  153.9425  138.7315  155.5794 O   0  0  0  0  0  0  0  0  0  0  0  0
  152.0518  137.7010  154.6888 N   0  5  0  0  0  0  0  0  0  0  0  0
  150.6682  137.8862  154.2393 C   0  0  0  0  0  0  0  0  0  0  0  0
  149.7099  136.8549  154.9336 C   0  0  0  0  0  0  0  0  0  0  0  0
  150.3482  135.4350  154.8175 C   0  0  0  0  0  0  0  0  0  0  0  0
  149.6128  137.1505  156.4567 C   0  0  0  0  0  0  0  0  0  0  0  0
  148.3438  136.9280  154.2796 N   0  3  0  0  0  0  0  0  0  0  0  0
  147.3500  135.8891  154.6739 C   0  0  0  0  0  0  0  0  0  0  0  0
  146.0987  135.9662  153.7811 C   0  0  0  0  0  0  0  0  0  0  0  0
  145.5320  137.2675  153.8345 O   0  0  0  0  0  0  0  0  0  0  0  0
  146.4421  138.2525  153.3670 C   0  0  0  0  0  0  0  0  0  0  0  0
  147.6774  138.2667  154.2786 C   0  0  0  0  0  0  0  0  0  0  0  0
  153.1631  140.2217  158.1510 N   0  0  0  0  0  0  0  0  0  0  0  0
  153.0661  141.4293  158.8523 O   0  0  0  0  0  0  0  0  0  0  0  0
  150.8829  143.9419  158.5260 H   0  0  0  0  0  0  0  0  0  0  0  0
  152.6135  144.1558  158.7958 H   0  0  0  0  0  0  0  0  0  0  0  0
  151.6166  143.3810  160.0296 H   0  0  0  0  0  0  0  0  0  0  0  0
  150.6053  141.7830  156.7051 H   0  0  0  0  0  0  0  0  0  0  0  0
  150.9028  139.0690  156.1712 H   0  0  0  0  0  0  0  0  0  0  0  0
  150.3097  138.8973  154.4363 H   0  0  0  0  0  0  0  0  0  0  0  0
  150.5938  137.7620  153.1584 H   0  0  0  0  0  0  0  0  0  0  0  0
  151.3555  135.3921  155.2388 H   0  0  0  0  0  0  0  0  0  0  0  0
  150.4192  135.0816  153.7865 H   0  0  0  0  0  0  0  0  0  0  0  0
  149.7746  134.6925  155.3730 H   0  0  0  0  0  0  0  0  0  0  0  0
  150.5716  137.0149  156.9614 H   0  0  0  0  0  0  0  0  0  0  0  0
  148.9108  136.4691  156.9387 H   0  0  0  0  0  0  0  0  0  0  0  0
  149.2802  138.1649  156.6857 H   0  0  0  0  0  0  0  0  0  0  0  0
  147.7513  134.8836  154.5601 H   0  0  0  0  0  0  0  0  0  0  0  0
  147.0787  136.0181  155.7225 H   0  0  0  0  0  0  0  0  0  0  0  0
  146.3445  135.7084  152.7496 H   0  0  0  0  0  0  0  0  0  0  0  0
  145.3542  135.2449  154.1184 H   0  0  0  0  0  0  0  0  0  0  0  0
  146.7206  138.0563  152.3301 H   0  0  0  0  0  0  0  0  0  0  0  0
  145.9489  139.2245  153.3873 H   0  0  0  0  0  0  0  0  0  0  0  0
  147.3697  138.5334  155.2905 H   0  0  0  0  0  0  0  0  0  0  0  0
  148.3525  139.0498  153.9348 H   0  0  0  0  0  0  0  0  0  0  0  0
  148.5500  136.7277  153.3097 H   0  0  0  0  0  0  0  0  0  0  0  0
  1  2  1  0  0  0  0
  1 21  1  0  0  0  0
  1 22  1  0  0  0  0
  1 23  1  0  0  0  0
  2 20  1  0  0  0  0
  2  3  2  0  0  0  0
  3  4  1  0  0  0  0
  3 24  1  0  0  0  0
  4  5  1  0  0  0  0
  4 19  2  0  0  0  0
  5  6  1  0  0  0  0
  5 25  1  0  0  0  0
  6  7  2  0  0  0  0
  6  8  1  0  0  0  0
  8  9  1  0  0  0  0
  9 10  1  0  0  0  0
  9 26  1  0  0  0  0
  9 27  1  0  0  0  0
 10 11  1  0  0  0  0
 10 12  1  0  0  0  0
 10 13  1  0  0  0  0
 11 28  1  0  0  0  0
 11 29  1  0  0  0  0
 11 30  1  0  0  0  0
 12 31  1  0  0  0  0
 12 32  1  0  0  0  0
 12 33  1  0  0  0  0
 13 18  1  0  0  0  0
 13 14  1  0  0  0  0
 13 42  1  0  0  0  0
 14 15  1  0  0  0  0
 14 34  1  0  0  0  0
 14 35  1  0  0  0  0
 15 16  1  0  0  0  0
 15 36  1  0  0  0  0
 15 37  1  0  0  0  0
 16 17  1  0  0  0  0
 17 18  1  0  0  0  0
 17 38  1  0  0  0  0
 17 39  1  0  0  0  0
 18 40  1  0  0  0  0
 18 41  1  0  0  0  0
 19 20  1  0  0  0  0
M  CHG  1   8  -1
M  CHG  1  13   1
M  END
> <s_m_source_file>
AV-unprocessed.smi

> <i_m_source_file_index>
370

> <i_lp_mmshare_version>
43012

> <i_f3d_flags>
0

> <s_epik_input>
W0NIM11jMVtjSF1jKG5vMSlbTkhdQyg9TylbTkhdW0NIMl1DKFtDSDNdKShbQ0gzXSlOMltDSDJdW0NIMl1PW0NIMl1bQ0gyXTI=

> <s_epik_cmdline>
J2VwaWtfcHl0aG9uJywgJy1waCcsICc3LjAnLCAnLXRuJywgJzgnLCAnLW1hJywgJzIwMCcsICctbWV0YWxfYmluZGluZycsICctaW1hZScsICc8aW5maWxlLm1hZT4nLCAnLW9tYWUnLCAnPG91dGZpbGUubWFlPic=

> <r_epik_Ionization_Penalty>
6.79272

> <r_epik_Ionization_Penalty_Charging>
6.79272

> <r_epik_Ionization_Penalty_Neutral>
5.6208e-06

> <r_epik_State_Penalty>
7.45901

> <r_epik_Charging_Adjusted_Penalty>
14.2517

> <i_epik_Tot_Q>
0

> <i_epik_Tot_abs_Q>
2

> <r_epik_Metal_State_Penalty>
3.38639

> <b_epik_Metal_Only>
1

> <s_lp_Force_Field>
OPLS_2005

> <r_lp_Energy>
23.8333

> <b_lp_Chiralities_Consistent>
1

> <s_lp_Variant>
AV-unprocessed.smi:370-5

> <Gold.Version>
5.8.1

> <Gold.Id.Protein>
6NUR|6NUR_protein|mol2

> <Gold.PLP.Fitness>
36.8083

> <Gold.PLP.PLP>
-23.6520

> <Gold.PLP.part.hbond>
-4.0000

> <Gold.PLP.part.metal>
0.0000

> <Gold.PLP.part.buried>
-3.6077

> <Gold.PLP.part.nonpolar>
-16.7883

> <Gold.PLP.part.repulsive>
0.3390

> <Gold.PLP.ligand.clash>
0.0000

> <Gold.PLP.ligand.torsion>
0.6878

> <Gold.PLP.Chemscore.Hbond>
4.8074

> <Gold.PLP.Chemscore.CHOScore>
0.0000

> <Gold.PLP.Chemscore.Metal>
0.0000

> <Gold.Chemscore.Hbonds>
donor molecule, donor type, donor heavy atom, donor atom, acceptor molecule, acceptor atom, score
      L1  H    13    42       P1  7948  2.00
      P1  H  7997  8009       L1    19  0.75
      P1  H  7997  8010       L1     7  0.26
      P1  H 10752 10765       L1     8  0.69

> <Gold.PLP.Chemscore.Internal.Correction>
0.1099

> <Gold.Rescore>
     Score         DG    S(hbond)    S(metal)    S(lipo)     H(rot)  DE(clash)    DE(int)     intcor
     14.44     -15.15       1.99        0.00      60.30       1.57       0.04       0.67       ----

> <Gold.Chemscore.Fitness>
14.4363

> <Gold.Chemscore.DG>
-15.1498

> <Gold.Chemscore.ZeroCoef>
-5.4800

> <Gold.Chemscore.Hbond>
1.9863

> <Gold.Chemscore.Metal>
0.0000

> <Gold.Chemscore.Lipo>
60.2980

> <Gold.Chemscore.Internal_Hbond>
0.0000

> <Gold.Chemscore.DEClash>
0.0402

> <Gold.Chemscore.DEInternal>
0.6732

> <Gold.Chemscore.Rot>
1.5701

> <Gold.Chemscore.Internal.Correction>
   9.000000E+99

> <Gold.Chemscore.Hbonds>
donor molecule, donor type, donor heavy atom, donor atom, acceptor molecule, acceptor atom, score
      L1  H    13    42       P1  7948  0.97
      P1  H  7997  8009       L1    19  0.39
      P1  H  7997  8010       L1     7  0.26
      P1  H 10752 10765       L1     8  0.30

> <Gold.Chemscore.Hbond.Weighted>
-6.6343

> <Gold.Chemscore.Metal.Weighted>
-0.0000

> <Gold.Chemscore.Lipo.Weighted>
-7.0549

> <Gold.Chemscore.Internal_Hbond.Weighted>
0.0000

> <Gold.Chemscore.DEClash.Weighted>
0.0402

> <Gold.Chemscore.DEInternal.Weighted>
0.6732

> <Gold.Chemscore.Rot.Weighted>
4.0194

> <Gold.Chemscore.Internal.Correction.Weighted>
   9.000000E+99

> <Gold.Protein.RotatedTorsions>
[ 6907 6896 6895 6894 ] final  138.60 input  -60.11 | X-H torsion
[ 7974 7965 7964 7962 ] final -131.96 input  175.53 | X-H torsion
[ 8008 7997 7996 7995 ] final  138.47 input   59.86 | X-H torsion
[ 10167 10162 10161 10158 ] final  -18.85 input  -65.29 | X-H torsion
[ 10718 10713 10712 10709 ] final   22.41 input   66.30 | X-H torsion
[ 10763 10752 10751 10750 ] final  173.70 input  -60.55 | X-H torsion
[ 11005 11000 10999 10996 ] final   55.12 input  -57.11 | X-H torsion

> <Gold.Protein.ActiveResidues>
 VAL166  LYS551  ARG553  GLY616  TRP617  ASP618  TYR619  PRO620  LYS621  CYS622 
 ASP623  PHE694  ASN695  SER759  ASP760  ASP761  ALA762  ILE779  LEU786  VAL792 
 PHE793  MET794  SER795  GLU796  ALA797  LYS798  CYS799  TRP800  GLU811  SER814 

> <Gold.Protein.RotatedAtoms>
  152.2647  133.5328  159.5402 H   0  0  0  0  0  0  0  0  0  0  0  0  # atno 6907 bound_to 6896
  150.7137  134.0781  159.3897 H   0  0  0  0  0  0  0  0  0  0  0  0  # atno 6908 bound_to 6896
  151.8698  135.0494  160.0529 H   0  0  0  0  0  0  0  0  0  0  0  0  # atno 6909 bound_to 6896
  144.9330  140.7150  143.4894 H   0  0  0  0  0  0  0  0  0  0  0  0  # atno 7974 bound_to 7965
  156.2997  140.2392  156.4079 H   0  0  0  0  0  0  0  0  0  0  0  0  # atno 8008 bound_to 7997
  154.8467  140.0426  157.1597 H   0  0  0  0  0  0  0  0  0  0  0  0  # atno 8009 bound_to 7997
  154.9043  140.2981  155.5304 H   0  0  0  0  0  0  0  0  0  0  0  0  # atno 8010 bound_to 7997
  140.7263  143.4876  151.0034 H   0  0  0  0  0  0  0  0  0  0  0  0  # atno 10167 bound_to 10162
  157.1519  130.6678  149.6015 H   0  0  0  0  0  0  0  0  0  0  0  0  # atno 10718 bound_to 10713
  154.4437  135.2763  155.1830 H   0  0  0  0  0  0  0  0  0  0  0  0  # atno 10763 bound_to 10752
  154.3685  135.6114  153.5731 H   0  0  0  0  0  0  0  0  0  0  0  0  # atno 10764 bound_to 10752
  152.9842  135.5851  154.4769 H   0  0  0  0  0  0  0  0  0  0  0  0  # atno 10765 bound_to 10752
  140.0632  134.5573  155.9129 H   0  0  0  0  0  0  0  0  0  0  0  0  # atno 11005 bound_to 11000
  145.3112  139.1818  143.4638 LP  0  0  0  0  0  0  0  0  0  0  0  0  # atno 17320 bound_to 7965
  146.3255  140.3117  142.8627 LP  0  0  0  0  0  0  0  0  0  0  0  0  # atno 17321 bound_to 7965
  139.8579  143.7353  152.3175 LP  0  0  0  0  0  0  0  0  0  0  0  0  # atno 17342 bound_to 10162
  139.7558  144.7521  151.0437 LP  0  0  0  0  0  0  0  0  0  0  0  0  # atno 17343 bound_to 10162
  155.9769  130.4741  150.6558 LP  0  0  0  0  0  0  0  0  0  0  0  0  # atno 17370 bound_to 10713
  157.4212  131.0837  151.1129 LP  0  0  0  0  0  0  0  0  0  0  0  0  # atno 17371 bound_to 10713
  141.1982  133.6600  156.5778 LP  0  0  0  0  0  0  0  0  0  0  0  0  # atno 17394 bound_to 11000
  140.3739  134.7582  157.4617 LP  0  0  0  0  0  0  0  0  0  0  0  0  # atno 17395 bound_to 11000

$$$$
