AV-unprocessed.smi:3224|AV-procd|sdf|12310|dock3
  -GOLD-   2272018153D 1   1.00000     0.00000
 Structure written by MMmdl.
 30 31  0  0  0  0  0  0  0  0  2 V2000
  151.6028  139.0892  158.4553 C   0  0  0  0  0  0  0  0  0  0  0  0
  150.4735  138.7947  157.4444 C   0  0  0  0  0  0  0  0  0  0  0  0
  149.5467  137.8925  158.1461 N   0  0  0  0  0  0  0  0  0  0  0  0
  149.7888  136.8274  158.9310 C   0  0  0  0  0  0  0  0  0  0  0  0
  150.9463  136.4722  159.1571 O   0  0  0  0  0  0  0  0  0  0  0  0
  148.6499  136.2530  159.3964 N   0  5  0  0  0  0  0  0  0  0  0  0
  148.3584  136.0315  160.6977 C   0  0  0  0  0  0  0  0  0  0  0  0
  148.1416  136.9581  161.6459 N   0  0  0  0  0  0  0  0  0  0  0  0
  147.8604  136.4289  162.9057 C   0  0  0  0  0  0  0  0  0  0  0  0
  147.8606  135.0609  162.9283 C   0  0  0  0  0  0  0  0  0  0  0  0
  148.2161  134.4001  161.3588 S   0  0  0  0  0  0  0  0  0  0  0  0
  149.7643  140.1115  157.0360 C   0  0  0  0  0  0  0  0  0  0  0  0
  150.6322  140.9762  156.1040 C   0  0  0  0  0  0  0  0  0  0  0  0
  151.0294  140.2238  154.9642 O   0  0  0  0  0  0  0  0  0  0  0  0
  151.8426  139.1052  155.2972 C   0  0  0  0  0  0  0  0  0  0  0  0
  151.0540  138.1175  156.1762 C   0  0  0  0  0  0  0  0  0  0  0  0
  152.3642  139.7555  158.0523 H   0  0  0  0  0  0  0  0  0  0  0  0
  152.1077  138.1717  158.7601 H   0  0  0  0  0  0  0  0  0  0  0  0
  151.2105  139.5588  159.3583 H   0  0  0  0  0  0  0  0  0  0  0  0
  148.5695  138.1091  158.0169 H   0  0  0  0  0  0  0  0  0  0  0  0
  147.6725  137.1008  163.7300 H   0  0  0  0  0  0  0  0  0  0  0  0
  147.6749  134.4050  163.7652 H   0  0  0  0  0  0  0  0  0  0  0  0
  148.8360  139.9020  156.5064 H   0  0  0  0  0  0  0  0  0  0  0  0
  149.4801  140.6825  157.9207 H   0  0  0  0  0  0  0  0  0  0  0  0
  150.0615  141.8414  155.7665 H   0  0  0  0  0  0  0  0  0  0  0  0
  151.5093  141.3665  156.6216 H   0  0  0  0  0  0  0  0  0  0  0  0
  152.1496  138.6131  154.3743 H   0  0  0  0  0  0  0  0  0  0  0  0
  152.7567  139.4378  155.7899 H   0  0  0  0  0  0  0  0  0  0  0  0
  151.6860  137.2721  156.4499 H   0  0  0  0  0  0  0  0  0  0  0  0
  150.2568  137.7055  155.5592 H   0  0  0  0  0  0  0  0  0  0  0  0
  1  2  1  0  0  0  0
  1 17  1  0  0  0  0
  1 18  1  0  0  0  0
  1 19  1  0  0  0  0
  2 16  1  0  0  0  0
  2  3  1  0  0  0  0
  2 12  1  0  0  0  0
  3  4  1  0  0  0  0
  3 20  1  0  0  0  0
  4  5  2  0  0  0  0
  4  6  1  0  0  0  0
  6  7  1  0  0  0  0
  7 11  1  0  0  0  0
  7  8  2  0  0  0  0
  8  9  1  0  0  0  0
  9 10  2  0  0  0  0
  9 21  1  0  0  0  0
 10 11  1  0  0  0  0
 10 22  1  0  0  0  0
 12 13  1  0  0  0  0
 12 23  1  0  0  0  0
 12 24  1  0  0  0  0
 13 14  1  0  0  0  0
 13 25  1  0  0  0  0
 13 26  1  0  0  0  0
 14 15  1  0  0  0  0
 15 16  1  0  0  0  0
 15 27  1  0  0  0  0
 15 28  1  0  0  0  0
 16 29  1  0  0  0  0
 16 30  1  0  0  0  0
M  CHG  1   6  -1
M  END
> <s_m_source_file>
AV-unprocessed.smi

> <i_m_source_file_index>
3224

> <i_lp_mmshare_version>
43012

> <i_f3d_flags>
0

> <s_epik_input>
W0NIMl0xW0NIMl1PW0NIMl1bQ0gyXUMxKFtDSDNdKVtOSF1DKD1PKVtOSF1jMm5bY0hdW2NIXXMy

> <s_epik_cmdline>
J2VwaWtfcHl0aG9uJywgJy1waCcsICc3LjAnLCAnLXRuJywgJzgnLCAnLW1hJywgJzIwMCcsICctbWV0YWxfYmluZGluZycsICctaW1hZScsICc8aW5maWxlLm1hZT4nLCAnLW9tYWUnLCAnPG91dGZpbGUubWFlPic=

> <r_lp_tautomer_probability>
1

> <r_epik_Ionization_Penalty>
6.86712

> <r_epik_Ionization_Penalty_Charging>
5.8001

> <r_epik_Ionization_Penalty_Neutral>
1.06702

> <r_epik_State_Penalty>
5.80007

> <r_epik_Charging_Adjusted_Penalty>
11.6002

> <i_epik_Tot_Q>
-1

> <i_epik_Tot_abs_Q>
1

> <r_epik_Metal_State_Penalty>
1.77033

> <b_epik_Metal_Only>
1

> <s_lp_Force_Field>
OPLS_2005

> <r_lp_Energy>
12.9706

> <b_lp_Chiralities_Consistent>
1

> <s_lp_Variant>
AV-unprocessed.smi:3224-2

> <Gold.Version>
5.8.1

> <Gold.Id.Protein>
6NUR|6NUR_protein|mol2

> <Gold.PLP.Fitness>
38.3659

> <Gold.PLP.PLP>
-30.0877

> <Gold.PLP.part.hbond>
-4.0000

> <Gold.PLP.part.metal>
0.0000

> <Gold.PLP.part.buried>
-4.5819

> <Gold.PLP.part.nonpolar>
-21.6187

> <Gold.PLP.part.repulsive>
0.1644

> <Gold.PLP.ligand.clash>
0.0000

> <Gold.PLP.ligand.torsion>
1.4680

> <Gold.PLP.Chemscore.Hbond>
3.7360

> <Gold.PLP.Chemscore.CHOScore>
0.0000

> <Gold.PLP.Chemscore.Metal>
0.0000

> <Gold.Chemscore.Hbonds>
donor molecule, donor type, donor heavy atom, donor atom, acceptor molecule, acceptor atom, score
      P1  H  6896  6909       L1     5  0.82
      P1  H  6931  6943       L1     8  1.00
      P1  H  6934  6947       L1     8  0.08
      P1  H  7989  7998       L1    14  1.00

> <Gold.PLP.Chemscore.Internal.Correction>
0.0062

> <Gold.Rescore>
     Score         DG    S(hbond)    S(metal)    S(lipo)     H(rot)  DE(clash)    DE(int)     intcor
     17.29     -20.07       3.27        0.00      53.22       1.00       0.00       2.78       ----

> <Gold.Chemscore.Fitness>
17.2929

> <Gold.Chemscore.DG>
-20.0735

> <Gold.Chemscore.ZeroCoef>
-5.4800

> <Gold.Chemscore.Hbond>
3.2715

> <Gold.Chemscore.Metal>
0.0000

> <Gold.Chemscore.Lipo>
53.2190

> <Gold.Chemscore.Internal_Hbond>
0.0000

> <Gold.Chemscore.DEClash>
0.0048

> <Gold.Chemscore.DEInternal>
2.7758

> <Gold.Chemscore.Rot>
1.0000

> <Gold.Chemscore.Internal.Correction>
   9.000000E+99

> <Gold.Chemscore.Hbonds>
donor molecule, donor type, donor heavy atom, donor atom, acceptor molecule, acceptor atom, score
      P1  H  6896  6909       L1     5  0.57
      P1  H  6931  6943       L1     8  0.49
      P1  H  6934  6947       L1     8  0.09
      P1  H  7989  7998       L1    14  0.60

> <Gold.Chemscore.Hbond.Weighted>
-10.9269

> <Gold.Chemscore.Metal.Weighted>
-0.0000

> <Gold.Chemscore.Lipo.Weighted>
-6.2266

> <Gold.Chemscore.Internal_Hbond.Weighted>
0.0000

> <Gold.Chemscore.DEClash.Weighted>
0.0048

> <Gold.Chemscore.DEInternal.Weighted>
2.7758

> <Gold.Chemscore.Rot.Weighted>
2.5600

> <Gold.Chemscore.Internal.Correction.Weighted>
   9.000000E+99

> <Gold.Protein.RotatedTorsions>
[ 6907 6896 6895 6894 ] final   74.18 input  -60.11 | X-H torsion
[ 7974 7965 7964 7962 ] final -170.87 input  175.53 | X-H torsion
[ 8008 7997 7996 7995 ] final  157.64 input   59.86 | X-H torsion
[ 10167 10162 10161 10158 ] final -172.72 input  -65.29 | X-H torsion
[ 10718 10713 10712 10709 ] final  -41.42 input   66.30 | X-H torsion
[ 10763 10752 10751 10750 ] final   79.68 input  -60.55 | X-H torsion
[ 11005 11000 10999 10996 ] final -155.72 input  -57.11 | X-H torsion

> <Gold.Protein.ActiveResidues>
 VAL166  LYS551  ARG553  GLY616  TRP617  ASP618  TYR619  PRO620  LYS621  CYS622 
 ASP623  PHE694  ASN695  SER759  ASP760  ASP761  ALA762  ILE779  LEU786  VAL792 
 PHE793  MET794  SER795  GLU796  ALA797  LYS798  CYS799  TRP800  GLU811  SER814 

> <Gold.Protein.RotatedAtoms>
  152.4963  134.4309  159.9511 H   0  0  0  0  0  0  0  0  0  0  0  0  # atno 6907 bound_to 6896
  151.4288  133.3670  159.2773 H   0  0  0  0  0  0  0  0  0  0  0  0  # atno 6908 bound_to 6896
  150.9170  134.8610  159.7523 H   0  0  0  0  0  0  0  0  0  0  0  0  # atno 6909 bound_to 6896
  144.7164  140.2007  143.6338 H   0  0  0  0  0  0  0  0  0  0  0  0  # atno 7974 bound_to 7965
  156.2352  140.1880  156.7138 H   0  0  0  0  0  0  0  0  0  0  0  0  # atno 8008 bound_to 7997
  154.6093  140.0624  156.9500 H   0  0  0  0  0  0  0  0  0  0  0  0  # atno 8009 bound_to 7997
  155.2043  140.3295  155.4341 H   0  0  0  0  0  0  0  0  0  0  0  0  # atno 8010 bound_to 7997
  139.5728  144.1601  152.1409 H   0  0  0  0  0  0  0  0  0  0  0  0  # atno 10167 bound_to 10162
  156.2706  130.4206  149.8443 H   0  0  0  0  0  0  0  0  0  0  0  0  # atno 10718 bound_to 10713
  153.0972  135.4830  154.8801 H   0  0  0  0  0  0  0  0  0  0  0  0  # atno 10763 bound_to 10752
  154.7338  135.3066  154.8848 H   0  0  0  0  0  0  0  0  0  0  0  0  # atno 10764 bound_to 10752
  153.9476  135.6827  153.4797 H   0  0  0  0  0  0  0  0  0  0  0  0  # atno 10765 bound_to 10752
  140.6834  134.4119  157.5225 H   0  0  0  0  0  0  0  0  0  0  0  0  # atno 11005 bound_to 11000
  145.8682  139.2258  143.1676 LP  0  0  0  0  0  0  0  0  0  0  0  0  # atno 17320 bound_to 7965
  146.0109  140.8436  142.9971 LP  0  0  0  0  0  0  0  0  0  0  0  0  # atno 17321 bound_to 7965
  140.1138  144.5434  150.6908 LP  0  0  0  0  0  0  0  0  0  0  0  0  # atno 17342 bound_to 10162
  140.7012  143.2436  151.4858 LP  0  0  0  0  0  0  0  0  0  0  0  0  # atno 17343 bound_to 10162
  156.5925  130.8512  151.3412 LP  0  0  0  0  0  0  0  0  0  0  0  0  # atno 17370 bound_to 10713
  157.7282  130.9654  150.1733 LP  0  0  0  0  0  0  0  0  0  0  0  0  # atno 17371 bound_to 10713
  139.8945  134.8706  156.2176 LP  0  0  0  0  0  0  0  0  0  0  0  0  # atno 17394 bound_to 11000
  141.0299  133.6994  156.1412 LP  0  0  0  0  0  0  0  0  0  0  0  0  # atno 17395 bound_to 11000

$$$$
