AV-unprocessed.smi:1009|AV-procd|sdf|4414|dock9
  -GOLD-   22720 2363D 1   1.00000     0.00000
 Structure written by MMmdl.
 33 33  0  0  0  0  0  0  0  0  2 V2000
  146.6526  134.2719  152.8382 C   0  0  0  0  0  0  0  0  0  0  0  0
  148.0318  134.1111  153.3493 N   0  3  0  0  0  0  0  0  0  0  0  0
  148.6049  132.8014  152.9611 C   0  0  0  0  0  0  0  0  0  0  0  0
  148.1212  134.3796  154.8061 C   0  0  0  0  0  0  0  0  0  0  0  0
  149.5589  134.6953  155.2620 C   0  0  0  0  0  0  0  0  0  0  0  0
  150.0766  135.8795  154.5888 N   0  0  0  0  0  0  0  0  0  0  0  0
  151.1205  136.6094  155.0115 C   0  0  0  0  0  0  0  0  0  0  0  0
  151.7798  136.3319  156.0132 O   0  0  0  0  0  0  0  0  0  0  0  0
  151.4634  137.8506  154.1874 C   0  0  0  0  0  0  0  0  0  0  0  0
  150.4714  138.8919  154.3854 N   0  0  0  0  0  0  0  0  0  0  0  0
  149.1162  138.8451  154.1173 C   0  0  0  0  0  0  0  0  0  0  0  0
  148.5897  140.0622  154.4462 C   0  0  0  0  0  0  0  0  0  0  0  0
  149.7226  140.7835  154.9097 C   0  0  0  0  0  0  0  0  0  0  0  0
  149.6578  142.1005  155.3563 N   0  0  0  0  0  0  0  0  0  0  0  0
  150.8485  140.0948  154.8766 N   0  0  0  0  0  0  0  0  0  0  0  0
  145.9771  133.5521  153.3029 H   0  0  0  0  0  0  0  0  0  0  0  0
  146.6208  134.1238  151.7582 H   0  0  0  0  0  0  0  0  0  0  0  0
  146.2775  135.2754  153.0428 H   0  0  0  0  0  0  0  0  0  0  0  0
  148.0725  131.9819  153.4458 H   0  0  0  0  0  0  0  0  0  0  0  0
  149.6583  132.7297  153.2296 H   0  0  0  0  0  0  0  0  0  0  0  0
  148.5371  132.6572  151.8821 H   0  0  0  0  0  0  0  0  0  0  0  0
  147.4940  135.2383  155.0510 H   0  0  0  0  0  0  0  0  0  0  0  0
  147.7105  133.5325  155.3579 H   0  0  0  0  0  0  0  0  0  0  0  0
  149.6155  134.8423  156.3409 H   0  0  0  0  0  0  0  0  0  0  0  0
  150.2163  133.8577  155.0277 H   0  0  0  0  0  0  0  0  0  0  0  0
  149.5923  136.1844  153.7562 H   0  0  0  0  0  0  0  0  0  0  0  0
  152.4412  138.2351  154.4812 H   0  0  0  0  0  0  0  0  0  0  0  0
  151.5227  137.5986  153.1273 H   0  0  0  0  0  0  0  0  0  0  0  0
  148.6460  137.9592  153.7160 H   0  0  0  0  0  0  0  0  0  0  0  0
  147.5615  140.3824  154.3661 H   0  0  0  0  0  0  0  0  0  0  0  0
  148.7864  142.6109  155.3708 H   0  0  0  0  0  0  0  0  0  0  0  0
  150.4660  142.5627  155.7469 H   0  0  0  0  0  0  0  0  0  0  0  0
  148.5837  134.8217  152.8903 H   0  0  0  0  0  0  0  0  0  0  0  0
  1  2  1  0  0  0  0
  1 16  1  0  0  0  0
  1 17  1  0  0  0  0
  1 18  1  0  0  0  0
  2  3  1  0  0  0  0
  2  4  1  0  0  0  0
  2 33  1  0  0  0  0
  3 19  1  0  0  0  0
  3 20  1  0  0  0  0
  3 21  1  0  0  0  0
  4  5  1  0  0  0  0
  4 22  1  0  0  0  0
  4 23  1  0  0  0  0
  5  6  1  0  0  0  0
  5 24  1  0  0  0  0
  5 25  1  0  0  0  0
  6  7  1  0  0  0  0
  6 26  1  0  0  0  0
  7  8  2  0  0  0  0
  7  9  1  0  0  0  0
  9 10  1  0  0  0  0
  9 27  1  0  0  0  0
  9 28  1  0  0  0  0
 10 15  1  0  0  0  0
 10 11  1  0  0  0  0
 11 12  2  0  0  0  0
 11 29  1  0  0  0  0
 12 13  1  0  0  0  0
 12 30  1  0  0  0  0
 13 14  1  0  0  0  0
 13 15  2  0  0  0  0
 14 31  1  0  0  0  0
 14 32  1  0  0  0  0
M  CHG  1   2   1
M  END
> <s_m_source_file>
AV-unprocessed.smi

> <i_m_source_file_index>
1009

> <i_lp_mmshare_version>
43012

> <i_f3d_flags>
0

> <s_epik_input>
W0NIM11OKFtDSDNdKVtDSDJdW0NIMl1bTkhdQyg9TylbQ0gyXW4xW2NIXVtjSF1jKG4xKVtOSDJd

> <s_epik_cmdline>
J2VwaWtfcHl0aG9uJywgJy1waCcsICc3LjAnLCAnLXRuJywgJzgnLCAnLW1hJywgJzIwMCcsICctbWV0YWxfYmluZGluZycsICctaW1hZScsICc8aW5maWxlLm1hZT4nLCAnLW9tYWUnLCAnPG91dGZpbGUubWFlPic=

> <r_lp_tautomer_probability>
1

> <r_epik_Ionization_Penalty>
0.00595791

> <r_epik_Ionization_Penalty_Charging>
0.00581587

> <r_epik_Ionization_Penalty_Neutral>
0.000142034

> <r_epik_State_Penalty>
0.00427192

> <r_epik_Charging_Adjusted_Penalty>
0.0100878

> <i_epik_Tot_Q>
1

> <i_epik_Tot_abs_Q>
1

> <r_epik_Metal_State_Penalty>
-0

> <b_epik_Metal_Only>
0

> <s_lp_Force_Field>
OPLS_2005

> <r_lp_Energy>
4.99311

> <b_lp_Chiralities_Consistent>
1

> <s_lp_Variant>
AV-unprocessed.smi:1009-1

> <Gold.Version>
5.8.1

> <Gold.Id.Protein>
6NUR|6NUR_protein|mol2

> <Gold.PLP.Fitness>
45.3933

> <Gold.PLP.PLP>
-27.2946

> <Gold.PLP.part.hbond>
-5.2794

> <Gold.PLP.part.metal>
0.0000

> <Gold.PLP.part.buried>
-0.3620

> <Gold.PLP.part.nonpolar>
-20.8135

> <Gold.PLP.part.repulsive>
0.3550

> <Gold.PLP.ligand.clash>
0.0000

> <Gold.PLP.ligand.torsion>
0.4003

> <Gold.PLP.Chemscore.Hbond>
5.3770

> <Gold.PLP.Chemscore.CHOScore>
0.9130

> <Gold.PLP.Chemscore.Metal>
0.0000

> <Gold.Chemscore.Hbonds>
donor molecule, donor type, donor heavy atom, donor atom, acceptor molecule, acceptor atom, score
      L1  H     2    33       P1  7948  2.00
      L1  H     6    26       P1  7948  1.00
      L1  H    14    31       P1  8028  0.28
      P1  H  7989  7998       L1    15  1.00
      P1  H 10752 10765       L1     8  0.85
      L1  C    11    29       P1  7948  0.98

> <Gold.PLP.Chemscore.Internal.Correction>
0.0292

> <Gold.Rescore>
     Score         DG    S(hbond)    S(metal)    S(lipo)     H(rot)  DE(clash)    DE(int)     intcor
     15.93     -16.52       3.93        0.00      35.83       2.45       0.07       0.53       ----

> <Gold.Chemscore.Fitness>
15.9296

> <Gold.Chemscore.DG>
-16.5242

> <Gold.Chemscore.ZeroCoef>
-5.4800

> <Gold.Chemscore.Hbond>
3.9291

> <Gold.Chemscore.Metal>
0.0000

> <Gold.Chemscore.Lipo>
35.8320

> <Gold.Chemscore.Internal_Hbond>
0.0000

> <Gold.Chemscore.DEClash>
0.0662

> <Gold.Chemscore.DEInternal>
0.5284

> <Gold.Chemscore.Rot>
2.4497

> <Gold.Chemscore.Internal.Correction>
   9.000000E+99

> <Gold.Chemscore.Hbonds>
donor molecule, donor type, donor heavy atom, donor atom, acceptor molecule, acceptor atom, score
      L1  H     2    33       P1  7948  0.35
      L1  H     6    26       P1  7948  0.49
      L1  H    14    31       P1  8028  0.28
      P1  H  7989  7998       L1    15  0.10
      P1  H 10752 10765       L1     8  0.15

> <Gold.Chemscore.Hbond.Weighted>
-13.1231

> <Gold.Chemscore.Metal.Weighted>
-0.0000

> <Gold.Chemscore.Lipo.Weighted>
-4.1923

> <Gold.Chemscore.Internal_Hbond.Weighted>
0.0000

> <Gold.Chemscore.DEClash.Weighted>
0.0662

> <Gold.Chemscore.DEInternal.Weighted>
0.5284

> <Gold.Chemscore.Rot.Weighted>
6.2713

> <Gold.Chemscore.Internal.Correction.Weighted>
   9.000000E+99

> <Gold.Protein.RotatedTorsions>
[ 6907 6896 6895 6894 ] final   93.11 input  -60.11 | X-H torsion
[ 7974 7965 7964 7962 ] final  157.85 input  175.53 | X-H torsion
[ 8008 7997 7996 7995 ] final   36.81 input   59.86 | X-H torsion
[ 10167 10162 10161 10158 ] final   30.18 input  -65.29 | X-H torsion
[ 10718 10713 10712 10709 ] final  -80.92 input   66.30 | X-H torsion
[ 10763 10752 10751 10750 ] final -143.36 input  -60.55 | X-H torsion
[ 11005 11000 10999 10996 ] final  -72.10 input  -57.11 | X-H torsion

> <Gold.Protein.ActiveResidues>
 VAL166  LYS551  ARG553  GLY616  TRP617  ASP618  TYR619  PRO620  LYS621  CYS622 
 ASP623  PHE694  ASN695  SER759  ASP760  ASP761  ALA762  ILE779  LEU786  VAL792 
 PHE793  MET794  SER795  GLU796  ALA797  LYS798  CYS799  TRP800  GLU811  SER814 

> <Gold.Protein.RotatedAtoms>
  152.5453  134.1398  159.8473 H   0  0  0  0  0  0  0  0  0  0  0  0  # atno 6907 bound_to 6896
  151.1435  133.4948  159.2604 H   0  0  0  0  0  0  0  0  0  0  0  0  # atno 6908 bound_to 6896
  151.1548  135.0255  159.8739 H   0  0  0  0  0  0  0  0  0  0  0  0  # atno 6909 bound_to 6896
  144.7879  139.7398  143.6233 H   0  0  0  0  0  0  0  0  0  0  0  0  # atno 7974 bound_to 7965
  155.1936  140.3310  155.4354 H   0  0  0  0  0  0  0  0  0  0  0  0  # atno 8008 bound_to 7997
  156.2433  140.1906  156.6977 H   0  0  0  0  0  0  0  0  0  0  0  0  # atno 8009 bound_to 7997
  154.6189  140.0598  156.9576 H   0  0  0  0  0  0  0  0  0  0  0  0  # atno 8010 bound_to 7997
  140.4700  144.0776  150.6235 H   0  0  0  0  0  0  0  0  0  0  0  0  # atno 10167 bound_to 10162
  156.0060  130.4588  150.3874 H   0  0  0  0  0  0  0  0  0  0  0  0  # atno 10718 bound_to 10713
  154.8473  135.3470  154.6175 H   0  0  0  0  0  0  0  0  0  0  0  0  # atno 10763 bound_to 10752
  153.6784  135.6981  153.5130 H   0  0  0  0  0  0  0  0  0  0  0  0  # atno 10764 bound_to 10752
  153.2687  135.4300  155.0923 H   0  0  0  0  0  0  0  0  0  0  0  0  # atno 10765 bound_to 10752
  141.1603  133.6837  156.7008 H   0  0  0  0  0  0  0  0  0  0  0  0  # atno 11005 bound_to 11000
  146.2119  139.5481  142.9675 LP  0  0  0  0  0  0  0  0  0  0  0  0  # atno 17320 bound_to 7965
  145.5872  141.0374  143.2090 LP  0  0  0  0  0  0  0  0  0  0  0  0  # atno 17321 bound_to 7965
  140.3988  143.2714  151.9972 LP  0  0  0  0  0  0  0  0  0  0  0  0  # atno 17342 bound_to 10162
  139.4817  144.6015  151.7597 LP  0  0  0  0  0  0  0  0  0  0  0  0  # atno 17343 bound_to 10162
  157.1951  131.0424  151.2680 LP  0  0  0  0  0  0  0  0  0  0  0  0  # atno 17370 bound_to 10713
  157.4026  130.7342  149.6779 LP  0  0  0  0  0  0  0  0  0  0  0  0  # atno 17371 bound_to 10713
  140.2960  134.8202  157.4058 LP  0  0  0  0  0  0  0  0  0  0  0  0  # atno 17394 bound_to 11000
  140.1304  134.5103  155.8110 LP  0  0  0  0  0  0  0  0  0  0  0  0  # atno 17395 bound_to 11000

$$$$
