AV-unprocessed.smi:1158|AV-procd|sdf|4912|dock10
  -GOLD-   22720 3493D 1   1.00000     0.00000
 Structure written by MMmdl.
 43 44  0  0  0  0  0  0  0  0  2 V2000
  147.0375  132.6916  152.4930 C   0  0  0  0  0  0  0  0  0  0  0  0
  147.9548  133.6032  153.0878 O   0  0  0  0  0  0  0  0  0  0  0  0
  148.6390  133.2062  154.2211 C   0  0  0  0  0  0  0  0  0  0  0  0
  148.5889  131.8983  154.5792 N   0  0  0  0  0  0  0  0  0  0  0  0
  149.2513  131.5095  155.6878 C   0  0  0  0  0  0  0  0  0  0  0  0
  149.9859  132.3957  156.4962 C   0  0  0  0  0  0  0  0  0  0  0  0
  150.0399  133.7525  156.1270 C   0  0  0  0  0  0  0  0  0  0  0  0
  149.3628  134.1742  154.9566 C   0  0  0  0  0  0  0  0  0  0  0  0
  149.3375  135.5211  154.4980 N   0  0  0  0  0  0  0  0  0  0  0  0
  149.5516  136.6516  155.1923 C   0  0  0  0  0  0  0  0  0  0  0  0
  149.8068  136.7154  156.3944 O   0  0  0  0  0  0  0  0  0  0  0  0
  149.4678  137.7294  154.3989 N   0  0  0  0  0  0  0  0  0  0  0  0
  149.6737  139.1088  154.8316 C   0  0  2  0  0  0  0  0  0  0  0  0
  151.0609  139.2839  155.4735 C   0  0  0  0  0  0  0  0  0  0  0  0
  151.2435  140.7113  156.0146 C   0  0  0  0  0  0  0  0  0  0  0  0
  150.1777  141.0637  156.9895 N   0  3  1  0  0  0  0  0  0  0  0  0
  150.4173  142.3902  157.6166 C   0  0  0  0  0  0  0  0  0  0  0  0
  151.8561  142.5680  158.1322 C   0  0  0  0  0  0  0  0  0  0  0  0
  152.0727  143.8543  158.4033 F   0  0  0  0  0  0  0  0  0  0  0  0
  152.0807  141.8607  159.2386 F   0  0  0  0  0  0  0  0  0  0  0  0
  148.8247  140.9285  156.3858 C   0  0  0  0  0  0  0  0  0  0  0  0
  148.5904  139.5073  155.8453 C   0  0  0  0  0  0  0  0  0  0  0  0
  146.5806  133.1588  151.6208 H   0  0  0  0  0  0  0  0  0  0  0  0
  146.2357  132.4241  153.1828 H   0  0  0  0  0  0  0  0  0  0  0  0
  147.5388  131.7831  152.1565 H   0  0  0  0  0  0  0  0  0  0  0  0
  149.1889  130.4616  155.9414 H   0  0  0  0  0  0  0  0  0  0  0  0
  150.4934  132.0436  157.3821 H   0  0  0  0  0  0  0  0  0  0  0  0
  150.5852  134.4384  156.7556 H   0  0  0  0  0  0  0  0  0  0  0  0
  149.2112  135.6297  153.5022 H   0  0  0  0  0  0  0  0  0  0  0  0
  149.2581  137.5832  153.4221 H   0  0  0  0  0  0  0  0  0  0  0  0
  149.5932  139.7702  153.9665 H   0  0  0  0  0  0  0  0  0  0  0  0
  151.1882  138.5678  156.2869 H   0  0  0  0  0  0  0  0  0  0  0  0
  151.8444  139.0675  154.7462 H   0  0  0  0  0  0  0  0  0  0  0  0
  152.2214  140.7854  156.4918 H   0  0  0  0  0  0  0  0  0  0  0  0
  151.2375  141.4289  155.1924 H   0  0  0  0  0  0  0  0  0  0  0  0
  150.2505  143.1608  156.8624 H   0  0  0  0  0  0  0  0  0  0  0  0
  149.6900  142.5788  158.4077 H   0  0  0  0  0  0  0  0  0  0  0  0
  152.5957  142.2715  157.3875 H   0  0  0  0  0  0  0  0  0  0  0  0
  148.0547  141.1439  157.1240 H   0  0  0  0  0  0  0  0  0  0  0  0
  148.7077  141.6591  155.5838 H   0  0  0  0  0  0  0  0  0  0  0  0
  147.6050  139.4490  155.3810 H   0  0  0  0  0  0  0  0  0  0  0  0
  148.5822  138.8013  156.6772 H   0  0  0  0  0  0  0  0  0  0  0  0
  150.2398  140.3812  157.7314 H   0  0  0  0  0  0  0  0  0  0  0  0
  1  2  1  0  0  0  0
  1 23  1  0  0  0  0
  1 24  1  0  0  0  0
  1 25  1  0  0  0  0
  2  3  1  0  0  0  0
  3  8  1  0  0  0  0
  3  4  2  0  0  0  0
  4  5  1  0  0  0  0
  5  6  2  0  0  0  0
  5 26  1  0  0  0  0
  6  7  1  0  0  0  0
  6 27  1  0  0  0  0
  7  8  2  0  0  0  0
  7 28  1  0  0  0  0
  8  9  1  0  0  0  0
  9 10  1  0  0  0  0
  9 29  1  0  0  0  0
 10 11  2  0  0  0  0
 10 12  1  0  0  0  0
 12 13  1  0  0  0  0
 12 30  1  0  0  0  0
 13 22  1  0  0  0  0
 13 14  1  0  0  0  0
 13 31  1  0  0  0  0
 14 15  1  0  0  0  0
 14 32  1  0  0  0  0
 14 33  1  0  0  0  0
 15 16  1  0  0  0  0
 15 34  1  0  0  0  0
 15 35  1  0  0  0  0
 16 17  1  0  0  0  0
 16 21  1  0  0  0  0
 16 43  1  0  0  0  0
 17 18  1  0  0  0  0
 17 36  1  0  0  0  0
 17 37  1  0  0  0  0
 18 19  1  0  0  0  0
 18 20  1  0  0  0  0
 18 38  1  0  0  0  0
 21 22  1  0  0  0  0
 21 39  1  0  0  0  0
 21 40  1  0  0  0  0
 22 41  1  0  0  0  0
 22 42  1  0  0  0  0
M  CHG  1  16   1
M  END
> <s_m_source_file>
AV-unprocessed.smi

> <i_m_source_file_index>
1158

> <i_lp_mmshare_version>
43012

> <i_f3d_flags>
0

> <s_epik_input>
W0NIM11PYzFuW2NIXVtjSF1bY0hdYzFbTkhdQyg9TylbTkhdW0NIXTJbQ0gyXVtDSDJdTihbQ0gyXVtDSF0oRilGKVtDSDJdW0NIMl0y

> <s_epik_cmdline>
J2VwaWtfcHl0aG9uJywgJy1waCcsICc3LjAnLCAnLXRuJywgJzgnLCAnLW1hJywgJzIwMCcsICctbWV0YWxfYmluZGluZycsICctaW1hZScsICc8aW5maWxlLm1hZT4nLCAnLW9tYWUnLCAnPG91dGZpbGUubWFlPic=

> <r_lp_tautomer_probability>
1

> <r_epik_Ionization_Penalty>
0.802109

> <r_epik_Ionization_Penalty_Charging>
0.802031

> <r_epik_Ionization_Penalty_Neutral>
7.83352e-05

> <r_epik_State_Penalty>
0.833408

> <r_epik_Charging_Adjusted_Penalty>
1.63544

> <i_epik_Tot_Q>
1

> <i_epik_Tot_abs_Q>
1

> <r_epik_Metal_State_Penalty>
0.833416

> <b_epik_Metal_Only>
0

> <s_lp_Force_Field>
OPLS_2005

> <r_lp_Energy>
21.1994

> <b_lp_Chiralities_Consistent>
1

> <s_lp_Variant>
AV-unprocessed.smi:1158-2

> <Gold.Version>
5.8.1

> <Gold.Id.Protein>
6NUR|6NUR_protein|mol2

> <Gold.PLP.Fitness>
41.0172

> <Gold.PLP.PLP>
-35.9180

> <Gold.PLP.part.hbond>
-2.0111

> <Gold.PLP.part.metal>
0.0000

> <Gold.PLP.part.buried>
-4.8714

> <Gold.PLP.part.nonpolar>
-29.7683

> <Gold.PLP.part.repulsive>
0.8760

> <Gold.PLP.ligand.clash>
0.0000

> <Gold.PLP.ligand.torsion>
0.3757

> <Gold.PLP.Chemscore.Hbond>
1.9357

> <Gold.PLP.Chemscore.CHOScore>
0.0000

> <Gold.PLP.Chemscore.Metal>
0.0000

> <Gold.Chemscore.Hbonds>
donor molecule, donor type, donor heavy atom, donor atom, acceptor molecule, acceptor atom, score
      L1  H     9    29       P1  7948  1.00
      L1  H    12    30       P1  7948  0.89

> <Gold.PLP.Chemscore.Internal.Correction>
0.0432

> <Gold.Rescore>
     Score         DG    S(hbond)    S(metal)    S(lipo)     H(rot)  DE(clash)    DE(int)     intcor
     12.17     -14.63       1.66        0.00      65.24       1.58       0.09       2.37       ----

> <Gold.Chemscore.Fitness>
12.1704

> <Gold.Chemscore.DG>
-14.6306

> <Gold.Chemscore.ZeroCoef>
-5.4800

> <Gold.Chemscore.Hbond>
1.6632

> <Gold.Chemscore.Metal>
0.0000

> <Gold.Chemscore.Lipo>
65.2360

> <Gold.Chemscore.Internal_Hbond>
0.0000

> <Gold.Chemscore.DEClash>
0.0880

> <Gold.Chemscore.DEInternal>
2.3723

> <Gold.Chemscore.Rot>
1.5770

> <Gold.Chemscore.Internal.Correction>
   9.000000E+99

> <Gold.Chemscore.Hbonds>
donor molecule, donor type, donor heavy atom, donor atom, acceptor molecule, acceptor atom, score
      L1  H     9    29       P1  7948  0.55
      L1  H    12    30       P1  7948  0.81

> <Gold.Chemscore.Hbond.Weighted>
-5.5551

> <Gold.Chemscore.Metal.Weighted>
-0.0000

> <Gold.Chemscore.Lipo.Weighted>
-7.6326

> <Gold.Chemscore.Internal_Hbond.Weighted>
0.0000

> <Gold.Chemscore.DEClash.Weighted>
0.0880

> <Gold.Chemscore.DEInternal.Weighted>
2.3723

> <Gold.Chemscore.Rot.Weighted>
4.0371

> <Gold.Chemscore.Internal.Correction.Weighted>
   9.000000E+99

> <Gold.Protein.RotatedTorsions>
[ 6907 6896 6895 6894 ] final  -15.72 input  -60.11 | X-H torsion
[ 7974 7965 7964 7962 ] final  102.65 input  175.53 | X-H torsion
[ 8008 7997 7996 7995 ] final -119.56 input   59.86 | X-H torsion
[ 10167 10162 10161 10158 ] final  166.29 input  -65.29 | X-H torsion
[ 10718 10713 10712 10709 ] final  108.84 input   66.30 | X-H torsion
[ 10763 10752 10751 10750 ] final  -33.22 input  -60.55 | X-H torsion
[ 11005 11000 10999 10996 ] final  -73.99 input  -57.11 | X-H torsion

> <Gold.Protein.ActiveResidues>
 VAL166  LYS551  ARG553  GLY616  TRP617  ASP618  TYR619  PRO620  LYS621  CYS622 
 ASP623  PHE694  ASN695  SER759  ASP760  ASP761  ALA762  ILE779  LEU786  VAL792 
 PHE793  MET794  SER795  GLU796  ALA797  LYS798  CYS799  TRP800  GLU811  SER814 

> <Gold.Protein.RotatedAtoms>
  151.3197  135.0815  159.9300 H   0  0  0  0  0  0  0  0  0  0  0  0  # atno 6907 bound_to 6896
  152.5259  133.9652  159.7746 H   0  0  0  0  0  0  0  0  0  0  0  0  # atno 6908 bound_to 6896
  150.9970  133.6041  159.2730 H   0  0  0  0  0  0  0  0  0  0  0  0  # atno 6909 bound_to 6896
  145.3563  139.2428  143.3531 H   0  0  0  0  0  0  0  0  0  0  0  0  # atno 7974 bound_to 7965
  155.1177  140.0398  157.2741 H   0  0  0  0  0  0  0  0  0  0  0  0  # atno 8008 bound_to 7997
  154.6637  140.2596  155.7055 H   0  0  0  0  0  0  0  0  0  0  0  0  # atno 8009 bound_to 7997
  156.2630  140.2812  156.1119 H   0  0  0  0  0  0  0  0  0  0  0  0  # atno 8010 bound_to 7997
  139.4922  144.4042  151.9374 H   0  0  0  0  0  0  0  0  0  0  0  0  # atno 10167 bound_to 10162
  157.6568  131.0902  150.6364 H   0  0  0  0  0  0  0  0  0  0  0  0  # atno 10718 bound_to 10713
  153.8266  135.6869  153.4820 H   0  0  0  0  0  0  0  0  0  0  0  0  # atno 10763 bound_to 10752
  153.1536  135.4608  154.9670 H   0  0  0  0  0  0  0  0  0  0  0  0  # atno 10764 bound_to 10752
  154.7904  135.3300  154.7734 H   0  0  0  0  0  0  0  0  0  0  0  0  # atno 10765 bound_to 10752
  141.1630  133.6896  156.7296 H   0  0  0  0  0  0  0  0  0  0  0  0  # atno 11005 bound_to 11000
  146.2946  140.4189  142.8726 LP  0  0  0  0  0  0  0  0  0  0  0  0  # atno 17320 bound_to 7965
  144.8680  140.7232  143.6065 LP  0  0  0  0  0  0  0  0  0  0  0  0  # atno 17321 bound_to 7965
  140.3482  144.3121  150.5954 LP  0  0  0  0  0  0  0  0  0  0  0  0  # atno 17342 bound_to 10162
  140.5508  143.2207  151.7931 LP  0  0  0  0  0  0  0  0  0  0  0  0  # atno 17343 bound_to 10162
  156.6670  130.4528  149.5669 LP  0  0  0  0  0  0  0  0  0  0  0  0  # atno 17370 bound_to 10713
  156.2025  130.6629  151.1183 LP  0  0  0  0  0  0  0  0  0  0  0  0  # atno 17371 bound_to 10713
  140.2755  134.8358  157.3886 LP  0  0  0  0  0  0  0  0  0  0  0  0  # atno 17394 bound_to 11000
  140.1481  134.4885  155.7981 LP  0  0  0  0  0  0  0  0  0  0  0  0  # atno 17395 bound_to 11000

$$$$
