AV-unprocessed.smi:2013|AV-procd|sdf|8158|dock9
  -GOLD-   2272010403D 1   1.00000     0.00000
 Structure written by MMmdl.
 51 52  0  0  0  0  0  0  0  0  2 V2000
  143.2725  134.6218  152.4450 C   0  0  0  0  0  0  0  0  0  0  0  0
  144.5837  135.2331  151.9224 C   0  0  0  0  0  0  0  0  0  0  0  0
  144.5317  135.4167  150.3957 C   0  0  0  0  0  0  0  0  0  0  0  0
  145.8750  134.4909  152.3733 C   0  0  1  0  0  0  0  0  0  0  0  0
  146.4738  134.9876  153.7175 C   0  0  0  0  0  0  0  0  0  0  0  0
  146.8609  136.3929  153.6809 N   0  0  0  0  0  0  0  0  0  0  0  0
  147.3899  137.0783  154.7056 C   0  0  0  0  0  0  0  0  0  0  0  0
  147.6117  136.5790  155.8082 O   0  0  0  0  0  0  0  0  0  0  0  0
  147.7184  138.5532  154.4516 C   0  0  0  0  0  0  0  0  0  0  0  0
  149.1296  138.8587  154.7196 N   0  0  0  0  0  0  0  0  0  0  0  0
  150.1043  137.9751  154.2922 C   0  0  0  0  0  0  0  0  0  0  0  0
  151.4259  138.1655  154.4965 C   0  0  0  0  0  0  0  0  0  0  0  0
  151.9093  139.3464  155.1998 C   0  0  0  0  0  0  0  0  0  0  0  0
  153.1022  139.5690  155.4119 O   0  0  0  0  0  0  0  0  0  0  0  0
  150.8955  140.2332  155.6283 N   0  0  0  0  0  0  0  0  0  0  0  0
  151.3371  141.4209  156.3299 C   0  0  0  0  0  0  0  0  0  0  0  0
  149.5125  140.0312  155.4092 C   0  0  0  0  0  0  0  0  0  0  0  0
  148.6579  140.8302  155.7992 O   0  0  0  0  0  0  0  0  0  0  0  0
  145.7065  133.0052  152.3062 N   0  3  0  0  0  0  0  0  0  0  0  0
  145.0700  132.5380  151.0504 C   0  0  0  0  0  0  0  0  0  0  0  0
  144.7655  131.0319  151.1341 C   0  0  0  0  0  0  0  0  0  0  0  0
  145.9562  130.3093  151.4235 O   0  0  0  0  0  0  0  0  0  0  0  0
  146.5282  130.6970  152.6667 C   0  0  0  0  0  0  0  0  0  0  0  0
  146.9096  132.1842  152.6054 C   0  0  0  0  0  0  0  0  0  0  0  0
  143.0703  133.6518  151.9916 H   0  0  0  0  0  0  0  0  0  0  0  0
  142.4266  135.2677  152.2076 H   0  0  0  0  0  0  0  0  0  0  0  0
  143.2862  134.4975  153.5273 H   0  0  0  0  0  0  0  0  0  0  0  0
  144.6333  136.2418  152.3336 H   0  0  0  0  0  0  0  0  0  0  0  0
  144.4326  134.4625  149.8778 H   0  0  0  0  0  0  0  0  0  0  0  0
  145.4331  135.9055  150.0249 H   0  0  0  0  0  0  0  0  0  0  0  0
  143.6831  136.0371  150.1057 H   0  0  0  0  0  0  0  0  0  0  0  0
  146.6137  134.7523  151.6139 H   0  0  0  0  0  0  0  0  0  0  0  0
  145.7576  134.8813  154.5315 H   0  0  0  0  0  0  0  0  0  0  0  0
  147.3406  134.3837  153.9918 H   0  0  0  0  0  0  0  0  0  0  0  0
  146.7092  136.8867  152.8123 H   0  0  0  0  0  0  0  0  0  0  0  0
  147.4842  138.7949  153.4136 H   0  0  0  0  0  0  0  0  0  0  0  0
  147.0549  139.1799  155.0498 H   0  0  0  0  0  0  0  0  0  0  0  0
  149.7938  137.0828  153.7681 H   0  0  0  0  0  0  0  0  0  0  0  0
  152.1345  137.4342  154.1358 H   0  0  0  0  0  0  0  0  0  0  0  0
  150.4937  142.0234  156.6650 H   0  0  0  0  0  0  0  0  0  0  0  0
  151.9523  141.9944  155.6345 H   0  0  0  0  0  0  0  0  0  0  0  0
  151.9165  141.0918  157.1946 H   0  0  0  0  0  0  0  0  0  0  0  0
  144.1397  133.0802  150.8757 H   0  0  0  0  0  0  0  0  0  0  0  0
  145.7282  132.7456  150.2053 H   0  0  0  0  0  0  0  0  0  0  0  0
  144.0124  130.8314  151.8977 H   0  0  0  0  0  0  0  0  0  0  0  0
  144.3597  130.6774  150.1863 H   0  0  0  0  0  0  0  0  0  0  0  0
  145.8298  130.5051  153.4830 H   0  0  0  0  0  0  0  0  0  0  0  0
  147.4137  130.0886  152.8529 H   0  0  0  0  0  0  0  0  0  0  0  0
  147.6648  132.3229  151.8306 H   0  0  0  0  0  0  0  0  0  0  0  0
  147.3619  132.4842  153.5490 H   0  0  0  0  0  0  0  0  0  0  0  0
  145.0372  132.7903  153.0314 H   0  0  0  0  0  0  0  0  0  0  0  0
  1  2  1  0  0  0  0
  1 25  1  0  0  0  0
  1 26  1  0  0  0  0
  1 27  1  0  0  0  0
  2  3  1  0  0  0  0
  2  4  1  0  0  0  0
  2 28  1  0  0  0  0
  3 29  1  0  0  0  0
  3 30  1  0  0  0  0
  3 31  1  0  0  0  0
  4  5  1  0  0  0  0
  4 19  1  0  0  0  0
  4 32  1  0  0  0  0
  5  6  1  0  0  0  0
  5 33  1  0  0  0  0
  5 34  1  0  0  0  0
  6  7  1  0  0  0  0
  6 35  1  0  0  0  0
  7  8  2  0  0  0  0
  7  9  1  0  0  0  0
  9 10  1  0  0  0  0
  9 36  1  0  0  0  0
  9 37  1  0  0  0  0
 10 17  1  0  0  0  0
 10 11  1  0  0  0  0
 11 12  2  0  0  0  0
 11 38  1  0  0  0  0
 12 13  1  0  0  0  0
 12 39  1  0  0  0  0
 13 14  2  0  0  0  0
 13 15  1  0  0  0  0
 15 16  1  0  0  0  0
 15 17  1  0  0  0  0
 16 40  1  0  0  0  0
 16 41  1  0  0  0  0
 16 42  1  0  0  0  0
 17 18  2  0  0  0  0
 19 24  1  0  0  0  0
 19 20  1  0  0  0  0
 19 51  1  0  0  0  0
 20 21  1  0  0  0  0
 20 43  1  0  0  0  0
 20 44  1  0  0  0  0
 21 22  1  0  0  0  0
 21 45  1  0  0  0  0
 21 46  1  0  0  0  0
 22 23  1  0  0  0  0
 23 24  1  0  0  0  0
 23 47  1  0  0  0  0
 23 48  1  0  0  0  0
 24 49  1  0  0  0  0
 24 50  1  0  0  0  0
M  CHG  1  19   1
M  END
> <s_m_source_file>
AV-unprocessed.smi

> <i_m_source_file_index>
2013

> <i_lp_mmshare_version>
43012

> <i_f3d_flags>
0

> <s_epik_input>
W0NIMl0xW0NIMl1PW0NIMl1bQ0gyXU4xW0NASF0oW0NIXShbQ0gzXSlbQ0gzXSlbQ0gyXVtOSF1DKD1PKVtDSDJdbjJbY0hdW2NIXWMoPU8pbihbQ0gzXSljMj1P

> <s_epik_cmdline>
J2VwaWtfcHl0aG9uJywgJy1waCcsICc3LjAnLCAnLXRuJywgJzgnLCAnLW1hJywgJzIwMCcsICctbWV0YWxfYmluZGluZycsICctaW1hZScsICc8aW5maWxlLm1hZT4nLCAnLW9tYWUnLCAnPG91dGZpbGUubWFlPic=

> <r_lp_tautomer_probability>
1

> <r_epik_Ionization_Penalty>
0.370738

> <r_epik_Ionization_Penalty_Charging>
0.370738

> <r_epik_Ionization_Penalty_Neutral>
8.1827e-08

> <r_epik_State_Penalty>
0.368162

> <r_epik_Charging_Adjusted_Penalty>
0.7389

> <i_epik_Tot_Q>
1

> <i_epik_Tot_abs_Q>
1

> <r_epik_Metal_State_Penalty>
0.368194

> <b_epik_Metal_Only>
0

> <s_lp_Force_Field>
OPLS_2005

> <r_lp_Energy>
35.5949

> <b_lp_Chiralities_Consistent>
1

> <s_lp_Variant>
AV-unprocessed.smi:2013-2

> <Gold.Version>
5.8.1

> <Gold.Id.Protein>
6NUR|6NUR_protein|mol2

> <Gold.PLP.Fitness>
42.0085

> <Gold.PLP.PLP>
-37.5548

> <Gold.PLP.part.hbond>
-2.0000

> <Gold.PLP.part.metal>
0.0000

> <Gold.PLP.part.buried>
-4.3177

> <Gold.PLP.part.nonpolar>
-31.3241

> <Gold.PLP.part.repulsive>
0.2322

> <Gold.PLP.ligand.clash>
0.0000

> <Gold.PLP.ligand.torsion>
0.9936

> <Gold.PLP.Chemscore.Hbond>
1.0000

> <Gold.PLP.Chemscore.CHOScore>
1.0000

> <Gold.PLP.Chemscore.Metal>
0.0000

> <Gold.Chemscore.Hbonds>
donor molecule, donor type, donor heavy atom, donor atom, acceptor molecule, acceptor atom, score
      P1  H  7997  8009       L1    14  1.00
      L1  C    11    38       P1  7948  1.00

> <Gold.PLP.Chemscore.Internal.Correction>
0.4409

> <Gold.Rescore>
     Score         DG    S(hbond)    S(metal)    S(lipo)     H(rot)  DE(clash)    DE(int)     intcor
     10.69     -11.86       1.00        0.00      75.98       2.28       0.05       1.12       ----

> <Gold.Chemscore.Fitness>
10.6867

> <Gold.Chemscore.DG>
-11.8560

> <Gold.Chemscore.ZeroCoef>
-5.4800

> <Gold.Chemscore.Hbond>
0.9961

> <Gold.Chemscore.Metal>
0.0000

> <Gold.Chemscore.Lipo>
75.9799

> <Gold.Chemscore.Internal_Hbond>
0.0000

> <Gold.Chemscore.DEClash>
0.0526

> <Gold.Chemscore.DEInternal>
1.1168

> <Gold.Chemscore.Rot>
2.2814

> <Gold.Chemscore.Internal.Correction>
   9.000000E+99

> <Gold.Chemscore.Hbonds>
donor molecule, donor type, donor heavy atom, donor atom, acceptor molecule, acceptor atom, score
      P1  H  7997  8009       L1    14  0.95

> <Gold.Chemscore.Hbond.Weighted>
-3.3268

> <Gold.Chemscore.Metal.Weighted>
-0.0000

> <Gold.Chemscore.Lipo.Weighted>
-8.8896

> <Gold.Chemscore.Internal_Hbond.Weighted>
0.0000

> <Gold.Chemscore.DEClash.Weighted>
0.0526

> <Gold.Chemscore.DEInternal.Weighted>
1.1168

> <Gold.Chemscore.Rot.Weighted>
5.8404

> <Gold.Chemscore.Internal.Correction.Weighted>
   9.000000E+99

> <Gold.Protein.RotatedTorsions>
[ 6907 6896 6895 6894 ] final -101.88 input  -60.11 | X-H torsion
[ 7974 7965 7964 7962 ] final  -26.26 input  175.53 | X-H torsion
[ 8008 7997 7996 7995 ] final -137.51 input   59.86 | X-H torsion
[ 10167 10162 10161 10158 ] final   21.51 input  -65.29 | X-H torsion
[ 10718 10713 10712 10709 ] final  167.28 input   66.30 | X-H torsion
[ 10763 10752 10751 10750 ] final  -95.71 input  -60.55 | X-H torsion
[ 11005 11000 10999 10996 ] final    4.48 input  -57.11 | X-H torsion

> <Gold.Protein.ActiveResidues>
 VAL166  LYS551  ARG553  GLY616  TRP617  ASP618  TYR619  PRO620  LYS621  CYS622 
 ASP623  PHE694  ASN695  SER759  ASP760  ASP761  ALA762  ILE779  LEU786  VAL792 
 PHE793  MET794  SER795  GLU796  ALA797  LYS798  CYS799  TRP800  GLU811  SER814 

> <Gold.Protein.RotatedAtoms>
  150.7173  134.0666  159.3849 H   0  0  0  0  0  0  0  0  0  0  0  0  # atno 6907 bound_to 6896
  151.8647  135.0509  160.0482 H   0  0  0  0  0  0  0  0  0  0  0  0  # atno 6908 bound_to 6896
  152.2689  133.5329  159.5464 H   0  0  0  0  0  0  0  0  0  0  0  0  # atno 6909 bound_to 6896
  146.1437  140.4996  142.8641 H   0  0  0  0  0  0  0  0  0  0  0  0  # atno 7974 bound_to 7965
  155.4130  140.0513  157.3030 H   0  0  0  0  0  0  0  0  0  0  0  0  # atno 8008 bound_to 7997
  154.4937  140.2130  155.9452 H   0  0  0  0  0  0  0  0  0  0  0  0  # atno 8009 bound_to 7997
  156.1377  140.3160  155.8451 H   0  0  0  0  0  0  0  0  0  0  0  0  # atno 8010 bound_to 7997
  140.5421  143.9659  150.6525 H   0  0  0  0  0  0  0  0  0  0  0  0  # atno 10167 bound_to 10162
  157.0538  131.0321  151.2671 H   0  0  0  0  0  0  0  0  0  0  0  0  # atno 10718 bound_to 10713
  154.7173  135.5110  153.8757 H   0  0  0  0  0  0  0  0  0  0  0  0  # atno 10763 bound_to 10752
  153.0831  135.6637  154.0012 H   0  0  0  0  0  0  0  0  0  0  0  0  # atno 10764 bound_to 10752
  153.9842  135.3026  155.3397 H   0  0  0  0  0  0  0  0  0  0  0  0  # atno 10765 bound_to 10752
  140.5814  134.0009  155.8049 H   0  0  0  0  0  0  0  0  0  0  0  0  # atno 11005 bound_to 11000
  144.7821  140.5862  143.6598 LP  0  0  0  0  0  0  0  0  0  0  0  0  # atno 17320 bound_to 7965
  145.4988  139.1484  143.3669 LP  0  0  0  0  0  0  0  0  0  0  0  0  # atno 17321 bound_to 7965
  140.3062  143.3228  152.0923 LP  0  0  0  0  0  0  0  0  0  0  0  0  # atno 17342 bound_to 10162
  139.4993  144.6665  151.6344 LP  0  0  0  0  0  0  0  0  0  0  0  0  # atno 17343 bound_to 10162
  157.5009  130.7879  149.7603 LP  0  0  0  0  0  0  0  0  0  0  0  0  # atno 17370 bound_to 10713
  155.9999  130.3886  150.2646 LP  0  0  0  0  0  0  0  0  0  0  0  0  # atno 17371 bound_to 10713
  141.0994  133.9793  157.3105 LP  0  0  0  0  0  0  0  0  0  0  0  0  # atno 17394 bound_to 11000
  139.9315  135.0199  156.8417 LP  0  0  0  0  0  0  0  0  0  0  0  0  # atno 17395 bound_to 11000

$$$$
