AV-unprocessed.smi:876|AV-procd|sdf|4023|dock8
  -GOLD-   22720 1513D 1   1.00000     0.00000
 Structure written by MMmdl.
 40 41  0  0  0  0  0  0  0  0  1 V2000
  145.4470  131.4503  151.1269 C   0  0  0  0  0  0  0  0  0  0  0  0
  144.7121  132.5849  150.5812 N   0  0  0  0  0  0  0  0  0  0  0  0
  143.7794  132.3844  149.4768 C   0  0  0  0  0  0  0  0  0  0  0  0
  144.9238  133.8840  151.0969 C   0  0  0  0  0  0  0  0  0  0  0  0
  145.9878  134.1611  151.9908 C   0  0  0  0  0  0  0  0  0  0  0  0
  146.1584  135.4713  152.4781 C   0  0  0  0  0  0  0  0  0  0  0  0
  145.2649  136.4826  152.0563 C   0  0  0  0  0  0  0  0  0  0  0  0
  145.3159  137.8363  152.4878 N   0  0  0  0  0  0  0  0  0  0  0  0
  146.2182  138.4327  153.2859 C   0  0  0  0  0  0  0  0  0  0  0  0
  147.2138  137.8929  153.7675 O   0  0  0  0  0  0  0  0  0  0  0  0
  145.9093  139.7216  153.4861 N   0  0  0  0  0  0  0  0  0  0  0  0
  146.6881  140.6476  154.3011 C   0  0  2  0  0  0  0  0  0  0  0  0
  146.1980  140.6419  155.7233 C   0  0  0  0  0  0  0  0  0  0  0  0
  145.8848  141.8584  156.1632 C   0  0  0  0  0  0  0  0  0  0  0  0
  146.0943  142.9286  155.1224 C   0  0  2  0  0  0  0  0  0  0  0  0
  144.8467  143.8000  154.8964 C   0  0  0  0  0  0  0  0  0  0  0  0
  143.7077  142.9921  154.6834 O   0  0  0  0  0  0  0  0  0  0  0  0
  146.5167  142.1266  153.8648 C   0  0  0  0  0  0  0  0  0  0  0  0
  144.2309  136.1100  151.1756 C   0  0  0  0  0  0  0  0  0  0  0  0
  144.0640  134.8564  150.7062 N   0  0  0  0  0  0  0  0  0  0  0  0
  147.7408  140.3600  154.3016 H   0  0  0  0  0  0  0  0  0  0  0  0
  146.9257  143.5545  155.4499 H   0  0  0  0  0  0  0  0  0  0  0  0
  145.2094  131.3128  152.1823 H   0  0  0  0  0  0  0  0  0  0  0  0
  146.5218  131.6050  151.0271 H   0  0  0  0  0  0  0  0  0  0  0  0
  145.1952  130.5260  150.6067 H   0  0  0  0  0  0  0  0  0  0  0  0
  144.1054  132.9372  148.5951 H   0  0  0  0  0  0  0  0  0  0  0  0
  142.7809  132.7268  149.7513 H   0  0  0  0  0  0  0  0  0  0  0  0
  143.7065  131.3317  149.2033 H   0  0  0  0  0  0  0  0  0  0  0  0
  146.6739  133.3949  152.3185 H   0  0  0  0  0  0  0  0  0  0  0  0
  146.9600  135.6641  153.1734 H   0  0  0  0  0  0  0  0  0  0  0  0
  144.5963  138.4351  152.1101 H   0  0  0  0  0  0  0  0  0  0  0  0
  145.0773  140.0885  153.0476 H   0  0  0  0  0  0  0  0  0  0  0  0
  146.1345  139.7354  156.3072 H   0  0  0  0  0  0  0  0  0  0  0  0
  145.5281  142.0855  157.1572 H   0  0  0  0  0  0  0  0  0  0  0  0
  144.6641  144.4309  155.7667 H   0  0  0  0  0  0  0  0  0  0  0  0
  144.9838  144.4614  154.0402 H   0  0  0  0  0  0  0  0  0  0  0  0
  143.5152  142.9818  153.7582 H   0  0  0  0  0  0  0  0  0  0  0  0
  147.4420  142.5186  153.4410 H   0  0  0  0  0  0  0  0  0  0  0  0
  145.7571  142.2143  153.0861 H   0  0  0  0  0  0  0  0  0  0  0  0
  143.5133  136.8406  150.8317 H   0  0  0  0  0  0  0  0  0  0  0  0
  1  2  1  0  0  0  0
  1 23  1  0  0  0  0
  1 24  1  0  0  0  0
  1 25  1  0  0  0  0
  2  3  1  0  0  0  0
  2  4  1  0  0  0  0
  3 26  1  0  0  0  0
  3 27  1  0  0  0  0
  3 28  1  0  0  0  0
  4 20  1  0  0  0  0
  4  5  2  0  0  0  0
  5  6  1  0  0  0  0
  5 29  1  0  0  0  0
  6  7  2  0  0  0  0
  6 30  1  0  0  0  0
  7  8  1  0  0  0  0
  7 19  1  0  0  0  0
  8  9  1  0  0  0  0
  8 31  1  0  0  0  0
  9 10  2  0  0  0  0
  9 11  1  0  0  0  0
 11 12  1  0  0  0  0
 11 32  1  0  0  0  0
 12 21  1  0  0  0  0
 12 18  1  0  0  0  0
 12 13  1  0  0  0  0
 13 14  2  0  0  0  0
 13 33  1  0  0  0  0
 14 15  1  0  0  0  0
 14 34  1  0  0  0  0
 15 22  1  0  0  0  0
 15 16  1  0  0  0  0
 15 18  1  0  0  0  0
 16 17  1  0  0  0  0
 16 35  1  0  0  0  0
 16 36  1  0  0  0  0
 17 37  1  0  0  0  0
 18 38  1  0  0  0  0
 18 39  1  0  0  0  0
 19 20  2  0  0  0  0
 19 40  1  0  0  0  0
M  END
> <s_m_source_file>
AV-unprocessed.smi

> <i_m_source_file_index>
876

> <i_lp_mmshare_version>
43012

> <i_f3d_flags>
0

> <s_epik_input>
W0NIM11OKFtDSDNdKWMxW2NIXVtjSF1jKFtjSF1uMSlbTkhdQyg9TylbTkhdW0NAQEhdMltDSF09W0NIXVtDQEBIXShbQ0gyXTIpW0NIMl1bT0hd

> <s_epik_cmdline>
J2VwaWtfcHl0aG9uJywgJy1waCcsICc3LjAnLCAnLXRuJywgJzgnLCAnLW1hJywgJzIwMCcsICctbWV0YWxfYmluZGluZycsICctaW1hZScsICc8aW5maWxlLm1hZT4nLCAnLW9tYWUnLCAnPG91dGZpbGUubWFlPic=

> <r_lp_tautomer_probability>
1

> <r_epik_Ionization_Penalty>
0.617998

> <r_epik_Ionization_Penalty_Charging>
0

> <r_epik_Ionization_Penalty_Neutral>
0.617998

> <r_epik_State_Penalty>
0.632637

> <r_epik_Charging_Adjusted_Penalty>
0.632637

> <i_epik_Tot_Q>
0

> <i_epik_Tot_abs_Q>
0

> <r_epik_Metal_State_Penalty>
0.305596

> <b_epik_Metal_Only>
0

> <s_lp_Force_Field>
OPLS_2005

> <r_lp_Energy>
21.6673

> <b_lp_Chiralities_Consistent>
1

> <s_lp_Variant>
AV-unprocessed.smi:876-5

> <Gold.Version>
5.8.1

> <Gold.Id.Protein>
6NUR|6NUR_protein|mol2

> <Gold.PLP.Fitness>
40.1637

> <Gold.PLP.PLP>
-30.9053

> <Gold.PLP.part.hbond>
-3.6445

> <Gold.PLP.part.metal>
0.0000

> <Gold.PLP.part.buried>
-2.3837

> <Gold.PLP.part.nonpolar>
-26.3926

> <Gold.PLP.part.repulsive>
0.7090

> <Gold.PLP.ligand.clash>
0.0000

> <Gold.PLP.ligand.torsion>
0.4633

> <Gold.PLP.Chemscore.Hbond>
2.3978

> <Gold.PLP.Chemscore.CHOScore>
0.9921

> <Gold.PLP.Chemscore.Metal>
0.0000

> <Gold.Chemscore.Hbonds>
donor molecule, donor type, donor heavy atom, donor atom, acceptor molecule, acceptor atom, score
      L1  H     8    31       P1 10175  0.40
      L1  H    11    32       P1 10175  1.00
      L1  H    17    37       P1 10174  1.00
      L1  C    19    40       P1 10171  0.98

> <Gold.PLP.Chemscore.Internal.Correction>
0.0154

> <Gold.Rescore>
     Score         DG    S(hbond)    S(metal)    S(lipo)     H(rot)  DE(clash)    DE(int)     intcor
     13.33     -16.26       2.40        0.00      62.96       1.80       1.34       1.59       ----

> <Gold.Chemscore.Fitness>
13.3300

> <Gold.Chemscore.DG>
-16.2571

> <Gold.Chemscore.ZeroCoef>
-5.4800

> <Gold.Chemscore.Hbond>
2.3993

> <Gold.Chemscore.Metal>
0.0000

> <Gold.Chemscore.Lipo>
62.9605

> <Gold.Chemscore.Internal_Hbond>
0.0000

> <Gold.Chemscore.DEClash>
1.3378

> <Gold.Chemscore.DEInternal>
1.5893

> <Gold.Chemscore.Rot>
1.7980

> <Gold.Chemscore.Internal.Correction>
   9.000000E+99

> <Gold.Chemscore.Hbonds>
donor molecule, donor type, donor heavy atom, donor atom, acceptor molecule, acceptor atom, score
      L1  H     8    31       P1 10175  0.39
      L1  H    11    32       P1 10175  0.96
      L1  H    17    37       P1 10174  0.34

> <Gold.Chemscore.Hbond.Weighted>
-8.0135

> <Gold.Chemscore.Metal.Weighted>
-0.0000

> <Gold.Chemscore.Lipo.Weighted>
-7.3664

> <Gold.Chemscore.Internal_Hbond.Weighted>
0.0000

> <Gold.Chemscore.DEClash.Weighted>
1.3378

> <Gold.Chemscore.DEInternal.Weighted>
1.5893

> <Gold.Chemscore.Rot.Weighted>
4.6029

> <Gold.Chemscore.Internal.Correction.Weighted>
   9.000000E+99

> <Gold.Protein.RotatedTorsions>
[ 6907 6896 6895 6894 ] final  -99.88 input  -60.11 | X-H torsion
[ 7974 7965 7964 7962 ] final  -79.17 input  175.53 | X-H torsion
[ 8008 7997 7996 7995 ] final -146.17 input   59.86 | X-H torsion
[ 10167 10162 10161 10158 ] final -140.73 input  -65.29 | X-H torsion
[ 10718 10713 10712 10709 ] final -102.88 input   66.30 | X-H torsion
[ 10763 10752 10751 10750 ] final  -13.63 input  -60.55 | X-H torsion
[ 11005 11000 10999 10996 ] final  -65.29 input  -57.11 | X-H torsion

> <Gold.Protein.ActiveResidues>
 VAL166  LYS551  ARG553  GLY616  TRP617  ASP618  TYR619  PRO620  LYS621  CYS622 
 ASP623  PHE694  ASN695  SER759  ASP760  ASP761  ALA762  ILE779  LEU786  VAL792 
 PHE793  MET794  SER795  GLU796  ALA797  LYS798  CYS799  TRP800  GLU811  SER814 

> <Gold.Protein.RotatedAtoms>
  150.7096  134.0972  159.3952 H   0  0  0  0  0  0  0  0  0  0  0  0  # atno 6907 bound_to 6896
  151.8958  135.0396  160.0511 H   0  0  0  0  0  0  0  0  0  0  0  0  # atno 6908 bound_to 6896
  152.2455  133.5135  159.5331 H   0  0  0  0  0  0  0  0  0  0  0  0  # atno 6909 bound_to 6896
  145.5767  140.9456  143.1366 H   0  0  0  0  0  0  0  0  0  0  0  0  # atno 7974 bound_to 7965
  155.5550  140.0620  157.2841 H   0  0  0  0  0  0  0  0  0  0  0  0  # atno 8008 bound_to 7997
  154.4408  140.1896  156.0770 H   0  0  0  0  0  0  0  0  0  0  0  0  # atno 8009 bound_to 7997
  156.0488  140.3287  155.7331 H   0  0  0  0  0  0  0  0  0  0  0  0  # atno 8010 bound_to 7997
  139.8253  143.7519  152.2666 H   0  0  0  0  0  0  0  0  0  0  0  0  # atno 10167 bound_to 10162
  156.0245  130.5441  150.7173 H   0  0  0  0  0  0  0  0  0  0  0  0  # atno 10718 bound_to 10713
  153.5162  135.7016  153.5755 H   0  0  0  0  0  0  0  0  0  0  0  0  # atno 10763 bound_to 10752
  153.3824  135.3917  155.1866 H   0  0  0  0  0  0  0  0  0  0  0  0  # atno 10764 bound_to 10752
  154.8699  135.3838  154.4647 H   0  0  0  0  0  0  0  0  0  0  0  0  # atno 10765 bound_to 10752
  141.1450  133.6679  156.5963 H   0  0  0  0  0  0  0  0  0  0  0  0  # atno 11005 bound_to 11000
  144.7412  139.7443  143.7310 LP  0  0  0  0  0  0  0  0  0  0  0  0  # atno 17320 bound_to 7965
  146.1745  139.4910  142.9906 LP  0  0  0  0  0  0  0  0  0  0  0  0  # atno 17321 bound_to 7965
  139.7710  144.7476  151.0225 LP  0  0  0  0  0  0  0  0  0  0  0  0  # atno 17342 bound_to 10162
  140.7810  143.4645  151.0231 LP  0  0  0  0  0  0  0  0  0  0  0  0  # atno 17343 bound_to 10162
  157.4797  131.0901  151.0550 LP  0  0  0  0  0  0  0  0  0  0  0  0  # atno 17370 bound_to 10713
  157.0987  130.5973  149.5455 LP  0  0  0  0  0  0  0  0  0  0  0  0  # atno 17371 bound_to 10713
  140.3724  134.7594  157.4607 LP  0  0  0  0  0  0  0  0  0  0  0  0  # atno 17394 bound_to 11000
  140.0701  134.5875  155.8652 LP  0  0  0  0  0  0  0  0  0  0  0  0  # atno 17395 bound_to 11000

$$$$
