AV-unprocessed.smi:753|AV-procd|sdf|3599|dock8
  -GOLD-   22720 0593D 1   1.00000     0.00000
 Structure written by MMmdl.
 43 45  0  0  0  0  0  0  0  0  1 V2000
  143.9807  144.4530  155.1325 C   0  0  0  0  0  0  0  0  0  0  0  0
  145.0701  143.4300  154.8868 C   0  0  0  0  0  0  0  0  0  0  0  0
  145.8838  143.5011  153.7363 C   0  0  0  0  0  0  0  0  0  0  0  0
  146.8778  142.5202  153.5561 C   0  0  0  0  0  0  0  0  0  0  0  0
  147.0207  141.5106  154.5297 C   0  0  0  0  0  0  0  0  0  0  0  0
  148.0693  140.4267  154.3774 C   0  0  0  0  0  0  0  0  0  0  0  0
  149.4959  140.9965  154.4212 C   0  0  0  0  0  0  0  0  0  0  0  0
  149.6262  142.0317  155.4386 N   0  0  0  0  0  0  0  0  0  0  0  0
  150.1579  141.8528  156.6594 C   0  0  0  0  0  0  0  0  0  0  0  0
  150.5919  140.7737  157.0587 O   0  0  0  0  0  0  0  0  0  0  0  0
  150.1865  142.9569  157.4263 N   0  0  0  0  0  0  0  0  0  0  0  0
  150.6977  143.0899  158.7922 C   0  0  2  0  0  0  0  0  0  0  0  0
  150.2794  144.4166  159.4695 C   0  0  0  0  0  0  0  0  0  0  0  0
  151.6315  145.0585  159.8311 C   0  0  1  0  0  0  0  0  0  0  0  0
  152.3033  144.2465  160.9555 C   0  0  0  0  0  0  0  0  0  0  0  0
  152.7471  142.9602  160.2308 C   0  0  0  0  0  0  0  0  0  0  0  0
  152.2388  143.1916  158.7956 C   0  0  2  0  0  0  0  0  0  0  0  0
  152.4824  144.6883  158.6241 C   0  0  0  0  0  0  0  0  0  0  0  0
  146.1562  141.5300  155.6446 C   0  0  0  0  0  0  0  0  0  0  0  0
  145.1995  142.4659  155.8252 N   0  0  0  0  0  0  0  0  0  0  0  0
  143.9772  145.2212  154.3588 H   0  0  0  0  0  0  0  0  0  0  0  0
  144.1281  144.9421  156.0957 H   0  0  0  0  0  0  0  0  0  0  0  0
  143.0028  143.9706  155.1374 H   0  0  0  0  0  0  0  0  0  0  0  0
  145.7507  144.2856  153.0058 H   0  0  0  0  0  0  0  0  0  0  0  0
  147.5156  142.5431  152.6846 H   0  0  0  0  0  0  0  0  0  0  0  0
  147.9326  139.6875  155.1681 H   0  0  0  0  0  0  0  0  0  0  0  0
  147.9027  139.9031  153.4350 H   0  0  0  0  0  0  0  0  0  0  0  0
  150.2066  140.2032  154.6552 H   0  0  0  0  0  0  0  0  0  0  0  0
  149.7813  141.3916  153.4446 H   0  0  0  0  0  0  0  0  0  0  0  0
  149.2952  142.9543  155.1967 H   0  0  0  0  0  0  0  0  0  0  0  0
  149.8082  143.7988  157.0167 H   0  0  0  0  0  0  0  0  0  0  0  0
  150.3795  142.2264  159.3794 H   0  0  0  0  0  0  0  0  0  0  0  0
  149.7260  145.0613  158.7845 H   0  0  0  0  0  0  0  0  0  0  0  0
  149.6517  144.2526  160.3462 H   0  0  0  0  0  0  0  0  0  0  0  0
  151.5665  146.1267  160.0400 H   0  0  0  0  0  0  0  0  0  0  0  0
  153.1674  144.7777  161.3568 H   0  0  0  0  0  0  0  0  0  0  0  0
  151.6209  144.0447  161.7819 H   0  0  0  0  0  0  0  0  0  0  0  0
  153.8339  142.8683  160.2465 H   0  0  0  0  0  0  0  0  0  0  0  0
  152.3300  142.0599  160.6834 H   0  0  0  0  0  0  0  0  0  0  0  0
  152.7295  142.5551  158.0579 H   0  0  0  0  0  0  0  0  0  0  0  0
  152.0975  145.0873  157.6839 H   0  0  0  0  0  0  0  0  0  0  0  0
  153.5313  144.9715  158.7300 H   0  0  0  0  0  0  0  0  0  0  0  0
  146.2306  140.7714  156.4100 H   0  0  0  0  0  0  0  0  0  0  0  0
  1  2  1  0  0  0  0
  1 21  1  0  0  0  0
  1 22  1  0  0  0  0
  1 23  1  0  0  0  0
  2 20  1  0  0  0  0
  2  3  2  0  0  0  0
  3  4  1  0  0  0  0
  3 24  1  0  0  0  0
  4  5  2  0  0  0  0
  4 25  1  0  0  0  0
  5  6  1  0  0  0  0
  5 19  1  0  0  0  0
  6  7  1  0  0  0  0
  6 26  1  0  0  0  0
  6 27  1  0  0  0  0
  7  8  1  0  0  0  0
  7 28  1  0  0  0  0
  7 29  1  0  0  0  0
  8  9  1  0  0  0  0
  8 30  1  0  0  0  0
  9 10  2  0  0  0  0
  9 11  1  0  0  0  0
 11 12  1  0  0  0  0
 11 31  1  0  0  0  0
 12 17  1  0  0  0  0
 12 13  1  0  0  0  0
 12 32  1  0  0  0  0
 13 14  1  0  0  0  0
 13 33  1  0  0  0  0
 13 34  1  0  0  0  0
 14 18  1  0  0  0  0
 14 15  1  0  0  0  0
 14 35  1  0  0  0  0
 15 16  1  0  0  0  0
 15 36  1  0  0  0  0
 15 37  1  0  0  0  0
 16 17  1  0  0  0  0
 16 38  1  0  0  0  0
 16 39  1  0  0  0  0
 17 18  1  0  0  0  0
 17 40  1  0  0  0  0
 18 41  1  0  0  0  0
 18 42  1  0  0  0  0
 19 20  2  0  0  0  0
 19 43  1  0  0  0  0
M  END
> <s_m_source_file>
AV-unprocessed.smi

> <i_m_source_file_index>
753

> <i_lp_mmshare_version>
43012

> <i_f3d_flags>
0

> <s_epik_input>
W0NIM11jMVtjSF1bY0hdYyhbY0hdbjEpW0NIMl1bQ0gyXVtOSF1DKD1PKVtOSF1bQ0BIXShbQ0gyXVtDQEBIXTIzKVtDQEBIXShbQ0gyXTMpW0NIMl1bQ0gyXTI=

> <s_epik_cmdline>
J2VwaWtfcHl0aG9uJywgJy1waCcsICc3LjAnLCAnLXRuJywgJzgnLCAnLW1hJywgJzIwMCcsICctbWV0YWxfYmluZGluZycsICctaW1hZScsICc8aW5maWxlLm1hZT4nLCAnLW9tYWUnLCAnPG91dGZpbGUubWFlPic=

> <r_epik_Ionization_Penalty>
0.0569047

> <r_epik_Ionization_Penalty_Charging>
0

> <r_epik_Ionization_Penalty_Neutral>
0.0569047

> <r_epik_State_Penalty>
0.0490541

> <r_epik_Charging_Adjusted_Penalty>
0.0490541

> <i_epik_Tot_Q>
0

> <i_epik_Tot_abs_Q>
0

> <r_epik_Metal_State_Penalty>
0.0447357

> <b_epik_Metal_Only>
0

> <s_lp_Force_Field>
OPLS_2005

> <r_lp_Energy>
50.812

> <b_lp_Chiralities_Consistent>
1

> <s_lp_Variant>
AV-unprocessed.smi:753-1

> <Gold.Version>
5.8.1

> <Gold.Id.Protein>
6NUR|6NUR_protein|mol2

> <Gold.PLP.Fitness>
52.1664

> <Gold.PLP.PLP>
-47.0316

> <Gold.PLP.part.hbond>
-2.0000

> <Gold.PLP.part.metal>
0.0000

> <Gold.PLP.part.buried>
-7.2536

> <Gold.PLP.part.nonpolar>
-38.1183

> <Gold.PLP.part.repulsive>
0.3383

> <Gold.PLP.ligand.clash>
0.0000

> <Gold.PLP.ligand.torsion>
0.4488

> <Gold.PLP.Chemscore.Hbond>
2.0000

> <Gold.PLP.Chemscore.CHOScore>
0.0000

> <Gold.PLP.Chemscore.Metal>
0.0000

> <Gold.Chemscore.Hbonds>
donor molecule, donor type, donor heavy atom, donor atom, acceptor molecule, acceptor atom, score
      L1  H     8    30       P1  8028  1.00
      L1  H    11    31       P1  8028  1.00

> <Gold.PLP.Chemscore.Internal.Correction>
0.0323

> <Gold.Rescore>
     Score         DG    S(hbond)    S(metal)    S(lipo)     H(rot)  DE(clash)    DE(int)     intcor
     21.82     -22.45       1.91        0.00     121.77       1.43       0.03       0.60       ----

> <Gold.Chemscore.Fitness>
21.8211

> <Gold.Chemscore.DG>
-22.4505

> <Gold.Chemscore.ZeroCoef>
-5.4800

> <Gold.Chemscore.Hbond>
1.9106

> <Gold.Chemscore.Metal>
0.0000

> <Gold.Chemscore.Lipo>
121.7749

> <Gold.Chemscore.Internal_Hbond>
0.0000

> <Gold.Chemscore.DEClash>
0.0323

> <Gold.Chemscore.DEInternal>
0.5971

> <Gold.Chemscore.Rot>
1.4291

> <Gold.Chemscore.Internal.Correction>
   9.000000E+99

> <Gold.Chemscore.Hbonds>
donor molecule, donor type, donor heavy atom, donor atom, acceptor molecule, acceptor atom, score
      L1  H     8    30       P1  8028  0.96
      L1  H    11    31       P1  8028  0.91

> <Gold.Chemscore.Hbond.Weighted>
-6.3813

> <Gold.Chemscore.Metal.Weighted>
-0.0000

> <Gold.Chemscore.Lipo.Weighted>
-14.2477

> <Gold.Chemscore.Internal_Hbond.Weighted>
0.0000

> <Gold.Chemscore.DEClash.Weighted>
0.0323

> <Gold.Chemscore.DEInternal.Weighted>
0.5971

> <Gold.Chemscore.Rot.Weighted>
3.6585

> <Gold.Chemscore.Internal.Correction.Weighted>
   9.000000E+99

> <Gold.Protein.RotatedTorsions>
[ 6907 6896 6895 6894 ] final  -57.72 input  -60.11 | X-H torsion
[ 7974 7965 7964 7962 ] final -175.68 input  175.53 | X-H torsion
[ 8008 7997 7996 7995 ] final  -37.73 input   59.86 | X-H torsion
[ 10167 10162 10161 10158 ] final  158.52 input  -65.29 | X-H torsion
[ 10718 10713 10712 10709 ] final -161.00 input   66.30 | X-H torsion
[ 10763 10752 10751 10750 ] final  -42.00 input  -60.55 | X-H torsion
[ 11005 11000 10999 10996 ] final  -74.99 input  -57.11 | X-H torsion

> <Gold.Protein.ActiveResidues>
 VAL166  LYS551  ARG553  GLY616  TRP617  ASP618  TYR619  PRO620  LYS621  CYS622 
 ASP623  PHE694  ASN695  SER759  ASP760  ASP761  ALA762  ILE779  LEU786  VAL792 
 PHE793  MET794  SER795  GLU796  ALA797  LYS798  CYS799  TRP800  GLU811  SER814 

> <Gold.Protein.RotatedAtoms>
  150.8064  134.7191  159.6647 H   0  0  0  0  0  0  0  0  0  0  0  0  # atno 6907 bound_to 6896
  152.4183  134.5998  160.0006 H   0  0  0  0  0  0  0  0  0  0  0  0  # atno 6908 bound_to 6896
  151.6220  133.3301  159.3126 H   0  0  0  0  0  0  0  0  0  0  0  0  # atno 6909 bound_to 6896
  144.7127  140.1284  143.6400 H   0  0  0  0  0  0  0  0  0  0  0  0  # atno 7974 bound_to 7965
  154.4048  140.1596  156.2585 H   0  0  0  0  0  0  0  0  0  0  0  0  # atno 8008 bound_to 7997
  155.9057  140.3430  155.6038 H   0  0  0  0  0  0  0  0  0  0  0  0  # atno 8009 bound_to 7997
  155.7395  140.0790  157.2243 H   0  0  0  0  0  0  0  0  0  0  0  0  # atno 8010 bound_to 7997
  139.4827  144.4817  151.8435 H   0  0  0  0  0  0  0  0  0  0  0  0  # atno 10167 bound_to 10162
  156.5901  130.8766  151.2887 H   0  0  0  0  0  0  0  0  0  0  0  0  # atno 10718 bound_to 10713
  153.9718  135.6727  153.4747 H   0  0  0  0  0  0  0  0  0  0  0  0  # atno 10763 bound_to 10752
  153.0789  135.4934  154.8459 H   0  0  0  0  0  0  0  0  0  0  0  0  # atno 10764 bound_to 10752
  154.7214  135.3118  154.9001 H   0  0  0  0  0  0  0  0  0  0  0  0  # atno 10765 bound_to 10752
  141.1641  133.6931  156.7448 H   0  0  0  0  0  0  0  0  0  0  0  0  # atno 11005 bound_to 11000
  145.9309  139.2605  143.1326 LP  0  0  0  0  0  0  0  0  0  0  0  0  # atno 17320 bound_to 7965
  145.9524  140.8898  143.0252 LP  0  0  0  0  0  0  0  0  0  0  0  0  # atno 17321 bound_to 7965
  140.4293  144.2137  150.5887 LP  0  0  0  0  0  0  0  0  0  0  0  0  # atno 17342 bound_to 10162
  140.4795  143.2384  151.8975 LP  0  0  0  0  0  0  0  0  0  0  0  0  # atno 17343 bound_to 10162
  157.7306  130.9687  150.1839 LP  0  0  0  0  0  0  0  0  0  0  0  0  # atno 17370 bound_to 10713
  156.2557  130.3705  149.8184 LP  0  0  0  0  0  0  0  0  0  0  0  0  # atno 17371 bound_to 10713
  140.2647  134.8439  157.3792 LP  0  0  0  0  0  0  0  0  0  0  0  0  # atno 17394 bound_to 11000
  140.1577  134.4768  155.7916 LP  0  0  0  0  0  0  0  0  0  0  0  0  # atno 17395 bound_to 11000

$$$$
