AV-unprocessed.smi:153|AV-procd|sdf|1261|dock7
  -GOLD-   2262018513D 1   1.00000     0.00000
 Structure written by MMmdl.
 59 62  0  0  0  0  0  0  0  0  1 V2000
  153.3698  142.7626  159.4967 C   0  0  0  0  0  0  0  0  0  0  0  0
  152.0462  143.4409  159.8832 C   0  0  1  0  0  0  0  0  0  0  0  0
  152.3659  144.7259  160.4120 O   0  0  0  0  0  0  0  0  0  0  0  0
  151.3181  145.6270  160.1019 C   0  0  0  0  0  0  0  0  0  0  0  0
  150.9447  145.2192  158.6852 C   0  0  0  0  0  0  0  0  0  0  0  0
  151.0297  143.6964  158.7342 C   0  0  2  0  0  0  0  0  0  0  0  0
  149.7683  143.2065  159.1589 O   0  0  0  0  0  0  0  0  0  0  0  0
  151.3561  143.0427  157.3654 C   0  0  0  0  0  0  0  0  0  0  0  0
  151.1326  141.6046  157.3437 N   0  0  0  0  0  0  0  0  0  0  0  0
  151.5496  140.6936  158.2853 C   0  0  0  0  0  0  0  0  0  0  0  0
  151.2173  139.4562  158.0427 N   0  0  0  0  0  0  0  0  0  0  0  0
  150.5223  139.5071  156.8376 C   0  0  0  0  0  0  0  0  0  0  0  0
  149.8813  138.5381  156.0028 C   0  0  0  0  0  0  0  0  0  0  0  0
  149.8009  137.2011  156.2763 N   0  0  0  0  0  0  0  0  0  0  0  0
  150.0495  136.7405  157.6372 C   0  0  0  0  0  0  0  0  0  0  0  0
  149.0187  136.3214  155.4041 C   0  0  0  0  0  0  0  0  0  0  0  0
  149.7197  134.9692  155.1415 C   0  0  2  0  0  0  0  0  0  0  0  0
  150.8027  135.1941  154.2614 O   0  0  0  0  0  0  0  0  0  0  0  0
  148.7686  133.9584  154.4657 C   0  0  0  0  0  0  0  0  0  0  0  0
  149.2997  132.6038  154.3030 N   0  0  0  0  0  0  0  0  0  0  0  0
  148.2636  131.6955  153.8220 C   0  0  0  0  0  0  0  0  0  0  0  0
  148.7877  130.2591  153.6500 C   0  0  0  0  0  0  0  0  0  0  0  0
  149.3221  129.7972  154.8859 O   0  0  0  0  0  0  0  0  0  0  0  0
  150.3710  130.6277  155.3722 C   0  0  0  0  0  0  0  0  0  0  0  0
  149.8539  132.0663  155.5462 C   0  0  0  0  0  0  0  0  0  0  0  0
  149.3159  139.0046  154.8551 N   0  0  0  0  0  0  0  0  0  0  0  0
  149.3510  140.3024  154.5457 C   0  0  0  0  0  0  0  0  0  0  0  0
  149.8972  141.3051  155.2310 N   0  0  0  0  0  0  0  0  0  0  0  0
  150.4766  140.8577  156.3805 C   0  0  0  0  0  0  0  0  0  0  0  0
  153.2037  141.7651  159.0900 H   0  0  0  0  0  0  0  0  0  0  0  0
  154.0138  142.6544  160.3696 H   0  0  0  0  0  0  0  0  0  0  0  0
  153.9184  143.3472  158.7581 H   0  0  0  0  0  0  0  0  0  0  0  0
  151.5814  142.8589  160.6814 H   0  0  0  0  0  0  0  0  0  0  0  0
  150.4845  145.4771  160.7896 H   0  0  0  0  0  0  0  0  0  0  0  0
  151.6448  146.6646  160.1709 H   0  0  0  0  0  0  0  0  0  0  0  0
  149.9728  145.6001  158.3683 H   0  0  0  0  0  0  0  0  0  0  0  0
  151.6962  145.6152  158.0015 H   0  0  0  0  0  0  0  0  0  0  0  0
  149.0935  143.7379  158.7651 H   0  0  0  0  0  0  0  0  0  0  0  0
  150.7493  143.4846  156.5749 H   0  0  0  0  0  0  0  0  0  0  0  0
  152.3965  143.2272  157.0954 H   0  0  0  0  0  0  0  0  0  0  0  0
  152.1059  140.9785  159.1669 H   0  0  0  0  0  0  0  0  0  0  0  0
  151.1161  136.7643  157.8605 H   0  0  0  0  0  0  0  0  0  0  0  0
  149.7093  135.7134  157.7720 H   0  0  0  0  0  0  0  0  0  0  0  0
  149.5210  137.3599  158.3626 H   0  0  0  0  0  0  0  0  0  0  0  0
  148.0378  136.1654  155.8546 H   0  0  0  0  0  0  0  0  0  0  0  0
  148.8071  136.8338  154.4645 H   0  0  0  0  0  0  0  0  0  0  0  0
  150.1105  134.5703  156.0764 H   0  0  0  0  0  0  0  0  0  0  0  0
  150.4660  135.5643  153.4599 H   0  0  0  0  0  0  0  0  0  0  0  0
  147.8442  133.8951  155.0421 H   0  0  0  0  0  0  0  0  0  0  0  0
  148.4762  134.3595  153.4940 H   0  0  0  0  0  0  0  0  0  0  0  0
  147.4235  131.6905  154.5185 H   0  0  0  0  0  0  0  0  0  0  0  0
  147.8745  132.0512  152.8673 H   0  0  0  0  0  0  0  0  0  0  0  0
  147.9809  129.5951  153.3400 H   0  0  0  0  0  0  0  0  0  0  0  0
  149.5543  130.2169  152.8749 H   0  0  0  0  0  0  0  0  0  0  0  0
  150.7245  130.2342  156.3252 H   0  0  0  0  0  0  0  0  0  0  0  0
  151.2150  130.6017  154.6815 H   0  0  0  0  0  0  0  0  0  0  0  0
  150.6756  132.6852  155.9024 H   0  0  0  0  0  0  0  0  0  0  0  0
  149.0926  132.0814  156.3278 H   0  0  0  0  0  0  0  0  0  0  0  0
  148.8716  140.5753  153.6170 H   0  0  0  0  0  0  0  0  0  0  0  0
  1  2  1  0  0  0  0
  1 30  1  0  0  0  0
  1 31  1  0  0  0  0
  1 32  1  0  0  0  0
  2  6  1  0  0  0  0
  2  3  1  0  0  0  0
  2 33  1  0  0  0  0
  3  4  1  0  0  0  0
  4  5  1  0  0  0  0
  4 34  1  0  0  0  0
  4 35  1  0  0  0  0
  5  6  1  0  0  0  0
  5 36  1  0  0  0  0
  5 37  1  0  0  0  0
  6  7  1  0  0  0  0
  6  8  1  0  0  0  0
  7 38  1  0  0  0  0
  8  9  1  0  0  0  0
  8 39  1  0  0  0  0
  8 40  1  0  0  0  0
  9 29  1  0  0  0  0
  9 10  1  0  0  0  0
 10 11  2  0  0  0  0
 10 41  1  0  0  0  0
 11 12  1  0  0  0  0
 12 29  2  0  0  0  0
 12 13  1  0  0  0  0
 13 14  1  0  0  0  0
 13 26  2  0  0  0  0
 14 15  1  0  0  0  0
 14 16  1  0  0  0  0
 15 42  1  0  0  0  0
 15 43  1  0  0  0  0
 15 44  1  0  0  0  0
 16 17  1  0  0  0  0
 16 45  1  0  0  0  0
 16 46  1  0  0  0  0
 17 18  1  0  0  0  0
 17 19  1  0  0  0  0
 17 47  1  0  0  0  0
 18 48  1  0  0  0  0
 19 20  1  0  0  0  0
 19 49  1  0  0  0  0
 19 50  1  0  0  0  0
 20 25  1  0  0  0  0
 20 21  1  0  0  0  0
 21 22  1  0  0  0  0
 21 51  1  0  0  0  0
 21 52  1  0  0  0  0
 22 23  1  0  0  0  0
 22 53  1  0  0  0  0
 22 54  1  0  0  0  0
 23 24  1  0  0  0  0
 24 25  1  0  0  0  0
 24 55  1  0  0  0  0
 24 56  1  0  0  0  0
 25 57  1  0  0  0  0
 25 58  1  0  0  0  0
 26 27  1  0  0  0  0
 27 28  2  0  0  0  0
 27 59  1  0  0  0  0
 28 29  1  0  0  0  0
M  END
> <s_m_source_file>
AV-unprocessed.smi

> <i_m_source_file_index>
153

> <i_lp_mmshare_version>
43012

> <i_f3d_flags>
0

> <s_epik_input>
W0NIMl0xW0NIMl1PW0NAQEhdKFtDSDNdKVtDQEBdMShbT0hdKVtDSDJdbihbY0hdbjIpYyhjMjMpbltjSF1uYzNOKFtDSDNdKVtDSDJdW0NASF0oW09IXSlbQ0gyXU40W0NIMl1bQ0gyXU9bQ0gyXVtDSDJdNA==

> <s_epik_cmdline>
J2VwaWtfcHl0aG9uJywgJy1waCcsICc3LjAnLCAnLXRuJywgJzgnLCAnLW1hJywgJzIwMCcsICctbWV0YWxfYmluZGluZycsICctaW1hZScsICc8aW5maWxlLm1hZT4nLCAnLW9tYWUnLCAnPG91dGZpbGUubWFlPic=

> <r_lp_tautomer_probability>
1

> <r_epik_Ionization_Penalty>
0.424123

> <r_epik_Ionization_Penalty_Charging>
0

> <r_epik_Ionization_Penalty_Neutral>
0.424123

> <r_epik_State_Penalty>
0.421495

> <r_epik_Charging_Adjusted_Penalty>
0.421495

> <i_epik_Tot_Q>
0

> <i_epik_Tot_abs_Q>
0

> <r_epik_Metal_State_Penalty>
0.421223

> <b_epik_Metal_Only>
0

> <s_lp_Force_Field>
OPLS_2005

> <r_lp_Energy>
56.2601

> <b_lp_Chiralities_Consistent>
1

> <s_lp_Variant>
AV-unprocessed.smi:153-12

> <Gold.Version>
5.8.1

> <Gold.Id.Protein>
6NUR|6NUR_protein|mol2

> <Gold.PLP.Fitness>
48.8582

> <Gold.PLP.PLP>
-42.9358

> <Gold.PLP.part.hbond>
-3.8858

> <Gold.PLP.part.metal>
0.0000

> <Gold.PLP.part.buried>
0.9532

> <Gold.PLP.part.nonpolar>
-39.0351

> <Gold.PLP.part.repulsive>
0.4768

> <Gold.PLP.ligand.clash>
0.0000

> <Gold.PLP.ligand.torsion>
0.6271

> <Gold.PLP.Chemscore.Hbond>
1.1648

> <Gold.PLP.Chemscore.CHOScore>
1.0000

> <Gold.PLP.Chemscore.Metal>
0.0000

> <Gold.Chemscore.Hbonds>
donor molecule, donor type, donor heavy atom, donor atom, acceptor molecule, acceptor atom, score
      L1  H    18    48       P1  7949  0.06
      P1  H 10752 10764       L1    18  0.51
      L1  C    27    59       P1  7957  0.77

> <Gold.PLP.Chemscore.Internal.Correction>
0.6823

> <Gold.Rescore>
     Score         DG    S(hbond)    S(metal)    S(lipo)     H(rot)  DE(clash)    DE(int)     intcor
      7.34     -11.06       0.63        0.00     106.70       3.52       1.89       1.83       ----

> <Gold.Chemscore.Fitness>
7.3366

> <Gold.Chemscore.DG>
-11.0564

> <Gold.Chemscore.ZeroCoef>
-5.4800

> <Gold.Chemscore.Hbond>
0.6276

> <Gold.Chemscore.Metal>
0.0000

> <Gold.Chemscore.Lipo>
106.6983

> <Gold.Chemscore.Internal_Hbond>
0.0000

> <Gold.Chemscore.DEClash>
1.8886

> <Gold.Chemscore.DEInternal>
1.8313

> <Gold.Chemscore.Rot>
3.5170

> <Gold.Chemscore.Internal.Correction>
   9.000000E+99

> <Gold.Chemscore.Hbonds>
donor molecule, donor type, donor heavy atom, donor atom, acceptor molecule, acceptor atom, score
      P1  H 10752 10764       L1    18  0.22

> <Gold.Chemscore.Hbond.Weighted>
-2.0963

> <Gold.Chemscore.Metal.Weighted>
-0.0000

> <Gold.Chemscore.Lipo.Weighted>
-12.4837

> <Gold.Chemscore.Internal_Hbond.Weighted>
0.0000

> <Gold.Chemscore.DEClash.Weighted>
1.8886

> <Gold.Chemscore.DEInternal.Weighted>
1.8313

> <Gold.Chemscore.Rot.Weighted>
9.0036

> <Gold.Chemscore.Internal.Correction.Weighted>
   9.000000E+99

> <Gold.Protein.RotatedTorsions>
[ 6907 6896 6895 6894 ] final -138.50 input  -60.11 | X-H torsion
[ 7974 7965 7964 7962 ] final  142.39 input  175.53 | X-H torsion
[ 8008 7997 7996 7995 ] final  -53.37 input   59.86 | X-H torsion
[ 10167 10162 10161 10158 ] final  128.58 input  -65.29 | X-H torsion
[ 10718 10713 10712 10709 ] final  -69.89 input   66.30 | X-H torsion
[ 10763 10752 10751 10750 ] final  -82.77 input  -60.55 | X-H torsion
[ 11005 11000 10999 10996 ] final  -89.02 input  -57.11 | X-H torsion

> <Gold.Protein.ActiveResidues>
 VAL166  LYS551  ARG553  GLY616  TRP617  ASP618  TYR619  PRO620  LYS621  CYS622 
 ASP623  PHE694  ASN695  SER759  ASP760  ASP761  ALA762  ILE779  LEU786  VAL792 
 PHE793  MET794  SER795  GLU796  ALA797  LYS798  CYS799  TRP800  GLU811  SER814 

> <Gold.Protein.RotatedAtoms>
  151.0358  133.5749  159.2655 H   0  0  0  0  0  0  0  0  0  0  0  0  # atno 6907 bound_to 6896
  151.2814  135.0714  159.9180 H   0  0  0  0  0  0  0  0  0  0  0  0  # atno 6908 bound_to 6896
  152.5354  134.0072  159.7976 H   0  0  0  0  0  0  0  0  0  0  0  0  # atno 6909 bound_to 6896
  144.9011  139.5421  143.5753 H   0  0  0  0  0  0  0  0  0  0  0  0  # atno 7974 bound_to 7965
  154.4131  140.1201  156.5142 H   0  0  0  0  0  0  0  0  0  0  0  0  # atno 8008 bound_to 7997
  155.6768  140.3496  155.4820 H   0  0  0  0  0  0  0  0  0  0  0  0  # atno 8009 bound_to 7997
  155.9585  140.1118  157.0905 H   0  0  0  0  0  0  0  0  0  0  0  0  # atno 8010 bound_to 7997
  139.5520  144.6820  151.4296 H   0  0  0  0  0  0  0  0  0  0  0  0  # atno 10167 bound_to 10162
  156.0434  130.4321  150.2214 H   0  0  0  0  0  0  0  0  0  0  0  0  # atno 10718 bound_to 10713
  154.5797  135.5579  153.7174 H   0  0  0  0  0  0  0  0  0  0  0  0  # atno 10763 bound_to 10752
  153.0077  135.6317  154.1999 H   0  0  0  0  0  0  0  0  0  0  0  0  # atno 10764 bound_to 10752
  154.1939  135.2881  155.2993 H   0  0  0  0  0  0  0  0  0  0  0  0  # atno 10765 bound_to 10752
  141.1592  133.7605  156.9535 H   0  0  0  0  0  0  0  0  0  0  0  0  # atno 11005 bound_to 11000
  146.3109  139.7743  142.9020 LP  0  0  0  0  0  0  0  0  0  0  0  0  # atno 17320 bound_to 7965
  145.3614  141.0326  143.3282 LP  0  0  0  0  0  0  0  0  0  0  0  0  # atno 17321 bound_to 7965
  140.6784  143.8137  150.7089 LP  0  0  0  0  0  0  0  0  0  0  0  0  # atno 17342 bound_to 10162
  140.1582  143.4298  152.2085 LP  0  0  0  0  0  0  0  0  0  0  0  0  # atno 17343 bound_to 10162
  157.0306  131.0006  151.3313 LP  0  0  0  0  0  0  0  0  0  0  0  0  # atno 17370 bound_to 10713
  157.5280  130.8040  149.7884 LP  0  0  0  0  0  0  0  0  0  0  0  0  # atno 17371 bound_to 10713
  140.1241  134.9398  157.2245 LP  0  0  0  0  0  0  0  0  0  0  0  0  # atno 17394 bound_to 11000
  140.3035  134.3104  155.7284 LP  0  0  0  0  0  0  0  0  0  0  0  0  # atno 17395 bound_to 11000

$$$$
