AV-unprocessed.smi:2032|AV-procd|sdf|8243|dock5
  -GOLD-   2272010513D 1   1.00000     0.00000
 Structure written by MMmdl.
 43 44  0  0  0  0  0  0  0  0  2 V2000
  149.0488  141.0611  154.1954 C   0  0  0  0  0  0  0  0  0  0  0  0
  149.5699  139.6256  154.0635 C   0  0  2  0  0  0  0  0  0  0  0  0
  148.6935  138.6160  154.8279 C   0  0  0  0  0  0  0  0  0  0  0  0
  149.2504  137.2355  154.7560 N   0  3  2  0  0  0  0  0  0  0  0  0
  148.4122  136.2148  155.4734 C   0  0  1  0  0  0  0  0  0  0  0  0
  146.9063  136.5716  155.4081 C   0  0  0  0  0  0  0  0  0  0  0  0
  148.6601  134.7731  154.9457 C   0  0  0  0  0  0  0  0  0  0  0  0
  148.1735  134.5614  153.5838 N   0  0  0  0  0  0  0  0  0  0  0  0
  147.0988  133.8323  153.2475 C   0  0  0  0  0  0  0  0  0  0  0  0
  146.4047  133.2295  154.0668 O   0  0  0  0  0  0  0  0  0  0  0  0
  146.8981  133.8458  151.9183 N   0  0  0  0  0  0  0  0  0  0  0  0
  145.8781  133.1920  151.1783 C   0  0  0  0  0  0  0  0  0  0  0  0
  146.0554  132.6425  149.9710 N   0  0  0  0  0  0  0  0  0  0  0  0
  144.8814  132.0654  149.4801 C   0  0  0  0  0  0  0  0  0  0  0  0
  143.8118  132.1877  150.3320 C   0  0  0  0  0  0  0  0  0  0  0  0
  144.2392  133.0366  151.7936 S   0  0  0  0  0  0  0  0  0  0  0  0
  150.6806  137.2532  155.1755 C   0  0  0  0  0  0  0  0  0  0  0  0
  151.4900  138.3139  154.4054 C   0  0  2  0  0  0  0  0  0  0  0  0
  152.9407  138.3993  154.8928 C   0  0  0  0  0  0  0  0  0  0  0  0
  150.8880  139.5862  154.5888 O   0  0  0  0  0  0  0  0  0  0  0  0
  148.0406  141.1520  153.7907 H   0  0  0  0  0  0  0  0  0  0  0  0
  149.6876  141.7583  153.6528 H   0  0  0  0  0  0  0  0  0  0  0  0
  149.0210  141.3786  155.2382 H   0  0  0  0  0  0  0  0  0  0  0  0
  149.5936  139.3648  153.0036 H   0  0  0  0  0  0  0  0  0  0  0  0
  148.5992  138.9147  155.8733 H   0  0  0  0  0  0  0  0  0  0  0  0
  147.6990  138.6590  154.3885 H   0  0  0  0  0  0  0  0  0  0  0  0
  148.7088  136.2315  156.5234 H   0  0  0  0  0  0  0  0  0  0  0  0
  146.2858  135.8231  155.8988 H   0  0  0  0  0  0  0  0  0  0  0  0
  146.5638  136.6558  154.3764 H   0  0  0  0  0  0  0  0  0  0  0  0
  146.6716  137.5019  155.9220 H   0  0  0  0  0  0  0  0  0  0  0  0
  149.7175  134.5162  155.0316 H   0  0  0  0  0  0  0  0  0  0  0  0
  148.1151  134.0437  155.5432 H   0  0  0  0  0  0  0  0  0  0  0  0
  148.6864  135.0169  152.8429 H   0  0  0  0  0  0  0  0  0  0  0  0
  147.5507  134.3862  151.3699 H   0  0  0  0  0  0  0  0  0  0  0  0
  144.8967  131.5869  148.5120 H   0  0  0  0  0  0  0  0  0  0  0  0
  142.8027  131.8310  150.1886 H   0  0  0  0  0  0  0  0  0  0  0  0
  150.7409  137.4364  156.2498 H   0  0  0  0  0  0  0  0  0  0  0  0
  151.1540  136.2927  154.9797 H   0  0  0  0  0  0  0  0  0  0  0  0
  151.4993  138.0693  153.3416 H   0  0  0  0  0  0  0  0  0  0  0  0
  153.4574  137.4489  154.7569 H   0  0  0  0  0  0  0  0  0  0  0  0
  152.9881  138.6577  155.9512 H   0  0  0  0  0  0  0  0  0  0  0  0
  153.4938  139.1590  154.3397 H   0  0  0  0  0  0  0  0  0  0  0  0
  149.2461  136.9745  153.7801 H   0  0  0  0  0  0  0  0  0  0  0  0
  1  2  1  0  0  0  0
  1 21  1  0  0  0  0
  1 22  1  0  0  0  0
  1 23  1  0  0  0  0
  2 20  1  0  0  0  0
  2  3  1  0  0  0  0
  2 24  1  0  0  0  0
  3  4  1  0  0  0  0
  3 25  1  0  0  0  0
  3 26  1  0  0  0  0
  4  5  1  0  0  0  0
  4 17  1  0  0  0  0
  4 43  1  0  0  0  0
  5  6  1  0  0  0  0
  5  7  1  0  0  0  0
  5 27  1  0  0  0  0
  6 28  1  0  0  0  0
  6 29  1  0  0  0  0
  6 30  1  0  0  0  0
  7  8  1  0  0  0  0
  7 31  1  0  0  0  0
  7 32  1  0  0  0  0
  8  9  1  0  0  0  0
  8 33  1  0  0  0  0
  9 10  2  0  0  0  0
  9 11  1  0  0  0  0
 11 12  1  0  0  0  0
 11 34  1  0  0  0  0
 12 16  1  0  0  0  0
 12 13  2  0  0  0  0
 13 14  1  0  0  0  0
 14 15  2  0  0  0  0
 14 35  1  0  0  0  0
 15 16  1  0  0  0  0
 15 36  1  0  0  0  0
 17 18  1  0  0  0  0
 17 37  1  0  0  0  0
 17 38  1  0  0  0  0
 18 19  1  0  0  0  0
 18 20  1  0  0  0  0
 18 39  1  0  0  0  0
 19 40  1  0  0  0  0
 19 41  1  0  0  0  0
 19 42  1  0  0  0  0
M  CHG  1   4   1
M  END
> <s_m_source_file>
AV-unprocessed.smi

> <i_m_source_file_index>
2032

> <i_lp_mmshare_version>
43012

> <i_f3d_flags>
0

> <s_epik_input>
W0NIM11bQ0BASF0xW0NIMl1OKFtDSDJdW0NASF0oTzEpW0NIM10pW0NASF0oW0NIM10pW0NIMl1bTkhdQyg9TylbTkhdYzJuW2NIXVtjSF1zMg==

> <s_epik_cmdline>
J2VwaWtfcHl0aG9uJywgJy1waCcsICc3LjAnLCAnLXRuJywgJzgnLCAnLW1hJywgJzIwMCcsICctbWV0YWxfYmluZGluZycsICctaW1hZScsICc8aW5maWxlLm1hZT4nLCAnLW9tYWUnLCAnPG91dGZpbGUubWFlPic=

> <r_lp_tautomer_probability>
0.999

> <r_epik_Ionization_Penalty>
0.695838

> <r_epik_Ionization_Penalty_Charging>
0.695697

> <r_epik_Ionization_Penalty_Neutral>
0.000141198

> <r_epik_State_Penalty>
0.717972

> <r_epik_Charging_Adjusted_Penalty>
1.41367

> <i_epik_Tot_Q>
1

> <i_epik_Tot_abs_Q>
1

> <r_epik_Metal_State_Penalty>
0.756405

> <b_epik_Metal_Only>
0

> <s_lp_Force_Field>
OPLS_2005

> <r_lp_Energy>
18.3762

> <b_lp_Chiralities_Consistent>
1

> <s_lp_Variant>
AV-unprocessed.smi:2032-13

> <Gold.Version>
5.8.1

> <Gold.Id.Protein>
6NUR|6NUR_protein|mol2

> <Gold.PLP.Fitness>
46.1136

> <Gold.PLP.PLP>
-32.4779

> <Gold.PLP.part.hbond>
-3.5095

> <Gold.PLP.part.metal>
0.0000

> <Gold.PLP.part.buried>
-3.6595

> <Gold.PLP.part.nonpolar>
-26.5528

> <Gold.PLP.part.repulsive>
0.5752

> <Gold.PLP.ligand.clash>
0.0000

> <Gold.PLP.ligand.torsion>
0.7987

> <Gold.PLP.Chemscore.Hbond>
4.0726

> <Gold.PLP.Chemscore.CHOScore>
0.9871

> <Gold.PLP.Chemscore.Metal>
0.0000

> <Gold.Chemscore.Hbonds>
donor molecule, donor type, donor heavy atom, donor atom, acceptor molecule, acceptor atom, score
      L1  H     4    43       P1  7948  1.85
      L1  H     8    33       P1  7948  1.00
      L1  H    11    34       P1  7948  0.17
      P1  H  7989  7998       L1    20  0.90
      L1  C    15    36       P1 10952  0.95

> <Gold.PLP.Chemscore.Internal.Correction>
0.0538

> <Gold.Rescore>
     Score         DG    S(hbond)    S(metal)    S(lipo)     H(rot)  DE(clash)    DE(int)     intcor
     14.33     -15.54       1.54        0.00      77.33       1.61       0.34       0.88       ----

> <Gold.Chemscore.Fitness>
14.3267

> <Gold.Chemscore.DG>
-15.5446

> <Gold.Chemscore.ZeroCoef>
-5.4800

> <Gold.Chemscore.Hbond>
1.5392

> <Gold.Chemscore.Metal>
0.0000

> <Gold.Chemscore.Lipo>
77.3331

> <Gold.Chemscore.Internal_Hbond>
0.0000

> <Gold.Chemscore.DEClash>
0.3416

> <Gold.Chemscore.DEInternal>
0.8763

> <Gold.Chemscore.Rot>
1.6110

> <Gold.Chemscore.Internal.Correction>
   9.000000E+99

> <Gold.Chemscore.Hbonds>
donor molecule, donor type, donor heavy atom, donor atom, acceptor molecule, acceptor atom, score
      L1  H     4    43       P1  7948  0.87
      L1  H     8    33       P1  7948  0.32
      L1  H    11    34       P1  7948  0.02
      P1  H  7989  7998       L1    20  0.15

> <Gold.Chemscore.Hbond.Weighted>
-5.1408

> <Gold.Chemscore.Metal.Weighted>
-0.0000

> <Gold.Chemscore.Lipo.Weighted>
-9.0480

> <Gold.Chemscore.Internal_Hbond.Weighted>
0.0000

> <Gold.Chemscore.DEClash.Weighted>
0.3416

> <Gold.Chemscore.DEInternal.Weighted>
0.8763

> <Gold.Chemscore.Rot.Weighted>
4.1242

> <Gold.Chemscore.Internal.Correction.Weighted>
   9.000000E+99

> <Gold.Protein.RotatedTorsions>
[ 6907 6896 6895 6894 ] final   83.58 input  -60.11 | X-H torsion
[ 7974 7965 7964 7962 ] final  107.89 input  175.53 | X-H torsion
[ 8008 7997 7996 7995 ] final  116.69 input   59.86 | X-H torsion
[ 10167 10162 10161 10158 ] final   81.30 input  -65.29 | X-H torsion
[ 10718 10713 10712 10709 ] final  107.55 input   66.30 | X-H torsion
[ 10763 10752 10751 10750 ] final   72.01 input  -60.55 | X-H torsion
[ 11005 11000 10999 10996 ] final  -41.60 input  -57.11 | X-H torsion

> <Gold.Protein.ActiveResidues>
 VAL166  LYS551  ARG553  GLY616  TRP617  ASP618  TYR619  PRO620  LYS621  CYS622 
 ASP623  PHE694  ASN695  SER759  ASP760  ASP761  ALA762  ILE779  LEU786  VAL792 
 PHE793  MET794  SER795  GLU796  ALA797  LYS798  CYS799  TRP800  GLU811  SER814 

> <Gold.Protein.RotatedAtoms>
  152.5331  134.2873  159.9029 H   0  0  0  0  0  0  0  0  0  0  0  0  # atno 6907 bound_to 6896
  151.2826  133.4196  159.2635 H   0  0  0  0  0  0  0  0  0  0  0  0  # atno 6908 bound_to 6896
  151.0270  134.9527  159.8147 H   0  0  0  0  0  0  0  0  0  0  0  0  # atno 6909 bound_to 6896
  145.2877  139.2611  143.3881 H   0  0  0  0  0  0  0  0  0  0  0  0  # atno 7974 bound_to 7965
  156.2453  140.2912  156.0562 H   0  0  0  0  0  0  0  0  0  0  0  0  # atno 8008 bound_to 7997
  155.1827  140.0404  157.2902 H   0  0  0  0  0  0  0  0  0  0  0  0  # atno 8009 bound_to 7997
  154.6249  140.2485  155.7511 H   0  0  0  0  0  0  0  0  0  0  0  0  # atno 8010 bound_to 7997
  139.9407  144.6092  150.8255 H   0  0  0  0  0  0  0  0  0  0  0  0  # atno 10167 bound_to 10162
  157.6623  131.0875  150.6173 H   0  0  0  0  0  0  0  0  0  0  0  0  # atno 10718 bound_to 10713
  153.0433  135.5116  154.7679 H   0  0  0  0  0  0  0  0  0  0  0  0  # atno 10763 bound_to 10752
  154.6599  135.2937  154.9882 H   0  0  0  0  0  0  0  0  0  0  0  0  # atno 10764 bound_to 10752
  154.0736  135.6674  153.4880 H   0  0  0  0  0  0  0  0  0  0  0  0  # atno 10765 bound_to 10752
  141.0257  133.6842  156.2479 H   0  0  0  0  0  0  0  0  0  0  0  0  # atno 11005 bound_to 11000
  146.3195  140.3361  142.8644 LP  0  0  0  0  0  0  0  0  0  0  0  0  # atno 17320 bound_to 7965
  144.9199  140.7855  143.5755 LP  0  0  0  0  0  0  0  0  0  0  0  0  # atno 17321 bound_to 7965
  140.7612  143.3168  151.2714 LP  0  0  0  0  0  0  0  0  0  0  0  0  # atno 17342 bound_to 10162
  139.6707  144.0025  152.2751 LP  0  0  0  0  0  0  0  0  0  0  0  0  # atno 17343 bound_to 10162
  156.6475  130.4476  149.5731 LP  0  0  0  0  0  0  0  0  0  0  0  0  # atno 17370 bound_to 10713
  156.2162  130.6709  151.1321 LP  0  0  0  0  0  0  0  0  0  0  0  0  # atno 17371 bound_to 10713
  140.6495  134.5082  157.5576 LP  0  0  0  0  0  0  0  0  0  0  0  0  # atno 17394 bound_to 11000
  139.9174  134.8217  156.1320 LP  0  0  0  0  0  0  0  0  0  0  0  0  # atno 17395 bound_to 11000

$$$$
