AV-unprocessed.smi:2511|AV-procd|sdf|9888|dock3
  -GOLD-   2272013523D 1   1.00000     0.00000
 Structure written by MMmdl.
 40 41  0  0  0  0  0  0  0  0  1 V2000
  144.9393  138.4277  151.9808 N   0  0  0  0  0  0  0  0  0  0  0  0
  145.8155  137.5068  152.3964 C   0  0  0  0  0  0  0  0  0  0  0  0
  145.8021  136.3522  151.9724 O   0  0  0  0  0  0  0  0  0  0  0  0
  146.7966  137.9456  153.4505 C   0  0  0  0  0  0  0  0  0  0  0  0
  147.3470  139.2468  153.4028 C   0  0  0  0  0  0  0  0  0  0  0  0
  148.2563  139.6444  154.4015 C   0  0  0  0  0  0  0  0  0  0  0  0
  148.5941  138.7265  155.4235 C   0  0  0  0  0  0  0  0  0  0  0  0
  149.4836  139.0070  156.4951 N   0  0  0  0  0  0  0  0  0  0  0  0
  150.2482  140.0983  156.6979 C   0  0  0  0  0  0  0  0  0  0  0  0
  150.2844  141.0769  155.9555 O   0  0  0  0  0  0  0  0  0  0  0  0
  151.0171  140.0360  157.8006 N   0  0  0  0  0  0  0  0  0  0  0  0
  151.9569  141.0347  158.3156 C   0  0  2  0  0  0  0  0  0  0  0  0
  152.5992  140.5089  159.6118 C   0  0  0  0  0  0  0  0  0  0  0  0
  153.5498  141.5472  160.2260 C   0  0  0  0  0  0  0  0  0  0  0  0
  152.8326  142.8836  160.4722 C   0  0  0  0  0  0  0  0  0  0  0  0
  152.1928  143.4321  159.1796 C   0  0  2  0  0  0  0  0  0  0  0  0
  151.4856  144.7834  159.4118 C   0  0  0  0  0  0  0  0  0  0  0  0
  150.3700  144.6195  160.1234 F   0  0  0  0  0  0  0  0  0  0  0  0
  152.2958  145.6158  160.0659 F   0  0  0  0  0  0  0  0  0  0  0  0
  151.1730  145.3420  158.2424 F   0  0  0  0  0  0  0  0  0  0  0  0
  151.2421  142.3794  158.5706 C   0  0  0  0  0  0  0  0  0  0  0  0
  147.9768  137.4599  155.3953 C   0  0  0  0  0  0  0  0  0  0  0  0
  147.1063  137.0724  154.4397 N   0  0  0  0  0  0  0  0  0  0  0  0
  144.2584  138.1930  151.2737 H   0  0  0  0  0  0  0  0  0  0  0  0
  144.9683  139.3556  152.3785 H   0  0  0  0  0  0  0  0  0  0  0  0
  147.0806  139.9371  152.6153 H   0  0  0  0  0  0  0  0  0  0  0  0
  148.6610  140.6437  154.3683 H   0  0  0  0  0  0  0  0  0  0  0  0
  149.6099  138.2555  157.1572 H   0  0  0  0  0  0  0  0  0  0  0  0
  150.9420  139.1893  158.3463 H   0  0  0  0  0  0  0  0  0  0  0  0
  152.7583  141.1872  157.5902 H   0  0  0  0  0  0  0  0  0  0  0  0
  151.8227  140.2579  160.3362 H   0  0  0  0  0  0  0  0  0  0  0  0
  153.1452  139.5859  159.4114 H   0  0  0  0  0  0  0  0  0  0  0  0
  153.9580  141.1675  161.1631 H   0  0  0  0  0  0  0  0  0  0  0  0
  154.3992  141.7049  159.5602 H   0  0  0  0  0  0  0  0  0  0  0  0
  152.0662  142.7478  161.2361 H   0  0  0  0  0  0  0  0  0  0  0  0
  153.5435  143.6053  160.8752 H   0  0  0  0  0  0  0  0  0  0  0  0
  152.9959  143.6060  158.4612 H   0  0  0  0  0  0  0  0  0  0  0  0
  150.8262  142.7605  157.6378 H   0  0  0  0  0  0  0  0  0  0  0  0
  150.3947  142.2217  159.2396 H   0  0  0  0  0  0  0  0  0  0  0  0
  148.1909  136.7294  156.1621 H   0  0  0  0  0  0  0  0  0  0  0  0
  1  2  1  0  0  0  0
  1 24  1  0  0  0  0
  1 25  1  0  0  0  0
  2  3  2  0  0  0  0
  2  4  1  0  0  0  0
  4 23  1  0  0  0  0
  4  5  2  0  0  0  0
  5  6  1  0  0  0  0
  5 26  1  0  0  0  0
  6  7  2  0  0  0  0
  6 27  1  0  0  0  0
  7  8  1  0  0  0  0
  7 22  1  0  0  0  0
  8  9  1  0  0  0  0
  8 28  1  0  0  0  0
  9 10  2  0  0  0  0
  9 11  1  0  0  0  0
 11 12  1  0  0  0  0
 11 29  1  0  0  0  0
 12 21  1  0  0  0  0
 12 13  1  0  0  0  0
 12 30  1  0  0  0  0
 13 14  1  0  0  0  0
 13 31  1  0  0  0  0
 13 32  1  0  0  0  0
 14 15  1  0  0  0  0
 14 33  1  0  0  0  0
 14 34  1  0  0  0  0
 15 16  1  0  0  0  0
 15 35  1  0  0  0  0
 15 36  1  0  0  0  0
 16 17  1  0  0  0  0
 16 21  1  0  0  0  0
 16 37  1  0  0  0  0
 17 18  1  0  0  0  0
 17 19  1  0  0  0  0
 17 20  1  0  0  0  0
 21 38  1  0  0  0  0
 21 39  1  0  0  0  0
 22 23  2  0  0  0  0
 22 40  1  0  0  0  0
M  END
> <s_m_source_file>
AV-unprocessed.smi

> <i_m_source_file_index>
2511

> <i_lp_mmshare_version>
43012

> <i_f3d_flags>
0

> <s_epik_input>
W05IMl1DKD1PKWMxW2NIXVtjSF1jKFtjSF1uMSlbTkhdQyg9TylbTkhdW0NAQEhdMltDSDJdW0NIMl1bQ0gyXVtDQEBIXShDKEYpKEYpRilbQ0gyXTI=

> <s_epik_cmdline>
J2VwaWtfcHl0aG9uJywgJy1waCcsICc3LjAnLCAnLXRuJywgJzgnLCAnLW1hJywgJzIwMCcsICctbWV0YWxfYmluZGluZycsICctaW1hZScsICc8aW5maWxlLm1hZT4nLCAnLW9tYWUnLCAnPG91dGZpbGUubWFlPic=

> <r_lp_tautomer_probability>
1

> <r_epik_Ionization_Penalty>
4.28758e-05

> <r_epik_Ionization_Penalty_Charging>
0

> <r_epik_Ionization_Penalty_Neutral>
4.28758e-05

> <r_epik_State_Penalty>
-0

> <r_epik_Charging_Adjusted_Penalty>
0

> <i_epik_Tot_Q>
0

> <i_epik_Tot_abs_Q>
0

> <r_epik_Metal_State_Penalty>
-0

> <b_epik_Metal_Only>
0

> <s_lp_Force_Field>
OPLS_2005

> <r_lp_Energy>
28.5247

> <b_lp_Chiralities_Consistent>
1

> <s_lp_Variant>
AV-unprocessed.smi:2511-3

> <Gold.Version>
5.8.1

> <Gold.Id.Protein>
6NUR|6NUR_protein|mol2

> <Gold.PLP.Fitness>
40.5842

> <Gold.PLP.PLP>
-37.9920

> <Gold.PLP.part.hbond>
-1.4633

> <Gold.PLP.part.metal>
0.0000

> <Gold.PLP.part.buried>
-5.9431

> <Gold.PLP.part.nonpolar>
-30.8906

> <Gold.PLP.part.repulsive>
1.0911

> <Gold.PLP.ligand.clash>
0.0000

> <Gold.PLP.ligand.torsion>
0.7071

> <Gold.PLP.Chemscore.Hbond>
1.3280

> <Gold.PLP.Chemscore.CHOScore>
0.0000

> <Gold.PLP.Chemscore.Metal>
0.0000

> <Gold.Chemscore.Hbonds>
donor molecule, donor type, donor heavy atom, donor atom, acceptor molecule, acceptor atom, score
      L1  H     1    24       P1 10171  0.80
      L1  H     1    25       P1 10175  0.53

> <Gold.PLP.Chemscore.Internal.Correction>
0.0225

> <Gold.Rescore>
     Score         DG    S(hbond)    S(metal)    S(lipo)     H(rot)  DE(clash)    DE(int)     intcor
     14.84     -17.05       1.32        0.00      83.12       1.00       0.18       2.03       ----

> <Gold.Chemscore.Fitness>
14.8377

> <Gold.Chemscore.DG>
-17.0455

> <Gold.Chemscore.ZeroCoef>
-5.4800

> <Gold.Chemscore.Hbond>
1.3174

> <Gold.Chemscore.Metal>
0.0000

> <Gold.Chemscore.Lipo>
83.1222

> <Gold.Chemscore.Internal_Hbond>
0.0000

> <Gold.Chemscore.DEClash>
0.1780

> <Gold.Chemscore.DEInternal>
2.0298

> <Gold.Chemscore.Rot>
1.0000

> <Gold.Chemscore.Internal.Correction>
   9.000000E+99

> <Gold.Chemscore.Hbonds>
donor molecule, donor type, donor heavy atom, donor atom, acceptor molecule, acceptor atom, score
      L1  H     1    24       P1 10171  0.76
      L1  H     1    25       P1 10175  0.52

> <Gold.Chemscore.Hbond.Weighted>
-4.4002

> <Gold.Chemscore.Metal.Weighted>
-0.0000

> <Gold.Chemscore.Lipo.Weighted>
-9.7253

> <Gold.Chemscore.Internal_Hbond.Weighted>
0.0000

> <Gold.Chemscore.DEClash.Weighted>
0.1780

> <Gold.Chemscore.DEInternal.Weighted>
2.0298

> <Gold.Chemscore.Rot.Weighted>
2.5600

> <Gold.Chemscore.Internal.Correction.Weighted>
   9.000000E+99

> <Gold.Protein.RotatedTorsions>
[ 6907 6896 6895 6894 ] final   84.53 input  -60.11 | X-H torsion
[ 7974 7965 7964 7962 ] final -150.18 input  175.53 | X-H torsion
[ 8008 7997 7996 7995 ] final -142.60 input   59.86 | X-H torsion
[ 10167 10162 10161 10158 ] final   58.58 input  -65.29 | X-H torsion
[ 10718 10713 10712 10709 ] final  -87.21 input   66.30 | X-H torsion
[ 10763 10752 10751 10750 ] final   17.17 input  -60.55 | X-H torsion
[ 11005 11000 10999 10996 ] final  -91.95 input  -57.11 | X-H torsion

> <Gold.Protein.ActiveResidues>
 VAL166  LYS551  ARG553  GLY616  TRP617  ASP618  TYR619  PRO620  LYS621  CYS622 
 ASP623  PHE694  ASN695  SER759  ASP760  ASP761  ALA762  ILE779  LEU786  VAL792 
 PHE793  MET794  SER795  GLU796  ALA797  LYS798  CYS799  TRP800  GLU811  SER814 

> <Gold.Protein.RotatedAtoms>
  152.5354  134.2726  159.8976 H   0  0  0  0  0  0  0  0  0  0  0  0  # atno 6907 bound_to 6896
  151.2682  133.4261  159.2627 H   0  0  0  0  0  0  0  0  0  0  0  0  # atno 6908 bound_to 6896
  151.0391  134.9609  159.8208 H   0  0  0  0  0  0  0  0  0  0  0  0  # atno 6909 bound_to 6896
  144.7923  140.4966  143.5764 H   0  0  0  0  0  0  0  0  0  0  0  0  # atno 7974 bound_to 7965
  155.4968  140.0572  157.2945 H   0  0  0  0  0  0  0  0  0  0  0  0  # atno 8008 bound_to 7997
  154.4602  140.1992  156.0216 H   0  0  0  0  0  0  0  0  0  0  0  0  # atno 8009 bound_to 7997
  156.0876  140.3238  155.7777 H   0  0  0  0  0  0  0  0  0  0  0  0  # atno 8010 bound_to 7997
  140.1856  144.4137  150.6594 H   0  0  0  0  0  0  0  0  0  0  0  0  # atno 10167 bound_to 10162
  155.9986  130.4792  150.4832 H   0  0  0  0  0  0  0  0  0  0  0  0  # atno 10718 bound_to 10713
  153.1363  135.6751  153.9097 H   0  0  0  0  0  0  0  0  0  0  0  0  # atno 10763 bound_to 10752
  153.8568  135.3086  155.3437 H   0  0  0  0  0  0  0  0  0  0  0  0  # atno 10764 bound_to 10752
  154.7750  135.4919  153.9809 H   0  0  0  0  0  0  0  0  0  0  0  0  # atno 10765 bound_to 10752
  141.1533  133.7789  156.9951 H   0  0  0  0  0  0  0  0  0  0  0  0  # atno 11005 bound_to 11000
  145.5763  139.1486  143.3260 LP  0  0  0  0  0  0  0  0  0  0  0  0  # atno 17320 bound_to 7965
  146.2179  140.5894  142.9030 LP  0  0  0  0  0  0  0  0  0  0  0  0  # atno 17321 bound_to 7965
  140.6490  143.2220  151.6120 LP  0  0  0  0  0  0  0  0  0  0  0  0  # atno 17342 bound_to 10162
  139.5277  144.3008  152.1074 LP  0  0  0  0  0  0  0  0  0  0  0  0  # atno 17343 bound_to 10162
  157.2835  131.0612  151.2182 LP  0  0  0  0  0  0  0  0  0  0  0  0  # atno 17370 bound_to 10713
  157.3219  130.6941  149.6274 LP  0  0  0  0  0  0  0  0  0  0  0  0  # atno 17371 bound_to 10713
  140.0977  134.9554  157.1875 LP  0  0  0  0  0  0  0  0  0  0  0  0  # atno 17394 bound_to 11000
  140.3360  134.2756  155.7220 LP  0  0  0  0  0  0  0  0  0  0  0  0  # atno 17395 bound_to 11000

$$$$
