AV-unprocessed.smi:86|AV-procd|sdf|819|dock10
  -GOLD-   2262017223D 1   1.00000     0.00000
 Structure written by MMmdl.
 51 55  0  0  0  0  0  0  0  0  1 V2000
  151.8627  133.1006  157.1502 O   0  0  0  0  0  0  0  0  0  0  0  0
  150.5762  133.6653  156.9949 C   0  0  0  0  0  0  0  0  0  0  0  0
  150.3290  134.1227  155.5489 C   0  0  0  0  0  0  0  0  0  0  0  0
  151.4462  135.1260  155.1745 C   0  0  0  0  0  0  0  0  0  0  0  0
  151.4391  136.3724  155.9264 N   0  0  0  0  0  0  0  0  0  0  0  0
  151.7289  136.5335  157.2616 C   0  0  0  0  0  0  0  0  0  0  0  0
  151.6628  137.7603  157.7001 N   0  0  0  0  0  0  0  0  0  0  0  0
  151.3193  138.5117  156.5810 C   0  0  0  0  0  0  0  0  0  0  0  0
  151.0886  139.8985  156.3344 C   0  0  0  0  0  0  0  0  0  0  0  0
  151.1606  140.8739  157.2760 N   0  0  0  0  0  0  0  0  0  0  0  0
  152.0656  140.8408  158.4199 C   0  0  0  0  0  0  0  0  0  0  0  0
  151.7361  142.1296  159.1714 C   0  0  1  0  0  0  0  0  0  0  0  0
  152.7898  142.7313  160.1085 C   0  0  0  0  0  0  0  0  0  0  0  0
  152.2583  144.0688  160.6687 C   0  0  0  0  0  0  0  0  0  0  0  0
  151.8052  145.0394  159.5497 C   0  0  2  0  0  0  0  0  0  0  0  0
  151.2140  146.1836  160.1283 O   0  0  0  0  0  0  0  0  0  0  0  0
  150.8072  144.3859  158.5663 C   0  0  0  0  0  0  0  0  0  0  0  0
  151.4205  143.0870  158.0299 C   0  0  2  0  0  0  0  0  0  0  0  0
  150.5931  142.2090  157.0903 C   0  0  0  0  0  0  0  0  0  0  0  0
  150.7665  140.2581  155.0639 N   0  0  0  0  0  0  0  0  0  0  0  0
  150.6788  139.3396  154.0985 C   0  0  0  0  0  0  0  0  0  0  0  0
  150.8671  138.0223  154.1820 N   0  0  0  0  0  0  0  0  0  0  0  0
  151.1855  137.6490  155.4542 C   0  0  0  0  0  0  0  0  0  0  0  0
  150.0350  132.9703  154.5715 C   0  0  0  0  0  0  0  0  0  0  0  0
  148.6146  133.2180  154.6198 O   0  0  0  0  0  0  0  0  0  0  0  0
  148.8727  134.5004  155.2286 C   0  0  0  0  0  0  0  0  0  0  0  0
  151.8044  132.1715  156.9864 H   0  0  0  0  0  0  0  0  0  0  0  0
  149.8304  132.9344  157.3086 H   0  0  0  0  0  0  0  0  0  0  0  0
  150.4944  134.5052  157.6859 H   0  0  0  0  0  0  0  0  0  0  0  0
  152.4279  134.6718  155.3139 H   0  0  0  0  0  0  0  0  0  0  0  0
  151.3884  135.3805  154.1156 H   0  0  0  0  0  0  0  0  0  0  0  0
  151.9894  135.7064  157.9062 H   0  0  0  0  0  0  0  0  0  0  0  0
  151.9012  139.9631  159.0454 H   0  0  0  0  0  0  0  0  0  0  0  0
  153.0992  140.8393  158.0714 H   0  0  0  0  0  0  0  0  0  0  0  0
  150.8236  141.9538  159.7453 H   0  0  0  0  0  0  0  0  0  0  0  0
  153.0123  142.0418  160.9233 H   0  0  0  0  0  0  0  0  0  0  0  0
  153.7234  142.8966  159.5694 H   0  0  0  0  0  0  0  0  0  0  0  0
  151.4173  143.8632  161.3325 H   0  0  0  0  0  0  0  0  0  0  0  0
  153.0253  144.5401  161.2848 H   0  0  0  0  0  0  0  0  0  0  0  0
  152.6843  145.3680  158.9937 H   0  0  0  0  0  0  0  0  0  0  0  0
  151.7161  146.4278  160.8906 H   0  0  0  0  0  0  0  0  0  0  0  0
  149.8633  144.1717  159.0699 H   0  0  0  0  0  0  0  0  0  0  0  0
  150.5819  145.0657  157.7439 H   0  0  0  0  0  0  0  0  0  0  0  0
  152.3508  143.3336  157.5138 H   0  0  0  0  0  0  0  0  0  0  0  0
  150.6652  142.5584  156.0596 H   0  0  0  0  0  0  0  0  0  0  0  0
  149.5421  142.1957  157.3811 H   0  0  0  0  0  0  0  0  0  0  0  0
  150.4197  139.7143  153.1193 H   0  0  0  0  0  0  0  0  0  0  0  0
  150.4223  133.0973  153.5616 H   0  0  0  0  0  0  0  0  0  0  0  0
  150.3008  131.9857  154.9575 H   0  0  0  0  0  0  0  0  0  0  0  0
  148.2555  134.6749  156.1105 H   0  0  0  0  0  0  0  0  0  0  0  0
  148.7528  135.3132  154.5134 H   0  0  0  0  0  0  0  0  0  0  0  0
  1  2  1  0  0  0  0
  1 27  1  0  0  0  0
  2  3  1  0  0  0  0
  2 28  1  0  0  0  0
  2 29  1  0  0  0  0
  3 26  1  0  0  0  0
  3  4  1  0  0  0  0
  3 24  1  0  0  0  0
  4  5  1  0  0  0  0
  4 30  1  0  0  0  0
  4 31  1  0  0  0  0
  5 23  1  0  0  0  0
  5  6  1  0  0  0  0
  6  7  2  0  0  0  0
  6 32  1  0  0  0  0
  7  8  1  0  0  0  0
  8 23  2  0  0  0  0
  8  9  1  0  0  0  0
  9 10  1  0  0  0  0
  9 20  2  0  0  0  0
 10 19  1  0  0  0  0
 10 11  1  0  0  0  0
 11 12  1  0  0  0  0
 11 33  1  0  0  0  0
 11 34  1  0  0  0  0
 12 18  1  0  0  0  0
 12 13  1  0  0  0  0
 12 35  1  0  0  0  0
 13 14  1  0  0  0  0
 13 36  1  0  0  0  0
 13 37  1  0  0  0  0
 14 15  1  0  0  0  0
 14 38  1  0  0  0  0
 14 39  1  0  0  0  0
 15 16  1  0  0  0  0
 15 17  1  0  0  0  0
 15 40  1  0  0  0  0
 16 41  1  0  0  0  0
 17 18  1  0  0  0  0
 17 42  1  0  0  0  0
 17 43  1  0  0  0  0
 18 19  1  0  0  0  0
 18 44  1  0  0  0  0
 19 45  1  0  0  0  0
 19 46  1  0  0  0  0
 20 21  1  0  0  0  0
 21 22  2  0  0  0  0
 21 47  1  0  0  0  0
 22 23  1  0  0  0  0
 24 25  1  0  0  0  0
 24 48  1  0  0  0  0
 24 49  1  0  0  0  0
 25 26  1  0  0  0  0
 26 50  1  0  0  0  0
 26 51  1  0  0  0  0
M  END
> <s_m_source_file>
AV-unprocessed.smi

> <i_m_source_file_index>
86

> <i_lp_mmshare_version>
43012

> <i_f3d_flags>
0

> <s_epik_input>
W0NIMl0xT1tDSDJdQzEoW0NIMl1bT0hdKVtDSDJdbihbY0hdbjIpYyhjMjMpbltjSF1uYzNOKFtDSDJdNClbQ0gyXVtDQEBIXShbQ0BIXTQ1KVtDSDJdW0NASF0oW09IXSlbQ0gyXVtDSDJdNQ==

> <s_epik_cmdline>
J2VwaWtfcHl0aG9uJywgJy1waCcsICc3LjAnLCAnLXRuJywgJzgnLCAnLW1hJywgJzIwMCcsICctbWV0YWxfYmluZGluZycsICctaW1hZScsICc8aW5maWxlLm1hZT4nLCAnLW9tYWUnLCAnPG91dGZpbGUubWFlPic=

> <r_lp_tautomer_probability>
1

> <r_epik_Ionization_Penalty>
0.00425795

> <r_epik_Ionization_Penalty_Charging>
0

> <r_epik_Ionization_Penalty_Neutral>
0.00425795

> <r_epik_State_Penalty>
0.00299946

> <r_epik_Charging_Adjusted_Penalty>
0.00299946

> <i_epik_Tot_Q>
0

> <i_epik_Tot_abs_Q>
0

> <r_epik_Metal_State_Penalty>
-0

> <b_epik_Metal_Only>
0

> <s_lp_Force_Field>
OPLS_2005

> <r_lp_Energy>
53.3624

> <b_lp_Chiralities_Consistent>
1

> <s_lp_Variant>
AV-unprocessed.smi:86-8

> <Gold.Version>
5.8.1

> <Gold.Id.Protein>
6NUR|6NUR_protein|mol2

> <Gold.PLP.Fitness>
49.8487

> <Gold.PLP.PLP>
-44.4725

> <Gold.PLP.part.hbond>
-4.0000

> <Gold.PLP.part.metal>
0.0000

> <Gold.PLP.part.buried>
-4.8062

> <Gold.PLP.part.nonpolar>
-35.6263

> <Gold.PLP.part.repulsive>
0.3399

> <Gold.PLP.ligand.clash>
0.0000

> <Gold.PLP.ligand.torsion>
0.4993

> <Gold.PLP.Chemscore.Hbond>
1.0000

> <Gold.PLP.Chemscore.CHOScore>
1.0000

> <Gold.PLP.Chemscore.Metal>
0.0000

> <Gold.Chemscore.Hbonds>
donor molecule, donor type, donor heavy atom, donor atom, acceptor molecule, acceptor atom, score
      L1  C    21    47       P1  7957  1.00

> <Gold.PLP.Chemscore.Internal.Correction>
0.3747

> <Gold.Rescore>
     Score         DG    S(hbond)    S(metal)    S(lipo)     H(rot)  DE(clash)    DE(int)     intcor
     12.61     -13.72       0.96        0.00     103.59       2.76       0.36       0.75       ----

> <Gold.Chemscore.Fitness>
12.6062

> <Gold.Chemscore.DG>
-13.7166

> <Gold.Chemscore.ZeroCoef>
-5.4800

> <Gold.Chemscore.Hbond>
0.9550

> <Gold.Chemscore.Metal>
0.0000

> <Gold.Chemscore.Lipo>
103.5907

> <Gold.Chemscore.Internal_Hbond>
0.0000

> <Gold.Chemscore.DEClash>
0.3561

> <Gold.Chemscore.DEInternal>
0.7543

> <Gold.Chemscore.Rot>
2.7630

> <Gold.Chemscore.Internal.Correction>
   9.000000E+99

> <Gold.Chemscore.Hbond.Weighted>
-3.1899

> <Gold.Chemscore.Metal.Weighted>
-0.0000

> <Gold.Chemscore.Lipo.Weighted>
-12.1201

> <Gold.Chemscore.Internal_Hbond.Weighted>
0.0000

> <Gold.Chemscore.DEClash.Weighted>
0.3561

> <Gold.Chemscore.DEInternal.Weighted>
0.7543

> <Gold.Chemscore.Rot.Weighted>
7.0734

> <Gold.Chemscore.Internal.Correction.Weighted>
   9.000000E+99

> <Gold.Protein.RotatedTorsions>
[ 6907 6896 6895 6894 ] final  -28.51 input  -60.11 | X-H torsion
[ 7974 7965 7964 7962 ] final  -23.62 input  175.53 | X-H torsion
[ 8008 7997 7996 7995 ] final  -30.61 input   59.86 | X-H torsion
[ 10167 10162 10161 10158 ] final   67.98 input  -65.29 | X-H torsion
[ 10718 10713 10712 10709 ] final   66.09 input   66.30 | X-H torsion
[ 10763 10752 10751 10750 ] final -162.85 input  -60.55 | X-H torsion
[ 11005 11000 10999 10996 ] final  -68.38 input  -57.11 | X-H torsion

> <Gold.Protein.ActiveResidues>
 VAL166  LYS551  ARG553  GLY616  TRP617  ASP618  TYR619  PRO620  LYS621  CYS622 
 ASP623  PHE694  ASN695  SER759  ASP760  ASP761  ALA762  ILE779  LEU786  VAL792 
 PHE793  MET794  SER795  GLU796  ALA797  LYS798  CYS799  TRP800  GLU811  SER814 

> <Gold.Protein.RotatedAtoms>
  151.1319  135.0135  159.8586 H   0  0  0  0  0  0  0  0  0  0  0  0  # atno 6907 bound_to 6896
  152.5451  134.1600  159.8564 H   0  0  0  0  0  0  0  0  0  0  0  0  # atno 6908 bound_to 6896
  151.1667  133.4765  159.2627 H   0  0  0  0  0  0  0  0  0  0  0  0  # atno 6909 bound_to 6896
  146.1605  140.4641  142.8573 H   0  0  0  0  0  0  0  0  0  0  0  0  # atno 7974 bound_to 7965
  154.4244  140.1787  156.1434 H   0  0  0  0  0  0  0  0  0  0  0  0  # atno 8008 bound_to 7997
  155.9973  140.3363  155.6786 H   0  0  0  0  0  0  0  0  0  0  0  0  # atno 8009 bound_to 7997
  155.6291  140.0668  157.2645 H   0  0  0  0  0  0  0  0  0  0  0  0  # atno 8010 bound_to 7997
  140.0836  144.5049  150.7145 H   0  0  0  0  0  0  0  0  0  0  0  0  # atno 10167 bound_to 10162
  157.6147  130.9249  150.0062 H   0  0  0  0  0  0  0  0  0  0  0  0  # atno 10718 bound_to 10713
  154.7176  135.3019  154.9098 H   0  0  0  0  0  0  0  0  0  0  0  0  # atno 10763 bound_to 10752
  153.9980  135.6710  153.4761 H   0  0  0  0  0  0  0  0  0  0  0  0  # atno 10764 bound_to 10752
  153.0807  135.5010  154.8412 H   0  0  0  0  0  0  0  0  0  0  0  0  # atno 10765 bound_to 10752
  141.1530  133.6739  156.6437 H   0  0  0  0  0  0  0  0  0  0  0  0  # atno 11005 bound_to 11000
  144.8020  140.6231  143.6472 LP  0  0  0  0  0  0  0  0  0  0  0  0  # atno 17320 bound_to 7965
  145.4601  139.1514  143.3871 LP  0  0  0  0  0  0  0  0  0  0  0  0  # atno 17321 bound_to 7965
  140.7065  143.2472  151.4710 LP  0  0  0  0  0  0  0  0  0  0  0  0  # atno 17342 bound_to 10162
  139.5765  144.1807  152.1910 LP  0  0  0  0  0  0  0  0  0  0  0  0  # atno 17343 bound_to 10162
  156.1264  130.3644  149.9803 LP  0  0  0  0  0  0  0  0  0  0  0  0  # atno 17370 bound_to 10713
  156.7873  130.9243  151.3646 LP  0  0  0  0  0  0  0  0  0  0  0  0  # atno 17371 bound_to 10713
  140.3374  134.7878  157.4372 LP  0  0  0  0  0  0  0  0  0  0  0  0  # atno 17394 bound_to 11000
  140.0966  134.5528  155.8392 LP  0  0  0  0  0  0  0  0  0  0  0  0  # atno 17395 bound_to 11000

$$$$
