AV-unprocessed.smi:3018|AV-procd|sdf|11484|dock3
  -GOLD-   2272016423D 1   1.00000     0.00000
 Structure written by MMmdl.
 44 45  0  0  0  0  0  0  0  0  2 V2000
  152.2705  139.2402  155.0218 C   0  0  0  0  0  0  0  0  0  0  0  0
  151.2747  140.3065  155.4947 C   0  0  0  0  0  0  0  0  0  0  0  0
  150.9851  140.2215  157.0048 C   0  0  1  0  0  0  0  0  0  0  0  0
  150.5190  141.4991  157.4360 O   0  0  0  0  0  0  0  0  0  0  0  0
  151.4809  142.3485  158.0561 C   0  0  0  0  0  0  0  0  0  0  0  0
  152.0474  141.5950  159.2717 C   0  0  0  0  0  0  0  0  0  0  0  0
  153.0316  142.4693  160.0658 C   0  0  0  0  0  0  0  0  0  0  0  0
  152.3758  143.7897  160.5004 C   0  0  0  0  0  0  0  0  0  0  0  0
  151.8008  144.5475  159.2932 C   0  0  0  0  0  0  0  0  0  0  0  0
  150.8197  143.6699  158.4987 C   0  0  0  0  0  0  0  0  0  0  0  0
  149.9214  139.1549  157.3053 C   0  0  0  0  0  0  0  0  0  0  0  0
  148.7322  139.4670  157.3654 O   0  0  0  0  0  0  0  0  0  0  0  0
  150.3707  137.9038  157.4922 N   0  0  0  0  0  0  0  0  0  0  0  0
  149.5378  136.7256  157.7217 C   0  0  0  0  0  0  0  0  0  0  0  0
  149.4254  136.3813  159.2207 C   0  0  0  0  0  0  0  0  0  0  0  0
  148.0122  136.0704  159.6422 C   0  0  0  0  0  0  0  0  0  0  0  0
  147.2325  135.2125  159.0969 N   0  0  0  0  0  0  0  0  0  0  0  0
  146.1052  135.3292  159.8170 N   0  0  0  0  0  0  0  0  0  0  0  0
  146.2240  136.2458  160.7802 C   0  0  0  0  0  0  0  0  0  0  0  0
  145.3221  136.5254  161.5671 O   0  0  0  0  0  0  0  0  0  0  0  0
  147.4693  136.7457  160.6896 N   0  5  0  0  0  0  0  0  0  0  0  0
  145.3007  134.7596  159.5995 H   0  0  0  0  0  0  0  0  0  0  0  0
  152.4422  139.3191  153.9481 H   0  0  0  0  0  0  0  0  0  0  0  0
  151.8983  138.2360  155.2260 H   0  0  0  0  0  0  0  0  0  0  0  0
  153.2334  139.3494  155.5214 H   0  0  0  0  0  0  0  0  0  0  0  0
  151.6587  141.2960  155.2419 H   0  0  0  0  0  0  0  0  0  0  0  0
  150.3453  140.1871  154.9351 H   0  0  0  0  0  0  0  0  0  0  0  0
  151.9126  139.9610  157.5168 H   0  0  0  0  0  0  0  0  0  0  0  0
  152.3078  142.5645  157.3783 H   0  0  0  0  0  0  0  0  0  0  0  0
  151.2307  141.2822  159.9239 H   0  0  0  0  0  0  0  0  0  0  0  0
  152.5459  140.6828  158.9420 H   0  0  0  0  0  0  0  0  0  0  0  0
  153.3889  141.9263  160.9411 H   0  0  0  0  0  0  0  0  0  0  0  0
  153.9089  142.6808  159.4527 H   0  0  0  0  0  0  0  0  0  0  0  0
  151.5783  143.5831  161.2151 H   0  0  0  0  0  0  0  0  0  0  0  0
  153.1031  144.4140  161.0202 H   0  0  0  0  0  0  0  0  0  0  0  0
  151.2992  145.4552  159.6295 H   0  0  0  0  0  0  0  0  0  0  0  0
  152.6146  144.8667  158.6409 H   0  0  0  0  0  0  0  0  0  0  0  0
  150.4574  144.2272  157.6353 H   0  0  0  0  0  0  0  0  0  0  0  0
  149.9455  143.4524  159.1139 H   0  0  0  0  0  0  0  0  0  0  0  0
  151.3660  137.7482  157.4288 H   0  0  0  0  0  0  0  0  0  0  0  0
  148.5448  136.9541  157.3344 H   0  0  0  0  0  0  0  0  0  0  0  0
  149.8887  135.8622  157.1532 H   0  0  0  0  0  0  0  0  0  0  0  0
  150.0755  135.5380  159.4568 H   0  0  0  0  0  0  0  0  0  0  0  0
  149.8025  137.2196  159.8080 H   0  0  0  0  0  0  0  0  0  0  0  0
  1  2  1  0  0  0  0
  1 23  1  0  0  0  0
  1 24  1  0  0  0  0
  1 25  1  0  0  0  0
  2  3  1  0  0  0  0
  2 26  1  0  0  0  0
  2 27  1  0  0  0  0
  3  4  1  0  0  0  0
  3 11  1  0  0  0  0
  3 28  1  0  0  0  0
  4  5  1  0  0  0  0
  5 10  1  0  0  0  0
  5  6  1  0  0  0  0
  5 29  1  0  0  0  0
  6  7  1  0  0  0  0
  6 30  1  0  0  0  0
  6 31  1  0  0  0  0
  7  8  1  0  0  0  0
  7 32  1  0  0  0  0
  7 33  1  0  0  0  0
  8  9  1  0  0  0  0
  8 34  1  0  0  0  0
  8 35  1  0  0  0  0
  9 10  1  0  0  0  0
  9 36  1  0  0  0  0
  9 37  1  0  0  0  0
 10 38  1  0  0  0  0
 10 39  1  0  0  0  0
 11 12  2  0  0  0  0
 11 13  1  0  0  0  0
 13 14  1  0  0  0  0
 13 40  1  0  0  0  0
 14 15  1  0  0  0  0
 14 41  1  0  0  0  0
 14 42  1  0  0  0  0
 15 16  1  0  0  0  0
 15 43  1  0  0  0  0
 15 44  1  0  0  0  0
 16 21  1  0  0  0  0
 16 17  2  0  0  0  0
 17 18  1  0  0  0  0
 18 22  1  0  0  0  0
 18 19  1  0  0  0  0
 19 20  2  0  0  0  0
 19 21  1  0  0  0  0
M  CHG  1  21  -1
M  END
> <s_m_source_file>
AV-unprocessed.smi

> <i_m_source_file_index>
3018

> <i_lp_mmshare_version>
43012

> <i_f3d_flags>
0

> <s_epik_input>
W0NIMl0xW0NIMl1bQ0gyXVtDSDJdW0NIMl1bQ0hdMU9bQ0BASF0oW0NIMl1bQ0gzXSlDKD1PKVtOSF1bQ0gyXVtDSDJdYzJuW25IXWMoPU8pW25IXTI=

> <s_epik_cmdline>
J2VwaWtfcHl0aG9uJywgJy1waCcsICc3LjAnLCAnLXRuJywgJzgnLCAnLW1hJywgJzIwMCcsICctbWV0YWxfYmluZGluZycsICctaW1hZScsICc8aW5maWxlLm1hZT4nLCAnLW9tYWUnLCAnPG91dGZpbGUubWFlPic=

> <r_lp_tautomer_probability>
1

> <r_epik_Ionization_Penalty>
13.7173

> <r_epik_Ionization_Penalty_Charging>
13.7173

> <r_epik_Ionization_Penalty_Neutral>
5.37575e-06

> <r_epik_State_Penalty>
4.05785

> <r_epik_Charging_Adjusted_Penalty>
17.7751

> <i_epik_Tot_Q>
-1

> <i_epik_Tot_abs_Q>
1

> <r_epik_Metal_State_Penalty>
0.460256

> <b_epik_Metal_Only>
1

> <s_lp_Force_Field>
OPLS_2005

> <r_lp_Energy>
25.1559

> <b_lp_Chiralities_Consistent>
1

> <s_lp_Variant>
AV-unprocessed.smi:3018-6

> <Gold.Version>
5.8.1

> <Gold.Id.Protein>
6NUR|6NUR_protein|mol2

> <Gold.PLP.Fitness>
44.2140

> <Gold.PLP.PLP>
-36.8697

> <Gold.PLP.part.hbond>
-2.0000

> <Gold.PLP.part.metal>
0.0000

> <Gold.PLP.part.buried>
-4.9211

> <Gold.PLP.part.nonpolar>
-30.2376

> <Gold.PLP.part.repulsive>
0.1463

> <Gold.PLP.ligand.clash>
0.0000

> <Gold.PLP.ligand.torsion>
2.0460

> <Gold.PLP.Chemscore.Hbond>
3.7440

> <Gold.PLP.Chemscore.CHOScore>
0.0000

> <Gold.PLP.Chemscore.Metal>
0.0000

> <Gold.Chemscore.Hbonds>
donor molecule, donor type, donor heavy atom, donor atom, acceptor molecule, acceptor atom, score
      P1  H  6934  6947       L1    21  0.62

> <Gold.PLP.Chemscore.Internal.Correction>
0.2043

> <Gold.Rescore>
     Score         DG    S(hbond)    S(metal)    S(lipo)     H(rot)  DE(clash)    DE(int)     intcor
     11.02     -12.82       1.17        0.00      94.61       2.98       0.07       1.73       ----

> <Gold.Chemscore.Fitness>
11.0190

> <Gold.Chemscore.DG>
-12.8236

> <Gold.Chemscore.ZeroCoef>
-5.4800

> <Gold.Chemscore.Hbond>
1.1664

> <Gold.Chemscore.Metal>
0.0000

> <Gold.Chemscore.Lipo>
94.6100

> <Gold.Chemscore.Internal_Hbond>
0.0000

> <Gold.Chemscore.DEClash>
0.0738

> <Gold.Chemscore.DEInternal>
1.7307

> <Gold.Chemscore.Rot>
2.9772

> <Gold.Chemscore.Internal.Correction>
   9.000000E+99

> <Gold.Chemscore.Hbonds>
donor molecule, donor type, donor heavy atom, donor atom, acceptor molecule, acceptor atom, score
      P1  H  6931  6943       L1    21  0.02
      P1  H  6934  6947       L1    21  0.14

> <Gold.Chemscore.Hbond.Weighted>
-3.8958

> <Gold.Chemscore.Metal.Weighted>
-0.0000

> <Gold.Chemscore.Lipo.Weighted>
-11.0694

> <Gold.Chemscore.Internal_Hbond.Weighted>
0.0000

> <Gold.Chemscore.DEClash.Weighted>
0.0738

> <Gold.Chemscore.DEInternal.Weighted>
1.7307

> <Gold.Chemscore.Rot.Weighted>
7.6216

> <Gold.Chemscore.Internal.Correction.Weighted>
   9.000000E+99

> <Gold.Protein.RotatedTorsions>
[ 6907 6896 6895 6894 ] final    6.22 input  -60.11 | X-H torsion
[ 7974 7965 7964 7962 ] final   79.20 input  175.53 | X-H torsion
[ 8008 7997 7996 7995 ] final  -21.14 input   59.86 | X-H torsion
[ 10167 10162 10161 10158 ] final -178.81 input  -65.29 | X-H torsion
[ 10718 10713 10712 10709 ] final  -99.91 input   66.30 | X-H torsion
[ 10763 10752 10751 10750 ] final  159.28 input  -60.55 | X-H torsion
[ 11005 11000 10999 10996 ] final -150.12 input  -57.11 | X-H torsion

> <Gold.Protein.ActiveResidues>
 VAL166  LYS551  ARG553  GLY616  TRP617  ASP618  TYR619  PRO620  LYS621  CYS622 
 ASP623  PHE694  ASN695  SER759  ASP760  ASP761  ALA762  ILE779  LEU786  VAL792 
 PHE793  MET794  SER795  GLU796  ALA797  LYS798  CYS799  TRP800  GLU811  SER814 

> <Gold.Protein.RotatedAtoms>
  151.6702  135.0977  160.0196 H   0  0  0  0  0  0  0  0  0  0  0  0  # atno 6907 bound_to 6896
  152.3896  133.6655  159.6235 H   0  0  0  0  0  0  0  0  0  0  0  0  # atno 6908 bound_to 6896
  150.7814  133.8894  159.3350 H   0  0  0  0  0  0  0  0  0  0  0  0  # atno 6909 bound_to 6896
  145.6673  139.2487  143.1888 H   0  0  0  0  0  0  0  0  0  0  0  0  # atno 7974 bound_to 7965
  154.4724  140.2043  155.9961 H   0  0  0  0  0  0  0  0  0  0  0  0  # atno 8008 bound_to 7997
  156.1033  140.3240  155.7942 H   0  0  0  0  0  0  0  0  0  0  0  0  # atno 8009 bound_to 7997
  155.4760  140.0535  157.2964 H   0  0  0  0  0  0  0  0  0  0  0  0  # atno 8010 bound_to 7997
  139.5415  144.2350  152.0904 H   0  0  0  0  0  0  0  0  0  0  0  0  # atno 10167 bound_to 10162
  156.0147  130.5303  150.6739 H   0  0  0  0  0  0  0  0  0  0  0  0  # atno 10718 bound_to 10713
  154.2294  135.2779  155.2895 H   0  0  0  0  0  0  0  0  0  0  0  0  # atno 10763 bound_to 10752
  154.5637  135.5639  153.7034 H   0  0  0  0  0  0  0  0  0  0  0  0  # atno 10764 bound_to 10752
  153.0023  135.6304  154.2435 H   0  0  0  0  0  0  0  0  0  0  0  0  # atno 10765 bound_to 10752
  140.7435  134.3487  157.5142 H   0  0  0  0  0  0  0  0  0  0  0  0  # atno 11005 bound_to 11000
  146.1075  140.7469  142.9519 LP  0  0  0  0  0  0  0  0  0  0  0  0  # atno 17320 bound_to 7965
  144.7069  140.3886  143.7111 LP  0  0  0  0  0  0  0  0  0  0  0  0  # atno 17321 bound_to 7965
  140.1830  144.4826  150.6518 LP  0  0  0  0  0  0  0  0  0  0  0  0  # atno 17342 bound_to 10162
  140.6647  143.2263  151.5773 LP  0  0  0  0  0  0  0  0  0  0  0  0  # atno 17343 bound_to 10162
  157.4456  131.0866  151.0899 LP  0  0  0  0  0  0  0  0  0  0  0  0  # atno 17370 bound_to 10713
  157.1430  130.6151  149.5560 LP  0  0  0  0  0  0  0  0  0  0  0  0  # atno 17371 bound_to 10713
  139.8801  134.9096  156.2994 LP  0  0  0  0  0  0  0  0  0  0  0  0  # atno 17394 bound_to 11000
  140.9815  133.7264  156.0679 LP  0  0  0  0  0  0  0  0  0  0  0  0  # atno 17395 bound_to 11000

$$$$
