AV-unprocessed.smi:312|AV-procd|sdf|2305|dock5
  -GOLD-   2262022203D 1   1.00000     0.00000
 Structure written by MMmdl.
 36 37  0  0  0  0  0  0  0  0  2 V2000
  149.9028  139.3958  156.7110 C   0  0  0  0  0  0  0  0  0  0  0  0
  149.7190  140.8728  156.3377 C   0  0  2  0  0  0  0  0  0  0  0  0
  149.5953  141.0520  154.8090 C   0  0  0  0  0  0  0  0  0  0  0  0
  148.2163  141.2940  154.3709 N   0  0  0  0  0  0  0  0  0  0  0  0
  147.4171  142.3595  154.6972 C   0  0  0  0  0  0  0  0  0  0  0  0
  146.2253  142.1677  154.0471 C   0  0  0  0  0  0  0  0  0  0  0  0
  146.3450  140.9909  153.3571 N   0  3  0  0  0  0  0  0  0  0  0  0
  147.5544  140.4586  153.5595 C   0  0  0  0  0  0  0  0  0  0  0  0
  150.8466  141.6373  156.8701 N   0  0  0  0  0  0  0  0  0  0  0  0
  150.7880  142.5237  157.8769 C   0  0  0  0  0  0  0  0  0  0  0  0
  149.7451  142.7999  158.4713 O   0  0  0  0  0  0  0  0  0  0  0  0
  152.1076  143.2156  158.2558 C   0  0  0  0  0  0  0  0  0  0  0  0
  152.4434  143.0497  159.7556 C   0  0  0  0  0  0  0  0  0  0  0  0
  152.3471  144.4413  160.3989 C   0  0  0  0  0  0  0  0  0  0  0  0
  151.6262  145.3242  159.3822 C   0  0  0  0  0  0  0  0  0  0  0  0
  152.0286  144.7361  158.0311 C   0  0  0  0  0  0  0  0  0  0  0  0
  149.0614  138.7956  156.3636 H   0  0  0  0  0  0  0  0  0  0  0  0
  149.9711  139.2691  157.7920 H   0  0  0  0  0  0  0  0  0  0  0  0
  150.8102  138.9830  156.2688 H   0  0  0  0  0  0  0  0  0  0  0  0
  148.7933  141.2093  156.8085 H   0  0  0  0  0  0  0  0  0  0  0  0
  150.2242  141.8725  154.4591 H   0  0  0  0  0  0  0  0  0  0  0  0
  149.9373  140.1525  154.2955 H   0  0  0  0  0  0  0  0  0  0  0  0
  147.7503  143.1583  155.3440 H   0  0  0  0  0  0  0  0  0  0  0  0
  145.3255  142.7651  154.0234 H   0  0  0  0  0  0  0  0  0  0  0  0
  147.9268  139.5413  153.1393 H   0  0  0  0  0  0  0  0  0  0  0  0
  151.7467  141.4726  156.4426 H   0  0  0  0  0  0  0  0  0  0  0  0
  152.9108  142.7980  157.6464 H   0  0  0  0  0  0  0  0  0  0  0  0
  151.7631  142.3573  160.2547 H   0  0  0  0  0  0  0  0  0  0  0  0
  153.4463  142.6418  159.8861 H   0  0  0  0  0  0  0  0  0  0  0  0
  151.8351  144.4201  161.3615 H   0  0  0  0  0  0  0  0  0  0  0  0
  153.3511  144.8314  160.5711 H   0  0  0  0  0  0  0  0  0  0  0  0
  150.5473  145.2414  159.5177 H   0  0  0  0  0  0  0  0  0  0  0  0
  151.8932  146.3769  159.4782 H   0  0  0  0  0  0  0  0  0  0  0  0
  153.0129  145.1117  157.7479 H   0  0  0  0  0  0  0  0  0  0  0  0
  151.3360  145.0232  157.2383 H   0  0  0  0  0  0  0  0  0  0  0  0
  145.6240  140.5814  152.7762 H   0  0  0  0  0  0  0  0  0  0  0  0
  1  2  1  0  0  0  0
  1 17  1  0  0  0  0
  1 18  1  0  0  0  0
  1 19  1  0  0  0  0
  2  3  1  0  0  0  0
  2  9  1  0  0  0  0
  2 20  1  0  0  0  0
  3  4  1  0  0  0  0
  3 21  1  0  0  0  0
  3 22  1  0  0  0  0
  4  8  1  0  0  0  0
  4  5  1  0  0  0  0
  5  6  2  0  0  0  0
  5 23  1  0  0  0  0
  6  7  1  0  0  0  0
  6 24  1  0  0  0  0
  7  8  2  0  0  0  0
  7 36  1  0  0  0  0
  8 25  1  0  0  0  0
  9 10  1  0  0  0  0
  9 26  1  0  0  0  0
 10 11  2  0  0  0  0
 10 12  1  0  0  0  0
 12 16  1  0  0  0  0
 12 13  1  0  0  0  0
 12 27  1  0  0  0  0
 13 14  1  0  0  0  0
 13 28  1  0  0  0  0
 13 29  1  0  0  0  0
 14 15  1  0  0  0  0
 14 30  1  0  0  0  0
 14 31  1  0  0  0  0
 15 16  1  0  0  0  0
 15 32  1  0  0  0  0
 15 33  1  0  0  0  0
 16 34  1  0  0  0  0
 16 35  1  0  0  0  0
M  CHG  1   7   1
M  END
> <s_m_source_file>
AV-unprocessed.smi

> <i_m_source_file_index>
312

> <i_lp_mmshare_version>
43012

> <i_f3d_flags>
0

> <s_epik_input>
W2NIXTFuW2NIXVtjSF1uMVtDSDJdW0NAQEhdKFtDSDNdKVtOSF1DKD1PKVtDSF0yW0NIMl1bQ0gyXVtDSDJdW0NIMl0y

> <s_epik_cmdline>
J2VwaWtfcHl0aG9uJywgJy1waCcsICc3LjAnLCAnLXRuJywgJzgnLCAnLW1hJywgJzIwMCcsICctbWV0YWxfYmluZGluZycsICctaW1hZScsICc8aW5maWxlLm1hZT4nLCAnLW9tYWUnLCAnPG91dGZpbGUubWFlPic=

> <r_lp_tautomer_probability>
1

> <r_epik_Ionization_Penalty>
0.244425

> <r_epik_Ionization_Penalty_Charging>
0

> <r_epik_Ionization_Penalty_Neutral>
0.244425

> <r_epik_State_Penalty>
0.23553

> <r_epik_Charging_Adjusted_Penalty>
0.23553

> <i_epik_Tot_Q>
1

> <i_epik_Tot_abs_Q>
1

> <r_epik_Metal_State_Penalty>
0.528799

> <b_epik_Metal_Only>
0

> <s_lp_Force_Field>
OPLS_2005

> <r_lp_Energy>
22.6864

> <b_lp_Chiralities_Consistent>
1

> <s_lp_Variant>
AV-unprocessed.smi:312-1

> <Gold.Version>
5.8.1

> <Gold.Id.Protein>
6NUR|6NUR_protein|mol2

> <Gold.PLP.Fitness>
47.5810

> <Gold.PLP.PLP>
-37.0610

> <Gold.PLP.part.hbond>
-1.1076

> <Gold.PLP.part.metal>
0.0000

> <Gold.PLP.part.buried>
-1.9491

> <Gold.PLP.part.nonpolar>
-34.1309

> <Gold.PLP.part.repulsive>
0.1821

> <Gold.PLP.ligand.clash>
0.0000

> <Gold.PLP.ligand.torsion>
0.7337

> <Gold.PLP.Chemscore.Hbond>
2.0000

> <Gold.PLP.Chemscore.CHOScore>
1.9883

> <Gold.PLP.Chemscore.Metal>
0.0000

> <Gold.Chemscore.Hbonds>
donor molecule, donor type, donor heavy atom, donor atom, acceptor molecule, acceptor atom, score
      L1  H     7    36       P1 10175  1.76
      L1  C     5    23       P1  8028  0.73
      L1  C     8    25       P1  7957  0.45

> <Gold.PLP.Chemscore.Internal.Correction>
0.0225

> <Gold.Rescore>
     Score         DG    S(hbond)    S(metal)    S(lipo)     H(rot)  DE(clash)    DE(int)     intcor
     13.74     -14.36       0.95        0.00      88.58       1.82       0.02       0.60       ----

> <Gold.Chemscore.Fitness>
13.7414

> <Gold.Chemscore.DG>
-14.3620

> <Gold.Chemscore.ZeroCoef>
-5.4800

> <Gold.Chemscore.Hbond>
0.9539

> <Gold.Chemscore.Metal>
0.0000

> <Gold.Chemscore.Lipo>
88.5849

> <Gold.Chemscore.Internal_Hbond>
0.0000

> <Gold.Chemscore.DEClash>
0.0208

> <Gold.Chemscore.DEInternal>
0.5998

> <Gold.Chemscore.Rot>
1.8235

> <Gold.Chemscore.Internal.Correction>
   9.000000E+99

> <Gold.Chemscore.Hbonds>
donor molecule, donor type, donor heavy atom, donor atom, acceptor molecule, acceptor atom, score
      L1  H     7    36       P1 10175  0.56

> <Gold.Chemscore.Hbond.Weighted>
-3.1859

> <Gold.Chemscore.Metal.Weighted>
-0.0000

> <Gold.Chemscore.Lipo.Weighted>
-10.3644

> <Gold.Chemscore.Internal_Hbond.Weighted>
0.0000

> <Gold.Chemscore.DEClash.Weighted>
0.0208

> <Gold.Chemscore.DEInternal.Weighted>
0.5998

> <Gold.Chemscore.Rot.Weighted>
4.6683

> <Gold.Chemscore.Internal.Correction.Weighted>
   9.000000E+99

> <Gold.Protein.RotatedTorsions>
[ 6907 6896 6895 6894 ] final  -56.46 input  -60.11 | X-H torsion
[ 7974 7965 7964 7962 ] final   30.88 input  175.53 | X-H torsion
[ 8008 7997 7996 7995 ] final    1.88 input   59.86 | X-H torsion
[ 10167 10162 10161 10158 ] final  159.16 input  -65.29 | X-H torsion
[ 10718 10713 10712 10709 ] final  -46.13 input   66.30 | X-H torsion
[ 10763 10752 10751 10750 ] final  -36.12 input  -60.55 | X-H torsion
[ 11005 11000 10999 10996 ] final  146.35 input  -57.11 | X-H torsion

> <Gold.Protein.ActiveResidues>
 VAL166  LYS551  ARG553  GLY616  TRP617  ASP618  TYR619  PRO620  LYS621  CYS622 
 ASP623  PHE694  ASN695  SER759  ASP760  ASP761  ALA762  ILE779  LEU786  VAL792 
 PHE793  MET794  SER795  GLU796  ALA797  LYS798  CYS799  TRP800  GLU811  SER814 

> <Gold.Protein.RotatedAtoms>
  150.8166  134.7350  159.6734 H   0  0  0  0  0  0  0  0  0  0  0  0  # atno 6907 bound_to 6896
  152.4284  134.5822  159.9960 H   0  0  0  0  0  0  0  0  0  0  0  0  # atno 6908 bound_to 6896
  151.6017  133.3318  159.3085 H   0  0  0  0  0  0  0  0  0  0  0  0  # atno 6909 bound_to 6896
  146.1585  139.6730  142.9050 H   0  0  0  0  0  0  0  0  0  0  0  0  # atno 7974 bound_to 7965
  154.6850  140.2641  155.6870 H   0  0  0  0  0  0  0  0  0  0  0  0  # atno 8008 bound_to 7997
  156.2711  140.2802  156.1331 H   0  0  0  0  0  0  0  0  0  0  0  0  # atno 8009 bound_to 7997
  155.0977  140.0374  157.2678 H   0  0  0  0  0  0  0  0  0  0  0  0  # atno 8010 bound_to 7997
  139.4831  144.4756  151.8516 H   0  0  0  0  0  0  0  0  0  0  0  0  # atno 10167 bound_to 10162
  156.2213  130.4166  149.8989 H   0  0  0  0  0  0  0  0  0  0  0  0  # atno 10718 bound_to 10713
  153.8745  135.6827  153.4771 H   0  0  0  0  0  0  0  0  0  0  0  0  # atno 10763 bound_to 10752
  153.1268  135.4715  154.9283 H   0  0  0  0  0  0  0  0  0  0  0  0  # atno 10764 bound_to 10752
  154.7698  135.3235  154.8163 H   0  0  0  0  0  0  0  0  0  0  0  0  # atno 10765 bound_to 10752
  140.0786  134.9110  157.1464 H   0  0  0  0  0  0  0  0  0  0  0  0  # atno 11005 bound_to 11000
  145.4649  141.0434  143.2731 LP  0  0  0  0  0  0  0  0  0  0  0  0  # atno 17320 bound_to 7965
  144.7995  139.6169  143.7078 LP  0  0  0  0  0  0  0  0  0  0  0  0  # atno 17321 bound_to 7965
  140.4228  144.2220  150.5887 LP  0  0  0  0  0  0  0  0  0  0  0  0  # atno 17342 bound_to 10162
  140.4857  143.2364  151.8892 LP  0  0  0  0  0  0  0  0  0  0  0  0  # atno 17343 bound_to 10162
  156.6634  130.8791  151.3551 LP  0  0  0  0  0  0  0  0  0  0  0  0  # atno 17370 bound_to 10713
  157.7089  130.9417  150.1022 LP  0  0  0  0  0  0  0  0  0  0  0  0  # atno 17371 bound_to 10713
  140.3520  134.2588  155.7197 LP  0  0  0  0  0  0  0  0  0  0  0  0  # atno 17394 bound_to 11000
  141.2039  133.7901  157.0317 LP  0  0  0  0  0  0  0  0  0  0  0  0  # atno 17395 bound_to 11000

$$$$
