AV-unprocessed.smi:1226|AV-procd|sdf|5145|dock10
  -GOLD-   22720 4213D 1   1.00000     0.00000
 Structure written by MMmdl.
 37 38  0  0  0  0  0  0  0  0  1 V2000
  144.7592  135.6487  152.2867 C   0  0  0  0  0  0  0  0  0  0  0  0
  145.8706  134.6890  152.5400 C   0  0  0  0  0  0  0  0  0  0  0  0
  146.4198  134.4954  153.7418 N   0  0  0  0  0  0  0  0  0  0  0  0
  147.4376  133.5365  153.7206 C   0  0  0  0  0  0  0  0  0  0  0  0
  148.1616  133.1842  154.9843 C   0  0  0  0  0  0  0  0  0  0  0  0
  149.6342  133.6262  154.9511 C   0  0  0  0  0  0  0  0  0  0  0  0
  149.7830  134.9622  154.3858 N   0  0  0  0  0  0  0  0  0  0  0  0
  150.6000  135.9094  154.8664 C   0  0  0  0  0  0  0  0  0  0  0  0
  151.3268  135.7582  155.8487 O   0  0  0  0  0  0  0  0  0  0  0  0
  150.5313  137.0381  154.1471 N   0  0  0  0  0  0  0  0  0  0  0  0
  151.3154  138.2410  154.4024 C   0  0  0  0  0  0  0  0  0  0  0  0
  150.6367  139.1434  155.4456 C   0  0  1  0  0  0  0  0  0  0  0  0
  151.1605  138.9369  156.8655 C   0  0  0  0  0  0  0  0  0  0  0  0
  150.8104  140.2565  157.5136 C   0  0  0  0  0  0  0  0  0  0  0  0
  151.0857  141.2428  156.3821 C   0  0  0  0  0  0  0  0  0  0  0  0
  150.8784  140.5214  155.1704 O   0  0  0  0  0  0  0  0  0  0  0  0
  147.6544  133.0055  152.4736 C   0  0  0  0  0  0  0  0  0  0  0  0
  146.5851  133.6896  151.2807 S   0  0  0  0  0  0  0  0  0  0  0  0
  144.6830  136.3708  153.1003 H   0  0  0  0  0  0  0  0  0  0  0  0
  143.8150  135.1100  152.2064 H   0  0  0  0  0  0  0  0  0  0  0  0
  144.9354  136.1887  151.3565 H   0  0  0  0  0  0  0  0  0  0  0  0
  147.6593  133.6457  155.8354 H   0  0  0  0  0  0  0  0  0  0  0  0
  148.1075  132.1081  155.1545 H   0  0  0  0  0  0  0  0  0  0  0  0
  150.0416  133.6403  155.9624 H   0  0  0  0  0  0  0  0  0  0  0  0
  150.2343  132.9117  154.3851 H   0  0  0  0  0  0  0  0  0  0  0  0
  149.2254  135.1789  153.5727 H   0  0  0  0  0  0  0  0  0  0  0  0
  149.9034  137.0628  153.3572 H   0  0  0  0  0  0  0  0  0  0  0  0
  152.2908  137.9254  154.7731 H   0  0  0  0  0  0  0  0  0  0  0  0
  151.5008  138.7909  153.4781 H   0  0  0  0  0  0  0  0  0  0  0  0
  149.5571  138.9841  155.4387 H   0  0  0  0  0  0  0  0  0  0  0  0
  150.7086  138.0804  157.3662 H   0  0  0  0  0  0  0  0  0  0  0  0
  152.2429  138.8002  156.8615 H   0  0  0  0  0  0  0  0  0  0  0  0
  149.7526  140.2729  157.7790 H   0  0  0  0  0  0  0  0  0  0  0  0
  151.3928  140.4635  158.4116 H   0  0  0  0  0  0  0  0  0  0  0  0
  150.4446  142.1228  156.4356 H   0  0  0  0  0  0  0  0  0  0  0  0
  152.1233  141.5767  156.4102 H   0  0  0  0  0  0  0  0  0  0  0  0
  148.3749  132.2539  152.1863 H   0  0  0  0  0  0  0  0  0  0  0  0
  1  2  1  0  0  0  0
  1 19  1  0  0  0  0
  1 20  1  0  0  0  0
  1 21  1  0  0  0  0
  2 18  1  0  0  0  0
  2  3  2  0  0  0  0
  3  4  1  0  0  0  0
  4  5  1  0  0  0  0
  4 17  2  0  0  0  0
  5  6  1  0  0  0  0
  5 22  1  0  0  0  0
  5 23  1  0  0  0  0
  6  7  1  0  0  0  0
  6 24  1  0  0  0  0
  6 25  1  0  0  0  0
  7  8  1  0  0  0  0
  7 26  1  0  0  0  0
  8  9  2  0  0  0  0
  8 10  1  0  0  0  0
 10 11  1  0  0  0  0
 10 27  1  0  0  0  0
 11 12  1  0  0  0  0
 11 28  1  0  0  0  0
 11 29  1  0  0  0  0
 12 16  1  0  0  0  0
 12 13  1  0  0  0  0
 12 30  1  0  0  0  0
 13 14  1  0  0  0  0
 13 31  1  0  0  0  0
 13 32  1  0  0  0  0
 14 15  1  0  0  0  0
 14 33  1  0  0  0  0
 14 34  1  0  0  0  0
 15 16  1  0  0  0  0
 15 35  1  0  0  0  0
 15 36  1  0  0  0  0
 17 18  1  0  0  0  0
 17 37  1  0  0  0  0
M  END
> <s_m_source_file>
AV-unprocessed.smi

> <i_m_source_file_index>
1226

> <i_lp_mmshare_version>
43012

> <i_f3d_flags>
0

> <s_epik_input>
W0NIM11jMW5jKFtjSF1zMSlbQ0gyXVtDSDJdW05IXUMoPU8pW05IXVtDSDJdW0NAQEhdMltDSDJdW0NIMl1bQ0gyXU8y

> <s_epik_cmdline>
J2VwaWtfcHl0aG9uJywgJy1waCcsICc3LjAnLCAnLXRuJywgJzgnLCAnLW1hJywgJzIwMCcsICctbWV0YWxfYmluZGluZycsICctaW1hZScsICc8aW5maWxlLm1hZT4nLCAnLW9tYWUnLCAnPG91dGZpbGUubWFlPic=

> <r_epik_Ionization_Penalty>
0.00199722

> <r_epik_Ionization_Penalty_Charging>
0

> <r_epik_Ionization_Penalty_Neutral>
0.00199722

> <r_epik_State_Penalty>
0.00132705

> <r_epik_Charging_Adjusted_Penalty>
0.00132705

> <i_epik_Tot_Q>
0

> <i_epik_Tot_abs_Q>
0

> <r_epik_Metal_State_Penalty>
-0

> <b_epik_Metal_Only>
0

> <s_lp_Force_Field>
OPLS_2005

> <r_lp_Energy>
8.90451

> <b_lp_Chiralities_Consistent>
1

> <s_lp_Variant>
AV-unprocessed.smi:1226-2

> <Gold.Version>
5.8.1

> <Gold.Id.Protein>
6NUR|6NUR_protein|mol2

> <Gold.PLP.Fitness>
42.0478

> <Gold.PLP.PLP>
-29.5397

> <Gold.PLP.part.hbond>
-5.2356

> <Gold.PLP.part.metal>
0.0000

> <Gold.PLP.part.buried>
-2.7119

> <Gold.PLP.part.nonpolar>
-21.6750

> <Gold.PLP.part.repulsive>
0.3342

> <Gold.PLP.ligand.clash>
0.0000

> <Gold.PLP.ligand.torsion>
0.8949

> <Gold.PLP.Chemscore.Hbond>
3.7600

> <Gold.PLP.Chemscore.CHOScore>
1.0000

> <Gold.PLP.Chemscore.Metal>
0.0000

> <Gold.Chemscore.Hbonds>
donor molecule, donor type, donor heavy atom, donor atom, acceptor molecule, acceptor atom, score
      L1  H     7    26       P1  7948  0.99
      L1  H    10    27       P1  7948  1.00
      P1  H  7989  7998       L1    16  0.99
      P1  H 10752 10765       L1     9  1.00
      L1  C    17    37       P1 10747  1.00

> <Gold.PLP.Chemscore.Internal.Correction>
0.0178

> <Gold.Rescore>
     Score         DG    S(hbond)    S(metal)    S(lipo)     H(rot)  DE(clash)    DE(int)     intcor
     15.78     -16.90       2.77        0.00      56.74       1.75       0.46       0.65       ----

> <Gold.Chemscore.Fitness>
15.7817

> <Gold.Chemscore.DG>
-16.8983

> <Gold.Chemscore.ZeroCoef>
-5.4800

> <Gold.Chemscore.Hbond>
2.7716

> <Gold.Chemscore.Metal>
0.0000

> <Gold.Chemscore.Lipo>
56.7351

> <Gold.Chemscore.Internal_Hbond>
0.0000

> <Gold.Chemscore.DEClash>
0.4635

> <Gold.Chemscore.DEInternal>
0.6531

> <Gold.Chemscore.Rot>
1.7487

> <Gold.Chemscore.Internal.Correction>
   9.000000E+99

> <Gold.Chemscore.Hbonds>
donor molecule, donor type, donor heavy atom, donor atom, acceptor molecule, acceptor atom, score
      L1  H     7    26       P1  7948  0.23
      L1  H    10    27       P1  7948  0.33
      P1  H  7989  7998       L1    16  0.86
      P1  H 10752 10765       L1     9  0.38

> <Gold.Chemscore.Hbond.Weighted>
-9.2571

> <Gold.Chemscore.Metal.Weighted>
-0.0000

> <Gold.Chemscore.Lipo.Weighted>
-6.6380

> <Gold.Chemscore.Internal_Hbond.Weighted>
0.0000

> <Gold.Chemscore.DEClash.Weighted>
0.4635

> <Gold.Chemscore.DEInternal.Weighted>
0.6531

> <Gold.Chemscore.Rot.Weighted>
4.4768

> <Gold.Chemscore.Internal.Correction.Weighted>
   9.000000E+99

> <Gold.Protein.RotatedTorsions>
[ 6907 6896 6895 6894 ] final   10.62 input  -60.11 | X-H torsion
[ 7974 7965 7964 7962 ] final  166.25 input  175.53 | X-H torsion
[ 8008 7997 7996 7995 ] final   66.27 input   59.86 | X-H torsion
[ 10167 10162 10161 10158 ] final -163.31 input  -65.29 | X-H torsion
[ 10718 10713 10712 10709 ] final -171.47 input   66.30 | X-H torsion
[ 10763 10752 10751 10750 ] final -149.99 input  -60.55 | X-H torsion
[ 11005 11000 10999 10996 ] final  164.74 input  -57.11 | X-H torsion

> <Gold.Protein.ActiveResidues>
 VAL166  LYS551  ARG553  GLY616  TRP617  ASP618  TYR619  PRO620  LYS621  CYS622 
 ASP623  PHE694  ASN695  SER759  ASP760  ASP761  ALA762  ILE779  LEU786  VAL792 
 PHE793  MET794  SER795  GLU796  ALA797  LYS798  CYS799  TRP800  GLU811  SER814 

> <Gold.Protein.RotatedAtoms>
  151.7411  135.0854  160.0315 H   0  0  0  0  0  0  0  0  0  0  0  0  # atno 6907 bound_to 6896
  152.3479  133.6139  159.5931 H   0  0  0  0  0  0  0  0  0  0  0  0  # atno 6908 bound_to 6896
  150.7520  133.9537  159.3535 H   0  0  0  0  0  0  0  0  0  0  0  0  # atno 6909 bound_to 6896
  144.7470  139.8588  143.6379 H   0  0  0  0  0  0  0  0  0  0  0  0  # atno 7974 bound_to 7965
  155.6748  140.3497  155.4832 H   0  0  0  0  0  0  0  0  0  0  0  0  # atno 8008 bound_to 7997
  155.9657  140.1146  157.0879 H   0  0  0  0  0  0  0  0  0  0  0  0  # atno 8009 bound_to 7997
  154.4154  140.1167  156.5225 H   0  0  0  0  0  0  0  0  0  0  0  0  # atno 8010 bound_to 7997
  139.6329  144.0404  152.2031 H   0  0  0  0  0  0  0  0  0  0  0  0  # atno 10167 bound_to 10162
  156.7414  130.9343  151.3110 H   0  0  0  0  0  0  0  0  0  0  0  0  # atno 10718 bound_to 10713
  154.8145  135.3295  154.7214 H   0  0  0  0  0  0  0  0  0  0  0  0  # atno 10763 bound_to 10752
  153.7857  135.6915  153.4885 H   0  0  0  0  0  0  0  0  0  0  0  0  # atno 10764 bound_to 10752
  153.1950  135.4537  155.0143 H   0  0  0  0  0  0  0  0  0  0  0  0  # atno 10765 bound_to 10752
  140.2490  134.7992  157.3483 H   0  0  0  0  0  0  0  0  0  0  0  0  # atno 11005 bound_to 11000
  146.1363  139.4409  143.0137 LP  0  0  0  0  0  0  0  0  0  0  0  0  # atno 17320 bound_to 7965
  145.7087  141.0113  143.1465 LP  0  0  0  0  0  0  0  0  0  0  0  0  # atno 17321 bound_to 7965
  140.0074  144.6249  150.7676 LP  0  0  0  0  0  0  0  0  0  0  0  0  # atno 17342 bound_to 10162
  140.7449  143.2868  151.3441 LP  0  0  0  0  0  0  0  0  0  0  0  0  # atno 17343 bound_to 10162
  157.6817  130.9146  150.0283 LP  0  0  0  0  0  0  0  0  0  0  0  0  # atno 17370 bound_to 10713
  156.1462  130.3642  149.9506 LP  0  0  0  0  0  0  0  0  0  0  0  0  # atno 17371 bound_to 10713
  140.1577  134.4768  155.7916 LP  0  0  0  0  0  0  0  0  0  0  0  0  # atno 17394 bound_to 11000
  141.2203  133.6888  156.7490 LP  0  0  0  0  0  0  0  0  0  0  0  0  # atno 17395 bound_to 11000

$$$$
