AV-unprocessed.smi:1215|AV-procd|sdf|5095|dock9
  -GOLD-   22720 4143D 1   1.00000     0.00000
 Structure written by MMmdl.
 46 47  0  0  0  0  0  0  0  0  2 V2000
  151.4001  142.3547  157.4136 C   0  0  0  0  0  0  0  0  0  0  0  0
  151.1214  142.4983  155.9126 C   0  0  0  0  0  0  0  0  0  0  0  0
  150.7931  141.2236  155.3049 N   0  0  0  0  0  0  0  0  0  0  0  0
  149.6046  140.8394  154.7162 C   0  0  0  0  0  0  0  0  0  0  0  0
  149.8027  139.5572  154.2873 C   0  0  0  0  0  0  0  0  0  0  0  0
  148.9124  138.6874  153.6085 N   0  0  0  0  0  0  0  0  0  0  0  0
  147.5901  138.8463  153.4367 C   0  0  0  0  0  0  0  0  0  0  0  0
  146.9255  139.7867  153.8730 O   0  0  0  0  0  0  0  0  0  0  0  0
  147.0644  137.8374  152.7272 N   0  0  0  0  0  0  0  0  0  0  0  0
  145.6542  137.7136  152.3766 C   0  0  0  0  0  0  0  0  0  0  0  0
  145.3766  136.3962  151.6253 C   0  0  0  0  0  0  0  0  0  0  0  0
  146.1347  135.2343  152.1631 N   0  3  1  0  0  0  0  0  0  0  0  0
  146.0455  135.1548  153.6465 C   0  0  0  0  0  0  0  0  0  0  0  0
  146.9988  134.0906  154.2118 C   0  0  0  0  0  0  0  0  0  0  0  0
  146.7299  132.7214  153.5794 C   0  0  0  0  0  0  0  0  0  0  0  0
  146.8098  132.8303  152.0508 C   0  0  0  0  0  0  0  0  0  0  0  0
  145.8724  133.9217  151.4909 C   0  0  1  0  0  0  0  0  0  0  0  0
  144.3897  133.4918  151.5256 C   0  0  0  0  0  0  0  0  0  0  0  0
  151.1349  139.2291  154.6502 C   0  0  0  0  0  0  0  0  0  0  0  0
  151.7270  140.2412  155.2653 N   0  0  0  0  0  0  0  0  0  0  0  0
  151.6546  143.3186  157.8543 H   0  0  0  0  0  0  0  0  0  0  0  0
  152.2327  141.6746  157.5959 H   0  0  0  0  0  0  0  0  0  0  0  0
  150.5285  141.9671  157.9420 H   0  0  0  0  0  0  0  0  0  0  0  0
  150.2972  143.1928  155.7432 H   0  0  0  0  0  0  0  0  0  0  0  0
  151.9939  142.9122  155.4057 H   0  0  0  0  0  0  0  0  0  0  0  0
  148.7539  141.5021  154.6566 H   0  0  0  0  0  0  0  0  0  0  0  0
  149.3285  137.8590  153.2087 H   0  0  0  0  0  0  0  0  0  0  0  0
  147.6832  137.1075  152.4046 H   0  0  0  0  0  0  0  0  0  0  0  0
  145.0619  137.7894  153.2887 H   0  0  0  0  0  0  0  0  0  0  0  0
  145.3810  138.5649  151.7527 H   0  0  0  0  0  0  0  0  0  0  0  0
  144.3109  136.1808  151.7141 H   0  0  0  0  0  0  0  0  0  0  0  0
  145.5682  136.5050  150.5576 H   0  0  0  0  0  0  0  0  0  0  0  0
  146.3043  136.1213  154.0806 H   0  0  0  0  0  0  0  0  0  0  0  0
  145.0190  134.9456  153.9494 H   0  0  0  0  0  0  0  0  0  0  0  0
  148.0318  134.3860  154.0224 H   0  0  0  0  0  0  0  0  0  0  0  0
  146.8889  134.0287  155.2949 H   0  0  0  0  0  0  0  0  0  0  0  0
  147.4546  131.9917  153.9420 H   0  0  0  0  0  0  0  0  0  0  0  0
  145.7468  132.3582  153.8807 H   0  0  0  0  0  0  0  0  0  0  0  0
  147.8371  133.0627  151.7666 H   0  0  0  0  0  0  0  0  0  0  0  0
  146.5832  131.8653  151.5956 H   0  0  0  0  0  0  0  0  0  0  0  0
  146.1450  134.0258  150.4415 H   0  0  0  0  0  0  0  0  0  0  0  0
  144.2606  132.5191  151.0504 H   0  0  0  0  0  0  0  0  0  0  0  0
  143.7528  134.1896  150.9826 H   0  0  0  0  0  0  0  0  0  0  0  0
  144.0051  133.4086  152.5417 H   0  0  0  0  0  0  0  0  0  0  0  0
  151.6813  138.3112  154.4905 H   0  0  0  0  0  0  0  0  0  0  0  0
  147.1049  135.4403  151.9718 H   0  0  0  0  0  0  0  0  0  0  0  0
  1  2  1  0  0  0  0
  1 21  1  0  0  0  0
  1 22  1  0  0  0  0
  1 23  1  0  0  0  0
  2  3  1  0  0  0  0
  2 24  1  0  0  0  0
  2 25  1  0  0  0  0
  3 20  1  0  0  0  0
  3  4  1  0  0  0  0
  4  5  2  0  0  0  0
  4 26  1  0  0  0  0
  5  6  1  0  0  0  0
  5 19  1  0  0  0  0
  6  7  1  0  0  0  0
  6 27  1  0  0  0  0
  7  8  2  0  0  0  0
  7  9  1  0  0  0  0
  9 10  1  0  0  0  0
  9 28  1  0  0  0  0
 10 11  1  0  0  0  0
 10 29  1  0  0  0  0
 10 30  1  0  0  0  0
 11 12  1  0  0  0  0
 11 31  1  0  0  0  0
 11 32  1  0  0  0  0
 12 17  1  0  0  0  0
 12 13  1  0  0  0  0
 12 46  1  0  0  0  0
 13 14  1  0  0  0  0
 13 33  1  0  0  0  0
 13 34  1  0  0  0  0
 14 15  1  0  0  0  0
 14 35  1  0  0  0  0
 14 36  1  0  0  0  0
 15 16  1  0  0  0  0
 15 37  1  0  0  0  0
 15 38  1  0  0  0  0
 16 17  1  0  0  0  0
 16 39  1  0  0  0  0
 16 40  1  0  0  0  0
 17 18  1  0  0  0  0
 17 41  1  0  0  0  0
 18 42  1  0  0  0  0
 18 43  1  0  0  0  0
 18 44  1  0  0  0  0
 19 20  2  0  0  0  0
 19 45  1  0  0  0  0
M  CHG  1  12   1
M  END
> <s_m_source_file>
AV-unprocessed.smi

> <i_m_source_file_index>
1215

> <i_lp_mmshare_version>
43012

> <i_f3d_flags>
0

> <s_epik_input>
W0NIM11bQ0gyXW4xW2NIXWMoW2NIXW4xKVtOSF1DKD1PKVtOSF1bQ0gyXVtDSDJdTjJbQ0gyXVtDSDJdW0NIMl1bQ0gyXVtDQEhdMltDSDNd

> <s_epik_cmdline>
J2VwaWtfcHl0aG9uJywgJy1waCcsICc3LjAnLCAnLXRuJywgJzgnLCAnLW1hJywgJzIwMCcsICctbWV0YWxfYmluZGluZycsICctaW1hZScsICc8aW5maWxlLm1hZT4nLCAnLW9tYWUnLCAnPG91dGZpbGUubWFlPic=

> <r_lp_tautomer_probability>
1

> <r_epik_Ionization_Penalty>
0.00247187

> <r_epik_Ionization_Penalty_Charging>
0.00232067

> <r_epik_Ionization_Penalty_Neutral>
0.000151201

> <r_epik_State_Penalty>
0.00160128

> <r_epik_Charging_Adjusted_Penalty>
0.00392194

> <i_epik_Tot_Q>
1

> <i_epik_Tot_abs_Q>
1

> <r_epik_Metal_State_Penalty>
-0

> <b_epik_Metal_Only>
0

> <s_lp_Force_Field>
OPLS_2005

> <r_lp_Energy>
23.8911

> <b_lp_Chiralities_Consistent>
1

> <s_lp_Variant>
AV-unprocessed.smi:1215-2

> <Gold.Version>
5.8.1

> <Gold.Id.Protein>
6NUR|6NUR_protein|mol2

> <Gold.PLP.Fitness>
47.5838

> <Gold.PLP.PLP>
-36.1994

> <Gold.PLP.part.hbond>
-5.0000

> <Gold.PLP.part.metal>
0.0000

> <Gold.PLP.part.buried>
-0.2555

> <Gold.PLP.part.nonpolar>
-30.3487

> <Gold.PLP.part.repulsive>
0.3150

> <Gold.PLP.ligand.clash>
0.0000

> <Gold.PLP.ligand.torsion>
0.1976

> <Gold.PLP.Chemscore.Hbond>
3.9120

> <Gold.PLP.Chemscore.CHOScore>
0.0000

> <Gold.PLP.Chemscore.Metal>
0.0000

> <Gold.Chemscore.Hbonds>
donor molecule, donor type, donor heavy atom, donor atom, acceptor molecule, acceptor atom, score
      L1  H     6    27       P1  7948  0.70
      L1  H     9    28       P1  7948  1.00
      L1  H    12    46       P1  7948  2.00

> <Gold.PLP.Chemscore.Internal.Correction>
0.0434

> <Gold.Rescore>
     Score         DG    S(hbond)    S(metal)    S(lipo)     H(rot)  DE(clash)    DE(int)     intcor
     18.58     -19.82       2.79        0.00      77.72       1.59       0.03       1.22       ----

> <Gold.Chemscore.Fitness>
18.5781

> <Gold.Chemscore.DG>
-19.8244

> <Gold.Chemscore.ZeroCoef>
-5.4800

> <Gold.Chemscore.Hbond>
2.7915

> <Gold.Chemscore.Metal>
0.0000

> <Gold.Chemscore.Lipo>
77.7218

> <Gold.Chemscore.Internal_Hbond>
0.0000

> <Gold.Chemscore.DEClash>
0.0306

> <Gold.Chemscore.DEInternal>
1.2156

> <Gold.Chemscore.Rot>
1.5909

> <Gold.Chemscore.Internal.Correction>
   9.000000E+99

> <Gold.Chemscore.Hbonds>
donor molecule, donor type, donor heavy atom, donor atom, acceptor molecule, acceptor atom, score
      L1  H     6    27       P1  7948  0.66
      L1  H     9    28       P1  7948  0.99
      L1  H    12    46       P1  7948  0.97

> <Gold.Chemscore.Hbond.Weighted>
-9.3237

> <Gold.Chemscore.Metal.Weighted>
-0.0000

> <Gold.Chemscore.Lipo.Weighted>
-9.0935

> <Gold.Chemscore.Internal_Hbond.Weighted>
0.0000

> <Gold.Chemscore.DEClash.Weighted>
0.0306

> <Gold.Chemscore.DEInternal.Weighted>
1.2156

> <Gold.Chemscore.Rot.Weighted>
4.0728

> <Gold.Chemscore.Internal.Correction.Weighted>
   9.000000E+99

> <Gold.Protein.RotatedTorsions>
[ 6907 6896 6895 6894 ] final   11.85 input  -60.11 | X-H torsion
[ 7974 7965 7964 7962 ] final   34.82 input  175.53 | X-H torsion
[ 8008 7997 7996 7995 ] final  -65.65 input   59.86 | X-H torsion
[ 10167 10162 10161 10158 ] final -173.54 input  -65.29 | X-H torsion
[ 10718 10713 10712 10709 ] final  136.67 input   66.30 | X-H torsion
[ 10763 10752 10751 10750 ] final    7.40 input  -60.55 | X-H torsion
[ 11005 11000 10999 10996 ] final   28.27 input  -57.11 | X-H torsion

> <Gold.Protein.ActiveResidues>
 VAL166  LYS551  ARG553  GLY616  TRP617  ASP618  TYR619  PRO620  LYS621  CYS622 
 ASP623  PHE694  ASN695  SER759  ASP760  ASP761  ALA762  ILE779  LEU786  VAL792 
 PHE793  MET794  SER795  GLU796  ALA797  LYS798  CYS799  TRP800  GLU811  SER814 

> <Gold.Protein.RotatedAtoms>
  151.7609  135.0810  160.0345 H   0  0  0  0  0  0  0  0  0  0  0  0  # atno 6907 bound_to 6896
  152.3354  133.6001  159.5847 H   0  0  0  0  0  0  0  0  0  0  0  0  # atno 6908 bound_to 6896
  150.7447  133.9720  159.3590 H   0  0  0  0  0  0  0  0  0  0  0  0  # atno 6909 bound_to 6896
  146.1326  139.6220  142.9216 H   0  0  0  0  0  0  0  0  0  0  0  0  # atno 7974 bound_to 7965
  154.4685  140.0929  156.7082 H   0  0  0  0  0  0  0  0  0  0  0  0  # atno 8008 bound_to 7997
  155.4791  140.3467  155.4319 H   0  0  0  0  0  0  0  0  0  0  0  0  # atno 8009 bound_to 7997
  156.0998  140.1419  156.9471 H   0  0  0  0  0  0  0  0  0  0  0  0  # atno 8010 bound_to 7997
  139.5682  144.1704  152.1345 H   0  0  0  0  0  0  0  0  0  0  0  0  # atno 10167 bound_to 10162
  157.4442  131.1060  151.0108 H   0  0  0  0  0  0  0  0  0  0  0  0  # atno 10718 bound_to 10713
  153.2367  135.6899  153.7829 H   0  0  0  0  0  0  0  0  0  0  0  0  # atno 10763 bound_to 10752
  153.6973  135.3303  155.3217 H   0  0  0  0  0  0  0  0  0  0  0  0  # atno 10764 bound_to 10752
  154.8338  135.4559  154.1273 H   0  0  0  0  0  0  0  0  0  0  0  0  # atno 10765 bound_to 10752
  140.3174  134.2582  155.7723 H   0  0  0  0  0  0  0  0  0  0  0  0  # atno 11005 bound_to 11000
  145.5227  141.0431  143.2426 LP  0  0  0  0  0  0  0  0  0  0  0  0  # atno 17320 bound_to 7965
  144.7706  139.6743  143.7196 LP  0  0  0  0  0  0  0  0  0  0  0  0  # atno 17321 bound_to 7965
  140.1231  144.5355  150.6850 LP  0  0  0  0  0  0  0  0  0  0  0  0  # atno 17342 bound_to 10162
  140.6966  143.2408  151.4982 LP  0  0  0  0  0  0  0  0  0  0  0  0  # atno 17343 bound_to 10162
  157.0961  130.5962  149.5450 LP  0  0  0  0  0  0  0  0  0  0  0  0  # atno 17370 bound_to 10713
  155.9961  130.5029  150.7483 LP  0  0  0  0  0  0  0  0  0  0  0  0  # atno 17371 bound_to 10713
  141.2094  133.7748  156.9996 LP  0  0  0  0  0  0  0  0  0  0  0  0  # atno 17394 bound_to 11000
  140.0972  134.9557  157.1867 LP  0  0  0  0  0  0  0  0  0  0  0  0  # atno 17395 bound_to 11000

$$$$
