AV-unprocessed.smi:264|AV-procd|sdf|2009|dock8
  -GOLD-   2262021203D 1   1.00000     0.00000
 Structure written by MMmdl.
 52 56  0  0  0  0  0  0  0  0  1 V2000
  149.1358  123.7077  152.5387 C   0  0  0  0  0  0  0  0  0  0  0  0
  148.4899  124.8985  151.8115 C   0  0  2  0  0  0  0  0  0  0  0  0
  148.6053  124.7473  150.3968 O   0  0  0  0  0  0  0  0  0  0  0  0
  149.2664  125.8735  149.8373 C   0  0  0  0  0  0  0  0  0  0  0  0
  148.9727  127.0049  150.8130 C   0  0  0  0  0  0  0  0  0  0  0  0
  149.0360  126.3023  152.1617 C   0  0  2  0  0  0  0  0  0  0  0  0
  150.3954  126.2313  152.5650 O   0  0  0  0  0  0  0  0  0  0  0  0
  148.2249  127.0033  153.2779 C   0  0  0  0  0  0  0  0  0  0  0  0
  147.4725  128.1569  152.8093 N   0  0  0  0  0  0  0  0  0  0  0  0
  146.3251  128.1331  152.0486 C   0  0  0  0  0  0  0  0  0  0  0  0
  145.8221  129.3027  151.7633 N   0  0  0  0  0  0  0  0  0  0  0  0
  146.6961  130.2032  152.3610 C   0  0  0  0  0  0  0  0  0  0  0  0
  146.7437  131.6223  152.4560 C   0  0  0  0  0  0  0  0  0  0  0  0
  145.8124  132.4232  151.8810 N   0  0  0  0  0  0  0  0  0  0  0  0
  145.1656  131.8659  150.7003 C   0  0  0  0  0  0  0  0  0  0  0  0
  143.9066  132.6777  150.3645 C   0  0  0  0  0  0  0  0  0  0  0  0
  144.2328  134.0604  150.2251 O   0  0  0  0  0  0  0  0  0  0  0  0
  144.8436  134.6439  151.3803 C   0  0  1  0  0  0  0  0  0  0  0  0
  145.1840  136.0930  151.0486 C   0  0  0  0  0  0  0  0  0  0  0  0
  144.9619  136.8128  152.3701 C   0  0  0  0  0  0  0  0  0  0  0  0
  143.7882  136.1918  152.8597 O   0  0  0  0  0  0  0  0  0  0  0  0
  143.8634  134.8011  152.5671 C   0  0  0  0  0  0  0  0  0  0  0  0
  146.1160  133.8446  151.7464 C   0  0  0  0  0  0  0  0  0  0  0  0
  147.7707  132.1681  153.1611 N   0  0  0  0  0  0  0  0  0  0  0  0
  148.6943  131.3840  153.7248 C   0  0  0  0  0  0  0  0  0  0  0  0
  148.7773  130.0523  153.7137 N   0  0  0  0  0  0  0  0  0  0  0  0
  147.7430  129.4980  153.0193 C   0  0  0  0  0  0  0  0  0  0  0  0
  149.0672  123.8241  153.6205 H   0  0  0  0  0  0  0  0  0  0  0  0
  150.1883  123.5984  152.2756 H   0  0  0  0  0  0  0  0  0  0  0  0
  148.6350  122.7765  152.2732 H   0  0  0  0  0  0  0  0  0  0  0  0
  147.4188  124.8796  152.0174 H   0  0  0  0  0  0  0  0  0  0  0  0
  150.3376  125.6726  149.7905 H   0  0  0  0  0  0  0  0  0  0  0  0
  148.9142  126.0842  148.8274 H   0  0  0  0  0  0  0  0  0  0  0  0
  149.6620  127.8453  150.7194 H   0  0  0  0  0  0  0  0  0  0  0  0
  147.9641  127.3766  150.6281 H   0  0  0  0  0  0  0  0  0  0  0  0
  150.8710  126.9268  152.1371 H   0  0  0  0  0  0  0  0  0  0  0  0
  147.5269  126.3032  153.7391 H   0  0  0  0  0  0  0  0  0  0  0  0
  148.8946  127.3340  154.0731 H   0  0  0  0  0  0  0  0  0  0  0  0
  145.8638  127.2131  151.7189 H   0  0  0  0  0  0  0  0  0  0  0  0
  145.8661  131.9002  149.8646 H   0  0  0  0  0  0  0  0  0  0  0  0
  144.8972  130.8201  150.8456 H   0  0  0  0  0  0  0  0  0  0  0  0
  143.4742  132.3243  149.4284 H   0  0  0  0  0  0  0  0  0  0  0  0
  143.1457  132.5353  151.1321 H   0  0  0  0  0  0  0  0  0  0  0  0
  146.1910  136.2290  150.6527 H   0  0  0  0  0  0  0  0  0  0  0  0
  144.4830  136.4849  150.3098 H   0  0  0  0  0  0  0  0  0  0  0  0
  145.7895  136.6382  153.0594 H   0  0  0  0  0  0  0  0  0  0  0  0
  144.8291  137.8881  152.2503 H   0  0  0  0  0  0  0  0  0  0  0  0
  142.8606  134.4404  152.3394 H   0  0  0  0  0  0  0  0  0  0  0  0
  144.2146  134.2654  153.4499 H   0  0  0  0  0  0  0  0  0  0  0  0
  146.5481  134.2293  152.6716 H   0  0  0  0  0  0  0  0  0  0  0  0
  146.8679  133.9670  150.9653 H   0  0  0  0  0  0  0  0  0  0  0  0
  149.4782  131.8969  154.2623 H   0  0  0  0  0  0  0  0  0  0  0  0
  1  2  1  0  0  0  0
  1 28  1  0  0  0  0
  1 29  1  0  0  0  0
  1 30  1  0  0  0  0
  2  6  1  0  0  0  0
  2  3  1  0  0  0  0
  2 31  1  0  0  0  0
  3  4  1  0  0  0  0
  4  5  1  0  0  0  0
  4 32  1  0  0  0  0
  4 33  1  0  0  0  0
  5  6  1  0  0  0  0
  5 34  1  0  0  0  0
  5 35  1  0  0  0  0
  6  7  1  0  0  0  0
  6  8  1  0  0  0  0
  7 36  1  0  0  0  0
  8  9  1  0  0  0  0
  8 37  1  0  0  0  0
  8 38  1  0  0  0  0
  9 27  1  0  0  0  0
  9 10  1  0  0  0  0
 10 11  2  0  0  0  0
 10 39  1  0  0  0  0
 11 12  1  0  0  0  0
 12 27  2  0  0  0  0
 12 13  1  0  0  0  0
 13 14  1  0  0  0  0
 13 24  2  0  0  0  0
 14 23  1  0  0  0  0
 14 15  1  0  0  0  0
 15 16  1  0  0  0  0
 15 40  1  0  0  0  0
 15 41  1  0  0  0  0
 16 17  1  0  0  0  0
 16 42  1  0  0  0  0
 16 43  1  0  0  0  0
 17 18  1  0  0  0  0
 18 22  1  0  0  0  0
 18 19  1  0  0  0  0
 18 23  1  0  0  0  0
 19 20  1  0  0  0  0
 19 44  1  0  0  0  0
 19 45  1  0  0  0  0
 20 21  1  0  0  0  0
 20 46  1  0  0  0  0
 20 47  1  0  0  0  0
 21 22  1  0  0  0  0
 22 48  1  0  0  0  0
 22 49  1  0  0  0  0
 23 50  1  0  0  0  0
 23 51  1  0  0  0  0
 24 25  1  0  0  0  0
 25 26  2  0  0  0  0
 25 52  1  0  0  0  0
 26 27  1  0  0  0  0
M  END
> <s_m_source_file>
AV-unprocessed.smi

> <i_m_source_file_index>
264

> <i_lp_mmshare_version>
43012

> <i_f3d_flags>
0

> <s_epik_input>
W0NIMl0xW0NIMl1PW0NAQEhdKFtDSDNdKVtDQEBdMShbT0hdKVtDSDJdbihbY0hdbjIpYyhjMjMpbltjSF1uYzNOKFtDSDJdNClbQ0gyXVtDSDJdT1tDQF00NVtDSDJdW0NIMl1PW0NIMl01

> <s_epik_cmdline>
J2VwaWtfcHl0aG9uJywgJy1waCcsICc3LjAnLCAnLXRuJywgJzgnLCAnLW1hJywgJzIwMCcsICctbWV0YWxfYmluZGluZycsICctaW1hZScsICc8aW5maWxlLm1hZT4nLCAnLW9tYWUnLCAnPG91dGZpbGUubWFlPic=

> <r_lp_tautomer_probability>
1

> <r_epik_Ionization_Penalty>
0.00539389

> <r_epik_Ionization_Penalty_Charging>
0

> <r_epik_Ionization_Penalty_Neutral>
0.00539389

> <r_epik_State_Penalty>
0.00375441

> <r_epik_Charging_Adjusted_Penalty>
0.00375441

> <i_epik_Tot_Q>
0

> <i_epik_Tot_abs_Q>
0

> <r_epik_Metal_State_Penalty>
-0

> <b_epik_Metal_Only>
0

> <s_lp_Force_Field>
OPLS_2005

> <r_lp_Energy>
53.6529

> <b_lp_Chiralities_Consistent>
1

> <s_lp_Variant>
AV-unprocessed.smi:264-3

> <Gold.Version>
5.8.1

> <Gold.Id.Protein>
6NUR|6NUR_protein|mol2

> <Gold.PLP.Fitness>
41.4401

> <Gold.PLP.PLP>
-41.7717

> <Gold.PLP.part.hbond>
-0.6810

> <Gold.PLP.part.metal>
0.0000

> <Gold.PLP.part.buried>
-5.8809

> <Gold.PLP.part.nonpolar>
-35.8418

> <Gold.PLP.part.repulsive>
0.8065

> <Gold.PLP.ligand.clash>
0.0000

> <Gold.PLP.ligand.torsion>
1.8161

> <Gold.PLP.Chemscore.Hbond>
1.0000

> <Gold.PLP.Chemscore.CHOScore>
0.0000

> <Gold.PLP.Chemscore.Metal>
0.0000

> <Gold.Chemscore.Hbonds>
donor molecule, donor type, donor heavy atom, donor atom, acceptor molecule, acceptor atom, score
      L1  H     7    36       P1 10737  0.83

> <Gold.PLP.Chemscore.Internal.Correction>
0.3006

> <Gold.Rescore>
     Score         DG    S(hbond)    S(metal)    S(lipo)     H(rot)  DE(clash)    DE(int)     intcor
     10.50     -13.30       1.00        0.00      84.44       2.11       0.02       2.79       ----

> <Gold.Chemscore.Fitness>
10.5026

> <Gold.Chemscore.DG>
-13.3043

> <Gold.Chemscore.ZeroCoef>
-5.4800

> <Gold.Chemscore.Hbond>
0.9992

> <Gold.Chemscore.Metal>
0.0000

> <Gold.Chemscore.Lipo>
84.4355

> <Gold.Chemscore.Internal_Hbond>
0.0000

> <Gold.Chemscore.DEClash>
0.0163

> <Gold.Chemscore.DEInternal>
2.7853

> <Gold.Chemscore.Rot>
2.1063

> <Gold.Chemscore.Internal.Correction>
   9.000000E+99

> <Gold.Chemscore.Hbonds>
donor molecule, donor type, donor heavy atom, donor atom, acceptor molecule, acceptor atom, score
      L1  H     7    36       P1 10737  0.80

> <Gold.Chemscore.Hbond.Weighted>
-3.3374

> <Gold.Chemscore.Metal.Weighted>
-0.0000

> <Gold.Chemscore.Lipo.Weighted>
-9.8790

> <Gold.Chemscore.Internal_Hbond.Weighted>
0.0000

> <Gold.Chemscore.DEClash.Weighted>
0.0163

> <Gold.Chemscore.DEInternal.Weighted>
2.7853

> <Gold.Chemscore.Rot.Weighted>
5.3921

> <Gold.Chemscore.Internal.Correction.Weighted>
   9.000000E+99

> <Gold.Protein.RotatedTorsions>
[ 6907 6896 6895 6894 ] final  -26.54 input  -60.11 | X-H torsion
[ 7974 7965 7964 7962 ] final   16.60 input  175.53 | X-H torsion
[ 8008 7997 7996 7995 ] final  -95.70 input   59.86 | X-H torsion
[ 10167 10162 10161 10158 ] final   82.29 input  -65.29 | X-H torsion
[ 10718 10713 10712 10709 ] final   27.68 input   66.30 | X-H torsion
[ 10763 10752 10751 10750 ] final  144.47 input  -60.55 | X-H torsion
[ 11005 11000 10999 10996 ] final  -13.29 input  -57.11 | X-H torsion

> <Gold.Protein.ActiveResidues>
 VAL166  LYS551  ARG553  GLY616  TRP617  ASP618  TYR619  PRO620  LYS621  CYS622 
 ASP623  PHE694  ASN695  SER759  ASP760  ASP761  ALA762  ILE779  LEU786  VAL792 
 PHE793  MET794  SER795  GLU796  ALA797  LYS798  CYS799  TRP800  GLU811  SER814 

> <Gold.Protein.RotatedAtoms>
  151.1596  135.0267  159.8703 H   0  0  0  0  0  0  0  0  0  0  0  0  # atno 6907 bound_to 6896
  152.5451  134.1295  159.8443 H   0  0  0  0  0  0  0  0  0  0  0  0  # atno 6908 bound_to 6896
  151.1389  133.4939  159.2630 H   0  0  0  0  0  0  0  0  0  0  0  0  # atno 6909 bound_to 6896
  146.2244  139.8724  142.8585 H   0  0  0  0  0  0  0  0  0  0  0  0  # atno 7974 bound_to 7965
  154.7647  140.0478  157.1003 H   0  0  0  0  0  0  0  0  0  0  0  0  # atno 8008 bound_to 7997
  154.9894  140.3111  155.4893 H   0  0  0  0  0  0  0  0  0  0  0  0  # atno 8009 bound_to 7997
  156.2910  140.2221  156.4997 H   0  0  0  0  0  0  0  0  0  0  0  0  # atno 8010 bound_to 7997
  139.9303  144.6156  150.8351 H   0  0  0  0  0  0  0  0  0  0  0  0  # atno 10167 bound_to 10162
  157.2234  130.6989  149.6280 H   0  0  0  0  0  0  0  0  0  0  0  0  # atno 10718 bound_to 10713
  153.9893  135.2933  155.3413 H   0  0  0  0  0  0  0  0  0  0  0  0  # atno 10763 bound_to 10752
  154.7224  135.5103  153.8835 H   0  0  0  0  0  0  0  0  0  0  0  0  # atno 10764 bound_to 10752
  153.0817  135.6681  154.0147 H   0  0  0  0  0  0  0  0  0  0  0  0  # atno 10765 bound_to 10752
  140.7745  133.8412  155.9237 H   0  0  0  0  0  0  0  0  0  0  0  0  # atno 11005 bound_to 11000
  145.2595  141.0072  143.3835 LP  0  0  0  0  0  0  0  0  0  0  0  0  # atno 17320 bound_to 7965
  144.9310  139.4299  143.6495 LP  0  0  0  0  0  0  0  0  0  0  0  0  # atno 17321 bound_to 7965
  140.7639  143.3235  151.2569 LP  0  0  0  0  0  0  0  0  0  0  0  0  # atno 17342 bound_to 10162
  139.6788  143.9891  152.2796 LP  0  0  0  0  0  0  0  0  0  0  0  0  # atno 17343 bound_to 10162
  155.9680  130.4512  150.5728 LP  0  0  0  0  0  0  0  0  0  0  0  0  # atno 17370 bound_to 10713
  157.3553  131.0740  151.1681 LP  0  0  0  0  0  0  0  0  0  0  0  0  # atno 17371 bound_to 10713
  140.9542  134.1740  157.4705 LP  0  0  0  0  0  0  0  0  0  0  0  0  # atno 17394 bound_to 11000
  139.8751  134.9920  156.5578 LP  0  0  0  0  0  0  0  0  0  0  0  0  # atno 17395 bound_to 11000

$$$$
