AV-unprocessed.smi:1426|AV-procd|sdf|5805|dock7
  -GOLD-   22720 5453D 1   1.00000     0.00000
 Structure written by MMmdl.
 43 45  0  0  0  0  0  0  0  0  1 V2000
  150.4935  135.0328  155.7851 O   0  0  0  0  0  0  0  0  0  0  0  0
  149.7892  135.3372  154.8231 C   0  0  0  0  0  0  0  0  0  0  0  0
  149.5049  136.6035  154.4867 N   0  0  0  0  0  0  0  0  0  0  0  0
  149.9602  137.7920  155.2016 C   0  0  0  0  0  0  0  0  0  0  0  0
  151.4967  137.8928  155.2198 C   0  0  2  0  0  0  0  0  0  0  0  0
  152.1429  137.1801  156.3904 C   0  0  0  0  0  0  0  0  0  0  0  0
  153.5318  137.8116  156.4205 C   0  0  0  0  0  0  0  0  0  0  0  0
  153.3707  139.1363  155.9205 O   0  0  0  0  0  0  0  0  0  0  0  0
  152.0564  139.3055  155.3981 C   0  0  0  0  0  0  0  0  0  0  0  0
  149.2137  134.4729  153.9698 N   0  0  0  0  0  0  0  0  0  0  0  0
  149.2764  133.0483  153.9405 C   0  0  0  0  0  0  0  0  0  0  0  0
  150.2866  132.3149  154.6123 C   0  0  0  0  0  0  0  0  0  0  0  0
  150.3028  130.9127  154.5162 C   0  0  0  0  0  0  0  0  0  0  0  0
  149.3046  130.2865  153.7525 C   0  0  0  0  0  0  0  0  0  0  0  0
  148.3249  130.9659  153.1245 N   0  0  0  0  0  0  0  0  0  0  0  0
  148.2876  132.3178  153.2196 C   0  0  0  0  0  0  0  0  0  0  0  0
  147.2192  132.9740  152.5667 N   0  0  0  0  0  0  0  0  0  0  0  0
  146.4245  132.2748  151.5620 C   0  0  0  0  0  0  0  0  0  0  0  0
  145.1632  133.1180  151.4004 C   0  0  0  0  0  0  0  0  0  0  0  0
  144.9227  133.6131  152.8229 C   0  0  0  0  0  0  0  0  0  0  0  0
  146.3361  133.8017  153.3837 C   0  0  0  0  0  0  0  0  0  0  0  0
  148.9236  136.7587  153.6759 H   0  0  0  0  0  0  0  0  0  0  0  0
  149.5206  138.6969  154.7781 H   0  0  0  0  0  0  0  0  0  0  0  0
  149.5881  137.7255  156.2244 H   0  0  0  0  0  0  0  0  0  0  0  0
  151.8982  137.4722  154.2961 H   0  0  0  0  0  0  0  0  0  0  0  0
  151.6108  137.4073  157.3154 H   0  0  0  0  0  0  0  0  0  0  0  0
  152.1723  136.0967  156.2714 H   0  0  0  0  0  0  0  0  0  0  0  0
  153.9658  137.8131  157.4206 H   0  0  0  0  0  0  0  0  0  0  0  0
  154.2099  137.2719  155.7583 H   0  0  0  0  0  0  0  0  0  0  0  0
  152.0696  139.8715  154.4663 H   0  0  0  0  0  0  0  0  0  0  0  0
  151.4671  139.8655  156.1254 H   0  0  0  0  0  0  0  0  0  0  0  0
  148.7234  134.8896  153.1920 H   0  0  0  0  0  0  0  0  0  0  0  0
  151.0479  132.7936  155.2072 H   0  0  0  0  0  0  0  0  0  0  0  0
  151.0648  130.3322  155.0147 H   0  0  0  0  0  0  0  0  0  0  0  0
  149.2857  129.2116  153.6503 H   0  0  0  0  0  0  0  0  0  0  0  0
  146.9691  132.1755  150.6228 H   0  0  0  0  0  0  0  0  0  0  0  0
  146.1486  131.2771  151.9062 H   0  0  0  0  0  0  0  0  0  0  0  0
  145.3596  133.9628  150.7385 H   0  0  0  0  0  0  0  0  0  0  0  0
  144.3228  132.5543  150.9945 H   0  0  0  0  0  0  0  0  0  0  0  0
  144.3244  134.5235  152.8637 H   0  0  0  0  0  0  0  0  0  0  0  0
  144.4018  132.8429  153.3934 H   0  0  0  0  0  0  0  0  0  0  0  0
  146.3841  133.5362  154.4408 H   0  0  0  0  0  0  0  0  0  0  0  0
  146.6388  134.8443  153.2825 H   0  0  0  0  0  0  0  0  0  0  0  0
  1  2  2  0  0  0  0
  2  3  1  0  0  0  0
  2 10  1  0  0  0  0
  3  4  1  0  0  0  0
  3 22  1  0  0  0  0
  4  5  1  0  0  0  0
  4 23  1  0  0  0  0
  4 24  1  0  0  0  0
  5  9  1  0  0  0  0
  5  6  1  0  0  0  0
  5 25  1  0  0  0  0
  6  7  1  0  0  0  0
  6 26  1  0  0  0  0
  6 27  1  0  0  0  0
  7  8  1  0  0  0  0
  7 28  1  0  0  0  0
  7 29  1  0  0  0  0
  8  9  1  0  0  0  0
  9 30  1  0  0  0  0
  9 31  1  0  0  0  0
 10 11  1  0  0  0  0
 10 32  1  0  0  0  0
 11 16  1  0  0  0  0
 11 12  2  0  0  0  0
 12 13  1  0  0  0  0
 12 33  1  0  0  0  0
 13 14  2  0  0  0  0
 13 34  1  0  0  0  0
 14 15  1  0  0  0  0
 14 35  1  0  0  0  0
 15 16  2  0  0  0  0
 16 17  1  0  0  0  0
 17 21  1  0  0  0  0
 17 18  1  0  0  0  0
 18 19  1  0  0  0  0
 18 36  1  0  0  0  0
 18 37  1  0  0  0  0
 19 20  1  0  0  0  0
 19 38  1  0  0  0  0
 19 39  1  0  0  0  0
 20 21  1  0  0  0  0
 20 40  1  0  0  0  0
 20 41  1  0  0  0  0
 21 42  1  0  0  0  0
 21 43  1  0  0  0  0
M  END
> <s_m_source_file>
AV-unprocessed.smi

> <i_m_source_file_index>
1426

> <i_lp_mmshare_version>
43012

> <i_f3d_flags>
0

> <s_epik_input>
W0NIMl0xT1tDSDJdW0NIMl1bQ0BIXTFbQ0gyXVtOSF1DKD1PKVtOSF1jMltjSF1bY0hdW2NIXW5jMk4zW0NIMl1bQ0gyXVtDSDJdW0NIMl0z

> <s_epik_cmdline>
J2VwaWtfcHl0aG9uJywgJy1waCcsICc3LjAnLCAnLXRuJywgJzgnLCAnLW1hJywgJzIwMCcsICctbWV0YWxfYmluZGluZycsICctaW1hZScsICc8aW5maWxlLm1hZT4nLCAnLW9tYWUnLCAnPG91dGZpbGUubWFlPic=

> <r_lp_tautomer_probability>
1

> <r_epik_Ionization_Penalty>
0.0999657

> <r_epik_Ionization_Penalty_Charging>
0

> <r_epik_Ionization_Penalty_Neutral>
0.0999657

> <r_epik_State_Penalty>
0.0894442

> <r_epik_Charging_Adjusted_Penalty>
0.0894442

> <i_epik_Tot_Q>
0

> <i_epik_Tot_abs_Q>
0

> <r_epik_Metal_State_Penalty>
0.076486

> <b_epik_Metal_Only>
0

> <s_lp_Force_Field>
OPLS_2005

> <r_lp_Energy>
47.443

> <b_lp_Chiralities_Consistent>
1

> <s_lp_Variant>
AV-unprocessed.smi:1426-1

> <Gold.Version>
5.8.1

> <Gold.Id.Protein>
6NUR|6NUR_protein|mol2

> <Gold.PLP.Fitness>
38.8343

> <Gold.PLP.PLP>
-31.3801

> <Gold.PLP.part.hbond>
-2.7062

> <Gold.PLP.part.metal>
0.0000

> <Gold.PLP.part.buried>
-4.4535

> <Gold.PLP.part.nonpolar>
-25.2000

> <Gold.PLP.part.repulsive>
0.4299

> <Gold.PLP.ligand.clash>
0.0000

> <Gold.PLP.ligand.torsion>
0.5939

> <Gold.PLP.Chemscore.Hbond>
2.7752

> <Gold.PLP.Chemscore.CHOScore>
0.0000

> <Gold.PLP.Chemscore.Metal>
0.0000

> <Gold.Chemscore.Hbonds>
donor molecule, donor type, donor heavy atom, donor atom, acceptor molecule, acceptor atom, score
      L1  H     3    22       P1  7948  0.70
      L1  H    10    32       P1  7948  0.80
      P1  H  7997  8009       L1     8  0.73

> <Gold.PLP.Chemscore.Internal.Correction>
0.3164

> <Gold.Rescore>
     Score         DG    S(hbond)    S(metal)    S(lipo)     H(rot)  DE(clash)    DE(int)     intcor
     13.94     -18.06       2.45        0.00      67.70       1.38       0.04       4.08       ----

> <Gold.Chemscore.Fitness>
13.9377

> <Gold.Chemscore.DG>
-18.0603

> <Gold.Chemscore.ZeroCoef>
-5.4800

> <Gold.Chemscore.Hbond>
2.4522

> <Gold.Chemscore.Metal>
0.0000

> <Gold.Chemscore.Lipo>
67.7050

> <Gold.Chemscore.Internal_Hbond>
0.0000

> <Gold.Chemscore.DEClash>
0.0377

> <Gold.Chemscore.DEInternal>
4.0849

> <Gold.Chemscore.Rot>
1.3796

> <Gold.Chemscore.Internal.Correction>
   9.000000E+99

> <Gold.Chemscore.Hbonds>
donor molecule, donor type, donor heavy atom, donor atom, acceptor molecule, acceptor atom, score
      L1  H     3    22       P1  7948  0.70
      L1  H    10    32       P1  7948  0.32
      P1  H  7997  8009       L1     8  0.70

> <Gold.Chemscore.Hbond.Weighted>
-8.1905

> <Gold.Chemscore.Metal.Weighted>
-0.0000

> <Gold.Chemscore.Lipo.Weighted>
-7.9215

> <Gold.Chemscore.Internal_Hbond.Weighted>
0.0000

> <Gold.Chemscore.DEClash.Weighted>
0.0377

> <Gold.Chemscore.DEInternal.Weighted>
4.0849

> <Gold.Chemscore.Rot.Weighted>
3.5317

> <Gold.Chemscore.Internal.Correction.Weighted>
   9.000000E+99

> <Gold.Protein.RotatedTorsions>
[ 6907 6896 6895 6894 ] final  139.16 input  -60.11 | X-H torsion
[ 7974 7965 7964 7962 ] final  -99.16 input  175.53 | X-H torsion
[ 8008 7997 7996 7995 ] final -154.30 input   59.86 | X-H torsion
[ 10167 10162 10161 10158 ] final   55.31 input  -65.29 | X-H torsion
[ 10718 10713 10712 10709 ] final  104.86 input   66.30 | X-H torsion
[ 10763 10752 10751 10750 ] final   17.07 input  -60.55 | X-H torsion
[ 11005 11000 10999 10996 ] final  140.16 input  -57.11 | X-H torsion

> <Gold.Protein.ActiveResidues>
 VAL166  LYS551  ARG553  GLY616  TRP617  ASP618  TYR619  PRO620  LYS621  CYS622 
 ASP623  PHE694  ASN695  SER759  ASP760  ASP761  ALA762  ILE779  LEU786  VAL792 
 PHE793  MET794  SER795  GLU796  ALA797  LYS798  CYS799  TRP800  GLU811  SER814 

> <Gold.Protein.RotatedAtoms>
  152.2582  133.5274  159.5365 H   0  0  0  0  0  0  0  0  0  0  0  0  # atno 6907 bound_to 6896
  150.7116  134.0867  159.3926 H   0  0  0  0  0  0  0  0  0  0  0  0  # atno 6908 bound_to 6896
  151.8785  135.0462  160.0537 H   0  0  0  0  0  0  0  0  0  0  0  0  # atno 6909 bound_to 6896
  145.3111  140.9400  143.2769 H   0  0  0  0  0  0  0  0  0  0  0  0  # atno 7974 bound_to 7965
  155.6843  140.0748  157.2473 H   0  0  0  0  0  0  0  0  0  0  0  0  # atno 8008 bound_to 7997
  154.4100  140.1676  156.2068 H   0  0  0  0  0  0  0  0  0  0  0  0  # atno 8009 bound_to 7997
  155.9508  140.3377  155.6409 H   0  0  0  0  0  0  0  0  0  0  0  0  # atno 8010 bound_to 7997
  140.2208  144.3791  150.6451 H   0  0  0  0  0  0  0  0  0  0  0  0  # atno 10167 bound_to 10162
  157.6726  131.0814  150.5769 H   0  0  0  0  0  0  0  0  0  0  0  0  # atno 10718 bound_to 10713
  153.1372  135.6752  153.9084 H   0  0  0  0  0  0  0  0  0  0  0  0  # atno 10763 bound_to 10752
  153.8552  135.3088  155.3436 H   0  0  0  0  0  0  0  0  0  0  0  0  # atno 10764 bound_to 10752
  154.7758  135.4915  153.9823 H   0  0  0  0  0  0  0  0  0  0  0  0  # atno 10765 bound_to 10752
  140.0307  134.9353  157.0656 H   0  0  0  0  0  0  0  0  0  0  0  0  # atno 11005 bound_to 11000
  144.9015  139.4644  143.6630 LP  0  0  0  0  0  0  0  0  0  0  0  0  # atno 17320 bound_to 7965
  146.3117  139.7771  142.9014 LP  0  0  0  0  0  0  0  0  0  0  0  0  # atno 17321 bound_to 7965
  140.6257  143.2181  151.6602 LP  0  0  0  0  0  0  0  0  0  0  0  0  # atno 17342 bound_to 10162
  139.5145  144.3409  152.0741 LP  0  0  0  0  0  0  0  0  0  0  0  0  # atno 17343 bound_to 10162
  156.6070  130.4370  149.5874 LP  0  0  0  0  0  0  0  0  0  0  0  0  # atno 17370 bound_to 10713
  156.2461  130.6879  151.1601 LP  0  0  0  0  0  0  0  0  0  0  0  0  # atno 17371 bound_to 10713
  140.4231  134.1860  155.7165 LP  0  0  0  0  0  0  0  0  0  0  0  0  # atno 17394 bound_to 11000
  141.1829  133.8375  157.1193 LP  0  0  0  0  0  0  0  0  0  0  0  0  # atno 17395 bound_to 11000

$$$$
