AV-unprocessed.smi:2302|AV-procd|sdf|9239|dock8
  -GOLD-   2272012453D 1   1.00000     0.00000
 Structure written by MMmdl.
 40 41  0  0  0  0  0  0  0  0  2 V2000
  153.5706  141.3827  160.3098 C   0  0  0  0  0  0  0  0  0  0  0  0
  152.7509  142.5193  159.7364 C   0  0  0  0  0  0  0  0  0  0  0  0
  152.7581  143.7936  160.3369 C   0  0  0  0  0  0  0  0  0  0  0  0
  151.9780  144.8066  159.7513 C   0  0  0  0  0  0  0  0  0  0  0  0
  151.2280  144.5063  158.5978 C   0  0  0  0  0  0  0  0  0  0  0  0
  151.2745  143.2007  158.0593 C   0  0  0  0  0  0  0  0  0  0  0  0
  150.4860  143.0011  156.8953 N   0  0  0  0  0  0  0  0  0  0  0  0
  150.3386  141.8750  156.1758 C   0  0  0  0  0  0  0  0  0  0  0  0
  150.8512  140.7875  156.4405 O   0  0  0  0  0  0  0  0  0  0  0  0
  149.5485  142.0792  155.1119 N   0  0  0  0  0  0  0  0  0  0  0  0
  149.1913  141.0673  154.1212 C   0  0  0  0  0  0  0  0  0  0  0  0
  147.7192  140.6141  154.2155 C   0  0  1  0  0  0  0  0  0  0  0  0
  147.3984  139.3542  153.3813 C   0  0  0  0  0  0  0  0  0  0  0  0
  145.9762  138.9765  153.5454 N   0  3  1  0  0  0  0  0  0  0  0  0
  145.5996  137.8012  152.7313 C   0  0  0  0  0  0  0  0  0  0  0  0
  145.6377  138.8103  154.9769 C   0  0  0  0  0  0  0  0  0  0  0  0
  146.0071  140.0786  155.7635 C   0  0  0  0  0  0  0  0  0  0  0  0
  147.3862  140.3727  155.5792 O   0  0  0  0  0  0  0  0  0  0  0  0
  152.0318  142.2310  158.6302 N   0  0  0  0  0  0  0  0  0  0  0  0
  154.0245  141.6630  161.2608 H   0  0  0  0  0  0  0  0  0  0  0  0
  154.3679  141.1073  159.6190 H   0  0  0  0  0  0  0  0  0  0  0  0
  152.9430  140.5070  160.4783 H   0  0  0  0  0  0  0  0  0  0  0  0
  153.3448  143.9922  161.2217 H   0  0  0  0  0  0  0  0  0  0  0  0
  151.9549  145.7982  160.1787 H   0  0  0  0  0  0  0  0  0  0  0  0
  150.6235  145.2734  158.1363 H   0  0  0  0  0  0  0  0  0  0  0  0
  149.9819  143.8124  156.5697 H   0  0  0  0  0  0  0  0  0  0  0  0
  149.1634  143.0026  154.9774 H   0  0  0  0  0  0  0  0  0  0  0  0
  149.4155  141.4241  153.1146 H   0  0  0  0  0  0  0  0  0  0  0  0
  149.8420  140.2086  154.2887 H   0  0  0  0  0  0  0  0  0  0  0  0
  147.1018  141.4407  153.8593 H   0  0  0  0  0  0  0  0  0  0  0  0
  147.6082  139.5423  152.3277 H   0  0  0  0  0  0  0  0  0  0  0  0
  148.0251  138.5157  153.6900 H   0  0  0  0  0  0  0  0  0  0  0  0
  146.1483  136.9130  153.0474 H   0  0  0  0  0  0  0  0  0  0  0  0
  145.8135  137.9784  151.6768 H   0  0  0  0  0  0  0  0  0  0  0  0
  144.5327  137.5960  152.8250 H   0  0  0  0  0  0  0  0  0  0  0  0
  144.5717  138.6052  155.0831 H   0  0  0  0  0  0  0  0  0  0  0  0
  146.1730  137.9509  155.3840 H   0  0  0  0  0  0  0  0  0  0  0  0
  145.3968  140.9259  155.4477 H   0  0  0  0  0  0  0  0  0  0  0  0
  145.8178  139.9291  156.8267 H   0  0  0  0  0  0  0  0  0  0  0  0
  145.4281  139.7538  153.2051 H   0  0  0  0  0  0  0  0  0  0  0  0
  1  2  1  0  0  0  0
  1 20  1  0  0  0  0
  1 21  1  0  0  0  0
  1 22  1  0  0  0  0
  2 19  1  0  0  0  0
  2  3  2  0  0  0  0
  3  4  1  0  0  0  0
  3 23  1  0  0  0  0
  4  5  2  0  0  0  0
  4 24  1  0  0  0  0
  5  6  1  0  0  0  0
  5 25  1  0  0  0  0
  6  7  1  0  0  0  0
  6 19  2  0  0  0  0
  7  8  1  0  0  0  0
  7 26  1  0  0  0  0
  8  9  2  0  0  0  0
  8 10  1  0  0  0  0
 10 11  1  0  0  0  0
 10 27  1  0  0  0  0
 11 12  1  0  0  0  0
 11 28  1  0  0  0  0
 11 29  1  0  0  0  0
 12 18  1  0  0  0  0
 12 13  1  0  0  0  0
 12 30  1  0  0  0  0
 13 14  1  0  0  0  0
 13 31  1  0  0  0  0
 13 32  1  0  0  0  0
 14 15  1  0  0  0  0
 14 16  1  0  0  0  0
 14 40  1  0  0  0  0
 15 33  1  0  0  0  0
 15 34  1  0  0  0  0
 15 35  1  0  0  0  0
 16 17  1  0  0  0  0
 16 36  1  0  0  0  0
 16 37  1  0  0  0  0
 17 18  1  0  0  0  0
 17 38  1  0  0  0  0
 17 39  1  0  0  0  0
M  CHG  1  14   1
M  END
> <s_m_source_file>
AV-unprocessed.smi

> <i_m_source_file_index>
2302

> <i_lp_mmshare_version>
43012

> <i_f3d_flags>
0

> <s_epik_input>
W0NIM11jMVtjSF1bY0hdW2NIXWMobjEpW05IXUMoPU8pW05IXVtDSDJdW0NAQEhdMltDSDJdTihbQ0gzXSlbQ0gyXVtDSDJdTzI=

> <s_epik_cmdline>
J2VwaWtfcHl0aG9uJywgJy1waCcsICc3LjAnLCAnLXRuJywgJzgnLCAnLW1hJywgJzIwMCcsICctbWV0YWxfYmluZGluZycsICctaW1hZScsICc8aW5maWxlLm1hZT4nLCAnLW9tYWUnLCAnPG91dGZpbGUubWFlPic=

> <r_epik_Ionization_Penalty>
0.204647

> <r_epik_Ionization_Penalty_Charging>
0.204578

> <r_epik_Ionization_Penalty_Neutral>
6.91954e-05

> <r_epik_State_Penalty>
0.194513

> <r_epik_Charging_Adjusted_Penalty>
0.399091

> <i_epik_Tot_Q>
1

> <i_epik_Tot_abs_Q>
1

> <r_epik_Metal_State_Penalty>
0.194515

> <b_epik_Metal_Only>
0

> <s_lp_Force_Field>
OPLS_2005

> <r_lp_Energy>
15.833

> <b_lp_Chiralities_Consistent>
1

> <s_lp_Variant>
AV-unprocessed.smi:2302-4

> <Gold.Version>
5.8.1

> <Gold.Id.Protein>
6NUR|6NUR_protein|mol2

> <Gold.PLP.Fitness>
48.0845

> <Gold.PLP.PLP>
-36.3905

> <Gold.PLP.part.hbond>
-3.0000

> <Gold.PLP.part.metal>
0.0000

> <Gold.PLP.part.buried>
-1.6685

> <Gold.PLP.part.nonpolar>
-29.9885

> <Gold.PLP.part.repulsive>
0.2987

> <Gold.PLP.ligand.clash>
0.0000

> <Gold.PLP.ligand.torsion>
0.1421

> <Gold.PLP.Chemscore.Hbond>
3.9920

> <Gold.PLP.Chemscore.CHOScore>
0.0000

> <Gold.PLP.Chemscore.Metal>
0.0000

> <Gold.Chemscore.Hbonds>
donor molecule, donor type, donor heavy atom, donor atom, acceptor molecule, acceptor atom, score
      L1  H     7    26       P1  8028  1.00
      L1  H    10    27       P1  8028  0.99
      L1  H    14    40       P1 10175  1.98

> <Gold.PLP.Chemscore.Internal.Correction>
0.0022

> <Gold.Rescore>
     Score         DG    S(hbond)    S(metal)    S(lipo)     H(rot)  DE(clash)    DE(int)     intcor
     20.55     -22.04       2.89        0.00      86.87       1.27       0.05       1.43       ----

> <Gold.Chemscore.Fitness>
20.5547

> <Gold.Chemscore.DG>
-22.0358

> <Gold.Chemscore.ZeroCoef>
-5.4800

> <Gold.Chemscore.Hbond>
2.8901

> <Gold.Chemscore.Metal>
0.0000

> <Gold.Chemscore.Lipo>
86.8653

> <Gold.Chemscore.Internal_Hbond>
0.0000

> <Gold.Chemscore.DEClash>
0.0542

> <Gold.Chemscore.DEInternal>
1.4269

> <Gold.Chemscore.Rot>
1.2736

> <Gold.Chemscore.Internal.Correction>
   9.000000E+99

> <Gold.Chemscore.Hbonds>
donor molecule, donor type, donor heavy atom, donor atom, acceptor molecule, acceptor atom, score
      L1  H     7    26       P1  8028  0.99
      L1  H    10    27       P1  8028  0.93
      L1  H    14    40       P1 10175  0.88

> <Gold.Chemscore.Hbond.Weighted>
-9.6528

> <Gold.Chemscore.Metal.Weighted>
-0.0000

> <Gold.Chemscore.Lipo.Weighted>
-10.1632

> <Gold.Chemscore.Internal_Hbond.Weighted>
0.0000

> <Gold.Chemscore.DEClash.Weighted>
0.0542

> <Gold.Chemscore.DEInternal.Weighted>
1.4269

> <Gold.Chemscore.Rot.Weighted>
3.2603

> <Gold.Chemscore.Internal.Correction.Weighted>
   9.000000E+99

> <Gold.Protein.RotatedTorsions>
[ 6907 6896 6895 6894 ] final  141.11 input  -60.11 | X-H torsion
[ 7974 7965 7964 7962 ] final  -96.87 input  175.53 | X-H torsion
[ 8008 7997 7996 7995 ] final  -44.24 input   59.86 | X-H torsion
[ 10167 10162 10161 10158 ] final -100.78 input  -65.29 | X-H torsion
[ 10718 10713 10712 10709 ] final    8.27 input   66.30 | X-H torsion
[ 10763 10752 10751 10750 ] final -128.82 input  -60.55 | X-H torsion
[ 11005 11000 10999 10996 ] final   29.90 input  -57.11 | X-H torsion

> <Gold.Protein.ActiveResidues>
 VAL166  LYS551  ARG553  GLY616  TRP617  ASP618  TYR619  PRO620  LYS621  CYS622 
 ASP623  PHE694  ASN695  SER759  ASP760  ASP761  ALA762  ILE779  LEU786  VAL792 
 PHE793  MET794  SER795  GLU796  ALA797  LYS798  CYS799  TRP800  GLU811  SER814 

> <Gold.Protein.RotatedAtoms>
  152.2349  133.5088  159.5236 H   0  0  0  0  0  0  0  0  0  0  0  0  # atno 6907 bound_to 6896
  150.7048  134.1167  159.4029 H   0  0  0  0  0  0  0  0  0  0  0  0  # atno 6908 bound_to 6896
  151.9088  135.0347  160.0563 H   0  0  0  0  0  0  0  0  0  0  0  0  # atno 6909 bound_to 6896
  145.3412  140.9460  143.2607 H   0  0  0  0  0  0  0  0  0  0  0  0  # atno 7974 bound_to 7965
  154.3997  140.1427  156.3651 H   0  0  0  0  0  0  0  0  0  0  0  0  # atno 8008 bound_to 7997
  155.8145  140.3471  155.5456 H   0  0  0  0  0  0  0  0  0  0  0  0  # atno 8009 bound_to 7997
  155.8352  140.0918  157.1759 H   0  0  0  0  0  0  0  0  0  0  0  0  # atno 8010 bound_to 7997
  140.2483  143.3490  152.0738 H   0  0  0  0  0  0  0  0  0  0  0  0  # atno 10167 bound_to 10162
  156.9492  130.5890  149.5656 H   0  0  0  0  0  0  0  0  0  0  0  0  # atno 10718 bound_to 10713
  154.8757  135.3916  154.3819 H   0  0  0  0  0  0  0  0  0  0  0  0  # atno 10763 bound_to 10752
  153.4566  135.7029  153.6081 H   0  0  0  0  0  0  0  0  0  0  0  0  # atno 10764 bound_to 10752
  153.4598  135.3814  155.2300 H   0  0  0  0  0  0  0  0  0  0  0  0  # atno 10765 bound_to 10752
  140.3001  134.2766  155.7756 H   0  0  0  0  0  0  0  0  0  0  0  0  # atno 11005 bound_to 11000
  144.8789  139.4932  143.6732 LP  0  0  0  0  0  0  0  0  0  0  0  0  # atno 17320 bound_to 7965
  146.3006  139.7416  142.9094 LP  0  0  0  0  0  0  0  0  0  0  0  0  # atno 17321 bound_to 7965
  139.5054  144.6795  151.6044 LP  0  0  0  0  0  0  0  0  0  0  0  0  # atno 17342 bound_to 10162
  140.6060  143.9523  150.6419 LP  0  0  0  0  0  0  0  0  0  0  0  0  # atno 17343 bound_to 10162
  156.0370  130.5456  150.8678 LP  0  0  0  0  0  0  0  0  0  0  0  0  # atno 17370 bound_to 10713
  157.5733  131.0946  150.9384 LP  0  0  0  0  0  0  0  0  0  0  0  0  # atno 17371 bound_to 10713
  141.2130  133.7641  156.9754 LP  0  0  0  0  0  0  0  0  0  0  0  0  # atno 17394 bound_to 11000
  140.1117  134.9473  157.2075 LP  0  0  0  0  0  0  0  0  0  0  0  0  # atno 17395 bound_to 11000

$$$$
