AV-unprocessed.smi:2600|AV-procd|sdf|10182|dock9
  -GOLD-   2272014193D 1   1.00000     0.00000
 Structure written by MMmdl.
 44 45  0  0  0  0  0  0  0  0  1 V2000
  147.0478  142.1521  153.7936 C   0  0  0  0  0  0  0  0  0  0  0  0
  147.1603  141.6789  155.2522 C   0  0  0  0  0  0  0  0  0  0  0  0
  148.3020  140.6752  155.5410 C   0  0  2  0  0  0  0  0  0  0  0  0
  148.1127  140.1284  156.9741 C   0  0  0  0  0  0  0  0  0  0  0  0
  149.6988  141.3270  155.3579 C   0  0  0  0  0  0  0  0  0  0  0  0
  150.7432  140.2966  155.4498 N   0  0  0  0  0  0  0  0  0  0  0  0
  151.6867  140.1690  156.4156 C   0  0  0  0  0  0  0  0  0  0  0  0
  152.7124  139.5034  156.2687 O   0  0  0  0  0  0  0  0  0  0  0  0
  151.4231  140.8407  157.5504 N   0  0  0  0  0  0  0  0  0  0  0  0
  152.2707  140.8774  158.7400 C   0  0  0  0  0  0  0  0  0  0  0  0
  152.5850  142.3165  159.1920 C   0  0  0  0  0  0  0  0  0  0  0  0
  152.9785  142.4574  160.6313 C   0  0  0  0  0  0  0  0  0  0  0  0
  152.4564  143.2647  161.6027 C   0  0  0  0  0  0  0  0  0  0  0  0
  153.2144  142.9486  162.7628 C   0  0  0  0  0  0  0  0  0  0  0  0
  154.1379  142.0328  162.5303 N   0  0  0  0  0  0  0  0  0  0  0  0
  154.0012  141.7334  161.2210 N   0  0  0  0  0  0  0  0  0  0  0  0
  154.8849  140.7426  160.6368 C   0  0  0  0  0  0  0  0  0  0  0  0
  150.5615  139.3079  154.3849 C   0  0  0  0  0  0  0  0  0  0  0  0
  149.1969  138.6280  154.5797 C   0  0  0  0  0  0  0  0  0  0  0  0
  148.1530  139.6048  154.5983 O   0  0  0  0  0  0  0  0  0  0  0  0
  146.1609  142.7724  153.6620 H   0  0  0  0  0  0  0  0  0  0  0  0
  146.9641  141.3113  153.1047 H   0  0  0  0  0  0  0  0  0  0  0  0
  147.9049  142.7533  153.4925 H   0  0  0  0  0  0  0  0  0  0  0  0
  147.2695  142.5518  155.8972 H   0  0  0  0  0  0  0  0  0  0  0  0
  146.2099  141.2216  155.5302 H   0  0  0  0  0  0  0  0  0  0  0  0
  148.1572  140.9336  157.7079 H   0  0  0  0  0  0  0  0  0  0  0  0
  148.8762  139.4036  157.2517 H   0  0  0  0  0  0  0  0  0  0  0  0
  147.1461  139.6360  157.0838 H   0  0  0  0  0  0  0  0  0  0  0  0
  149.7872  141.7881  154.3746 H   0  0  0  0  0  0  0  0  0  0  0  0
  149.8187  142.1448  156.0682 H   0  0  0  0  0  0  0  0  0  0  0  0
  150.5632  141.3683  157.5914 H   0  0  0  0  0  0  0  0  0  0  0  0
  151.8129  140.3176  159.5565 H   0  0  0  0  0  0  0  0  0  0  0  0
  153.2012  140.3588  158.5095 H   0  0  0  0  0  0  0  0  0  0  0  0
  153.3709  142.7292  158.5591 H   0  0  0  0  0  0  0  0  0  0  0  0
  151.7083  142.9385  159.0070 H   0  0  0  0  0  0  0  0  0  0  0  0
  151.6446  143.9695  161.5017 H   0  0  0  0  0  0  0  0  0  0  0  0
  153.1224  143.3555  163.7591 H   0  0  0  0  0  0  0  0  0  0  0  0
  155.0320  140.9435  159.5760 H   0  0  0  0  0  0  0  0  0  0  0  0
  154.4503  139.7500  160.7554 H   0  0  0  0  0  0  0  0  0  0  0  0
  155.8567  140.7658  161.1315 H   0  0  0  0  0  0  0  0  0  0  0  0
  150.5971  139.8063  153.4152 H   0  0  0  0  0  0  0  0  0  0  0  0
  151.3502  138.5546  154.3640 H   0  0  0  0  0  0  0  0  0  0  0  0
  149.0060  137.9350  153.7602 H   0  0  0  0  0  0  0  0  0  0  0  0
  149.1859  138.0330  155.4930 H   0  0  0  0  0  0  0  0  0  0  0  0
  1  2  1  0  0  0  0
  1 21  1  0  0  0  0
  1 22  1  0  0  0  0
  1 23  1  0  0  0  0
  2  3  1  0  0  0  0
  2 24  1  0  0  0  0
  2 25  1  0  0  0  0
  3 20  1  0  0  0  0
  3  4  1  0  0  0  0
  3  5  1  0  0  0  0
  4 26  1  0  0  0  0
  4 27  1  0  0  0  0
  4 28  1  0  0  0  0
  5  6  1  0  0  0  0
  5 29  1  0  0  0  0
  5 30  1  0  0  0  0
  6  7  1  0  0  0  0
  6 18  1  0  0  0  0
  7  8  2  0  0  0  0
  7  9  1  0  0  0  0
  9 10  1  0  0  0  0
  9 31  1  0  0  0  0
 10 11  1  0  0  0  0
 10 32  1  0  0  0  0
 10 33  1  0  0  0  0
 11 12  1  0  0  0  0
 11 34  1  0  0  0  0
 11 35  1  0  0  0  0
 12 16  1  0  0  0  0
 12 13  2  0  0  0  0
 13 14  1  0  0  0  0
 13 36  1  0  0  0  0
 14 15  2  0  0  0  0
 14 37  1  0  0  0  0
 15 16  1  0  0  0  0
 16 17  1  0  0  0  0
 17 38  1  0  0  0  0
 17 39  1  0  0  0  0
 17 40  1  0  0  0  0
 18 19  1  0  0  0  0
 18 41  1  0  0  0  0
 18 42  1  0  0  0  0
 19 20  1  0  0  0  0
 19 43  1  0  0  0  0
 19 44  1  0  0  0  0
M  END
> <s_m_source_file>
AV-unprocessed.smi

> <i_m_source_file_index>
2600

> <i_lp_mmshare_version>
43012

> <i_f3d_flags>
0

> <s_epik_input>
W0NIM11bQ0gyXVtDQEBdMShbQ0gzXSlbQ0gyXU4oW0NIMl1bQ0gyXU8xKUMoPU8pW05IXVtDSDJdW0NIMl1jMltjSF1bY0hdbm4yW0NIM10=

> <s_epik_cmdline>
J2VwaWtfcHl0aG9uJywgJy1waCcsICc3LjAnLCAnLXRuJywgJzgnLCAnLW1hJywgJzIwMCcsICctbWV0YWxfYmluZGluZycsICctaW1hZScsICc8aW5maWxlLm1hZT4nLCAnLW9tYWUnLCAnPG91dGZpbGUubWFlPic=

> <r_lp_tautomer_probability>
1

> <r_epik_Ionization_Penalty>
0.00252014

> <r_epik_Ionization_Penalty_Charging>
0

> <r_epik_Ionization_Penalty_Neutral>
0.00252014

> <r_epik_State_Penalty>
0.00172506

> <r_epik_Charging_Adjusted_Penalty>
0.00172506

> <i_epik_Tot_Q>
0

> <i_epik_Tot_abs_Q>
0

> <r_epik_Metal_State_Penalty>
-0

> <b_epik_Metal_Only>
0

> <s_lp_Force_Field>
OPLS_2005

> <r_lp_Energy>
29.2507

> <b_lp_Chiralities_Consistent>
1

> <s_lp_Variant>
AV-unprocessed.smi:2600-2

> <Gold.Version>
5.8.1

> <Gold.Id.Protein>
6NUR|6NUR_protein|mol2

> <Gold.PLP.Fitness>
47.6387

> <Gold.PLP.PLP>
-45.4471

> <Gold.PLP.part.hbond>
-2.0000

> <Gold.PLP.part.metal>
0.0000

> <Gold.PLP.part.buried>
-3.8282

> <Gold.PLP.part.nonpolar>
-38.1118

> <Gold.PLP.part.repulsive>
0.1765

> <Gold.PLP.ligand.clash>
0.0000

> <Gold.PLP.ligand.torsion>
0.4196

> <Gold.PLP.Chemscore.Hbond>
1.0000

> <Gold.PLP.Chemscore.CHOScore>
0.0000

> <Gold.PLP.Chemscore.Metal>
0.0000

> <Gold.Chemscore.Hbonds>
donor molecule, donor type, donor heavy atom, donor atom, acceptor molecule, acceptor atom, score
      P1  H  7997  8008       L1     8  1.00

> <Gold.PLP.Chemscore.Internal.Correction>
0.0308

> <Gold.Rescore>
     Score         DG    S(hbond)    S(metal)    S(lipo)     H(rot)  DE(clash)    DE(int)     intcor
     16.11     -16.67       0.98        0.00      99.89       1.47       0.09       0.46       ----

> <Gold.Chemscore.Fitness>
16.1119

> <Gold.Chemscore.DG>
-16.6695

> <Gold.Chemscore.ZeroCoef>
-5.4800

> <Gold.Chemscore.Hbond>
0.9804

> <Gold.Chemscore.Metal>
0.0000

> <Gold.Chemscore.Lipo>
99.8898

> <Gold.Chemscore.Internal_Hbond>
0.0000

> <Gold.Chemscore.DEClash>
0.0929

> <Gold.Chemscore.DEInternal>
0.4647

> <Gold.Chemscore.Rot>
1.4735

> <Gold.Chemscore.Internal.Correction>
   9.000000E+99

> <Gold.Chemscore.Hbonds>
donor molecule, donor type, donor heavy atom, donor atom, acceptor molecule, acceptor atom, score
      P1  H  7997  8008       L1     8  0.96

> <Gold.Chemscore.Hbond.Weighted>
-3.2745

> <Gold.Chemscore.Metal.Weighted>
-0.0000

> <Gold.Chemscore.Lipo.Weighted>
-11.6871

> <Gold.Chemscore.Internal_Hbond.Weighted>
0.0000

> <Gold.Chemscore.DEClash.Weighted>
0.0929

> <Gold.Chemscore.DEInternal.Weighted>
0.4647

> <Gold.Chemscore.Rot.Weighted>
3.7721

> <Gold.Chemscore.Internal.Correction.Weighted>
   9.000000E+99

> <Gold.Protein.RotatedTorsions>
[ 6907 6896 6895 6894 ] final   31.33 input  -60.11 | X-H torsion
[ 7974 7965 7964 7962 ] final  141.72 input  175.53 | X-H torsion
[ 8008 7997 7996 7995 ] final  -63.17 input   59.86 | X-H torsion
[ 10167 10162 10161 10158 ] final  123.50 input  -65.29 | X-H torsion
[ 10718 10713 10712 10709 ] final  -40.20 input   66.30 | X-H torsion
[ 10763 10752 10751 10750 ] final    9.71 input  -60.55 | X-H torsion
[ 11005 11000 10999 10996 ] final  -18.78 input  -57.11 | X-H torsion

> <Gold.Protein.ActiveResidues>
 VAL166  LYS551  ARG553  GLY616  TRP617  ASP618  TYR619  PRO620  LYS621  CYS622 
 ASP623  PHE694  ASN695  SER759  ASP760  ASP761  ALA762  ILE779  LEU786  VAL792 
 PHE793  MET794  SER795  GLU796  ALA797  LYS798  CYS799  TRP800  GLU811  SER814 

> <Gold.Protein.RotatedAtoms>
  152.0587  134.9608  160.0574 H   0  0  0  0  0  0  0  0  0  0  0  0  # atno 6907 bound_to 6896
  152.0980  133.4230  159.4582 H   0  0  0  0  0  0  0  0  0  0  0  0  # atno 6908 bound_to 6896
  150.6838  134.2713  159.4633 H   0  0  0  0  0  0  0  0  0  0  0  0  # atno 6909 bound_to 6896
  144.9071  139.5343  143.5726 H   0  0  0  0  0  0  0  0  0  0  0  0  # atno 7974 bound_to 7965
  154.4540  140.0980  156.6701 H   0  0  0  0  0  0  0  0  0  0  0  0  # atno 8008 bound_to 7997
  155.5197  140.3478  155.4386 H   0  0  0  0  0  0  0  0  0  0  0  0  # atno 8009 bound_to 7997
  156.0739  140.1356  156.9784 H   0  0  0  0  0  0  0  0  0  0  0  0  # atno 8010 bound_to 7997
  139.5795  144.6980  151.3564 H   0  0  0  0  0  0  0  0  0  0  0  0  # atno 10167 bound_to 10162
  156.2839  130.4220  149.8308 H   0  0  0  0  0  0  0  0  0  0  0  0  # atno 10718 bound_to 10713
  153.2111  135.6869  153.8113 H   0  0  0  0  0  0  0  0  0  0  0  0  # atno 10763 bound_to 10752
  153.7345  135.3247  155.3293 H   0  0  0  0  0  0  0  0  0  0  0  0  # atno 10764 bound_to 10752
  154.8222  135.4643  154.0919 H   0  0  0  0  0  0  0  0  0  0  0  0  # atno 10765 bound_to 10752
  140.8302  133.8003  155.9750 H   0  0  0  0  0  0  0  0  0  0  0  0  # atno 11005 bound_to 11000
  146.3139  139.7847  142.8998 LP  0  0  0  0  0  0  0  0  0  0  0  0  # atno 17320 bound_to 7965
  145.3517  141.0309  143.3334 LP  0  0  0  0  0  0  0  0  0  0  0  0  # atno 17321 bound_to 7965
  140.7075  143.7476  150.7508 LP  0  0  0  0  0  0  0  0  0  0  0  0  # atno 17342 bound_to 10162
  140.1005  143.4792  152.2428 LP  0  0  0  0  0  0  0  0  0  0  0  0  # atno 17343 bound_to 10162
  156.5745  130.8439  151.3366 LP  0  0  0  0  0  0  0  0  0  0  0  0  # atno 17370 bound_to 10713
  157.7323  130.9713  150.1920 LP  0  0  0  0  0  0  0  0  0  0  0  0  # atno 17371 bound_to 10713
  140.9006  134.2383  157.5043 LP  0  0  0  0  0  0  0  0  0  0  0  0  # atno 17394 bound_to 11000
  139.8705  134.9705  156.4703 LP  0  0  0  0  0  0  0  0  0  0  0  0  # atno 17395 bound_to 11000

$$$$
