AV-unprocessed.smi:3209|AV-procd|sdf|12269|dock4
  -GOLD-   2272018103D 1   1.00000     0.00000
 Structure written by MMmdl.
 37 39  0  0  0  0  0  0  0  0  2 V2000
  152.8387  138.1026  157.5613 C   0  0  0  0  0  0  0  0  0  0  0  0
  151.9450  138.6614  156.5074 C   0  0  0  0  0  0  0  0  0  0  0  0
  151.2446  139.7893  156.6539 N   0  0  0  0  0  0  0  0  0  0  0  0
  150.4800  140.0996  155.5251 C   0  0  0  0  0  0  0  0  0  0  0  0
  149.6293  141.3332  155.5186 C   0  0  0  0  0  0  0  0  0  0  0  0
  149.4624  141.9309  156.9221 C   0  0  0  0  0  0  0  0  0  0  0  0
  150.4276  143.0253  157.1509 N   0  3  0  0  0  0  0  0  0  0  0  0
  150.7234  143.2966  158.5747 C   0  0  1  0  0  0  0  0  0  0  0  0
  151.5423  142.1638  159.2368 C   0  0  0  0  0  0  0  0  0  0  0  0
  152.7914  142.8996  159.7550 C   0  0  2  0  0  0  0  0  0  0  0  0
  152.4008  143.8244  160.9228 C   0  0  0  0  0  0  0  0  0  0  0  0
  151.6373  144.9602  160.2152 C   0  0  0  0  0  0  0  0  0  0  0  0
  151.6570  144.5158  158.7402 C   0  0  1  0  0  0  0  0  0  0  0  0
  153.0476  143.8966  158.6319 C   0  0  0  0  0  0  0  0  0  0  0  0
  150.6180  139.1857  154.5099 C   0  0  0  0  0  0  0  0  0  0  0  0
  151.7116  137.8988  154.9393 S   0  0  0  0  0  0  0  0  0  0  0  0
  152.6931  138.6264  158.5065 H   0  0  0  0  0  0  0  0  0  0  0  0
  153.8807  138.2075  157.2592 H   0  0  0  0  0  0  0  0  0  0  0  0
  152.6217  137.0451  157.7126 H   0  0  0  0  0  0  0  0  0  0  0  0
  150.0657  142.0803  154.8543 H   0  0  0  0  0  0  0  0  0  0  0  0
  148.6474  141.1013  155.1033 H   0  0  0  0  0  0  0  0  0  0  0  0
  148.4500  142.3180  157.0453 H   0  0  0  0  0  0  0  0  0  0  0  0
  149.6039  141.1537  157.6741 H   0  0  0  0  0  0  0  0  0  0  0  0
  151.2928  142.8111  156.6760 H   0  0  0  0  0  0  0  0  0  0  0  0
  149.7832  143.4685  159.1012 H   0  0  0  0  0  0  0  0  0  0  0  0
  150.9918  141.6687  160.0377 H   0  0  0  0  0  0  0  0  0  0  0  0
  151.8328  141.3993  158.5143 H   0  0  0  0  0  0  0  0  0  0  0  0
  153.6264  142.2364  159.9827 H   0  0  0  0  0  0  0  0  0  0  0  0
  151.7904  143.3126  161.6680 H   0  0  0  0  0  0  0  0  0  0  0  0
  153.2870  144.2138  161.4257 H   0  0  0  0  0  0  0  0  0  0  0  0
  150.6252  145.0871  160.6014 H   0  0  0  0  0  0  0  0  0  0  0  0
  152.1617  145.9085  160.3399 H   0  0  0  0  0  0  0  0  0  0  0  0
  151.4553  145.3303  158.0434 H   0  0  0  0  0  0  0  0  0  0  0  0
  153.8533  144.5991  158.8533 H   0  0  0  0  0  0  0  0  0  0  0  0
  153.2409  143.4237  157.6674 H   0  0  0  0  0  0  0  0  0  0  0  0
  150.1449  139.1889  153.5390 H   0  0  0  0  0  0  0  0  0  0  0  0
  150.0389  143.8659  156.7476 H   0  0  0  0  0  0  0  0  0  0  0  0
  1  2  1  0  0  0  0
  1 17  1  0  0  0  0
  1 18  1  0  0  0  0
  1 19  1  0  0  0  0
  2 16  1  0  0  0  0
  2  3  2  0  0  0  0
  3  4  1  0  0  0  0
  4  5  1  0  0  0  0
  4 15  2  0  0  0  0
  5  6  1  0  0  0  0
  5 20  1  0  0  0  0
  5 21  1  0  0  0  0
  6  7  1  0  0  0  0
  6 22  1  0  0  0  0
  6 23  1  0  0  0  0
  7  8  1  0  0  0  0
  7 24  1  0  0  0  0
  7 37  1  0  0  0  0
  8 13  1  0  0  0  0
  8  9  1  0  0  0  0
  8 25  1  0  0  0  0
  9 10  1  0  0  0  0
  9 26  1  0  0  0  0
  9 27  1  0  0  0  0
 10 14  1  0  0  0  0
 10 11  1  0  0  0  0
 10 28  1  0  0  0  0
 11 12  1  0  0  0  0
 11 29  1  0  0  0  0
 11 30  1  0  0  0  0
 12 13  1  0  0  0  0
 12 31  1  0  0  0  0
 12 32  1  0  0  0  0
 13 14  1  0  0  0  0
 13 33  1  0  0  0  0
 14 34  1  0  0  0  0
 14 35  1  0  0  0  0
 15 16  1  0  0  0  0
 15 36  1  0  0  0  0
M  CHG  1   7   1
M  END
> <s_m_source_file>
AV-unprocessed.smi

> <i_m_source_file_index>
3209

> <i_lp_mmshare_version>
43012

> <i_f3d_flags>
0

> <s_epik_input>
W0NIM11jMW5jKFtjSF1zMSlbQ0gyXVtDSDJdW05IXVtDQEhdKFtDSDJdW0NASF0yMylbQ0BIXShbQ0gyXTMpW0NIMl1bQ0gyXTI=

> <s_epik_cmdline>
J2VwaWtfcHl0aG9uJywgJy1waCcsICc3LjAnLCAnLXRuJywgJzgnLCAnLW1hJywgJzIwMCcsICctbWV0YWxfYmluZGluZycsICctaW1hZScsICc8aW5maWxlLm1hZT4nLCAnLW9tYWUnLCAnPG91dGZpbGUubWFlPic=

> <r_lp_tautomer_probability>
1

> <r_epik_Ionization_Penalty>
0.000342479

> <r_epik_Ionization_Penalty_Charging>
0.000317129

> <r_epik_Ionization_Penalty_Neutral>
2.535e-05

> <r_epik_State_Penalty>
-0

> <r_epik_Charging_Adjusted_Penalty>
0.000317129

> <i_epik_Tot_Q>
1

> <i_epik_Tot_abs_Q>
1

> <r_epik_Metal_State_Penalty>
-0

> <b_epik_Metal_Only>
0

> <s_lp_Force_Field>
OPLS_2005

> <r_lp_Energy>
48.296

> <b_lp_Chiralities_Consistent>
1

> <s_lp_Variant>
AV-unprocessed.smi:3209-2

> <Gold.Version>
5.8.1

> <Gold.Id.Protein>
6NUR|6NUR_protein|mol2

> <Gold.PLP.Fitness>
47.0882

> <Gold.PLP.PLP>
-39.1977

> <Gold.PLP.part.hbond>
-1.0000

> <Gold.PLP.part.metal>
0.0000

> <Gold.PLP.part.buried>
-2.1180

> <Gold.PLP.part.nonpolar>
-35.6330

> <Gold.PLP.part.repulsive>
0.0051

> <Gold.PLP.ligand.clash>
0.0000

> <Gold.PLP.ligand.torsion>
0.5637

> <Gold.PLP.Chemscore.Hbond>
2.0000

> <Gold.PLP.Chemscore.CHOScore>
1.0000

> <Gold.PLP.Chemscore.Metal>
0.0000

> <Gold.Chemscore.Hbonds>
donor molecule, donor type, donor heavy atom, donor atom, acceptor molecule, acceptor atom, score
      L1  H     7    37       P1  8028  2.00
      L1  C    15    36       P1  7957  0.89

> <Gold.PLP.Chemscore.Internal.Correction>
0.0179

> <Gold.Rescore>
     Score         DG    S(hbond)    S(metal)    S(lipo)     H(rot)  DE(clash)    DE(int)     intcor
     20.00     -20.68       0.99        0.00     130.17       1.31       0.08       0.60       ----

> <Gold.Chemscore.Fitness>
19.9988

> <Gold.Chemscore.DG>
-20.6752

> <Gold.Chemscore.ZeroCoef>
-5.4800

> <Gold.Chemscore.Hbond>
0.9944

> <Gold.Chemscore.Metal>
0.0000

> <Gold.Chemscore.Lipo>
130.1676

> <Gold.Chemscore.Internal_Hbond>
0.0000

> <Gold.Chemscore.DEClash>
0.0751

> <Gold.Chemscore.DEInternal>
0.6012

> <Gold.Chemscore.Rot>
1.3108

> <Gold.Chemscore.Internal.Correction>
   9.000000E+99

> <Gold.Chemscore.Hbonds>
donor molecule, donor type, donor heavy atom, donor atom, acceptor molecule, acceptor atom, score
      L1  H     7    37       P1  8028  0.97

> <Gold.Chemscore.Hbond.Weighted>
-3.3213

> <Gold.Chemscore.Metal.Weighted>
-0.0000

> <Gold.Chemscore.Lipo.Weighted>
-15.2296

> <Gold.Chemscore.Internal_Hbond.Weighted>
0.0000

> <Gold.Chemscore.DEClash.Weighted>
0.0751

> <Gold.Chemscore.DEInternal.Weighted>
0.6012

> <Gold.Chemscore.Rot.Weighted>
3.3558

> <Gold.Chemscore.Internal.Correction.Weighted>
   9.000000E+99

> <Gold.Protein.RotatedTorsions>
[ 6907 6896 6895 6894 ] final -123.10 input  -60.11 | X-H torsion
[ 7974 7965 7964 7962 ] final  -42.60 input  175.53 | X-H torsion
[ 8008 7997 7996 7995 ] final  -91.91 input   59.86 | X-H torsion
[ 10167 10162 10161 10158 ] final -137.54 input  -65.29 | X-H torsion
[ 10718 10713 10712 10709 ] final -101.16 input   66.30 | X-H torsion
[ 10763 10752 10751 10750 ] final   98.36 input  -60.55 | X-H torsion
[ 11005 11000 10999 10996 ] final  -23.22 input  -57.11 | X-H torsion

> <Gold.Protein.ActiveResidues>
 VAL166  LYS551  ARG553  GLY616  TRP617  ASP618  TYR619  PRO620  LYS621  CYS622 
 ASP623  PHE694  ASN695  SER759  ASP760  ASP761  ALA762  ILE779  LEU786  VAL792 
 PHE793  MET794  SER795  GLU796  ALA797  LYS798  CYS799  TRP800  GLU811  SER814 

> <Gold.Protein.RotatedAtoms>
  150.8638  133.7604  159.2983 H   0  0  0  0  0  0  0  0  0  0  0  0  # atno 6907 bound_to 6896
  151.5238  135.1066  159.9895 H   0  0  0  0  0  0  0  0  0  0  0  0  # atno 6908 bound_to 6896
  152.4646  133.7851  159.6927 H   0  0  0  0  0  0  0  0  0  0  0  0  # atno 6909 bound_to 6896
  146.0100  140.6975  142.9229 H   0  0  0  0  0  0  0  0  0  0  0  0  # atno 7974 bound_to 7965
  154.7166  140.0514  157.0600 H   0  0  0  0  0  0  0  0  0  0  0  0  # atno 8008 bound_to 7997
  155.0483  140.3176  155.4681 H   0  0  0  0  0  0  0  0  0  0  0  0  # atno 8009 bound_to 7997
  156.2804  140.2120  156.5609 H   0  0  0  0  0  0  0  0  0  0  0  0  # atno 8010 bound_to 7997
  139.8568  143.7128  152.2653 H   0  0  0  0  0  0  0  0  0  0  0  0  # atno 10167 bound_to 10162
  156.0186  130.5361  150.6922 H   0  0  0  0  0  0  0  0  0  0  0  0  # atno 10718 bound_to 10713
  153.2881  135.4151  155.1141 H   0  0  0  0  0  0  0  0  0  0  0  0  # atno 10763 bound_to 10752
  154.8511  135.3511  154.6019 H   0  0  0  0  0  0  0  0  0  0  0  0  # atno 10764 bound_to 10752
  153.6441  135.7055  153.5289 H   0  0  0  0  0  0  0  0  0  0  0  0  # atno 10765 bound_to 10752
  140.8731  133.7707  156.0210 H   0  0  0  0  0  0  0  0  0  0  0  0  # atno 11005 bound_to 11000
  144.6949  140.3382  143.7204 LP  0  0  0  0  0  0  0  0  0  0  0  0  # atno 17320 bound_to 7965
  145.7356  139.1749  143.2405 LP  0  0  0  0  0  0  0  0  0  0  0  0  # atno 17321 bound_to 7965
  139.7412  144.7559  151.0649 LP  0  0  0  0  0  0  0  0  0  0  0  0  # atno 17342 bound_to 10162
  140.7780  143.4970  150.9820 LP  0  0  0  0  0  0  0  0  0  0  0  0  # atno 17343 bound_to 10162
  157.4601  131.0882  151.0754 LP  0  0  0  0  0  0  0  0  0  0  0  0  # atno 17370 bound_to 10713
  157.1245  130.6076  149.5513 LP  0  0  0  0  0  0  0  0  0  0  0  0  # atno 17371 bound_to 10713
  140.8550  134.2909  157.5259 LP  0  0  0  0  0  0  0  0  0  0  0  0  # atno 17394 bound_to 11000
  139.8713  134.9488  156.4007 LP  0  0  0  0  0  0  0  0  0  0  0  0  # atno 17395 bound_to 11000

$$$$
