AV-unprocessed.smi:54|AV-procd|sdf|536|dock10
  -GOLD-   2262016423D 1   1.00000     0.00000
 Structure written by MMmdl.
 44 46  0  0  0  0  0  0  0  0  1 V2000
  149.9122  139.5452  154.3726 C   0  0  0  0  0  0  0  0  0  0  0  0
  150.8578  138.7922  155.3218 C   0  0  0  0  0  0  0  0  0  0  0  0
  152.2686  139.4031  155.3051 C   0  0  0  0  0  0  0  0  0  0  0  0
  150.9057  137.3029  154.9619 C   0  0  0  0  0  0  0  0  0  0  0  0
  151.9186  136.7751  154.5012 O   0  0  0  0  0  0  0  0  0  0  0  0
  149.6757  136.5671  155.1953 N   0  0  0  0  0  0  0  0  0  0  0  0
  149.4444  135.2545  154.9600 C   0  0  0  0  0  0  0  0  0  0  0  0
  148.6998  134.8163  153.9546 N   0  0  0  0  0  0  0  0  0  0  0  0
  148.5873  133.4559  153.8829 C   0  0  0  0  0  0  0  0  0  0  0  0
  149.1634  132.5351  154.7327 C   0  0  0  0  0  0  0  0  0  0  0  0
  148.8191  131.2446  154.3449 N   0  0  0  0  0  0  0  0  0  0  0  0
  148.0621  131.4198  153.2975 C   0  0  0  0  0  0  0  0  0  0  0  0
  147.8739  132.7367  152.9504 N   0  0  0  0  0  0  0  0  0  0  0  0
  147.0766  133.3167  151.8287 C   0  0  1  0  0  0  0  0  0  0  0  0
  146.3783  132.2971  151.1962 O   0  0  0  0  0  0  0  0  0  0  0  0
  145.2542  132.8541  150.5217 C   0  0  1  0  0  0  0  0  0  0  0  0
  144.0848  131.8657  150.6453 C   0  0  0  0  0  0  0  0  0  0  0  0
  142.9763  132.3222  149.8993 O   0  0  0  0  0  0  0  0  0  0  0  0
  144.9903  134.2237  151.1863 C   0  0  2  0  0  0  0  0  0  0  0  0
  145.2210  135.2521  150.2426 O   0  0  0  0  0  0  0  0  0  0  0  0
  146.0183  134.3127  152.3080 C   0  0  1  0  0  0  0  0  0  0  0  0
  145.4443  133.9521  153.5522 O   0  0  0  0  0  0  0  0  0  0  0  0
  149.9785  132.9932  155.8207 C   0  0  0  0  0  0  0  0  0  0  0  0
  150.5676  132.3235  156.6663 O   0  0  0  0  0  0  0  0  0  0  0  0
  150.0683  134.3910  155.8608 N   0  0  0  0  0  0  0  0  0  0  0  0
  147.8037  133.7560  151.1438 H   0  0  0  0  0  0  0  0  0  0  0  0
  145.5276  132.9722  149.4713 H   0  0  0  0  0  0  0  0  0  0  0  0
  143.9693  134.3255  151.5576 H   0  0  0  0  0  0  0  0  0  0  0  0
  146.4611  135.3049  152.4090 H   0  0  0  0  0  0  0  0  0  0  0  0
  148.9107  139.1130  154.3862 H   0  0  0  0  0  0  0  0  0  0  0  0
  150.2721  139.5194  153.3430 H   0  0  0  0  0  0  0  0  0  0  0  0
  149.8198  140.5917  154.6642 H   0  0  0  0  0  0  0  0  0  0  0  0
  150.4642  138.8846  156.3351 H   0  0  0  0  0  0  0  0  0  0  0  0
  152.9418  138.8653  155.9739 H   0  0  0  0  0  0  0  0  0  0  0  0
  152.2461  140.4432  155.6313 H   0  0  0  0  0  0  0  0  0  0  0  0
  152.7047  139.3810  154.3053 H   0  0  0  0  0  0  0  0  0  0  0  0
  148.9006  137.1058  155.5519 H   0  0  0  0  0  0  0  0  0  0  0  0
  147.6214  130.5955  152.7560 H   0  0  0  0  0  0  0  0  0  0  0  0
  144.3762  130.8885  150.2593 H   0  0  0  0  0  0  0  0  0  0  0  0
  143.7979  131.7287  151.6883 H   0  0  0  0  0  0  0  0  0  0  0  0
  142.3644  131.6084  149.8029 H   0  0  0  0  0  0  0  0  0  0  0  0
  145.6668  134.8794  149.4971 H   0  0  0  0  0  0  0  0  0  0  0  0
  144.5341  133.7424  153.4108 H   0  0  0  0  0  0  0  0  0  0  0  0
  150.6259  134.7851  156.6039 H   0  0  0  0  0  0  0  0  0  0  0  0
  1  2  1  0  0  0  0
  1 30  1  0  0  0  0
  1 31  1  0  0  0  0
  1 32  1  0  0  0  0
  2  3  1  0  0  0  0
  2  4  1  0  0  0  0
  2 33  1  0  0  0  0
  3 34  1  0  0  0  0
  3 35  1  0  0  0  0
  3 36  1  0  0  0  0
  4  5  2  0  0  0  0
  4  6  1  0  0  0  0
  6 37  1  0  0  0  0
  6  7  1  0  0  0  0
  7 25  1  0  0  0  0
  7  8  2  0  0  0  0
  8  9  1  0  0  0  0
  9 13  1  0  0  0  0
  9 10  2  0  0  0  0
 10 11  1  0  0  0  0
 10 23  1  0  0  0  0
 11 12  2  0  0  0  0
 12 13  1  0  0  0  0
 12 38  1  0  0  0  0
 13 14  1  0  0  0  0
 14 26  1  0  0  0  0
 14 21  1  0  0  0  0
 14 15  1  0  0  0  0
 15 16  1  0  0  0  0
 16 27  1  0  0  0  0
 16 17  1  0  0  0  0
 16 19  1  0  0  0  0
 17 18  1  0  0  0  0
 17 39  1  0  0  0  0
 17 40  1  0  0  0  0
 18 41  1  0  0  0  0
 19 28  1  0  0  0  0
 19 20  1  0  0  0  0
 19 21  1  0  0  0  0
 20 42  1  0  0  0  0
 21 29  1  0  0  0  0
 21 22  1  0  0  0  0
 22 43  1  0  0  0  0
 23 24  2  0  0  0  0
 23 25  1  0  0  0  0
 25 44  1  0  0  0  0
M  END
> <s_m_source_file>
AV-unprocessed.smi

> <i_m_source_file_index>
54

> <i_lp_mmshare_version>
43012

> <i_f3d_flags>
0

> <s_epik_input>
W0NIM11bQ0hdKFtDSDNdKUMoPU8pW05IXWMobjEpW25IXWMoPU8pYyhjMTIpbltjSF1uMltDQEBIXTNPW0NASF0oW0NIMl1bT0hdKVtDQEBIXShbT0hdKVtDQEhdM1tPSF0=

> <s_epik_cmdline>
J2VwaWtfcHl0aG9uJywgJy1waCcsICc3LjAnLCAnLXRuJywgJzgnLCAnLW1hJywgJzIwMCcsICctbWV0YWxfYmluZGluZycsICctaW1hZScsICc8aW5maWxlLm1hZT4nLCAnLW9tYWUnLCAnPG91dGZpbGUubWFlPic=

> <r_lp_tautomer_probability>
0.85571

> <r_epik_Ionization_Penalty>
0.0316551

> <r_epik_Ionization_Penalty_Charging>
0.0316043

> <r_epik_Ionization_Penalty_Neutral>
5.07097e-05

> <r_epik_State_Penalty>
3.15494e-07

> <r_epik_Charging_Adjusted_Penalty>
0.0316047

> <i_epik_Tot_Q>
0

> <i_epik_Tot_abs_Q>
0

> <r_epik_Metal_State_Penalty>
0.421206

> <b_epik_Metal_Only>
0

> <s_epik_Chemistry_Notes>
This compound contains an acetal/aminal-like group ( X-CH(R)-Y where X, Y are N, S, or O) that may be acid/base labile, releasing an aldehyde.

> <s_lp_Force_Field>
OPLS_2005

> <r_lp_Energy>
42.5501

> <b_lp_Chiralities_Consistent>
1

> <s_lp_Variant>
AV-unprocessed.smi:54-8

> <Gold.Version>
5.8.1

> <Gold.Id.Protein>
6NUR|6NUR_protein|mol2

> <Gold.PLP.Fitness>
46.1326

> <Gold.PLP.PLP>
-38.2802

> <Gold.PLP.part.hbond>
-3.9613

> <Gold.PLP.part.metal>
0.0000

> <Gold.PLP.part.buried>
-6.2477

> <Gold.PLP.part.nonpolar>
-32.4951

> <Gold.PLP.part.repulsive>
5.1105

> <Gold.PLP.ligand.clash>
0.0000

> <Gold.PLP.ligand.torsion>
0.9384

> <Gold.PLP.Chemscore.Hbond>
3.0000

> <Gold.PLP.Chemscore.CHOScore>
0.2337

> <Gold.PLP.Chemscore.Metal>
0.0000

> <Gold.Chemscore.Hbonds>
donor molecule, donor type, donor heavy atom, donor atom, acceptor molecule, acceptor atom, score
      L1  H    18    41       P1 10952  1.00
      L1  H    20    42       P1  7921  1.00
      P1  H 10752 10765       L1     5  0.99
      L1  C    12    38       P1 10747  0.11

> <Gold.PLP.Chemscore.Internal.Correction>
0.0281

> <Gold.Rescore>
     Score         DG    S(hbond)    S(metal)    S(lipo)     H(rot)  DE(clash)    DE(int)     intcor
      8.60     -11.21       2.94        0.00      53.78       4.05       1.71       0.91       ----

> <Gold.Chemscore.Fitness>
8.5958

> <Gold.Chemscore.DG>
-11.2118

> <Gold.Chemscore.ZeroCoef>
-5.4800

> <Gold.Chemscore.Hbond>
2.9357

> <Gold.Chemscore.Metal>
0.0000

> <Gold.Chemscore.Lipo>
53.7842

> <Gold.Chemscore.Internal_Hbond>
0.0000

> <Gold.Chemscore.DEClash>
1.7079

> <Gold.Chemscore.DEInternal>
0.9080

> <Gold.Chemscore.Rot>
4.0493

> <Gold.Chemscore.Internal.Correction>
   9.000000E+99

> <Gold.Chemscore.Hbonds>
donor molecule, donor type, donor heavy atom, donor atom, acceptor molecule, acceptor atom, score
      L1  H    18    41       P1 10952  0.95
      L1  H    20    42       P1  7921  0.94
      P1  H 10752 10765       L1     5  0.92

> <Gold.Chemscore.Hbond.Weighted>
-9.8053

> <Gold.Chemscore.Metal.Weighted>
-0.0000

> <Gold.Chemscore.Lipo.Weighted>
-6.2928

> <Gold.Chemscore.Internal_Hbond.Weighted>
0.0000

> <Gold.Chemscore.DEClash.Weighted>
1.7079

> <Gold.Chemscore.DEInternal.Weighted>
0.9080

> <Gold.Chemscore.Rot.Weighted>
10.3662

> <Gold.Chemscore.Internal.Correction.Weighted>
   9.000000E+99

> <Gold.Protein.RotatedTorsions>
[ 6907 6896 6895 6894 ] final  -51.30 input  -60.11 | X-H torsion
[ 7974 7965 7964 7962 ] final  143.30 input  175.53 | X-H torsion
[ 8008 7997 7996 7995 ] final  -35.02 input   59.86 | X-H torsion
[ 10167 10162 10161 10158 ] final  143.19 input  -65.29 | X-H torsion
[ 10718 10713 10712 10709 ] final   85.94 input   66.30 | X-H torsion
[ 10763 10752 10751 10750 ] final  158.52 input  -60.55 | X-H torsion
[ 11005 11000 10999 10996 ] final  137.89 input  -57.11 | X-H torsion

> <Gold.Protein.ActiveResidues>
 VAL166  LYS551  ARG553  GLY616  TRP617  ASP618  TYR619  PRO620  LYS621  CYS622 
 ASP623  PHE694  ASN695  SER759  ASP760  ASP761  ALA762  ILE779  LEU786  VAL792 
 PHE793  MET794  SER795  GLU796  ALA797  LYS798  CYS799  TRP800  GLU811  SER814 

> <Gold.Protein.RotatedAtoms>
  150.8625  134.7980  159.7092 H   0  0  0  0  0  0  0  0  0  0  0  0  # atno 6907 bound_to 6896
  152.4657  134.5077  159.9754 H   0  0  0  0  0  0  0  0  0  0  0  0  # atno 6908 bound_to 6896
  151.5179  133.3434  159.2932 H   0  0  0  0  0  0  0  0  0  0  0  0  # atno 6909 bound_to 6896
  144.8933  139.5527  143.5788 H   0  0  0  0  0  0  0  0  0  0  0  0  # atno 7974 bound_to 7965
  154.4106  140.1668  156.2143 H   0  0  0  0  0  0  0  0  0  0  0  0  # atno 8008 bound_to 7997
  155.9417  140.3407  155.6310 H   0  0  0  0  0  0  0  0  0  0  0  0  # atno 8009 bound_to 7997
  155.6980  140.0741  157.2412 H   0  0  0  0  0  0  0  0  0  0  0  0  # atno 8010 bound_to 7997
  139.4975  144.6057  151.6385 H   0  0  0  0  0  0  0  0  0  0  0  0  # atno 10167 bound_to 10162
  157.6922  131.0195  150.2897 H   0  0  0  0  0  0  0  0  0  0  0  0  # atno 10718 bound_to 10713
  154.2174  135.2783  155.2937 H   0  0  0  0  0  0  0  0  0  0  0  0  # atno 10763 bound_to 10752
  154.5729  135.5613  153.7116 H   0  0  0  0  0  0  0  0  0  0  0  0  # atno 10764 bound_to 10752
  153.0050  135.6326  154.2314 H   0  0  0  0  0  0  0  0  0  0  0  0  # atno 10765 bound_to 10752
  140.0145  134.9424  157.0348 H   0  0  0  0  0  0  0  0  0  0  0  0  # atno 11005 bound_to 11000
  146.3066  139.7602  142.9051 LP  0  0  0  0  0  0  0  0  0  0  0  0  # atno 17320 bound_to 7965
  145.3745  141.0348  143.3212 LP  0  0  0  0  0  0  0  0  0  0  0  0  # atno 17321 bound_to 7965
  140.5718  144.0096  150.6220 LP  0  0  0  0  0  0  0  0  0  0  0  0  # atno 17342 bound_to 10162
  140.3216  143.3133  152.0778 LP  0  0  0  0  0  0  0  0  0  0  0  0  # atno 17343 bound_to 10162
  156.3430  130.3818  149.7393 LP  0  0  0  0  0  0  0  0  0  0  0  0  # atno 17370 bound_to 10713
  156.4895  130.8078  151.3089 LP  0  0  0  0  0  0  0  0  0  0  0  0  # atno 17371 bound_to 10713
  140.4495  134.1597  155.7180 LP  0  0  0  0  0  0  0  0  0  0  0  0  # atno 17394 bound_to 11000
  141.1734  133.8564  157.1500 LP  0  0  0  0  0  0  0  0  0  0  0  0  # atno 17395 bound_to 11000

$$$$
