AV-unprocessed.smi:1512|AV-procd|sdf|6105|dock8
  -GOLD-   22720 6233D 1   1.00000     0.00000
 Structure written by MMmdl.
 44 46  0  0  0  0  0  0  0  0  3 V2000
  150.7502  144.9526  158.9129 C   0  0  0  0  0  0  0  0  0  0  0  0
  150.5014  143.4353  158.9054 C   0  0  1  0  0  0  0  0  0  0  0  0
  149.7538  143.0583  157.7109 N   0  0  0  0  0  0  0  0  0  0  0  0
  149.1282  141.8879  157.4998 C   0  0  0  0  0  0  0  0  0  0  0  0
  149.0260  141.0178  158.3633 O   0  0  0  0  0  0  0  0  0  0  0  0
  148.5455  141.6298  156.0986 C   0  0  0  0  0  0  0  0  0  0  0  0
  149.0001  140.3756  155.4667 N   0  0  0  0  0  0  0  0  0  0  0  0
  148.0053  139.5275  154.9452 C   0  0  0  0  0  0  0  0  0  0  0  0
  148.3079  138.3786  154.3243 C   0  0  0  0  0  0  0  0  0  0  0  0
  149.6992  138.0243  154.1829 C   0  0  0  0  0  0  0  0  0  0  0  0
  150.6730  138.8238  154.6755 C   0  0  0  0  0  0  0  0  0  0  0  0
  152.0466  138.4260  154.4746 N   0  3  0  0  0  0  0  0  0  0  0  0
  152.2816  137.2824  154.0960 O   0  0  0  0  0  0  0  0  0  0  0  0
  152.9329  139.2425  154.7069 O   0  5  0  0  0  0  0  0  0  0  0  0
  150.3342  140.0740  155.3851 C   0  0  0  0  0  0  0  0  0  0  0  0
  151.1874  140.8166  155.8743 O   0  0  0  0  0  0  0  0  0  0  0  0
  151.8167  142.6216  158.9403 C   0  0  2  0  0  0  0  0  0  0  0  0
  151.6869  141.1896  159.5116 C   0  0  0  0  0  0  0  0  0  0  0  0
  152.8442  141.1160  160.5241 C   0  0  2  0  0  0  0  0  0  0  0  0
  152.4740  141.9444  161.7676 C   0  0  0  0  0  0  0  0  0  0  0  0
  152.5991  143.3919  161.2579 C   0  0  0  0  0  0  0  0  0  0  0  0
  152.9840  143.2031  159.7757 C   0  0  1  0  0  0  0  0  0  0  0  0
  153.9064  141.9912  159.8672 C   0  0  0  0  0  0  0  0  0  0  0  0
  151.2710  145.2627  159.8190 H   0  0  0  0  0  0  0  0  0  0  0  0
  149.8121  145.5072  158.8733 H   0  0  0  0  0  0  0  0  0  0  0  0
  151.3547  145.2598  158.0591 H   0  0  0  0  0  0  0  0  0  0  0  0
  149.8965  143.1750  159.7740 H   0  0  0  0  0  0  0  0  0  0  0  0
  149.7742  143.7183  156.9473 H   0  0  0  0  0  0  0  0  0  0  0  0
  147.4564  141.6359  156.1690 H   0  0  0  0  0  0  0  0  0  0  0  0
  148.7911  142.4873  155.4710 H   0  0  0  0  0  0  0  0  0  0  0  0
  146.9892  139.8694  155.0790 H   0  0  0  0  0  0  0  0  0  0  0  0
  147.5306  137.7405  153.9299 H   0  0  0  0  0  0  0  0  0  0  0  0
  149.9543  137.1156  153.6571 H   0  0  0  0  0  0  0  0  0  0  0  0
  152.1702  142.5324  157.9110 H   0  0  0  0  0  0  0  0  0  0  0  0
  150.7241  141.0025  159.9892 H   0  0  0  0  0  0  0  0  0  0  0  0
  151.8086  140.4497  158.7192 H   0  0  0  0  0  0  0  0  0  0  0  0
  153.1596  140.0981  160.7546 H   0  0  0  0  0  0  0  0  0  0  0  0
  151.4719  141.7172  162.1333 H   0  0  0  0  0  0  0  0  0  0  0  0
  153.1764  141.7620  162.5817 H   0  0  0  0  0  0  0  0  0  0  0  0
  151.6898  143.9732  161.4035 H   0  0  0  0  0  0  0  0  0  0  0  0
  153.3970  143.9092  161.7921 H   0  0  0  0  0  0  0  0  0  0  0  0
  153.4446  144.0850  159.3295 H   0  0  0  0  0  0  0  0  0  0  0  0
  154.7810  142.1583  160.4983 H   0  0  0  0  0  0  0  0  0  0  0  0
  154.2342  141.6180  158.8950 H   0  0  0  0  0  0  0  0  0  0  0  0
  1  2  1  0  0  0  0
  1 24  1  0  0  0  0
  1 25  1  0  0  0  0
  1 26  1  0  0  0  0
  2  3  1  0  0  0  0
  2 17  1  0  0  0  0
  2 27  1  0  0  0  0
  3  4  1  0  0  0  0
  3 28  1  0  0  0  0
  4  5  2  0  0  0  0
  4  6  1  0  0  0  0
  6  7  1  0  0  0  0
  6 29  1  0  0  0  0
  6 30  1  0  0  0  0
  7 15  1  0  0  0  0
  7  8  1  0  0  0  0
  8  9  2  0  0  0  0
  8 31  1  0  0  0  0
  9 10  1  0  0  0  0
  9 32  1  0  0  0  0
 10 11  2  0  0  0  0
 10 33  1  0  0  0  0
 11 12  1  0  0  0  0
 11 15  1  0  0  0  0
 12 13  2  0  0  0  0
 12 14  1  0  0  0  0
 15 16  2  0  0  0  0
 17 22  1  0  0  0  0
 17 18  1  0  0  0  0
 17 34  1  0  0  0  0
 18 19  1  0  0  0  0
 18 35  1  0  0  0  0
 18 36  1  0  0  0  0
 19 23  1  0  0  0  0
 19 20  1  0  0  0  0
 19 37  1  0  0  0  0
 20 21  1  0  0  0  0
 20 38  1  0  0  0  0
 20 39  1  0  0  0  0
 21 22  1  0  0  0  0
 21 40  1  0  0  0  0
 21 41  1  0  0  0  0
 22 23  1  0  0  0  0
 22 42  1  0  0  0  0
 23 43  1  0  0  0  0
 23 44  1  0  0  0  0
M  CHG  1  12   1
M  CHG  1  14  -1
M  END
> <s_m_source_file>
AV-unprocessed.smi

> <i_m_source_file_index>
1512

> <i_lp_mmshare_version>
43012

> <i_f3d_flags>
0

> <s_epik_input>
W0NIMl0xW0NIMl1bQ0BIXShbQ0gyXTIpW0NAQEhdKFtDSDJdW0NAQEhdMTIpW0NASF0oW0NIM10pW05IXUMoPU8pW0NIMl1uM1tjSF1bY0hdW2NIXWMoW04rXSg9TylbTy1dKWMzPU8=

> <s_epik_cmdline>
J2VwaWtfcHl0aG9uJywgJy1waCcsICc3LjAnLCAnLXRuJywgJzgnLCAnLW1hJywgJzIwMCcsICctbWV0YWxfYmluZGluZycsICctaW1hZScsICc8aW5maWxlLm1hZT4nLCAnLW9tYWUnLCAnPG91dGZpbGUubWFlPic=

> <r_lp_tautomer_probability>
1

> <r_epik_Ionization_Penalty>
2.17697e-08

> <r_epik_Ionization_Penalty_Charging>
1.42735e-10

> <r_epik_Ionization_Penalty_Neutral>
2.16269e-08

> <r_epik_State_Penalty>
-0

> <r_epik_Charging_Adjusted_Penalty>
1.42735e-10

> <i_epik_Tot_Q>
0

> <i_epik_Tot_abs_Q>
2

> <r_epik_Metal_State_Penalty>
-0

> <b_epik_Metal_Only>
0

> <s_lp_Force_Field>
OPLS_2005

> <r_lp_Energy>
64.4109

> <b_lp_Chiralities_Consistent>
1

> <s_lp_Variant>
AV-unprocessed.smi:1512-6

> <Gold.Version>
5.8.1

> <Gold.Id.Protein>
6NUR|6NUR_protein|mol2

> <Gold.PLP.Fitness>
51.1991

> <Gold.PLP.PLP>
-44.8142

> <Gold.PLP.part.hbond>
-4.8257

> <Gold.PLP.part.metal>
0.0000

> <Gold.PLP.part.buried>
-4.3621

> <Gold.PLP.part.nonpolar>
-36.3014

> <Gold.PLP.part.repulsive>
0.2328

> <Gold.PLP.ligand.clash>
0.0000

> <Gold.PLP.ligand.torsion>
0.8338

> <Gold.PLP.Chemscore.Hbond>
2.6787

> <Gold.PLP.Chemscore.CHOScore>
0.0000

> <Gold.PLP.Chemscore.Metal>
0.0000

> <Gold.Chemscore.Hbonds>
donor molecule, donor type, donor heavy atom, donor atom, acceptor molecule, acceptor atom, score
      L1  H     3    28       P1  8028  1.00
      P1  H  7989  7998       L1    14  0.03
      P1  H  7997  8010       L1    14  0.71
      P1  H 10752 10764       L1    13  0.83

> <Gold.PLP.Chemscore.Internal.Correction>
0.0162

> <Gold.Rescore>
     Score         DG    S(hbond)    S(metal)    S(lipo)     H(rot)  DE(clash)    DE(int)     intcor
     17.87     -23.09       2.62        0.00     113.93       1.75       1.72       3.50       ----

> <Gold.Chemscore.Fitness>
17.8686

> <Gold.Chemscore.DG>
-23.0872

> <Gold.Chemscore.ZeroCoef>
-5.4800

> <Gold.Chemscore.Hbond>
2.6199

> <Gold.Chemscore.Metal>
0.0000

> <Gold.Chemscore.Lipo>
113.9332

> <Gold.Chemscore.Internal_Hbond>
0.0000

> <Gold.Chemscore.DEClash>
1.7188

> <Gold.Chemscore.DEInternal>
3.4998

> <Gold.Chemscore.Rot>
1.7474

> <Gold.Chemscore.Internal.Correction>
   9.000000E+99

> <Gold.Chemscore.Hbonds>
donor molecule, donor type, donor heavy atom, donor atom, acceptor molecule, acceptor atom, score
      L1  H     3    28       P1  8028  0.91
      P1  H  7997  8010       L1    14  0.71
      P1  H 10752 10764       L1    13  0.81

> <Gold.Chemscore.Hbond.Weighted>
-8.7503

> <Gold.Chemscore.Metal.Weighted>
-0.0000

> <Gold.Chemscore.Lipo.Weighted>
-13.3302

> <Gold.Chemscore.Internal_Hbond.Weighted>
0.0000

> <Gold.Chemscore.DEClash.Weighted>
1.7188

> <Gold.Chemscore.DEInternal.Weighted>
3.4998

> <Gold.Chemscore.Rot.Weighted>
4.4733

> <Gold.Chemscore.Internal.Correction.Weighted>
   9.000000E+99

> <Gold.Protein.RotatedTorsions>
[ 6907 6896 6895 6894 ] final  -54.53 input  -60.11 | X-H torsion
[ 7974 7965 7964 7962 ] final   61.56 input  175.53 | X-H torsion
[ 8008 7997 7996 7995 ] final  106.54 input   59.86 | X-H torsion
[ 10167 10162 10161 10158 ] final  -66.07 input  -65.29 | X-H torsion
[ 10718 10713 10712 10709 ] final  157.15 input   66.30 | X-H torsion
[ 10763 10752 10751 10750 ] final  -95.71 input  -60.55 | X-H torsion
[ 11005 11000 10999 10996 ] final  161.70 input  -57.11 | X-H torsion

> <Gold.Protein.ActiveResidues>
 VAL166  LYS551  ARG553  GLY616  TRP617  ASP618  TYR619  PRO620  LYS621  CYS622 
 ASP623  PHE694  ASN695  SER759  ASP760  ASP761  ALA762  ILE779  LEU786  VAL792 
 PHE793  MET794  SER795  GLU796  ALA797  LYS798  CYS799  TRP800  GLU811  SER814 

> <Gold.Protein.RotatedAtoms>
  150.8330  134.7591  159.6868 H   0  0  0  0  0  0  0  0  0  0  0  0  # atno 6907 bound_to 6896
  152.4431  134.5547  159.9886 H   0  0  0  0  0  0  0  0  0  0  0  0  # atno 6908 bound_to 6896
  151.5704  133.3353  159.3024 H   0  0  0  0  0  0  0  0  0  0  0  0  # atno 6909 bound_to 6896
  145.8834  139.3459  143.0692 H   0  0  0  0  0  0  0  0  0  0  0  0  # atno 7974 bound_to 7965
  156.1751  140.3111  155.9045 H   0  0  0  0  0  0  0  0  0  0  0  0  # atno 8008 bound_to 7997
  155.3504  140.0470  157.3063 H   0  0  0  0  0  0  0  0  0  0  0  0  # atno 8009 bound_to 7997
  154.5282  140.2221  155.8862 H   0  0  0  0  0  0  0  0  0  0  0  0  # atno 8010 bound_to 7997
  140.5684  143.2316  151.6588 H   0  0  0  0  0  0  0  0  0  0  0  0  # atno 10167 bound_to 10162
  157.1954  131.0664  151.2056 H   0  0  0  0  0  0  0  0  0  0  0  0  # atno 10718 bound_to 10713
  154.7173  135.5110  153.8757 H   0  0  0  0  0  0  0  0  0  0  0  0  # atno 10763 bound_to 10752
  153.0831  135.6637  154.0012 H   0  0  0  0  0  0  0  0  0  0  0  0  # atno 10764 bound_to 10752
  153.9842  135.3026  155.3397 H   0  0  0  0  0  0  0  0  0  0  0  0  # atno 10765 bound_to 10752
  140.2184  134.8215  157.3195 H   0  0  0  0  0  0  0  0  0  0  0  0  # atno 11005 bound_to 11000
  145.8996  140.9251  143.0510 LP  0  0  0  0  0  0  0  0  0  0  0  0  # atno 17320 bound_to 7965
  144.6728  140.1015  143.7460 LP  0  0  0  0  0  0  0  0  0  0  0  0  # atno 17321 bound_to 7965
  139.5104  144.3542  152.0623 LP  0  0  0  0  0  0  0  0  0  0  0  0  # atno 17342 bound_to 10162
  140.2676  144.3999  150.6162 LP  0  0  0  0  0  0  0  0  0  0  0  0  # atno 17343 bound_to 10162
  157.3820  130.7236  149.6636 LP  0  0  0  0  0  0  0  0  0  0  0  0  # atno 17370 bound_to 10713
  155.9706  130.4170  150.4257 LP  0  0  0  0  0  0  0  0  0  0  0  0  # atno 17371 bound_to 10713
  140.1876  134.4412  155.7735 LP  0  0  0  0  0  0  0  0  0  0  0  0  # atno 17394 bound_to 11000
  141.2224  133.7012  156.7973 LP  0  0  0  0  0  0  0  0  0  0  0  0  # atno 17395 bound_to 11000

$$$$
