AV-unprocessed.smi:1795|AV-procd|sdf|7248|dock7
  -GOLD-   22720 8503D 1   1.00000     0.00000
 Structure written by MMmdl.
 48 49  0  0  0  0  0  0  0  0  2 V2000
  147.4593  133.7952  153.2244 C   0  0  0  0  0  0  0  0  0  0  0  0
  146.1752  134.5255  153.6573 C   0  0  1  0  0  0  0  0  0  0  0  0
  146.4322  135.9322  154.2358 C   0  0  0  0  0  0  0  0  0  0  0  0
  146.7607  136.9249  153.1747 N   0  3  2  0  0  0  0  0  0  0  0  0
  147.0439  138.3163  153.6618 C   0  0  2  0  0  0  0  0  0  0  0  0
  146.9629  139.3242  152.4911 C   0  0  0  0  0  0  0  0  0  0  0  0
  148.4116  138.4569  154.3899 C   0  0  0  0  0  0  0  0  0  0  0  0
  148.4546  139.5807  155.3220 N   0  0  0  0  0  0  0  0  0  0  0  0
  149.4522  140.4747  155.3988 C   0  0  0  0  0  0  0  0  0  0  0  0
  150.4608  140.4170  154.6942 O   0  0  0  0  0  0  0  0  0  0  0  0
  149.2883  141.5845  156.4466 C   0  0  0  0  0  0  0  0  0  0  0  0
  150.4346  141.6846  157.3654 N   0  0  0  0  0  0  0  0  0  0  0  0
  151.0680  142.9392  157.4691 C   0  0  0  0  0  0  0  0  0  0  0  0
  152.1182  143.1394  158.2810 C   0  0  0  0  0  0  0  0  0  0  0  0
  152.5994  142.0249  159.0625 C   0  0  0  0  0  0  0  0  0  0  0  0
  151.9987  140.8214  158.9736 C   0  0  0  0  0  0  0  0  0  0  0  0
  150.8481  140.5990  158.0902 C   0  0  0  0  0  0  0  0  0  0  0  0
  150.2891  139.5047  158.0070 O   0  0  0  0  0  0  0  0  0  0  0  0
  145.7053  136.8899  152.1263 C   0  0  0  0  0  0  0  0  0  0  0  0
  145.5342  135.4721  151.5555 C   0  0  2  0  0  0  0  0  0  0  0  0
  144.4084  135.4013  150.5174 C   0  0  0  0  0  0  0  0  0  0  0  0
  145.2078  134.5790  152.6129 O   0  0  0  0  0  0  0  0  0  0  0  0
  148.1190  133.6355  154.0776 H   0  0  0  0  0  0  0  0  0  0  0  0
  148.0248  134.3549  152.4801 H   0  0  0  0  0  0  0  0  0  0  0  0
  147.2263  132.8168  152.8034 H   0  0  0  0  0  0  0  0  0  0  0  0
  145.7268  133.9223  154.4476 H   0  0  0  0  0  0  0  0  0  0  0  0
  145.5496  136.2744  154.7789 H   0  0  0  0  0  0  0  0  0  0  0  0
  147.2422  135.8423  154.9585 H   0  0  0  0  0  0  0  0  0  0  0  0
  146.2660  138.5683  154.3845 H   0  0  0  0  0  0  0  0  0  0  0  0
  147.1556  140.3451  152.8202 H   0  0  0  0  0  0  0  0  0  0  0  0
  145.9815  139.3500  152.0218 H   0  0  0  0  0  0  0  0  0  0  0  0
  147.6938  139.0863  151.7176 H   0  0  0  0  0  0  0  0  0  0  0  0
  148.6557  137.5624  154.9639 H   0  0  0  0  0  0  0  0  0  0  0  0
  149.2120  138.5917  153.6618 H   0  0  0  0  0  0  0  0  0  0  0  0
  147.6646  139.6952  155.9406 H   0  0  0  0  0  0  0  0  0  0  0  0
  149.1267  142.5412  155.9455 H   0  0  0  0  0  0  0  0  0  0  0  0
  148.3682  141.3940  157.0006 H   0  0  0  0  0  0  0  0  0  0  0  0
  150.6431  143.7218  156.8574 H   0  0  0  0  0  0  0  0  0  0  0  0
  152.5886  144.1094  158.3507 H   0  0  0  0  0  0  0  0  0  0  0  0
  153.4442  142.1568  159.7224 H   0  0  0  0  0  0  0  0  0  0  0  0
  152.3722  139.9994  159.5667 H   0  0  0  0  0  0  0  0  0  0  0  0
  144.7621  137.2399  152.5499 H   0  0  0  0  0  0  0  0  0  0  0  0
  145.9466  137.5587  151.3029 H   0  0  0  0  0  0  0  0  0  0  0  0
  146.4582  135.1563  151.0708 H   0  0  0  0  0  0  0  0  0  0  0  0
  144.6075  136.0648  149.6754 H   0  0  0  0  0  0  0  0  0  0  0  0
  143.4505  135.6894  150.9517 H   0  0  0  0  0  0  0  0  0  0  0  0
  144.3046  134.3898  150.1243 H   0  0  0  0  0  0  0  0  0  0  0  0
  147.6136  136.5969  152.7444 H   0  0  0  0  0  0  0  0  0  0  0  0
  1  2  1  0  0  0  0
  1 23  1  0  0  0  0
  1 24  1  0  0  0  0
  1 25  1  0  0  0  0
  2 22  1  0  0  0  0
  2  3  1  0  0  0  0
  2 26  1  0  0  0  0
  3  4  1  0  0  0  0
  3 27  1  0  0  0  0
  3 28  1  0  0  0  0
  4  5  1  0  0  0  0
  4 19  1  0  0  0  0
  4 48  1  0  0  0  0
  5  6  1  0  0  0  0
  5  7  1  0  0  0  0
  5 29  1  0  0  0  0
  6 30  1  0  0  0  0
  6 31  1  0  0  0  0
  6 32  1  0  0  0  0
  7  8  1  0  0  0  0
  7 33  1  0  0  0  0
  7 34  1  0  0  0  0
  8  9  1  0  0  0  0
  8 35  1  0  0  0  0
  9 10  2  0  0  0  0
  9 11  1  0  0  0  0
 11 12  1  0  0  0  0
 11 36  1  0  0  0  0
 11 37  1  0  0  0  0
 12 17  1  0  0  0  0
 12 13  1  0  0  0  0
 13 14  2  0  0  0  0
 13 38  1  0  0  0  0
 14 15  1  0  0  0  0
 14 39  1  0  0  0  0
 15 16  2  0  0  0  0
 15 40  1  0  0  0  0
 16 17  1  0  0  0  0
 16 41  1  0  0  0  0
 17 18  2  0  0  0  0
 19 20  1  0  0  0  0
 19 42  1  0  0  0  0
 19 43  1  0  0  0  0
 20 21  1  0  0  0  0
 20 22  1  0  0  0  0
 20 44  1  0  0  0  0
 21 45  1  0  0  0  0
 21 46  1  0  0  0  0
 21 47  1  0  0  0  0
M  CHG  1   4   1
M  END
> <s_m_source_file>
AV-unprocessed.smi

> <i_m_source_file_index>
1795

> <i_lp_mmshare_version>
43012

> <i_f3d_flags>
0

> <s_epik_input>
W0NIM11bQ0BASF0xW0NIMl1OKFtDSDJdW0NASF0oTzEpW0NIM10pW0NASF0oW0NIM10pW0NIMl1bTkhdQyg9TylbQ0gyXW4yW2NIXVtjSF1bY0hdW2NIXWMyPU8=

> <s_epik_cmdline>
J2VwaWtfcHl0aG9uJywgJy1waCcsICc3LjAnLCAnLXRuJywgJzgnLCAnLW1hJywgJzIwMCcsICctbWV0YWxfYmluZGluZycsICctaW1hZScsICc8aW5maWxlLm1hZT4nLCAnLW9tYWUnLCAnPG91dGZpbGUubWFlPic=

> <r_lp_tautomer_probability>
1

> <r_epik_Ionization_Penalty>
0.656654

> <r_epik_Ionization_Penalty_Charging>
0.656654

> <r_epik_Ionization_Penalty_Neutral>
8.90321e-08

> <r_epik_State_Penalty>
0.675641

> <r_epik_Charging_Adjusted_Penalty>
1.33229

> <i_epik_Tot_Q>
1

> <i_epik_Tot_abs_Q>
1

> <r_epik_Metal_State_Penalty>
0.675691

> <b_epik_Metal_Only>
0

> <s_lp_Force_Field>
OPLS_2005

> <r_lp_Energy>
31.4881

> <b_lp_Chiralities_Consistent>
1

> <s_lp_Variant>
AV-unprocessed.smi:1795-12

> <Gold.Version>
5.8.1

> <Gold.Id.Protein>
6NUR|6NUR_protein|mol2

> <Gold.PLP.Fitness>
43.4578

> <Gold.PLP.PLP>
-32.7425

> <Gold.PLP.part.hbond>
-2.0000

> <Gold.PLP.part.metal>
0.0000

> <Gold.PLP.part.buried>
-2.7420

> <Gold.PLP.part.nonpolar>
-28.8965

> <Gold.PLP.part.repulsive>
0.1913

> <Gold.PLP.ligand.clash>
0.0000

> <Gold.PLP.ligand.torsion>
0.6680

> <Gold.PLP.Chemscore.Hbond>
3.0000

> <Gold.PLP.Chemscore.CHOScore>
1.0000

> <Gold.PLP.Chemscore.Metal>
0.0000

> <Gold.Chemscore.Hbonds>
donor molecule, donor type, donor heavy atom, donor atom, acceptor molecule, acceptor atom, score
      L1  H     4    48       P1  7948  2.00
      P1  H  7989  7998       L1    10  1.00
      L1  C    13    38       P1  8028  1.00

> <Gold.PLP.Chemscore.Internal.Correction>
0.0512

> <Gold.Rescore>
     Score         DG    S(hbond)    S(metal)    S(lipo)     H(rot)  DE(clash)    DE(int)     intcor
     15.30     -17.07       1.94        0.00      84.85       1.89       0.06       1.71       ----

> <Gold.Chemscore.Fitness>
15.3030

> <Gold.Chemscore.DG>
-17.0706

> <Gold.Chemscore.ZeroCoef>
-5.4800

> <Gold.Chemscore.Hbond>
1.9443

> <Gold.Chemscore.Metal>
0.0000

> <Gold.Chemscore.Lipo>
84.8492

> <Gold.Chemscore.Internal_Hbond>
0.0000

> <Gold.Chemscore.DEClash>
0.0607

> <Gold.Chemscore.DEInternal>
1.7069

> <Gold.Chemscore.Rot>
1.8870

> <Gold.Chemscore.Internal.Correction>
   9.000000E+99

> <Gold.Chemscore.Hbonds>
donor molecule, donor type, donor heavy atom, donor atom, acceptor molecule, acceptor atom, score
      L1  H     4    48       P1  7948  1.00
      P1  H  7989  7998       L1    10  0.97

> <Gold.Chemscore.Hbond.Weighted>
-6.4940

> <Gold.Chemscore.Metal.Weighted>
-0.0000

> <Gold.Chemscore.Lipo.Weighted>
-9.9274

> <Gold.Chemscore.Internal_Hbond.Weighted>
0.0000

> <Gold.Chemscore.DEClash.Weighted>
0.0607

> <Gold.Chemscore.DEInternal.Weighted>
1.7069

> <Gold.Chemscore.Rot.Weighted>
4.8308

> <Gold.Chemscore.Internal.Correction.Weighted>
   9.000000E+99

> <Gold.Protein.RotatedTorsions>
[ 6907 6896 6895 6894 ] final   87.41 input  -60.11 | X-H torsion
[ 7974 7965 7964 7962 ] final   93.23 input  175.53 | X-H torsion
[ 8008 7997 7996 7995 ] final  103.81 input   59.86 | X-H torsion
[ 10167 10162 10161 10158 ] final   71.15 input  -65.29 | X-H torsion
[ 10718 10713 10712 10709 ] final  -94.25 input   66.30 | X-H torsion
[ 10763 10752 10751 10750 ] final -164.37 input  -60.55 | X-H torsion
[ 11005 11000 10999 10996 ] final -144.04 input  -57.11 | X-H torsion

> <Gold.Protein.ActiveResidues>
 VAL166  LYS551  ARG553  GLY616  TRP617  ASP618  TYR619  PRO620  LYS621  CYS622 
 ASP623  PHE694  ASN695  SER759  ASP760  ASP761  ALA762  ILE779  LEU786  VAL792 
 PHE793  MET794  SER795  GLU796  ALA797  LYS798  CYS799  TRP800  GLU811  SER814 

> <Gold.Protein.RotatedAtoms>
  152.5410  134.2281  159.8813 H   0  0  0  0  0  0  0  0  0  0  0  0  # atno 6907 bound_to 6896
  151.2254  133.4472  159.2609 H   0  0  0  0  0  0  0  0  0  0  0  0  # atno 6908 bound_to 6896
  151.0765  134.9845  159.8391 H   0  0  0  0  0  0  0  0  0  0  0  0  # atno 6909 bound_to 6896
  145.4817  139.2278  143.2879 H   0  0  0  0  0  0  0  0  0  0  0  0  # atno 7974 bound_to 7965
  156.1517  140.3158  155.8659 H   0  0  0  0  0  0  0  0  0  0  0  0  # atno 8008 bound_to 7997
  155.3958  140.0496  157.3056 H   0  0  0  0  0  0  0  0  0  0  0  0  # atno 8009 bound_to 7997
  154.5064  140.2148  155.9253 H   0  0  0  0  0  0  0  0  0  0  0  0  # atno 8010 bound_to 7997
  140.0492  144.5326  150.7376 H   0  0  0  0  0  0  0  0  0  0  0  0  # atno 10167 bound_to 10162
  156.0024  130.5060  150.5899 H   0  0  0  0  0  0  0  0  0  0  0  0  # atno 10718 bound_to 10713
  154.7034  135.2992  154.9306 H   0  0  0  0  0  0  0  0  0  0  0  0  # atno 10763 bound_to 10752
  154.0231  135.6680  153.4778 H   0  0  0  0  0  0  0  0  0  0  0  0  # atno 10764 bound_to 10752
  153.0699  135.5067  154.8192 H   0  0  0  0  0  0  0  0  0  0  0  0  # atno 10765 bound_to 10752
  140.8064  134.2796  157.4958 H   0  0  0  0  0  0  0  0  0  0  0  0  # atno 11005 bound_to 11000
  146.2337  140.5604  142.8964 LP  0  0  0  0  0  0  0  0  0  0  0  0  # atno 17320 bound_to 7965
  144.7885  140.5984  143.6557 LP  0  0  0  0  0  0  0  0  0  0  0  0  # atno 17321 bound_to 7965
  140.7225  143.2602  151.4232 LP  0  0  0  0  0  0  0  0  0  0  0  0  # atno 17342 bound_to 10162
  139.5964  144.1388  152.2148 LP  0  0  0  0  0  0  0  0  0  0  0  0  # atno 17343 bound_to 10162
  157.3765  131.0774  151.1513 LP  0  0  0  0  0  0  0  0  0  0  0  0  # atno 17370 bound_to 10713
  157.2250  130.6498  149.5826 LP  0  0  0  0  0  0  0  0  0  0  0  0  # atno 17371 bound_to 10713
  139.8717  134.9458  156.3921 LP  0  0  0  0  0  0  0  0  0  0  0  0  # atno 17394 bound_to 11000
  140.9242  133.7623  155.9944 LP  0  0  0  0  0  0  0  0  0  0  0  0  # atno 17395 bound_to 11000

$$$$
