AV-unprocessed.smi:1230|AV-procd|sdf|5156|dock3
  -GOLD-   22720 4233D 1   1.00000     0.00000
 Structure written by MMmdl.
 39 40  0  0  0  0  0  0  0  0  1 V2000
  153.3108  141.3017  160.4027 C   0  0  0  0  0  0  0  0  0  0  0  0
  152.7748  142.6229  159.8269 C   0  0  2  0  0  0  0  0  0  0  0  0
  152.4789  143.6276  160.9591 C   0  0  0  0  0  0  0  0  0  0  0  0
  151.9326  144.9558  160.4149 C   0  0  0  0  0  0  0  0  0  0  0  0
  150.6808  144.7257  159.5577 C   0  0  0  0  0  0  0  0  0  0  0  0
  150.9678  143.7372  158.4182 C   0  0  0  0  0  0  0  0  0  0  0  0
  151.5200  142.3982  158.9528 C   0  0  1  0  0  0  0  0  0  0  0  0
  151.8932  141.5656  157.8614 O   0  0  0  0  0  0  0  0  0  0  0  0
  150.8122  140.8847  157.2433 C   0  0  0  0  0  0  0  0  0  0  0  0
  151.2061  140.5649  155.7935 C   0  0  0  0  0  0  0  0  0  0  0  0
  150.0672  140.3178  154.9450 N   0  0  0  0  0  0  0  0  0  0  0  0
  149.0850  141.2708  154.7230 C   0  0  0  0  0  0  0  0  0  0  0  0
  148.0215  141.0525  153.9138 C   0  0  0  0  0  0  0  0  0  0  0  0
  147.0198  142.0426  153.6944 C   0  0  0  0  0  0  0  0  0  0  0  0
  146.2165  142.8604  153.5354 N   0  0  0  0  0  0  0  0  0  0  0  0
  147.8594  139.7754  153.2209 C   0  0  0  0  0  0  0  0  0  0  0  0
  146.9318  139.4796  152.4700 O   0  0  0  0  0  0  0  0  0  0  0  0
  148.8792  138.8512  153.4703 N   0  0  0  0  0  0  0  0  0  0  0  0
  149.9833  139.0618  154.2992 C   0  0  0  0  0  0  0  0  0  0  0  0
  150.8261  138.1748  154.4353 O   0  0  0  0  0  0  0  0  0  0  0  0
  148.8130  137.9554  153.0091 H   0  0  0  0  0  0  0  0  0  0  0  0
  152.5654  140.8119  161.0299 H   0  0  0  0  0  0  0  0  0  0  0  0
  154.1989  141.4712  161.0119 H   0  0  0  0  0  0  0  0  0  0  0  0
  153.5877  140.6056  159.6106 H   0  0  0  0  0  0  0  0  0  0  0  0
  153.5559  143.0508  159.1962 H   0  0  0  0  0  0  0  0  0  0  0  0
  151.7566  143.1972  161.6539 H   0  0  0  0  0  0  0  0  0  0  0  0
  153.3848  143.8168  161.5361 H   0  0  0  0  0  0  0  0  0  0  0  0
  151.6994  145.6283  161.2409 H   0  0  0  0  0  0  0  0  0  0  0  0
  152.6998  145.4514  159.8187 H   0  0  0  0  0  0  0  0  0  0  0  0
  149.8740  144.3403  160.1824 H   0  0  0  0  0  0  0  0  0  0  0  0
  150.3305  145.6736  159.1488 H   0  0  0  0  0  0  0  0  0  0  0  0
  150.0539  143.5762  157.8472 H   0  0  0  0  0  0  0  0  0  0  0  0
  151.6877  144.1792  157.7279 H   0  0  0  0  0  0  0  0  0  0  0  0
  150.7598  141.9054  159.5621 H   0  0  0  0  0  0  0  0  0  0  0  0
  150.5990  139.9602  157.7822 H   0  0  0  0  0  0  0  0  0  0  0  0
  149.9100  141.4954  157.2675 H   0  0  0  0  0  0  0  0  0  0  0  0
  151.7986  141.3591  155.3340 H   0  0  0  0  0  0  0  0  0  0  0  0
  151.8188  139.6631  155.7518 H   0  0  0  0  0  0  0  0  0  0  0  0
  149.1676  142.2313  155.2121 H   0  0  0  0  0  0  0  0  0  0  0  0
  1  2  1  0  0  0  0
  1 22  1  0  0  0  0
  1 23  1  0  0  0  0
  1 24  1  0  0  0  0
  2  7  1  0  0  0  0
  2  3  1  0  0  0  0
  2 25  1  0  0  0  0
  3  4  1  0  0  0  0
  3 26  1  0  0  0  0
  3 27  1  0  0  0  0
  4  5  1  0  0  0  0
  4 28  1  0  0  0  0
  4 29  1  0  0  0  0
  5  6  1  0  0  0  0
  5 30  1  0  0  0  0
  5 31  1  0  0  0  0
  6  7  1  0  0  0  0
  6 32  1  0  0  0  0
  6 33  1  0  0  0  0
  7  8  1  0  0  0  0
  7 34  1  0  0  0  0
  8  9  1  0  0  0  0
  9 10  1  0  0  0  0
  9 35  1  0  0  0  0
  9 36  1  0  0  0  0
 10 11  1  0  0  0  0
 10 37  1  0  0  0  0
 10 38  1  0  0  0  0
 11 19  1  0  0  0  0
 11 12  1  0  0  0  0
 12 13  2  0  0  0  0
 12 39  1  0  0  0  0
 13 14  1  0  0  0  0
 13 16  1  0  0  0  0
 14 15  3  0  0  0  0
 16 17  2  0  0  0  0
 16 18  1  0  0  0  0
 18 21  1  0  0  0  0
 18 19  1  0  0  0  0
 19 20  2  0  0  0  0
M  END
> <s_m_source_file>
AV-unprocessed.smi

> <i_m_source_file_index>
1230

> <i_lp_mmshare_version>
43012

> <i_f3d_flags>
0

> <s_epik_input>
W0NIM11bQ0BASF0xW0NIMl1bQ0gyXVtDSDJdW0NIMl1bQ0BIXTFPW0NIMl1bQ0gyXW4yW2NIXWMoQyNOKWMoPU8pW25IXWMyPU8=

> <s_epik_cmdline>
J2VwaWtfcHl0aG9uJywgJy1waCcsICc3LjAnLCAnLXRuJywgJzgnLCAnLW1hJywgJzIwMCcsICctbWV0YWxfYmluZGluZycsICctaW1hZScsICc8aW5maWxlLm1hZT4nLCAnLW9tYWUnLCAnPG91dGZpbGUubWFlPic=

> <r_epik_Ionization_Penalty>
0.421541

> <r_epik_Ionization_Penalty_Charging>
0.421541

> <r_epik_Ionization_Penalty_Neutral>
2.29267e-11

> <r_epik_State_Penalty>
0.422277

> <r_epik_Charging_Adjusted_Penalty>
0.843818

> <i_epik_Tot_Q>
0

> <i_epik_Tot_abs_Q>
0

> <r_epik_Metal_State_Penalty>
4.11629

> <b_epik_Metal_Only>
0

> <s_lp_Force_Field>
OPLS_2005

> <r_lp_Energy>
13.3679

> <b_lp_Chiralities_Consistent>
1

> <s_lp_Variant>
AV-unprocessed.smi:1230-5

> <Gold.Version>
5.8.1

> <Gold.Id.Protein>
6NUR|6NUR_protein|mol2

> <Gold.PLP.Fitness>
50.5485

> <Gold.PLP.PLP>
-45.6810

> <Gold.PLP.part.hbond>
-1.8893

> <Gold.PLP.part.metal>
0.0000

> <Gold.PLP.part.buried>
-3.8946

> <Gold.PLP.part.nonpolar>
-39.8725

> <Gold.PLP.part.repulsive>
0.7689

> <Gold.PLP.ligand.clash>
0.0000

> <Gold.PLP.ligand.torsion>
0.4381

> <Gold.PLP.Chemscore.Hbond>
0.9100

> <Gold.PLP.Chemscore.CHOScore>
1.0000

> <Gold.PLP.Chemscore.Metal>
0.0000

> <Gold.Chemscore.Hbonds>
donor molecule, donor type, donor heavy atom, donor atom, acceptor molecule, acceptor atom, score
      L1  H    18    21       P1  7948  0.94
      L1  C    12    39       P1  8028  0.98

> <Gold.PLP.Chemscore.Internal.Correction>
0.0138

> <Gold.Rescore>
     Score         DG    S(hbond)    S(metal)    S(lipo)     H(rot)  DE(clash)    DE(int)     intcor
     14.95     -15.52       0.95        0.00     101.01       1.94       0.10       0.47       ----

> <Gold.Chemscore.Fitness>
14.9513

> <Gold.Chemscore.DG>
-15.5249

> <Gold.Chemscore.ZeroCoef>
-5.4800

> <Gold.Chemscore.Hbond>
0.9547

> <Gold.Chemscore.Metal>
0.0000

> <Gold.Chemscore.Lipo>
101.0147

> <Gold.Chemscore.Internal_Hbond>
0.0000

> <Gold.Chemscore.DEClash>
0.0995

> <Gold.Chemscore.DEInternal>
0.4741

> <Gold.Chemscore.Rot>
1.9385

> <Gold.Chemscore.Internal.Correction>
   9.000000E+99

> <Gold.Chemscore.Hbonds>
donor molecule, donor type, donor heavy atom, donor atom, acceptor molecule, acceptor atom, score
      L1  H    18    21       P1  7948  0.90

> <Gold.Chemscore.Hbond.Weighted>
-3.1887

> <Gold.Chemscore.Metal.Weighted>
-0.0000

> <Gold.Chemscore.Lipo.Weighted>
-11.8187

> <Gold.Chemscore.Internal_Hbond.Weighted>
0.0000

> <Gold.Chemscore.DEClash.Weighted>
0.0995

> <Gold.Chemscore.DEInternal.Weighted>
0.4741

> <Gold.Chemscore.Rot.Weighted>
4.9625

> <Gold.Chemscore.Internal.Correction.Weighted>
   9.000000E+99

> <Gold.Protein.RotatedTorsions>
[ 6907 6896 6895 6894 ] final -168.77 input  -60.11 | X-H torsion
[ 7974 7965 7964 7962 ] final  -41.81 input  175.53 | X-H torsion
[ 8008 7997 7996 7995 ] final    2.65 input   59.86 | X-H torsion
[ 10167 10162 10161 10158 ] final  -57.36 input  -65.29 | X-H torsion
[ 10718 10713 10712 10709 ] final -117.04 input   66.30 | X-H torsion
[ 10763 10752 10751 10750 ] final   80.52 input  -60.55 | X-H torsion
[ 11005 11000 10999 10996 ] final  138.86 input  -57.11 | X-H torsion

> <Gold.Protein.ActiveResidues>
 VAL166  LYS551  ARG553  GLY616  TRP617  ASP618  TYR619  PRO620  LYS621  CYS622 
 ASP623  PHE694  ASN695  SER759  ASP760  ASP761  ALA762  ILE779  LEU786  VAL792 
 PHE793  MET794  SER795  GLU796  ALA797  LYS798  CYS799  TRP800  GLU811  SER814 

> <Gold.Protein.RotatedAtoms>
  151.4810  133.3546  159.2837 H   0  0  0  0  0  0  0  0  0  0  0  0  # atno 6907 bound_to 6896
  150.8897  134.8302  159.7296 H   0  0  0  0  0  0  0  0  0  0  0  0  # atno 6908 bound_to 6896
  152.4815  134.4718  159.9690 H   0  0  0  0  0  0  0  0  0  0  0  0  # atno 6909 bound_to 6896
  146.0176  140.6889  142.9194 H   0  0  0  0  0  0  0  0  0  0  0  0  # atno 7974 bound_to 7965
  154.6941  140.2659  155.6783 H   0  0  0  0  0  0  0  0  0  0  0  0  # atno 8008 bound_to 7997
  156.2742  140.2785  156.1453 H   0  0  0  0  0  0  0  0  0  0  0  0  # atno 8009 bound_to 7997
  155.0855  140.0373  157.2642 H   0  0  0  0  0  0  0  0  0  0  0  0  # atno 8010 bound_to 7997
  140.6263  143.2439  151.5356 H   0  0  0  0  0  0  0  0  0  0  0  0  # atno 10167 bound_to 10162
  156.1006  130.6168  150.9113 H   0  0  0  0  0  0  0  0  0  0  0  0  # atno 10718 bound_to 10713
  153.1040  135.4799  154.8918 H   0  0  0  0  0  0  0  0  0  0  0  0  # atno 10763 bound_to 10752
  154.7410  135.3082  154.8731 H   0  0  0  0  0  0  0  0  0  0  0  0  # atno 10764 bound_to 10752
  153.9339  135.6841  153.4798 H   0  0  0  0  0  0  0  0  0  0  0  0  # atno 10765 bound_to 10752
  140.0214  134.9395  157.0481 H   0  0  0  0  0  0  0  0  0  0  0  0  # atno 11005 bound_to 11000
  144.6977  140.3509  143.7182 LP  0  0  0  0  0  0  0  0  0  0  0  0  # atno 17320 bound_to 7965
  145.7244  139.1718  143.2466 LP  0  0  0  0  0  0  0  0  0  0  0  0  # atno 17321 bound_to 7965
  139.5482  144.2464  152.1483 LP  0  0  0  0  0  0  0  0  0  0  0  0  # atno 17342 bound_to 10162
  140.1696  144.4948  150.6587 LP  0  0  0  0  0  0  0  0  0  0  0  0  # atno 17343 bound_to 10162
  157.6175  131.0932  150.8683 LP  0  0  0  0  0  0  0  0  0  0  0  0  # atno 17370 bound_to 10713
  156.8812  130.5180  149.5291 LP  0  0  0  0  0  0  0  0  0  0  0  0  # atno 17371 bound_to 10713
  140.4381  134.1710  155.7172 LP  0  0  0  0  0  0  0  0  0  0  0  0  # atno 17394 bound_to 11000
  141.1776  133.8482  157.1369 LP  0  0  0  0  0  0  0  0  0  0  0  0  # atno 17395 bound_to 11000

$$$$
