AV-unprocessed.smi:2146|AV-procd|sdf|8741|dock6
  -GOLD-   2272011513D 1   1.00000     0.00000
 Structure written by MMmdl.
 45 46  0  0  0  0  0  0  0  0  2 V2000
  146.0938  142.9731  153.9387 C   0  0  0  0  0  0  0  0  0  0  0  0
  145.9075  141.7472  154.8631 C   0  0  1  0  0  0  0  0  0  0  0  0
  146.6753  141.9594  156.2004 C   0  0  0  0  0  0  0  0  0  0  0  0
  148.1259  141.9936  156.0326 N   0  0  0  0  0  0  0  0  0  0  0  0
  148.9697  141.0283  156.4280 C   0  0  0  0  0  0  0  0  0  0  0  0
  148.5954  140.0046  157.0017 O   0  0  0  0  0  0  0  0  0  0  0  0
  150.4558  141.2699  156.1273 C   0  0  0  0  0  0  0  0  0  0  0  0
  151.2699  141.4590  157.3394 N   0  0  0  0  0  0  0  0  0  0  0  0
  151.0324  142.6302  158.0847 C   0  0  0  0  0  0  0  0  0  0  0  0
  151.6978  142.9273  159.2169 C   0  0  0  0  0  0  0  0  0  0  0  0
  151.4567  144.2315  159.9609 C   0  0  0  0  0  0  0  0  0  0  0  0
  150.1580  144.4233  160.1934 F   0  0  0  0  0  0  0  0  0  0  0  0
  152.0973  144.2383  161.1305 F   0  0  0  0  0  0  0  0  0  0  0  0
  151.9066  145.2558  159.2374 F   0  0  0  0  0  0  0  0  0  0  0  0
  152.7135  141.9808  159.6350 C   0  0  0  0  0  0  0  0  0  0  0  0
  152.9650  140.8638  158.9245 C   0  0  0  0  0  0  0  0  0  0  0  0
  152.2256  140.5507  157.6994 C   0  0  0  0  0  0  0  0  0  0  0  0
  152.4525  139.5374  157.0379 O   0  0  0  0  0  0  0  0  0  0  0  0
  144.4482  141.4497  155.0463 N   0  3  0  0  0  0  0  0  0  0  0  0
  144.2115  140.2317  155.8701 C   0  0  0  0  0  0  0  0  0  0  0  0
  142.7116  139.9120  155.9759 C   0  0  0  0  0  0  0  0  0  0  0  0
  142.0297  141.0238  156.5350 O   0  0  0  0  0  0  0  0  0  0  0  0
  142.1480  142.1721  155.7092 C   0  0  0  0  0  0  0  0  0  0  0  0
  143.6274  142.5741  155.5759 C   0  0  0  0  0  0  0  0  0  0  0  0
  147.1463  143.2029  153.7744 H   0  0  0  0  0  0  0  0  0  0  0  0
  145.6278  143.8609  154.3663 H   0  0  0  0  0  0  0  0  0  0  0  0
  145.6700  142.8204  152.9479 H   0  0  0  0  0  0  0  0  0  0  0  0
  146.3513  140.8803  154.3708 H   0  0  0  0  0  0  0  0  0  0  0  0
  146.3694  142.8984  156.6631 H   0  0  0  0  0  0  0  0  0  0  0  0
  146.4569  141.1677  156.9180 H   0  0  0  0  0  0  0  0  0  0  0  0
  148.5150  142.8065  155.5763 H   0  0  0  0  0  0  0  0  0  0  0  0
  150.8453  140.4260  155.5550 H   0  0  0  0  0  0  0  0  0  0  0  0
  150.5398  142.1278  155.4584 H   0  0  0  0  0  0  0  0  0  0  0  0
  150.2772  143.2812  157.6679 H   0  0  0  0  0  0  0  0  0  0  0  0
  153.2815  142.1672  160.5346 H   0  0  0  0  0  0  0  0  0  0  0  0
  153.7286  140.1804  159.2659 H   0  0  0  0  0  0  0  0  0  0  0  0
  144.7139  139.3647  155.4460 H   0  0  0  0  0  0  0  0  0  0  0  0
  144.6262  140.3805  156.8684 H   0  0  0  0  0  0  0  0  0  0  0  0
  142.2944  139.6607  154.9992 H   0  0  0  0  0  0  0  0  0  0  0  0
  142.5577  139.0462  156.6200 H   0  0  0  0  0  0  0  0  0  0  0  0
  141.7076  141.9778  154.7297 H   0  0  0  0  0  0  0  0  0  0  0  0
  141.5778  142.9867  156.1563 H   0  0  0  0  0  0  0  0  0  0  0  0
  144.0197  142.8902  156.5441 H   0  0  0  0  0  0  0  0  0  0  0  0
  143.6675  143.4332  154.9074 H   0  0  0  0  0  0  0  0  0  0  0  0
  144.0825  141.2551  154.1251 H   0  0  0  0  0  0  0  0  0  0  0  0
  1  2  1  0  0  0  0
  1 25  1  0  0  0  0
  1 26  1  0  0  0  0
  1 27  1  0  0  0  0
  2  3  1  0  0  0  0
  2 19  1  0  0  0  0
  2 28  1  0  0  0  0
  3  4  1  0  0  0  0
  3 29  1  0  0  0  0
  3 30  1  0  0  0  0
  4  5  1  0  0  0  0
  4 31  1  0  0  0  0
  5  6  2  0  0  0  0
  5  7  1  0  0  0  0
  7  8  1  0  0  0  0
  7 32  1  0  0  0  0
  7 33  1  0  0  0  0
  8 17  1  0  0  0  0
  8  9  1  0  0  0  0
  9 10  2  0  0  0  0
  9 34  1  0  0  0  0
 10 11  1  0  0  0  0
 10 15  1  0  0  0  0
 11 12  1  0  0  0  0
 11 13  1  0  0  0  0
 11 14  1  0  0  0  0
 15 16  2  0  0  0  0
 15 35  1  0  0  0  0
 16 17  1  0  0  0  0
 16 36  1  0  0  0  0
 17 18  2  0  0  0  0
 19 24  1  0  0  0  0
 19 20  1  0  0  0  0
 19 45  1  0  0  0  0
 20 21  1  0  0  0  0
 20 37  1  0  0  0  0
 20 38  1  0  0  0  0
 21 22  1  0  0  0  0
 21 39  1  0  0  0  0
 21 40  1  0  0  0  0
 22 23  1  0  0  0  0
 23 24  1  0  0  0  0
 23 41  1  0  0  0  0
 23 42  1  0  0  0  0
 24 43  1  0  0  0  0
 24 44  1  0  0  0  0
M  CHG  1  19   1
M  END
> <s_m_source_file>
AV-unprocessed.smi

> <i_m_source_file_index>
2146

> <i_lp_mmshare_version>
43012

> <i_f3d_flags>
0

> <s_epik_input>
W0NIMl0xW0NIMl1PW0NIMl1bQ0gyXU4xW0NASF0oW0NIM10pW0NIMl1bTkhdQyg9TylbQ0gyXW4yW2NIXWMoQyhGKShGKUYpW2NIXVtjSF1jMj1P

> <s_epik_cmdline>
J2VwaWtfcHl0aG9uJywgJy1waCcsICc3LjAnLCAnLXRuJywgJzgnLCAnLW1hJywgJzIwMCcsICctbWV0YWxfYmluZGluZycsICctaW1hZScsICc8aW5maWxlLm1hZT4nLCAnLW9tYWUnLCAnPG91dGZpbGUubWFlPic=

> <r_lp_tautomer_probability>
1

> <r_epik_Ionization_Penalty>
0.656654

> <r_epik_Ionization_Penalty_Charging>
0.656653

> <r_epik_Ionization_Penalty_Neutral>
9.12373e-08

> <r_epik_State_Penalty>
0.675641

> <r_epik_Charging_Adjusted_Penalty>
1.33229

> <i_epik_Tot_Q>
1

> <i_epik_Tot_abs_Q>
1

> <r_epik_Metal_State_Penalty>
0.675692

> <b_epik_Metal_Only>
0

> <s_lp_Force_Field>
OPLS_2005

> <r_lp_Energy>
32.7302

> <b_lp_Chiralities_Consistent>
1

> <s_lp_Variant>
AV-unprocessed.smi:2146-4

> <Gold.Version>
5.8.1

> <Gold.Id.Protein>
6NUR|6NUR_protein|mol2

> <Gold.PLP.Fitness>
56.8089

> <Gold.PLP.PLP>
-43.8922

> <Gold.PLP.part.hbond>
-3.0000

> <Gold.PLP.part.metal>
0.0000

> <Gold.PLP.part.buried>
-6.1150

> <Gold.PLP.part.nonpolar>
-35.4470

> <Gold.PLP.part.repulsive>
0.1112

> <Gold.PLP.ligand.clash>
0.0000

> <Gold.PLP.ligand.torsion>
0.5149

> <Gold.PLP.Chemscore.Hbond>
3.9440

> <Gold.PLP.Chemscore.CHOScore>
0.6502

> <Gold.PLP.Chemscore.Metal>
0.0000

> <Gold.Chemscore.Hbonds>
donor molecule, donor type, donor heavy atom, donor atom, acceptor molecule, acceptor atom, score
      L1  H     4    31       P1  8028  0.94
      L1  H    19    45       P1 10175  2.00
      P1  H  7997  8010       L1    18  0.63
      L1  C     9    34       P1  8028  0.27

> <Gold.PLP.Chemscore.Internal.Correction>
0.1638

> <Gold.Rescore>
     Score         DG    S(hbond)    S(metal)    S(lipo)     H(rot)  DE(clash)    DE(int)     intcor
     17.46     -18.16       2.88        0.00      73.84       2.18       0.23       0.48       ----

> <Gold.Chemscore.Fitness>
17.4570

> <Gold.Chemscore.DG>
-18.1625

> <Gold.Chemscore.ZeroCoef>
-5.4800

> <Gold.Chemscore.Hbond>
2.8820

> <Gold.Chemscore.Metal>
0.0000

> <Gold.Chemscore.Lipo>
73.8373

> <Gold.Chemscore.Internal_Hbond>
0.0000

> <Gold.Chemscore.DEClash>
0.2295

> <Gold.Chemscore.DEInternal>
0.4761

> <Gold.Chemscore.Rot>
2.1805

> <Gold.Chemscore.Internal.Correction>
   9.000000E+99

> <Gold.Chemscore.Hbonds>
donor molecule, donor type, donor heavy atom, donor atom, acceptor molecule, acceptor atom, score
      L1  H     4    31       P1  8028  0.91
      L1  H    19    45       P1 10175  0.50
      P1  H  7997  8010       L1    18  0.05

> <Gold.Chemscore.Hbond.Weighted>
-9.6257

> <Gold.Chemscore.Metal.Weighted>
-0.0000

> <Gold.Chemscore.Lipo.Weighted>
-8.6390

> <Gold.Chemscore.Internal_Hbond.Weighted>
0.0000

> <Gold.Chemscore.DEClash.Weighted>
0.2295

> <Gold.Chemscore.DEInternal.Weighted>
0.4761

> <Gold.Chemscore.Rot.Weighted>
5.5822

> <Gold.Chemscore.Internal.Correction.Weighted>
   9.000000E+99

> <Gold.Protein.RotatedTorsions>
[ 6907 6896 6895 6894 ] final -162.48 input  -60.11 | X-H torsion
[ 7974 7965 7964 7962 ] final   81.54 input  175.53 | X-H torsion
[ 8008 7997 7996 7995 ] final   58.58 input   59.86 | X-H torsion
[ 10167 10162 10161 10158 ] final -125.25 input  -65.29 | X-H torsion
[ 10718 10713 10712 10709 ] final   -1.05 input   66.30 | X-H torsion
[ 10763 10752 10751 10750 ] final -168.37 input  -60.55 | X-H torsion
[ 11005 11000 10999 10996 ] final    5.81 input  -57.11 | X-H torsion

> <Gold.Protein.ActiveResidues>
 VAL166  LYS551  ARG553  GLY616  TRP617  ASP618  TYR619  PRO620  LYS621  CYS622 
 ASP623  PHE694  ASN695  SER759  ASP760  ASP761  ALA762  ILE779  LEU786  VAL792 
 PHE793  MET794  SER795  GLU796  ALA797  LYS798  CYS799  TRP800  GLU811  SER814 

> <Gold.Protein.RotatedAtoms>
  151.3809  133.3821  159.2709 H   0  0  0  0  0  0  0  0  0  0  0  0  # atno 6907 bound_to 6896
  150.9578  134.8971  159.7722 H   0  0  0  0  0  0  0  0  0  0  0  0  # atno 6908 bound_to 6896
  152.5137  134.3767  159.9389 H   0  0  0  0  0  0  0  0  0  0  0  0  # atno 6909 bound_to 6896
  145.6368  139.2417  143.2053 H   0  0  0  0  0  0  0  0  0  0  0  0  # atno 7974 bound_to 7965
  155.5523  140.3486  155.4471 H   0  0  0  0  0  0  0  0  0  0  0  0  # atno 8008 bound_to 7997
  156.0575  140.1332  157.0006 H   0  0  0  0  0  0  0  0  0  0  0  0  # atno 8009 bound_to 7997
  154.4463  140.0992  156.6452 H   0  0  0  0  0  0  0  0  0  0  0  0  # atno 8010 bound_to 7997
  139.9841  143.5711  152.2367 H   0  0  0  0  0  0  0  0  0  0  0  0  # atno 10167 bound_to 10162
  156.8113  130.5425  149.5708 H   0  0  0  0  0  0  0  0  0  0  0  0  # atno 10718 bound_to 10713
  154.6636  135.2928  154.9835 H   0  0  0  0  0  0  0  0  0  0  0  0  # atno 10763 bound_to 10752
  154.0886  135.6594  153.4853 H   0  0  0  0  0  0  0  0  0  0  0  0  # atno 10764 bound_to 10752
  153.0444  135.5214  154.7598 H   0  0  0  0  0  0  0  0  0  0  0  0  # atno 10765 bound_to 10752
  140.5665  134.0142  155.7992 H   0  0  0  0  0  0  0  0  0  0  0  0  # atno 11005 bound_to 11000
  146.1312  140.7182  142.9411 LP  0  0  0  0  0  0  0  0  0  0  0  0  # atno 17320 bound_to 7965
  144.7172  140.4251  143.7035 LP  0  0  0  0  0  0  0  0  0  0  0  0  # atno 17321 bound_to 7965
  139.6388  144.7652  151.2382 LP  0  0  0  0  0  0  0  0  0  0  0  0  # atno 17342 bound_to 10162
  140.7478  143.6352  150.8386 LP  0  0  0  0  0  0  0  0  0  0  0  0  # atno 17343 bound_to 10162
  156.1043  130.5992  150.9945 LP  0  0  0  0  0  0  0  0  0  0  0  0  # atno 17370 bound_to 10713
  157.6504  131.0898  150.8062 LP  0  0  0  0  0  0  0  0  0  0  0  0  # atno 17371 bound_to 10713
  141.1082  133.9659  157.2958 LP  0  0  0  0  0  0  0  0  0  0  0  0  # atno 17394 bound_to 11000
  139.9382  135.0194  156.8624 LP  0  0  0  0  0  0  0  0  0  0  0  0  # atno 17395 bound_to 11000

$$$$
