AV-unprocessed.smi:243|AV-procd|sdf|1857|dock8
  -GOLD-   2262020483D 1   1.00000     0.00000
 Structure written by MMmdl.
 58 61  0  0  0  0  0  0  0  0  2 V2000
  144.0273  132.6353  148.7823 C   0  0  0  0  0  0  0  0  0  0  0  0
  144.5629  132.8776  150.2003 C   0  0  0  0  0  0  0  0  0  0  0  0
  145.5999  133.9434  150.2467 N   0  3  1  0  0  0  0  0  0  0  0  0
  145.0929  135.2373  150.7692 C   0  0  0  0  0  0  0  0  0  0  0  0
  144.8715  135.1883  152.2898 C   0  0  0  0  0  0  0  0  0  0  0  0
  146.1630  134.7687  153.0277 C   0  0  1  0  0  0  0  0  0  0  0  0
  146.0097  134.7738  154.4910 N   0  0  0  0  0  0  0  0  0  0  0  0
  145.8563  133.4909  155.1691 C   0  0  0  0  0  0  0  0  0  0  0  0
  146.5147  135.7620  155.2772 C   0  0  0  0  0  0  0  0  0  0  0  0
  147.1172  135.4604  156.4573 N   0  0  0  0  0  0  0  0  0  0  0  0
  147.6036  136.4290  157.2381 C   0  0  0  0  0  0  0  0  0  0  0  0
  147.5955  137.7468  157.0337 N   0  0  0  0  0  0  0  0  0  0  0  0
  146.9946  138.0599  155.8502 C   0  0  0  0  0  0  0  0  0  0  0  0
  146.4274  137.1390  154.9242 C   0  0  0  0  0  0  0  0  0  0  0  0
  145.9077  137.8268  153.8340 N   0  0  0  0  0  0  0  0  0  0  0  0
  146.1486  139.0807  154.1027 C   0  0  0  0  0  0  0  0  0  0  0  0
  146.8087  139.3112  155.2886 N   0  0  0  0  0  0  0  0  0  0  0  0
  147.2060  140.6037  155.8264 C   0  0  0  0  0  0  0  0  0  0  0  0
  148.7187  140.8948  155.6813 C   0  0  1  0  0  0  0  0  0  0  0  0
  149.0242  142.0936  156.3736 O   0  0  0  0  0  0  0  0  0  0  0  0
  149.5953  139.7828  156.2423 C   0  0  0  0  0  0  0  0  0  0  0  0
  150.8639  139.9040  155.4084 C   0  0  0  0  0  0  0  0  0  0  0  0
  150.3671  140.1909  154.1119 O   0  0  0  0  0  0  0  0  0  0  0  0
  149.2192  141.0276  154.2277 C   0  0  0  0  0  0  0  0  0  0  0  0
  146.7472  133.4509  152.4464 C   0  0  2  0  0  0  0  0  0  0  0  0
  148.1134  133.1043  153.0643 C   0  0  0  0  0  0  0  0  0  0  0  0
  146.8747  133.5552  150.9091 C   0  0  0  0  0  0  0  0  0  0  0  0
  143.1937  131.9328  148.8040 H   0  0  0  0  0  0  0  0  0  0  0  0
  144.7859  132.2122  148.1245 H   0  0  0  0  0  0  0  0  0  0  0  0
  143.6659  133.5606  148.3326 H   0  0  0  0  0  0  0  0  0  0  0  0
  143.7207  133.1820  150.8227 H   0  0  0  0  0  0  0  0  0  0  0  0
  144.9347  131.9474  150.6294 H   0  0  0  0  0  0  0  0  0  0  0  0
  145.8194  136.0157  150.5318 H   0  0  0  0  0  0  0  0  0  0  0  0
  144.1715  135.5171  150.2572 H   0  0  0  0  0  0  0  0  0  0  0  0
  144.5447  136.1697  152.6343 H   0  0  0  0  0  0  0  0  0  0  0  0
  144.0514  134.5064  152.5090 H   0  0  0  0  0  0  0  0  0  0  0  0
  146.9019  135.5432  152.8162 H   0  0  0  0  0  0  0  0  0  0  0  0
  146.6552  133.3281  155.8939 H   0  0  0  0  0  0  0  0  0  0  0  0
  145.8776  132.6629  154.4602 H   0  0  0  0  0  0  0  0  0  0  0  0
  144.9015  133.4504  155.6933 H   0  0  0  0  0  0  0  0  0  0  0  0
  148.0645  136.1017  158.1582 H   0  0  0  0  0  0  0  0  0  0  0  0
  145.8562  139.8779  153.4344 H   0  0  0  0  0  0  0  0  0  0  0  0
  146.6229  141.3769  155.3241 H   0  0  0  0  0  0  0  0  0  0  0  0
  146.9164  140.6393  156.8775 H   0  0  0  0  0  0  0  0  0  0  0  0
  148.8340  142.8239  155.8044 H   0  0  0  0  0  0  0  0  0  0  0  0
  149.7763  139.8630  157.3150 H   0  0  0  0  0  0  0  0  0  0  0  0
  149.1394  138.8097  156.0541 H   0  0  0  0  0  0  0  0  0  0  0  0
  151.4839  140.7323  155.7546 H   0  0  0  0  0  0  0  0  0  0  0  0
  151.4650  138.9946  155.4174 H   0  0  0  0  0  0  0  0  0  0  0  0
  148.4823  140.6804  153.5046 H   0  0  0  0  0  0  0  0  0  0  0  0
  149.4711  142.0568  153.9675 H   0  0  0  0  0  0  0  0  0  0  0  0
  146.0803  132.6183  152.6619 H   0  0  0  0  0  0  0  0  0  0  0  0
  148.8376  133.9028  152.9008 H   0  0  0  0  0  0  0  0  0  0  0  0
  148.5209  132.1917  152.6285 H   0  0  0  0  0  0  0  0  0  0  0  0
  148.0381  132.9404  154.1395 H   0  0  0  0  0  0  0  0  0  0  0  0
  147.2511  132.6213  150.4931 H   0  0  0  0  0  0  0  0  0  0  0  0
  147.6227  134.3097  150.6602 H   0  0  0  0  0  0  0  0  0  0  0  0
  145.8324  134.1198  149.2795 H   0  0  0  0  0  0  0  0  0  0  0  0
  1  2  1  0  0  0  0
  1 28  1  0  0  0  0
  1 29  1  0  0  0  0
  1 30  1  0  0  0  0
  2  3  1  0  0  0  0
  2 31  1  0  0  0  0
  2 32  1  0  0  0  0
  3 27  1  0  0  0  0
  3  4  1  0  0  0  0
  3 58  1  0  0  0  0
  4  5  1  0  0  0  0
  4 33  1  0  0  0  0
  4 34  1  0  0  0  0
  5  6  1  0  0  0  0
  5 35  1  0  0  0  0
  5 36  1  0  0  0  0
  6  7  1  0  0  0  0
  6 25  1  0  0  0  0
  6 37  1  0  0  0  0
  7  8  1  0  0  0  0
  7  9  1  0  0  0  0
  8 38  1  0  0  0  0
  8 39  1  0  0  0  0
  8 40  1  0  0  0  0
  9 14  1  0  0  0  0
  9 10  2  0  0  0  0
 10 11  1  0  0  0  0
 11 12  2  0  0  0  0
 11 41  1  0  0  0  0
 12 13  1  0  0  0  0
 13 17  1  0  0  0  0
 13 14  2  0  0  0  0
 14 15  1  0  0  0  0
 15 16  2  0  0  0  0
 16 17  1  0  0  0  0
 16 42  1  0  0  0  0
 17 18  1  0  0  0  0
 18 19  1  0  0  0  0
 18 43  1  0  0  0  0
 18 44  1  0  0  0  0
 19 24  1  0  0  0  0
 19 20  1  0  0  0  0
 19 21  1  0  0  0  0
 20 45  1  0  0  0  0
 21 22  1  0  0  0  0
 21 46  1  0  0  0  0
 21 47  1  0  0  0  0
 22 23  1  0  0  0  0
 22 48  1  0  0  0  0
 22 49  1  0  0  0  0
 23 24  1  0  0  0  0
 24 50  1  0  0  0  0
 24 51  1  0  0  0  0
 25 26  1  0  0  0  0
 25 27  1  0  0  0  0
 25 52  1  0  0  0  0
 26 53  1  0  0  0  0
 26 54  1  0  0  0  0
 26 55  1  0  0  0  0
 27 56  1  0  0  0  0
 27 57  1  0  0  0  0
M  CHG  1   3   1
M  END
> <s_m_source_file>
AV-unprocessed.smi

> <i_m_source_file_index>
243

> <i_lp_mmshare_version>
43012

> <i_f3d_flags>
0

> <s_epik_input>
W0NIM11bQ0gyXU4xW0NIMl1bQ0gyXVtDQEhdKFtDQEBIXShbQ0gzXSlbQ0gyXTEpTihbQ0gzXSljKG5bY0hdbjIpYyhjMjMpbltjSF1uM1tDSDJdW0NAQF00KFtPSF0pW0NIMl1bQ0gyXU9bQ0gyXTQ=

> <s_epik_cmdline>
J2VwaWtfcHl0aG9uJywgJy1waCcsICc3LjAnLCAnLXRuJywgJzgnLCAnLW1hJywgJzIwMCcsICctbWV0YWxfYmluZGluZycsICctaW1hZScsICc8aW5maWxlLm1hZT4nLCAnLW9tYWUnLCAnPG91dGZpbGUubWFlPic=

> <r_lp_tautomer_probability>
1

> <r_epik_Ionization_Penalty>
0.00253099

> <r_epik_Ionization_Penalty_Charging>
0.00137877

> <r_epik_Ionization_Penalty_Neutral>
0.00115221

> <r_epik_State_Penalty>
-0

> <r_epik_Charging_Adjusted_Penalty>
0.00137877

> <i_epik_Tot_Q>
1

> <i_epik_Tot_abs_Q>
1

> <r_epik_Metal_State_Penalty>
-0

> <b_epik_Metal_Only>
0

> <s_lp_Force_Field>
OPLS_2005

> <r_lp_Energy>
46.501

> <b_lp_Chiralities_Consistent>
1

> <s_lp_Variant>
AV-unprocessed.smi:243-10

> <Gold.Version>
5.8.1

> <Gold.Id.Protein>
6NUR|6NUR_protein|mol2

> <Gold.PLP.Fitness>
41.8002

> <Gold.PLP.PLP>
-32.4317

> <Gold.PLP.part.hbond>
-2.9780

> <Gold.PLP.part.metal>
0.0000

> <Gold.PLP.part.buried>
-5.6783

> <Gold.PLP.part.nonpolar>
-23.7036

> <Gold.PLP.part.repulsive>
0.7129

> <Gold.PLP.ligand.clash>
0.0000

> <Gold.PLP.ligand.torsion>
1.7214

> <Gold.PLP.Chemscore.Hbond>
2.9760

> <Gold.PLP.Chemscore.CHOScore>
1.0000

> <Gold.PLP.Chemscore.Metal>
0.0000

> <Gold.Chemscore.Hbonds>
donor molecule, donor type, donor heavy atom, donor atom, acceptor molecule, acceptor atom, score
      L1  H     3    58       P1  7921  1.00
      L1  H    20    45       P1  8028  0.90
      P1  H  7989  7998       L1    23  1.00
      L1  C    16    42       P1 10175  1.00

> <Gold.PLP.Chemscore.Internal.Correction>
0.8833

> <Gold.Rescore>
     Score         DG    S(hbond)    S(metal)    S(lipo)     H(rot)  DE(clash)    DE(int)     intcor
     14.32     -17.28       2.56        0.00      76.85       2.24       0.08       2.87       ----

> <Gold.Chemscore.Fitness>
14.3245

> <Gold.Chemscore.DG>
-17.2772

> <Gold.Chemscore.ZeroCoef>
-5.4800

> <Gold.Chemscore.Hbond>
2.5555

> <Gold.Chemscore.Metal>
0.0000

> <Gold.Chemscore.Lipo>
76.8453

> <Gold.Chemscore.Internal_Hbond>
0.0000

> <Gold.Chemscore.DEClash>
0.0828

> <Gold.Chemscore.DEInternal>
2.8700

> <Gold.Chemscore.Rot>
2.2379

> <Gold.Chemscore.Internal.Correction>
   9.000000E+99

> <Gold.Chemscore.Hbonds>
donor molecule, donor type, donor heavy atom, donor atom, acceptor molecule, acceptor atom, score
      L1  H     3    58       P1  7921  0.45
      L1  H    20    45       P1  8028  0.88
      P1  H  7989  7998       L1    23  0.25

> <Gold.Chemscore.Hbond.Weighted>
-8.5354

> <Gold.Chemscore.Metal.Weighted>
-0.0000

> <Gold.Chemscore.Lipo.Weighted>
-8.9909

> <Gold.Chemscore.Internal_Hbond.Weighted>
0.0000

> <Gold.Chemscore.DEClash.Weighted>
0.0828

> <Gold.Chemscore.DEInternal.Weighted>
2.8700

> <Gold.Chemscore.Rot.Weighted>
5.7291

> <Gold.Chemscore.Internal.Correction.Weighted>
   9.000000E+99

> <Gold.Protein.RotatedTorsions>
[ 6907 6896 6895 6894 ] final   44.15 input  -60.11 | X-H torsion
[ 7974 7965 7964 7962 ] final -178.98 input  175.53 | X-H torsion
[ 8008 7997 7996 7995 ] final -152.12 input   59.86 | X-H torsion
[ 10167 10162 10161 10158 ] final   92.09 input  -65.29 | X-H torsion
[ 10718 10713 10712 10709 ] final  116.88 input   66.30 | X-H torsion
[ 10763 10752 10751 10750 ] final  -36.87 input  -60.55 | X-H torsion
[ 11005 11000 10999 10996 ] final   70.82 input  -57.11 | X-H torsion

> <Gold.Protein.ActiveResidues>
 VAL166  LYS551  ARG553  GLY616  TRP617  ASP618  TYR619  PRO620  LYS621  CYS622 
 ASP623  PHE694  ASN695  SER759  ASP760  ASP761  ALA762  ILE779  LEU786  VAL792 
 PHE793  MET794  SER795  GLU796  ALA797  LYS798  CYS799  TRP800  GLU811  SER814 

> <Gold.Protein.RotatedAtoms>
  152.2290  134.8340  160.0475 H   0  0  0  0  0  0  0  0  0  0  0  0  # atno 6907 bound_to 6896
  151.9096  133.3552  159.3867 H   0  0  0  0  0  0  0  0  0  0  0  0  # atno 6908 bound_to 6896
  150.7020  134.4671  159.5452 H   0  0  0  0  0  0  0  0  0  0  0  0  # atno 6909 bound_to 6896
  144.7134  140.0787  143.6426 H   0  0  0  0  0  0  0  0  0  0  0  0  # atno 7974 bound_to 7965
  155.6501  140.0711  157.2590 H   0  0  0  0  0  0  0  0  0  0  0  0  # atno 8008 bound_to 7997
  154.4164  140.1735  156.1715 H   0  0  0  0  0  0  0  0  0  0  0  0  # atno 8009 bound_to 7997
  155.9784  140.3356  155.6643 H   0  0  0  0  0  0  0  0  0  0  0  0  # atno 8010 bound_to 7997
  139.8311  144.6687  150.9399 H   0  0  0  0  0  0  0  0  0  0  0  0  # atno 10167 bound_to 10162
  157.6132  131.1030  150.7536 H   0  0  0  0  0  0  0  0  0  0  0  0  # atno 10718 bound_to 10713
  153.8870  135.6816  153.4763 H   0  0  0  0  0  0  0  0  0  0  0  0  # atno 10763 bound_to 10752
  153.1202  135.4743  154.9181 H   0  0  0  0  0  0  0  0  0  0  0  0  # atno 10764 bound_to 10752
  154.7641  135.3219  154.8273 H   0  0  0  0  0  0  0  0  0  0  0  0  # atno 10765 bound_to 10752
  139.9576  134.7116  156.0717 H   0  0  0  0  0  0  0  0  0  0  0  0  # atno 11005 bound_to 11000
  145.9721  139.2877  143.1093 LP  0  0  0  0  0  0  0  0  0  0  0  0  # atno 17320 bound_to 7965
  145.9105  140.9183  143.0456 LP  0  0  0  0  0  0  0  0  0  0  0  0  # atno 17321 bound_to 7965
  140.7806  143.4000  151.1165 LP  0  0  0  0  0  0  0  0  0  0  0  0  # atno 17342 bound_to 10162
  139.7654  143.8573  152.3109 LP  0  0  0  0  0  0  0  0  0  0  0  0  # atno 17343 bound_to 10162
  156.7909  130.4889  149.5385 LP  0  0  0  0  0  0  0  0  0  0  0  0  # atno 17370 bound_to 10713
  156.1243  130.6133  151.0241 LP  0  0  0  0  0  0  0  0  0  0  0  0  # atno 17371 bound_to 10713
  141.1250  133.6602  156.3313 LP  0  0  0  0  0  0  0  0  0  0  0  0  # atno 17394 bound_to 11000
  140.5572  134.5969  157.5424 LP  0  0  0  0  0  0  0  0  0  0  0  0  # atno 17395 bound_to 11000

$$$$
