AV-unprocessed.smi:83|AV-procd|sdf|807|dock10
  -GOLD-   2262017203D 1   1.00000     0.00000
 Structure written by MMmdl.
 56 59  0  0  0  0  0  0  0  0  1 V2000
  152.6557  142.7089  162.5800 C   0  0  0  0  0  0  0  0  0  0  0  0
  151.9906  143.2750  161.3242 C   0  0  0  0  0  0  0  0  0  0  0  0
  151.5219  144.4127  161.3575 O   0  0  0  0  0  0  0  0  0  0  0  0
  151.9394  142.5009  160.2213 N   0  0  0  0  0  0  0  0  0  0  0  0
  152.4848  141.1500  160.0991 C   0  0  0  0  0  0  0  0  0  0  0  0
  152.3506  140.7874  158.6187 C   0  0  0  0  0  0  0  0  0  0  0  0
  151.1819  141.6380  158.1325 C   0  0  2  0  0  0  0  0  0  0  0  0
  151.1593  141.8587  156.6066 C   0  0  0  0  0  0  0  0  0  0  0  0
  150.5363  140.7487  155.8829 N   0  0  0  0  0  0  0  0  0  0  0  0
  151.0381  139.4020  156.1240 C   0  0  0  0  0  0  0  0  0  0  0  0
  149.2834  140.9171  155.3784 C   0  0  0  0  0  0  0  0  0  0  0  0
  149.0447  140.4814  154.1128 N   0  0  0  0  0  0  0  0  0  0  0  0
  147.8411  140.6307  153.5540 C   0  0  0  0  0  0  0  0  0  0  0  0
  146.7450  141.1841  154.0725 N   0  0  0  0  0  0  0  0  0  0  0  0
  146.9716  141.6275  155.3413 C   0  0  0  0  0  0  0  0  0  0  0  0
  148.1943  141.5329  156.0682 C   0  0  0  0  0  0  0  0  0  0  0  0
  148.0291  142.1090  157.3246 N   0  0  0  0  0  0  0  0  0  0  0  0
  146.7879  142.5102  157.3405 C   0  0  0  0  0  0  0  0  0  0  0  0
  146.0814  142.2626  156.1876 N   0  0  0  0  0  0  0  0  0  0  0  0
  144.6958  142.6051  155.9229 C   0  0  0  0  0  0  0  0  0  0  0  0
  144.5541  143.6510  154.8011 C   0  0  1  0  0  0  0  0  0  0  0  0
  144.7118  143.0439  153.5319 O   0  0  0  0  0  0  0  0  0  0  0  0
  143.2222  144.4245  154.8732 C   0  0  1  0  0  0  0  0  0  0  0  0
  143.1087  145.4909  155.9758 C   0  0  0  0  0  0  0  0  0  0  0  0
  142.5359  146.7021  155.2549 C   0  0  0  0  0  0  0  0  0  0  0  0
  142.0093  146.1246  153.9457 C   0  0  0  0  0  0  0  0  0  0  0  0
  142.9407  145.0973  153.6522 O   0  0  0  0  0  0  0  0  0  0  0  0
  151.3155  142.9161  158.9687 C   0  0  0  0  0  0  0  0  0  0  0  0
  152.1872  141.7703  162.8769 H   0  0  0  0  0  0  0  0  0  0  0  0
  152.5631  143.4076  163.4123 H   0  0  0  0  0  0  0  0  0  0  0  0
  153.7174  142.5318  162.4066 H   0  0  0  0  0  0  0  0  0  0  0  0
  153.5243  141.0925  160.4246 H   0  0  0  0  0  0  0  0  0  0  0  0
  151.8945  140.4686  160.7135 H   0  0  0  0  0  0  0  0  0  0  0  0
  153.2623  141.0706  158.0905 H   0  0  0  0  0  0  0  0  0  0  0  0
  152.1912  139.7204  158.4601 H   0  0  0  0  0  0  0  0  0  0  0  0
  150.2641  141.1303  158.4340 H   0  0  0  0  0  0  0  0  0  0  0  0
  150.6834  142.8103  156.3694 H   0  0  0  0  0  0  0  0  0  0  0  0
  152.1847  141.9542  156.2483 H   0  0  0  0  0  0  0  0  0  0  0  0
  150.8139  138.7448  155.2832 H   0  0  0  0  0  0  0  0  0  0  0  0
  150.5986  138.9806  157.0284 H   0  0  0  0  0  0  0  0  0  0  0  0
  152.1207  139.4157  156.2516 H   0  0  0  0  0  0  0  0  0  0  0  0
  147.7436  140.2546  152.5463 H   0  0  0  0  0  0  0  0  0  0  0  0
  146.3513  143.0018  158.1980 H   0  0  0  0  0  0  0  0  0  0  0  0
  144.1536  141.6930  155.6691 H   0  0  0  0  0  0  0  0  0  0  0  0
  144.2570  142.9817  156.8476 H   0  0  0  0  0  0  0  0  0  0  0  0
  145.3630  144.3758  154.9005 H   0  0  0  0  0  0  0  0  0  0  0  0
  143.8787  143.0610  153.0863 H   0  0  0  0  0  0  0  0  0  0  0  0
  142.4154  143.7038  155.0187 H   0  0  0  0  0  0  0  0  0  0  0  0
  142.4372  145.1481  156.7641 H   0  0  0  0  0  0  0  0  0  0  0  0
  144.0627  145.7348  156.4434 H   0  0  0  0  0  0  0  0  0  0  0  0
  141.7655  147.2169  155.8297 H   0  0  0  0  0  0  0  0  0  0  0  0
  143.3338  147.4156  155.0451 H   0  0  0  0  0  0  0  0  0  0  0  0
  141.0164  145.6920  154.0802 H   0  0  0  0  0  0  0  0  0  0  0  0
  141.9591  146.8647  153.1469 H   0  0  0  0  0  0  0  0  0  0  0  0
  150.3438  143.3865  159.1297 H   0  0  0  0  0  0  0  0  0  0  0  0
  151.9672  143.6413  158.4791 H   0  0  0  0  0  0  0  0  0  0  0  0
  1  2  1  0  0  0  0
  1 29  1  0  0  0  0
  1 30  1  0  0  0  0
  1 31  1  0  0  0  0
  2  3  2  0  0  0  0
  2  4  1  0  0  0  0
  4 28  1  0  0  0  0
  4  5  1  0  0  0  0
  5  6  1  0  0  0  0
  5 32  1  0  0  0  0
  5 33  1  0  0  0  0
  6  7  1  0  0  0  0
  6 34  1  0  0  0  0
  6 35  1  0  0  0  0
  7  8  1  0  0  0  0
  7 28  1  0  0  0  0
  7 36  1  0  0  0  0
  8  9  1  0  0  0  0
  8 37  1  0  0  0  0
  8 38  1  0  0  0  0
  9 10  1  0  0  0  0
  9 11  1  0  0  0  0
 10 39  1  0  0  0  0
 10 40  1  0  0  0  0
 10 41  1  0  0  0  0
 11 16  1  0  0  0  0
 11 12  2  0  0  0  0
 12 13  1  0  0  0  0
 13 14  2  0  0  0  0
 13 42  1  0  0  0  0
 14 15  1  0  0  0  0
 15 19  1  0  0  0  0
 15 16  2  0  0  0  0
 16 17  1  0  0  0  0
 17 18  2  0  0  0  0
 18 19  1  0  0  0  0
 18 43  1  0  0  0  0
 19 20  1  0  0  0  0
 20 21  1  0  0  0  0
 20 44  1  0  0  0  0
 20 45  1  0  0  0  0
 21 22  1  0  0  0  0
 21 23  1  0  0  0  0
 21 46  1  0  0  0  0
 22 47  1  0  0  0  0
 23 27  1  0  0  0  0
 23 24  1  0  0  0  0
 23 48  1  0  0  0  0
 24 25  1  0  0  0  0
 24 49  1  0  0  0  0
 24 50  1  0  0  0  0
 25 26  1  0  0  0  0
 25 51  1  0  0  0  0
 25 52  1  0  0  0  0
 26 27  1  0  0  0  0
 26 53  1  0  0  0  0
 26 54  1  0  0  0  0
 28 55  1  0  0  0  0
 28 56  1  0  0  0  0
M  END
> <s_m_source_file>
AV-unprocessed.smi

> <i_m_source_file_index>
83

> <i_lp_mmshare_version>
43012

> <i_f3d_flags>
0

> <s_epik_input>
W0NIM11DKD1PKU4xW0NIMl1bQ0gyXVtDQEhdKFtDSDJdMSlbQ0gyXU4oW0NIM10pYyhuW2NIXW4yKWMoYzIzKW5bY0hdbjNbQ0gyXVtDQEhdKFtPSF0pW0NAQEhdNFtDSDJdW0NIMl1bQ0gyXU80

> <s_epik_cmdline>
J2VwaWtfcHl0aG9uJywgJy1waCcsICc3LjAnLCAnLXRuJywgJzgnLCAnLW1hJywgJzIwMCcsICctbWV0YWxfYmluZGluZycsICctaW1hZScsICc8aW5maWxlLm1hZT4nLCAnLW9tYWUnLCAnPG91dGZpbGUubWFlPic=

> <r_lp_tautomer_probability>
1

> <r_epik_Ionization_Penalty>
0.00109752

> <r_epik_Ionization_Penalty_Charging>
0

> <r_epik_Ionization_Penalty_Neutral>
0.00109752

> <r_epik_State_Penalty>
0.000634803

> <r_epik_Charging_Adjusted_Penalty>
0.000634803

> <i_epik_Tot_Q>
0

> <i_epik_Tot_abs_Q>
0

> <r_epik_Metal_State_Penalty>
-0

> <b_epik_Metal_Only>
0

> <s_lp_Force_Field>
OPLS_2005

> <r_lp_Energy>
54.4429

> <b_lp_Chiralities_Consistent>
1

> <s_lp_Variant>
AV-unprocessed.smi:83-8

> <Gold.Version>
5.8.1

> <Gold.Id.Protein>
6NUR|6NUR_protein|mol2

> <Gold.PLP.Fitness>
49.8074

> <Gold.PLP.PLP>
-47.9519

> <Gold.PLP.part.hbond>
-1.8774

> <Gold.PLP.part.metal>
0.0000

> <Gold.PLP.part.buried>
-7.0635

> <Gold.PLP.part.nonpolar>
-40.7593

> <Gold.PLP.part.repulsive>
1.2590

> <Gold.PLP.ligand.clash>
0.0000

> <Gold.PLP.ligand.torsion>
1.8624

> <Gold.PLP.Chemscore.Hbond>
0.9120

> <Gold.PLP.Chemscore.CHOScore>
0.7810

> <Gold.PLP.Chemscore.Metal>
0.0000

> <Gold.Chemscore.Hbonds>
donor molecule, donor type, donor heavy atom, donor atom, acceptor molecule, acceptor atom, score
      L1  H    22    47       P1 10174  0.65
      L1  C    13    42       P1  7957  0.84

> <Gold.PLP.Chemscore.Internal.Correction>
0.5013

> <Gold.Rescore>
     Score         DG    S(hbond)    S(metal)    S(lipo)     H(rot)  DE(clash)    DE(int)     intcor
      8.48     -10.69       0.35        0.00      91.75       2.62       0.15       2.06       ----

> <Gold.Chemscore.Fitness>
8.4759

> <Gold.Chemscore.DG>
-10.6852

> <Gold.Chemscore.ZeroCoef>
-5.4800

> <Gold.Chemscore.Hbond>
0.3487

> <Gold.Chemscore.Metal>
0.0000

> <Gold.Chemscore.Lipo>
91.7549

> <Gold.Chemscore.Internal_Hbond>
0.0000

> <Gold.Chemscore.DEClash>
0.1493

> <Gold.Chemscore.DEInternal>
2.0600

> <Gold.Chemscore.Rot>
2.6152

> <Gold.Chemscore.Internal.Correction>
   9.000000E+99

> <Gold.Chemscore.Hbonds>
donor molecule, donor type, donor heavy atom, donor atom, acceptor molecule, acceptor atom, score
      L1  H    22    47       P1 10174  0.06

> <Gold.Chemscore.Hbond.Weighted>
-1.1648

> <Gold.Chemscore.Metal.Weighted>
-0.0000

> <Gold.Chemscore.Lipo.Weighted>
-10.7353

> <Gold.Chemscore.Internal_Hbond.Weighted>
0.0000

> <Gold.Chemscore.DEClash.Weighted>
0.1493

> <Gold.Chemscore.DEInternal.Weighted>
2.0600

> <Gold.Chemscore.Rot.Weighted>
6.6949

> <Gold.Chemscore.Internal.Correction.Weighted>
   9.000000E+99

> <Gold.Protein.RotatedTorsions>
[ 6907 6896 6895 6894 ] final  -88.25 input  -60.11 | X-H torsion
[ 7974 7965 7964 7962 ] final  -68.31 input  175.53 | X-H torsion
[ 8008 7997 7996 7995 ] final    7.07 input   59.86 | X-H torsion
[ 10167 10162 10161 10158 ] final   32.62 input  -65.29 | X-H torsion
[ 10718 10713 10712 10709 ] final   58.46 input   66.30 | X-H torsion
[ 10763 10752 10751 10750 ] final  -19.60 input  -60.55 | X-H torsion
[ 11005 11000 10999 10996 ] final -131.20 input  -57.11 | X-H torsion

> <Gold.Protein.ActiveResidues>
 VAL166  LYS551  ARG553  GLY616  TRP617  ASP618  TYR619  PRO620  LYS621  CYS622 
 ASP623  PHE694  ASN695  SER759  ASP760  ASP761  ALA762  ILE779  LEU786  VAL792 
 PHE793  MET794  SER795  GLU796  ALA797  LYS798  CYS799  TRP800  GLU811  SER814 

> <Gold.Protein.RotatedAtoms>
  150.6868  134.2770  159.4611 H   0  0  0  0  0  0  0  0  0  0  0  0  # atno 6907 bound_to 6896
  152.0687  134.9545  160.0584 H   0  0  0  0  0  0  0  0  0  0  0  0  # atno 6908 bound_to 6896
  152.0943  133.4182  159.4595 H   0  0  0  0  0  0  0  0  0  0  0  0  # atno 6909 bound_to 6896
  145.7181  140.9050  143.0645 H   0  0  0  0  0  0  0  0  0  0  0  0  # atno 7974 bound_to 7965
  154.7491  140.2763  155.6308 H   0  0  0  0  0  0  0  0  0  0  0  0  # atno 8008 bound_to 7997
  156.2891  140.2682  156.2166 H   0  0  0  0  0  0  0  0  0  0  0  0  # atno 8009 bound_to 7997
  155.0160  140.0372  157.2408 H   0  0  0  0  0  0  0  0  0  0  0  0  # atno 8010 bound_to 7997
  140.4481  144.1088  150.6186 H   0  0  0  0  0  0  0  0  0  0  0  0  # atno 10167 bound_to 10162
  157.5598  130.8827  149.9092 H   0  0  0  0  0  0  0  0  0  0  0  0  # atno 10718 bound_to 10713
  153.6073  135.6997  153.5360 H   0  0  0  0  0  0  0  0  0  0  0  0  # atno 10763 bound_to 10752
  153.3046  135.4119  155.1282 H   0  0  0  0  0  0  0  0  0  0  0  0  # atno 10764 bound_to 10752
  154.8570  135.3657  154.5610 H   0  0  0  0  0  0  0  0  0  0  0  0  # atno 10765 bound_to 10752
  140.9279  134.1358  157.4259 H   0  0  0  0  0  0  0  0  0  0  0  0  # atno 11005 bound_to 11000
  144.6924  139.9165  143.7466 LP  0  0  0  0  0  0  0  0  0  0  0  0  # atno 17320 bound_to 7965
  146.0651  139.3642  143.0557 LP  0  0  0  0  0  0  0  0  0  0  0  0  # atno 17321 bound_to 7965
  140.4239  143.2599  151.9681 LP  0  0  0  0  0  0  0  0  0  0  0  0  # atno 17342 bound_to 10162
  139.4794  144.5806  151.7939 LP  0  0  0  0  0  0  0  0  0  0  0  0  # atno 17343 bound_to 10162
  156.0652  130.3693  150.0895 LP  0  0  0  0  0  0  0  0  0  0  0  0  # atno 17370 bound_to 10713
  156.9060  130.9636  151.3570 LP  0  0  0  0  0  0  0  0  0  0  0  0  # atno 17371 bound_to 10713
  139.8790  134.9995  156.5957 LP  0  0  0  0  0  0  0  0  0  0  0  0  # atno 17394 bound_to 11000
  140.7901  133.8589  155.8639 LP  0  0  0  0  0  0  0  0  0  0  0  0  # atno 17395 bound_to 11000

$$$$
