AV-unprocessed.smi:2066|AV-procd|sdf|8421|dock3
  -GOLD-   2272011113D 1   1.00000     0.00000
 Structure written by MMmdl.
 38 39  0  0  0  0  0  0  0  0  2 V2000
  151.5839  140.2571  155.9522 C   0  0  0  0  0  0  0  0  0  0  0  0
  150.6900  140.2826  157.2154 C   0  0  0  0  0  0  0  0  0  0  0  0
  149.2747  140.7303  156.7698 C   0  0  0  0  0  0  0  0  0  0  0  0
  150.5491  138.8134  157.7067 C   0  0  0  0  0  0  0  0  0  0  0  0
  149.3559  138.6147  158.5250 N   0  0  0  0  0  0  0  0  0  0  0  0
  149.1327  137.5662  159.3271 C   0  0  0  0  0  0  0  0  0  0  0  0
  149.9687  136.6627  159.4030 O   0  0  0  0  0  0  0  0  0  0  0  0
  147.9577  137.6305  159.9937 N   0  5  0  0  0  0  0  0  0  0  0  0
  147.6484  136.6910  160.9016 C   0  0  0  0  0  0  0  0  0  0  0  0
  147.9235  136.8170  162.2050 N   0  0  0  0  0  0  0  0  0  0  0  0
  147.5191  135.7192  162.9663 C   0  0  0  0  0  0  0  0  0  0  0  0
  146.9323  134.7289  162.2238 C   0  0  0  0  0  0  0  0  0  0  0  0
  146.8674  135.1499  160.5361 S   0  0  0  0  0  0  0  0  0  0  0  0
  151.2195  141.1733  158.2860 N   0  0  0  0  0  0  0  0  0  0  0  0
  151.3627  142.5831  157.9067 C   0  0  0  0  0  0  0  0  0  0  0  0
  151.7930  143.4603  159.0950 C   0  0  0  0  0  0  0  0  0  0  0  0
  153.0076  142.9635  159.6440 O   0  0  0  0  0  0  0  0  0  0  0  0
  152.8919  141.6148  160.0812 C   0  0  0  0  0  0  0  0  0  0  0  0
  152.4731  140.7219  158.9014 C   0  0  0  0  0  0  0  0  0  0  0  0
  151.1667  139.5953  155.1922 H   0  0  0  0  0  0  0  0  0  0  0  0
  152.5883  139.8930  156.1670 H   0  0  0  0  0  0  0  0  0  0  0  0
  151.6781  141.2411  155.4936 H   0  0  0  0  0  0  0  0  0  0  0  0
  148.8099  139.9938  156.1133 H   0  0  0  0  0  0  0  0  0  0  0  0
  149.2929  141.6654  156.2103 H   0  0  0  0  0  0  0  0  0  0  0  0
  148.6096  140.8692  157.6230 H   0  0  0  0  0  0  0  0  0  0  0  0
  150.4954  138.1325  156.8555 H   0  0  0  0  0  0  0  0  0  0  0  0
  151.4320  138.5023  158.2663 H   0  0  0  0  0  0  0  0  0  0  0  0
  148.6527  139.3383  158.4912 H   0  0  0  0  0  0  0  0  0  0  0  0
  147.6906  135.7267  164.0324 H   0  0  0  0  0  0  0  0  0  0  0  0
  146.5368  133.7835  162.5632 H   0  0  0  0  0  0  0  0  0  0  0  0
  152.0988  142.6860  157.1094 H   0  0  0  0  0  0  0  0  0  0  0  0
  150.4238  142.9807  157.5256 H   0  0  0  0  0  0  0  0  0  0  0  0
  151.9444  144.4897  158.7702 H   0  0  0  0  0  0  0  0  0  0  0  0
  151.0178  143.4775  159.8628 H   0  0  0  0  0  0  0  0  0  0  0  0
  153.8507  141.2871  160.4827 H   0  0  0  0  0  0  0  0  0  0  0  0
  152.1651  141.5473  160.8923 H   0  0  0  0  0  0  0  0  0  0  0  0
  152.3787  139.7045  159.2768 H   0  0  0  0  0  0  0  0  0  0  0  0
  153.2749  140.7148  158.1630 H   0  0  0  0  0  0  0  0  0  0  0  0
  1  2  1  0  0  0  0
  1 20  1  0  0  0  0
  1 21  1  0  0  0  0
  1 22  1  0  0  0  0
  2  3  1  0  0  0  0
  2  4  1  0  0  0  0
  2 14  1  0  0  0  0
  3 23  1  0  0  0  0
  3 24  1  0  0  0  0
  3 25  1  0  0  0  0
  4  5  1  0  0  0  0
  4 26  1  0  0  0  0
  4 27  1  0  0  0  0
  5  6  1  0  0  0  0
  5 28  1  0  0  0  0
  6  7  2  0  0  0  0
  6  8  1  0  0  0  0
  8  9  1  0  0  0  0
  9 13  1  0  0  0  0
  9 10  2  0  0  0  0
 10 11  1  0  0  0  0
 11 12  2  0  0  0  0
 11 29  1  0  0  0  0
 12 13  1  0  0  0  0
 12 30  1  0  0  0  0
 14 19  1  0  0  0  0
 14 15  1  0  0  0  0
 15 16  1  0  0  0  0
 15 31  1  0  0  0  0
 15 32  1  0  0  0  0
 16 17  1  0  0  0  0
 16 33  1  0  0  0  0
 16 34  1  0  0  0  0
 17 18  1  0  0  0  0
 18 19  1  0  0  0  0
 18 35  1  0  0  0  0
 18 36  1  0  0  0  0
 19 37  1  0  0  0  0
 19 38  1  0  0  0  0
M  CHG  1   8  -1
M  END
> <s_m_source_file>
AV-unprocessed.smi

> <i_m_source_file_index>
2066

> <i_lp_mmshare_version>
43012

> <i_f3d_flags>
0

> <s_epik_input>
W0NIMl0xW0NIMl1PW0NIMl1bQ0gyXU4xQyhbQ0gzXSkoW0NIM10pW0NIMl1bTkhdQyg9TylbTkhdYzJuW2NIXVtjSF1zMg==

> <s_epik_cmdline>
J2VwaWtfcHl0aG9uJywgJy1waCcsICc3LjAnLCAnLXRuJywgJzgnLCAnLW1hJywgJzIwMCcsICctbWV0YWxfYmluZGluZycsICctaW1hZScsICc8aW5maWxlLm1hZT4nLCAnLW9tYWUnLCAnPG91dGZpbGUubWFlPic=

> <r_lp_tautomer_probability>
0.999

> <r_epik_Ionization_Penalty>
7.22375

> <r_epik_Ionization_Penalty_Charging>
5.82415

> <r_epik_Ionization_Penalty_Neutral>
1.39959

> <r_epik_State_Penalty>
6.03347

> <r_epik_Charging_Adjusted_Penalty>
11.8576

> <i_epik_Tot_Q>
-1

> <i_epik_Tot_abs_Q>
1

> <r_epik_Metal_State_Penalty>
2.0104

> <b_epik_Metal_Only>
1

> <s_lp_Force_Field>
OPLS_2005

> <r_lp_Energy>
36.7798

> <b_lp_Chiralities_Consistent>
1

> <s_lp_Variant>
AV-unprocessed.smi:2066-3

> <Gold.Version>
5.8.1

> <Gold.Id.Protein>
6NUR|6NUR_protein|mol2

> <Gold.PLP.Fitness>
41.9232

> <Gold.PLP.PLP>
-35.3667

> <Gold.PLP.part.hbond>
-3.9742

> <Gold.PLP.part.metal>
0.0000

> <Gold.PLP.part.buried>
-5.9301

> <Gold.PLP.part.nonpolar>
-26.8374

> <Gold.PLP.part.repulsive>
0.1821

> <Gold.PLP.ligand.clash>
0.0000

> <Gold.PLP.ligand.torsion>
1.1704

> <Gold.PLP.Chemscore.Hbond>
2.9232

> <Gold.PLP.Chemscore.CHOScore>
0.0000

> <Gold.PLP.Chemscore.Metal>
0.0000

> <Gold.Chemscore.Hbonds>
donor molecule, donor type, donor heavy atom, donor atom, acceptor molecule, acceptor atom, score
      P1  H  6896  6909       L1     7  1.00
      P1  H  6931  6943       L1    10  0.65
      P1  H  6934  6947       L1     8  1.00

> <Gold.PLP.Chemscore.Internal.Correction>
0.1278

> <Gold.Rescore>
     Score         DG    S(hbond)    S(metal)    S(lipo)     H(rot)  DE(clash)    DE(int)     intcor
     16.12     -17.59       1.93        0.00      82.33       1.55       0.00       1.47       ----

> <Gold.Chemscore.Fitness>
16.1232

> <Gold.Chemscore.DG>
-17.5950

> <Gold.Chemscore.ZeroCoef>
-5.4800

> <Gold.Chemscore.Hbond>
1.9307

> <Gold.Chemscore.Metal>
0.0000

> <Gold.Chemscore.Lipo>
82.3345

> <Gold.Chemscore.Internal_Hbond>
0.0000

> <Gold.Chemscore.DEClash>
0.0030

> <Gold.Chemscore.DEInternal>
1.4687

> <Gold.Chemscore.Rot>
1.5495

> <Gold.Chemscore.Internal.Correction>
   9.000000E+99

> <Gold.Chemscore.Hbonds>
donor molecule, donor type, donor heavy atom, donor atom, acceptor molecule, acceptor atom, score
      P1  H  6896  6909       L1     7  0.96
      P1  H  6931  6943       L1    10  0.06
      P1  H  6934  6947       L1     8  0.07

> <Gold.Chemscore.Hbond.Weighted>
-6.4485

> <Gold.Chemscore.Metal.Weighted>
-0.0000

> <Gold.Chemscore.Lipo.Weighted>
-9.6331

> <Gold.Chemscore.Internal_Hbond.Weighted>
0.0000

> <Gold.Chemscore.DEClash.Weighted>
0.0030

> <Gold.Chemscore.DEInternal.Weighted>
1.4687

> <Gold.Chemscore.Rot.Weighted>
3.9666

> <Gold.Chemscore.Internal.Correction.Weighted>
   9.000000E+99

> <Gold.Protein.RotatedTorsions>
[ 6907 6896 6895 6894 ] final   92.52 input  -60.11 | X-H torsion
[ 7974 7965 7964 7962 ] final -151.79 input  175.53 | X-H torsion
[ 8008 7997 7996 7995 ] final    4.57 input   59.86 | X-H torsion
[ 10167 10162 10161 10158 ] final  -38.34 input  -65.29 | X-H torsion
[ 10718 10713 10712 10709 ] final  -47.14 input   66.30 | X-H torsion
[ 10763 10752 10751 10750 ] final  132.46 input  -60.55 | X-H torsion
[ 11005 11000 10999 10996 ] final  152.67 input  -57.11 | X-H torsion

> <Gold.Protein.ActiveResidues>
 VAL166  LYS551  ARG553  GLY616  TRP617  ASP618  TYR619  PRO620  LYS621  CYS622 
 ASP623  PHE694  ASN695  SER759  ASP760  ASP761  ALA762  ILE779  LEU786  VAL792 
 PHE793  MET794  SER795  GLU796  ALA797  LYS798  CYS799  TRP800  GLU811  SER814 

> <Gold.Protein.RotatedAtoms>
  152.5452  134.1490  159.8510 H   0  0  0  0  0  0  0  0  0  0  0  0  # atno 6907 bound_to 6896
  151.1518  133.4895  159.2602 H   0  0  0  0  0  0  0  0  0  0  0  0  # atno 6908 bound_to 6896
  151.1464  135.0216  159.8703 H   0  0  0  0  0  0  0  0  0  0  0  0  # atno 6909 bound_to 6896
  144.7830  140.4750  143.5826 H   0  0  0  0  0  0  0  0  0  0  0  0  # atno 7974 bound_to 7965
  154.7176  140.2705  155.6571 H   0  0  0  0  0  0  0  0  0  0  0  0  # atno 8008 bound_to 7997
  156.2814  140.2741  156.1762 H   0  0  0  0  0  0  0  0  0  0  0  0  # atno 8009 bound_to 7997
  155.0550  140.0371  157.2547 H   0  0  0  0  0  0  0  0  0  0  0  0  # atno 8010 bound_to 7997
  140.7095  143.3283  151.2627 H   0  0  0  0  0  0  0  0  0  0  0  0  # atno 10167 bound_to 10162
  156.2114  130.4161  149.9110 H   0  0  0  0  0  0  0  0  0  0  0  0  # atno 10718 bound_to 10713
  153.7910  135.3155  155.3378 H   0  0  0  0  0  0  0  0  0  0  0  0  # atno 10763 bound_to 10752
  154.8125  135.4657  154.0558 H   0  0  0  0  0  0  0  0  0  0  0  0  # atno 10764 bound_to 10752
  153.1876  135.6903  153.8481 H   0  0  0  0  0  0  0  0  0  0  0  0  # atno 10765 bound_to 10752
  140.1329  134.8790  157.2227 H   0  0  0  0  0  0  0  0  0  0  0  0  # atno 11005 bound_to 11000
  145.5998  139.1503  143.3135 LP  0  0  0  0  0  0  0  0  0  0  0  0  # atno 17320 bound_to 7965
  146.2048  140.6120  142.9086 LP  0  0  0  0  0  0  0  0  0  0  0  0  # atno 17321 bound_to 7965
  139.6758  143.9940  152.2780 LP  0  0  0  0  0  0  0  0  0  0  0  0  # atno 17342 bound_to 10162
  139.9553  144.6593  150.8131 LP  0  0  0  0  0  0  0  0  0  0  0  0  # atno 17343 bound_to 10162
  156.6787  130.8849  151.3573 LP  0  0  0  0  0  0  0  0  0  0  0  0  # atno 17370 bound_to 10713
  157.7040  130.9364  150.0873 LP  0  0  0  0  0  0  0  0  0  0  0  0  # atno 17371 bound_to 10713
  140.2820  134.3339  155.7340 LP  0  0  0  0  0  0  0  0  0  0  0  0  # atno 17394 bound_to 11000
  141.2173  133.7484  156.9377 LP  0  0  0  0  0  0  0  0  0  0  0  0  # atno 17395 bound_to 11000

$$$$
