AV-unprocessed.smi:679|AV-procd|sdf|3319|dock1
  -GOLD-   22720 0283D 1   1.00000     0.00000
 Structure written by MMmdl.
 41 43  0  0  0  0  0  0  0  0  1 V2000
  146.5696  133.2357  150.9453 C   0  0  0  0  0  0  0  0  0  0  0  0
  146.2491  132.5477  152.2740 C   0  0  0  0  0  0  0  0  0  0  0  0
  147.4651  132.2369  152.9324 O   0  0  0  0  0  0  0  0  0  0  0  0
  148.2234  133.3887  153.2673 C   0  0  2  0  0  0  0  0  0  0  0  0
  149.5417  133.0987  153.9916 C   0  0  0  0  0  0  0  0  0  0  0  0
  149.2261  134.2919  154.9009 C   0  0  1  0  0  0  0  0  0  0  0  0
  149.8023  135.5269  154.3693 N   0  0  0  0  0  0  0  0  0  0  0  0
  150.8693  136.1573  154.8842 C   0  0  0  0  0  0  0  0  0  0  0  0
  151.4757  135.7583  155.8775 O   0  0  0  0  0  0  0  0  0  0  0  0
  151.3102  137.4464  154.1875 C   0  0  0  0  0  0  0  0  0  0  0  0
  151.6839  138.4726  155.1438 N   0  0  0  0  0  0  0  0  0  0  0  0
  152.5529  138.4522  156.1564 C   0  0  0  0  0  0  0  0  0  0  0  0
  152.5855  139.6109  156.7962 N   0  0  0  0  0  0  0  0  0  0  0  0
  151.6627  140.3780  156.1048 N   0  0  0  0  0  0  0  0  0  0  0  0
  151.1244  139.7079  155.1232 N   0  0  0  0  0  0  0  0  0  0  0  0
  147.7272  134.1080  154.5452 C   0  0  0  0  0  0  0  0  0  0  0  0
  146.8925  133.2815  155.5272 C   0  0  0  0  0  0  0  0  0  0  0  0
  145.4177  133.5289  155.1923 C   0  0  0  0  0  0  0  0  0  0  0  0
  145.3866  134.8255  154.3772 C   0  0  0  0  0  0  0  0  0  0  0  0
  146.8307  135.3297  154.3524 C   0  0  0  0  0  0  0  0  0  0  0  0
  145.6560  133.4860  150.4058 H   0  0  0  0  0  0  0  0  0  0  0  0
  147.1710  132.5902  150.3047 H   0  0  0  0  0  0  0  0  0  0  0  0
  147.1256  134.1592  151.1074 H   0  0  0  0  0  0  0  0  0  0  0  0
  145.6378  133.2054  152.8937 H   0  0  0  0  0  0  0  0  0  0  0  0
  145.6770  131.6364  152.0938 H   0  0  0  0  0  0  0  0  0  0  0  0
  148.3471  134.0775  152.4286 H   0  0  0  0  0  0  0  0  0  0  0  0
  149.5325  132.1475  154.5263 H   0  0  0  0  0  0  0  0  0  0  0  0
  150.4350  133.2022  153.3744 H   0  0  0  0  0  0  0  0  0  0  0  0
  149.4633  134.0989  155.9487 H   0  0  0  0  0  0  0  0  0  0  0  0
  149.3576  135.9259  153.5556 H   0  0  0  0  0  0  0  0  0  0  0  0
  152.1627  137.2388  153.5397 H   0  0  0  0  0  0  0  0  0  0  0  0
  150.5078  137.8266  153.5533 H   0  0  0  0  0  0  0  0  0  0  0  0
  153.1524  137.5949  156.4247 H   0  0  0  0  0  0  0  0  0  0  0  0
  147.1340  132.2183  155.5012 H   0  0  0  0  0  0  0  0  0  0  0  0
  147.0870  133.6163  156.5470 H   0  0  0  0  0  0  0  0  0  0  0  0
  145.0169  132.7061  154.5992 H   0  0  0  0  0  0  0  0  0  0  0  0
  144.8160  133.6046  156.0986 H   0  0  0  0  0  0  0  0  0  0  0  0
  145.0496  134.6124  153.3619 H   0  0  0  0  0  0  0  0  0  0  0  0
  144.7068  135.5652  154.8010 H   0  0  0  0  0  0  0  0  0  0  0  0
  146.9789  136.0335  155.1727 H   0  0  0  0  0  0  0  0  0  0  0  0
  147.0471  135.8690  153.4296 H   0  0  0  0  0  0  0  0  0  0  0  0
  1  2  1  0  0  0  0
  1 21  1  0  0  0  0
  1 22  1  0  0  0  0
  1 23  1  0  0  0  0
  2  3  1  0  0  0  0
  2 24  1  0  0  0  0
  2 25  1  0  0  0  0
  3  4  1  0  0  0  0
  4 16  1  0  0  0  0
  4  5  1  0  0  0  0
  4 26  1  0  0  0  0
  5  6  1  0  0  0  0
  5 27  1  0  0  0  0
  5 28  1  0  0  0  0
  6  7  1  0  0  0  0
  6 16  1  0  0  0  0
  6 29  1  0  0  0  0
  7  8  1  0  0  0  0
  7 30  1  0  0  0  0
  8  9  2  0  0  0  0
  8 10  1  0  0  0  0
 10 11  1  0  0  0  0
 10 31  1  0  0  0  0
 10 32  1  0  0  0  0
 11 15  1  0  0  0  0
 11 12  1  0  0  0  0
 12 13  2  0  0  0  0
 12 33  1  0  0  0  0
 13 14  1  0  0  0  0
 14 15  2  0  0  0  0
 16 20  1  0  0  0  0
 16 17  1  0  0  0  0
 17 18  1  0  0  0  0
 17 34  1  0  0  0  0
 17 35  1  0  0  0  0
 18 19  1  0  0  0  0
 18 36  1  0  0  0  0
 18 37  1  0  0  0  0
 19 20  1  0  0  0  0
 19 38  1  0  0  0  0
 19 39  1  0  0  0  0
 20 40  1  0  0  0  0
 20 41  1  0  0  0  0
M  END
> <s_m_source_file>
AV-unprocessed.smi

> <i_m_source_file_index>
679

> <i_lp_mmshare_version>
43012

> <i_f3d_flags>
0

> <s_epik_input>
W0NIMl0xW0NIMl1bQ0gyXVtDSDJdQzEyW0NASF0oT1tDSDJdW0NIM10pW0NIMl1bQ0BIXTJbTkhdQyg9TylbQ0gyXW4zW2NIXW5ubjM=

> <s_epik_cmdline>
J2VwaWtfcHl0aG9uJywgJy1waCcsICc3LjAnLCAnLXRuJywgJzgnLCAnLW1hJywgJzIwMCcsICctbWV0YWxfYmluZGluZycsICctaW1hZScsICc8aW5maWxlLm1hZT4nLCAnLW9tYWUnLCAnPG91dGZpbGUubWFlPic=

> <r_lp_tautomer_probability>
1

> <r_epik_Ionization_Penalty>
7.96741e-07

> <r_epik_Ionization_Penalty_Charging>
0

> <r_epik_Ionization_Penalty_Neutral>
7.96741e-07

> <r_epik_State_Penalty>
-0

> <r_epik_Charging_Adjusted_Penalty>
0

> <i_epik_Tot_Q>
0

> <i_epik_Tot_abs_Q>
0

> <r_epik_Metal_State_Penalty>
-0

> <b_epik_Metal_Only>
0

> <s_lp_Force_Field>
OPLS_2005

> <r_lp_Energy>
39.8699

> <b_lp_Chiralities_Consistent>
1

> <s_lp_Variant>
AV-unprocessed.smi:679-1

> <Gold.Version>
5.8.1

> <Gold.Id.Protein>
6NUR|6NUR_protein|mol2

> <Gold.PLP.Fitness>
38.0314

> <Gold.PLP.PLP>
-26.9427

> <Gold.PLP.part.hbond>
-4.8326

> <Gold.PLP.part.metal>
0.0000

> <Gold.PLP.part.buried>
-0.6186

> <Gold.PLP.part.nonpolar>
-22.3014

> <Gold.PLP.part.repulsive>
0.2697

> <Gold.PLP.ligand.clash>
0.0000

> <Gold.PLP.ligand.torsion>
0.6433

> <Gold.PLP.Chemscore.Hbond>
4.0000

> <Gold.PLP.Chemscore.CHOScore>
0.0000

> <Gold.PLP.Chemscore.Metal>
0.0000

> <Gold.Chemscore.Hbonds>
donor molecule, donor type, donor heavy atom, donor atom, acceptor molecule, acceptor atom, score
      L1  H     7    30       P1  7948  1.00
      P1  H  7989  7998       L1    15  0.93
      P1  H  7997  8009       L1    13  1.00
      P1  H 10752 10763       L1     9  1.00

> <Gold.PLP.Chemscore.Internal.Correction>
0.3752

> <Gold.Rescore>
     Score         DG    S(hbond)    S(metal)    S(lipo)     H(rot)  DE(clash)    DE(int)     intcor
     10.45     -12.49       2.22        0.00      49.33       2.41       0.37       1.67       ----

> <Gold.Chemscore.Fitness>
10.4516

> <Gold.Chemscore.DG>
-12.4878

> <Gold.Chemscore.ZeroCoef>
-5.4800

> <Gold.Chemscore.Hbond>
2.2163

> <Gold.Chemscore.Metal>
0.0000

> <Gold.Chemscore.Lipo>
49.3342

> <Gold.Chemscore.Internal_Hbond>
0.0000

> <Gold.Chemscore.DEClash>
0.3671

> <Gold.Chemscore.DEInternal>
1.6690

> <Gold.Chemscore.Rot>
2.4089

> <Gold.Chemscore.Internal.Correction>
   9.000000E+99

> <Gold.Chemscore.Hbonds>
donor molecule, donor type, donor heavy atom, donor atom, acceptor molecule, acceptor atom, score
      L1  H     7    30       P1  7948  0.60
      P1  H  7989  7998       L1    15  0.24
      P1  H  7997  8009       L1    13  0.38
      P1  H 10752 10763       L1     9  0.25

> <Gold.Chemscore.Hbond.Weighted>
-7.4025

> <Gold.Chemscore.Metal.Weighted>
-0.0000

> <Gold.Chemscore.Lipo.Weighted>
-5.7721

> <Gold.Chemscore.Internal_Hbond.Weighted>
0.0000

> <Gold.Chemscore.DEClash.Weighted>
0.3671

> <Gold.Chemscore.DEInternal.Weighted>
1.6690

> <Gold.Chemscore.Rot.Weighted>
6.1668

> <Gold.Chemscore.Internal.Correction.Weighted>
   9.000000E+99

> <Gold.Protein.RotatedTorsions>
[ 6907 6896 6895 6894 ] final -144.48 input  -60.11 | X-H torsion
[ 7974 7965 7964 7962 ] final  -40.54 input  175.53 | X-H torsion
[ 8008 7997 7996 7995 ] final  170.59 input   59.86 | X-H torsion
[ 10167 10162 10161 10158 ] final -133.01 input  -65.29 | X-H torsion
[ 10718 10713 10712 10709 ] final   93.24 input   66.30 | X-H torsion
[ 10763 10752 10751 10750 ] final   96.68 input  -60.55 | X-H torsion
[ 11005 11000 10999 10996 ] final -114.75 input  -57.11 | X-H torsion

> <Gold.Protein.ActiveResidues>
 VAL166  LYS551  ARG553  GLY616  TRP617  ASP618  TYR619  PRO620  LYS621  CYS622 
 ASP623  PHE694  ASN695  SER759  ASP760  ASP761  ALA762  ILE779  LEU786  VAL792 
 PHE793  MET794  SER795  GLU796  ALA797  LYS798  CYS799  TRP800  GLU811  SER814 

> <Gold.Protein.RotatedAtoms>
  151.1146  133.5148  159.2604 H   0  0  0  0  0  0  0  0  0  0  0  0  # atno 6907 bound_to 6896
  151.1929  135.0409  159.8850 H   0  0  0  0  0  0  0  0  0  0  0  0  # atno 6908 bound_to 6896
  152.5452  134.0984  159.8361 H   0  0  0  0  0  0  0  0  0  0  0  0  # atno 6909 bound_to 6896
  146.0295  140.6749  142.9139 H   0  0  0  0  0  0  0  0  0  0  0  0  # atno 7974 bound_to 7965
  156.1351  140.1534  156.9007 H   0  0  0  0  0  0  0  0  0  0  0  0  # atno 8008 bound_to 7997
  154.4940  140.0843  156.7697 H   0  0  0  0  0  0  0  0  0  0  0  0  # atno 8009 bound_to 7997
  155.4184  140.3422  155.4271 H   0  0  0  0  0  0  0  0  0  0  0  0  # atno 8010 bound_to 7997
  139.9027  143.6588  152.2592 H   0  0  0  0  0  0  0  0  0  0  0  0  # atno 10167 bound_to 10162
  157.6955  131.0471  150.4003 H   0  0  0  0  0  0  0  0  0  0  0  0  # atno 10718 bound_to 10713
  153.2678  135.4210  155.0958 H   0  0  0  0  0  0  0  0  0  0  0  0  # atno 10763 bound_to 10752
  154.8444  135.3464  154.6287 H   0  0  0  0  0  0  0  0  0  0  0  0  # atno 10764 bound_to 10752
  153.6707  135.7044  153.5205 H   0  0  0  0  0  0  0  0  0  0  0  0  # atno 10765 bound_to 10752
  141.0532  133.9654  157.2800 H   0  0  0  0  0  0  0  0  0  0  0  0  # atno 11005 bound_to 11000
  144.7024  140.3710  143.7145 LP  0  0  0  0  0  0  0  0  0  0  0  0  # atno 17320 bound_to 7965
  145.7063  139.1673  143.2564 LP  0  0  0  0  0  0  0  0  0  0  0  0  # atno 17321 bound_to 7965
  139.7011  144.7635  151.1271 LP  0  0  0  0  0  0  0  0  0  0  0  0  # atno 17342 bound_to 10162
  140.7703  143.5456  150.9262 LP  0  0  0  0  0  0  0  0  0  0  0  0  # atno 17343 bound_to 10162
  156.4397  130.3989  149.6705 LP  0  0  0  0  0  0  0  0  0  0  0  0  # atno 17370 bound_to 10713
  156.3893  130.7619  151.2618 LP  0  0  0  0  0  0  0  0  0  0  0  0  # atno 17371 bound_to 10713
  139.9368  135.0195  156.8581 LP  0  0  0  0  0  0  0  0  0  0  0  0  # atno 17394 bound_to 11000
  140.6015  134.0167  155.7539 LP  0  0  0  0  0  0  0  0  0  0  0  0  # atno 17395 bound_to 11000

$$$$
