AV-unprocessed.smi:2147|AV-procd|sdf|8742|dock1
  -GOLD-   2272011513D 1   1.00000     0.00000
 Structure written by MMmdl.
 41 43  0  0  0  0  0  0  0  0  1 V2000
  147.8554  129.3657  153.6694 C   0  0  0  0  0  0  0  0  0  0  0  0
  148.8874  129.8414  154.6905 C   0  0  0  0  0  0  0  0  0  0  0  0
  149.4981  129.0003  155.3493 O   0  0  0  0  0  0  0  0  0  0  0  0
  149.0983  131.3101  154.8338 C   0  0  0  0  0  0  0  0  0  0  0  0
  148.3796  132.2470  154.0558 C   0  0  0  0  0  0  0  0  0  0  0  0
  148.6008  133.6283  154.2177 C   0  0  0  0  0  0  0  0  0  0  0  0
  149.5383  134.1075  155.1536 C   0  0  0  0  0  0  0  0  0  0  0  0
  149.6885  135.4743  155.2483 O   0  0  0  0  0  0  0  0  0  0  0  0
  150.4254  135.9946  156.3473 C   0  0  0  0  0  0  0  0  0  0  0  0
  150.7875  137.4595  156.0624 C   0  0  2  0  0  0  0  0  0  0  0  0
  151.5619  137.5025  154.8802 O   0  0  0  0  0  0  0  0  0  0  0  0
  151.5664  138.1087  157.2233 C   0  0  0  0  0  0  0  0  0  0  0  0
  151.4744  139.5580  157.2150 N   0  0  0  0  0  0  0  0  0  0  0  0
  150.7648  140.3193  156.3601 C   0  0  0  0  0  0  0  0  0  0  0  0
  150.8166  141.6373  156.5306 N   0  0  0  0  0  0  0  0  0  0  0  0
  151.6568  141.7447  157.6256 C   0  0  0  0  0  0  0  0  0  0  0  0
  152.1212  142.8863  158.3173 C   0  0  0  0  0  0  0  0  0  0  0  0
  152.9867  142.7490  159.4226 C   0  0  0  0  0  0  0  0  0  0  0  0
  153.4018  141.4715  159.8516 C   0  0  0  0  0  0  0  0  0  0  0  0
  152.9524  140.3193  159.1785 C   0  0  0  0  0  0  0  0  0  0  0  0
  152.0871  140.4605  158.0776 C   0  0  0  0  0  0  0  0  0  0  0  0
  150.2610  133.1699  155.9313 C   0  0  0  0  0  0  0  0  0  0  0  0
  150.0407  131.7883  155.7716 C   0  0  0  0  0  0  0  0  0  0  0  0
  146.8669  129.7541  153.9150 H   0  0  0  0  0  0  0  0  0  0  0  0
  147.8009  128.2767  153.6613 H   0  0  0  0  0  0  0  0  0  0  0  0
  148.1258  129.7000  152.6678 H   0  0  0  0  0  0  0  0  0  0  0  0
  147.6499  131.9292  153.3262 H   0  0  0  0  0  0  0  0  0  0  0  0
  148.0418  134.3295  153.6154 H   0  0  0  0  0  0  0  0  0  0  0  0
  149.8455  135.9274  157.2695 H   0  0  0  0  0  0  0  0  0  0  0  0
  151.3380  135.4099  156.4775 H   0  0  0  0  0  0  0  0  0  0  0  0
  149.8723  138.0228  155.8760 H   0  0  0  0  0  0  0  0  0  0  0  0
  151.6611  138.4058  154.6199 H   0  0  0  0  0  0  0  0  0  0  0  0
  151.1852  137.7503  158.1804 H   0  0  0  0  0  0  0  0  0  0  0  0
  152.6190  137.8256  157.1841 H   0  0  0  0  0  0  0  0  0  0  0  0
  150.1769  139.8805  155.5670 H   0  0  0  0  0  0  0  0  0  0  0  0
  151.8108  143.8700  157.9970 H   0  0  0  0  0  0  0  0  0  0  0  0
  153.3343  143.6288  159.9440 H   0  0  0  0  0  0  0  0  0  0  0  0
  154.0660  141.3765  160.6982 H   0  0  0  0  0  0  0  0  0  0  0  0
  153.2699  139.3393  159.5030 H   0  0  0  0  0  0  0  0  0  0  0  0
  150.9927  133.4839  156.6600 H   0  0  0  0  0  0  0  0  0  0  0  0
  150.6069  131.0992  156.3817 H   0  0  0  0  0  0  0  0  0  0  0  0
  1  2  1  0  0  0  0
  1 24  1  0  0  0  0
  1 25  1  0  0  0  0
  1 26  1  0  0  0  0
  2  3  2  0  0  0  0
  2  4  1  0  0  0  0
  4 23  1  0  0  0  0
  4  5  2  0  0  0  0
  5  6  1  0  0  0  0
  5 27  1  0  0  0  0
  6  7  2  0  0  0  0
  6 28  1  0  0  0  0
  7  8  1  0  0  0  0
  7 22  1  0  0  0  0
  8  9  1  0  0  0  0
  9 10  1  0  0  0  0
  9 29  1  0  0  0  0
  9 30  1  0  0  0  0
 10 11  1  0  0  0  0
 10 12  1  0  0  0  0
 10 31  1  0  0  0  0
 11 32  1  0  0  0  0
 12 13  1  0  0  0  0
 12 33  1  0  0  0  0
 12 34  1  0  0  0  0
 13 21  1  0  0  0  0
 13 14  1  0  0  0  0
 14 15  2  0  0  0  0
 14 35  1  0  0  0  0
 15 16  1  0  0  0  0
 16 21  2  0  0  0  0
 16 17  1  0  0  0  0
 17 18  2  0  0  0  0
 17 36  1  0  0  0  0
 18 19  1  0  0  0  0
 18 37  1  0  0  0  0
 19 20  2  0  0  0  0
 19 38  1  0  0  0  0
 20 21  1  0  0  0  0
 20 39  1  0  0  0  0
 22 23  2  0  0  0  0
 22 40  1  0  0  0  0
 23 41  1  0  0  0  0
M  END
> <s_m_source_file>
AV-unprocessed.smi

> <i_m_source_file_index>
2147

> <i_lp_mmshare_version>
43012

> <i_f3d_flags>
0

> <s_epik_input>
W0NIM11DKD1PKWMxW2NIXVtjSF1jKFtjSF1bY0hdMSlPW0NIMl1bQ0BIXShbT0hdKVtDSDJdbihbY0hdbjIpYyhjMjMpW2NIXVtjSF1bY0hdW2NIXTM=

> <s_epik_cmdline>
J2VwaWtfcHl0aG9uJywgJy1waCcsICc3LjAnLCAnLXRuJywgJzgnLCAnLW1hJywgJzIwMCcsICctbWV0YWxfYmluZGluZycsICctaW1hZScsICc8aW5maWxlLm1hZT4nLCAnLW9tYWUnLCAnPG91dGZpbGUubWFlPic=

> <r_lp_tautomer_probability>
0.99995

> <r_epik_Ionization_Penalty>
0.0583018

> <r_epik_Ionization_Penalty_Charging>
0

> <r_epik_Ionization_Penalty_Neutral>
0.0583018

> <r_epik_State_Penalty>
0.0504087

> <r_epik_Charging_Adjusted_Penalty>
0.0504087

> <i_epik_Tot_Q>
0

> <i_epik_Tot_abs_Q>
0

> <r_epik_Metal_State_Penalty>
5.26129e-05

> <b_epik_Metal_Only>
0

> <s_lp_Force_Field>
OPLS_2005

> <r_lp_Energy>
19.9149

> <b_lp_Chiralities_Consistent>
1

> <s_lp_Variant>
AV-unprocessed.smi:2147-1

> <Gold.Version>
5.8.1

> <Gold.Id.Protein>
6NUR|6NUR_protein|mol2

> <Gold.PLP.Fitness>
43.1944

> <Gold.PLP.PLP>
-41.5039

> <Gold.PLP.part.hbond>
-1.0000

> <Gold.PLP.part.metal>
0.0000

> <Gold.PLP.part.buried>
-6.9077

> <Gold.PLP.part.nonpolar>
-34.3097

> <Gold.PLP.part.repulsive>
0.2474

> <Gold.PLP.ligand.clash>
0.0000

> <Gold.PLP.ligand.torsion>
0.4032

> <Gold.PLP.Chemscore.Hbond>
0.8160

> <Gold.PLP.Chemscore.CHOScore>
0.0000

> <Gold.PLP.Chemscore.Metal>
0.0000

> <Gold.Chemscore.Hbonds>
donor molecule, donor type, donor heavy atom, donor atom, acceptor molecule, acceptor atom, score
      P1  H 10752 10763       L1    11  0.16

> <Gold.PLP.Chemscore.Internal.Correction>
0.0489

> <Gold.Rescore>
     Score         DG    S(hbond)    S(metal)    S(lipo)     H(rot)  DE(clash)    DE(int)     intcor
     13.18     -14.04       0.88        0.00     100.57       2.40       0.02       0.84       ----

> <Gold.Chemscore.Fitness>
13.1828

> <Gold.Chemscore.DG>
-14.0428

> <Gold.Chemscore.ZeroCoef>
-5.4800

> <Gold.Chemscore.Hbond>
0.8807

> <Gold.Chemscore.Metal>
0.0000

> <Gold.Chemscore.Lipo>
100.5680

> <Gold.Chemscore.Internal_Hbond>
0.0000

> <Gold.Chemscore.DEClash>
0.0210

> <Gold.Chemscore.DEInternal>
0.8390

> <Gold.Chemscore.Rot>
2.4005

> <Gold.Chemscore.Internal.Correction>
   9.000000E+99

> <Gold.Chemscore.Hbonds>
donor molecule, donor type, donor heavy atom, donor atom, acceptor molecule, acceptor atom, score
      P1  H 10752 10763       L1    11  0.15

> <Gold.Chemscore.Hbond.Weighted>
-2.9416

> <Gold.Chemscore.Metal.Weighted>
-0.0000

> <Gold.Chemscore.Lipo.Weighted>
-11.7665

> <Gold.Chemscore.Internal_Hbond.Weighted>
0.0000

> <Gold.Chemscore.DEClash.Weighted>
0.0210

> <Gold.Chemscore.DEInternal.Weighted>
0.8390

> <Gold.Chemscore.Rot.Weighted>
6.1453

> <Gold.Chemscore.Internal.Correction.Weighted>
   9.000000E+99

> <Gold.Protein.RotatedTorsions>
[ 6907 6896 6895 6894 ] final -160.80 input  -60.11 | X-H torsion
[ 7974 7965 7964 7962 ] final -142.05 input  175.53 | X-H torsion
[ 8008 7997 7996 7995 ] final  -56.90 input   59.86 | X-H torsion
[ 10167 10162 10161 10158 ] final -113.04 input  -65.29 | X-H torsion
[ 10718 10713 10712 10709 ] final  -65.19 input   66.30 | X-H torsion
[ 10763 10752 10751 10750 ] final   60.09 input  -60.55 | X-H torsion
[ 11005 11000 10999 10996 ] final   21.80 input  -57.11 | X-H torsion

> <Gold.Protein.ActiveResidues>
 VAL166  LYS551  ARG553  GLY616  TRP617  ASP618  TYR619  PRO620  LYS621  CYS622 
 ASP623  PHE694  ASN695  SER759  ASP760  ASP761  ALA762  ILE779  LEU786  VAL792 
 PHE793  MET794  SER795  GLU796  ALA797  LYS798  CYS799  TRP800  GLU811  SER814 

> <Gold.Protein.RotatedAtoms>
  151.3547  133.3912  159.2683 H   0  0  0  0  0  0  0  0  0  0  0  0  # atno 6907 bound_to 6896
  150.9773  134.9136  159.7834 H   0  0  0  0  0  0  0  0  0  0  0  0  # atno 6908 bound_to 6896
  152.5205  134.3510  159.9303 H   0  0  0  0  0  0  0  0  0  0  0  0  # atno 6909 bound_to 6896
  144.8473  140.6005  143.5413 H   0  0  0  0  0  0  0  0  0  0  0  0  # atno 7974 bound_to 7965
  154.4247  140.1119  156.5711 H   0  0  0  0  0  0  0  0  0  0  0  0  # atno 8008 bound_to 7997
  155.6211  140.3495  155.4633 H   0  0  0  0  0  0  0  0  0  0  0  0  # atno 8009 bound_to 7997
  156.0023  140.1202  157.0524 H   0  0  0  0  0  0  0  0  0  0  0  0  # atno 8010 bound_to 7997
  140.1162  143.4484  152.1721 H   0  0  0  0  0  0  0  0  0  0  0  0  # atno 10167 bound_to 10162
  156.0684  130.4244  150.1528 H   0  0  0  0  0  0  0  0  0  0  0  0  # atno 10718 bound_to 10713
  152.9911  135.5548  154.5817 H   0  0  0  0  0  0  0  0  0  0  0  0  # atno 10763 bound_to 10752
  154.5197  135.2807  155.1275 H   0  0  0  0  0  0  0  0  0  0  0  0  # atno 10764 bound_to 10752
  154.2633  135.6377  153.5335 H   0  0  0  0  0  0  0  0  0  0  0  0  # atno 10765 bound_to 10752
  140.3876  134.1854  155.7663 H   0  0  0  0  0  0  0  0  0  0  0  0  # atno 11005 bound_to 11000
  145.4572  139.1517  143.3886 LP  0  0  0  0  0  0  0  0  0  0  0  0  # atno 17320 bound_to 7965
  146.2755  140.4700  142.8797 LP  0  0  0  0  0  0  0  0  0  0  0  0  # atno 17321 bound_to 7965
  139.5593  144.7395  151.4202 LP  0  0  0  0  0  0  0  0  0  0  0  0  # atno 17342 bound_to 10162
  140.6898  143.7888  150.7239 LP  0  0  0  0  0  0  0  0  0  0  0  0  # atno 17343 bound_to 10162
  156.9583  130.9797  151.3484 LP  0  0  0  0  0  0  0  0  0  0  0  0  # atno 17370 bound_to 10713
  157.5740  130.8330  149.8431 LP  0  0  0  0  0  0  0  0  0  0  0  0  # atno 17371 bound_to 10713
  141.1902  133.8222  157.0927 LP  0  0  0  0  0  0  0  0  0  0  0  0  # atno 17394 bound_to 11000
  140.0431  134.9844  157.0998 LP  0  0  0  0  0  0  0  0  0  0  0  0  # atno 17395 bound_to 11000

$$$$
