AV-unprocessed.smi:2548|AV-procd|sdf|10007|dock9
  -GOLD-   2272014 53D 1   1.00000     0.00000
 Structure written by MMmdl.
 44 45  0  0  0  0  0  0  0  0  1 V2000
  146.9325  139.9666  152.9296 C   0  0  0  0  0  0  0  0  0  0  0  0
  148.3068  139.9466  153.5068 C   0  0  0  0  0  0  0  0  0  0  0  0
  148.9642  140.8354  154.3098 C   0  0  0  0  0  0  0  0  0  0  0  0
  150.2459  140.2439  154.5171 C   0  0  0  0  0  0  0  0  0  0  0  0
  151.3988  140.7844  155.3246 C   0  0  0  0  0  0  0  0  0  0  0  0
  150.9507  141.2958  156.6995 C   0  0  0  0  0  0  0  0  0  0  0  0
  150.3016  140.5804  157.4642 O   0  0  0  0  0  0  0  0  0  0  0  0
  151.3261  142.5480  157.0059 N   0  0  0  0  0  0  0  0  0  0  0  0
  151.0332  143.2494  158.2562 C   0  0  0  0  0  0  0  0  0  0  0  0
  152.2368  144.0682  158.8158 C   0  0  0  0  0  0  0  0  0  0  0  0
  152.5584  145.2080  157.8202 C   0  0  0  0  0  0  0  0  0  0  0  0
  151.8635  144.7500  160.1643 C   0  0  0  0  0  0  0  0  0  0  0  0
  151.4112  143.8303  161.3180 C   0  0  0  0  0  0  0  0  0  0  0  0
  152.5332  143.2346  162.1852 C   0  0  0  0  0  0  0  0  0  0  0  0
  153.7679  142.6904  161.4476 C   0  0  0  0  0  0  0  0  0  0  0  0
  153.5105  142.1188  160.0448 C   0  0  0  0  0  0  0  0  0  0  0  0
  153.5183  143.2036  158.9512 C   0  0  0  0  0  0  0  0  0  0  0  0
  150.3740  139.0851  153.8853 N   0  0  0  0  0  0  0  0  0  0  0  0
  149.1855  138.9133  153.2778 N   0  0  0  0  0  0  0  0  0  0  0  0
  148.9912  138.0972  152.7153 H   0  0  0  0  0  0  0  0  0  0  0  0
  146.4388  140.9172  153.1324 H   0  0  0  0  0  0  0  0  0  0  0  0
  146.3219  139.1713  153.3570 H   0  0  0  0  0  0  0  0  0  0  0  0
  146.9630  139.8276  151.8487 H   0  0  0  0  0  0  0  0  0  0  0  0
  148.5862  141.7702  154.6969 H   0  0  0  0  0  0  0  0  0  0  0  0
  152.1610  140.0183  155.4723 H   0  0  0  0  0  0  0  0  0  0  0  0
  151.8796  141.5978  154.7796 H   0  0  0  0  0  0  0  0  0  0  0  0
  151.8639  143.0573  156.3197 H   0  0  0  0  0  0  0  0  0  0  0  0
  150.1998  143.9231  158.0548 H   0  0  0  0  0  0  0  0  0  0  0  0
  150.6565  142.5348  158.9859 H   0  0  0  0  0  0  0  0  0  0  0  0
  153.3391  145.8648  158.2058 H   0  0  0  0  0  0  0  0  0  0  0  0
  151.6818  145.8270  157.6253 H   0  0  0  0  0  0  0  0  0  0  0  0
  152.9099  144.8281  156.8604 H   0  0  0  0  0  0  0  0  0  0  0  0
  152.6875  145.3756  160.5105 H   0  0  0  0  0  0  0  0  0  0  0  0
  151.0440  145.4435  159.9690 H   0  0  0  0  0  0  0  0  0  0  0  0
  150.7725  144.4135  161.9822 H   0  0  0  0  0  0  0  0  0  0  0  0
  150.7658  143.0320  160.9594 H   0  0  0  0  0  0  0  0  0  0  0  0
  152.8688  143.9840  162.9031 H   0  0  0  0  0  0  0  0  0  0  0  0
  152.1002  142.4337  162.7853 H   0  0  0  0  0  0  0  0  0  0  0  0
  154.5247  143.4731  161.3842 H   0  0  0  0  0  0  0  0  0  0  0  0
  154.2157  141.9145  162.0697 H   0  0  0  0  0  0  0  0  0  0  0  0
  154.3231  141.4276  159.8189 H   0  0  0  0  0  0  0  0  0  0  0  0
  152.6027  141.5161  160.0194 H   0  0  0  0  0  0  0  0  0  0  0  0
  153.7310  142.7235  157.9963 H   0  0  0  0  0  0  0  0  0  0  0  0
  154.3772  143.8548  159.1196 H   0  0  0  0  0  0  0  0  0  0  0  0
  1  2  1  0  0  0  0
  1 21  1  0  0  0  0
  1 22  1  0  0  0  0
  1 23  1  0  0  0  0
  2 19  1  0  0  0  0
  2  3  2  0  0  0  0
  3  4  1  0  0  0  0
  3 24  1  0  0  0  0
  4  5  1  0  0  0  0
  4 18  2  0  0  0  0
  5  6  1  0  0  0  0
  5 25  1  0  0  0  0
  5 26  1  0  0  0  0
  6  7  2  0  0  0  0
  6  8  1  0  0  0  0
  8  9  1  0  0  0  0
  8 27  1  0  0  0  0
  9 10  1  0  0  0  0
  9 28  1  0  0  0  0
  9 29  1  0  0  0  0
 10 17  1  0  0  0  0
 10 11  1  0  0  0  0
 10 12  1  0  0  0  0
 11 30  1  0  0  0  0
 11 31  1  0  0  0  0
 11 32  1  0  0  0  0
 12 13  1  0  0  0  0
 12 33  1  0  0  0  0
 12 34  1  0  0  0  0
 13 14  1  0  0  0  0
 13 35  1  0  0  0  0
 13 36  1  0  0  0  0
 14 15  1  0  0  0  0
 14 37  1  0  0  0  0
 14 38  1  0  0  0  0
 15 16  1  0  0  0  0
 15 39  1  0  0  0  0
 15 40  1  0  0  0  0
 16 17  1  0  0  0  0
 16 41  1  0  0  0  0
 16 42  1  0  0  0  0
 17 43  1  0  0  0  0
 17 44  1  0  0  0  0
 18 19  1  0  0  0  0
 19 20  1  0  0  0  0
M  END
> <s_m_source_file>
AV-unprocessed.smi

> <i_m_source_file_index>
2548

> <i_lp_mmshare_version>
43012

> <i_f3d_flags>
0

> <s_epik_input>
W0NIM11jMVtjSF1jKG5bbkhdMSlbQ0gyXUMoPU8pW05IXVtDSDJdQzIoW0NIM10pW0NIMl1bQ0gyXVtDSDJdW0NIMl1bQ0gyXVtDSDJdMg==

> <s_epik_cmdline>
J2VwaWtfcHl0aG9uJywgJy1waCcsICc3LjAnLCAnLXRuJywgJzgnLCAnLW1hJywgJzIwMCcsICctbWV0YWxfYmluZGluZycsICctaW1hZScsICc8aW5maWxlLm1hZT4nLCAnLW9tYWUnLCAnPG91dGZpbGUubWFlPic=

> <r_lp_tautomer_probability>
0.5

> <r_epik_Ionization_Penalty>
8.42262e-05

> <r_epik_Ionization_Penalty_Charging>
0

> <r_epik_Ionization_Penalty_Neutral>
8.42262e-05

> <r_epik_State_Penalty>
0.41068

> <r_epik_Charging_Adjusted_Penalty>
0.41068

> <i_epik_Tot_Q>
0

> <i_epik_Tot_abs_Q>
0

> <r_epik_Metal_State_Penalty>
0.410698

> <b_epik_Metal_Only>
0

> <s_lp_Force_Field>
OPLS_2005

> <r_lp_Energy>
22.9227

> <b_lp_Chiralities_Consistent>
1

> <s_lp_Variant>
AV-unprocessed.smi:2548-1

> <Gold.Version>
5.8.1

> <Gold.Id.Protein>
6NUR|6NUR_protein|mol2

> <Gold.PLP.Fitness>
44.5010

> <Gold.PLP.PLP>
-42.1940

> <Gold.PLP.part.hbond>
-2.0000

> <Gold.PLP.part.metal>
0.0000

> <Gold.PLP.part.buried>
3.9075

> <Gold.PLP.part.nonpolar>
-41.9774

> <Gold.PLP.part.repulsive>
0.3434

> <Gold.PLP.ligand.clash>
0.0000

> <Gold.PLP.ligand.torsion>
0.3526

> <Gold.PLP.Chemscore.Hbond>
1.0000

> <Gold.PLP.Chemscore.CHOScore>
0.0000

> <Gold.PLP.Chemscore.Metal>
0.0000

> <Gold.Chemscore.Hbonds>
donor molecule, donor type, donor heavy atom, donor atom, acceptor molecule, acceptor atom, score
      L1  H    19    20       P1  7948  1.00

> <Gold.PLP.Chemscore.Internal.Correction>
0.0121

> <Gold.Rescore>
     Score         DG    S(hbond)    S(metal)    S(lipo)     H(rot)  DE(clash)    DE(int)     intcor
     19.97     -21.05       1.00        0.00     138.42       1.55       0.59       0.49       ----

> <Gold.Chemscore.Fitness>
19.9673

> <Gold.Chemscore.DG>
-21.0487

> <Gold.Chemscore.ZeroCoef>
-5.4800

> <Gold.Chemscore.Hbond>
0.9995

> <Gold.Chemscore.Metal>
0.0000

> <Gold.Chemscore.Lipo>
138.4230

> <Gold.Chemscore.Internal_Hbond>
0.0000

> <Gold.Chemscore.DEClash>
0.5940

> <Gold.Chemscore.DEInternal>
0.4874

> <Gold.Chemscore.Rot>
1.5489

> <Gold.Chemscore.Internal.Correction>
   9.000000E+99

> <Gold.Chemscore.Hbonds>
donor molecule, donor type, donor heavy atom, donor atom, acceptor molecule, acceptor atom, score
      L1  H    19    20       P1  7948  0.94

> <Gold.Chemscore.Hbond.Weighted>
-3.3384

> <Gold.Chemscore.Metal.Weighted>
-0.0000

> <Gold.Chemscore.Lipo.Weighted>
-16.1955

> <Gold.Chemscore.Internal_Hbond.Weighted>
0.0000

> <Gold.Chemscore.DEClash.Weighted>
0.5940

> <Gold.Chemscore.DEInternal.Weighted>
0.4874

> <Gold.Chemscore.Rot.Weighted>
3.9652

> <Gold.Chemscore.Internal.Correction.Weighted>
   9.000000E+99

> <Gold.Protein.RotatedTorsions>
[ 6907 6896 6895 6894 ] final   12.33 input  -60.11 | X-H torsion
[ 7974 7965 7964 7962 ] final  -81.90 input  175.53 | X-H torsion
[ 8008 7997 7996 7995 ] final   49.20 input   59.86 | X-H torsion
[ 10167 10162 10161 10158 ] final   83.86 input  -65.29 | X-H torsion
[ 10718 10713 10712 10709 ] final   13.25 input   66.30 | X-H torsion
[ 10763 10752 10751 10750 ] final  -57.01 input  -60.55 | X-H torsion
[ 11005 11000 10999 10996 ] final   79.69 input  -57.11 | X-H torsion

> <Gold.Protein.ActiveResidues>
 VAL166  LYS551  ARG553  GLY616  TRP617  ASP618  TYR619  PRO620  LYS621  CYS622 
 ASP623  PHE694  ASN695  SER759  ASP760  ASP761  ALA762  ILE779  LEU786  VAL792 
 PHE793  MET794  SER795  GLU796  ALA797  LYS798  CYS799  TRP800  GLU811  SER814 

> <Gold.Protein.RotatedAtoms>
  151.7687  135.0792  160.0356 H   0  0  0  0  0  0  0  0  0  0  0  0  # atno 6907 bound_to 6896
  152.3304  133.5947  159.5814 H   0  0  0  0  0  0  0  0  0  0  0  0  # atno 6908 bound_to 6896
  150.7419  133.9793  159.3613 H   0  0  0  0  0  0  0  0  0  0  0  0  # atno 6909 bound_to 6896
  145.5405  140.9510  143.1554 H   0  0  0  0  0  0  0  0  0  0  0  0  # atno 7974 bound_to 7965
  155.3982  140.3436  155.4255 H   0  0  0  0  0  0  0  0  0  0  0  0  # atno 8008 bound_to 7997
  156.1519  140.1573  156.8789 H   0  0  0  0  0  0  0  0  0  0  0  0  # atno 8009 bound_to 7997
  154.5060  140.0802  156.7875 H   0  0  0  0  0  0  0  0  0  0  0  0  # atno 8010 bound_to 7997
  139.9140  144.6254  150.8508 H   0  0  0  0  0  0  0  0  0  0  0  0  # atno 10167 bound_to 10162
  157.0219  130.6158  149.5722 H   0  0  0  0  0  0  0  0  0  0  0  0  # atno 10718 bound_to 10713
  154.2157  135.6386  153.5129 H   0  0  0  0  0  0  0  0  0  0  0  0  # atno 10763 bound_to 10752
  152.9980  135.5484  154.6168 H   0  0  0  0  0  0  0  0  0  0  0  0  # atno 10764 bound_to 10752
  154.5616  135.2909  155.0888 H   0  0  0  0  0  0  0  0  0  0  0  0  # atno 10765 bound_to 10752
  139.9163  134.7862  156.1812 H   0  0  0  0  0  0  0  0  0  0  0  0  # atno 11005 bound_to 11000
  144.7579  139.7028  143.7246 LP  0  0  0  0  0  0  0  0  0  0  0  0  # atno 17320 bound_to 7965
  146.1984  139.5264  142.9759 LP  0  0  0  0  0  0  0  0  0  0  0  0  # atno 17321 bound_to 7965
  140.7678  143.3345  151.2339 LP  0  0  0  0  0  0  0  0  0  0  0  0  # atno 17342 bound_to 10162
  139.6918  143.9679  152.2863 LP  0  0  0  0  0  0  0  0  0  0  0  0  # atno 17343 bound_to 10162
  156.0099  130.5190  150.7954 LP  0  0  0  0  0  0  0  0  0  0  0  0  # atno 17370 bound_to 10713
  157.5243  131.0933  151.0038 LP  0  0  0  0  0  0  0  0  0  0  0  0  # atno 17371 bound_to 10713
  141.0641  133.6827  156.2010 LP  0  0  0  0  0  0  0  0  0  0  0  0  # atno 17394 bound_to 11000
  140.6613  134.4964  157.5583 LP  0  0  0  0  0  0  0  0  0  0  0  0  # atno 17395 bound_to 11000

$$$$
