AV-unprocessed.smi:1669|AV-procd|sdf|6691|dock2
  -GOLD-   22720 7423D 1   1.00000     0.00000
 Structure written by MMmdl.
 49 51  0  0  0  0  0  0  0  0  3 V2000
  151.6052  140.3584  157.5768 C   0  0  0  0  0  0  0  0  0  0  0  0
  150.6486  141.4247  157.1956 N   0  3  1  0  0  0  0  0  0  0  0  0
  151.3130  142.7542  157.1696 C   0  0  0  0  0  0  0  0  0  0  0  0
  151.5806  143.3083  158.5592 C   0  0  0  0  0  0  0  0  0  0  0  0
  151.0641  144.5674  158.9352 C   0  0  0  0  0  0  0  0  0  0  0  0
  151.3039  145.0736  160.2272 C   0  0  0  0  0  0  0  0  0  0  0  0
  152.0648  144.3259  161.1466 C   0  0  0  0  0  0  0  0  0  0  0  0
  152.5859  143.0718  160.7736 C   0  0  0  0  0  0  0  0  0  0  0  0
  152.3448  142.5638  159.4822 C   0  0  0  0  0  0  0  0  0  0  0  0
  149.9014  141.1222  155.9430 C   0  0  0  0  0  0  0  0  0  0  0  0
  148.4106  141.5284  155.9808 C   0  0  1  0  0  0  0  0  0  0  0  0
  148.0954  142.2698  154.8194 O   0  0  0  0  0  0  0  0  0  0  0  0
  147.4449  140.3246  156.0210 C   0  0  0  0  0  0  0  0  0  0  0  0
  148.0062  139.0976  155.4307 N   0  0  0  0  0  0  0  0  0  0  0  0
  147.8926  138.6051  154.1629 C   0  0  0  0  0  0  0  0  0  0  0  0
  147.1398  139.2144  153.0265 C   0  0  0  0  0  0  0  0  0  0  0  0
  147.4136  138.5752  151.7998 O   0  0  0  0  0  0  0  0  0  0  0  0
  148.6125  137.4494  154.1119 N   0  3  0  0  0  0  0  0  0  0  0  0
  149.1955  137.1995  155.3545 C   0  0  0  0  0  0  0  0  0  0  0  0
  150.0089  136.1554  155.7839 C   0  0  0  0  0  0  0  0  0  0  0  0
  150.4393  136.1988  157.1261 C   0  0  0  0  0  0  0  0  0  0  0  0
  150.0614  137.2517  157.9840 C   0  0  0  0  0  0  0  0  0  0  0  0
  149.2381  138.3059  157.5367 C   0  0  0  0  0  0  0  0  0  0  0  0
  148.8142  138.2559  156.2078 C   0  0  0  0  0  0  0  0  0  0  0  0
  152.3469  140.2003  156.7927 H   0  0  0  0  0  0  0  0  0  0  0  0
  151.0990  139.4131  157.7676 H   0  0  0  0  0  0  0  0  0  0  0  0
  152.1330  140.6220  158.4939 H   0  0  0  0  0  0  0  0  0  0  0  0
  152.2725  142.6762  156.6561 H   0  0  0  0  0  0  0  0  0  0  0  0
  150.7100  143.4579  156.5933 H   0  0  0  0  0  0  0  0  0  0  0  0
  150.4770  145.1462  158.2368 H   0  0  0  0  0  0  0  0  0  0  0  0
  150.9051  146.0358  160.5135 H   0  0  0  0  0  0  0  0  0  0  0  0
  152.2497  144.7146  162.1374 H   0  0  0  0  0  0  0  0  0  0  0  0
  153.1705  142.4994  161.4789 H   0  0  0  0  0  0  0  0  0  0  0  0
  152.7460  141.5999  159.2040 H   0  0  0  0  0  0  0  0  0  0  0  0
  150.3576  141.6480  155.1057 H   0  0  0  0  0  0  0  0  0  0  0  0
  150.0032  140.0573  155.7303 H   0  0  0  0  0  0  0  0  0  0  0  0
  148.2106  142.1532  156.8502 H   0  0  0  0  0  0  0  0  0  0  0  0
  148.4830  143.1289  154.8866 H   0  0  0  0  0  0  0  0  0  0  0  0
  147.1806  140.0950  157.0541 H   0  0  0  0  0  0  0  0  0  0  0  0
  146.5051  140.5604  155.5214 H   0  0  0  0  0  0  0  0  0  0  0  0
  146.0696  139.1554  153.2261 H   0  0  0  0  0  0  0  0  0  0  0  0
  147.3926  140.2713  152.9442 H   0  0  0  0  0  0  0  0  0  0  0  0
  147.7844  137.7241  151.9776 H   0  0  0  0  0  0  0  0  0  0  0  0
  150.3028  135.3491  155.1276 H   0  0  0  0  0  0  0  0  0  0  0  0
  151.0734  135.4099  157.5045 H   0  0  0  0  0  0  0  0  0  0  0  0
  150.4129  137.2524  159.0061 H   0  0  0  0  0  0  0  0  0  0  0  0
  148.9598  139.1052  158.2070 H   0  0  0  0  0  0  0  0  0  0  0  0
  149.9621  141.4746  157.9350 H   0  0  0  0  0  0  0  0  0  0  0  0
  148.7050  136.8792  153.2809 H   0  0  0  0  0  0  0  0  0  0  0  0
  1  2  1  0  0  0  0
  1 25  1  0  0  0  0
  1 26  1  0  0  0  0
  1 27  1  0  0  0  0
  2  3  1  0  0  0  0
  2 10  1  0  0  0  0
  2 48  1  0  0  0  0
  3  4  1  0  0  0  0
  3 28  1  0  0  0  0
  3 29  1  0  0  0  0
  4  9  1  0  0  0  0
  4  5  2  0  0  0  0
  5  6  1  0  0  0  0
  5 30  1  0  0  0  0
  6  7  2  0  0  0  0
  6 31  1  0  0  0  0
  7  8  1  0  0  0  0
  7 32  1  0  0  0  0
  8  9  2  0  0  0  0
  8 33  1  0  0  0  0
  9 34  1  0  0  0  0
 10 11  1  0  0  0  0
 10 35  1  0  0  0  0
 10 36  1  0  0  0  0
 11 12  1  0  0  0  0
 11 13  1  0  0  0  0
 11 37  1  0  0  0  0
 12 38  1  0  0  0  0
 13 14  1  0  0  0  0
 13 39  1  0  0  0  0
 13 40  1  0  0  0  0
 14 24  1  0  0  0  0
 14 15  1  0  0  0  0
 15 16  1  0  0  0  0
 15 18  2  0  0  0  0
 16 17  1  0  0  0  0
 16 41  1  0  0  0  0
 16 42  1  0  0  0  0
 17 43  1  0  0  0  0
 18 19  1  0  0  0  0
 18 49  1  0  0  0  0
 19 24  2  0  0  0  0
 19 20  1  0  0  0  0
 20 21  2  0  0  0  0
 20 44  1  0  0  0  0
 21 22  1  0  0  0  0
 21 45  1  0  0  0  0
 22 23  2  0  0  0  0
 22 46  1  0  0  0  0
 23 24  1  0  0  0  0
 23 47  1  0  0  0  0
M  CHG  1   2   1
M  CHG  1  18   1
M  END
> <s_m_source_file>
AV-unprocessed.smi

> <i_m_source_file_index>
1669

> <i_lp_mmshare_version>
43012

> <i_f3d_flags>
0

> <s_epik_input>
W2NIXTFbY0hdW2NIXVtjSF1bY0hdYzFbQ0gyXU4oW0NIM10pW0NIMl1bQ0BIXShbT0hdKVtDSDJdbihjKG4yKVtDSDJdW09IXSljKGMyMylbY0hdW2NIXVtjSF1bY0hdMw==

> <s_epik_cmdline>
J2VwaWtfcHl0aG9uJywgJy1waCcsICc3LjAnLCAnLXRuJywgJzgnLCAnLW1hJywgJzIwMCcsICctbWV0YWxfYmluZGluZycsICctaW1hZScsICc8aW5maWxlLm1hZT4nLCAnLW9tYWUnLCAnPG91dGZpbGUubWFlPic=

> <r_epik_Ionization_Penalty>
1.57484

> <r_epik_Ionization_Penalty_Charging>
1.57398

> <r_epik_Ionization_Penalty_Neutral>
0.000858917

> <r_epik_State_Penalty>
1.64997

> <r_epik_Charging_Adjusted_Penalty>
3.22395

> <i_epik_Tot_Q>
2

> <i_epik_Tot_abs_Q>
2

> <r_epik_Metal_State_Penalty>
5.70481

> <b_epik_Metal_Only>
0

> <s_lp_Force_Field>
OPLS_2005

> <r_lp_Energy>
25.6323

> <b_lp_Chiralities_Consistent>
1

> <s_lp_Variant>
AV-unprocessed.smi:1669-9

> <Gold.Version>
5.8.1

> <Gold.Id.Protein>
6NUR|6NUR_protein|mol2

> <Gold.PLP.Fitness>
50.7045

> <Gold.PLP.PLP>
-42.7332

> <Gold.PLP.part.hbond>
-4.8191

> <Gold.PLP.part.metal>
0.0000

> <Gold.PLP.part.buried>
-7.1552

> <Gold.PLP.part.nonpolar>
-31.2686

> <Gold.PLP.part.repulsive>
0.0421

> <Gold.PLP.ligand.clash>
0.0000

> <Gold.PLP.ligand.torsion>
2.2783

> <Gold.PLP.Chemscore.Hbond>
4.0000

> <Gold.PLP.Chemscore.CHOScore>
0.0000

> <Gold.PLP.Chemscore.Metal>
0.0000

> <Gold.Chemscore.Hbonds>
donor molecule, donor type, donor heavy atom, donor atom, acceptor molecule, acceptor atom, score
      L1  H    12    38       P1  8028  1.00
      L1  H    17    43       P1  7948  1.00
      L1  H    18    49       P1  7948  2.00

> <Gold.PLP.Chemscore.Internal.Correction>
0.5278

> <Gold.Rescore>
     Score         DG    S(hbond)    S(metal)    S(lipo)     H(rot)  DE(clash)    DE(int)     intcor
     18.62     -20.93       2.96        0.00     119.16       3.27       0.03       2.28       ----

> <Gold.Chemscore.Fitness>
18.6220

> <Gold.Chemscore.DG>
-20.9293

> <Gold.Chemscore.ZeroCoef>
-5.4800

> <Gold.Chemscore.Hbond>
2.9592

> <Gold.Chemscore.Metal>
0.0000

> <Gold.Chemscore.Lipo>
119.1582

> <Gold.Chemscore.Internal_Hbond>
0.0000

> <Gold.Chemscore.DEClash>
0.0272

> <Gold.Chemscore.DEInternal>
2.2801

> <Gold.Chemscore.Rot>
3.2718

> <Gold.Chemscore.Internal.Correction>
   9.000000E+99

> <Gold.Chemscore.Hbonds>
donor molecule, donor type, donor heavy atom, donor atom, acceptor molecule, acceptor atom, score
      L1  H    12    38       P1  8028  0.99
      L1  H    17    43       P1  7948  0.99
      L1  H    18    49       P1  7948  0.97

> <Gold.Chemscore.Hbond.Weighted>
-9.8837

> <Gold.Chemscore.Metal.Weighted>
-0.0000

> <Gold.Chemscore.Lipo.Weighted>
-13.9415

> <Gold.Chemscore.Internal_Hbond.Weighted>
0.0000

> <Gold.Chemscore.DEClash.Weighted>
0.0272

> <Gold.Chemscore.DEInternal.Weighted>
2.2801

> <Gold.Chemscore.Rot.Weighted>
8.3759

> <Gold.Chemscore.Internal.Correction.Weighted>
   9.000000E+99

> <Gold.Protein.RotatedTorsions>
[ 6907 6896 6895 6894 ] final   58.69 input  -60.11 | X-H torsion
[ 7974 7965 7964 7962 ] final   85.90 input  175.53 | X-H torsion
[ 8008 7997 7996 7995 ] final  119.63 input   59.86 | X-H torsion
[ 10167 10162 10161 10158 ] final  -62.23 input  -65.29 | X-H torsion
[ 10718 10713 10712 10709 ] final   87.76 input   66.30 | X-H torsion
[ 10763 10752 10751 10750 ] final -132.73 input  -60.55 | X-H torsion
[ 11005 11000 10999 10996 ] final  131.30 input  -57.11 | X-H torsion

> <Gold.Protein.ActiveResidues>
 VAL166  LYS551  ARG553  GLY616  TRP617  ASP618  TYR619  PRO620  LYS621  CYS622 
 ASP623  PHE694  ASN695  SER759  ASP760  ASP761  ALA762  ILE779  LEU786  VAL792 
 PHE793  MET794  SER795  GLU796  ALA797  LYS798  CYS799  TRP800  GLU811  SER814 

> <Gold.Protein.RotatedAtoms>
  152.3847  134.6536  160.0129 H   0  0  0  0  0  0  0  0  0  0  0  0  # atno 6907 bound_to 6896
  151.6788  133.3307  159.3222 H   0  0  0  0  0  0  0  0  0  0  0  0  # atno 6908 bound_to 6896
  150.7776  134.6735  159.6449 H   0  0  0  0  0  0  0  0  0  0  0  0  # atno 6909 bound_to 6896
  145.5794  139.2323  143.2361 H   0  0  0  0  0  0  0  0  0  0  0  0  # atno 7974 bound_to 7965
  156.2605  140.2849  156.1021 H   0  0  0  0  0  0  0  0  0  0  0  0  # atno 8008 bound_to 7997
  155.1348  140.0394  157.2801 H   0  0  0  0  0  0  0  0  0  0  0  0  # atno 8009 bound_to 7997
  154.6573  140.2558  155.7154 H   0  0  0  0  0  0  0  0  0  0  0  0  # atno 8010 bound_to 7997
  140.5953  143.2349  151.6050 H   0  0  0  0  0  0  0  0  0  0  0  0  # atno 10167 bound_to 10162
  157.6943  131.0268  150.3173 H   0  0  0  0  0  0  0  0  0  0  0  0  # atno 10718 bound_to 10713
  154.8740  135.3788  154.4457 H   0  0  0  0  0  0  0  0  0  0  0  0  # atno 10763 bound_to 10752
  153.5137  135.7029  153.5772 H   0  0  0  0  0  0  0  0  0  0  0  0  # atno 10764 bound_to 10752
  153.4050  135.3939  155.1979 H   0  0  0  0  0  0  0  0  0  0  0  0  # atno 10765 bound_to 10752
  139.9722  134.9574  156.9418 H   0  0  0  0  0  0  0  0  0  0  0  0  # atno 11005 bound_to 11000
  146.1727  140.6620  142.9225 LP  0  0  0  0  0  0  0  0  0  0  0  0  # atno 17320 bound_to 7965
  144.7401  140.4918  143.6875 LP  0  0  0  0  0  0  0  0  0  0  0  0  # atno 17321 bound_to 7965
  139.5254  144.3076  152.1020 LP  0  0  0  0  0  0  0  0  0  0  0  0  # atno 17342 bound_to 10162
  140.2247  144.4430  150.6326 LP  0  0  0  0  0  0  0  0  0  0  0  0  # atno 17343 bound_to 10162
  156.3665  130.3856  149.7209 LP  0  0  0  0  0  0  0  0  0  0  0  0  # atno 17370 bound_to 10713
  156.4638  130.7964  151.2984 LP  0  0  0  0  0  0  0  0  0  0  0  0  # atno 17371 bound_to 10713
  140.5270  134.0851  155.7306 LP  0  0  0  0  0  0  0  0  0  0  0  0  # atno 17394 bound_to 11000
  141.1401  133.9153  157.2345 LP  0  0  0  0  0  0  0  0  0  0  0  0  # atno 17395 bound_to 11000

$$$$
