AV-unprocessed.smi:866|AV-procd|sdf|3992|dock3
  -GOLD-   22720 1473D 1   1.00000     0.00000
 Structure written by MMmdl.
 34 34  0  0  0  0  0  0  0  0  2 V2000
  154.3845  140.6944  160.8832 C   0  0  0  0  0  0  0  0  0  0  0  0
  153.2312  141.5734  160.4933 C   0  0  0  0  0  0  0  0  0  0  0  0
  152.6287  142.6153  161.2543 C   0  0  0  0  0  0  0  0  0  0  0  0
  151.6255  143.2004  160.6206 N   0  0  0  0  0  0  0  0  0  0  0  0
  151.5504  142.5540  159.4384 N   0  0  0  0  0  0  0  0  0  0  0  0
  150.5421  142.9410  158.4709 C   0  0  0  0  0  0  0  0  0  0  0  0
  150.6696  142.1417  157.1664 C   0  0  0  0  0  0  0  0  0  0  0  0
  149.4470  142.2708  156.3475 N   0  3  0  0  0  0  0  0  0  0  0  0
  149.3647  141.3572  155.1823 C   0  0  2  0  0  0  0  0  0  0  0  0
  148.1552  141.7028  154.2968 C   0  0  0  0  0  0  0  0  0  0  0  0
  149.2945  139.8834  155.6465 C   0  0  0  0  0  0  0  0  0  0  0  0
  149.7126  138.8517  154.5887 C   0  0  0  0  0  0  0  0  0  0  0  0
  148.7480  138.0626  154.1104 N   0  0  0  0  0  0  0  0  0  0  0  0
  150.8780  138.7618  154.2062 O   0  0  0  0  0  0  0  0  0  0  0  0
  152.5102  141.5698  159.3329 C   0  0  0  0  0  0  0  0  0  0  0  0
  154.7872  140.9627  161.8601 H   0  0  0  0  0  0  0  0  0  0  0  0
  155.2041  140.7652  160.1681 H   0  0  0  0  0  0  0  0  0  0  0  0
  154.0908  139.6457  160.9346 H   0  0  0  0  0  0  0  0  0  0  0  0
  152.8895  142.9612  162.2437 H   0  0  0  0  0  0  0  0  0  0  0  0
  149.5581  142.7915  158.9181 H   0  0  0  0  0  0  0  0  0  0  0  0
  150.6425  144.0091  158.2739 H   0  0  0  0  0  0  0  0  0  0  0  0
  151.5334  142.4948  156.6030 H   0  0  0  0  0  0  0  0  0  0  0  0
  150.8382  141.0874  157.3908 H   0  0  0  0  0  0  0  0  0  0  0  0
  148.6653  142.0571  156.9509 H   0  0  0  0  0  0  0  0  0  0  0  0
  150.2691  141.4808  154.5839 H   0  0  0  0  0  0  0  0  0  0  0  0
  148.0847  141.0196  153.4498 H   0  0  0  0  0  0  0  0  0  0  0  0
  148.2259  142.7102  153.8870 H   0  0  0  0  0  0  0  0  0  0  0  0
  147.2209  141.6337  154.8552 H   0  0  0  0  0  0  0  0  0  0  0  0
  149.9145  139.7463  156.5338 H   0  0  0  0  0  0  0  0  0  0  0  0
  148.2729  139.6460  155.9467 H   0  0  0  0  0  0  0  0  0  0  0  0
  148.9638  137.3587  153.4191 H   0  0  0  0  0  0  0  0  0  0  0  0
  147.8020  138.1663  154.4493 H   0  0  0  0  0  0  0  0  0  0  0  0
  152.5996  140.9526  158.4511 H   0  0  0  0  0  0  0  0  0  0  0  0
  149.3544  143.2243  156.0282 H   0  0  0  0  0  0  0  0  0  0  0  0
  1  2  1  0  0  0  0
  1 16  1  0  0  0  0
  1 17  1  0  0  0  0
  1 18  1  0  0  0  0
  2 15  2  0  0  0  0
  2  3  1  0  0  0  0
  3  4  2  0  0  0  0
  3 19  1  0  0  0  0
  4  5  1  0  0  0  0
  5  6  1  0  0  0  0
  5 15  1  0  0  0  0
  6  7  1  0  0  0  0
  6 20  1  0  0  0  0
  6 21  1  0  0  0  0
  7  8  1  0  0  0  0
  7 22  1  0  0  0  0
  7 23  1  0  0  0  0
  8  9  1  0  0  0  0
  8 24  1  0  0  0  0
  8 34  1  0  0  0  0
  9 10  1  0  0  0  0
  9 11  1  0  0  0  0
  9 25  1  0  0  0  0
 10 26  1  0  0  0  0
 10 27  1  0  0  0  0
 10 28  1  0  0  0  0
 11 12  1  0  0  0  0
 11 29  1  0  0  0  0
 11 30  1  0  0  0  0
 12 13  1  0  0  0  0
 12 14  2  0  0  0  0
 13 31  1  0  0  0  0
 13 32  1  0  0  0  0
 15 33  1  0  0  0  0
M  CHG  1   8   1
M  END
> <s_m_source_file>
AV-unprocessed.smi

> <i_m_source_file_index>
866

> <i_lp_mmshare_version>
43012

> <i_f3d_flags>
0

> <s_epik_input>
W0NIM11jMVtjSF1ubihbY0hdMSlbQ0gyXVtDSDJdW05IXVtDQEhdKFtDSDNdKVtDSDJdQyg9TylbTkgyXQ==

> <s_epik_cmdline>
J2VwaWtfcHl0aG9uJywgJy1waCcsICc3LjAnLCAnLXRuJywgJzgnLCAnLW1hJywgJzIwMCcsICctbWV0YWxfYmluZGluZycsICctaW1hZScsICc8aW5maWxlLm1hZT4nLCAnLW9tYWUnLCAnPG91dGZpbGUubWFlPic=

> <r_lp_tautomer_probability>
1

> <r_epik_Ionization_Penalty>
0.0061413

> <r_epik_Ionization_Penalty_Charging>
0.00613574

> <r_epik_Ionization_Penalty_Neutral>
5.56035e-06

> <r_epik_State_Penalty>
0.00452343

> <r_epik_Charging_Adjusted_Penalty>
0.0106592

> <i_epik_Tot_Q>
1

> <i_epik_Tot_abs_Q>
1

> <r_epik_Metal_State_Penalty>
-0

> <b_epik_Metal_Only>
0

> <s_lp_Force_Field>
OPLS_2005

> <r_lp_Energy>
1.4749

> <b_lp_Chiralities_Consistent>
1

> <s_lp_Variant>
AV-unprocessed.smi:866-1

> <Gold.Version>
5.8.1

> <Gold.Id.Protein>
6NUR|6NUR_protein|mol2

> <Gold.PLP.Fitness>
45.1725

> <Gold.PLP.PLP>
-33.7946

> <Gold.PLP.part.hbond>
-3.1037

> <Gold.PLP.part.metal>
0.0000

> <Gold.PLP.part.buried>
-2.1378

> <Gold.PLP.part.nonpolar>
-28.8910

> <Gold.PLP.part.repulsive>
0.3754

> <Gold.PLP.ligand.clash>
0.0000

> <Gold.PLP.ligand.torsion>
0.3560

> <Gold.PLP.Chemscore.Hbond>
4.0000

> <Gold.PLP.Chemscore.CHOScore>
0.0000

> <Gold.PLP.Chemscore.Metal>
0.0000

> <Gold.Chemscore.Hbonds>
donor molecule, donor type, donor heavy atom, donor atom, acceptor molecule, acceptor atom, score
      L1  H     8    34       P1  8028  2.00
      L1  H    13    31       P1  7948  1.00
      P1  H  7989  7998       L1    14  0.24

> <Gold.PLP.Chemscore.Internal.Correction>
0.0899

> <Gold.Rescore>
     Score         DG    S(hbond)    S(metal)    S(lipo)     H(rot)  DE(clash)    DE(int)     intcor
     14.99     -16.75       2.86        0.00      75.39       2.77       1.47       0.29       ----

> <Gold.Chemscore.Fitness>
14.9863

> <Gold.Chemscore.DG>
-16.7464

> <Gold.Chemscore.ZeroCoef>
-5.4800

> <Gold.Chemscore.Hbond>
2.8583

> <Gold.Chemscore.Metal>
0.0000

> <Gold.Chemscore.Lipo>
75.3937

> <Gold.Chemscore.Internal_Hbond>
0.0000

> <Gold.Chemscore.DEClash>
1.4654

> <Gold.Chemscore.DEInternal>
0.2947

> <Gold.Chemscore.Rot>
2.7740

> <Gold.Chemscore.Internal.Correction>
   9.000000E+99

> <Gold.Chemscore.Hbonds>
donor molecule, donor type, donor heavy atom, donor atom, acceptor molecule, acceptor atom, score
      L1  H     8    34       P1  8028  0.99
      L1  H    13    31       P1  7948  1.00
      P1  H  7989  7998       L1    14  0.18

> <Gold.Chemscore.Hbond.Weighted>
-9.5468

> <Gold.Chemscore.Metal.Weighted>
-0.0000

> <Gold.Chemscore.Lipo.Weighted>
-8.8211

> <Gold.Chemscore.Internal_Hbond.Weighted>
0.0000

> <Gold.Chemscore.DEClash.Weighted>
1.4654

> <Gold.Chemscore.DEInternal.Weighted>
0.2947

> <Gold.Chemscore.Rot.Weighted>
7.1014

> <Gold.Chemscore.Internal.Correction.Weighted>
   9.000000E+99

> <Gold.Protein.RotatedTorsions>
[ 6907 6896 6895 6894 ] final  131.23 input  -60.11 | X-H torsion
[ 7974 7965 7964 7962 ] final   60.05 input  175.53 | X-H torsion
[ 8008 7997 7996 7995 ] final -113.55 input   59.86 | X-H torsion
[ 10167 10162 10161 10158 ] final  109.60 input  -65.29 | X-H torsion
[ 10718 10713 10712 10709 ] final  101.75 input   66.30 | X-H torsion
[ 10763 10752 10751 10750 ] final  -78.37 input  -60.55 | X-H torsion
[ 11005 11000 10999 10996 ] final  153.62 input  -57.11 | X-H torsion

> <Gold.Protein.ActiveResidues>
 VAL166  LYS551  ARG553  GLY616  TRP617  ASP618  TYR619  PRO620  LYS621  CYS622 
 ASP623  PHE694  ASN695  SER759  ASP760  ASP761  ALA762  ILE779  LEU786  VAL792 
 PHE793  MET794  SER795  GLU796  ALA797  LYS798  CYS799  TRP800  GLU811  SER814 

> <Gold.Protein.RotatedAtoms>
  152.3446  133.6107  159.5900 H   0  0  0  0  0  0  0  0  0  0  0  0  # atno 6907 bound_to 6896
  150.7500  133.9668  159.3542 H   0  0  0  0  0  0  0  0  0  0  0  0  # atno 6908 bound_to 6896
  151.7528  135.0829  160.0384 H   0  0  0  0  0  0  0  0  0  0  0  0  # atno 6909 bound_to 6896
  145.9003  139.3576  143.0596 H   0  0  0  0  0  0  0  0  0  0  0  0  # atno 7974 bound_to 7965
  155.0224  140.0393  157.2442 H   0  0  0  0  0  0  0  0  0  0  0  0  # atno 8008 bound_to 7997
  154.7366  140.2741  155.6386 H   0  0  0  0  0  0  0  0  0  0  0  0  # atno 8009 bound_to 7997
  156.2854  140.2673  156.2082 H   0  0  0  0  0  0  0  0  0  0  0  0  # atno 8010 bound_to 7997
  139.6754  144.7122  151.1612 H   0  0  0  0  0  0  0  0  0  0  0  0  # atno 10167 bound_to 10162
  157.6821  131.0734  150.5299 H   0  0  0  0  0  0  0  0  0  0  0  0  # atno 10718 bound_to 10713
  154.5250  135.5732  153.6711 H   0  0  0  0  0  0  0  0  0  0  0  0  # atno 10763 bound_to 10752
  152.9926  135.6191  154.2705 H   0  0  0  0  0  0  0  0  0  0  0  0  # atno 10764 bound_to 10752
  154.2628  135.2855  155.2750 H   0  0  0  0  0  0  0  0  0  0  0  0  # atno 10765 bound_to 10752
  140.1414  134.8736  157.2336 H   0  0  0  0  0  0  0  0  0  0  0  0  # atno 11005 bound_to 11000
  145.8799  140.9369  143.0607 LP  0  0  0  0  0  0  0  0  0  0  0  0  # atno 17320 bound_to 7965
  144.6735  140.0766  143.7471 LP  0  0  0  0  0  0  0  0  0  0  0  0  # atno 17321 bound_to 7965
  140.7633  143.5780  150.8924 LP  0  0  0  0  0  0  0  0  0  0  0  0  # atno 17342 bound_to 10162
  139.9449  143.6339  152.3044 LP  0  0  0  0  0  0  0  0  0  0  0  0  # atno 17343 bound_to 10162
  156.5609  130.4255  149.6063 LP  0  0  0  0  0  0  0  0  0  0  0  0  # atno 17370 bound_to 10713
  156.2822  130.7077  151.1904 LP  0  0  0  0  0  0  0  0  0  0  0  0  # atno 17371 bound_to 10713
  140.2717  134.3452  155.7371 LP  0  0  0  0  0  0  0  0  0  0  0  0  # atno 17394 bound_to 11000
  141.2186  133.7427  156.9233 LP  0  0  0  0  0  0  0  0  0  0  0  0  # atno 17395 bound_to 11000

$$$$
