AV-unprocessed.smi:933|AV-procd|sdf|4203|dock1
  -GOLD-   22720 2113D 1   1.00000     0.00000
 Structure written by MMmdl.
 42 43  0  0  0  0  0  0  0  0  1 V2000
  150.8159  142.2617  157.1371 C   0  0  0  0  0  0  0  0  0  0  0  0
  151.6912  141.0521  156.7919 C   0  0  0  0  0  0  0  0  0  0  0  0
  151.0466  140.1471  155.7963 C   0  0  0  0  0  0  0  0  0  0  0  0
  149.8031  140.3203  155.3414 N   0  0  0  0  0  0  0  0  0  0  0  0
  149.4422  139.3705  154.3799 C   0  0  0  0  0  0  0  0  0  0  0  0
  148.0819  139.4170  153.7450 C   0  0  0  0  0  0  0  0  0  0  0  0
  147.1113  138.3573  154.2950 C   0  0  0  0  0  0  0  0  0  0  0  0
  147.1603  137.1202  153.5169 N   0  0  0  0  0  0  0  0  0  0  0  0
  146.3109  136.0815  153.5833 C   0  0  0  0  0  0  0  0  0  0  0  0
  145.3526  136.0719  154.3535 O   0  0  0  0  0  0  0  0  0  0  0  0
  146.6012  135.0719  152.7460 N   0  0  0  0  0  0  0  0  0  0  0  0
  145.8412  133.8289  152.6245 C   0  0  2  0  0  0  0  0  0  0  0  0
  146.6349  132.7742  151.8231 C   0  0  0  0  0  0  0  0  0  0  0  0
  145.7568  132.3759  150.6327 C   0  0  0  0  0  0  0  0  0  0  0  0
  144.8051  133.5527  150.4357 C   0  0  0  0  0  0  0  0  0  0  0  0
  144.5125  134.0286  151.8596 C   0  0  2  0  0  0  0  0  0  0  0  0
  143.8785  135.4293  151.9293 C   0  0  0  0  0  0  0  0  0  0  0  0
  150.4416  138.4688  154.1106 C   0  0  0  0  0  0  0  0  0  0  0  0
  151.8754  138.7874  155.0477 S   0  0  0  0  0  0  0  0  0  0  0  0
  151.3112  142.9052  157.8645 H   0  0  0  0  0  0  0  0  0  0  0  0
  149.8626  141.9479  157.5639 H   0  0  0  0  0  0  0  0  0  0  0  0
  150.6050  142.8605  156.2506 H   0  0  0  0  0  0  0  0  0  0  0  0
  152.6481  141.3873  156.3909 H   0  0  0  0  0  0  0  0  0  0  0  0
  151.9130  140.4827  157.6953 H   0  0  0  0  0  0  0  0  0  0  0  0
  147.6427  140.4050  153.8876 H   0  0  0  0  0  0  0  0  0  0  0  0
  148.1732  139.2925  152.6651 H   0  0  0  0  0  0  0  0  0  0  0  0
  147.3598  138.1412  155.3355 H   0  0  0  0  0  0  0  0  0  0  0  0
  146.0944  138.7522  154.2820 H   0  0  0  0  0  0  0  0  0  0  0  0
  147.9236  137.0427  152.8596 H   0  0  0  0  0  0  0  0  0  0  0  0
  147.4087  135.1704  152.1484 H   0  0  0  0  0  0  0  0  0  0  0  0
  145.6147  133.4523  153.6238 H   0  0  0  0  0  0  0  0  0  0  0  0
  147.5758  133.1878  151.4566 H   0  0  0  0  0  0  0  0  0  0  0  0
  146.8874  131.9085  152.4360 H   0  0  0  0  0  0  0  0  0  0  0  0
  146.3395  132.1544  149.7381 H   0  0  0  0  0  0  0  0  0  0  0  0
  145.1836  131.4825  150.8838 H   0  0  0  0  0  0  0  0  0  0  0  0
  145.3045  134.3407  149.8701 H   0  0  0  0  0  0  0  0  0  0  0  0
  143.9019  133.2721  149.8928 H   0  0  0  0  0  0  0  0  0  0  0  0
  143.7941  133.3267  152.2866 H   0  0  0  0  0  0  0  0  0  0  0  0
  144.5054  136.1839  151.4532 H   0  0  0  0  0  0  0  0  0  0  0  0
  143.7132  135.7325  152.9634 H   0  0  0  0  0  0  0  0  0  0  0  0
  142.9125  135.4414  151.4237 H   0  0  0  0  0  0  0  0  0  0  0  0
  150.4247  137.6445  153.4134 H   0  0  0  0  0  0  0  0  0  0  0  0
  1  2  1  0  0  0  0
  1 20  1  0  0  0  0
  1 21  1  0  0  0  0
  1 22  1  0  0  0  0
  2  3  1  0  0  0  0
  2 23  1  0  0  0  0
  2 24  1  0  0  0  0
  3 19  1  0  0  0  0
  3  4  2  0  0  0  0
  4  5  1  0  0  0  0
  5  6  1  0  0  0  0
  5 18  2  0  0  0  0
  6  7  1  0  0  0  0
  6 25  1  0  0  0  0
  6 26  1  0  0  0  0
  7  8  1  0  0  0  0
  7 27  1  0  0  0  0
  7 28  1  0  0  0  0
  8  9  1  0  0  0  0
  8 29  1  0  0  0  0
  9 10  2  0  0  0  0
  9 11  1  0  0  0  0
 11 12  1  0  0  0  0
 11 30  1  0  0  0  0
 12 16  1  0  0  0  0
 12 13  1  0  0  0  0
 12 31  1  0  0  0  0
 13 14  1  0  0  0  0
 13 32  1  0  0  0  0
 13 33  1  0  0  0  0
 14 15  1  0  0  0  0
 14 34  1  0  0  0  0
 14 35  1  0  0  0  0
 15 16  1  0  0  0  0
 15 36  1  0  0  0  0
 15 37  1  0  0  0  0
 16 17  1  0  0  0  0
 16 38  1  0  0  0  0
 17 39  1  0  0  0  0
 17 40  1  0  0  0  0
 17 41  1  0  0  0  0
 18 19  1  0  0  0  0
 18 42  1  0  0  0  0
M  END
> <s_m_source_file>
AV-unprocessed.smi

> <i_m_source_file_index>
933

> <i_lp_mmshare_version>
43012

> <i_f3d_flags>
0

> <s_epik_input>
W0NIM11bQ0gyXWMxbmMoW2NIXXMxKVtDSDJdW0NIMl1bTkhdQyg9TylbTkhdW0NAQEhdMltDSDJdW0NIMl1bQ0gyXVtDQEhdMltDSDNd

> <s_epik_cmdline>
J2VwaWtfcHl0aG9uJywgJy1waCcsICc3LjAnLCAnLXRuJywgJzgnLCAnLW1hJywgJzIwMCcsICctbWV0YWxfYmluZGluZycsICctaW1hZScsICc8aW5maWxlLm1hZT4nLCAnLW9tYWUnLCAnPG91dGZpbGUubWFlPic=

> <r_epik_Ionization_Penalty>
0.00203408

> <r_epik_Ionization_Penalty_Charging>
0

> <r_epik_Ionization_Penalty_Neutral>
0.00203408

> <r_epik_State_Penalty>
0.0013452

> <r_epik_Charging_Adjusted_Penalty>
0.0013452

> <i_epik_Tot_Q>
0

> <i_epik_Tot_abs_Q>
0

> <r_epik_Metal_State_Penalty>
-0

> <b_epik_Metal_Only>
0

> <s_lp_Force_Field>
OPLS_2005

> <r_lp_Energy>
20.7198

> <b_lp_Chiralities_Consistent>
1

> <s_lp_Variant>
AV-unprocessed.smi:933-3

> <Gold.Version>
5.8.1

> <Gold.Id.Protein>
6NUR|6NUR_protein|mol2

> <Gold.PLP.Fitness>
39.6226

> <Gold.PLP.PLP>
-31.8664

> <Gold.PLP.part.hbond>
-2.0000

> <Gold.PLP.part.metal>
0.0000

> <Gold.PLP.part.buried>
-3.7976

> <Gold.PLP.part.nonpolar>
-26.1345

> <Gold.PLP.part.repulsive>
0.1010

> <Gold.PLP.ligand.clash>
0.0000

> <Gold.PLP.ligand.torsion>
0.7000

> <Gold.PLP.Chemscore.Hbond>
1.8960

> <Gold.PLP.Chemscore.CHOScore>
1.1205

> <Gold.PLP.Chemscore.Metal>
0.0000

> <Gold.Chemscore.Hbonds>
donor molecule, donor type, donor heavy atom, donor atom, acceptor molecule, acceptor atom, score
      L1  H     8    29       P1  7948  1.00
      L1  H    11    30       P1  7948  0.90
      L1  C    18    42       P1  7948  0.77
      L1  C    18    42       P1  7949  0.34

> <Gold.PLP.Chemscore.Internal.Correction>
0.1065

> <Gold.Rescore>
     Score         DG    S(hbond)    S(metal)    S(lipo)     H(rot)  DE(clash)    DE(int)     intcor
     16.81     -17.77       1.91        0.00      84.33       1.55       0.03       0.94       ----

> <Gold.Chemscore.Fitness>
16.8082

> <Gold.Chemscore.DG>
-17.7715

> <Gold.Chemscore.ZeroCoef>
-5.4800

> <Gold.Chemscore.Hbond>
1.9127

> <Gold.Chemscore.Metal>
0.0000

> <Gold.Chemscore.Lipo>
84.3291

> <Gold.Chemscore.Internal_Hbond>
0.0000

> <Gold.Chemscore.DEClash>
0.0272

> <Gold.Chemscore.DEInternal>
0.9361

> <Gold.Chemscore.Rot>
1.5482

> <Gold.Chemscore.Internal.Correction>
   9.000000E+99

> <Gold.Chemscore.Hbonds>
donor molecule, donor type, donor heavy atom, donor atom, acceptor molecule, acceptor atom, score
      L1  H     8    29       P1  7948  0.98
      L1  H    11    30       P1  7948  0.87

> <Gold.Chemscore.Hbond.Weighted>
-6.3884

> <Gold.Chemscore.Metal.Weighted>
-0.0000

> <Gold.Chemscore.Lipo.Weighted>
-9.8665

> <Gold.Chemscore.Internal_Hbond.Weighted>
0.0000

> <Gold.Chemscore.DEClash.Weighted>
0.0272

> <Gold.Chemscore.DEInternal.Weighted>
0.9361

> <Gold.Chemscore.Rot.Weighted>
3.9635

> <Gold.Chemscore.Internal.Correction.Weighted>
   9.000000E+99

> <Gold.Protein.RotatedTorsions>
[ 6907 6896 6895 6894 ] final -132.28 input  -60.11 | X-H torsion
[ 7974 7965 7964 7962 ] final  162.98 input  175.53 | X-H torsion
[ 8008 7997 7996 7995 ] final -121.08 input   59.86 | X-H torsion
[ 10167 10162 10161 10158 ] final  111.14 input  -65.29 | X-H torsion
[ 10718 10713 10712 10709 ] final   96.66 input   66.30 | X-H torsion
[ 10763 10752 10751 10750 ] final  105.86 input  -60.55 | X-H torsion
[ 11005 11000 10999 10996 ] final  -75.36 input  -57.11 | X-H torsion

> <Gold.Protein.ActiveResidues>
 VAL166  LYS551  ARG553  GLY616  TRP617  ASP618  TYR619  PRO620  LYS621  CYS622 
 ASP623  PHE694  ASN695  SER759  ASP760  ASP761  ALA762  ILE779  LEU786  VAL792 
 PHE793  MET794  SER795  GLU796  ALA797  LYS798  CYS799  TRP800  GLU811  SER814 

> <Gold.Protein.RotatedAtoms>
  150.9606  133.6449  159.2754 H   0  0  0  0  0  0  0  0  0  0  0  0  # atno 6907 bound_to 6896
  151.3773  135.0932  159.9494 H   0  0  0  0  0  0  0  0  0  0  0  0  # atno 6908 bound_to 6896
  152.5146  133.9148  159.7560 H   0  0  0  0  0  0  0  0  0  0  0  0  # atno 6909 bound_to 6896
  144.7611  139.8117  143.6332 H   0  0  0  0  0  0  0  0  0  0  0  0  # atno 7974 bound_to 7965
  155.1422  140.0402  157.2801 H   0  0  0  0  0  0  0  0  0  0  0  0  # atno 8008 bound_to 7997
  154.6465  140.2559  155.7236 H   0  0  0  0  0  0  0  0  0  0  0  0  # atno 8009 bound_to 7997
  156.2557  140.2845  156.0880 H   0  0  0  0  0  0  0  0  0  0  0  0  # atno 8010 bound_to 7997
  139.6634  144.7128  151.1822 H   0  0  0  0  0  0  0  0  0  0  0  0  # atno 10167 bound_to 10162
  157.6924  131.0585  150.4525 H   0  0  0  0  0  0  0  0  0  0  0  0  # atno 10718 bound_to 10713
  153.3852  135.3896  155.1884 H   0  0  0  0  0  0  0  0  0  0  0  0  # atno 10763 bound_to 10752
  154.8712  135.3735  154.4807 H   0  0  0  0  0  0  0  0  0  0  0  0  # atno 10764 bound_to 10752
  153.5288  135.7086  153.5755 H   0  0  0  0  0  0  0  0  0  0  0  0  # atno 10765 bound_to 10752
  141.1644  133.6944  156.7504 H   0  0  0  0  0  0  0  0  0  0  0  0  # atno 11005 bound_to 11000
  146.1675  139.4812  142.9949 LP  0  0  0  0  0  0  0  0  0  0  0  0  # atno 17320 bound_to 7965
  145.6617  141.0239  143.1705 LP  0  0  0  0  0  0  0  0  0  0  0  0  # atno 17321 bound_to 7965
  140.7589  143.5958  150.8750 LP  0  0  0  0  0  0  0  0  0  0  0  0  # atno 17342 bound_to 10162
  139.9617  143.6156  152.3000 LP  0  0  0  0  0  0  0  0  0  0  0  0  # atno 17343 bound_to 10162
  156.4875  130.4088  149.6426 LP  0  0  0  0  0  0  0  0  0  0  0  0  # atno 17370 bound_to 10713
  156.3448  130.7401  151.2352 LP  0  0  0  0  0  0  0  0  0  0  0  0  # atno 17371 bound_to 10713
  140.2608  134.8468  157.3757 LP  0  0  0  0  0  0  0  0  0  0  0  0  # atno 17394 bound_to 11000
  140.1613  134.4725  155.7893 LP  0  0  0  0  0  0  0  0  0  0  0  0  # atno 17395 bound_to 11000

$$$$
