AV-unprocessed.smi:2697|AV-procd|sdf|10415|dock3
  -GOLD-   2272014453D 1   1.00000     0.00000
 Structure written by MMmdl.
 32 33  0  0  0  0  0  0  0  0  2 V2000
  154.8192  140.5547  161.3356 C   0  0  0  0  0  0  0  0  0  0  0  0
  153.6565  141.3301  160.9602 N   0  0  0  0  0  0  0  0  0  0  0  0
  153.2431  142.5487  161.4551 C   0  0  0  0  0  0  0  0  0  0  0  0
  152.1013  142.8550  160.7739 C   0  0  0  0  0  0  0  0  0  0  0  0
  151.3028  144.1168  160.9126 C   0  0  0  0  0  0  0  0  0  0  0  0
  151.9593  145.1615  161.4240 N   0  0  0  0  0  0  0  0  0  0  0  0
  150.1133  144.1647  160.6073 O   0  0  0  0  0  0  0  0  0  0  0  0
  151.8734  141.7772  159.8675 C   0  0  0  0  0  0  0  0  0  0  0  0
  150.7742  141.5680  158.8504 C   0  0  2  0  0  0  0  0  0  0  0  0
  151.1214  140.4595  157.8371 C   0  0  0  0  0  0  0  0  0  0  0  0
  149.9811  140.2875  156.8213 C   0  0  0  0  0  0  0  0  0  0  0  0
  149.6394  141.6261  156.1449 C   0  0  0  0  0  0  0  0  0  0  0  0
  149.3148  142.6571  157.1551 N   0  3  0  0  0  0  0  0  0  0  0  0
  150.4073  142.8795  158.1276 C   0  0  0  0  0  0  0  0  0  0  0  0
  152.8307  140.8638  159.9936 N   0  0  0  0  0  0  0  0  0  0  0  0
  155.2785  140.9775  162.2295 H   0  0  0  0  0  0  0  0  0  0  0  0
  155.5465  140.5673  160.5234 H   0  0  0  0  0  0  0  0  0  0  0  0
  154.5288  139.5238  161.5413 H   0  0  0  0  0  0  0  0  0  0  0  0
  153.7887  143.0808  162.2208 H   0  0  0  0  0  0  0  0  0  0  0  0
  151.4867  146.0452  161.5454 H   0  0  0  0  0  0  0  0  0  0  0  0
  152.9296  145.0638  161.6865 H   0  0  0  0  0  0  0  0  0  0  0  0
  149.8780  141.2307  159.3690 H   0  0  0  0  0  0  0  0  0  0  0  0
  152.0416  140.7079  157.3065 H   0  0  0  0  0  0  0  0  0  0  0  0
  151.3039  139.5175  158.3552 H   0  0  0  0  0  0  0  0  0  0  0  0
  150.2604  139.5494  156.0688 H   0  0  0  0  0  0  0  0  0  0  0  0
  149.0970  139.8952  157.3259 H   0  0  0  0  0  0  0  0  0  0  0  0
  150.4773  141.9703  155.5373 H   0  0  0  0  0  0  0  0  0  0  0  0
  148.7879  141.5047  155.4752 H   0  0  0  0  0  0  0  0  0  0  0  0
  149.1133  143.5277  156.6842 H   0  0  0  0  0  0  0  0  0  0  0  0
  150.0880  143.6329  158.8481 H   0  0  0  0  0  0  0  0  0  0  0  0
  151.2724  143.2863  157.6019 H   0  0  0  0  0  0  0  0  0  0  0  0
  148.4918  142.3622  157.6613 H   0  0  0  0  0  0  0  0  0  0  0  0
  1  2  1  0  0  0  0
  1 16  1  0  0  0  0
  1 17  1  0  0  0  0
  1 18  1  0  0  0  0
  2 15  1  0  0  0  0
  2  3  1  0  0  0  0
  3  4  2  0  0  0  0
  3 19  1  0  0  0  0
  4  5  1  0  0  0  0
  4  8  1  0  0  0  0
  5  6  1  0  0  0  0
  5  7  2  0  0  0  0
  6 20  1  0  0  0  0
  6 21  1  0  0  0  0
  8  9  1  0  0  0  0
  8 15  2  0  0  0  0
  9 14  1  0  0  0  0
  9 10  1  0  0  0  0
  9 22  1  0  0  0  0
 10 11  1  0  0  0  0
 10 23  1  0  0  0  0
 10 24  1  0  0  0  0
 11 12  1  0  0  0  0
 11 25  1  0  0  0  0
 11 26  1  0  0  0  0
 12 13  1  0  0  0  0
 12 27  1  0  0  0  0
 12 28  1  0  0  0  0
 13 14  1  0  0  0  0
 13 29  1  0  0  0  0
 13 32  1  0  0  0  0
 14 30  1  0  0  0  0
 14 31  1  0  0  0  0
M  CHG  1  13   1
M  END
> <s_m_source_file>
AV-unprocessed.smi

> <i_m_source_file_index>
2697

> <i_lp_mmshare_version>
43012

> <i_f3d_flags>
0

> <s_epik_input>
W0NIM11uMVtjSF1jKEMoPU8pW05IMl0pYyhuMSlbQ0BASF0yW0NIMl1bQ0gyXVtDSDJdW05IXVtDSDJdMg==

> <s_epik_cmdline>
J2VwaWtfcHl0aG9uJywgJy1waCcsICc3LjAnLCAnLXRuJywgJzgnLCAnLW1hJywgJzIwMCcsICctbWV0YWxfYmluZGluZycsICctaW1hZScsICc8aW5maWxlLm1hZT4nLCAnLW9tYWUnLCAnPG91dGZpbGUubWFlPic=

> <r_lp_tautomer_probability>
1

> <r_epik_Ionization_Penalty>
0.000158942

> <r_epik_Ionization_Penalty_Charging>
0.000157527

> <r_epik_Ionization_Penalty_Neutral>
1.41498e-06

> <r_epik_State_Penalty>
-0

> <r_epik_Charging_Adjusted_Penalty>
0.000157527

> <i_epik_Tot_Q>
1

> <i_epik_Tot_abs_Q>
1

> <r_epik_Metal_State_Penalty>
-0

> <b_epik_Metal_Only>
0

> <s_lp_Force_Field>
OPLS_2005

> <r_lp_Energy>
9.94433

> <b_lp_Chiralities_Consistent>
1

> <s_lp_Variant>
AV-unprocessed.smi:2697-1

> <Gold.Version>
5.8.1

> <Gold.Id.Protein>
6NUR|6NUR_protein|mol2

> <Gold.PLP.Fitness>
37.3736

> <Gold.PLP.PLP>
-32.7755

> <Gold.PLP.part.hbond>
-2.5988

> <Gold.PLP.part.metal>
0.0000

> <Gold.PLP.part.buried>
-3.8619

> <Gold.PLP.part.nonpolar>
-25.6659

> <Gold.PLP.part.repulsive>
0.2900

> <Gold.PLP.ligand.clash>
0.0000

> <Gold.PLP.ligand.torsion>
0.7180

> <Gold.PLP.Chemscore.Hbond>
2.0000

> <Gold.PLP.Chemscore.CHOScore>
0.0000

> <Gold.PLP.Chemscore.Metal>
0.0000

> <Gold.Chemscore.Hbonds>
donor molecule, donor type, donor heavy atom, donor atom, acceptor molecule, acceptor atom, score
      L1  H    13    29       P1  8028  2.00

> <Gold.PLP.Chemscore.Internal.Correction>
0.0341

> <Gold.Rescore>
     Score         DG    S(hbond)    S(metal)    S(lipo)     H(rot)  DE(clash)    DE(int)     intcor
     13.25     -14.50       0.96        0.00      71.57       1.00       0.04       1.21       ----

> <Gold.Chemscore.Fitness>
13.2509

> <Gold.Chemscore.DG>
-14.4984

> <Gold.Chemscore.ZeroCoef>
-5.4800

> <Gold.Chemscore.Hbond>
0.9595

> <Gold.Chemscore.Metal>
0.0000

> <Gold.Chemscore.Lipo>
71.5685

> <Gold.Chemscore.Internal_Hbond>
0.0000

> <Gold.Chemscore.DEClash>
0.0402

> <Gold.Chemscore.DEInternal>
1.2073

> <Gold.Chemscore.Rot>
1.0000

> <Gold.Chemscore.Internal.Correction>
   9.000000E+99

> <Gold.Chemscore.Hbonds>
donor molecule, donor type, donor heavy atom, donor atom, acceptor molecule, acceptor atom, score
      L1  H    13    29       P1  8028  0.91

> <Gold.Chemscore.Hbond.Weighted>
-3.2049

> <Gold.Chemscore.Metal.Weighted>
-0.0000

> <Gold.Chemscore.Lipo.Weighted>
-8.3735

> <Gold.Chemscore.Internal_Hbond.Weighted>
0.0000

> <Gold.Chemscore.DEClash.Weighted>
0.0402

> <Gold.Chemscore.DEInternal.Weighted>
1.2073

> <Gold.Chemscore.Rot.Weighted>
2.5600

> <Gold.Chemscore.Internal.Correction.Weighted>
   9.000000E+99

> <Gold.Protein.RotatedTorsions>
[ 6907 6896 6895 6894 ] final  -89.02 input  -60.11 | X-H torsion
[ 7974 7965 7964 7962 ] final -155.21 input  175.53 | X-H torsion
[ 8008 7997 7996 7995 ] final  -25.78 input   59.86 | X-H torsion
[ 10167 10162 10161 10158 ] final  -78.95 input  -65.29 | X-H torsion
[ 10718 10713 10712 10709 ] final -118.42 input   66.30 | X-H torsion
[ 10763 10752 10751 10750 ] final   46.65 input  -60.55 | X-H torsion
[ 11005 11000 10999 10996 ] final   98.04 input  -57.11 | X-H torsion

> <Gold.Protein.ActiveResidues>
 VAL166  LYS551  ARG553  GLY616  TRP617  ASP618  TYR619  PRO620  LYS621  CYS622 
 ASP623  PHE694  ASN695  SER759  ASP760  ASP761  ALA762  ILE779  LEU786  VAL792 
 PHE793  MET794  SER795  GLU796  ALA797  LYS798  CYS799  TRP800  GLU811  SER814 

> <Gold.Protein.RotatedAtoms>
  150.6871  134.2652  159.4565 H   0  0  0  0  0  0  0  0  0  0  0  0  # atno 6907 bound_to 6896
  152.0579  134.9610  160.0584 H   0  0  0  0  0  0  0  0  0  0  0  0  # atno 6908 bound_to 6896
  152.1049  133.4234  159.4641 H   0  0  0  0  0  0  0  0  0  0  0  0  # atno 6909 bound_to 6896
  144.7651  140.4281  143.5948 H   0  0  0  0  0  0  0  0  0  0  0  0  # atno 7974 bound_to 7965
  154.4458  140.1917  156.0673 H   0  0  0  0  0  0  0  0  0  0  0  0  # atno 8008 bound_to 7997
  156.0538  140.3305  155.7354 H   0  0  0  0  0  0  0  0  0  0  0  0  # atno 8009 bound_to 7997
  155.5517  140.0595  157.2839 H   0  0  0  0  0  0  0  0  0  0  0  0  # atno 8010 bound_to 7997
  140.4637  143.2446  151.8310 H   0  0  0  0  0  0  0  0  0  0  0  0  # atno 10167 bound_to 10162
  156.1105  130.6245  150.9288 H   0  0  0  0  0  0  0  0  0  0  0  0  # atno 10718 bound_to 10713
  152.9808  135.6001  154.3634 H   0  0  0  0  0  0  0  0  0  0  0  0  # atno 10763 bound_to 10752
  154.3314  135.2768  155.2472 H   0  0  0  0  0  0  0  0  0  0  0  0  # atno 10764 bound_to 10752
  154.4594  135.5970  153.6301 H   0  0  0  0  0  0  0  0  0  0  0  0  # atno 10765 bound_to 10752
  139.8773  134.9030  156.4396 H   0  0  0  0  0  0  0  0  0  0  0  0  # atno 11005 bound_to 11000
  145.6496  139.1563  143.2870 LP  0  0  0  0  0  0  0  0  0  0  0  0  # atno 17320 bound_to 7965
  146.1751  140.6586  142.9215 LP  0  0  0  0  0  0  0  0  0  0  0  0  # atno 17321 bound_to 7965
  139.4809  144.4977  151.9102 LP  0  0  0  0  0  0  0  0  0  0  0  0  # atno 17342 bound_to 10162
  140.4062  144.2428  150.5890 LP  0  0  0  0  0  0  0  0  0  0  0  0  # atno 17343 bound_to 10162
  157.6286  131.0923  150.8486 LP  0  0  0  0  0  0  0  0  0  0  0  0  # atno 17370 bound_to 10713
  156.8598  130.5109  149.5304 LP  0  0  0  0  0  0  0  0  0  0  0  0  # atno 17371 bound_to 10713
  140.9009  133.7780  155.9678 LP  0  0  0  0  0  0  0  0  0  0  0  0  # atno 17394 bound_to 11000
  140.8652  134.2792  157.5216 LP  0  0  0  0  0  0  0  0  0  0  0  0  # atno 17395 bound_to 11000

$$$$
