AV-unprocessed.smi:3327|AV-procd|sdf|12790|dock1
  -GOLD-   2272019143D 1   1.00000     0.00000
 Structure written by MMmdl.
 40 41  0  0  0  0  0  0  0  0  1 V2000
  146.6007  141.6181  157.7547 C   0  0  0  0  0  0  0  0  0  0  0  0
  147.4935  141.0512  156.6422 C   0  0  1  0  0  0  0  0  0  0  0  0
  146.8470  141.2279  155.2506 C   0  0  0  0  0  0  0  0  0  0  0  0
  147.7849  140.7717  154.1168 C   0  0  0  0  0  0  0  0  0  0  0  0
  149.1728  141.4194  154.2617 C   0  0  0  0  0  0  0  0  0  0  0  0
  149.7094  141.0887  155.5887 N   0  0  0  0  0  0  0  0  0  0  0  0
  150.7458  140.2493  155.8328 C   0  0  0  0  0  0  0  0  0  0  0  0
  151.3716  139.6990  154.9242 O   0  0  0  0  0  0  0  0  0  0  0  0
  151.1540  139.9778  157.2914 C   0  0  0  0  0  0  0  0  0  0  0  0
  152.2868  140.7975  157.7412 N   0  0  0  0  0  0  0  0  0  0  0  0
  152.3373  140.8472  159.1943 C   0  0  0  0  0  0  0  0  0  0  0  0
  153.1275  142.0864  159.6395 C   0  0  0  0  0  0  0  0  0  0  0  0
  152.4061  143.3114  159.3530 N   0  0  0  0  0  0  0  0  0  0  0  0
  152.1535  144.3740  160.1950 C   0  0  0  0  0  0  0  0  0  0  0  0
  151.4369  145.2939  159.4845 C   0  0  0  0  0  0  0  0  0  0  0  0
  151.2993  144.6960  158.2005 C   0  0  0  0  0  0  0  0  0  0  0  0
  151.8798  143.5092  158.1251 N   0  0  0  0  0  0  0  0  0  0  0  0
  148.9011  141.6853  156.6607 C   0  0  0  0  0  0  0  0  0  0  0  0
  146.4517  142.6918  157.6361 H   0  0  0  0  0  0  0  0  0  0  0  0
  147.0435  141.4499  158.7369 H   0  0  0  0  0  0  0  0  0  0  0  0
  145.6194  141.1432  157.7503 H   0  0  0  0  0  0  0  0  0  0  0  0
  147.6067  139.9816  156.8260 H   0  0  0  0  0  0  0  0  0  0  0  0
  145.9061  140.6795  155.1974 H   0  0  0  0  0  0  0  0  0  0  0  0
  146.5989  142.2793  155.0999 H   0  0  0  0  0  0  0  0  0  0  0  0
  147.8849  139.6855  154.1374 H   0  0  0  0  0  0  0  0  0  0  0  0
  147.3514  141.0253  153.1493 H   0  0  0  0  0  0  0  0  0  0  0  0
  149.8138  141.1126  153.4370 H   0  0  0  0  0  0  0  0  0  0  0  0
  149.0880  142.5032  154.1711 H   0  0  0  0  0  0  0  0  0  0  0  0
  150.2961  140.1755  157.9364 H   0  0  0  0  0  0  0  0  0  0  0  0
  151.4145  138.9231  157.3912 H   0  0  0  0  0  0  0  0  0  0  0  0
  153.1620  140.4390  157.3864 H   0  0  0  0  0  0  0  0  0  0  0  0
  151.3243  140.8817  159.5983 H   0  0  0  0  0  0  0  0  0  0  0  0
  152.8144  139.9444  159.5790 H   0  0  0  0  0  0  0  0  0  0  0  0
  153.3264  142.0466  160.7115 H   0  0  0  0  0  0  0  0  0  0  0  0
  154.0963  142.1268  159.1388 H   0  0  0  0  0  0  0  0  0  0  0  0
  152.4994  144.3866  161.2182 H   0  0  0  0  0  0  0  0  0  0  0  0
  151.0675  146.2484  159.8293 H   0  0  0  0  0  0  0  0  0  0  0  0
  150.7980  145.0863  157.3270 H   0  0  0  0  0  0  0  0  0  0  0  0
  148.8337  142.7629  156.5040 H   0  0  0  0  0  0  0  0  0  0  0  0
  149.3530  141.5596  157.6457 H   0  0  0  0  0  0  0  0  0  0  0  0
  1  2  1  0  0  0  0
  1 19  1  0  0  0  0
  1 20  1  0  0  0  0
  1 21  1  0  0  0  0
  2 18  1  0  0  0  0
  2  3  1  0  0  0  0
  2 22  1  0  0  0  0
  3  4  1  0  0  0  0
  3 23  1  0  0  0  0
  3 24  1  0  0  0  0
  4  5  1  0  0  0  0
  4 25  1  0  0  0  0
  4 26  1  0  0  0  0
  5  6  1  0  0  0  0
  5 27  1  0  0  0  0
  5 28  1  0  0  0  0
  6  7  1  0  0  0  0
  6 18  1  0  0  0  0
  7  8  2  0  0  0  0
  7  9  1  0  0  0  0
  9 10  1  0  0  0  0
  9 29  1  0  0  0  0
  9 30  1  0  0  0  0
 10 11  1  0  0  0  0
 10 31  1  0  0  0  0
 11 12  1  0  0  0  0
 11 32  1  0  0  0  0
 11 33  1  0  0  0  0
 12 13  1  0  0  0  0
 12 34  1  0  0  0  0
 12 35  1  0  0  0  0
 13 17  1  0  0  0  0
 13 14  1  0  0  0  0
 14 15  2  0  0  0  0
 14 36  1  0  0  0  0
 15 16  1  0  0  0  0
 15 37  1  0  0  0  0
 16 17  2  0  0  0  0
 16 38  1  0  0  0  0
 18 39  1  0  0  0  0
 18 40  1  0  0  0  0
M  END
> <s_m_source_file>
AV-unprocessed.smi

> <i_m_source_file_index>
3327

> <i_lp_mmshare_version>
43012

> <i_f3d_flags>
0

> <s_epik_input>
W0NIM11bQ0BASF0xW0NIMl1bQ0gyXVtDSDJdTihbQ0gyXTEpQyg9TylbQ0gyXVtOSF1bQ0gyXVtDSDJdbjJbY0hdW2NIXVtjSF1uMg==

> <s_epik_cmdline>
J2VwaWtfcHl0aG9uJywgJy1waCcsICc3LjAnLCAnLXRuJywgJzgnLCAnLW1hJywgJzIwMCcsICctbWV0YWxfYmluZGluZycsICctaW1hZScsICc8aW5maWxlLm1hZT4nLCAnLW9tYWUnLCAnPG91dGZpbGUubWFlPic=

> <r_lp_tautomer_probability>
1

> <r_epik_Ionization_Penalty>
0.752964

> <r_epik_Ionization_Penalty_Charging>
0

> <r_epik_Ionization_Penalty_Neutral>
0.752964

> <r_epik_State_Penalty>
0.778238

> <r_epik_Charging_Adjusted_Penalty>
0.778238

> <i_epik_Tot_Q>
0

> <i_epik_Tot_abs_Q>
0

> <r_epik_Metal_State_Penalty>
0.776974

> <b_epik_Metal_Only>
0

> <s_lp_Force_Field>
OPLS_2005

> <r_lp_Energy>
25.5335

> <b_lp_Chiralities_Consistent>
1

> <s_lp_Variant>
AV-unprocessed.smi:3327-4

> <Gold.Version>
5.8.1

> <Gold.Id.Protein>
6NUR|6NUR_protein|mol2

> <Gold.PLP.Fitness>
43.5109

> <Gold.PLP.PLP>
-38.7615

> <Gold.PLP.part.hbond>
-1.2481

> <Gold.PLP.part.metal>
0.0000

> <Gold.PLP.part.buried>
-3.3853

> <Gold.PLP.part.nonpolar>
-33.5839

> <Gold.PLP.part.repulsive>
0.1023

> <Gold.PLP.ligand.clash>
0.0000

> <Gold.PLP.ligand.torsion>
0.6503

> <Gold.PLP.Chemscore.Hbond>
1.0000

> <Gold.PLP.Chemscore.CHOScore>
0.9914

> <Gold.PLP.Chemscore.Metal>
0.0000

> <Gold.Chemscore.Hbonds>
donor molecule, donor type, donor heavy atom, donor atom, acceptor molecule, acceptor atom, score
      P1  H  7989  7998       L1     8  1.00
      L1  C    16    38       P1  8028  1.00

> <Gold.PLP.Chemscore.Internal.Correction>
0.0757

> <Gold.Rescore>
     Score         DG    S(hbond)    S(metal)    S(lipo)     H(rot)  DE(clash)    DE(int)     intcor
     12.30     -14.17       0.97        0.00      84.48       1.73       0.01       1.86       ----

> <Gold.Chemscore.Fitness>
12.2966

> <Gold.Chemscore.DG>
-14.1711

> <Gold.Chemscore.ZeroCoef>
-5.4800

> <Gold.Chemscore.Hbond>
0.9686

> <Gold.Chemscore.Metal>
0.0000

> <Gold.Chemscore.Lipo>
84.4764

> <Gold.Chemscore.Internal_Hbond>
0.0000

> <Gold.Chemscore.DEClash>
0.0124

> <Gold.Chemscore.DEInternal>
1.8621

> <Gold.Chemscore.Rot>
1.7296

> <Gold.Chemscore.Internal.Correction>
   9.000000E+99

> <Gold.Chemscore.Hbonds>
donor molecule, donor type, donor heavy atom, donor atom, acceptor molecule, acceptor atom, score
      P1  H  7989  7998       L1     8  0.78

> <Gold.Chemscore.Hbond.Weighted>
-3.2352

> <Gold.Chemscore.Metal.Weighted>
-0.0000

> <Gold.Chemscore.Lipo.Weighted>
-9.8837

> <Gold.Chemscore.Internal_Hbond.Weighted>
0.0000

> <Gold.Chemscore.DEClash.Weighted>
0.0124

> <Gold.Chemscore.DEInternal.Weighted>
1.8621

> <Gold.Chemscore.Rot.Weighted>
4.4278

> <Gold.Chemscore.Internal.Correction.Weighted>
   9.000000E+99

> <Gold.Protein.RotatedTorsions>
[ 6907 6896 6895 6894 ] final -118.95 input  -60.11 | X-H torsion
[ 7974 7965 7964 7962 ] final   90.66 input  175.53 | X-H torsion
[ 8008 7997 7996 7995 ] final  -94.53 input   59.86 | X-H torsion
[ 10167 10162 10161 10158 ] final   28.55 input  -65.29 | X-H torsion
[ 10718 10713 10712 10709 ] final -148.72 input   66.30 | X-H torsion
[ 10763 10752 10751 10750 ] final  167.12 input  -60.55 | X-H torsion
[ 11005 11000 10999 10996 ] final  -47.88 input  -57.11 | X-H torsion

> <Gold.Protein.ActiveResidues>
 VAL166  LYS551  ARG553  GLY616  TRP617  ASP618  TYR619  PRO620  LYS621  CYS622 
 ASP623  PHE694  ASN695  SER759  ASP760  ASP761  ALA762  ILE779  LEU786  VAL792 
 PHE793  MET794  SER795  GLU796  ALA797  LYS798  CYS799  TRP800  GLU811  SER814 

> <Gold.Protein.RotatedAtoms>
  150.8263  133.8166  159.3117 H   0  0  0  0  0  0  0  0  0  0  0  0  # atno 6907 bound_to 6896
  151.5909  135.1052  160.0048 H   0  0  0  0  0  0  0  0  0  0  0  0  # atno 6908 bound_to 6896
  152.4348  133.7300  159.6638 H   0  0  0  0  0  0  0  0  0  0  0  0  # atno 6909 bound_to 6896
  145.5160  139.2278  143.2698 H   0  0  0  0  0  0  0  0  0  0  0  0  # atno 7974 bound_to 7965
  154.7496  140.0488  157.0882 H   0  0  0  0  0  0  0  0  0  0  0  0  # atno 8008 bound_to 7997
  155.0074  140.3132  155.4824 H   0  0  0  0  0  0  0  0  0  0  0  0  # atno 8009 bound_to 7997
  156.2882  140.2190  156.5187 H   0  0  0  0  0  0  0  0  0  0  0  0  # atno 8010 bound_to 7997
  140.4842  144.0568  150.6275 H   0  0  0  0  0  0  0  0  0  0  0  0  # atno 10167 bound_to 10162
  156.4239  130.8042  151.2266 H   0  0  0  0  0  0  0  0  0  0  0  0  # atno 10718 bound_to 10713
  154.3492  135.2753  155.2381 H   0  0  0  0  0  0  0  0  0  0  0  0  # atno 10763 bound_to 10752
  154.4618  135.5905  153.6264 H   0  0  0  0  0  0  0  0  0  0  0  0  # atno 10764 bound_to 10752
  152.9851  135.6067  154.3701 H   0  0  0  0  0  0  0  0  0  0  0  0  # atno 10765 bound_to 10752
  141.0667  133.6691  156.3361 H   0  0  0  0  0  0  0  0  0  0  0  0  # atno 11005 bound_to 11000
  146.2136  140.5969  142.9048 LP  0  0  0  0  0  0  0  0  0  0  0  0  # atno 17320 bound_to 7965
  144.7702  140.5620  143.6676 LP  0  0  0  0  0  0  0  0  0  0  0  0  # atno 17321 bound_to 7965
  140.3819  143.2798  152.0161 LP  0  0  0  0  0  0  0  0  0  0  0  0  # atno 17342 bound_to 10162
  139.4839  144.6148  151.7366 LP  0  0  0  0  0  0  0  0  0  0  0  0  # atno 17343 bound_to 10162
  157.7508  131.0219  150.3772 LP  0  0  0  0  0  0  0  0  0  0  0  0  # atno 17370 bound_to 10713
  156.4095  130.3931  149.6902 LP  0  0  0  0  0  0  0  0  0  0  0  0  # atno 17371 bound_to 10713
  140.5758  134.5795  157.5468 LP  0  0  0  0  0  0  0  0  0  0  0  0  # atno 17394 bound_to 11000
  139.9483  134.7662  156.0508 LP  0  0  0  0  0  0  0  0  0  0  0  0  # atno 17395 bound_to 11000

$$$$
