AV-unprocessed.smi:193|AV-procd|sdf|1510|dock10
  -GOLD-   2262019343D 1   1.00000     0.00000
 Structure written by MMmdl.
 62 66  0  0  0  0  0  0  0  0  2 V2000
  144.2928  136.3478  155.0279 C   0  0  0  0  0  0  0  0  0  0  0  0
  145.2062  136.8299  153.8898 C   0  0  2  0  0  0  0  0  0  0  0  0
  146.0010  138.0634  154.3672 C   0  0  0  0  0  0  0  0  0  0  0  0
  147.0798  138.4616  153.4673 N   0  0  0  0  0  0  0  0  0  0  0  0
  147.8673  139.4121  154.0132 C   0  0  0  0  0  0  0  0  0  0  0  0
  147.4164  140.6897  153.9874 N   0  0  0  0  0  0  0  0  0  0  0  0
  148.1604  141.6680  154.5138 C   0  0  0  0  0  0  0  0  0  0  0  0
  149.3571  141.5846  155.1005 N   0  0  0  0  0  0  0  0  0  0  0  0
  149.8109  140.2982  155.1246 C   0  0  0  0  0  0  0  0  0  0  0  0
  149.1346  139.1588  154.6070 C   0  0  0  0  0  0  0  0  0  0  0  0
  149.9007  138.0169  154.8075 N   0  0  0  0  0  0  0  0  0  0  0  0
  150.9711  138.4574  155.4112 C   0  0  0  0  0  0  0  0  0  0  0  0
  150.9966  139.8135  155.6484 N   0  0  0  0  0  0  0  0  0  0  0  0
  152.0569  140.5623  156.3054 C   0  0  0  0  0  0  0  0  0  0  0  0
  151.5892  141.3356  157.5628 C   0  0  0  0  0  0  0  0  0  0  0  0
  150.5175  140.6088  158.1397 O   0  0  0  0  0  0  0  0  0  0  0  0
  152.7294  141.4236  158.5968 C   0  0  0  0  0  0  0  0  0  0  0  0
  152.3614  142.3234  159.7900 C   0  0  0  0  0  0  0  0  0  0  0  0
  151.9819  143.6142  159.3283 O   0  0  0  0  0  0  0  0  0  0  0  0
  150.8222  143.5861  158.5051 C   0  0  0  0  0  0  0  0  0  0  0  0
  151.0933  142.7611  157.2346 C   0  0  0  0  0  0  0  0  0  0  0  0
  146.7673  138.7173  152.0645 C   0  0  0  0  0  0  0  0  0  0  0  0
  146.4945  137.4089  151.3073 C   0  0  0  0  0  0  0  0  0  0  0  0
  145.0740  136.9750  151.3383 N   0  3  1  0  0  0  0  0  0  0  0  0
  144.9138  135.6056  150.7982 C   0  0  1  0  0  0  0  0  0  0  0  0
  146.0649  134.6859  151.1341 C   0  0  0  0  0  0  0  0  0  0  0  0
  144.7438  134.5391  151.8582 C   0  0  2  0  0  0  0  0  0  0  0  0
  143.8663  133.3336  151.6027 C   0  0  0  0  0  0  0  0  0  0  0  0
  144.3623  137.1519  152.6339 C   0  0  0  0  0  0  0  0  0  0  0  0
  143.5623  137.1103  155.3012 H   0  0  0  0  0  0  0  0  0  0  0  0
  144.8695  136.1047  155.9207 H   0  0  0  0  0  0  0  0  0  0  0  0
  143.7455  135.4491  154.7414 H   0  0  0  0  0  0  0  0  0  0  0  0
  145.8950  136.0116  153.6760 H   0  0  0  0  0  0  0  0  0  0  0  0
  145.3234  138.9041  154.5236 H   0  0  0  0  0  0  0  0  0  0  0  0
  146.4424  137.8421  155.3407 H   0  0  0  0  0  0  0  0  0  0  0  0
  147.7369  142.6602  154.4567 H   0  0  0  0  0  0  0  0  0  0  0  0
  151.7756  137.8005  155.7093 H   0  0  0  0  0  0  0  0  0  0  0  0
  152.8567  139.8663  156.5628 H   0  0  0  0  0  0  0  0  0  0  0  0
  152.4822  141.2551  155.5783 H   0  0  0  0  0  0  0  0  0  0  0  0
  150.3899  139.8163  157.6409 H   0  0  0  0  0  0  0  0  0  0  0  0
  153.0059  140.4287  158.9487 H   0  0  0  0  0  0  0  0  0  0  0  0
  153.6190  141.8352  158.1181 H   0  0  0  0  0  0  0  0  0  0  0  0
  151.5566  141.8845  160.3817 H   0  0  0  0  0  0  0  0  0  0  0  0
  153.2187  142.4280  160.4550 H   0  0  0  0  0  0  0  0  0  0  0  0
  149.9764  143.1813  159.0630 H   0  0  0  0  0  0  0  0  0  0  0  0
  150.5599  144.6091  158.2348 H   0  0  0  0  0  0  0  0  0  0  0  0
  151.8509  143.2763  156.6426 H   0  0  0  0  0  0  0  0  0  0  0  0
  150.1932  142.7303  156.6197 H   0  0  0  0  0  0  0  0  0  0  0  0
  145.9334  139.4138  151.9690 H   0  0  0  0  0  0  0  0  0  0  0  0
  147.6276  139.2042  151.6012 H   0  0  0  0  0  0  0  0  0  0  0  0
  146.7622  137.5506  150.2598 H   0  0  0  0  0  0  0  0  0  0  0  0
  147.1485  136.6168  151.6768 H   0  0  0  0  0  0  0  0  0  0  0  0
  144.4072  135.5228  149.8379 H   0  0  0  0  0  0  0  0  0  0  0  0
  146.3261  133.9240  150.4023 H   0  0  0  0  0  0  0  0  0  0  0  0
  146.9024  135.0924  151.6983 H   0  0  0  0  0  0  0  0  0  0  0  0
  144.7340  134.8712  152.8951 H   0  0  0  0  0  0  0  0  0  0  0  0
  143.9070  133.0408  150.5529 H   0  0  0  0  0  0  0  0  0  0  0  0
  142.8320  133.5636  151.8596 H   0  0  0  0  0  0  0  0  0  0  0  0
  144.1982  132.4922  152.2112 H   0  0  0  0  0  0  0  0  0  0  0  0
  143.4612  136.5370  152.6164 H   0  0  0  0  0  0  0  0  0  0  0  0
  143.9960  138.1777  152.6903 H   0  0  0  0  0  0  0  0  0  0  0  0
  144.5878  137.5786  150.6906 H   0  0  0  0  0  0  0  0  0  0  0  0
  1  2  1  0  0  0  0
  1 30  1  0  0  0  0
  1 31  1  0  0  0  0
  1 32  1  0  0  0  0
  2 29  1  0  0  0  0
  2  3  1  0  0  0  0
  2 33  1  0  0  0  0
  3  4  1  0  0  0  0
  3 34  1  0  0  0  0
  3 35  1  0  0  0  0
  4  5  1  0  0  0  0
  4 22  1  0  0  0  0
  5 10  1  0  0  0  0
  5  6  2  0  0  0  0
  6  7  1  0  0  0  0
  7  8  2  0  0  0  0
  7 36  1  0  0  0  0
  8  9  1  0  0  0  0
  9 13  1  0  0  0  0
  9 10  2  0  0  0  0
 10 11  1  0  0  0  0
 11 12  2  0  0  0  0
 12 13  1  0  0  0  0
 12 37  1  0  0  0  0
 13 14  1  0  0  0  0
 14 15  1  0  0  0  0
 14 38  1  0  0  0  0
 14 39  1  0  0  0  0
 15 21  1  0  0  0  0
 15 16  1  0  0  0  0
 15 17  1  0  0  0  0
 16 40  1  0  0  0  0
 17 18  1  0  0  0  0
 17 41  1  0  0  0  0
 17 42  1  0  0  0  0
 18 19  1  0  0  0  0
 18 43  1  0  0  0  0
 18 44  1  0  0  0  0
 19 20  1  0  0  0  0
 20 21  1  0  0  0  0
 20 45  1  0  0  0  0
 20 46  1  0  0  0  0
 21 47  1  0  0  0  0
 21 48  1  0  0  0  0
 22 23  1  0  0  0  0
 22 49  1  0  0  0  0
 22 50  1  0  0  0  0
 23 24  1  0  0  0  0
 23 51  1  0  0  0  0
 23 52  1  0  0  0  0
 24 25  1  0  0  0  0
 24 29  1  0  0  0  0
 24 62  1  0  0  0  0
 25 27  1  0  0  0  0
 25 26  1  0  0  0  0
 25 53  1  0  0  0  0
 26 27  1  0  0  0  0
 26 54  1  0  0  0  0
 26 55  1  0  0  0  0
 27 28  1  0  0  0  0
 27 56  1  0  0  0  0
 28 57  1  0  0  0  0
 28 58  1  0  0  0  0
 28 59  1  0  0  0  0
 29 60  1  0  0  0  0
 29 61  1  0  0  0  0
M  CHG  1  24   1
M  END
> <s_m_source_file>
AV-unprocessed.smi

> <i_m_source_file_index>
193

> <i_lp_mmshare_version>
43012

> <i_f3d_flags>
0

> <s_epik_input>
W0NIM11bQ0BASF0xW0NIMl1bQ0BIXTFOKFtDSDJdMilbQ0gyXVtDSDJdTihbQ0gyXVtDQEhdMltDSDNdKWMobltjSF1uMyljKGMzNCluW2NIXW40W0NIMl1DNShbT0hdKVtDSDJdW0NIMl1PW0NIMl1bQ0gyXTU=

> <s_epik_cmdline>
J2VwaWtfcHl0aG9uJywgJy1waCcsICc3LjAnLCAnLXRuJywgJzgnLCAnLW1hJywgJzIwMCcsICctbWV0YWxfYmluZGluZycsICctaW1hZScsICc8aW5maWxlLm1hZT4nLCAnLW9tYWUnLCAnPG91dGZpbGUubWFlPic=

> <r_lp_tautomer_probability>
1

> <r_epik_Ionization_Penalty>
0.0540825

> <r_epik_Ionization_Penalty_Charging>
0.0538476

> <r_epik_Ionization_Penalty_Neutral>
0.000234891

> <r_epik_State_Penalty>
0.0200719

> <r_epik_Charging_Adjusted_Penalty>
0.0739194

> <i_epik_Tot_Q>
1

> <i_epik_Tot_abs_Q>
1

> <r_epik_Metal_State_Penalty>
0.0199414

> <b_epik_Metal_Only>
0

> <s_lp_Force_Field>
OPLS_2005

> <r_lp_Energy>
55.8923

> <b_lp_Chiralities_Consistent>
1

> <s_lp_Variant>
AV-unprocessed.smi:193-15

> <Gold.Version>
5.8.1

> <Gold.Id.Protein>
6NUR|6NUR_protein|mol2

> <Gold.PLP.Fitness>
46.3077

> <Gold.PLP.PLP>
-43.1110

> <Gold.PLP.part.hbond>
-1.0000

> <Gold.PLP.part.metal>
0.0000

> <Gold.PLP.part.buried>
-3.6525

> <Gold.PLP.part.nonpolar>
-38.6866

> <Gold.PLP.part.repulsive>
0.7026

> <Gold.PLP.ligand.clash>
0.0000

> <Gold.PLP.ligand.torsion>
1.7148

> <Gold.PLP.Chemscore.Hbond>
0.9913

> <Gold.PLP.Chemscore.CHOScore>
0.6930

> <Gold.PLP.Chemscore.Metal>
0.0000

> <Gold.Chemscore.Hbonds>
donor molecule, donor type, donor heavy atom, donor atom, acceptor molecule, acceptor atom, score
      L1  H    24    62       P1 10171  0.96
      L1  C     7    36       P1  8028  0.68

> <Gold.PLP.Chemscore.Internal.Correction>
1.5736

> <Gold.Rescore>
     Score         DG    S(hbond)    S(metal)    S(lipo)     H(rot)  DE(clash)    DE(int)     intcor
     11.77     -15.21       0.97        0.00     103.77       2.20       1.76       1.69       ----

> <Gold.Chemscore.Fitness>
11.7722

> <Gold.Chemscore.DG>
-15.2147

> <Gold.Chemscore.ZeroCoef>
-5.4800

> <Gold.Chemscore.Hbond>
0.9672

> <Gold.Chemscore.Metal>
0.0000

> <Gold.Chemscore.Lipo>
103.7679

> <Gold.Chemscore.Internal_Hbond>
0.0000

> <Gold.Chemscore.DEClash>
1.7556

> <Gold.Chemscore.DEInternal>
1.6869

> <Gold.Chemscore.Rot>
2.2018

> <Gold.Chemscore.Internal.Correction>
   9.000000E+99

> <Gold.Chemscore.Hbonds>
donor molecule, donor type, donor heavy atom, donor atom, acceptor molecule, acceptor atom, score
      L1  H    24    62       P1 10171  0.91

> <Gold.Chemscore.Hbond.Weighted>
-3.2305

> <Gold.Chemscore.Metal.Weighted>
-0.0000

> <Gold.Chemscore.Lipo.Weighted>
-12.1408

> <Gold.Chemscore.Internal_Hbond.Weighted>
0.0000

> <Gold.Chemscore.DEClash.Weighted>
1.7556

> <Gold.Chemscore.DEInternal.Weighted>
1.6869

> <Gold.Chemscore.Rot.Weighted>
5.6366

> <Gold.Chemscore.Internal.Correction.Weighted>
   9.000000E+99

> <Gold.Protein.RotatedTorsions>
[ 6907 6896 6895 6894 ] final   -8.02 input  -60.11 | X-H torsion
[ 7974 7965 7964 7962 ] final -161.22 input  175.53 | X-H torsion
[ 8008 7997 7996 7995 ] final  -43.43 input   59.86 | X-H torsion
[ 10167 10162 10161 10158 ] final -127.82 input  -65.29 | X-H torsion
[ 10718 10713 10712 10709 ] final  -66.59 input   66.30 | X-H torsion
[ 10763 10752 10751 10750 ] final -107.74 input  -60.55 | X-H torsion
[ 11005 11000 10999 10996 ] final -107.21 input  -57.11 | X-H torsion

> <Gold.Protein.ActiveResidues>
 VAL166  LYS551  ARG553  GLY616  TRP617  ASP618  TYR619  PRO620  LYS621  CYS622 
 ASP623  PHE694  ASN695  SER759  ASP760  ASP761  ALA762  ILE779  LEU786  VAL792 
 PHE793  MET794  SER795  GLU796  ALA797  LYS798  CYS799  TRP800  GLU811  SER814 

> <Gold.Protein.RotatedAtoms>
  151.4404  135.1019  159.9668 H   0  0  0  0  0  0  0  0  0  0  0  0  # atno 6907 bound_to 6896
  152.4925  133.8534  159.7224 H   0  0  0  0  0  0  0  0  0  0  0  0  # atno 6908 bound_to 6896
  150.9092  133.6960  159.2886 H   0  0  0  0  0  0  0  0  0  0  0  0  # atno 6909 bound_to 6896
  144.7399  140.3428  143.6131 H   0  0  0  0  0  0  0  0  0  0  0  0  # atno 7974 bound_to 7965
  154.3997  140.1448  156.3517 H   0  0  0  0  0  0  0  0  0  0  0  0  # atno 8008 bound_to 7997
  155.8262  140.3467  155.5523 H   0  0  0  0  0  0  0  0  0  0  0  0  # atno 8009 bound_to 7997
  155.8236  140.0901  157.1825 H   0  0  0  0  0  0  0  0  0  0  0  0  # atno 8010 bound_to 7997
  139.9569  143.5994  152.2458 H   0  0  0  0  0  0  0  0  0  0  0  0  # atno 10167 bound_to 10162
  156.0604  130.4264  150.1731 H   0  0  0  0  0  0  0  0  0  0  0  0  # atno 10718 bound_to 10713
  154.8094  135.4663  154.0475 H   0  0  0  0  0  0  0  0  0  0  0  0  # atno 10763 bound_to 10752
  153.1919  135.6856  153.8349 H   0  0  0  0  0  0  0  0  0  0  0  0  # atno 10764 bound_to 10752
  153.7863  135.3249  155.3350 H   0  0  0  0  0  0  0  0  0  0  0  0  # atno 10765 bound_to 10752
  141.0966  133.8960  157.1948 H   0  0  0  0  0  0  0  0  0  0  0  0  # atno 11005 bound_to 11000
  145.7356  139.1749  143.2405 LP  0  0  0  0  0  0  0  0  0  0  0  0  # atno 17320 bound_to 7965
  146.1173  140.7353  142.9474 LP  0  0  0  0  0  0  0  0  0  0  0  0  # atno 17321 bound_to 7965
  139.6585  144.7662  151.2009 LP  0  0  0  0  0  0  0  0  0  0  0  0  # atno 17342 bound_to 10162
  140.7565  143.6048  150.8664 LP  0  0  0  0  0  0  0  0  0  0  0  0  # atno 17343 bound_to 10162
  156.9801  130.9861  151.3439 LP  0  0  0  0  0  0  0  0  0  0  0  0  # atno 17370 bound_to 10713
  157.5607  130.8244  149.8263 LP  0  0  0  0  0  0  0  0  0  0  0  0  # atno 17371 bound_to 10713
  139.9804  135.0100  156.9735 LP  0  0  0  0  0  0  0  0  0  0  0  0  # atno 17394 bound_to 11000
  140.5126  134.0987  155.7273 LP  0  0  0  0  0  0  0  0  0  0  0  0  # atno 17395 bound_to 11000

$$$$
