AV-unprocessed.smi:3074|AV-procd|sdf|11721|dock2
  -GOLD-   2272017123D 1   1.00000     0.00000
 Structure written by MMmdl.
 19 20  0  0  0  0  0  0  0  0  2 V2000
  153.1026  142.6311  162.0770 C   0  0  0  0  0  0  0  0  0  0  0  0
  152.3315  143.5045  161.3436 C   0  0  0  0  0  0  0  0  0  0  0  0
  152.1231  142.9049  160.1084 N   0  0  0  0  0  0  0  0  0  0  0  0
  151.4191  143.4727  158.9982 C   0  0  0  0  0  0  0  0  0  0  0  0
  151.3657  142.7526  157.6517 C   0  0  0  0  0  0  0  0  0  0  0  0
  151.3736  144.0651  157.0180 N   0  3  0  0  0  0  0  0  0  0  0  0
  152.0131  144.6318  158.1991 C   0  0  0  0  0  0  0  0  0  0  0  0
  152.8083  141.7539  160.1459 C   0  0  0  0  0  0  0  0  0  0  0  0
  153.4078  141.5129  161.3044 N   0  0  0  0  0  0  0  0  0  0  0  0
  153.4716  142.7279  163.0876 H   0  0  0  0  0  0  0  0  0  0  0  0
  151.9226  144.4719  161.5960 H   0  0  0  0  0  0  0  0  0  0  0  0
  150.4154  143.7149  159.3549 H   0  0  0  0  0  0  0  0  0  0  0  0
  152.2680  142.1815  157.4241 H   0  0  0  0  0  0  0  0  0  0  0  0
  150.4576  142.1763  157.4725 H   0  0  0  0  0  0  0  0  0  0  0  0
  151.9368  144.1145  156.1807 H   0  0  0  0  0  0  0  0  0  0  0  0
  151.6429  145.6197  158.4747 H   0  0  0  0  0  0  0  0  0  0  0  0
  153.1024  144.6038  158.1296 H   0  0  0  0  0  0  0  0  0  0  0  0
  152.8680  141.0756  159.3070 H   0  0  0  0  0  0  0  0  0  0  0  0
  150.4364  144.4222  156.8974 H   0  0  0  0  0  0  0  0  0  0  0  0
  1  9  1  0  0  0  0
  1  2  2  0  0  0  0
  1 10  1  0  0  0  0
  2  3  1  0  0  0  0
  2 11  1  0  0  0  0
  3  4  1  0  0  0  0
  3  8  1  0  0  0  0
  4  7  1  0  0  0  0
  4  5  1  0  0  0  0
  4 12  1  0  0  0  0
  5  6  1  0  0  0  0
  5 13  1  0  0  0  0
  5 14  1  0  0  0  0
  6  7  1  0  0  0  0
  6 15  1  0  0  0  0
  6 19  1  0  0  0  0
  7 16  1  0  0  0  0
  7 17  1  0  0  0  0
  8  9  2  0  0  0  0
  8 18  1  0  0  0  0
M  CHG  1   6   1
M  END
> <s_m_source_file>
AV-unprocessed.smi

> <i_m_source_file_index>
3074

> <i_lp_mmshare_version>
43012

> <i_f3d_flags>
0

> <s_epik_input>
W2NIXTFuW2NIXVtjSF1uMVtDSF0yW0NIMl1bTkhdW0NIMl0y

> <s_epik_cmdline>
J2VwaWtfcHl0aG9uJywgJy1waCcsICc3LjAnLCAnLXRuJywgJzgnLCAnLW1hJywgJzIwMCcsICctbWV0YWxfYmluZGluZycsICctaW1hZScsICc8aW5maWxlLm1hZT4nLCAnLW9tYWUnLCAnPG91dGZpbGUubWFlPic=

> <r_lp_tautomer_probability>
1

> <r_epik_Ionization_Penalty>
0.0670812

> <r_epik_Ionization_Penalty_Charging>
0.0670812

> <r_epik_Ionization_Penalty_Neutral>
0

> <r_epik_State_Penalty>
0.102677

> <r_epik_Charging_Adjusted_Penalty>
0.169758

> <i_epik_Tot_Q>
1

> <i_epik_Tot_abs_Q>
1

> <r_epik_Metal_State_Penalty>
0.000102988

> <b_epik_Metal_Only>
0

> <s_lp_Force_Field>
OPLS_2005

> <r_lp_Energy>
18.1517

> <b_lp_Chiralities_Consistent>
1

> <s_lp_Variant>
AV-unprocessed.smi:3074-1

> <Gold.Version>
5.8.1

> <Gold.Id.Protein>
6NUR|6NUR_protein|mol2

> <Gold.PLP.Fitness>
33.9531

> <Gold.PLP.PLP>
-28.1831

> <Gold.PLP.part.hbond>
-1.0000

> <Gold.PLP.part.metal>
0.0000

> <Gold.PLP.part.buried>
-4.5230

> <Gold.PLP.part.nonpolar>
-23.3333

> <Gold.PLP.part.repulsive>
0.0232

> <Gold.PLP.ligand.clash>
0.0000

> <Gold.PLP.ligand.torsion>
0.1836

> <Gold.PLP.Chemscore.Hbond>
1.9520

> <Gold.PLP.Chemscore.CHOScore>
0.0000

> <Gold.PLP.Chemscore.Metal>
0.0000

> <Gold.Chemscore.Hbonds>
donor molecule, donor type, donor heavy atom, donor atom, acceptor molecule, acceptor atom, score
      L1  H     6    19       P1  8028  1.92

> <Gold.PLP.Chemscore.Internal.Correction>
0.2811

> <Gold.Rescore>
     Score         DG    S(hbond)    S(metal)    S(lipo)     H(rot)  DE(clash)    DE(int)     intcor
     12.98     -13.15       1.00        0.00      58.99       1.00       0.02       0.15       ----

> <Gold.Chemscore.Fitness>
12.9831

> <Gold.Chemscore.DG>
-13.1498

> <Gold.Chemscore.ZeroCoef>
-5.4800

> <Gold.Chemscore.Hbond>
0.9965

> <Gold.Chemscore.Metal>
0.0000

> <Gold.Chemscore.Lipo>
58.9866

> <Gold.Chemscore.Internal_Hbond>
0.0000

> <Gold.Chemscore.DEClash>
0.0178

> <Gold.Chemscore.DEInternal>
0.1490

> <Gold.Chemscore.Rot>
1.0000

> <Gold.Chemscore.Internal.Correction>
   9.000000E+99

> <Gold.Chemscore.Hbonds>
donor molecule, donor type, donor heavy atom, donor atom, acceptor molecule, acceptor atom, score
      L1  H     6    19       P1  8028  0.82

> <Gold.Chemscore.Hbond.Weighted>
-3.3284

> <Gold.Chemscore.Metal.Weighted>
-0.0000

> <Gold.Chemscore.Lipo.Weighted>
-6.9014

> <Gold.Chemscore.Internal_Hbond.Weighted>
0.0000

> <Gold.Chemscore.DEClash.Weighted>
0.0178

> <Gold.Chemscore.DEInternal.Weighted>
0.1490

> <Gold.Chemscore.Rot.Weighted>
2.5600

> <Gold.Chemscore.Internal.Correction.Weighted>
   9.000000E+99

> <Gold.Protein.RotatedTorsions>
[ 6907 6896 6895 6894 ] final   15.14 input  -60.11 | X-H torsion
[ 7974 7965 7964 7962 ] final  -50.54 input  175.53 | X-H torsion
[ 8008 7997 7996 7995 ] final  176.45 input   59.86 | X-H torsion
[ 10167 10162 10161 10158 ] final   72.03 input  -65.29 | X-H torsion
[ 10718 10713 10712 10709 ] final  163.54 input   66.30 | X-H torsion
[ 10763 10752 10751 10750 ] final   61.44 input  -60.55 | X-H torsion
[ 11005 11000 10999 10996 ] final   78.95 input  -57.11 | X-H torsion

> <Gold.Protein.ActiveResidues>
 VAL166  LYS551  ARG553  GLY616  TRP617  ASP618  TYR619  PRO620  LYS621  CYS622 
 ASP623  PHE694  ASN695  SER759  ASP760  ASP761  ALA762  ILE779  LEU786  VAL792 
 PHE793  MET794  SER795  GLU796  ALA797  LYS798  CYS799  TRP800  GLU811  SER814 

> <Gold.Protein.RotatedAtoms>
  151.8134  135.0674  160.0415 H   0  0  0  0  0  0  0  0  0  0  0  0  # atno 6907 bound_to 6896
  152.3004  133.5645  159.5623 H   0  0  0  0  0  0  0  0  0  0  0  0  # atno 6908 bound_to 6896
  150.7271  134.0216  159.3745 H   0  0  0  0  0  0  0  0  0  0  0  0  # atno 6909 bound_to 6896
  145.9288  140.7768  142.9610 H   0  0  0  0  0  0  0  0  0  0  0  0  # atno 7974 bound_to 7965
  156.0764  140.1383  156.9767 H   0  0  0  0  0  0  0  0  0  0  0  0  # atno 8008 bound_to 7997
  154.4560  140.0961  156.6808 H   0  0  0  0  0  0  0  0  0  0  0  0  # atno 8009 bound_to 7997
  155.5147  140.3454  155.4397 H   0  0  0  0  0  0  0  0  0  0  0  0  # atno 8010 bound_to 7997
  140.0396  144.5400  150.7444 H   0  0  0  0  0  0  0  0  0  0  0  0  # atno 10167 bound_to 10162
  157.1070  131.0458  151.2473 H   0  0  0  0  0  0  0  0  0  0  0  0  # atno 10718 bound_to 10713
  152.9951  135.5500  154.6035 H   0  0  0  0  0  0  0  0  0  0  0  0  # atno 10763 bound_to 10752
  154.5371  135.2817  155.1131 H   0  0  0  0  0  0  0  0  0  0  0  0  # atno 10764 bound_to 10752
  154.2423  135.6414  153.5264 H   0  0  0  0  0  0  0  0  0  0  0  0  # atno 10765 bound_to 10752
  139.9192  134.7804  156.1716 H   0  0  0  0  0  0  0  0  0  0  0  0  # atno 11005 bound_to 11000
  144.6762  140.2093  143.7378 LP  0  0  0  0  0  0  0  0  0  0  0  0  # atno 17320 bound_to 7965
  145.8454  139.2149  143.1803 LP  0  0  0  0  0  0  0  0  0  0  0  0  # atno 17321 bound_to 7965
  140.7266  143.2642  151.4100 LP  0  0  0  0  0  0  0  0  0  0  0  0  # atno 17342 bound_to 10162
  139.6022  144.1271  152.2210 LP  0  0  0  0  0  0  0  0  0  0  0  0  # atno 17343 bound_to 10162
  157.4592  130.7643  149.7220 LP  0  0  0  0  0  0  0  0  0  0  0  0  # atno 17370 bound_to 10713
  155.9859  130.3979  150.3237 LP  0  0  0  0  0  0  0  0  0  0  0  0  # atno 17371 bound_to 10713
  141.0697  133.6802  156.2115 LP  0  0  0  0  0  0  0  0  0  0  0  0  # atno 17394 bound_to 11000
  140.6527  134.5050  157.5578 LP  0  0  0  0  0  0  0  0  0  0  0  0  # atno 17395 bound_to 11000

$$$$
