AV-unprocessed.smi:2698|AV-procd|sdf|10422|dock5
  -GOLD-   2272014463D 1   1.00000     0.00000
 Structure written by MMmdl.
 33 33  0  0  0  0  0  0  0  0  2 V2000
  151.5951  145.3182  159.4159 C   0  0  0  0  0  0  0  0  0  0  0  0
  151.7008  143.8037  159.1820 C   0  0  0  0  0  0  0  0  0  0  0  0
  153.1701  143.3509  159.2683 C   0  0  0  0  0  0  0  0  0  0  0  0
  151.0156  143.4106  157.8525 C   0  0  0  0  0  0  0  0  0  0  0  0
  151.1539  141.9239  157.5140 C   0  0  0  0  0  0  0  0  0  0  0  0
  151.6894  141.1557  158.3133 O   0  0  0  0  0  0  0  0  0  0  0  0
  150.6682  141.5374  156.3233 N   0  0  0  0  0  0  0  0  0  0  0  0
  150.6352  140.1698  155.8043 C   0  0  1  0  0  0  0  0  0  0  0  0
  149.8538  140.0909  154.4743 C   0  0  0  0  0  0  0  0  0  0  0  0
  148.4445  140.6280  154.5251 C   0  0  0  0  0  0  0  0  0  0  0  0
  148.0260  141.9347  154.6712 C   0  0  0  0  0  0  0  0  0  0  0  0
  146.6436  141.9066  154.6267 N   0  0  0  0  0  0  0  0  0  0  0  0
  146.2840  140.6332  154.4635 C   0  0  0  0  0  0  0  0  0  0  0  0
  147.3184  139.8060  154.3965 N   0  0  0  0  0  0  0  0  0  0  0  0
  152.0591  139.6142  155.7002 C   0  0  0  0  0  0  0  0  0  0  0  0
  152.4860  139.3398  154.5562 O   0  0  0  0  0  0  0  0  0  0  0  0
  152.6974  139.4679  156.7655 O   0  5  0  0  0  0  0  0  0  0  0  0
  146.0241  142.7008  154.6966 H   0  0  0  0  0  0  0  0  0  0  0  0
  152.1231  145.8760  158.6419 H   0  0  0  0  0  0  0  0  0  0  0  0
  152.0225  145.5983  160.3791 H   0  0  0  0  0  0  0  0  0  0  0  0
  150.5552  145.6459  159.4127 H   0  0  0  0  0  0  0  0  0  0  0  0
  151.1602  143.3171  159.9957 H   0  0  0  0  0  0  0  0  0  0  0  0
  153.7607  143.7673  158.4519 H   0  0  0  0  0  0  0  0  0  0  0  0
  153.2643  142.2660  159.2293 H   0  0  0  0  0  0  0  0  0  0  0  0
  153.6243  143.6748  160.2049 H   0  0  0  0  0  0  0  0  0  0  0  0
  149.9540  143.6592  157.8959 H   0  0  0  0  0  0  0  0  0  0  0  0
  151.4280  143.9976  157.0307 H   0  0  0  0  0  0  0  0  0  0  0  0
  150.2663  142.2449  155.7254 H   0  0  0  0  0  0  0  0  0  0  0  0
  150.1130  139.5382  156.5260 H   0  0  0  0  0  0  0  0  0  0  0  0
  150.3955  140.6148  153.6852 H   0  0  0  0  0  0  0  0  0  0  0  0
  149.7939  139.0491  154.1569 H   0  0  0  0  0  0  0  0  0  0  0  0
  148.5837  142.8521  154.7873 H   0  0  0  0  0  0  0  0  0  0  0  0
  145.2566  140.3083  154.3899 H   0  0  0  0  0  0  0  0  0  0  0  0
  1  2  1  0  0  0  0
  1 19  1  0  0  0  0
  1 20  1  0  0  0  0
  1 21  1  0  0  0  0
  2  3  1  0  0  0  0
  2  4  1  0  0  0  0
  2 22  1  0  0  0  0
  3 23  1  0  0  0  0
  3 24  1  0  0  0  0
  3 25  1  0  0  0  0
  4  5  1  0  0  0  0
  4 26  1  0  0  0  0
  4 27  1  0  0  0  0
  5  6  2  0  0  0  0
  5  7  1  0  0  0  0
  7  8  1  0  0  0  0
  7 28  1  0  0  0  0
  8  9  1  0  0  0  0
  8 15  1  0  0  0  0
  8 29  1  0  0  0  0
  9 10  1  0  0  0  0
  9 30  1  0  0  0  0
  9 31  1  0  0  0  0
 10 14  1  0  0  0  0
 10 11  2  0  0  0  0
 11 12  1  0  0  0  0
 11 32  1  0  0  0  0
 12 18  1  0  0  0  0
 12 13  1  0  0  0  0
 13 14  2  0  0  0  0
 13 33  1  0  0  0  0
 15 16  2  0  0  0  0
 15 17  1  0  0  0  0
M  CHG  1  17  -1
M  END
> <s_m_source_file>
AV-unprocessed.smi

> <i_m_source_file_index>
2698

> <i_lp_mmshare_version>
43012

> <i_f3d_flags>
0

> <s_epik_input>
W0NIM11bQ0hdKFtDSDNdKVtDSDJdQyg9TylbTkhdW0NAQEhdKEMoPU8pW09IXSlbQ0gyXWMxW2NIXVtuSF1bY0hdbjE=

> <s_epik_cmdline>
J2VwaWtfcHl0aG9uJywgJy1waCcsICc3LjAnLCAnLXRuJywgJzgnLCAnLW1hJywgJzIwMCcsICctbWV0YWxfYmluZGluZycsICctaW1hZScsICc8aW5maWxlLm1hZT4nLCAnLW9tYWUnLCAnPG91dGZpbGUubWFlPic=

> <r_lp_tautomer_probability>
0.5

> <r_epik_Ionization_Penalty>
0.818672

> <r_epik_Ionization_Penalty_Charging>
0.818672

> <r_epik_Ionization_Penalty_Neutral>
7.99661e-08

> <r_epik_State_Penalty>
0.927032

> <r_epik_Charging_Adjusted_Penalty>
1.7457

> <i_epik_Tot_Q>
-1

> <i_epik_Tot_abs_Q>
1

> <r_epik_Metal_State_Penalty>
0.525537

> <b_epik_Metal_Only>
0

> <s_lp_Force_Field>
OPLS_2005

> <r_lp_Energy>
1.97611

> <b_lp_Chiralities_Consistent>
1

> <s_lp_Variant>
AV-unprocessed.smi:2698-6

> <Gold.Version>
5.8.1

> <Gold.Id.Protein>
6NUR|6NUR_protein|mol2

> <Gold.PLP.Fitness>
45.8822

> <Gold.PLP.PLP>
-32.3164

> <Gold.PLP.part.hbond>
-2.0000

> <Gold.PLP.part.metal>
0.0000

> <Gold.PLP.part.buried>
-1.4512

> <Gold.PLP.part.nonpolar>
-30.3457

> <Gold.PLP.part.repulsive>
0.3423

> <Gold.PLP.ligand.clash>
0.0000

> <Gold.PLP.ligand.torsion>
0.2390

> <Gold.PLP.Chemscore.Hbond>
2.6396

> <Gold.PLP.Chemscore.CHOScore>
2.0000

> <Gold.PLP.Chemscore.Metal>
0.0000

> <Gold.Chemscore.Hbonds>
donor molecule, donor type, donor heavy atom, donor atom, acceptor molecule, acceptor atom, score
      P1  H  7989  7998       L1    16  0.64
      P1  H  7997  8009       L1    17  2.00
      L1  C    11    32       P1  8028  1.00
      L1  C    13    33       P1 10175  0.99

> <Gold.PLP.Chemscore.Internal.Correction>
0.1250

> <Gold.Rescore>
     Score         DG    S(hbond)    S(metal)    S(lipo)     H(rot)  DE(clash)    DE(int)     intcor
      7.11     -10.36       1.27        0.00      71.47       3.01       0.12       3.13       ----

> <Gold.Chemscore.Fitness>
7.1146

> <Gold.Chemscore.DG>
-10.3623

> <Gold.Chemscore.ZeroCoef>
-5.4800

> <Gold.Chemscore.Hbond>
1.2688

> <Gold.Chemscore.Metal>
0.0000

> <Gold.Chemscore.Lipo>
71.4656

> <Gold.Chemscore.Internal_Hbond>
0.0000

> <Gold.Chemscore.DEClash>
0.1175

> <Gold.Chemscore.DEInternal>
3.1302

> <Gold.Chemscore.Rot>
3.0145

> <Gold.Chemscore.Internal.Correction>
   9.000000E+99

> <Gold.Chemscore.Hbonds>
donor molecule, donor type, donor heavy atom, donor atom, acceptor molecule, acceptor atom, score
      P1  H  7989  7998       L1    16  0.18
      P1  H  7997  8009       L1    17  0.65

> <Gold.Chemscore.Hbond.Weighted>
-4.2379

> <Gold.Chemscore.Metal.Weighted>
-0.0000

> <Gold.Chemscore.Lipo.Weighted>
-8.3615

> <Gold.Chemscore.Internal_Hbond.Weighted>
0.0000

> <Gold.Chemscore.DEClash.Weighted>
0.1175

> <Gold.Chemscore.DEInternal.Weighted>
3.1302

> <Gold.Chemscore.Rot.Weighted>
7.7171

> <Gold.Chemscore.Internal.Correction.Weighted>
   9.000000E+99

> <Gold.Protein.RotatedTorsions>
[ 6907 6896 6895 6894 ] final   85.03 input  -60.11 | X-H torsion
[ 7974 7965 7964 7962 ] final  -18.07 input  175.53 | X-H torsion
[ 8008 7997 7996 7995 ] final -173.15 input   59.86 | X-H torsion
[ 10167 10162 10161 10158 ] final  154.07 input  -65.29 | X-H torsion
[ 10718 10713 10712 10709 ] final -161.15 input   66.30 | X-H torsion
[ 10763 10752 10751 10750 ] final  -68.57 input  -60.55 | X-H torsion
[ 11005 11000 10999 10996 ] final  -88.03 input  -57.11 | X-H torsion

> <Gold.Protein.ActiveResidues>
 VAL166  LYS551  ARG553  GLY616  TRP617  ASP618  TYR619  PRO620  LYS621  CYS622 
 ASP623  PHE694  ASN695  SER759  ASP760  ASP761  ALA762  ILE779  LEU786  VAL792 
 PHE793  MET794  SER795  GLU796  ALA797  LYS798  CYS799  TRP800  GLU811  SER814 

> <Gold.Protein.RotatedAtoms>
  152.5366  134.2650  159.8949 H   0  0  0  0  0  0  0  0  0  0  0  0  # atno 6907 bound_to 6896
  151.2608  133.4296  159.2623 H   0  0  0  0  0  0  0  0  0  0  0  0  # atno 6908 bound_to 6896
  151.0454  134.9651  159.8240 H   0  0  0  0  0  0  0  0  0  0  0  0  # atno 6909 bound_to 6896
  146.1910  140.3868  142.8458 H   0  0  0  0  0  0  0  0  0  0  0  0  # atno 7974 bound_to 7965
  155.9538  140.1131  157.0954 H   0  0  0  0  0  0  0  0  0  0  0  0  # atno 8008 bound_to 7997
  154.4115  140.1195  156.5154 H   0  0  0  0  0  0  0  0  0  0  0  0  # atno 8009 bound_to 7997
  155.6809  140.3473  155.4857 H   0  0  0  0  0  0  0  0  0  0  0  0  # atno 8010 bound_to 7997
  139.4824  144.5218  151.7863 H   0  0  0  0  0  0  0  0  0  0  0  0  # atno 10167 bound_to 10162
  156.5921  130.8774  151.2892 H   0  0  0  0  0  0  0  0  0  0  0  0  # atno 10718 bound_to 10713
  154.3910  135.6053  153.5843 H   0  0  0  0  0  0  0  0  0  0  0  0  # atno 10763 bound_to 10752
  152.9787  135.5883  154.4298 H   0  0  0  0  0  0  0  0  0  0  0  0  # atno 10764 bound_to 10752
  154.4082  135.2844  155.2032 H   0  0  0  0  0  0  0  0  0  0  0  0  # atno 10765 bound_to 10752
  141.1608  133.7546  156.9392 H   0  0  0  0  0  0  0  0  0  0  0  0  # atno 11005 bound_to 11000
  144.8487  140.6969  143.6182 LP  0  0  0  0  0  0  0  0  0  0  0  0  # atno 17320 bound_to 7965
  145.3791  139.1641  143.4290 LP  0  0  0  0  0  0  0  0  0  0  0  0  # atno 17321 bound_to 7965
  140.4733  144.1555  150.5921 LP  0  0  0  0  0  0  0  0  0  0  0  0  # atno 17342 bound_to 10162
  140.4358  143.2548  151.9537 LP  0  0  0  0  0  0  0  0  0  0  0  0  # atno 17343 bound_to 10162
  157.7301  130.9680  150.1817 LP  0  0  0  0  0  0  0  0  0  0  0  0  # atno 17370 bound_to 10713
  156.2541  130.3703  149.8201 LP  0  0  0  0  0  0  0  0  0  0  0  0  # atno 17371 bound_to 10713
  140.1333  134.9342  157.2367 LP  0  0  0  0  0  0  0  0  0  0  0  0  # atno 17394 bound_to 11000
  140.2926  134.3223  155.7311 LP  0  0  0  0  0  0  0  0  0  0  0  0  # atno 17395 bound_to 11000

$$$$
