AV-unprocessed.smi:203|AV-procd|sdf|1594|dock10
  -GOLD-   2262019493D 1   1.00000     0.00000
 Structure written by MMmdl.
 57 61  0  0  0  0  0  0  0  0  1 V2000
  155.2010  139.2824  162.9256 O   0  0  0  0  0  0  0  0  0  0  0  0
  155.1337  139.3296  161.6997 C   0  0  0  0  0  0  0  0  0  0  0  0
  153.8858  138.9670  160.9130 C   0  0  0  0  0  0  0  0  0  0  0  0
  154.2184  139.4195  159.4763 C   0  0  1  0  0  0  0  0  0  0  0  0
  153.4035  140.6569  158.9816 C   0  0  2  0  0  0  0  0  0  0  0  0
  153.1816  141.7147  160.0953 C   0  0  0  0  0  0  0  0  0  0  0  0
  152.3833  142.9209  159.5835 C   0  0  0  0  0  0  0  0  0  0  0  0
  151.0549  142.4500  158.9823 C   0  0  0  0  0  0  0  0  0  0  0  0
  151.3064  141.4111  157.8815 C   0  0  0  0  0  0  0  0  0  0  0  0
  152.1089  140.2931  158.3771 N   0  0  0  0  0  0  0  0  0  0  0  0
  152.1274  139.2900  157.4711 C   0  0  0  0  0  0  0  0  0  0  0  0
  152.9214  139.4527  156.3847 N   0  0  0  0  0  0  0  0  0  0  0  0
  152.9727  138.5012  155.4476 C   0  0  0  0  0  0  0  0  0  0  0  0
  152.3263  137.3338  155.4059 N   0  0  0  0  0  0  0  0  0  0  0  0
  151.5341  137.1656  156.5034 C   0  0  0  0  0  0  0  0  0  0  0  0
  151.3769  138.0852  157.5779 C   0  0  0  0  0  0  0  0  0  0  0  0
  150.4888  137.5721  158.5159 N   0  0  0  0  0  0  0  0  0  0  0  0
  150.1373  136.4165  158.0215 C   0  0  0  0  0  0  0  0  0  0  0  0
  150.7144  136.0952  156.8141 N   0  0  0  0  0  0  0  0  0  0  0  0
  150.4940  134.8822  156.0457 C   0  0  0  0  0  0  0  0  0  0  0  0
  149.2021  134.9478  155.2032 C   0  0  1  0  0  0  0  0  0  0  0  0
  149.1419  136.2212  154.5895 O   0  0  0  0  0  0  0  0  0  0  0  0
  149.1485  133.8853  154.0867 C   0  0  1  0  0  0  0  0  0  0  0  0
  149.3058  132.4399  154.5646 C   0  0  0  0  0  0  0  0  0  0  0  0
  148.6185  131.6257  153.4812 C   0  0  0  0  0  0  0  0  0  0  0  0
  147.7421  132.6484  152.7549 C   0  0  0  0  0  0  0  0  0  0  0  0
  147.8449  133.8381  153.5249 O   0  0  0  0  0  0  0  0  0  0  0  0
  155.7440  139.6564  159.4791 C   0  0  0  0  0  0  0  0  0  0  0  0
  156.1169  139.6953  160.8798 N   0  0  0  0  0  0  0  0  0  0  0  0
  153.7352  137.8880  160.9587 H   0  0  0  0  0  0  0  0  0  0  0  0
  152.9987  139.4487  161.3253 H   0  0  0  0  0  0  0  0  0  0  0  0
  154.0390  138.5832  158.8001 H   0  0  0  0  0  0  0  0  0  0  0  0
  153.9916  141.1394  158.2002 H   0  0  0  0  0  0  0  0  0  0  0  0
  152.6448  141.2732  160.9351 H   0  0  0  0  0  0  0  0  0  0  0  0
  154.1325  142.0666  160.4939 H   0  0  0  0  0  0  0  0  0  0  0  0
  152.2004  143.6238  160.3968 H   0  0  0  0  0  0  0  0  0  0  0  0
  152.9629  143.4555  158.8299 H   0  0  0  0  0  0  0  0  0  0  0  0
  150.4298  142.0141  159.7631 H   0  0  0  0  0  0  0  0  0  0  0  0
  150.5030  143.2988  158.5777 H   0  0  0  0  0  0  0  0  0  0  0  0
  150.3507  141.0456  157.5026 H   0  0  0  0  0  0  0  0  0  0  0  0
  151.8210  141.8826  157.0429 H   0  0  0  0  0  0  0  0  0  0  0  0
  153.6236  138.7054  154.6103 H   0  0  0  0  0  0  0  0  0  0  0  0
  149.4392  135.7628  158.5245 H   0  0  0  0  0  0  0  0  0  0  0  0
  151.3600  134.7059  155.4061 H   0  0  0  0  0  0  0  0  0  0  0  0
  150.4534  134.0503  156.7490 H   0  0  0  0  0  0  0  0  0  0  0  0
  148.3389  134.8330  155.8601 H   0  0  0  0  0  0  0  0  0  0  0  0
  149.1660  136.1041  153.6520 H   0  0  0  0  0  0  0  0  0  0  0  0
  149.8822  134.0965  153.3060 H   0  0  0  0  0  0  0  0  0  0  0  0
  150.3476  132.1528  154.7095 H   0  0  0  0  0  0  0  0  0  0  0  0
  148.7817  132.2988  155.5111 H   0  0  0  0  0  0  0  0  0  0  0  0
  149.3429  131.1883  152.7932 H   0  0  0  0  0  0  0  0  0  0  0  0
  148.0296  130.8152  153.9115 H   0  0  0  0  0  0  0  0  0  0  0  0
  148.1213  132.8355  151.7492 H   0  0  0  0  0  0  0  0  0  0  0  0
  146.7038  132.3260  152.6735 H   0  0  0  0  0  0  0  0  0  0  0  0
  156.2659  138.8255  159.0026 H   0  0  0  0  0  0  0  0  0  0  0  0
  156.0409  140.5691  158.9624 H   0  0  0  0  0  0  0  0  0  0  0  0
  157.0356  139.9774  161.1899 H   0  0  0  0  0  0  0  0  0  0  0  0
  1  2  2  0  0  0  0
  2 29  1  0  0  0  0
  2  3  1  0  0  0  0
  3  4  1  0  0  0  0
  3 30  1  0  0  0  0
  3 31  1  0  0  0  0
  4  5  1  0  0  0  0
  4 28  1  0  0  0  0
  4 32  1  0  0  0  0
  5 10  1  0  0  0  0
  5  6  1  0  0  0  0
  5 33  1  0  0  0  0
  6  7  1  0  0  0  0
  6 34  1  0  0  0  0
  6 35  1  0  0  0  0
  7  8  1  0  0  0  0
  7 36  1  0  0  0  0
  7 37  1  0  0  0  0
  8  9  1  0  0  0  0
  8 38  1  0  0  0  0
  8 39  1  0  0  0  0
  9 10  1  0  0  0  0
  9 40  1  0  0  0  0
  9 41  1  0  0  0  0
 10 11  1  0  0  0  0
 11 16  1  0  0  0  0
 11 12  2  0  0  0  0
 12 13  1  0  0  0  0
 13 14  2  0  0  0  0
 13 42  1  0  0  0  0
 14 15  1  0  0  0  0
 15 19  1  0  0  0  0
 15 16  2  0  0  0  0
 16 17  1  0  0  0  0
 17 18  2  0  0  0  0
 18 19  1  0  0  0  0
 18 43  1  0  0  0  0
 19 20  1  0  0  0  0
 20 21  1  0  0  0  0
 20 44  1  0  0  0  0
 20 45  1  0  0  0  0
 21 22  1  0  0  0  0
 21 23  1  0  0  0  0
 21 46  1  0  0  0  0
 22 47  1  0  0  0  0
 23 27  1  0  0  0  0
 23 24  1  0  0  0  0
 23 48  1  0  0  0  0
 24 25  1  0  0  0  0
 24 49  1  0  0  0  0
 24 50  1  0  0  0  0
 25 26  1  0  0  0  0
 25 51  1  0  0  0  0
 25 52  1  0  0  0  0
 26 27  1  0  0  0  0
 26 53  1  0  0  0  0
 26 54  1  0  0  0  0
 28 29  1  0  0  0  0
 28 55  1  0  0  0  0
 28 56  1  0  0  0  0
 29 57  1  0  0  0  0
M  END
> <s_m_source_file>
AV-unprocessed.smi

> <i_m_source_file_index>
203

> <i_lp_mmshare_version>
43012

> <i_f3d_flags>
0

> <s_epik_input>
Tz1DMVtDSDJdW0NASF0oW0NIMl1bTkhdMSlbQ0BASF0yW0NIMl1bQ0gyXVtDSDJdW0NIMl1OMmMobltjSF1uMyljKGMzNCluW2NIXW40W0NIMl1bQ0BIXShbT0hdKVtDQEBIXTVbQ0gyXVtDSDJdW0NIMl1PNQ==

> <s_epik_cmdline>
J2VwaWtfcHl0aG9uJywgJy1waCcsICc3LjAnLCAnLXRuJywgJzgnLCAnLW1hJywgJzIwMCcsICctbWV0YWxfYmluZGluZycsICctaW1hZScsICc8aW5maWxlLm1hZT4nLCAnLW9tYWUnLCAnPG91dGZpbGUubWFlPic=

> <r_lp_tautomer_probability>
1

> <r_epik_Ionization_Penalty>
0.00175146

> <r_epik_Ionization_Penalty_Charging>
0

> <r_epik_Ionization_Penalty_Neutral>
0.00175146

> <r_epik_State_Penalty>
0.00109045

> <r_epik_Charging_Adjusted_Penalty>
0.00109045

> <i_epik_Tot_Q>
0

> <i_epik_Tot_abs_Q>
0

> <r_epik_Metal_State_Penalty>
-0

> <b_epik_Metal_Only>
0

> <s_lp_Force_Field>
OPLS_2005

> <r_lp_Energy>
57.3178

> <b_lp_Chiralities_Consistent>
1

> <s_lp_Variant>
AV-unprocessed.smi:203-13

> <Gold.Version>
5.8.1

> <Gold.Id.Protein>
6NUR|6NUR_protein|mol2

> <Gold.PLP.Fitness>
45.7409

> <Gold.PLP.PLP>
-39.7439

> <Gold.PLP.part.hbond>
-3.0000

> <Gold.PLP.part.metal>
0.0000

> <Gold.PLP.part.buried>
-3.0712

> <Gold.PLP.part.nonpolar>
-33.8307

> <Gold.PLP.part.repulsive>
0.5098

> <Gold.PLP.ligand.clash>
0.0000

> <Gold.PLP.ligand.torsion>
1.2648

> <Gold.PLP.Chemscore.Hbond>
2.7520

> <Gold.PLP.Chemscore.CHOScore>
0.0000

> <Gold.PLP.Chemscore.Metal>
0.0000

> <Gold.Chemscore.Hbonds>
donor molecule, donor type, donor heavy atom, donor atom, acceptor molecule, acceptor atom, score
      L1  H    22    47       P1  7948  1.00
      P1  H  7997  8010       L1    12  1.00
      P1  H 10752 10765       L1    14  0.75

> <Gold.PLP.Chemscore.Internal.Correction>
0.2705

> <Gold.Rescore>
     Score         DG    S(hbond)    S(metal)    S(lipo)     H(rot)  DE(clash)    DE(int)     intcor
     17.41     -18.45       2.65        0.00      94.51       2.72       0.01       1.02       ----

> <Gold.Chemscore.Fitness>
17.4124

> <Gold.Chemscore.DG>
-18.4467

> <Gold.Chemscore.ZeroCoef>
-5.4800

> <Gold.Chemscore.Hbond>
2.6541

> <Gold.Chemscore.Metal>
0.0000

> <Gold.Chemscore.Lipo>
94.5104

> <Gold.Chemscore.Internal_Hbond>
0.0000

> <Gold.Chemscore.DEClash>
0.0117

> <Gold.Chemscore.DEInternal>
1.0226

> <Gold.Chemscore.Rot>
2.7171

> <Gold.Chemscore.Internal.Correction>
   9.000000E+99

> <Gold.Chemscore.Hbonds>
donor molecule, donor type, donor heavy atom, donor atom, acceptor molecule, acceptor atom, score
      L1  H    22    47       P1  7948  0.91
      P1  H  7997  8010       L1    12  0.63
      P1  H 10752 10765       L1    14  0.53

> <Gold.Chemscore.Hbond.Weighted>
-8.8646

> <Gold.Chemscore.Metal.Weighted>
-0.0000

> <Gold.Chemscore.Lipo.Weighted>
-11.0577

> <Gold.Chemscore.Internal_Hbond.Weighted>
0.0000

> <Gold.Chemscore.DEClash.Weighted>
0.0117

> <Gold.Chemscore.DEInternal.Weighted>
1.0226

> <Gold.Chemscore.Rot.Weighted>
6.9557

> <Gold.Chemscore.Internal.Correction.Weighted>
   9.000000E+99

> <Gold.Protein.RotatedTorsions>
[ 6907 6896 6895 6894 ] final  -32.88 input  -60.11 | X-H torsion
[ 7974 7965 7964 7962 ] final -145.82 input  175.53 | X-H torsion
[ 8008 7997 7996 7995 ] final   65.62 input   59.86 | X-H torsion
[ 10167 10162 10161 10158 ] final   96.82 input  -65.29 | X-H torsion
[ 10718 10713 10712 10709 ] final  -34.66 input   66.30 | X-H torsion
[ 10763 10752 10751 10750 ] final -166.63 input  -60.55 | X-H torsion
[ 11005 11000 10999 10996 ] final  110.37 input  -57.11 | X-H torsion

> <Gold.Protein.ActiveResidues>
 VAL166  LYS551  ARG553  GLY616  TRP617  ASP618  TYR619  PRO620  LYS621  CYS622 
 ASP623  PHE694  ASN695  SER759  ASP760  ASP761  ALA762  ILE779  LEU786  VAL792 
 PHE793  MET794  SER795  GLU796  ALA797  LYS798  CYS799  TRP800  GLU811  SER814 

> <Gold.Protein.RotatedAtoms>
  151.0729  134.9810  159.8317 H   0  0  0  0  0  0  0  0  0  0  0  0  # atno 6907 bound_to 6896
  152.5410  134.2276  159.8822 H   0  0  0  0  0  0  0  0  0  0  0  0  # atno 6908 bound_to 6896
  151.2302  133.4411  159.2637 H   0  0  0  0  0  0  0  0  0  0  0  0  # atno 6909 bound_to 6896
  144.8201  140.5535  143.5584 H   0  0  0  0  0  0  0  0  0  0  0  0  # atno 7974 bound_to 7965
  155.6645  140.3497  155.4795 H   0  0  0  0  0  0  0  0  0  0  0  0  # atno 8008 bound_to 7997
  155.9740  140.1161  157.0809 H   0  0  0  0  0  0  0  0  0  0  0  0  # atno 8009 bound_to 7997
  154.4174  140.1151  156.5332 H   0  0  0  0  0  0  0  0  0  0  0  0  # atno 8010 bound_to 7997
  139.7859  144.6871  150.9959 H   0  0  0  0  0  0  0  0  0  0  0  0  # atno 10167 bound_to 10162
  156.3479  130.4303  149.7730 H   0  0  0  0  0  0  0  0  0  0  0  0  # atno 10718 bound_to 10713
  154.6814  135.2955  154.9608 H   0  0  0  0  0  0  0  0  0  0  0  0  # atno 10763 bound_to 10752
  154.0602  135.6632  153.4815 H   0  0  0  0  0  0  0  0  0  0  0  0  # atno 10764 bound_to 10752
  153.0550  135.5150  154.7858 H   0  0  0  0  0  0  0  0  0  0  0  0  # atno 10765 bound_to 10752
  139.8880  134.9482  156.6268 H   0  0  0  0  0  0  0  0  0  0  0  0  # atno 11005 bound_to 11000
  145.5124  139.1479  143.3597 LP  0  0  0  0  0  0  0  0  0  0  0  0  # atno 17320 bound_to 7965
  146.2506  140.5264  142.8895 LP  0  0  0  0  0  0  0  0  0  0  0  0  # atno 17321 bound_to 7965
  140.7819  143.4433  151.0520 LP  0  0  0  0  0  0  0  0  0  0  0  0  # atno 17342 bound_to 10162
  139.8111  143.7949  152.3171 LP  0  0  0  0  0  0  0  0  0  0  0  0  # atno 17343 bound_to 10162
  156.4942  130.8099  151.3107 LP  0  0  0  0  0  0  0  0  0  0  0  0  # atno 17370 bound_to 10713
  157.7457  130.9966  150.2784 LP  0  0  0  0  0  0  0  0  0  0  0  0  # atno 17371 bound_to 10713
  140.7697  133.8749  155.8482 LP  0  0  0  0  0  0  0  0  0  0  0  0  # atno 17394 bound_to 11000
  140.9852  134.1352  157.4458 LP  0  0  0  0  0  0  0  0  0  0  0  0  # atno 17395 bound_to 11000

$$$$
