AV-unprocessed.smi:1701|AV-procd|sdf|6840|dock1
  -GOLD-   22720 8 13D 1   1.00000     0.00000
 Structure written by MMmdl.
 54 56  0  0  0  0  0  0  0  0  4 V2000
  153.6177  142.1305  159.7444 C   0  0  0  0  0  0  0  0  0  0  0  0
  152.1894  142.6742  159.5909 C   0  0  0  0  0  0  0  0  0  0  0  0
  151.8295  142.9360  158.1973 N   0  0  0  0  0  0  0  0  0  0  0  0
  151.6320  144.3357  157.8128 C   0  0  0  0  0  0  0  0  0  0  0  0
  152.1695  145.3274  158.8566 C   0  0  0  0  0  0  0  0  0  0  0  0
  151.0548  141.9376  157.5615 C   0  0  0  0  0  0  0  0  0  0  0  0
  151.3042  140.5555  157.7402 C   0  0  0  0  0  0  0  0  0  0  0  0
  150.4957  139.6050  157.0846 C   0  0  0  0  0  0  0  0  0  0  0  0
  149.4344  140.0350  156.2628 C   0  0  0  0  0  0  0  0  0  0  0  0
  148.6635  139.0402  155.6036 N   0  0  0  0  0  0  0  0  0  0  0  0
  149.0068  137.7764  155.2517 C   0  0  0  0  0  0  0  0  0  0  0  0
  150.1529  137.3867  155.4673 O   0  0  0  0  0  0  0  0  0  0  0  0
  148.0878  136.9689  154.6401 N   0  5  0  0  0  0  0  0  0  0  0  0
  146.6226  137.1224  154.5606 C   0  0  1  0  0  0  0  0  0  0  0  0
  146.2786  138.4127  153.7902 C   0  0  0  0  0  0  0  0  0  0  0  0
  146.1363  138.0000  152.3100 C   0  0  0  0  0  0  0  0  0  0  0  0
  146.3155  136.5345  152.2843 N   0  3  2  0  0  0  0  0  0  0  0  0
  145.5991  135.7865  151.2273 C   0  0  0  0  0  0  0  0  0  0  0  0
  145.9566  134.2893  151.3206 C   0  0  0  0  0  0  0  0  0  0  0  0
  145.7067  133.7257  152.7345 C   0  0  0  0  0  0  0  0  0  0  0  0
  146.4236  134.5728  153.8033 C   0  0  0  0  0  0  0  0  0  0  0  0
  146.0101  136.0526  153.6413 C   0  0  1  0  0  0  0  0  0  0  0  0
  149.2323  141.4258  156.1029 C   0  0  0  0  0  0  0  0  0  0  0  0
  150.0320  142.3016  156.7489 N   0  3  0  0  0  0  0  0  0  0  0  0
  153.8430  141.9333  160.7924 H   0  0  0  0  0  0  0  0  0  0  0  0
  154.3573  142.8419  159.3759 H   0  0  0  0  0  0  0  0  0  0  0  0
  153.7491  141.1958  159.1985 H   0  0  0  0  0  0  0  0  0  0  0  0
  151.4852  141.9471  159.9968 H   0  0  0  0  0  0  0  0  0  0  0  0
  152.0644  143.5656  160.2035 H   0  0  0  0  0  0  0  0  0  0  0  0
  152.0928  144.5224  156.8420 H   0  0  0  0  0  0  0  0  0  0  0  0
  150.5657  144.5193  157.6758 H   0  0  0  0  0  0  0  0  0  0  0  0
  151.9683  146.3533  158.5483 H   0  0  0  0  0  0  0  0  0  0  0  0
  153.2458  145.2358  158.9997 H   0  0  0  0  0  0  0  0  0  0  0  0
  151.6901  145.1746  159.8238 H   0  0  0  0  0  0  0  0  0  0  0  0
  152.1173  140.2082  158.3590 H   0  0  0  0  0  0  0  0  0  0  0  0
  150.6917  138.5506  157.2155 H   0  0  0  0  0  0  0  0  0  0  0  0
  147.7427  139.3322  155.3106 H   0  0  0  0  0  0  0  0  0  0  0  0
  146.1461  137.1078  155.5416 H   0  0  0  0  0  0  0  0  0  0  0  0
  145.3254  138.8049  154.1466 H   0  0  0  0  0  0  0  0  0  0  0  0
  147.0166  139.2041  153.9290 H   0  0  0  0  0  0  0  0  0  0  0  0
  145.1507  138.2782  151.9334 H   0  0  0  0  0  0  0  0  0  0  0  0
  146.8853  138.4769  151.6768 H   0  0  0  0  0  0  0  0  0  0  0  0
  144.5230  135.9282  151.3389 H   0  0  0  0  0  0  0  0  0  0  0  0
  145.8774  136.1805  150.2494 H   0  0  0  0  0  0  0  0  0  0  0  0
  145.3829  133.7229  150.5866 H   0  0  0  0  0  0  0  0  0  0  0  0
  147.0072  134.1534  151.0614 H   0  0  0  0  0  0  0  0  0  0  0  0
  144.6349  133.7154  152.9371 H   0  0  0  0  0  0  0  0  0  0  0  0
  146.0420  132.6897  152.7904 H   0  0  0  0  0  0  0  0  0  0  0  0
  146.1697  134.2046  154.7986 H   0  0  0  0  0  0  0  0  0  0  0  0
  147.5020  134.4485  153.6880 H   0  0  0  0  0  0  0  0  0  0  0  0
  144.9267  136.1064  153.7715 H   0  0  0  0  0  0  0  0  0  0  0  0
  148.4764  141.8752  155.4764 H   0  0  0  0  0  0  0  0  0  0  0  0
  147.3053  136.3745  152.1602 H   0  0  0  0  0  0  0  0  0  0  0  0
  149.8561  143.2970  156.6127 H   0  0  0  0  0  0  0  0  0  0  0  0
  1  2  1  0  0  0  0
  1 25  1  0  0  0  0
  1 26  1  0  0  0  0
  1 27  1  0  0  0  0
  2  3  1  0  0  0  0
  2 28  1  0  0  0  0
  2 29  1  0  0  0  0
  3  4  1  0  0  0  0
  3  6  1  0  0  0  0
  4  5  1  0  0  0  0
  4 30  1  0  0  0  0
  4 31  1  0  0  0  0
  5 32  1  0  0  0  0
  5 33  1  0  0  0  0
  5 34  1  0  0  0  0
  6 24  1  0  0  0  0
  6  7  2  0  0  0  0
  7  8  1  0  0  0  0
  7 35  1  0  0  0  0
  8  9  2  0  0  0  0
  8 36  1  0  0  0  0
  9 10  1  0  0  0  0
  9 23  1  0  0  0  0
 10 11  1  0  0  0  0
 10 37  1  0  0  0  0
 11 12  2  0  0  0  0
 11 13  1  0  0  0  0
 13 14  1  0  0  0  0
 14 22  1  0  0  0  0
 14 15  1  0  0  0  0
 14 38  1  0  0  0  0
 15 16  1  0  0  0  0
 15 39  1  0  0  0  0
 15 40  1  0  0  0  0
 16 17  1  0  0  0  0
 16 41  1  0  0  0  0
 16 42  1  0  0  0  0
 17 22  1  0  0  0  0
 17 18  1  0  0  0  0
 17 53  1  0  0  0  0
 18 19  1  0  0  0  0
 18 43  1  0  0  0  0
 18 44  1  0  0  0  0
 19 20  1  0  0  0  0
 19 45  1  0  0  0  0
 19 46  1  0  0  0  0
 20 21  1  0  0  0  0
 20 47  1  0  0  0  0
 20 48  1  0  0  0  0
 21 22  1  0  0  0  0
 21 49  1  0  0  0  0
 21 50  1  0  0  0  0
 22 51  1  0  0  0  0
 23 24  2  0  0  0  0
 23 52  1  0  0  0  0
 24 54  1  0  0  0  0
M  CHG  1  13  -1
M  CHG  1  17   1
M  CHG  1  24   1
M  END
> <s_m_source_file>
AV-unprocessed.smi

> <i_m_source_file_index>
1701

> <i_lp_mmshare_version>
43012

> <i_f3d_flags>
0

> <s_epik_input>
W0NIM11bQ0gyXU4oW0NIMl1bQ0gzXSljMVtjSF1bY0hdYyhbY0hdbjEpW05IXUMoPU8pW05IXVtDQEhdKFtDSDJdW0NIMl0yKVtDQEBIXShOMjMpW0NIMl1bQ0gyXVtDSDJdW0NIMl0z

> <s_epik_cmdline>
J2VwaWtfcHl0aG9uJywgJy1waCcsICc3LjAnLCAnLXRuJywgJzgnLCAnLW1hJywgJzIwMCcsICctbWV0YWxfYmluZGluZycsICctaW1hZScsICc8aW5maWxlLm1hZT4nLCAnLW9tYWUnLCAnPG91dGZpbGUubWFlPic=

> <r_lp_tautomer_probability>
0.999994

> <r_epik_Ionization_Penalty>
7.37095

> <r_epik_Ionization_Penalty_Charging>
7.37095

> <r_epik_Ionization_Penalty_Neutral>
3.78969e-06

> <r_epik_State_Penalty>
6.83842

> <r_epik_Charging_Adjusted_Penalty>
14.2094

> <i_epik_Tot_Q>
1

> <i_epik_Tot_abs_Q>
3

> <r_epik_Metal_State_Penalty>
2.78552

> <b_epik_Metal_Only>
1

> <s_lp_Force_Field>
OPLS_2005

> <r_lp_Energy>
51.4286

> <b_lp_Chiralities_Consistent>
1

> <s_lp_Variant>
AV-unprocessed.smi:1701-20

> <Gold.Version>
5.8.1

> <Gold.Id.Protein>
6NUR|6NUR_protein|mol2

> <Gold.PLP.Fitness>
51.0120

> <Gold.PLP.PLP>
-40.0174

> <Gold.PLP.part.hbond>
-2.0000

> <Gold.PLP.part.metal>
0.0000

> <Gold.PLP.part.buried>
-6.9059

> <Gold.PLP.part.nonpolar>
-34.1754

> <Gold.PLP.part.repulsive>
1.5731

> <Gold.PLP.ligand.clash>
0.0000

> <Gold.PLP.ligand.torsion>
0.9525

> <Gold.PLP.Chemscore.Hbond>
3.9200

> <Gold.PLP.Chemscore.CHOScore>
0.0000

> <Gold.PLP.Chemscore.Metal>
0.0000

> <Gold.Chemscore.Hbonds>
donor molecule, donor type, donor heavy atom, donor atom, acceptor molecule, acceptor atom, score
      L1  H    17    53       P1  7948  2.00
      L1  H    24    54       P1  8028  1.98

> <Gold.PLP.Chemscore.Internal.Correction>
1.1395

> <Gold.Rescore>
     Score         DG    S(hbond)    S(metal)    S(lipo)     H(rot)  DE(clash)    DE(int)     intcor
     17.61     -20.40       1.92        0.00     100.81       1.28       0.40       2.39       ----

> <Gold.Chemscore.Fitness>
17.6054

> <Gold.Chemscore.DG>
-20.3997

> <Gold.Chemscore.ZeroCoef>
-5.4800

> <Gold.Chemscore.Hbond>
1.9196

> <Gold.Chemscore.Metal>
0.0000

> <Gold.Chemscore.Lipo>
100.8098

> <Gold.Chemscore.Internal_Hbond>
0.0000

> <Gold.Chemscore.DEClash>
0.4035

> <Gold.Chemscore.DEInternal>
2.3908

> <Gold.Chemscore.Rot>
1.2838

> <Gold.Chemscore.Internal.Correction>
   9.000000E+99

> <Gold.Chemscore.Hbonds>
donor molecule, donor type, donor heavy atom, donor atom, acceptor molecule, acceptor atom, score
      L1  H    17    53       P1  7948  1.00
      L1  H    24    54       P1  8028  0.92

> <Gold.Chemscore.Hbond.Weighted>
-6.4115

> <Gold.Chemscore.Metal.Weighted>
-0.0000

> <Gold.Chemscore.Lipo.Weighted>
-11.7947

> <Gold.Chemscore.Internal_Hbond.Weighted>
0.0000

> <Gold.Chemscore.DEClash.Weighted>
0.4035

> <Gold.Chemscore.DEInternal.Weighted>
2.3908

> <Gold.Chemscore.Rot.Weighted>
3.2865

> <Gold.Chemscore.Internal.Correction.Weighted>
   9.000000E+99

> <Gold.Protein.RotatedTorsions>
[ 6907 6896 6895 6894 ] final   20.85 input  -60.11 | X-H torsion
[ 7974 7965 7964 7962 ] final  -38.68 input  175.53 | X-H torsion
[ 8008 7997 7996 7995 ] final -111.24 input   59.86 | X-H torsion
[ 10167 10162 10161 10158 ] final -150.56 input  -65.29 | X-H torsion
[ 10718 10713 10712 10709 ] final -134.09 input   66.30 | X-H torsion
[ 10763 10752 10751 10750 ] final -113.29 input  -60.55 | X-H torsion
[ 11005 11000 10999 10996 ] final  130.38 input  -57.11 | X-H torsion

> <Gold.Protein.ActiveResidues>
 VAL166  LYS551  ARG553  GLY616  TRP617  ASP618  TYR619  PRO620  LYS621  CYS622 
 ASP623  PHE694  ASN695  SER759  ASP760  ASP761  ALA762  ILE779  LEU786  VAL792 
 PHE793  MET794  SER795  GLU796  ALA797  LYS798  CYS799  TRP800  GLU811  SER814 

> <Gold.Protein.RotatedAtoms>
  151.9027  135.0372  160.0507 H   0  0  0  0  0  0  0  0  0  0  0  0  # atno 6907 bound_to 6896
  152.2345  133.5080  159.5243 H   0  0  0  0  0  0  0  0  0  0  0  0  # atno 6908 bound_to 6896
  150.7035  134.1089  159.4035 H   0  0  0  0  0  0  0  0  0  0  0  0  # atno 6909 bound_to 6896
  146.0465  140.6539  142.9062 H   0  0  0  0  0  0  0  0  0  0  0  0  # atno 7974 bound_to 7965
  154.9868  140.0395  157.2302 H   0  0  0  0  0  0  0  0  0  0  0  0  # atno 8008 bound_to 7997
  154.7664  140.2794  155.6150 H   0  0  0  0  0  0  0  0  0  0  0  0  # atno 8009 bound_to 7997
  156.2913  140.2618  156.2455 H   0  0  0  0  0  0  0  0  0  0  0  0  # atno 8010 bound_to 7997
  139.7343  143.8759  152.2544 H   0  0  0  0  0  0  0  0  0  0  0  0  # atno 10167 bound_to 10162
  156.2518  130.7158  151.1060 H   0  0  0  0  0  0  0  0  0  0  0  0  # atno 10718 bound_to 10713
  154.8389  135.4459  154.1326 H   0  0  0  0  0  0  0  0  0  0  0  0  # atno 10763 bound_to 10752
  153.2533  135.6929  153.7662 H   0  0  0  0  0  0  0  0  0  0  0  0  # atno 10764 bound_to 10752
  153.6967  135.3378  155.3190 H   0  0  0  0  0  0  0  0  0  0  0  0  # atno 10765 bound_to 10752
  139.9669  134.9588  156.9285 H   0  0  0  0  0  0  0  0  0  0  0  0  # atno 11005 bound_to 11000
  144.7100  140.4003  143.7088 LP  0  0  0  0  0  0  0  0  0  0  0  0  # atno 17320 bound_to 7965
  145.6797  139.1616  143.2708 LP  0  0  0  0  0  0  0  0  0  0  0  0  # atno 17321 bound_to 7965
  139.8691  144.7077  150.9008 LP  0  0  0  0  0  0  0  0  0  0  0  0  # atno 17342 bound_to 10162
  140.7776  143.3753  151.1575 LP  0  0  0  0  0  0  0  0  0  0  0  0  # atno 17343 bound_to 10162
  157.7217  131.0677  150.6106 LP  0  0  0  0  0  0  0  0  0  0  0  0  # atno 17370 bound_to 10713
  156.6187  130.4400  149.5831 LP  0  0  0  0  0  0  0  0  0  0  0  0  # atno 17371 bound_to 10713
  140.5378  134.0750  155.7333 LP  0  0  0  0  0  0  0  0  0  0  0  0  # atno 17394 bound_to 11000
  141.1348  133.9240  157.2457 LP  0  0  0  0  0  0  0  0  0  0  0  0  # atno 17395 bound_to 11000

$$$$
