AV-unprocessed.smi:1412|AV-procd|sdf|5743|dock8
  -GOLD-   22720 5383D 1   1.00000     0.00000
 Structure written by MMmdl.
 42 43  0  0  0  0  0  0  0  0  2 V2000
  147.7146  139.1655  156.6730 C   0  0  0  0  0  0  0  0  0  0  0  0
  146.8562  138.4135  155.6406 C   0  0  0  0  0  0  0  0  0  0  0  0
  147.4191  138.3643  154.1870 C   0  0  2  0  0  0  0  0  0  0  0  0
  147.4525  139.8019  153.6054 C   0  0  0  0  0  0  0  0  0  0  0  0
  146.4679  137.5133  153.2877 C   0  0  0  0  0  0  0  0  0  0  0  0
  145.0716  137.9536  153.3112 N   0  0  0  0  0  0  0  0  0  0  0  0
  144.0169  137.1879  153.6258 C   0  0  0  0  0  0  0  0  0  0  0  0
  144.1130  136.0095  153.9680 O   0  0  0  0  0  0  0  0  0  0  0  0
  142.8665  137.8759  153.5172 N   0  0  0  0  0  0  0  0  0  0  0  0
  141.5433  137.4189  153.7582 C   0  0  0  0  0  0  0  0  0  0  0  0
  141.2567  136.2675  154.3855 N   0  0  0  0  0  0  0  0  0  0  0  0
  139.8876  136.0596  154.4896 N   0  0  0  0  0  0  0  0  0  0  0  0
  139.1962  137.0610  153.9384 C   0  0  0  0  0  0  0  0  0  0  0  0
  140.1504  138.3588  153.2412 S   0  0  0  0  0  0  0  0  0  0  0  0
  148.8121  137.7824  154.1668 N   0  3  0  0  0  0  0  0  0  0  0  0
  149.9288  138.7320  154.4382 C   0  0  0  0  0  0  0  0  0  0  0  0
  151.2860  138.0523  154.1887 C   0  0  0  0  0  0  0  0  0  0  0  0
  151.3998  136.8889  154.9962 O   0  0  0  0  0  0  0  0  0  0  0  0
  150.3915  135.9355  154.6923 C   0  0  0  0  0  0  0  0  0  0  0  0
  149.0087  136.5447  154.9737 C   0  0  0  0  0  0  0  0  0  0  0  0
  147.2375  139.1374  157.6528 H   0  0  0  0  0  0  0  0  0  0  0  0
  147.8423  140.2150  156.4100 H   0  0  0  0  0  0  0  0  0  0  0  0
  148.7025  138.7200  156.7857 H   0  0  0  0  0  0  0  0  0  0  0  0
  146.7074  137.4018  156.0164 H   0  0  0  0  0  0  0  0  0  0  0  0
  145.8711  138.8791  155.6439 H   0  0  0  0  0  0  0  0  0  0  0  0
  146.4535  140.1645  153.3621 H   0  0  0  0  0  0  0  0  0  0  0  0
  148.0388  139.8520  152.6874 H   0  0  0  0  0  0  0  0  0  0  0  0
  147.8759  140.5201  154.3077 H   0  0  0  0  0  0  0  0  0  0  0  0
  146.7969  137.5512  152.2492 H   0  0  0  0  0  0  0  0  0  0  0  0
  146.5239  136.4566  153.5530 H   0  0  0  0  0  0  0  0  0  0  0  0
  144.8938  138.9065  153.0290 H   0  0  0  0  0  0  0  0  0  0  0  0
  142.9423  138.8359  153.2153 H   0  0  0  0  0  0  0  0  0  0  0  0
  138.1166  137.0352  153.9427 H   0  0  0  0  0  0  0  0  0  0  0  0
  149.8789  139.6095  153.7966 H   0  0  0  0  0  0  0  0  0  0  0  0
  149.8843  139.0835  155.4690 H   0  0  0  0  0  0  0  0  0  0  0  0
  151.4032  137.7925  153.1353 H   0  0  0  0  0  0  0  0  0  0  0  0
  152.0982  138.7348  154.4395 H   0  0  0  0  0  0  0  0  0  0  0  0
  150.4734  135.6145  153.6525 H   0  0  0  0  0  0  0  0  0  0  0  0
  150.5454  135.0515  155.3115 H   0  0  0  0  0  0  0  0  0  0  0  0
  148.9288  136.7693  156.0375 H   0  0  0  0  0  0  0  0  0  0  0  0
  148.2543  135.7932  154.7482 H   0  0  0  0  0  0  0  0  0  0  0  0
  148.9445  137.4959  153.2073 H   0  0  0  0  0  0  0  0  0  0  0  0
  1  2  1  0  0  0  0
  1 21  1  0  0  0  0
  1 22  1  0  0  0  0
  1 23  1  0  0  0  0
  2  3  1  0  0  0  0
  2 24  1  0  0  0  0
  2 25  1  0  0  0  0
  3  4  1  0  0  0  0
  3  5  1  0  0  0  0
  3 15  1  0  0  0  0
  4 26  1  0  0  0  0
  4 27  1  0  0  0  0
  4 28  1  0  0  0  0
  5  6  1  0  0  0  0
  5 29  1  0  0  0  0
  5 30  1  0  0  0  0
  6  7  1  0  0  0  0
  6 31  1  0  0  0  0
  7  8  2  0  0  0  0
  7  9  1  0  0  0  0
  9 10  1  0  0  0  0
  9 32  1  0  0  0  0
 10 14  1  0  0  0  0
 10 11  2  0  0  0  0
 11 12  1  0  0  0  0
 12 13  2  0  0  0  0
 13 14  1  0  0  0  0
 13 33  1  0  0  0  0
 15 20  1  0  0  0  0
 15 16  1  0  0  0  0
 15 42  1  0  0  0  0
 16 17  1  0  0  0  0
 16 34  1  0  0  0  0
 16 35  1  0  0  0  0
 17 18  1  0  0  0  0
 17 36  1  0  0  0  0
 17 37  1  0  0  0  0
 18 19  1  0  0  0  0
 19 20  1  0  0  0  0
 19 38  1  0  0  0  0
 19 39  1  0  0  0  0
 20 40  1  0  0  0  0
 20 41  1  0  0  0  0
M  CHG  1  15   1
M  END
> <s_m_source_file>
AV-unprocessed.smi

> <i_m_source_file_index>
1412

> <i_lp_mmshare_version>
43012

> <i_f3d_flags>
0

> <s_epik_input>
W0NIMl0xW0NIMl1PW0NIMl1bQ0gyXU4xW0NAQF0oW0NIM10pKFtDSDJdW0NIM10pW0NIMl1bTkhdQyg9TylbTkhdYzJubltjSF1zMg==

> <s_epik_cmdline>
J2VwaWtfcHl0aG9uJywgJy1waCcsICc3LjAnLCAnLXRuJywgJzgnLCAnLW1hJywgJzIwMCcsICctbWV0YWxfYmluZGluZycsICctaW1hZScsICc8aW5maWxlLm1hZT4nLCAnLW9tYWUnLCAnPG91dGZpbGUubWFlPic=

> <r_lp_tautomer_probability>
1

> <r_epik_Ionization_Penalty>
0.554649

> <r_epik_Ionization_Penalty_Charging>
0.553838

> <r_epik_Ionization_Penalty_Neutral>
0.000811527

> <r_epik_State_Penalty>
0.564424

> <r_epik_Charging_Adjusted_Penalty>
1.11826

> <i_epik_Tot_Q>
1

> <i_epik_Tot_abs_Q>
1

> <r_epik_Metal_State_Penalty>
0.786249

> <b_epik_Metal_Only>
0

> <s_lp_Force_Field>
OPLS_2005

> <r_lp_Energy>
32.8849

> <b_lp_Chiralities_Consistent>
1

> <s_lp_Variant>
AV-unprocessed.smi:1412-4

> <Gold.Version>
5.8.1

> <Gold.Id.Protein>
6NUR|6NUR_protein|mol2

> <Gold.PLP.Fitness>
41.3459

> <Gold.PLP.PLP>
-25.8882

> <Gold.PLP.part.hbond>
-5.3064

> <Gold.PLP.part.metal>
0.0000

> <Gold.PLP.part.buried>
-2.0901

> <Gold.PLP.part.nonpolar>
-17.6762

> <Gold.PLP.part.repulsive>
0.3001

> <Gold.PLP.ligand.clash>
0.0000

> <Gold.PLP.ligand.torsion>
0.6497

> <Gold.PLP.Chemscore.Hbond>
5.5348

> <Gold.PLP.Chemscore.CHOScore>
0.0000

> <Gold.PLP.Chemscore.Metal>
0.0000

> <Gold.Chemscore.Hbonds>
donor molecule, donor type, donor heavy atom, donor atom, acceptor molecule, acceptor atom, score
      L1  H     6    31       P1 10175  0.94
      L1  H     9    32       P1 10175  1.00
      L1  H    15    42       P1  7948  2.00
      P1  H 10752 10764       L1    18  0.67
      P1  H 11000 11005       L1    12  0.90

> <Gold.PLP.Chemscore.Internal.Correction>
0.1528

> <Gold.Rescore>
     Score         DG    S(hbond)    S(metal)    S(lipo)     H(rot)  DE(clash)    DE(int)     intcor
     16.41     -18.47       3.45        0.00      54.30       1.91       0.21       1.86       ----

> <Gold.Chemscore.Fitness>
16.4076

> <Gold.Chemscore.DG>
-18.4715

> <Gold.Chemscore.ZeroCoef>
-5.4800

> <Gold.Chemscore.Hbond>
3.4544

> <Gold.Chemscore.Metal>
0.0000

> <Gold.Chemscore.Lipo>
54.3049

> <Gold.Chemscore.Internal_Hbond>
0.0000

> <Gold.Chemscore.DEClash>
0.2067

> <Gold.Chemscore.DEInternal>
1.8572

> <Gold.Chemscore.Rot>
1.9140

> <Gold.Chemscore.Internal.Correction>
   9.000000E+99

> <Gold.Chemscore.Hbonds>
donor molecule, donor type, donor heavy atom, donor atom, acceptor molecule, acceptor atom, score
      L1  H     6    31       P1 10175  0.87
      L1  H     9    32       P1 10175  1.00
      L1  H    15    42       P1  7948  0.98
      P1  H 10752 10764       L1    18  0.06
      P1  H 11000 11005       L1    12  0.16

> <Gold.Chemscore.Hbond.Weighted>
-11.5376

> <Gold.Chemscore.Metal.Weighted>
-0.0000

> <Gold.Chemscore.Lipo.Weighted>
-6.3537

> <Gold.Chemscore.Internal_Hbond.Weighted>
0.0000

> <Gold.Chemscore.DEClash.Weighted>
0.2067

> <Gold.Chemscore.DEInternal.Weighted>
1.8572

> <Gold.Chemscore.Rot.Weighted>
4.8998

> <Gold.Chemscore.Internal.Correction.Weighted>
   9.000000E+99

> <Gold.Protein.RotatedTorsions>
[ 6907 6896 6895 6894 ] final -151.56 input  -60.11 | X-H torsion
[ 7974 7965 7964 7962 ] final   35.35 input  175.53 | X-H torsion
[ 8008 7997 7996 7995 ] final  -34.32 input   59.86 | X-H torsion
[ 10167 10162 10161 10158 ] final   18.16 input  -65.29 | X-H torsion
[ 10718 10713 10712 10709 ] final   43.62 input   66.30 | X-H torsion
[ 10763 10752 10751 10750 ] final  -62.76 input  -60.55 | X-H torsion
[ 11005 11000 10999 10996 ] final   76.23 input  -57.11 | X-H torsion

> <Gold.Protein.ActiveResidues>
 VAL166  LYS551  ARG553  GLY616  TRP617  ASP618  TYR619  PRO620  LYS621  CYS622 
 ASP623  PHE694  ASN695  SER759  ASP760  ASP761  ALA762  ILE779  LEU786  VAL792 
 PHE793  MET794  SER795  GLU796  ALA797  LYS798  CYS799  TRP800  GLU811  SER814 

> <Gold.Protein.RotatedAtoms>
  151.2148  133.4535  159.2598 H   0  0  0  0  0  0  0  0  0  0  0  0  # atno 6907 bound_to 6896
  151.0941  134.9934  159.8427 H   0  0  0  0  0  0  0  0  0  0  0  0  # atno 6908 bound_to 6896
  152.5437  134.2080  159.8791 H   0  0  0  0  0  0  0  0  0  0  0  0  # atno 6909 bound_to 6896
  146.1289  139.6154  142.9240 H   0  0  0  0  0  0  0  0  0  0  0  0  # atno 7974 bound_to 7965
  154.4124  140.1687  156.2031 H   0  0  0  0  0  0  0  0  0  0  0  0  # atno 8008 bound_to 7997
  155.9507  140.3401  155.6382 H   0  0  0  0  0  0  0  0  0  0  0  0  # atno 8009 bound_to 7997
  155.6873  140.0729  157.2452 H   0  0  0  0  0  0  0  0  0  0  0  0  # atno 8010 bound_to 7997
  140.5673  143.9227  150.6686 H   0  0  0  0  0  0  0  0  0  0  0  0  # atno 10167 bound_to 10162
  157.4179  130.7952  149.7488 H   0  0  0  0  0  0  0  0  0  0  0  0  # atno 10718 bound_to 10713
  154.3047  135.6227  153.5440 H   0  0  0  0  0  0  0  0  0  0  0  0  # atno 10763 bound_to 10752
  152.9836  135.5687  154.5244 H   0  0  0  0  0  0  0  0  0  0  0  0  # atno 10764 bound_to 10752
  154.4882  135.2866  155.1494 H   0  0  0  0  0  0  0  0  0  0  0  0  # atno 10765 bound_to 10752
  139.9308  134.7583  156.1369 H   0  0  0  0  0  0  0  0  0  0  0  0  # atno 11005 bound_to 11000
  145.5304  141.0427  143.2386 LP  0  0  0  0  0  0  0  0  0  0  0  0  # atno 17320 bound_to 7965
  144.7670  139.6822  143.7210 LP  0  0  0  0  0  0  0  0  0  0  0  0  # atno 17321 bound_to 7965
  140.2693  143.3467  152.1252 LP  0  0  0  0  0  0  0  0  0  0  0  0  # atno 17342 bound_to 10162
  139.5099  144.6876  151.5847 LP  0  0  0  0  0  0  0  0  0  0  0  0  # atno 17343 bound_to 10162
  155.9871  130.3969  150.3181 LP  0  0  0  0  0  0  0  0  0  0  0  0  # atno 17370 bound_to 10713
  157.1326  131.0276  151.2962 LP  0  0  0  0  0  0  0  0  0  0  0  0  # atno 17371 bound_to 10713
  141.0895  133.6720  156.2508 LP  0  0  0  0  0  0  0  0  0  0  0  0  # atno 17394 bound_to 11000
  140.6208  134.5363  157.5547 LP  0  0  0  0  0  0  0  0  0  0  0  0  # atno 17395 bound_to 11000

$$$$
