AV-unprocessed.smi:1056|AV-procd|sdf|4639|dock6
  -GOLD-   22720 3143D 1   1.00000     0.00000
 Structure written by MMmdl.
 44 46  0  0  0  0  0  0  0  0  1 V2000
  151.5295  144.8224  159.5801 C   0  0  0  0  0  0  0  0  0  0  0  0
  152.1379  143.4366  159.7057 C   0  0  0  0  0  0  0  0  0  0  0  0
  153.0963  143.1957  160.7159 C   0  0  0  0  0  0  0  0  0  0  0  0
  153.6849  141.9208  160.8666 C   0  0  0  0  0  0  0  0  0  0  0  0
  154.6283  141.4685  161.7735 N   0  0  0  0  0  0  0  0  0  0  0  0
  154.7670  140.1988  161.4038 C   0  0  0  0  0  0  0  0  0  0  0  0
  154.0249  139.7742  160.3634 N   0  0  0  0  0  0  0  0  0  0  0  0
  154.0105  138.4406  159.7889 C   0  0  0  0  0  0  0  0  0  0  0  0
  153.5371  137.3703  160.7915 C   0  0  1  0  0  0  0  0  0  0  0  0
  153.4986  136.1119  160.1463 O   0  0  0  0  0  0  0  0  0  0  0  0
  154.4845  137.2732  162.0054 C   0  0  0  0  0  0  0  0  0  0  0  0
  154.0924  136.3141  163.0533 N   0  0  0  0  0  0  0  0  0  0  0  0
  153.9306  136.9178  164.3809 C   0  0  0  0  0  0  0  0  0  0  0  0
  155.2521  137.4320  164.9870 C   0  0  0  0  0  0  0  0  0  0  0  0
  156.3648  136.5112  164.7566 N   0  0  0  0  0  0  0  0  0  0  0  0
  156.3463  135.4862  163.8867 C   0  0  0  0  0  0  0  0  0  0  0  0
  157.3337  134.7810  163.6938 O   0  0  0  0  0  0  0  0  0  0  0  0
  155.0301  135.1839  163.1419 C   0  0  0  0  0  0  0  0  0  0  0  0
  153.2866  140.8857  159.9710 C   0  0  0  0  0  0  0  0  0  0  0  0
  152.3335  141.1131  158.9626 C   0  0  0  0  0  0  0  0  0  0  0  0
  151.7548  142.3922  158.8263 C   0  0  0  0  0  0  0  0  0  0  0  0
  150.7252  142.6268  157.7352 C   0  0  0  0  0  0  0  0  0  0  0  0
  151.9114  145.4962  160.3478 H   0  0  0  0  0  0  0  0  0  0  0  0
  150.4453  144.7762  159.6859 H   0  0  0  0  0  0  0  0  0  0  0  0
  151.7652  145.2554  158.6076 H   0  0  0  0  0  0  0  0  0  0  0  0
  153.3885  143.9907  161.3861 H   0  0  0  0  0  0  0  0  0  0  0  0
  155.4472  139.5367  161.9196 H   0  0  0  0  0  0  0  0  0  0  0  0
  153.3737  138.4473  158.9034 H   0  0  0  0  0  0  0  0  0  0  0  0
  155.0191  138.2104  159.4435 H   0  0  0  0  0  0  0  0  0  0  0  0
  152.5276  137.6286  161.1075 H   0  0  0  0  0  0  0  0  0  0  0  0
  154.2542  136.0428  159.5827 H   0  0  0  0  0  0  0  0  0  0  0  0
  155.4721  137.0037  161.6276 H   0  0  0  0  0  0  0  0  0  0  0  0
  154.6094  138.2668  162.4369 H   0  0  0  0  0  0  0  0  0  0  0  0
  153.1834  137.7095  164.3715 H   0  0  0  0  0  0  0  0  0  0  0  0
  153.5198  136.1619  165.0522 H   0  0  0  0  0  0  0  0  0  0  0  0
  155.5148  138.3962  164.5511 H   0  0  0  0  0  0  0  0  0  0  0  0
  155.1374  137.5969  166.0585 H   0  0  0  0  0  0  0  0  0  0  0  0
  157.2217  136.6894  165.2603 H   0  0  0  0  0  0  0  0  0  0  0  0
  154.5457  134.3673  163.6786 H   0  0  0  0  0  0  0  0  0  0  0  0
  155.2527  134.7893  162.1496 H   0  0  0  0  0  0  0  0  0  0  0  0
  152.0485  140.3073  158.3022 H   0  0  0  0  0  0  0  0  0  0  0  0
  150.5686  141.7289  157.1366 H   0  0  0  0  0  0  0  0  0  0  0  0
  151.0519  143.4224  157.0653 H   0  0  0  0  0  0  0  0  0  0  0  0
  149.7668  142.9107  158.1702 H   0  0  0  0  0  0  0  0  0  0  0  0
  1  2  1  0  0  0  0
  1 23  1  0  0  0  0
  1 24  1  0  0  0  0
  1 25  1  0  0  0  0
  2 21  1  0  0  0  0
  2  3  2  0  0  0  0
  3  4  1  0  0  0  0
  3 26  1  0  0  0  0
  4 19  2  0  0  0  0
  4  5  1  0  0  0  0
  5  6  2  0  0  0  0
  6  7  1  0  0  0  0
  6 27  1  0  0  0  0
  7  8  1  0  0  0  0
  7 19  1  0  0  0  0
  8  9  1  0  0  0  0
  8 28  1  0  0  0  0
  8 29  1  0  0  0  0
  9 10  1  0  0  0  0
  9 11  1  0  0  0  0
  9 30  1  0  0  0  0
 10 31  1  0  0  0  0
 11 12  1  0  0  0  0
 11 32  1  0  0  0  0
 11 33  1  0  0  0  0
 12 18  1  0  0  0  0
 12 13  1  0  0  0  0
 13 14  1  0  0  0  0
 13 34  1  0  0  0  0
 13 35  1  0  0  0  0
 14 15  1  0  0  0  0
 14 36  1  0  0  0  0
 14 37  1  0  0  0  0
 15 16  1  0  0  0  0
 15 38  1  0  0  0  0
 16 17  2  0  0  0  0
 16 18  1  0  0  0  0
 18 39  1  0  0  0  0
 18 40  1  0  0  0  0
 19 20  1  0  0  0  0
 20 21  2  0  0  0  0
 20 41  1  0  0  0  0
 21 22  1  0  0  0  0
 22 42  1  0  0  0  0
 22 43  1  0  0  0  0
 22 44  1  0  0  0  0
M  END
> <s_m_source_file>
AV-unprocessed.smi

> <i_m_source_file_index>
1056

> <i_lp_mmshare_version>
43012

> <i_f3d_flags>
0

> <s_epik_input>
W0NIM11jKFtjSF0xKWMoW0NIM10pW2NIXWMoYzEyKW4oW2NIXW4yKVtDSDJdW0NASF0oW09IXSlbQ0gyXU4zW0NIMl1bQ0gyXVtOSF1DKD1PKVtDSDJdMw==

> <s_epik_cmdline>
J2VwaWtfcHl0aG9uJywgJy1waCcsICc3LjAnLCAnLXRuJywgJzgnLCAnLW1hJywgJzIwMCcsICctbWV0YWxfYmluZGluZycsICctaW1hZScsICc8aW5maWxlLm1hZT4nLCAnLW9tYWUnLCAnPG91dGZpbGUubWFlPic=

> <r_epik_Ionization_Penalty>
1.40166

> <r_epik_Ionization_Penalty_Charging>
0

> <r_epik_Ionization_Penalty_Neutral>
1.40166

> <r_epik_State_Penalty>
1.44226

> <r_epik_Charging_Adjusted_Penalty>
1.44226

> <i_epik_Tot_Q>
0

> <i_epik_Tot_abs_Q>
0

> <r_epik_Metal_State_Penalty>
1.50267

> <b_epik_Metal_Only>
0

> <s_lp_Force_Field>
OPLS_2005

> <r_lp_Energy>
31.4444

> <b_lp_Chiralities_Consistent>
1

> <s_lp_Variant>
AV-unprocessed.smi:1056-10

> <Gold.Version>
5.8.1

> <Gold.Id.Protein>
6NUR|6NUR_protein|mol2

> <Gold.PLP.Fitness>
47.0647

> <Gold.PLP.PLP>
-45.5155

> <Gold.PLP.part.hbond>
-2.0245

> <Gold.PLP.part.metal>
0.0000

> <Gold.PLP.part.buried>
-4.6458

> <Gold.PLP.part.nonpolar>
-38.5725

> <Gold.PLP.part.repulsive>
0.0634

> <Gold.PLP.ligand.clash>
0.0000

> <Gold.PLP.ligand.torsion>
0.7452

> <Gold.PLP.Chemscore.Hbond>
1.0000

> <Gold.PLP.Chemscore.CHOScore>
0.0000

> <Gold.PLP.Chemscore.Metal>
0.0000

> <Gold.Chemscore.Hbonds>
donor molecule, donor type, donor heavy atom, donor atom, acceptor molecule, acceptor atom, score
      P1  H  6896  6907       L1    10  1.00

> <Gold.PLP.Chemscore.Internal.Correction>
0.0397

> <Gold.Rescore>
     Score         DG    S(hbond)    S(metal)    S(lipo)     H(rot)  DE(clash)    DE(int)     intcor
     16.11     -17.05       0.99        0.00     121.14       2.31       0.14       0.79       ----

> <Gold.Chemscore.Fitness>
16.1120

> <Gold.Chemscore.DG>
-17.0497

> <Gold.Chemscore.ZeroCoef>
-5.4800

> <Gold.Chemscore.Hbond>
0.9947

> <Gold.Chemscore.Metal>
0.0000

> <Gold.Chemscore.Lipo>
121.1378

> <Gold.Chemscore.Internal_Hbond>
0.0000

> <Gold.Chemscore.DEClash>
0.1442

> <Gold.Chemscore.DEInternal>
0.7935

> <Gold.Chemscore.Rot>
2.3147

> <Gold.Chemscore.Internal.Correction>
   9.000000E+99

> <Gold.Chemscore.Hbonds>
donor molecule, donor type, donor heavy atom, donor atom, acceptor molecule, acceptor atom, score
      P1  H  6896  6907       L1    10  0.97

> <Gold.Chemscore.Hbond.Weighted>
-3.3221

> <Gold.Chemscore.Metal.Weighted>
-0.0000

> <Gold.Chemscore.Lipo.Weighted>
-14.1731

> <Gold.Chemscore.Internal_Hbond.Weighted>
0.0000

> <Gold.Chemscore.DEClash.Weighted>
0.1442

> <Gold.Chemscore.DEInternal.Weighted>
0.7935

> <Gold.Chemscore.Rot.Weighted>
5.9256

> <Gold.Chemscore.Internal.Correction.Weighted>
   9.000000E+99

> <Gold.Protein.RotatedTorsions>
[ 6907 6896 6895 6894 ] final   43.35 input  -60.11 | X-H torsion
[ 7974 7965 7964 7962 ] final  -35.51 input  175.53 | X-H torsion
[ 8008 7997 7996 7995 ] final  -99.48 input   59.86 | X-H torsion
[ 10167 10162 10161 10158 ] final   61.69 input  -65.29 | X-H torsion
[ 10718 10713 10712 10709 ] final  -53.12 input   66.30 | X-H torsion
[ 10763 10752 10751 10750 ] final  111.36 input  -60.55 | X-H torsion
[ 11005 11000 10999 10996 ] final  103.62 input  -57.11 | X-H torsion

> <Gold.Protein.ActiveResidues>
 VAL166  LYS551  ARG553  GLY616  TRP617  ASP618  TYR619  PRO620  LYS621  CYS622 
 ASP623  PHE694  ASN695  SER759  ASP760  ASP761  ALA762  ILE779  LEU786  VAL792 
 PHE793  MET794  SER795  GLU796  ALA797  LYS798  CYS799  TRP800  GLU811  SER814 

> <Gold.Protein.RotatedAtoms>
  152.2192  134.8429  160.0487 H   0  0  0  0  0  0  0  0  0  0  0  0  # atno 6907 bound_to 6896
  151.9219  133.3583  159.3908 H   0  0  0  0  0  0  0  0  0  0  0  0  # atno 6908 bound_to 6896
  150.6995  134.4551  159.5398 H   0  0  0  0  0  0  0  0  0  0  0  0  # atno 6909 bound_to 6896
  146.0740  140.6167  142.8939 H   0  0  0  0  0  0  0  0  0  0  0  0  # atno 7974 bound_to 7965
  154.8154  140.0447  157.1373 H   0  0  0  0  0  0  0  0  0  0  0  0  # atno 8008 bound_to 7997
  154.9320  140.3041  155.5143 H   0  0  0  0  0  0  0  0  0  0  0  0  # atno 8009 bound_to 7997
  156.2975  140.2321  156.4381 H   0  0  0  0  0  0  0  0  0  0  0  0  # atno 8010 bound_to 7997
  140.1520  144.4453  150.6754 H   0  0  0  0  0  0  0  0  0  0  0  0  # atno 10167 bound_to 10162
  156.1562  130.4150  149.9865 H   0  0  0  0  0  0  0  0  0  0  0  0  # atno 10718 bound_to 10713
  153.4623  135.3719  155.2345 H   0  0  0  0  0  0  0  0  0  0  0  0  # atno 10763 bound_to 10752
  154.8757  135.3911  154.3910 H   0  0  0  0  0  0  0  0  0  0  0  0  # atno 10764 bound_to 10752
  153.4486  135.7085  153.6188 H   0  0  0  0  0  0  0  0  0  0  0  0  # atno 10765 bound_to 10752
  139.8785  134.9270  156.5238 H   0  0  0  0  0  0  0  0  0  0  0  0  # atno 11005 bound_to 11000
  144.7250  140.4495  143.6980 LP  0  0  0  0  0  0  0  0  0  0  0  0  # atno 17320 bound_to 7965
  145.6339  139.1540  143.2953 LP  0  0  0  0  0  0  0  0  0  0  0  0  # atno 17321 bound_to 7965
  140.6696  143.2281  151.5658 LP  0  0  0  0  0  0  0  0  0  0  0  0  # atno 17342 bound_to 10162
  139.5421  144.2619  152.1371 LP  0  0  0  0  0  0  0  0  0  0  0  0  # atno 17343 bound_to 10162
  156.7708  130.9185  151.3644 LP  0  0  0  0  0  0  0  0  0  0  0  0  # atno 17370 bound_to 10713
  157.6697  130.9039  150.0012 LP  0  0  0  0  0  0  0  0  0  0  0  0  # atno 17371 bound_to 10713
  140.8431  133.8190  155.9094 LP  0  0  0  0  0  0  0  0  0  0  0  0  # atno 17394 bound_to 11000
  140.9218  134.2132  157.4921 LP  0  0  0  0  0  0  0  0  0  0  0  0  # atno 17395 bound_to 11000

$$$$
