AV-unprocessed.smi:1896|AV-procd|sdf|7683|dock3
  -GOLD-   22720 9423D 1   1.00000     0.00000
 Structure written by MMmdl.
 47 48  0  0  0  0  0  0  0  0  2 V2000
  149.1061  136.7514  158.7260 C   0  0  0  0  0  0  0  0  0  0  0  0
  148.3642  136.2931  159.9487 C   0  0  0  0  0  0  0  0  0  0  0  0
  148.0380  137.1820  160.8716 N   0  0  0  0  0  0  0  0  0  0  0  0
  147.4063  136.4714  161.8268 N   0  0  0  0  0  0  0  0  0  0  0  0
  146.9070  137.1510  163.0063 C   0  0  0  0  0  0  0  0  0  0  0  0
  147.3369  135.1291  161.5089 C   0  0  0  0  0  0  0  0  0  0  0  0
  146.6913  134.1310  162.4155 C   0  0  0  0  0  0  0  0  0  0  0  0
  147.9484  134.9724  160.2933 C   0  0  0  0  0  0  0  0  0  0  0  0
  148.1506  133.7065  159.4993 C   0  0  0  0  0  0  0  0  0  0  0  0
  147.2909  133.7560  158.2368 C   0  0  0  0  0  0  0  0  0  0  0  0
  146.0742  133.5860  158.3113 O   0  0  0  0  0  0  0  0  0  0  0  0
  147.9349  133.9743  157.0811 N   0  0  0  0  0  0  0  0  0  0  0  0
  147.2921  133.9967  155.7730 C   0  0  0  0  0  0  0  0  0  0  0  0
  148.2175  134.5807  154.6774 C   0  0  1  0  0  0  0  0  0  0  0  0
  149.6332  133.9672  154.7658 C   0  0  0  0  0  0  0  0  0  0  0  0
  147.6429  134.3803  153.3149 N   0  3  0  0  0  0  0  0  0  0  0  0
  147.6602  132.9917  152.8042 C   0  0  0  0  0  0  0  0  0  0  0  0
  146.6216  132.9671  151.6890 C   0  0  0  0  0  0  0  0  0  0  0  0
  145.5268  133.8849  152.2195 C   0  0  0  0  0  0  0  0  0  0  0  0
  146.2558  134.8800  153.1327 C   0  0  0  0  0  0  0  0  0  0  0  0
  150.1825  136.6685  158.8738 H   0  0  0  0  0  0  0  0  0  0  0  0
  148.8835  137.7926  158.4896 H   0  0  0  0  0  0  0  0  0  0  0  0
  148.8416  136.1542  157.8536 H   0  0  0  0  0  0  0  0  0  0  0  0
  145.8375  136.9677  163.1100 H   0  0  0  0  0  0  0  0  0  0  0  0
  147.0738  138.2266  162.9317 H   0  0  0  0  0  0  0  0  0  0  0  0
  147.4214  136.7748  163.8909 H   0  0  0  0  0  0  0  0  0  0  0  0
  146.7991  133.1168  162.0318 H   0  0  0  0  0  0  0  0  0  0  0  0
  145.6263  134.3378  162.5224 H   0  0  0  0  0  0  0  0  0  0  0  0
  147.1432  134.1589  163.4070 H   0  0  0  0  0  0  0  0  0  0  0  0
  149.1937  133.5772  159.2093 H   0  0  0  0  0  0  0  0  0  0  0  0
  147.8948  132.8221  160.0839 H   0  0  0  0  0  0  0  0  0  0  0  0
  148.9361  134.1034  157.1089 H   0  0  0  0  0  0  0  0  0  0  0  0
  146.9926  132.9809  155.5087 H   0  0  0  0  0  0  0  0  0  0  0  0
  146.3790  134.5864  155.8631 H   0  0  0  0  0  0  0  0  0  0  0  0
  148.3014  135.6560  154.8451 H   0  0  0  0  0  0  0  0  0  0  0  0
  150.0954  134.1620  155.7330 H   0  0  0  0  0  0  0  0  0  0  0  0
  150.3107  134.3800  154.0190 H   0  0  0  0  0  0  0  0  0  0  0  0
  149.6042  132.8864  154.6247 H   0  0  0  0  0  0  0  0  0  0  0  0
  148.6474  132.6993  152.4452 H   0  0  0  0  0  0  0  0  0  0  0  0
  147.3648  132.3026  153.5974 H   0  0  0  0  0  0  0  0  0  0  0  0
  147.0476  133.3857  150.7759 H   0  0  0  0  0  0  0  0  0  0  0  0
  146.2624  131.9623  151.4642 H   0  0  0  0  0  0  0  0  0  0  0  0
  144.9738  134.3772  151.4188 H   0  0  0  0  0  0  0  0  0  0  0  0
  144.8133  133.3041  152.8056 H   0  0  0  0  0  0  0  0  0  0  0  0
  145.7261  134.9579  154.0834 H   0  0  0  0  0  0  0  0  0  0  0  0
  146.2888  135.8753  152.6881 H   0  0  0  0  0  0  0  0  0  0  0  0
  148.2146  134.9118  152.6737 H   0  0  0  0  0  0  0  0  0  0  0  0
  1  2  1  0  0  0  0
  1 21  1  0  0  0  0
  1 22  1  0  0  0  0
  1 23  1  0  0  0  0
  2  8  1  0  0  0  0
  2  3  2  0  0  0  0
  3  4  1  0  0  0  0
  4  5  1  0  0  0  0
  4  6  1  0  0  0  0
  5 24  1  0  0  0  0
  5 25  1  0  0  0  0
  5 26  1  0  0  0  0
  6  7  1  0  0  0  0
  6  8  2  0  0  0  0
  7 27  1  0  0  0  0
  7 28  1  0  0  0  0
  7 29  1  0  0  0  0
  8  9  1  0  0  0  0
  9 10  1  0  0  0  0
  9 30  1  0  0  0  0
  9 31  1  0  0  0  0
 10 11  2  0  0  0  0
 10 12  1  0  0  0  0
 12 13  1  0  0  0  0
 12 32  1  0  0  0  0
 13 14  1  0  0  0  0
 13 33  1  0  0  0  0
 13 34  1  0  0  0  0
 14 15  1  0  0  0  0
 14 16  1  0  0  0  0
 14 35  1  0  0  0  0
 15 36  1  0  0  0  0
 15 37  1  0  0  0  0
 15 38  1  0  0  0  0
 16 20  1  0  0  0  0
 16 17  1  0  0  0  0
 16 47  1  0  0  0  0
 17 18  1  0  0  0  0
 17 39  1  0  0  0  0
 17 40  1  0  0  0  0
 18 19  1  0  0  0  0
 18 41  1  0  0  0  0
 18 42  1  0  0  0  0
 19 20  1  0  0  0  0
 19 43  1  0  0  0  0
 19 44  1  0  0  0  0
 20 45  1  0  0  0  0
 20 46  1  0  0  0  0
M  CHG  1  16   1
M  END
> <s_m_source_file>
AV-unprocessed.smi

> <i_m_source_file_index>
1896

> <i_lp_mmshare_version>
43012

> <i_f3d_flags>
0

> <s_epik_input>
W0NIM11jMW5uKFtDSDNdKWMoW0NIM10pYzFbQ0gyXUMoPU8pW05IXVtDSDJdW0NASF0oW0NIM10pTjJbQ0gyXVtDSDJdW0NIMl1bQ0gyXTI=

> <s_epik_cmdline>
J2VwaWtfcHl0aG9uJywgJy1waCcsICc3LjAnLCAnLXRuJywgJzgnLCAnLW1hJywgJzIwMCcsICctbWV0YWxfYmluZGluZycsICctaW1hZScsICc8aW5maWxlLm1hZT4nLCAnLW9tYWUnLCAnPG91dGZpbGUubWFlPic=

> <r_lp_tautomer_probability>
1

> <r_epik_Ionization_Penalty>
0.00723064

> <r_epik_Ionization_Penalty_Charging>
0.0050435

> <r_epik_Ionization_Penalty_Neutral>
0.00218714

> <r_epik_State_Penalty>
-0

> <r_epik_Charging_Adjusted_Penalty>
0.0050435

> <i_epik_Tot_Q>
1

> <i_epik_Tot_abs_Q>
1

> <r_epik_Metal_State_Penalty>
-0

> <b_epik_Metal_Only>
0

> <s_lp_Force_Field>
OPLS_2005

> <r_lp_Energy>
24.4883

> <b_lp_Chiralities_Consistent>
1

> <s_lp_Variant>
AV-unprocessed.smi:1896-2

> <Gold.Version>
5.8.1

> <Gold.Id.Protein>
6NUR|6NUR_protein|mol2

> <Gold.PLP.Fitness>
43.1954

> <Gold.PLP.PLP>
-33.1007

> <Gold.PLP.part.hbond>
-3.0000

> <Gold.PLP.part.metal>
0.0000

> <Gold.PLP.part.buried>
-3.0547

> <Gold.PLP.part.nonpolar>
-27.7482

> <Gold.PLP.part.repulsive>
0.0259

> <Gold.PLP.ligand.clash>
0.0000

> <Gold.PLP.ligand.torsion>
0.4516

> <Gold.PLP.Chemscore.Hbond>
3.6416

> <Gold.PLP.Chemscore.CHOScore>
0.0000

> <Gold.PLP.Chemscore.Metal>
0.0000

> <Gold.Chemscore.Hbonds>
donor molecule, donor type, donor heavy atom, donor atom, acceptor molecule, acceptor atom, score
      L1  H    16    47       P1  7948  2.00
      P1  H  6931  6943       L1     3  0.90
      P1  H  6934  6947       L1     3  0.74

> <Gold.PLP.Chemscore.Internal.Correction>
0.0731

> <Gold.Rescore>
     Score         DG    S(hbond)    S(metal)    S(lipo)     H(rot)  DE(clash)    DE(int)     intcor
     16.81     -17.61       2.31        0.00      73.76       1.65       0.19       0.61       ----

> <Gold.Chemscore.Fitness>
16.8090

> <Gold.Chemscore.DG>
-17.6095

> <Gold.Chemscore.ZeroCoef>
-5.4800

> <Gold.Chemscore.Hbond>
2.3122

> <Gold.Chemscore.Metal>
0.0000

> <Gold.Chemscore.Lipo>
73.7567

> <Gold.Chemscore.Internal_Hbond>
0.0000

> <Gold.Chemscore.DEClash>
0.1914

> <Gold.Chemscore.DEInternal>
0.6091

> <Gold.Chemscore.Rot>
1.6495

> <Gold.Chemscore.Internal.Correction>
   9.000000E+99

> <Gold.Chemscore.Hbonds>
donor molecule, donor type, donor heavy atom, donor atom, acceptor molecule, acceptor atom, score
      L1  H    16    47       P1  7948  0.70
      P1  H  6931  6943       L1     3  0.23
      P1  H  6934  6947       L1     3  0.38

> <Gold.Chemscore.Hbond.Weighted>
-7.7226

> <Gold.Chemscore.Metal.Weighted>
-0.0000

> <Gold.Chemscore.Lipo.Weighted>
-8.6295

> <Gold.Chemscore.Internal_Hbond.Weighted>
0.0000

> <Gold.Chemscore.DEClash.Weighted>
0.1914

> <Gold.Chemscore.DEInternal.Weighted>
0.6091

> <Gold.Chemscore.Rot.Weighted>
4.2227

> <Gold.Chemscore.Internal.Correction.Weighted>
   9.000000E+99

> <Gold.Protein.RotatedTorsions>
[ 6907 6896 6895 6894 ] final  -42.58 input  -60.11 | X-H torsion
[ 7974 7965 7964 7962 ] final  178.61 input  175.53 | X-H torsion
[ 8008 7997 7996 7995 ] final -137.79 input   59.86 | X-H torsion
[ 10167 10162 10161 10158 ] final   -7.64 input  -65.29 | X-H torsion
[ 10718 10713 10712 10709 ] final   69.52 input   66.30 | X-H torsion
[ 10763 10752 10751 10750 ] final -179.69 input  -60.55 | X-H torsion
[ 11005 11000 10999 10996 ] final -114.34 input  -57.11 | X-H torsion

> <Gold.Protein.ActiveResidues>
 VAL166  LYS551  ARG553  GLY616  TRP617  ASP618  TYR619  PRO620  LYS621  CYS622 
 ASP623  PHE694  ASN695  SER759  ASP760  ASP761  ALA762  ILE779  LEU786  VAL792 
 PHE793  MET794  SER795  GLU796  ALA797  LYS798  CYS799  TRP800  GLU811  SER814 

> <Gold.Protein.RotatedAtoms>
  150.9536  134.8933  159.7687 H   0  0  0  0  0  0  0  0  0  0  0  0  # atno 6907 bound_to 6896
  152.5129  134.3771  159.9348 H   0  0  0  0  0  0  0  0  0  0  0  0  # atno 6908 bound_to 6896
  151.3786  133.3789  159.2742 H   0  0  0  0  0  0  0  0  0  0  0  0  # atno 6909 bound_to 6896
  144.7154  140.0424  143.6437 H   0  0  0  0  0  0  0  0  0  0  0  0  # atno 7974 bound_to 7965
  155.4176  140.0516  157.3028 H   0  0  0  0  0  0  0  0  0  0  0  0  # atno 8008 bound_to 7997
  154.4917  140.2123  155.9493 H   0  0  0  0  0  0  0  0  0  0  0  0  # atno 8009 bound_to 7997
  156.1351  140.3164  155.8414 H   0  0  0  0  0  0  0  0  0  0  0  0  # atno 8010 bound_to 7997
  140.7035  143.6058  150.8753 H   0  0  0  0  0  0  0  0  0  0  0  0  # atno 10167 bound_to 10162
  157.6350  130.9430  150.0524 H   0  0  0  0  0  0  0  0  0  0  0  0  # atno 10718 bound_to 10713
  154.5319  135.2800  155.1173 H   0  0  0  0  0  0  0  0  0  0  0  0  # atno 10763 bound_to 10752
  154.2689  135.6307  153.5306 H   0  0  0  0  0  0  0  0  0  0  0  0  # atno 10764 bound_to 10752
  152.9959  135.5623  154.5835 H   0  0  0  0  0  0  0  0  0  0  0  0  # atno 10765 bound_to 10752
  141.0558  133.9615  157.2756 H   0  0  0  0  0  0  0  0  0  0  0  0  # atno 11005 bound_to 11000
  146.0012  139.3093  143.0926 LP  0  0  0  0  0  0  0  0  0  0  0  0  # atno 17320 bound_to 7965
  145.8790  140.9374  143.0611 LP  0  0  0  0  0  0  0  0  0  0  0  0  # atno 17321 bound_to 7965
  139.9781  143.5981  152.2952 LP  0  0  0  0  0  0  0  0  0  0  0  0  # atno 17342 bound_to 10162
  139.6592  144.7662  151.1995 LP  0  0  0  0  0  0  0  0  0  0  0  0  # atno 17343 bound_to 10162
  156.1582  130.3643  149.9338 LP  0  0  0  0  0  0  0  0  0  0  0  0  # atno 17370 bound_to 10713
  156.7342  130.9055  151.3628 LP  0  0  0  0  0  0  0  0  0  0  0  0  # atno 17371 bound_to 10713
  139.9389  135.0193  156.8645 LP  0  0  0  0  0  0  0  0  0  0  0  0  # atno 17394 bound_to 11000
  140.5966  134.0211  155.7520 LP  0  0  0  0  0  0  0  0  0  0  0  0  # atno 17395 bound_to 11000

$$$$
