AV-unprocessed.smi:1527|AV-procd|sdf|6148|dock8
  -GOLD-   22720 6293D 1   1.00000     0.00000
 Structure written by MMmdl.
 30 30  0  0  0  0  0  0  0  0  2 V2000
  151.7697  144.7124  159.3278 C   0  0  0  0  0  0  0  0  0  0  0  0
  153.0212  143.8311  159.2042 C   0  0  0  0  0  0  0  0  0  0  0  0
  152.9353  142.5171  160.0040 C   0  0  1  0  0  0  0  0  0  0  0  0
  152.6163  142.7717  161.4838 C   0  0  0  0  0  0  0  0  0  0  0  0
  151.9144  141.6397  159.4339 N   0  0  0  0  0  0  0  0  0  0  0  0
  152.1380  140.5214  158.7256 C   0  0  0  0  0  0  0  0  0  0  0  0
  153.2659  140.0970  158.4693 O   0  0  0  0  0  0  0  0  0  0  0  0
  150.8774  139.7881  158.2397 C   0  0  0  0  0  0  0  0  0  0  0  0
  151.0839  138.9561  157.0452 N   0  0  0  0  0  0  0  0  0  0  0  0
  151.4602  137.5776  157.3461 N   0  5  0  0  0  0  0  0  0  0  0  0
  151.6561  136.7058  156.3217 C   0  0  0  0  0  0  0  0  0  0  0  0
  151.9579  135.5277  156.4979 O   0  0  0  0  0  0  0  0  0  0  0  0
  151.5032  137.2002  154.9633 C   0  0  0  0  0  0  0  0  0  0  0  0
  151.1789  138.4844  154.7145 C   0  0  0  0  0  0  0  0  0  0  0  0
  150.9561  139.4529  155.7813 C   0  0  0  0  0  0  0  0  0  0  0  0
  150.6696  140.6300  155.5615 O   0  0  0  0  0  0  0  0  0  0  0  0
  151.8600  145.6022  158.7047 H   0  0  0  0  0  0  0  0  0  0  0  0
  151.6123  145.0449  160.3542 H   0  0  0  0  0  0  0  0  0  0  0  0
  150.8768  144.1733  159.0102 H   0  0  0  0  0  0  0  0  0  0  0  0
  153.1771  143.5973  158.1505 H   0  0  0  0  0  0  0  0  0  0  0  0
  153.8958  144.4007  159.5209 H   0  0  0  0  0  0  0  0  0  0  0  0
  153.9142  142.0371  159.9579 H   0  0  0  0  0  0  0  0  0  0  0  0
  153.3745  143.4052  161.9450 H   0  0  0  0  0  0  0  0  0  0  0  0
  152.5840  141.8369  162.0445 H   0  0  0  0  0  0  0  0  0  0  0  0
  151.6516  143.2662  161.6037 H   0  0  0  0  0  0  0  0  0  0  0  0
  150.9533  141.9086  159.5856 H   0  0  0  0  0  0  0  0  0  0  0  0
  150.4936  139.1724  159.0550 H   0  0  0  0  0  0  0  0  0  0  0  0
  150.1029  140.5332  158.0486 H   0  0  0  0  0  0  0  0  0  0  0  0
  151.6554  136.5231  154.1356 H   0  0  0  0  0  0  0  0  0  0  0  0
  151.0770  138.8084  153.6896 H   0  0  0  0  0  0  0  0  0  0  0  0
  1  2  1  0  0  0  0
  1 17  1  0  0  0  0
  1 18  1  0  0  0  0
  1 19  1  0  0  0  0
  2  3  1  0  0  0  0
  2 20  1  0  0  0  0
  2 21  1  0  0  0  0
  3  4  1  0  0  0  0
  3  5  1  0  0  0  0
  3 22  1  0  0  0  0
  4 23  1  0  0  0  0
  4 24  1  0  0  0  0
  4 25  1  0  0  0  0
  5  6  1  0  0  0  0
  5 26  1  0  0  0  0
  6  7  2  0  0  0  0
  6  8  1  0  0  0  0
  8 27  1  0  0  0  0
  8 28  1  0  0  0  0
  8  9  1  0  0  0  0
  9 10  1  0  0  0  0
  9 15  1  0  0  0  0
 10 11  1  0  0  0  0
 11 12  2  0  0  0  0
 11 13  1  0  0  0  0
 13 29  1  0  0  0  0
 13 14  2  0  0  0  0
 14 30  1  0  0  0  0
 14 15  1  0  0  0  0
 15 16  2  0  0  0  0
M  CHG  1  10  -1
M  END
> <s_m_source_file>
AV-unprocessed.smi

> <i_m_source_file_index>
1527

> <i_lp_mmshare_version>
43012

> <i_f3d_flags>
0

> <s_epik_input>
W0NIM11bQ0gyXVtDQEhdKFtDSDNdKVtOSF1DKD1PKVtDSDJdbjFbbkhdYyg9TylbY0hdW2NIXWMxPU8=

> <s_epik_cmdline>
J2VwaWtfcHl0aG9uJywgJy1waCcsICc3LjAnLCAnLXRuJywgJzgnLCAnLW1hJywgJzIwMCcsICctbWV0YWxfYmluZGluZycsICctaW1hZScsICc8aW5maWxlLm1hZT4nLCAnLW9tYWUnLCAnPG91dGZpbGUubWFlPic=

> <r_lp_tautomer_probability>
1

> <r_epik_Ionization_Penalty>
0.0984334

> <r_epik_Ionization_Penalty_Charging>
0.0984334

> <r_epik_Ionization_Penalty_Neutral>
1.93017e-08

> <r_epik_State_Penalty>
0.0346952

> <r_epik_Charging_Adjusted_Penalty>
0.133129

> <i_epik_Tot_Q>
-1

> <i_epik_Tot_abs_Q>
1

> <r_epik_Metal_State_Penalty>
0.0346952

> <b_epik_Metal_Only>
0

> <s_lp_Force_Field>
OPLS_2005

> <r_lp_Energy>
18.954

> <b_lp_Chiralities_Consistent>
1

> <s_lp_Variant>
AV-unprocessed.smi:1527-2

> <Gold.Version>
5.8.1

> <Gold.Id.Protein>
6NUR|6NUR_protein|mol2

> <Gold.PLP.Fitness>
39.9598

> <Gold.PLP.PLP>
-33.5410

> <Gold.PLP.part.hbond>
-3.0000

> <Gold.PLP.part.metal>
0.0000

> <Gold.PLP.part.buried>
-3.8322

> <Gold.PLP.part.nonpolar>
-26.9732

> <Gold.PLP.part.repulsive>
0.2027

> <Gold.PLP.ligand.clash>
0.0000

> <Gold.PLP.ligand.torsion>
0.8582

> <Gold.PLP.Chemscore.Hbond>
2.7072

> <Gold.PLP.Chemscore.CHOScore>
0.0000

> <Gold.PLP.Chemscore.Metal>
0.0000

> <Gold.Chemscore.Hbonds>
donor molecule, donor type, donor heavy atom, donor atom, acceptor molecule, acceptor atom, score
      P1  H  7989  7998       L1    16  0.33
      P1  H  7997  8010       L1     7  1.00
      P1  H 10752 10764       L1    12  0.85

> <Gold.PLP.Chemscore.Internal.Correction>
0.0136

> <Gold.Rescore>
     Score         DG    S(hbond)    S(metal)    S(lipo)     H(rot)  DE(clash)    DE(int)     intcor
     14.58     -15.28       1.96        0.00      70.49       1.94       0.01       0.69       ----

> <Gold.Chemscore.Fitness>
14.5766

> <Gold.Chemscore.DG>
-15.2787

> <Gold.Chemscore.ZeroCoef>
-5.4800

> <Gold.Chemscore.Hbond>
1.9553

> <Gold.Chemscore.Metal>
0.0000

> <Gold.Chemscore.Lipo>
70.4868

> <Gold.Chemscore.Internal_Hbond>
0.0000

> <Gold.Chemscore.DEClash>
0.0088

> <Gold.Chemscore.DEInternal>
0.6933

> <Gold.Chemscore.Rot>
1.9449

> <Gold.Chemscore.Internal.Correction>
   9.000000E+99

> <Gold.Chemscore.Hbonds>
donor molecule, donor type, donor heavy atom, donor atom, acceptor molecule, acceptor atom, score
      P1  H  7989  7998       L1    16  0.08
      P1  H  7997  8010       L1     7  0.94
      P1  H 10752 10764       L1    12  0.15

> <Gold.Chemscore.Hbond.Weighted>
-6.5308

> <Gold.Chemscore.Metal.Weighted>
-0.0000

> <Gold.Chemscore.Lipo.Weighted>
-8.2469

> <Gold.Chemscore.Internal_Hbond.Weighted>
0.0000

> <Gold.Chemscore.DEClash.Weighted>
0.0088

> <Gold.Chemscore.DEInternal.Weighted>
0.6933

> <Gold.Chemscore.Rot.Weighted>
4.9791

> <Gold.Chemscore.Internal.Correction.Weighted>
   9.000000E+99

> <Gold.Protein.RotatedTorsions>
[ 6907 6896 6895 6894 ] final -148.45 input  -60.11 | X-H torsion
[ 7974 7965 7964 7962 ] final   -6.66 input  175.53 | X-H torsion
[ 8008 7997 7996 7995 ] final   31.59 input   59.86 | X-H torsion
[ 10167 10162 10161 10158 ] final  -70.71 input  -65.29 | X-H torsion
[ 10718 10713 10712 10709 ] final   54.99 input   66.30 | X-H torsion
[ 10763 10752 10751 10750 ] final  -23.05 input  -60.55 | X-H torsion
[ 11005 11000 10999 10996 ] final   68.38 input  -57.11 | X-H torsion

> <Gold.Protein.ActiveResidues>
 VAL166  LYS551  ARG553  GLY616  TRP617  ASP618  TYR619  PRO620  LYS621  CYS622 
 ASP623  PHE694  ASN695  SER759  ASP760  ASP761  ALA762  ILE779  LEU786  VAL792 
 PHE793  MET794  SER795  GLU796  ALA797  LYS798  CYS799  TRP800  GLU811  SER814 

> <Gold.Protein.RotatedAtoms>
  151.1699  133.4791  159.2593 H   0  0  0  0  0  0  0  0  0  0  0  0  # atno 6907 bound_to 6896
  151.1366  135.0158  159.8617 H   0  0  0  0  0  0  0  0  0  0  0  0  # atno 6908 bound_to 6896
  152.5461  134.1597  159.8606 H   0  0  0  0  0  0  0  0  0  0  0  0  # atno 6909 bound_to 6896
  146.2325  140.2204  142.8337 H   0  0  0  0  0  0  0  0  0  0  0  0  # atno 7974 bound_to 7965
  155.1088  140.3237  155.4527 H   0  0  0  0  0  0  0  0  0  0  0  0  # atno 8008 bound_to 7997
  156.2696  140.2048  156.6160 H   0  0  0  0  0  0  0  0  0  0  0  0  # atno 8009 bound_to 7997
  154.6772  140.0530  157.0215 H   0  0  0  0  0  0  0  0  0  0  0  0  # atno 8010 bound_to 7997
  140.5331  143.2320  151.7226 H   0  0  0  0  0  0  0  0  0  0  0  0  # atno 10167 bound_to 10162
  157.5305  130.8627  149.8681 H   0  0  0  0  0  0  0  0  0  0  0  0  # atno 10718 bound_to 10713
  153.6617  135.6976  153.5175 H   0  0  0  0  0  0  0  0  0  0  0  0  # atno 10763 bound_to 10752
  153.2626  135.4240  155.0909 H   0  0  0  0  0  0  0  0  0  0  0  0  # atno 10764 bound_to 10752
  154.8450  135.3559  154.6162 H   0  0  0  0  0  0  0  0  0  0  0  0  # atno 10765 bound_to 10752
  139.9715  134.6893  156.0438 H   0  0  0  0  0  0  0  0  0  0  0  0  # atno 11005 bound_to 11000
  144.9636  140.8300  143.5498 LP  0  0  0  0  0  0  0  0  0  0  0  0  # atno 17320 bound_to 7965
  145.2177  139.2174  143.5109 LP  0  0  0  0  0  0  0  0  0  0  0  0  # atno 17321 bound_to 7965
  139.4961  144.4084  152.0107 LP  0  0  0  0  0  0  0  0  0  0  0  0  # atno 17342 bound_to 10162
  140.3188  144.3453  150.6015 LP  0  0  0  0  0  0  0  0  0  0  0  0  # atno 17343 bound_to 10162
  156.0419  130.3737  150.1414 LP  0  0  0  0  0  0  0  0  0  0  0  0  # atno 17370 bound_to 10713
  156.9598  130.9801  151.3481 LP  0  0  0  0  0  0  0  0  0  0  0  0  # atno 17371 bound_to 10713
  141.1394  133.6568  156.3686 LP  0  0  0  0  0  0  0  0  0  0  0  0  # atno 17394 bound_to 11000
  140.5284  134.6236  157.5342 LP  0  0  0  0  0  0  0  0  0  0  0  0  # atno 17395 bound_to 11000

$$$$
