AV-unprocessed.smi:686|AV-procd|sdf|3343|dock1
  -GOLD-   22720 0313D 1   1.00000     0.00000
 Structure written by MMmdl.
 41 42  0  0  0  0  0  0  0  0  2 V2000
  151.9272  138.8968  155.1653 C   0  0  0  0  0  0  0  0  0  0  0  0
  150.7859  137.9697  154.7140 C   0  0  2  0  0  0  0  0  0  0  0  0
  149.5808  138.6791  154.1019 C   0  0  0  0  0  0  0  0  0  0  0  0
  148.5065  137.6621  154.0795 N   0  3  2  0  0  0  0  0  0  0  0  0
  147.1189  138.2006  153.9988 C   0  0  0  0  0  0  0  0  0  0  0  0
  146.0733  137.0688  154.0245 C   0  0  0  0  0  0  0  0  0  0  0  0
  146.9161  139.0573  152.7347 C   0  0  0  0  0  0  0  0  0  0  0  0
  148.7675  136.7323  155.2090 C   0  0  0  0  0  0  0  0  0  0  0  0
  150.1513  137.0817  155.7915 C   0  0  2  0  0  0  0  0  0  0  0  0
  150.0091  137.8065  157.0612 N   0  0  0  0  0  0  0  0  0  0  0  0
  149.8468  136.9190  158.5349 S   0  0  0  0  0  0  0  0  0  0  0  0
  150.0153  135.4897  158.2275 O   0  0  0  0  0  0  0  0  0  0  0  0
  150.7112  137.5734  159.5281 O   0  0  0  0  0  0  0  0  0  0  0  0
  148.0855  137.2318  158.9891 C   0  0  0  0  0  0  0  0  0  0  0  0
  147.7680  136.5870  160.3090 C   0  0  0  0  0  0  0  0  0  0  0  0
  146.7902  135.5958  160.6008 C   0  0  0  0  0  0  0  0  0  0  0  0
  146.9356  135.3887  161.9420 C   0  0  0  0  0  0  0  0  0  0  0  0
  147.9192  136.1792  162.4407 O   0  0  0  0  0  0  0  0  0  0  0  0
  148.4475  136.9376  161.3897 N   0  0  0  0  0  0  0  0  0  0  0  0
  151.5879  139.6429  155.8842 H   0  0  0  0  0  0  0  0  0  0  0  0
  152.3473  139.4336  154.3145 H   0  0  0  0  0  0  0  0  0  0  0  0
  152.7338  138.3270  155.6271 H   0  0  0  0  0  0  0  0  0  0  0  0
  151.1920  137.3042  153.9500 H   0  0  0  0  0  0  0  0  0  0  0  0
  149.2812  139.5177  154.7331 H   0  0  0  0  0  0  0  0  0  0  0  0
  149.7952  139.0626  153.1038 H   0  0  0  0  0  0  0  0  0  0  0  0
  146.9538  138.8409  154.8654 H   0  0  0  0  0  0  0  0  0  0  0  0
  145.0632  137.4708  153.9382 H   0  0  0  0  0  0  0  0  0  0  0  0
  146.1035  136.4965  154.9514 H   0  0  0  0  0  0  0  0  0  0  0  0
  146.2227  136.3731  153.1981 H   0  0  0  0  0  0  0  0  0  0  0  0
  145.8857  139.4073  152.6617 H   0  0  0  0  0  0  0  0  0  0  0  0
  147.1356  138.4887  151.8302 H   0  0  0  0  0  0  0  0  0  0  0  0
  147.5491  139.9447  152.7355 H   0  0  0  0  0  0  0  0  0  0  0  0
  147.9920  136.7938  155.9723 H   0  0  0  0  0  0  0  0  0  0  0  0
  148.7572  135.7118  154.8249 H   0  0  0  0  0  0  0  0  0  0  0  0
  150.7563  136.1900  155.9625 H   0  0  0  0  0  0  0  0  0  0  0  0
  150.6895  138.5612  157.1512 H   0  0  0  0  0  0  0  0  0  0  0  0
  147.9428  138.3106  159.0506 H   0  0  0  0  0  0  0  0  0  0  0  0
  147.4454  136.8621  158.1875 H   0  0  0  0  0  0  0  0  0  0  0  0
  146.0901  135.1163  159.9323 H   0  0  0  0  0  0  0  0  0  0  0  0
  146.4384  134.7442  162.6520 H   0  0  0  0  0  0  0  0  0  0  0  0
  148.6595  137.1212  153.2405 H   0  0  0  0  0  0  0  0  0  0  0  0
  1  2  1  0  0  0  0
  1 20  1  0  0  0  0
  1 21  1  0  0  0  0
  1 22  1  0  0  0  0
  2  9  1  0  0  0  0
  2  3  1  0  0  0  0
  2 23  1  0  0  0  0
  3  4  1  0  0  0  0
  3 24  1  0  0  0  0
  3 25  1  0  0  0  0
  4  5  1  0  0  0  0
  4  8  1  0  0  0  0
  4 41  1  0  0  0  0
  5  6  1  0  0  0  0
  5  7  1  0  0  0  0
  5 26  1  0  0  0  0
  6 27  1  0  0  0  0
  6 28  1  0  0  0  0
  6 29  1  0  0  0  0
  7 30  1  0  0  0  0
  7 31  1  0  0  0  0
  7 32  1  0  0  0  0
  8  9  1  0  0  0  0
  8 33  1  0  0  0  0
  8 34  1  0  0  0  0
  9 10  1  0  0  0  0
  9 35  1  0  0  0  0
 10 11  1  0  0  0  0
 10 36  1  0  0  0  0
 11 12  2  0  0  0  0
 11 13  2  0  0  0  0
 11 14  1  0  0  0  0
 14 15  1  0  0  0  0
 14 37  1  0  0  0  0
 14 38  1  0  0  0  0
 15 19  2  0  0  0  0
 15 16  1  0  0  0  0
 16 17  2  0  0  0  0
 16 39  1  0  0  0  0
 17 18  1  0  0  0  0
 17 40  1  0  0  0  0
 18 19  1  0  0  0  0
M  CHG  1   4   1
M  END
> <s_m_source_file>
AV-unprocessed.smi

> <i_m_source_file_index>
686

> <i_lp_mmshare_version>
43012

> <i_f3d_flags>
0

> <s_epik_input>
W0NIM11bQ0BASF0xW0NIMl1OKFtDSF0oW0NIM10pW0NIM10pW0NIMl1bQ0BIXTFbTkhdUyg9TykoPU8pW0NIMl1jMltjSF1bY0hdb24y

> <s_epik_cmdline>
J2VwaWtfcHl0aG9uJywgJy1waCcsICc3LjAnLCAnLXRuJywgJzgnLCAnLW1hJywgJzIwMCcsICctbWV0YWxfYmluZGluZycsICctaW1hZScsICc8aW5maWxlLm1hZT4nLCAnLW9tYWUnLCAnPG91dGZpbGUubWFlPic=

> <r_epik_Ionization_Penalty>
0.00200818

> <r_epik_Ionization_Penalty_Charging>
0.000701289

> <r_epik_Ionization_Penalty_Neutral>
0.00130689

> <r_epik_State_Penalty>
0.00131314

> <r_epik_Charging_Adjusted_Penalty>
0.00201443

> <i_epik_Tot_Q>
1

> <i_epik_Tot_abs_Q>
1

> <r_epik_Metal_State_Penalty>
0.310831

> <b_epik_Metal_Only>
0

> <s_lp_Force_Field>
OPLS_2005

> <r_lp_Energy>
19.9663

> <b_lp_Chiralities_Consistent>
1

> <s_lp_Variant>
AV-unprocessed.smi:686-7

> <Gold.Version>
5.8.1

> <Gold.Id.Protein>
6NUR|6NUR_protein|mol2

> <Gold.PLP.Fitness>
38.8675

> <Gold.PLP.PLP>
-27.8697

> <Gold.PLP.part.hbond>
-4.0099

> <Gold.PLP.part.metal>
0.0000

> <Gold.PLP.part.buried>
-5.4512

> <Gold.PLP.part.nonpolar>
-19.3991

> <Gold.PLP.part.repulsive>
0.0000

> <Gold.PLP.ligand.clash>
0.0000

> <Gold.PLP.ligand.torsion>
0.4953

> <Gold.PLP.Chemscore.Hbond>
3.9120

> <Gold.PLP.Chemscore.CHOScore>
0.0000

> <Gold.PLP.Chemscore.Metal>
0.0000

> <Gold.Chemscore.Hbonds>
donor molecule, donor type, donor heavy atom, donor atom, acceptor molecule, acceptor atom, score
      L1  H     4    41       P1  7948  2.00
      P1  H  6896  6908       L1    12  0.94
      P1  H  6931  6943       L1    19  0.99

> <Gold.PLP.Chemscore.Internal.Correction>
0.2524

> <Gold.Rescore>
     Score         DG    S(hbond)    S(metal)    S(lipo)     H(rot)  DE(clash)    DE(int)     intcor
     16.61     -17.25       2.86        0.00      60.62       1.91       0.02       0.61       ----

> <Gold.Chemscore.Fitness>
16.6117

> <Gold.Chemscore.DG>
-17.2469

> <Gold.Chemscore.ZeroCoef>
-5.4800

> <Gold.Chemscore.Hbond>
2.8645

> <Gold.Chemscore.Metal>
0.0000

> <Gold.Chemscore.Lipo>
60.6248

> <Gold.Chemscore.Internal_Hbond>
0.0000

> <Gold.Chemscore.DEClash>
0.0202

> <Gold.Chemscore.DEInternal>
0.6150

> <Gold.Chemscore.Rot>
1.9115

> <Gold.Chemscore.Internal.Correction>
   9.000000E+99

> <Gold.Chemscore.Hbonds>
donor molecule, donor type, donor heavy atom, donor atom, acceptor molecule, acceptor atom, score
      L1  H     4    41       P1  7948  1.00
      P1  H  6896  6908       L1    12  0.82
      P1  H  6931  6943       L1    19  0.72

> <Gold.Chemscore.Hbond.Weighted>
-9.5673

> <Gold.Chemscore.Metal.Weighted>
-0.0000

> <Gold.Chemscore.Lipo.Weighted>
-7.0931

> <Gold.Chemscore.Internal_Hbond.Weighted>
0.0000

> <Gold.Chemscore.DEClash.Weighted>
0.0202

> <Gold.Chemscore.DEInternal.Weighted>
0.6150

> <Gold.Chemscore.Rot.Weighted>
4.8935

> <Gold.Chemscore.Internal.Correction.Weighted>
   9.000000E+99

> <Gold.Protein.RotatedTorsions>
[ 6907 6896 6895 6894 ] final  167.21 input  -60.11 | X-H torsion
[ 7974 7965 7964 7962 ] final -105.70 input  175.53 | X-H torsion
[ 8008 7997 7996 7995 ] final   55.92 input   59.86 | X-H torsion
[ 10167 10162 10161 10158 ] final   78.74 input  -65.29 | X-H torsion
[ 10718 10713 10712 10709 ] final -117.67 input   66.30 | X-H torsion
[ 10763 10752 10751 10750 ] final  -88.62 input  -60.55 | X-H torsion
[ 11005 11000 10999 10996 ] final   29.67 input  -57.11 | X-H torsion

> <Gold.Protein.ActiveResidues>
 VAL166  LYS551  ARG553  GLY616  TRP617  ASP618  TYR619  PRO620  LYS621  CYS622 
 ASP623  PHE694  ASN695  SER759  ASP760  ASP761  ALA762  ILE779  LEU786  VAL792 
 PHE793  MET794  SER795  GLU796  ALA797  LYS798  CYS799  TRP800  GLU811  SER814 

> <Gold.Protein.RotatedAtoms>
  151.8669  133.3468  159.3721 H   0  0  0  0  0  0  0  0  0  0  0  0  # atno 6907 bound_to 6896
  150.7163  134.5151  159.5635 H   0  0  0  0  0  0  0  0  0  0  0  0  # atno 6908 bound_to 6896
  152.2676  134.7968  160.0471 H   0  0  0  0  0  0  0  0  0  0  0  0  # atno 6909 bound_to 6896
  145.2272  140.9157  143.3226 H   0  0  0  0  0  0  0  0  0  0  0  0  # atno 7974 bound_to 7965
  155.5090  140.3476  155.4385 H   0  0  0  0  0  0  0  0  0  0  0  0  # atno 8008 bound_to 7997
  156.0862  140.1399  156.9678 H   0  0  0  0  0  0  0  0  0  0  0  0  # atno 8009 bound_to 7997
  154.4608  140.0935  156.6864 H   0  0  0  0  0  0  0  0  0  0  0  0  # atno 8010 bound_to 7997
  139.9677  144.5916  150.8013 H   0  0  0  0  0  0  0  0  0  0  0  0  # atno 10167 bound_to 10162
  156.1050  130.6203  150.9193 H   0  0  0  0  0  0  0  0  0  0  0  0  # atno 10718 bound_to 10713
  154.6465  135.5370  153.7851 H   0  0  0  0  0  0  0  0  0  0  0  0  # atno 10763 bound_to 10752
  153.0362  135.6472  154.1081 H   0  0  0  0  0  0  0  0  0  0  0  0  # atno 10764 bound_to 10752
  154.1001  135.2934  155.3233 H   0  0  0  0  0  0  0  0  0  0  0  0  # atno 10765 bound_to 10752
  140.3025  134.2741  155.7751 H   0  0  0  0  0  0  0  0  0  0  0  0  # atno 11005 bound_to 11000
  144.9710  139.3880  143.6309 LP  0  0  0  0  0  0  0  0  0  0  0  0  # atno 17320 bound_to 7965
  146.3362  139.8808  142.8824 LP  0  0  0  0  0  0  0  0  0  0  0  0  # atno 17321 bound_to 7965
  140.7532  143.3004  151.3094 LP  0  0  0  0  0  0  0  0  0  0  0  0  # atno 17342 bound_to 10162
  139.6505  144.0372  152.2622 LP  0  0  0  0  0  0  0  0  0  0  0  0  # atno 17343 bound_to 10162
  157.6226  131.0928  150.8594 LP  0  0  0  0  0  0  0  0  0  0  0  0  # atno 17370 bound_to 10713
  156.8715  130.5148  149.5296 LP  0  0  0  0  0  0  0  0  0  0  0  0  # atno 17371 bound_to 10713
  141.2125  133.7655  156.9788 LP  0  0  0  0  0  0  0  0  0  0  0  0  # atno 17394 bound_to 11000
  140.1097  134.9485  157.2046 LP  0  0  0  0  0  0  0  0  0  0  0  0  # atno 17395 bound_to 11000

$$$$
