AV-unprocessed.smi:517|AV-procd|sdf|2791|dock2
  -GOLD-   2262023263D 1   1.00000     0.00000
 Structure written by MMmdl.
 36 37  0  0  0  0  0  0  0  0  2 V2000
  152.9868  136.4934  157.6504 C   0  0  0  0  0  0  0  0  0  0  0  0
  153.6294  137.8773  157.7636 C   0  0  0  0  0  0  0  0  0  0  0  0
  153.4318  138.5757  156.5466 O   0  0  0  0  0  0  0  0  0  0  0  0
  152.0617  138.6991  156.1994 C   0  0  0  0  0  0  0  0  0  0  0  0
  151.3015  139.3705  157.3515 C   0  0  0  0  0  0  0  0  0  0  0  0
  151.0277  140.7897  157.0782 N   0  0  0  0  0  0  0  0  0  0  0  0
  150.2346  141.3794  156.1349 C   0  0  0  0  0  0  0  0  0  0  0  0
  149.4146  140.7009  155.0805 C   0  0  1  0  0  0  0  0  0  0  0  0
  148.4205  141.6759  154.4348 C   0  0  0  0  0  0  0  0  0  0  0  0
  150.2253  140.1454  154.0674 O   0  0  0  0  0  0  0  0  0  0  0  0
  150.3342  142.7278  156.3156 N   0  3  0  0  0  0  0  0  0  0  0  0
  151.1750  143.0026  157.3938 C   0  0  0  0  0  0  0  0  0  0  0  0
  151.5667  144.2122  157.9593 C   0  0  0  0  0  0  0  0  0  0  0  0
  152.4373  144.1403  159.0665 C   0  0  0  0  0  0  0  0  0  0  0  0
  152.8848  142.9011  159.5692 C   0  0  0  0  0  0  0  0  0  0  0  0
  152.4818  141.6816  158.9860 C   0  0  0  0  0  0  0  0  0  0  0  0
  151.6218  141.7618  157.8910 C   0  0  0  0  0  0  0  0  0  0  0  0
  153.1208  135.9257  158.5716 H   0  0  0  0  0  0  0  0  0  0  0  0
  153.4314  135.9205  156.8363 H   0  0  0  0  0  0  0  0  0  0  0  0
  151.9163  136.5729  157.4600 H   0  0  0  0  0  0  0  0  0  0  0  0
  153.1796  138.4279  158.5910 H   0  0  0  0  0  0  0  0  0  0  0  0
  154.6956  137.7781  157.9724 H   0  0  0  0  0  0  0  0  0  0  0  0
  151.9598  139.2946  155.2908 H   0  0  0  0  0  0  0  0  0  0  0  0
  151.6352  137.7159  155.9954 H   0  0  0  0  0  0  0  0  0  0  0  0
  150.3608  138.8572  157.5519 H   0  0  0  0  0  0  0  0  0  0  0  0
  151.8800  139.3082  158.2728 H   0  0  0  0  0  0  0  0  0  0  0  0
  148.8489  139.8859  155.5300 H   0  0  0  0  0  0  0  0  0  0  0  0
  147.7526  142.1032  155.1828 H   0  0  0  0  0  0  0  0  0  0  0  0
  147.8011  141.1701  153.6932 H   0  0  0  0  0  0  0  0  0  0  0  0
  148.9306  142.4993  153.9338 H   0  0  0  0  0  0  0  0  0  0  0  0
  149.7205  140.1012  153.2697 H   0  0  0  0  0  0  0  0  0  0  0  0
  151.2233  145.1623  157.5771 H   0  0  0  0  0  0  0  0  0  0  0  0
  152.7670  145.0533  159.5406 H   0  0  0  0  0  0  0  0  0  0  0  0
  153.5503  142.8851  160.4203 H   0  0  0  0  0  0  0  0  0  0  0  0
  152.8285  140.7383  159.3810 H   0  0  0  0  0  0  0  0  0  0  0  0
  149.8520  143.4071  155.7411 H   0  0  0  0  0  0  0  0  0  0  0  0
  1  2  1  0  0  0  0
  1 18  1  0  0  0  0
  1 19  1  0  0  0  0
  1 20  1  0  0  0  0
  2  3  1  0  0  0  0
  2 21  1  0  0  0  0
  2 22  1  0  0  0  0
  3  4  1  0  0  0  0
  4  5  1  0  0  0  0
  4 23  1  0  0  0  0
  4 24  1  0  0  0  0
  5  6  1  0  0  0  0
  5 25  1  0  0  0  0
  5 26  1  0  0  0  0
  6 17  1  0  0  0  0
  6  7  1  0  0  0  0
  7  8  1  0  0  0  0
  7 11  2  0  0  0  0
  8  9  1  0  0  0  0
  8 10  1  0  0  0  0
  8 27  1  0  0  0  0
  9 28  1  0  0  0  0
  9 29  1  0  0  0  0
  9 30  1  0  0  0  0
 10 31  1  0  0  0  0
 11 12  1  0  0  0  0
 11 36  1  0  0  0  0
 12 17  2  0  0  0  0
 12 13  1  0  0  0  0
 13 14  2  0  0  0  0
 13 32  1  0  0  0  0
 14 15  1  0  0  0  0
 14 33  1  0  0  0  0
 15 16  2  0  0  0  0
 15 34  1  0  0  0  0
 16 17  1  0  0  0  0
 16 35  1  0  0  0  0
M  CHG  1  11   1
M  END
> <s_m_source_file>
AV-unprocessed.smi

> <i_m_source_file_index>
517

> <i_lp_mmshare_version>
43012

> <i_f3d_flags>
0

> <s_epik_input>
W0NIM11bQ0gyXU9bQ0gyXVtDSDJdbihjKG4xKVtDQEhdKFtDSDNdKVtPSF0pYyhjMTIpW2NIXVtjSF1bY0hdW2NIXTI=

> <s_epik_cmdline>
J2VwaWtfcHl0aG9uJywgJy1waCcsICc3LjAnLCAnLXRuJywgJzgnLCAnLW1hJywgJzIwMCcsICctbWV0YWxfYmluZGluZycsICctaW1hZScsICc8aW5maWxlLm1hZT4nLCAnLW9tYWUnLCAnPG91dGZpbGUubWFlPic=

> <r_epik_Ionization_Penalty>
1.46962

> <r_epik_Ionization_Penalty_Charging>
1.46959

> <r_epik_Ionization_Penalty_Neutral>
2.92192e-05

> <r_epik_State_Penalty>
1.55729

> <r_epik_Charging_Adjusted_Penalty>
3.02688

> <i_epik_Tot_Q>
1

> <i_epik_Tot_abs_Q>
1

> <r_epik_Metal_State_Penalty>
5.60569

> <b_epik_Metal_Only>
0

> <s_lp_Force_Field>
OPLS_2005

> <r_lp_Energy>
10.1165

> <b_lp_Chiralities_Consistent>
1

> <s_lp_Variant>
AV-unprocessed.smi:517-4

> <Gold.Version>
5.8.1

> <Gold.Id.Protein>
6NUR|6NUR_protein|mol2

> <Gold.PLP.Fitness>
51.6187

> <Gold.PLP.PLP>
-38.5364

> <Gold.PLP.part.hbond>
-3.7570

> <Gold.PLP.part.metal>
0.0000

> <Gold.PLP.part.buried>
-3.8474

> <Gold.PLP.part.nonpolar>
-31.6556

> <Gold.PLP.part.repulsive>
0.1028

> <Gold.PLP.ligand.clash>
0.0000

> <Gold.PLP.ligand.torsion>
0.6271

> <Gold.PLP.Chemscore.Hbond>
4.7670

> <Gold.PLP.Chemscore.CHOScore>
0.0000

> <Gold.PLP.Chemscore.Metal>
0.0000

> <Gold.Chemscore.Hbonds>
donor molecule, donor type, donor heavy atom, donor atom, acceptor molecule, acceptor atom, score
      L1  H    10    31       P1  7957  0.80
      L1  H    11    36       P1  8028  1.95
      P1  H  7989  7998       L1    10  0.91
      P1  H  7997  8008       L1     3  0.93

> <Gold.PLP.Chemscore.Internal.Correction>
0.0355

> <Gold.Rescore>
     Score         DG    S(hbond)    S(metal)    S(lipo)     H(rot)  DE(clash)    DE(int)     intcor
     19.79     -20.79       3.06        0.00      91.03       2.18       0.01       0.99       ----

> <Gold.Chemscore.Fitness>
19.7875

> <Gold.Chemscore.DG>
-20.7852

> <Gold.Chemscore.ZeroCoef>
-5.4800

> <Gold.Chemscore.Hbond>
3.0645

> <Gold.Chemscore.Metal>
0.0000

> <Gold.Chemscore.Lipo>
91.0252

> <Gold.Chemscore.Internal_Hbond>
0.0000

> <Gold.Chemscore.DEClash>
0.0054

> <Gold.Chemscore.DEInternal>
0.9922

> <Gold.Chemscore.Rot>
2.1797

> <Gold.Chemscore.Internal.Correction>
   9.000000E+99

> <Gold.Chemscore.Hbonds>
donor molecule, donor type, donor heavy atom, donor atom, acceptor molecule, acceptor atom, score
      L1  H    10    31       P1  7957  0.74
      L1  H    11    36       P1  8028  0.93
      P1  H  7989  7998       L1    10  0.20
      P1  H  7997  8008       L1     3  0.63

> <Gold.Chemscore.Hbond.Weighted>
-10.2353

> <Gold.Chemscore.Metal.Weighted>
-0.0000

> <Gold.Chemscore.Lipo.Weighted>
-10.6499

> <Gold.Chemscore.Internal_Hbond.Weighted>
0.0000

> <Gold.Chemscore.DEClash.Weighted>
0.0054

> <Gold.Chemscore.DEInternal.Weighted>
0.9922

> <Gold.Chemscore.Rot.Weighted>
5.5801

> <Gold.Chemscore.Internal.Correction.Weighted>
   9.000000E+99

> <Gold.Protein.RotatedTorsions>
[ 6907 6896 6895 6894 ] final   86.42 input  -60.11 | X-H torsion
[ 7974 7965 7964 7962 ] final   77.58 input  175.53 | X-H torsion
[ 8008 7997 7996 7995 ] final  -55.96 input   59.86 | X-H torsion
[ 10167 10162 10161 10158 ] final   28.72 input  -65.29 | X-H torsion
[ 10718 10713 10712 10709 ] final   14.05 input   66.30 | X-H torsion
[ 10763 10752 10751 10750 ] final  -76.05 input  -60.55 | X-H torsion
[ 11005 11000 10999 10996 ] final  113.37 input  -57.11 | X-H torsion

> <Gold.Protein.ActiveResidues>
 VAL166  LYS551  ARG553  GLY616  TRP617  ASP618  TYR619  PRO620  LYS621  CYS622 
 ASP623  PHE694  ASN695  SER759  ASP760  ASP761  ALA762  ILE779  LEU786  VAL792 
 PHE793  MET794  SER795  GLU796  ALA797  LYS798  CYS799  TRP800  GLU811  SER814 

> <Gold.Protein.RotatedAtoms>
  152.5394  134.2434  159.8870 H   0  0  0  0  0  0  0  0  0  0  0  0  # atno 6907 bound_to 6896
  151.2401  133.4397  159.2614 H   0  0  0  0  0  0  0  0  0  0  0  0  # atno 6908 bound_to 6896
  151.0635  134.9766  159.8328 H   0  0  0  0  0  0  0  0  0  0  0  0  # atno 6909 bound_to 6896
  145.6881  139.2544  143.1775 H   0  0  0  0  0  0  0  0  0  0  0  0  # atno 7974 bound_to 7965
  154.4213  140.1141  156.5561 H   0  0  0  0  0  0  0  0  0  0  0  0  # atno 8008 bound_to 7997
  155.6360  140.3496  155.4680 H   0  0  0  0  0  0  0  0  0  0  0  0  # atno 8009 bound_to 7997
  155.9909  140.1179  157.0628 H   0  0  0  0  0  0  0  0  0  0  0  0  # atno 8010 bound_to 7997
  140.4828  144.0589  150.6271 H   0  0  0  0  0  0  0  0  0  0  0  0  # atno 10167 bound_to 10162
  157.0336  130.6202  149.5739 H   0  0  0  0  0  0  0  0  0  0  0  0  # atno 10718 bound_to 10713
  154.4948  135.5810  153.6486 H   0  0  0  0  0  0  0  0  0  0  0  0  # atno 10763 bound_to 10752
  152.9868  135.6121  154.3079 H   0  0  0  0  0  0  0  0  0  0  0  0  # atno 10764 bound_to 10752
  154.2982  135.2847  155.2603 H   0  0  0  0  0  0  0  0  0  0  0  0  # atno 10765 bound_to 10752
  139.8951  134.9548  156.6728 H   0  0  0  0  0  0  0  0  0  0  0  0  # atno 11005 bound_to 11000
  146.0905  140.7661  142.9597 LP  0  0  0  0  0  0  0  0  0  0  0  0  # atno 17320 bound_to 7965
  144.7005  140.3630  143.7160 LP  0  0  0  0  0  0  0  0  0  0  0  0  # atno 17321 bound_to 7965
  140.3836  143.2790  152.0142 LP  0  0  0  0  0  0  0  0  0  0  0  0  # atno 17342 bound_to 10162
  139.4836  144.6135  151.7389 LP  0  0  0  0  0  0  0  0  0  0  0  0  # atno 17343 bound_to 10162
  156.0061  130.5148  150.7835 LP  0  0  0  0  0  0  0  0  0  0  0  0  # atno 17370 bound_to 10713
  157.5159  131.0928  151.0140 LP  0  0  0  0  0  0  0  0  0  0  0  0  # atno 17371 bound_to 10713
  140.7360  133.9018  155.8244 LP  0  0  0  0  0  0  0  0  0  0  0  0  # atno 17394 bound_to 11000
  141.0116  134.1013  157.4216 LP  0  0  0  0  0  0  0  0  0  0  0  0  # atno 17395 bound_to 11000

$$$$
