AV-unprocessed.smi:1488|AV-procd|sdf|6023|dock3
  -GOLD-   22720 6123D 1   1.00000     0.00000
 Structure written by MMmdl.
 36 37  0  0  0  0  0  0  0  0  1 V2000
  154.8485  132.2463  162.2956 C   0  0  0  0  0  0  0  0  0  0  0  0
  154.5975  133.6177  161.7693 C   0  0  0  0  0  0  0  0  0  0  0  0
  154.4599  134.8356  162.3738 C   0  0  0  0  0  0  0  0  0  0  0  0
  154.2405  135.7131  161.2787 C   0  0  0  0  0  0  0  0  0  0  0  0
  154.0464  137.1024  161.4868 N   0  0  0  0  0  0  0  0  0  0  0  0
  153.8836  138.0548  160.5525 C   0  0  0  0  0  0  0  0  0  0  0  0
  153.8821  137.8619  159.3364 O   0  0  0  0  0  0  0  0  0  0  0  0
  153.7271  139.2643  161.1108 N   0  0  0  0  0  0  0  0  0  0  0  0
  153.5448  140.5124  160.3757 C   0  0  2  0  0  0  0  0  0  0  0  0
  153.4707  141.7075  161.3463 C   0  0  0  0  0  0  0  0  0  0  0  0
  153.2057  143.0238  160.5981 C   0  0  0  0  0  0  0  0  0  0  0  0
  151.9252  142.9484  159.7397 C   0  0  1  0  0  0  0  0  0  0  0  0
  151.6478  144.2720  158.9970 C   0  0  0  0  0  0  0  0  0  0  0  0
  152.6089  144.5283  158.1090 F   0  0  0  0  0  0  0  0  0  0  0  0
  150.4794  144.2014  158.3594 F   0  0  0  0  0  0  0  0  0  0  0  0
  151.5858  145.2796  159.8676 F   0  0  0  0  0  0  0  0  0  0  0  0
  152.0079  141.7482  158.7727 C   0  0  0  0  0  0  0  0  0  0  0  0
  152.2675  140.4307  159.5212 C   0  0  0  0  0  0  0  0  0  0  0  0
  154.2415  135.0869  160.1117 N   0  0  0  0  0  0  0  0  0  0  0  0
  154.4695  133.7408  160.4203 O   0  0  0  0  0  0  0  0  0  0  0  0
  155.1537  132.2802  163.3415 H   0  0  0  0  0  0  0  0  0  0  0  0
  155.6384  131.7524  161.7295 H   0  0  0  0  0  0  0  0  0  0  0  0
  153.9483  131.6359  162.2251 H   0  0  0  0  0  0  0  0  0  0  0  0
  154.5108  135.0594  163.4292 H   0  0  0  0  0  0  0  0  0  0  0  0
  154.0371  137.4038  162.4498 H   0  0  0  0  0  0  0  0  0  0  0  0
  153.7403  139.3288  162.1181 H   0  0  0  0  0  0  0  0  0  0  0  0
  154.3924  140.6563  159.7026 H   0  0  0  0  0  0  0  0  0  0  0  0
  152.6788  141.5418  162.0784 H   0  0  0  0  0  0  0  0  0  0  0  0
  154.3998  141.7918  161.9112 H   0  0  0  0  0  0  0  0  0  0  0  0
  153.1266  143.8378  161.3190 H   0  0  0  0  0  0  0  0  0  0  0  0
  154.0622  143.2570  159.9644 H   0  0  0  0  0  0  0  0  0  0  0  0
  151.0856  142.7721  160.4139 H   0  0  0  0  0  0  0  0  0  0  0  0
  151.0833  141.6618  158.2015 H   0  0  0  0  0  0  0  0  0  0  0  0
  152.8038  141.9135  158.0456 H   0  0  0  0  0  0  0  0  0  0  0  0
  152.3497  139.6126  158.8043 H   0  0  0  0  0  0  0  0  0  0  0  0
  151.4100  140.2009  160.1555 H   0  0  0  0  0  0  0  0  0  0  0  0
  1  2  1  0  0  0  0
  1 21  1  0  0  0  0
  1 22  1  0  0  0  0
  1 23  1  0  0  0  0
  2 20  1  0  0  0  0
  2  3  2  0  0  0  0
  3  4  1  0  0  0  0
  3 24  1  0  0  0  0
  4  5  1  0  0  0  0
  4 19  2  0  0  0  0
  5  6  1  0  0  0  0
  5 25  1  0  0  0  0
  6  7  2  0  0  0  0
  6  8  1  0  0  0  0
  8  9  1  0  0  0  0
  8 26  1  0  0  0  0
  9 18  1  0  0  0  0
  9 10  1  0  0  0  0
  9 27  1  0  0  0  0
 10 11  1  0  0  0  0
 10 28  1  0  0  0  0
 10 29  1  0  0  0  0
 11 12  1  0  0  0  0
 11 30  1  0  0  0  0
 11 31  1  0  0  0  0
 12 13  1  0  0  0  0
 12 17  1  0  0  0  0
 12 32  1  0  0  0  0
 13 14  1  0  0  0  0
 13 15  1  0  0  0  0
 13 16  1  0  0  0  0
 17 18  1  0  0  0  0
 17 33  1  0  0  0  0
 17 34  1  0  0  0  0
 18 35  1  0  0  0  0
 18 36  1  0  0  0  0
 19 20  1  0  0  0  0
M  END
> <s_m_source_file>
AV-unprocessed.smi

> <i_m_source_file_index>
1488

> <i_lp_mmshare_version>
43012

> <i_f3d_flags>
0

> <s_epik_input>
W0NIM11jMVtjSF1jKG5vMSlbTkhdQyg9TylbTkhdW0NAQEhdMltDSDJdW0NIMl1bQ0BASF0oQyhGKShGKUYpW0NIMl1bQ0gyXTI=

> <s_epik_cmdline>
J2VwaWtfcHl0aG9uJywgJy1waCcsICc3LjAnLCAnLXRuJywgJzgnLCAnLW1hJywgJzIwMCcsICctbWV0YWxfYmluZGluZycsICctaW1hZScsICc8aW5maWxlLm1hZT4nLCAnLW9tYWUnLCAnPG91dGZpbGUubWFlPic=

> <r_lp_tautomer_probability>
1

> <r_epik_Ionization_Penalty>
2.30349e-05

> <r_epik_Ionization_Penalty_Charging>
0

> <r_epik_Ionization_Penalty_Neutral>
2.30349e-05

> <r_epik_State_Penalty>
-0

> <r_epik_Charging_Adjusted_Penalty>
0

> <i_epik_Tot_Q>
0

> <i_epik_Tot_abs_Q>
0

> <r_epik_Metal_State_Penalty>
-0

> <b_epik_Metal_Only>
0

> <s_lp_Force_Field>
OPLS_2005

> <r_lp_Energy>
8.97319

> <b_lp_Chiralities_Consistent>
1

> <s_lp_Variant>
AV-unprocessed.smi:1488-1

> <Gold.Version>
5.8.1

> <Gold.Id.Protein>
6NUR|6NUR_protein|mol2

> <Gold.PLP.Fitness>
42.2604

> <Gold.PLP.PLP>
-40.2719

> <Gold.PLP.part.hbond>
-1.8894

> <Gold.PLP.part.metal>
0.0000

> <Gold.PLP.part.buried>
-5.4403

> <Gold.PLP.part.nonpolar>
-33.5414

> <Gold.PLP.part.repulsive>
0.0614

> <Gold.PLP.ligand.clash>
0.0000

> <Gold.PLP.ligand.torsion>
0.0236

> <Gold.PLP.Chemscore.Hbond>
0.6720

> <Gold.PLP.Chemscore.CHOScore>
0.0000

> <Gold.PLP.Chemscore.Metal>
0.0000

> <Gold.Chemscore.Hbonds>
donor molecule, donor type, donor heavy atom, donor atom, acceptor molecule, acceptor atom, score
      P1  H  6896  6907       L1    19  0.42

> <Gold.PLP.Chemscore.Internal.Correction>
0.0198

> <Gold.Rescore>
     Score         DG    S(hbond)    S(metal)    S(lipo)     H(rot)  DE(clash)    DE(int)     intcor
     11.79     -13.23       0.43        0.00      75.81       1.00       0.03       1.41       ----

> <Gold.Chemscore.Fitness>
11.7946

> <Gold.Chemscore.DG>
-13.2325

> <Gold.Chemscore.ZeroCoef>
-5.4800

> <Gold.Chemscore.Hbond>
0.4320

> <Gold.Chemscore.Metal>
0.0000

> <Gold.Chemscore.Lipo>
75.8095

> <Gold.Chemscore.Internal_Hbond>
0.0000

> <Gold.Chemscore.DEClash>
0.0254

> <Gold.Chemscore.DEInternal>
1.4125

> <Gold.Chemscore.Rot>
1.0000

> <Gold.Chemscore.Internal.Correction>
   9.000000E+99

> <Gold.Chemscore.Hbond.Weighted>
-1.4428

> <Gold.Chemscore.Metal.Weighted>
-0.0000

> <Gold.Chemscore.Lipo.Weighted>
-8.8697

> <Gold.Chemscore.Internal_Hbond.Weighted>
0.0000

> <Gold.Chemscore.DEClash.Weighted>
0.0254

> <Gold.Chemscore.DEInternal.Weighted>
1.4125

> <Gold.Chemscore.Rot.Weighted>
2.5600

> <Gold.Chemscore.Internal.Correction.Weighted>
   9.000000E+99

> <Gold.Protein.RotatedTorsions>
[ 6907 6896 6895 6894 ] final   52.35 input  -60.11 | X-H torsion
[ 7974 7965 7964 7962 ] final  -55.08 input  175.53 | X-H torsion
[ 8008 7997 7996 7995 ] final    8.26 input   59.86 | X-H torsion
[ 10167 10162 10161 10158 ] final  138.47 input  -65.29 | X-H torsion
[ 10718 10713 10712 10709 ] final -162.46 input   66.30 | X-H torsion
[ 10763 10752 10751 10750 ] final  -36.76 input  -60.55 | X-H torsion
[ 11005 11000 10999 10996 ] final   54.70 input  -57.11 | X-H torsion

> <Gold.Protein.ActiveResidues>
 VAL166  LYS551  ARG553  GLY616  TRP617  ASP618  TYR619  PRO620  LYS621  CYS622 
 ASP623  PHE694  ASN695  SER759  ASP760  ASP761  ALA762  ILE779  LEU786  VAL792 
 PHE793  MET794  SER795  GLU796  ALA797  LYS798  CYS799  TRP800  GLU811  SER814 

> <Gold.Protein.RotatedAtoms>
  152.3224  134.7363  160.0310 H   0  0  0  0  0  0  0  0  0  0  0  0  # atno 6907 bound_to 6896
  151.7808  133.3344  159.3479 H   0  0  0  0  0  0  0  0  0  0  0  0  # atno 6908 bound_to 6896
  150.7377  134.5864  159.6009 H   0  0  0  0  0  0  0  0  0  0  0  0  # atno 6909 bound_to 6896
  145.8782  140.8164  142.9853 H   0  0  0  0  0  0  0  0  0  0  0  0  # atno 7974 bound_to 7965
  154.7645  140.2791  155.6187 H   0  0  0  0  0  0  0  0  0  0  0  0  # atno 8008 bound_to 7997
  156.2922  140.2653  156.2360 H   0  0  0  0  0  0  0  0  0  0  0  0  # atno 8009 bound_to 7997
  154.9976  140.0373  157.2336 H   0  0  0  0  0  0  0  0  0  0  0  0  # atno 8010 bound_to 7997
  139.5110  144.6351  151.5717 H   0  0  0  0  0  0  0  0  0  0  0  0  # atno 10167 bound_to 10162
  156.6107  130.8849  151.2936 H   0  0  0  0  0  0  0  0  0  0  0  0  # atno 10718 bound_to 10713
  153.8851  135.6817  153.4764 H   0  0  0  0  0  0  0  0  0  0  0  0  # atno 10763 bound_to 10752
  153.1212  135.4739  154.9196 H   0  0  0  0  0  0  0  0  0  0  0  0  # atno 10764 bound_to 10752
  154.7650  135.3221  154.8257 H   0  0  0  0  0  0  0  0  0  0  0  0  # atno 10765 bound_to 10752
  140.0665  134.5529  155.9093 H   0  0  0  0  0  0  0  0  0  0  0  0  # atno 11005 bound_to 11000
  144.6726  140.1343  143.7441 LP  0  0  0  0  0  0  0  0  0  0  0  0  # atno 17320 bound_to 7965
  145.9055  139.2456  143.1468 LP  0  0  0  0  0  0  0  0  0  0  0  0  # atno 17321 bound_to 7965
  140.6097  143.9458  150.6444 LP  0  0  0  0  0  0  0  0  0  0  0  0  # atno 17342 bound_to 10162
  140.2697  143.3465  152.1249 LP  0  0  0  0  0  0  0  0  0  0  0  0  # atno 17343 bound_to 10162
  157.7255  130.9616  150.1616 LP  0  0  0  0  0  0  0  0  0  0  0  0  # atno 17370 bound_to 10713
  156.2392  130.3689  149.8356 LP  0  0  0  0  0  0  0  0  0  0  0  0  # atno 17371 bound_to 10713
  141.1995  133.6607  156.5846 LP  0  0  0  0  0  0  0  0  0  0  0  0  # atno 17394 bound_to 11000
  140.3691  134.7621  157.4586 LP  0  0  0  0  0  0  0  0  0  0  0  0  # atno 17395 bound_to 11000

$$$$
