AV-unprocessed.smi:1894|AV-procd|sdf|7679|dock7
  -GOLD-   22720 9423D 1   1.00000     0.00000
 Structure written by MMmdl.
 32 34  0  0  0  0  0  0  0  0  1 V2000
  150.4729  141.3977  157.2586 O   0  0  0  0  0  0  0  0  0  0  0  0
  151.5947  141.0227  157.5983 C   0  0  0  0  0  0  0  0  0  0  0  0
  152.2489  139.8366  156.8901 C   0  0  0  0  0  0  0  0  0  0  0  0
  151.3575  139.2735  155.8933 N   0  0  0  0  0  0  0  0  0  0  0  0
  150.8700  138.0382  155.7648 C   0  0  0  0  0  0  0  0  0  0  0  0
  150.0790  137.8818  154.7123 N   0  0  0  0  0  0  0  0  0  0  0  0
  150.1258  139.1482  154.2015 C   0  0  0  0  0  0  0  0  0  0  0  0
  150.8781  140.0216  154.8711 N   0  0  0  0  0  0  0  0  0  0  0  0
  152.3055  141.5948  158.5825 N   0  0  0  0  0  0  0  0  0  0  0  0
  151.8733  142.7204  159.4038 C   0  0  0  0  0  0  0  0  0  0  0  0
  151.5787  143.9653  158.5824 C   0  0  0  0  0  0  0  0  0  0  0  0
  152.6919  144.7977  157.9899 C   0  0  0  0  0  0  0  0  0  0  0  0
  151.8554  145.3501  159.1203 C   0  0  0  0  0  0  0  0  0  0  0  0
  152.8865  143.0336  160.4900 C   0  0  0  0  0  0  0  0  0  0  0  0
  152.8430  142.3266  161.8235 C   0  0  0  0  0  0  0  0  0  0  0  0
  152.5011  143.7969  161.7351 C   0  0  0  0  0  0  0  0  0  0  0  0
  153.1675  140.1578  156.3975 H   0  0  0  0  0  0  0  0  0  0  0  0
  152.5232  139.0665  157.6132 H   0  0  0  0  0  0  0  0  0  0  0  0
  151.1008  137.2383  156.4531 H   0  0  0  0  0  0  0  0  0  0  0  0
  149.5890  139.4351  153.3091 H   0  0  0  0  0  0  0  0  0  0  0  0
  153.2155  141.2086  158.7890 H   0  0  0  0  0  0  0  0  0  0  0  0
  150.9483  142.4328  159.9085 H   0  0  0  0  0  0  0  0  0  0  0  0
  150.6892  143.8704  157.9620 H   0  0  0  0  0  0  0  0  0  0  0  0
  153.7179  144.5200  158.2215 H   0  0  0  0  0  0  0  0  0  0  0  0
  152.5340  145.2130  156.9968 H   0  0  0  0  0  0  0  0  0  0  0  0
  151.1383  146.1328  158.8821 H   0  0  0  0  0  0  0  0  0  0  0  0
  152.3302  145.4344  160.0955 H   0  0  0  0  0  0  0  0  0  0  0  0
  153.8822  143.2437  160.1030 H   0  0  0  0  0  0  0  0  0  0  0  0
  152.0249  141.6316  162.0029 H   0  0  0  0  0  0  0  0  0  0  0  0
  153.7932  142.0562  162.2794 H   0  0  0  0  0  0  0  0  0  0  0  0
  153.2239  144.5074  162.1311 H   0  0  0  0  0  0  0  0  0  0  0  0
  151.4567  144.0732  161.8646 H   0  0  0  0  0  0  0  0  0  0  0  0
  1  2  2  0  0  0  0
  2  3  1  0  0  0  0
  2  9  1  0  0  0  0
  3  4  1  0  0  0  0
  3 17  1  0  0  0  0
  3 18  1  0  0  0  0
  4  8  1  0  0  0  0
  4  5  1  0  0  0  0
  5  6  2  0  0  0  0
  5 19  1  0  0  0  0
  6  7  1  0  0  0  0
  7  8  2  0  0  0  0
  7 20  1  0  0  0  0
  9 10  1  0  0  0  0
  9 21  1  0  0  0  0
 10 11  1  0  0  0  0
 10 14  1  0  0  0  0
 10 22  1  0  0  0  0
 11 13  1  0  0  0  0
 11 12  1  0  0  0  0
 11 23  1  0  0  0  0
 12 13  1  0  0  0  0
 12 24  1  0  0  0  0
 12 25  1  0  0  0  0
 13 26  1  0  0  0  0
 13 27  1  0  0  0  0
 14 16  1  0  0  0  0
 14 15  1  0  0  0  0
 14 28  1  0  0  0  0
 15 16  1  0  0  0  0
 15 29  1  0  0  0  0
 15 30  1  0  0  0  0
 16 31  1  0  0  0  0
 16 32  1  0  0  0  0
M  END
> <s_m_source_file>
AV-unprocessed.smi

> <i_m_source_file_index>
1894

> <i_lp_mmshare_version>
43012

> <i_f3d_flags>
0

> <s_epik_input>
W0NIMl0xW0NIMl1bQ0hdMVtDSF0oW0NIXTJbQ0gyXVtDSDJdMilbTkhdQyg9TylbQ0gyXW4zW2NIXW5bY0hdbjM=

> <s_epik_cmdline>
J2VwaWtfcHl0aG9uJywgJy1waCcsICc3LjAnLCAnLXRuJywgJzgnLCAnLW1hJywgJzIwMCcsICctbWV0YWxfYmluZGluZycsICctaW1hZScsICc8aW5maWxlLm1hZT4nLCAnLW9tYWUnLCAnPG91dGZpbGUubWFlPic=

> <r_lp_tautomer_probability>
1

> <r_epik_Ionization_Penalty>
9.18136e-06

> <r_epik_Ionization_Penalty_Charging>
0

> <r_epik_Ionization_Penalty_Neutral>
9.18136e-06

> <r_epik_State_Penalty>
-0

> <r_epik_Charging_Adjusted_Penalty>
0

> <i_epik_Tot_Q>
0

> <i_epik_Tot_abs_Q>
0

> <r_epik_Metal_State_Penalty>
-0

> <b_epik_Metal_Only>
0

> <s_lp_Force_Field>
OPLS_2005

> <r_lp_Energy>
25.0863

> <b_lp_Chiralities_Consistent>
1

> <s_lp_Variant>
AV-unprocessed.smi:1894-1

> <Gold.Version>
5.8.1

> <Gold.Id.Protein>
6NUR|6NUR_protein|mol2

> <Gold.PLP.Fitness>
45.2469

> <Gold.PLP.PLP>
-39.3687

> <Gold.PLP.part.hbond>
-1.0000

> <Gold.PLP.part.metal>
0.0000

> <Gold.PLP.part.buried>
-4.4927

> <Gold.PLP.part.nonpolar>
-33.8876

> <Gold.PLP.part.repulsive>
0.3856

> <Gold.PLP.ligand.clash>
0.0000

> <Gold.PLP.ligand.torsion>
1.1255

> <Gold.PLP.Chemscore.Hbond>
1.0000

> <Gold.PLP.Chemscore.CHOScore>
1.0000

> <Gold.PLP.Chemscore.Metal>
0.0000

> <Gold.Chemscore.Hbonds>
donor molecule, donor type, donor heavy atom, donor atom, acceptor molecule, acceptor atom, score
      P1  H  7989  7998       L1     8  1.00
      L1  C     7    20       P1  7957  1.00

> <Gold.PLP.Chemscore.Internal.Correction>
2.1293

> <Gold.Rescore>
     Score         DG    S(hbond)    S(metal)    S(lipo)     H(rot)  DE(clash)    DE(int)     intcor
     11.06     -13.26       0.91        0.00      95.29       2.50       0.08       2.11       ----

> <Gold.Chemscore.Fitness>
11.0618

> <Gold.Chemscore.DG>
-13.2576

> <Gold.Chemscore.ZeroCoef>
-5.4800

> <Gold.Chemscore.Hbond>
0.9051

> <Gold.Chemscore.Metal>
0.0000

> <Gold.Chemscore.Lipo>
95.2866

> <Gold.Chemscore.Internal_Hbond>
0.0000

> <Gold.Chemscore.DEClash>
0.0816

> <Gold.Chemscore.DEInternal>
2.1142

> <Gold.Chemscore.Rot>
2.4977

> <Gold.Chemscore.Internal.Correction>
   9.000000E+99

> <Gold.Chemscore.Hbonds>
donor molecule, donor type, donor heavy atom, donor atom, acceptor molecule, acceptor atom, score
      P1  H  7989  7998       L1     8  0.26

> <Gold.Chemscore.Hbond.Weighted>
-3.0232

> <Gold.Chemscore.Metal.Weighted>
-0.0000

> <Gold.Chemscore.Lipo.Weighted>
-11.1485

> <Gold.Chemscore.Internal_Hbond.Weighted>
0.0000

> <Gold.Chemscore.DEClash.Weighted>
0.0816

> <Gold.Chemscore.DEInternal.Weighted>
2.1142

> <Gold.Chemscore.Rot.Weighted>
6.3941

> <Gold.Chemscore.Internal.Correction.Weighted>
   9.000000E+99

> <Gold.Protein.RotatedTorsions>
[ 6907 6896 6895 6894 ] final -141.99 input  -60.11 | X-H torsion
[ 7974 7965 7964 7962 ] final  -57.73 input  175.53 | X-H torsion
[ 8008 7997 7996 7995 ] final -170.31 input   59.86 | X-H torsion
[ 10167 10162 10161 10158 ] final  -84.31 input  -65.29 | X-H torsion
[ 10718 10713 10712 10709 ] final -137.73 input   66.30 | X-H torsion
[ 10763 10752 10751 10750 ] final  -14.35 input  -60.55 | X-H torsion
[ 11005 11000 10999 10996 ] final  -97.96 input  -57.11 | X-H torsion

> <Gold.Protein.ActiveResidues>
 VAL166  LYS551  ARG553  GLY616  TRP617  ASP618  TYR619  PRO620  LYS621  CYS622 
 ASP623  PHE694  ASN695  SER759  ASP760  ASP761  ALA762  ILE779  LEU786  VAL792 
 PHE793  MET794  SER795  GLU796  ALA797  LYS798  CYS799  TRP800  GLU811  SER814 

> <Gold.Protein.RotatedAtoms>
  151.0811  133.5389  159.2620 H   0  0  0  0  0  0  0  0  0  0  0  0  # atno 6907 bound_to 6896
  151.2292  135.0547  159.8991 H   0  0  0  0  0  0  0  0  0  0  0  0  # atno 6908 bound_to 6896
  152.5424  134.0603  159.8202 H   0  0  0  0  0  0  0  0  0  0  0  0  # atno 6909 bound_to 6896
  145.8476  140.8374  143.0002 H   0  0  0  0  0  0  0  0  0  0  0  0  # atno 7974 bound_to 7965
  155.9167  140.1067  157.1238 H   0  0  0  0  0  0  0  0  0  0  0  0  # atno 8008 bound_to 7997
  154.4047  140.1264  156.4692 H   0  0  0  0  0  0  0  0  0  0  0  0  # atno 8009 bound_to 7997
  155.7245  140.3469  155.5033 H   0  0  0  0  0  0  0  0  0  0  0  0  # atno 8010 bound_to 7997
  140.4144  143.2609  151.8974 H   0  0  0  0  0  0  0  0  0  0  0  0  # atno 10167 bound_to 10162
  156.2914  130.7377  151.1404 H   0  0  0  0  0  0  0  0  0  0  0  0  # atno 10718 bound_to 10713
  153.5270  135.7015  153.5702 H   0  0  0  0  0  0  0  0  0  0  0  0  # atno 10763 bound_to 10752
  153.3727  135.3940  155.1800 H   0  0  0  0  0  0  0  0  0  0  0  0  # atno 10764 bound_to 10752
  154.8689  135.3816  154.4763 H   0  0  0  0  0  0  0  0  0  0  0  0  # atno 10765 bound_to 10752
  141.1361  133.8209  157.0776 H   0  0  0  0  0  0  0  0  0  0  0  0  # atno 11005 bound_to 11000
  144.6730  140.0905  143.7465 LP  0  0  0  0  0  0  0  0  0  0  0  0  # atno 17320 bound_to 7965
  145.9394  139.2659  143.1277 LP  0  0  0  0  0  0  0  0  0  0  0  0  # atno 17321 bound_to 7965
  139.4782  144.5503  151.8395 LP  0  0  0  0  0  0  0  0  0  0  0  0  # atno 17342 bound_to 10162
  140.4603  144.1732  150.5905 LP  0  0  0  0  0  0  0  0  0  0  0  0  # atno 17343 bound_to 10162
  157.7343  131.0583  150.5529 LP  0  0  0  0  0  0  0  0  0  0  0  0  # atno 17370 bound_to 10713
  156.5646  130.4264  149.6047 LP  0  0  0  0  0  0  0  0  0  0  0  0  # atno 17371 bound_to 10713
  140.0472  134.9824  157.1070 LP  0  0  0  0  0  0  0  0  0  0  0  0  # atno 17394 bound_to 11000
  140.4045  134.2047  155.7163 LP  0  0  0  0  0  0  0  0  0  0  0  0  # atno 17395 bound_to 11000

$$$$
