AV-unprocessed.smi:2577|AV-procd|sdf|10121|dock3
  -GOLD-   2272014143D 1   1.00000     0.00000
 Structure written by MMmdl.
 27 28  0  0  0  0  0  0  0  0  1 V2000
  147.2256  141.9511  155.1681 C   0  0  0  0  0  0  0  0  0  0  0  0
  148.2432  141.3112  154.2137 C   0  0  0  0  0  0  0  0  0  0  0  0
  149.4344  140.6583  154.9372 C   0  0  1  0  0  0  0  0  0  0  0  0
  150.1716  139.8827  154.0110 O   0  0  0  0  0  0  0  0  0  0  0  0
  150.3626  141.7066  155.5813 C   0  0  0  0  0  0  0  0  0  0  0  0
  151.2788  141.1226  156.5457 N   0  0  0  0  0  0  0  0  0  0  0  0
  151.9077  139.9512  156.2453 N   0  0  0  0  0  0  0  0  0  0  0  0
  152.6754  139.6235  157.2414 N   0  0  0  0  0  0  0  0  0  0  0  0
  152.5510  140.5987  158.2169 C   0  0  0  0  0  0  0  0  0  0  0  0
  153.1528  140.7434  159.4868 C   0  0  0  0  0  0  0  0  0  0  0  0
  152.8475  141.8577  160.2990 C   0  0  0  0  0  0  0  0  0  0  0  0
  153.6050  141.9995  161.8455 Cl  0  0  0  0  0  0  0  0  0  0  0  0
  151.9342  142.8415  159.8485 C   0  0  0  0  0  0  0  0  0  0  0  0
  151.5505  144.2113  160.8288 Cl  0  0  0  0  0  0  0  0  0  0  0  0
  151.3262  142.7097  158.5841 C   0  0  0  0  0  0  0  0  0  0  0  0
  151.6435  141.5932  157.7922 C   0  0  0  0  0  0  0  0  0  0  0  0
  146.4192  142.4275  154.6100 H   0  0  0  0  0  0  0  0  0  0  0  0
  147.6946  142.7145  155.7895 H   0  0  0  0  0  0  0  0  0  0  0  0
  146.7755  141.2098  155.8287 H   0  0  0  0  0  0  0  0  0  0  0  0
  147.7426  140.5769  153.5810 H   0  0  0  0  0  0  0  0  0  0  0  0
  148.6150  142.0859  153.5421 H   0  0  0  0  0  0  0  0  0  0  0  0
  149.0587  139.9913  155.7144 H   0  0  0  0  0  0  0  0  0  0  0  0
  149.6933  139.8531  153.1964 H   0  0  0  0  0  0  0  0  0  0  0  0
  150.9452  142.2215  154.8163 H   0  0  0  0  0  0  0  0  0  0  0  0
  149.7731  142.4721  156.0882 H   0  0  0  0  0  0  0  0  0  0  0  0
  153.8510  139.9968  159.8359 H   0  0  0  0  0  0  0  0  0  0  0  0
  150.6302  143.4542  158.2272 H   0  0  0  0  0  0  0  0  0  0  0  0
  1  2  1  0  0  0  0
  1 17  1  0  0  0  0
  1 18  1  0  0  0  0
  1 19  1  0  0  0  0
  2  3  1  0  0  0  0
  2 20  1  0  0  0  0
  2 21  1  0  0  0  0
  3  4  1  0  0  0  0
  3  5  1  0  0  0  0
  3 22  1  0  0  0  0
  4 23  1  0  0  0  0
  5  6  1  0  0  0  0
  5 24  1  0  0  0  0
  5 25  1  0  0  0  0
  6 16  1  0  0  0  0
  6  7  1  0  0  0  0
  7  8  2  0  0  0  0
  8  9  1  0  0  0  0
  9 16  2  0  0  0  0
  9 10  1  0  0  0  0
 10 11  2  0  0  0  0
 10 26  1  0  0  0  0
 11 12  1  0  0  0  0
 11 13  1  0  0  0  0
 13 14  1  0  0  0  0
 13 15  2  0  0  0  0
 15 16  1  0  0  0  0
 15 27  1  0  0  0  0
M  END
> <s_m_source_file>
AV-unprocessed.smi

> <i_m_source_file_index>
2577

> <i_lp_mmshare_version>
43012

> <i_f3d_flags>
0

> <s_epik_input>
W0NIM11bQ0gyXVtDQEhdKFtPSF0pW0NIMl1uKG5uMSljKGMxMilbY0hdYyhDbCljKENsKVtjSF0y

> <s_epik_cmdline>
J2VwaWtfcHl0aG9uJywgJy1waCcsICc3LjAnLCAnLXRuJywgJzgnLCAnLW1hJywgJzIwMCcsICctbWV0YWxfYmluZGluZycsICctaW1hZScsICc8aW5maWxlLm1hZT4nLCAnLW9tYWUnLCAnPG91dGZpbGUubWFlPic=

> <r_lp_tautomer_probability>
1

> <r_epik_Ionization_Penalty>
1.50913e-07

> <r_epik_Ionization_Penalty_Charging>
0

> <r_epik_Ionization_Penalty_Neutral>
1.50913e-07

> <r_epik_State_Penalty>
-0

> <r_epik_Charging_Adjusted_Penalty>
0

> <i_epik_Tot_Q>
0

> <i_epik_Tot_abs_Q>
0

> <r_epik_Metal_State_Penalty>
-0

> <b_epik_Metal_Only>
0

> <s_lp_Force_Field>
OPLS_2005

> <r_lp_Energy>
6.98618

> <b_lp_Chiralities_Consistent>
1

> <s_lp_Variant>
AV-unprocessed.smi:2577-2

> <Gold.Version>
5.8.1

> <Gold.Id.Protein>
6NUR|6NUR_protein|mol2

> <Gold.PLP.Fitness>
45.6867

> <Gold.PLP.PLP>
-37.4707

> <Gold.PLP.part.hbond>
-3.0000

> <Gold.PLP.part.metal>
0.0000

> <Gold.PLP.part.buried>
-4.0836

> <Gold.PLP.part.nonpolar>
-29.6244

> <Gold.PLP.part.repulsive>
0.0000

> <Gold.PLP.ligand.clash>
0.0000

> <Gold.PLP.ligand.torsion>
0.3829

> <Gold.PLP.Chemscore.Hbond>
2.9920

> <Gold.PLP.Chemscore.CHOScore>
0.0000

> <Gold.PLP.Chemscore.Metal>
0.0000

> <Gold.Chemscore.Hbonds>
donor molecule, donor type, donor heavy atom, donor atom, acceptor molecule, acceptor atom, score
      L1  H     4    23       P1  7957  0.96
      P1  H  7989  7998       L1     4  0.94
      P1  H  7997  8010       L1     8  0.95

> <Gold.PLP.Chemscore.Internal.Correction>
0.0058

> <Gold.Rescore>
     Score         DG    S(hbond)    S(metal)    S(lipo)     H(rot)  DE(clash)    DE(int)     intcor
     17.08     -18.85       1.92        0.00      98.63       1.79       0.04       1.73       ----

> <Gold.Chemscore.Fitness>
17.0827

> <Gold.Chemscore.DG>
-18.8452

> <Gold.Chemscore.ZeroCoef>
-5.4800

> <Gold.Chemscore.Hbond>
1.9204

> <Gold.Chemscore.Metal>
0.0000

> <Gold.Chemscore.Lipo>
98.6290

> <Gold.Chemscore.Internal_Hbond>
0.0000

> <Gold.Chemscore.DEClash>
0.0371

> <Gold.Chemscore.DEInternal>
1.7255

> <Gold.Chemscore.Rot>
1.7924

> <Gold.Chemscore.Internal.Correction>
   9.000000E+99

> <Gold.Chemscore.Hbonds>
donor molecule, donor type, donor heavy atom, donor atom, acceptor molecule, acceptor atom, score
      L1  H     4    23       P1  7957  0.87
      P1  H  7989  7998       L1     4  0.13
      P1  H  7997  8010       L1     8  0.05

> <Gold.Chemscore.Hbond.Weighted>
-6.4140

> <Gold.Chemscore.Metal.Weighted>
-0.0000

> <Gold.Chemscore.Lipo.Weighted>
-11.5396

> <Gold.Chemscore.Internal_Hbond.Weighted>
0.0000

> <Gold.Chemscore.DEClash.Weighted>
0.0371

> <Gold.Chemscore.DEInternal.Weighted>
1.7255

> <Gold.Chemscore.Rot.Weighted>
4.5884

> <Gold.Chemscore.Internal.Correction.Weighted>
   9.000000E+99

> <Gold.Protein.RotatedTorsions>
[ 6907 6896 6895 6894 ] final   35.98 input  -60.11 | X-H torsion
[ 7974 7965 7964 7962 ] final   58.45 input  175.53 | X-H torsion
[ 8008 7997 7996 7995 ] final   68.40 input   59.86 | X-H torsion
[ 10167 10162 10161 10158 ] final  -96.04 input  -65.29 | X-H torsion
[ 10718 10713 10712 10709 ] final  102.65 input   66.30 | X-H torsion
[ 10763 10752 10751 10750 ] final  -86.08 input  -60.55 | X-H torsion
[ 11005 11000 10999 10996 ] final -176.38 input  -57.11 | X-H torsion

> <Gold.Protein.ActiveResidues>
 VAL166  LYS551  ARG553  GLY616  TRP617  ASP618  TYR619  PRO620  LYS621  CYS622 
 ASP623  PHE694  ASN695  SER759  ASP760  ASP761  ALA762  ILE779  LEU786  VAL792 
 PHE793  MET794  SER795  GLU796  ALA797  LYS798  CYS799  TRP800  GLU811  SER814 

> <Gold.Protein.RotatedAtoms>
  152.1235  134.9188  160.0561 H   0  0  0  0  0  0  0  0  0  0  0  0  # atno 6907 bound_to 6896
  152.0319  133.3936  159.4309 H   0  0  0  0  0  0  0  0  0  0  0  0  # atno 6908 bound_to 6896
  150.6851  134.3432  159.4920 H   0  0  0  0  0  0  0  0  0  0  0  0  # atno 6909 bound_to 6896
  145.9180  139.3706  143.0495 H   0  0  0  0  0  0  0  0  0  0  0  0  # atno 7974 bound_to 7965
  155.7078  140.3494  155.4960 H   0  0  0  0  0  0  0  0  0  0  0  0  # atno 8008 bound_to 7997
  155.9383  140.1097  157.1098 H   0  0  0  0  0  0  0  0  0  0  0  0  # atno 8009 bound_to 7997
  154.4098  140.1217  156.4880 H   0  0  0  0  0  0  0  0  0  0  0  0  # atno 8010 bound_to 7997
  140.2979  143.3180  152.0278 H   0  0  0  0  0  0  0  0  0  0  0  0  # atno 10167 bound_to 10162
  157.6796  131.0758  150.5436 H   0  0  0  0  0  0  0  0  0  0  0  0  # atno 10718 bound_to 10713
  154.6184  135.5462  153.7548 H   0  0  0  0  0  0  0  0  0  0  0  0  # atno 10763 bound_to 10752
  153.0227  135.6406  154.1477 H   0  0  0  0  0  0  0  0  0  0  0  0  # atno 10764 bound_to 10752
  154.1412  135.2908  155.3140 H   0  0  0  0  0  0  0  0  0  0  0  0  # atno 10765 bound_to 10752
  140.4527  134.6328  157.4808 H   0  0  0  0  0  0  0  0  0  0  0  0  # atno 11005 bound_to 11000
  145.8587  140.9488  143.0712 LP  0  0  0  0  0  0  0  0  0  0  0  0  # atno 17320 bound_to 7965
  144.6750  140.0501  143.7479 LP  0  0  0  0  0  0  0  0  0  0  0  0  # atno 17321 bound_to 7965
  139.4922  144.6477  151.6742 LP  0  0  0  0  0  0  0  0  0  0  0  0  # atno 17342 bound_to 10162
  140.5676  144.0163  150.6200 LP  0  0  0  0  0  0  0  0  0  0  0  0  # atno 17343 bound_to 10162
  156.5742  130.4287  149.6006 LP  0  0  0  0  0  0  0  0  0  0  0  0  # atno 17370 bound_to 10713
  156.2715  130.7019  151.1818 LP  0  0  0  0  0  0  0  0  0  0  0  0  # atno 17371 bound_to 10713
  139.9996  134.6857  155.9552 LP  0  0  0  0  0  0  0  0  0  0  0  0  # atno 17394 bound_to 11000
  141.1657  133.6537  156.4470 LP  0  0  0  0  0  0  0  0  0  0  0  0  # atno 17395 bound_to 11000

$$$$
