AV-unprocessed.smi:3278|AV-procd|sdf|12540|dock2
  -GOLD-   2272018453D 1   1.00000     0.00000
 Structure written by MMmdl.
 39 40  0  0  0  0  0  0  0  0  2 V2000
  144.2021  132.3630  149.7944 C   0  0  0  0  0  0  0  0  0  0  0  0
  144.5872  133.5465  150.5328 N   0  0  0  0  0  0  0  0  0  0  0  0
  143.7850  134.4324  151.2183 C   0  0  0  0  0  0  0  0  0  0  0  0
  144.5956  135.3924  151.7601 C   0  0  0  0  0  0  0  0  0  0  0  0
  144.2264  136.5888  152.6112 C   0  0  1  0  0  0  0  0  0  0  0  0
  144.8973  136.4747  153.9905 C   0  0  0  0  0  0  0  0  0  0  0  0
  144.6938  137.8016  152.0489 O   0  0  0  0  0  0  0  0  0  0  0  0
  142.6944  136.7146  152.7620 C   0  0  0  0  0  0  0  0  0  0  0  0
  142.3079  138.0138  153.3583 N   0  3  0  0  0  0  0  0  0  0  0  0
  140.8687  138.3477  153.2839 C   0  0  2  0  0  0  0  0  0  0  0  0
  140.6266  139.7020  153.9790 C   0  0  0  0  0  0  0  0  0  0  0  0
  139.1669  140.1744  153.8776 C   0  0  0  0  0  0  0  0  0  0  0  0
  138.1880  139.1969  154.5418 C   0  0  0  0  0  0  0  0  0  0  0  0
  138.2364  137.5760  153.7325 S   0  0  0  0  0  0  0  0  0  0  0  0
  140.0080  137.2334  153.9145 C   0  0  0  0  0  0  0  0  0  0  0  0
  145.8961  134.9969  151.3288 C   0  0  0  0  0  0  0  0  0  0  0  0
  145.8883  133.8916  150.6034 N   0  0  0  0  0  0  0  0  0  0  0  0
  143.1207  132.2298  149.8379 H   0  0  0  0  0  0  0  0  0  0  0  0
  144.6850  131.4853  150.2250 H   0  0  0  0  0  0  0  0  0  0  0  0
  144.5045  132.4635  148.7515 H   0  0  0  0  0  0  0  0  0  0  0  0
  142.7131  134.3068  151.2657 H   0  0  0  0  0  0  0  0  0  0  0  0
  144.5717  135.5772  154.5178 H   0  0  0  0  0  0  0  0  0  0  0  0
  144.6589  137.3299  154.6242 H   0  0  0  0  0  0  0  0  0  0  0  0
  145.9834  136.4248  153.9001 H   0  0  0  0  0  0  0  0  0  0  0  0
  144.0810  138.4900  152.2595 H   0  0  0  0  0  0  0  0  0  0  0  0
  142.2218  136.6279  151.7824 H   0  0  0  0  0  0  0  0  0  0  0  0
  142.3083  135.8950  153.3684 H   0  0  0  0  0  0  0  0  0  0  0  0
  142.6056  138.0380  154.3232 H   0  0  0  0  0  0  0  0  0  0  0  0
  140.6012  138.4564  152.2315 H   0  0  0  0  0  0  0  0  0  0  0  0
  140.9160  139.6387  155.0291 H   0  0  0  0  0  0  0  0  0  0  0  0
  141.2712  140.4600  153.5318 H   0  0  0  0  0  0  0  0  0  0  0  0
  139.0724  141.1526  154.3502 H   0  0  0  0  0  0  0  0  0  0  0  0
  138.8944  140.3148  152.8307 H   0  0  0  0  0  0  0  0  0  0  0  0
  138.4282  139.0750  155.5986 H   0  0  0  0  0  0  0  0  0  0  0  0
  137.1707  139.5850  154.4875 H   0  0  0  0  0  0  0  0  0  0  0  0
  140.2043  136.2699  153.4451 H   0  0  0  0  0  0  0  0  0  0  0  0
  140.2390  137.1238  154.9749 H   0  0  0  0  0  0  0  0  0  0  0  0
  146.8430  135.4769  151.5279 H   0  0  0  0  0  0  0  0  0  0  0  0
  142.8133  138.7285  152.8540 H   0  0  0  0  0  0  0  0  0  0  0  0
  1  2  1  0  0  0  0
  1 18  1  0  0  0  0
  1 19  1  0  0  0  0
  1 20  1  0  0  0  0
  2 17  1  0  0  0  0
  2  3  1  0  0  0  0
  3  4  2  0  0  0  0
  3 21  1  0  0  0  0
  4  5  1  0  0  0  0
  4 16  1  0  0  0  0
  5  6  1  0  0  0  0
  5  7  1  0  0  0  0
  5  8  1  0  0  0  0
  6 22  1  0  0  0  0
  6 23  1  0  0  0  0
  6 24  1  0  0  0  0
  7 25  1  0  0  0  0
  8  9  1  0  0  0  0
  8 26  1  0  0  0  0
  8 27  1  0  0  0  0
  9 10  1  0  0  0  0
  9 28  1  0  0  0  0
  9 39  1  0  0  0  0
 10 15  1  0  0  0  0
 10 11  1  0  0  0  0
 10 29  1  0  0  0  0
 11 12  1  0  0  0  0
 11 30  1  0  0  0  0
 11 31  1  0  0  0  0
 12 13  1  0  0  0  0
 12 32  1  0  0  0  0
 12 33  1  0  0  0  0
 13 14  1  0  0  0  0
 13 34  1  0  0  0  0
 13 35  1  0  0  0  0
 14 15  1  0  0  0  0
 15 36  1  0  0  0  0
 15 37  1  0  0  0  0
 16 17  2  0  0  0  0
 16 38  1  0  0  0  0
M  CHG  1   9   1
M  END
> <s_m_source_file>
AV-unprocessed.smi

> <i_m_source_file_index>
3278

> <i_lp_mmshare_version>
43012

> <i_f3d_flags>
0

> <s_epik_input>
W0NIM11uMVtjSF1jKFtjSF1uMSlbQ0BAXShbQ0gzXSkoW09IXSlbQ0gyXVtOSF1bQ0BASF0yW0NIMl1bQ0gyXVtDSDJdU1tDSDJdMg==

> <s_epik_cmdline>
J2VwaWtfcHl0aG9uJywgJy1waCcsICc3LjAnLCAnLXRuJywgJzgnLCAnLW1hJywgJzIwMCcsICctbWV0YWxfYmluZGluZycsICctaW1hZScsICc8aW5maWxlLm1hZT4nLCAnLW9tYWUnLCAnPG91dGZpbGUubWFlPic=

> <r_lp_tautomer_probability>
1

> <r_epik_Ionization_Penalty>
0.0185703

> <r_epik_Ionization_Penalty_Charging>
0.0185619

> <r_epik_Ionization_Penalty_Neutral>
8.47286e-06

> <r_epik_State_Penalty>
0.0147768

> <r_epik_Charging_Adjusted_Penalty>
0.0333386

> <i_epik_Tot_Q>
1

> <i_epik_Tot_abs_Q>
1

> <r_epik_Metal_State_Penalty>
0.0147782

> <b_epik_Metal_Only>
0

> <s_lp_Force_Field>
OPLS_2005

> <r_lp_Energy>
8.27039

> <b_lp_Chiralities_Consistent>
1

> <s_lp_Variant>
AV-unprocessed.smi:3278-1

> <Gold.Version>
5.8.1

> <Gold.Id.Protein>
6NUR|6NUR_protein|mol2

> <Gold.PLP.Fitness>
46.5498

> <Gold.PLP.PLP>
-32.3651

> <Gold.PLP.part.hbond>
-2.7897

> <Gold.PLP.part.metal>
0.0000

> <Gold.PLP.part.buried>
-5.1822

> <Gold.PLP.part.nonpolar>
-24.4450

> <Gold.PLP.part.repulsive>
0.2042

> <Gold.PLP.ligand.clash>
0.0000

> <Gold.PLP.ligand.torsion>
0.1807

> <Gold.PLP.Chemscore.Hbond>
3.0000

> <Gold.PLP.Chemscore.CHOScore>
1.8376

> <Gold.PLP.Chemscore.Metal>
0.0000

> <Gold.Chemscore.Hbonds>
donor molecule, donor type, donor heavy atom, donor atom, acceptor molecule, acceptor atom, score
      L1  H     7    25       P1 10175  1.00
      L1  H     9    39       P1 10175  2.00
      L1  C     3    21       P1 10186  0.84
      L1  C    16    38       P1  7948  1.00

> <Gold.PLP.Chemscore.Internal.Correction>
0.0334

> <Gold.Rescore>
     Score         DG    S(hbond)    S(metal)    S(lipo)     H(rot)  DE(clash)    DE(int)     intcor
     15.37     -15.50       1.97        0.00      73.33       2.00       0.04       0.09       ----

> <Gold.Chemscore.Fitness>
15.3725

> <Gold.Chemscore.DG>
-15.5027

> <Gold.Chemscore.ZeroCoef>
-5.4800

> <Gold.Chemscore.Hbond>
1.9678

> <Gold.Chemscore.Metal>
0.0000

> <Gold.Chemscore.Lipo>
73.3337

> <Gold.Chemscore.Internal_Hbond>
0.0000

> <Gold.Chemscore.DEClash>
0.0440

> <Gold.Chemscore.DEInternal>
0.0862

> <Gold.Chemscore.Rot>
2.0038

> <Gold.Chemscore.Internal.Correction>
   9.000000E+99

> <Gold.Chemscore.Hbonds>
donor molecule, donor type, donor heavy atom, donor atom, acceptor molecule, acceptor atom, score
      L1  H     7    25       P1 10175  0.91
      L1  H     9    39       P1 10175  0.99

> <Gold.Chemscore.Hbond.Weighted>
-6.5723

> <Gold.Chemscore.Metal.Weighted>
-0.0000

> <Gold.Chemscore.Lipo.Weighted>
-8.5800

> <Gold.Chemscore.Internal_Hbond.Weighted>
0.0000

> <Gold.Chemscore.DEClash.Weighted>
0.0440

> <Gold.Chemscore.DEInternal.Weighted>
0.0862

> <Gold.Chemscore.Rot.Weighted>
5.1296

> <Gold.Chemscore.Internal.Correction.Weighted>
   9.000000E+99

> <Gold.Protein.RotatedTorsions>
[ 6907 6896 6895 6894 ] final -104.59 input  -60.11 | X-H torsion
[ 7974 7965 7964 7962 ] final  122.09 input  175.53 | X-H torsion
[ 8008 7997 7996 7995 ] final -157.40 input   59.86 | X-H torsion
[ 10167 10162 10161 10158 ] final  -91.28 input  -65.29 | X-H torsion
[ 10718 10713 10712 10709 ] final -101.38 input   66.30 | X-H torsion
[ 10763 10752 10751 10750 ] final  -85.75 input  -60.55 | X-H torsion
[ 11005 11000 10999 10996 ] final  147.78 input  -57.11 | X-H torsion

> <Gold.Protein.ActiveResidues>
 VAL166  LYS551  ARG553  GLY616  TRP617  ASP618  TYR619  PRO620  LYS621  CYS622 
 ASP623  PHE694  ASN695  SER759  ASP760  ASP761  ALA762  ILE779  LEU786  VAL792 
 PHE793  MET794  SER795  GLU796  ALA797  LYS798  CYS799  TRP800  GLU811  SER814 

> <Gold.Protein.RotatedAtoms>
  150.7294  134.0255  159.3715 H   0  0  0  0  0  0  0  0  0  0  0  0  # atno 6907 bound_to 6896
  151.8222  135.0646  160.0436 H   0  0  0  0  0  0  0  0  0  0  0  0  # atno 6908 bound_to 6896
  152.2995  133.5605  159.5646 H   0  0  0  0  0  0  0  0  0  0  0  0  # atno 6909 bound_to 6896
  145.1116  139.3449  143.4760 H   0  0  0  0  0  0  0  0  0  0  0  0  # atno 7974 bound_to 7965
  155.7319  140.0803  157.2285 H   0  0  0  0  0  0  0  0  0  0  0  0  # atno 8008 bound_to 7997
  154.4032  140.1594  156.2573 H   0  0  0  0  0  0  0  0  0  0  0  0  # atno 8009 bound_to 7997
  155.9101  140.3404  155.6095 H   0  0  0  0  0  0  0  0  0  0  0  0  # atno 8010 bound_to 7997
  140.3465  143.2914  151.9776 H   0  0  0  0  0  0  0  0  0  0  0  0  # atno 10167 bound_to 10162
  156.0193  130.5371  150.6954 H   0  0  0  0  0  0  0  0  0  0  0  0  # atno 10718 bound_to 10713
  154.6147  135.5474  153.7510 H   0  0  0  0  0  0  0  0  0  0  0  0  # atno 10763 bound_to 10752
  153.0211  135.6398  154.1528 H   0  0  0  0  0  0  0  0  0  0  0  0  # atno 10764 bound_to 10752
  154.1464  135.2905  155.3127 H   0  0  0  0  0  0  0  0  0  0  0  0  # atno 10765 bound_to 10752
  140.0905  134.9044  157.1643 H   0  0  0  0  0  0  0  0  0  0  0  0  # atno 11005 bound_to 11000
  146.3526  140.1037  142.8607 LP  0  0  0  0  0  0  0  0  0  0  0  0  # atno 17320 bound_to 7965
  145.0840  140.9240  143.4808 LP  0  0  0  0  0  0  0  0  0  0  0  0  # atno 17321 bound_to 7965
  139.4832  144.6113  151.7429 LP  0  0  0  0  0  0  0  0  0  0  0  0  # atno 17342 bound_to 10162
  140.5260  144.0805  150.6037 LP  0  0  0  0  0  0  0  0  0  0  0  0  # atno 17343 bound_to 10162
  157.4626  131.0885  151.0729 LP  0  0  0  0  0  0  0  0  0  0  0  0  # atno 17370 bound_to 10713
  157.1212  130.6062  149.5505 LP  0  0  0  0  0  0  0  0  0  0  0  0  # atno 17371 bound_to 10713
  140.3359  134.2757  155.7220 LP  0  0  0  0  0  0  0  0  0  0  0  0  # atno 17394 bound_to 11000
  141.2076  133.7801  157.0108 LP  0  0  0  0  0  0  0  0  0  0  0  0  # atno 17395 bound_to 11000

$$$$
