AV-unprocessed.smi:299|AV-procd|sdf|2266|dock8
  -GOLD-   2262022153D 1   1.00000     0.00000
 Structure written by MMmdl.
 42 43  0  0  0  0  0  0  0  0  2 V2000
  145.6945  132.0924  152.7598 C   0  0  0  0  0  0  0  0  0  0  0  0
  146.6467  133.0157  151.9683 C   0  0  1  0  0  0  0  0  0  0  0  0
  146.2413  133.1438  150.4849 C   0  0  0  0  0  0  0  0  0  0  0  0
  144.9843  134.0070  150.3038 C   0  0  0  0  0  0  0  0  0  0  0  0
  145.1824  135.3718  150.9741 C   0  0  0  0  0  0  0  0  0  0  0  0
  145.5908  135.2159  152.4484 C   0  0  0  0  0  0  0  0  0  0  0  0
  146.8079  134.3682  152.5818 N   0  3  1  0  0  0  0  0  0  0  0  0
  147.3631  134.3336  153.9597 C   0  0  0  0  0  0  0  0  0  0  0  0
  148.4080  133.2169  154.1435 C   0  0  0  0  0  0  0  0  0  0  0  0
  149.8628  133.7184  154.0708 C   0  0  0  0  0  0  0  0  0  0  0  0
  149.9748  135.1652  154.2274 N   0  0  0  0  0  0  0  0  0  0  0  0
  150.5910  135.7890  155.2440 C   0  0  0  0  0  0  0  0  0  0  0  0
  151.1653  135.1952  156.1558 O   0  0  0  0  0  0  0  0  0  0  0  0
  150.5567  137.3174  155.2303 C   0  0  0  0  0  0  0  0  0  0  0  0
  151.8989  137.8675  155.2266 N   0  0  0  0  0  0  0  0  0  0  0  0
  152.3890  138.9807  154.6769 C   0  0  0  0  0  0  0  0  0  0  0  0
  153.6880  139.1052  154.9018 N   0  0  0  0  0  0  0  0  0  0  0  0
  153.9891  137.9752  155.6442 N   0  0  0  0  0  0  0  0  0  0  0  0
  152.9314  137.2367  155.8400 N   0  0  0  0  0  0  0  0  0  0  0  0
  145.6235  131.1148  152.2827 H   0  0  0  0  0  0  0  0  0  0  0  0
  144.6836  132.4936  152.8237 H   0  0  0  0  0  0  0  0  0  0  0  0
  146.0479  131.9221  153.7765 H   0  0  0  0  0  0  0  0  0  0  0  0
  147.6291  132.5417  151.9816 H   0  0  0  0  0  0  0  0  0  0  0  0
  147.0636  133.5932  149.9265 H   0  0  0  0  0  0  0  0  0  0  0  0
  146.0841  132.1570  150.0479 H   0  0  0  0  0  0  0  0  0  0  0  0
  144.7689  134.1378  149.2429 H   0  0  0  0  0  0  0  0  0  0  0  0
  144.1177  133.5045  150.7341 H   0  0  0  0  0  0  0  0  0  0  0  0
  145.9506  135.9327  150.4400 H   0  0  0  0  0  0  0  0  0  0  0  0
  144.2659  135.9582  150.9015 H   0  0  0  0  0  0  0  0  0  0  0  0
  145.7747  136.2065  152.8620 H   0  0  0  0  0  0  0  0  0  0  0  0
  144.7704  134.7903  153.0266 H   0  0  0  0  0  0  0  0  0  0  0  0
  147.7850  135.3077  154.2114 H   0  0  0  0  0  0  0  0  0  0  0  0
  146.5527  134.1535  154.6672 H   0  0  0  0  0  0  0  0  0  0  0  0
  148.2553  132.7404  155.1124 H   0  0  0  0  0  0  0  0  0  0  0  0
  148.2635  132.4344  153.3993 H   0  0  0  0  0  0  0  0  0  0  0  0
  150.4548  133.2472  154.8558 H   0  0  0  0  0  0  0  0  0  0  0  0
  150.3163  133.4183  153.1248 H   0  0  0  0  0  0  0  0  0  0  0  0
  149.5212  135.7363  153.5285 H   0  0  0  0  0  0  0  0  0  0  0  0
  150.0313  137.6720  154.3427 H   0  0  0  0  0  0  0  0  0  0  0  0
  150.0112  137.6905  156.0987 H   0  0  0  0  0  0  0  0  0  0  0  0
  151.8005  139.6900  154.1141 H   0  0  0  0  0  0  0  0  0  0  0  0
  147.5164  134.8202  152.0215 H   0  0  0  0  0  0  0  0  0  0  0  0
  1  2  1  0  0  0  0
  1 20  1  0  0  0  0
  1 21  1  0  0  0  0
  1 22  1  0  0  0  0
  2  7  1  0  0  0  0
  2  3  1  0  0  0  0
  2 23  1  0  0  0  0
  3  4  1  0  0  0  0
  3 24  1  0  0  0  0
  3 25  1  0  0  0  0
  4  5  1  0  0  0  0
  4 26  1  0  0  0  0
  4 27  1  0  0  0  0
  5  6  1  0  0  0  0
  5 28  1  0  0  0  0
  5 29  1  0  0  0  0
  6  7  1  0  0  0  0
  6 30  1  0  0  0  0
  6 31  1  0  0  0  0
  7  8  1  0  0  0  0
  7 42  1  0  0  0  0
  8  9  1  0  0  0  0
  8 32  1  0  0  0  0
  8 33  1  0  0  0  0
  9 10  1  0  0  0  0
  9 34  1  0  0  0  0
  9 35  1  0  0  0  0
 10 11  1  0  0  0  0
 10 36  1  0  0  0  0
 10 37  1  0  0  0  0
 11 12  1  0  0  0  0
 11 38  1  0  0  0  0
 12 13  2  0  0  0  0
 12 14  1  0  0  0  0
 14 15  1  0  0  0  0
 14 39  1  0  0  0  0
 14 40  1  0  0  0  0
 15 19  1  0  0  0  0
 15 16  1  0  0  0  0
 16 17  2  0  0  0  0
 16 41  1  0  0  0  0
 17 18  1  0  0  0  0
 18 19  2  0  0  0  0
M  CHG  1   7   1
M  END
> <s_m_source_file>
AV-unprocessed.smi

> <i_m_source_file_index>
299

> <i_lp_mmshare_version>
43012

> <i_f3d_flags>
0

> <s_epik_input>
W0NIM11bQ0BASF0xW0NIMl1bQ0gyXVtDSDJdW0NIMl1OMVtDSDJdW0NIMl1bQ0gyXVtOSF1DKD1PKVtDSDJdbjJbY0hdbm5uMg==

> <s_epik_cmdline>
J2VwaWtfcHl0aG9uJywgJy1waCcsICc3LjAnLCAnLXRuJywgJzgnLCAnLW1hJywgJzIwMCcsICctbWV0YWxfYmluZGluZycsICctaW1hZScsICc8aW5maWxlLm1hZT4nLCAnLW9tYWUnLCAnPG91dGZpbGUubWFlPic=

> <r_lp_tautomer_probability>
1

> <r_epik_Ionization_Penalty>
0.000544863

> <r_epik_Ionization_Penalty_Charging>
0.000543475

> <r_epik_Ionization_Penalty_Neutral>
1.38784e-06

> <r_epik_State_Penalty>
0.000340025

> <r_epik_Charging_Adjusted_Penalty>
0.0008835

> <i_epik_Tot_Q>
1

> <i_epik_Tot_abs_Q>
1

> <r_epik_Metal_State_Penalty>
-0

> <b_epik_Metal_Only>
0

> <s_lp_Force_Field>
OPLS_2005

> <r_lp_Energy>
24.6376

> <b_lp_Chiralities_Consistent>
1

> <s_lp_Variant>
AV-unprocessed.smi:299-2

> <Gold.Version>
5.8.1

> <Gold.Id.Protein>
6NUR|6NUR_protein|mol2

> <Gold.PLP.Fitness>
44.8792

> <Gold.PLP.PLP>
-33.2311

> <Gold.PLP.part.hbond>
-6.8158

> <Gold.PLP.part.metal>
0.0000

> <Gold.PLP.part.buried>
-2.8500

> <Gold.PLP.part.nonpolar>
-23.2031

> <Gold.PLP.part.repulsive>
0.0697

> <Gold.PLP.ligand.clash>
0.0000

> <Gold.PLP.ligand.torsion>
1.1476

> <Gold.PLP.Chemscore.Hbond>
4.6240

> <Gold.PLP.Chemscore.CHOScore>
0.0000

> <Gold.PLP.Chemscore.Metal>
0.0000

> <Gold.Chemscore.Hbonds>
donor molecule, donor type, donor heavy atom, donor atom, acceptor molecule, acceptor atom, score
      L1  H     7    42       P1  7948  2.00
      L1  H    11    38       P1  7948  1.00
      P1  H  7997  8009       L1    17  0.90
      P1  H 10752 10765       L1    19  0.58

> <Gold.PLP.Chemscore.Internal.Correction>
0.0713

> <Gold.Rescore>
     Score         DG    S(hbond)    S(metal)    S(lipo)     H(rot)  DE(clash)    DE(int)     intcor
     10.62     -13.12       2.79        0.00      50.63       2.97       0.04       2.47       ----

> <Gold.Chemscore.Fitness>
10.6156

> <Gold.Chemscore.DG>
-13.1236

> <Gold.Chemscore.ZeroCoef>
-5.4800

> <Gold.Chemscore.Hbond>
2.7899

> <Gold.Chemscore.Metal>
0.0000

> <Gold.Chemscore.Lipo>
50.6277

> <Gold.Chemscore.Internal_Hbond>
0.0000

> <Gold.Chemscore.DEClash>
0.0360

> <Gold.Chemscore.DEInternal>
2.4719

> <Gold.Chemscore.Rot>
2.9680

> <Gold.Chemscore.Internal.Correction>
   9.000000E+99

> <Gold.Chemscore.Hbonds>
donor molecule, donor type, donor heavy atom, donor atom, acceptor molecule, acceptor atom, score
      L1  H     7    42       P1  7948  0.73
      L1  H    11    38       P1  7948  0.25
      P1  H  7997  8009       L1    17  0.17
      P1  H 10752 10765       L1    19  0.32

> <Gold.Chemscore.Hbond.Weighted>
-9.3181

> <Gold.Chemscore.Metal.Weighted>
-0.0000

> <Gold.Chemscore.Lipo.Weighted>
-5.9234

> <Gold.Chemscore.Internal_Hbond.Weighted>
0.0000

> <Gold.Chemscore.DEClash.Weighted>
0.0360

> <Gold.Chemscore.DEInternal.Weighted>
2.4719

> <Gold.Chemscore.Rot.Weighted>
7.5980

> <Gold.Chemscore.Internal.Correction.Weighted>
   9.000000E+99

> <Gold.Protein.RotatedTorsions>
[ 6907 6896 6895 6894 ] final  115.82 input  -60.11 | X-H torsion
[ 7974 7965 7964 7962 ] final  104.10 input  175.53 | X-H torsion
[ 8008 7997 7996 7995 ] final -128.23 input   59.86 | X-H torsion
[ 10167 10162 10161 10158 ] final  -16.29 input  -65.29 | X-H torsion
[ 10718 10713 10712 10709 ] final  123.14 input   66.30 | X-H torsion
[ 10763 10752 10751 10750 ] final -145.71 input  -60.55 | X-H torsion
[ 11005 11000 10999 10996 ] final  179.27 input  -57.11 | X-H torsion

> <Gold.Protein.ActiveResidues>
 VAL166  LYS551  ARG553  GLY616  TRP617  ASP618  TYR619  PRO620  LYS621  CYS622 
 ASP623  PHE694  ASN695  SER759  ASP760  ASP761  ALA762  ILE779  LEU786  VAL792 
 PHE793  MET794  SER795  GLU796  ALA797  LYS798  CYS799  TRP800  GLU811  SER814 

> <Gold.Protein.RotatedAtoms>
  152.4717  133.8045  159.6970 H   0  0  0  0  0  0  0  0  0  0  0  0  # atno 6907 bound_to 6896
  150.8710  133.7496  159.2968 H   0  0  0  0  0  0  0  0  0  0  0  0  # atno 6908 bound_to 6896
  151.5031  135.1066  159.9886 H   0  0  0  0  0  0  0  0  0  0  0  0  # atno 6909 bound_to 6896
  145.3372  139.2471  143.3629 H   0  0  0  0  0  0  0  0  0  0  0  0  # atno 7974 bound_to 7965
  155.2593  140.0435  157.2995 H   0  0  0  0  0  0  0  0  0  0  0  0  # atno 8008 bound_to 7997
  154.5720  140.2376  155.8146 H   0  0  0  0  0  0  0  0  0  0  0  0  # atno 8009 bound_to 7997
  156.2130  140.2993  155.9783 H   0  0  0  0  0  0  0  0  0  0  0  0  # atno 8010 bound_to 7997
  140.7231  143.5131  150.9725 H   0  0  0  0  0  0  0  0  0  0  0  0  # atno 10167 bound_to 10162
  157.5688  131.1085  150.8405 H   0  0  0  0  0  0  0  0  0  0  0  0  # atno 10718 bound_to 10713
  154.8371  135.3406  154.6547 H   0  0  0  0  0  0  0  0  0  0  0  0  # atno 10763 bound_to 10752
  153.7161  135.6961  153.5029 H   0  0  0  0  0  0  0  0  0  0  0  0  # atno 10764 bound_to 10752
  153.2416  135.4383  155.0657 H   0  0  0  0  0  0  0  0  0  0  0  0  # atno 10765 bound_to 10752
  140.4044  134.6749  157.4579 H   0  0  0  0  0  0  0  0  0  0  0  0  # atno 11005 bound_to 11000
  146.3022  140.3962  142.8700 LP  0  0  0  0  0  0  0  0  0  0  0  0  # atno 17320 bound_to 7965
  144.8818  140.7410  143.5982 LP  0  0  0  0  0  0  0  0  0  0  0  0  # atno 17321 bound_to 7965
  139.8846  143.7029  152.3153 LP  0  0  0  0  0  0  0  0  0  0  0  0  # atno 17342 bound_to 10162
  139.7323  144.7579  151.0782 LP  0  0  0  0  0  0  0  0  0  0  0  0  # atno 17343 bound_to 10162
  156.8883  130.5203  149.5287 LP  0  0  0  0  0  0  0  0  0  0  0  0  # atno 17370 bound_to 10713
  156.0734  130.5762  150.9428 LP  0  0  0  0  0  0  0  0  0  0  0  0  # atno 17371 bound_to 10713
  140.0313  134.6402  155.9103 LP  0  0  0  0  0  0  0  0  0  0  0  0  # atno 17394 bound_to 11000
  141.1845  133.6553  156.5159 LP  0  0  0  0  0  0  0  0  0  0  0  0  # atno 17395 bound_to 11000

$$$$
