AV-unprocessed.smi:767|AV-procd|sdf|3660|dock4
  -GOLD-   22720 1 73D 1   1.00000     0.00000
 Structure written by MMmdl.
 47 49  0  0  0  0  0  0  0  0  1 V2000
  143.9036  132.4973  148.9330 C   0  0  0  0  0  0  0  0  0  0  0  0
  144.8891  132.5523  150.0814 C   0  0  0  0  0  0  0  0  0  0  0  0
  145.0989  131.4278  150.9069 C   0  0  0  0  0  0  0  0  0  0  0  0
  146.0242  131.5344  151.9627 C   0  0  0  0  0  0  0  0  0  0  0  0
  146.6999  132.7573  152.1542 C   0  0  0  0  0  0  0  0  0  0  0  0
  147.6818  132.9384  153.2988 C   0  0  0  0  0  0  0  0  0  0  0  0
  147.2870  134.0609  154.2782 C   0  0  0  0  0  0  0  0  0  0  0  0
  148.0038  135.3058  154.0116 N   0  0  0  0  0  0  0  0  0  0  0  0
  148.2435  136.2709  154.9110 C   0  0  0  0  0  0  0  0  0  0  0  0
  147.8571  136.2407  156.0796 O   0  0  0  0  0  0  0  0  0  0  0  0
  148.9688  137.2684  154.3895 N   0  0  0  0  0  0  0  0  0  0  0  0
  149.4289  138.4276  155.1466 C   0  0  1  0  0  0  0  0  0  0  0  0
  150.5676  139.1793  154.4402 C   0  0  2  0  0  0  0  0  0  0  0  0
  151.9382  139.2144  155.0592 C   0  0  0  0  0  0  0  0  0  0  0  0
  151.9269  140.5319  155.8397 C   0  0  0  0  0  0  0  0  0  0  0  0
  150.5455  140.8249  156.0374 O   0  0  0  0  0  0  0  0  0  0  0  0
  149.8536  140.4599  154.8456 C   0  0  2  0  0  0  0  0  0  0  0  0
  148.5307  139.6846  155.0229 C   0  0  0  0  0  0  0  0  0  0  0  0
  147.5856  139.7665  153.8155 C   0  0  0  0  0  0  0  0  0  0  0  0
  147.7017  140.0452  156.2566 C   0  0  0  0  0  0  0  0  0  0  0  0
  146.4209  133.8195  151.2685 C   0  0  0  0  0  0  0  0  0  0  0  0
  145.5380  133.7253  150.2513 N   0  0  0  0  0  0  0  0  0  0  0  0
  143.2291  131.6467  149.0352 H   0  0  0  0  0  0  0  0  0  0  0  0
  144.4341  132.4018  147.9855 H   0  0  0  0  0  0  0  0  0  0  0  0
  143.2990  133.4045  148.9001 H   0  0  0  0  0  0  0  0  0  0  0  0
  144.5623  130.5056  150.7393 H   0  0  0  0  0  0  0  0  0  0  0  0
  146.2008  130.6954  152.6193 H   0  0  0  0  0  0  0  0  0  0  0  0
  147.7756  131.9959  153.8401 H   0  0  0  0  0  0  0  0  0  0  0  0
  148.6677  133.1473  152.8821 H   0  0  0  0  0  0  0  0  0  0  0  0
  146.2189  134.2605  154.1918 H   0  0  0  0  0  0  0  0  0  0  0  0
  147.4512  133.7365  155.3073 H   0  0  0  0  0  0  0  0  0  0  0  0
  148.3667  135.4282  153.0777 H   0  0  0  0  0  0  0  0  0  0  0  0
  149.2438  137.2112  153.4200 H   0  0  0  0  0  0  0  0  0  0  0  0
  149.6802  138.1999  156.1853 H   0  0  0  0  0  0  0  0  0  0  0  0
  150.5580  139.0395  153.3576 H   0  0  0  0  0  0  0  0  0  0  0  0
  152.0848  138.3664  155.7290 H   0  0  0  0  0  0  0  0  0  0  0  0
  152.7351  139.1962  154.3152 H   0  0  0  0  0  0  0  0  0  0  0  0
  152.4618  140.4637  156.7872 H   0  0  0  0  0  0  0  0  0  0  0  0
  152.3768  141.3311  155.2489 H   0  0  0  0  0  0  0  0  0  0  0  0
  149.8600  141.2366  154.0792 H   0  0  0  0  0  0  0  0  0  0  0  0
  147.1730  140.7691  153.7012 H   0  0  0  0  0  0  0  0  0  0  0  0
  146.7455  139.0779  153.9128 H   0  0  0  0  0  0  0  0  0  0  0  0
  148.0972  139.5248  152.8834 H   0  0  0  0  0  0  0  0  0  0  0  0
  147.3153  141.0627  156.1953 H   0  0  0  0  0  0  0  0  0  0  0  0
  148.2910  139.9781  157.1712 H   0  0  0  0  0  0  0  0  0  0  0  0
  146.8512  139.3734  156.3764 H   0  0  0  0  0  0  0  0  0  0  0  0
  146.9122  134.7744  151.3849 H   0  0  0  0  0  0  0  0  0  0  0  0
  1  2  1  0  0  0  0
  1 23  1  0  0  0  0
  1 24  1  0  0  0  0
  1 25  1  0  0  0  0
  2 22  1  0  0  0  0
  2  3  2  0  0  0  0
  3  4  1  0  0  0  0
  3 26  1  0  0  0  0
  4  5  2  0  0  0  0
  4 27  1  0  0  0  0
  5  6  1  0  0  0  0
  5 21  1  0  0  0  0
  6  7  1  0  0  0  0
  6 28  1  0  0  0  0
  6 29  1  0  0  0  0
  7  8  1  0  0  0  0
  7 30  1  0  0  0  0
  7 31  1  0  0  0  0
  8  9  1  0  0  0  0
  8 32  1  0  0  0  0
  9 10  2  0  0  0  0
  9 11  1  0  0  0  0
 11 12  1  0  0  0  0
 11 33  1  0  0  0  0
 12 18  1  0  0  0  0
 12 13  1  0  0  0  0
 12 34  1  0  0  0  0
 13 17  1  0  0  0  0
 13 14  1  0  0  0  0
 13 35  1  0  0  0  0
 14 15  1  0  0  0  0
 14 36  1  0  0  0  0
 14 37  1  0  0  0  0
 15 16  1  0  0  0  0
 15 38  1  0  0  0  0
 15 39  1  0  0  0  0
 16 17  1  0  0  0  0
 17 18  1  0  0  0  0
 17 40  1  0  0  0  0
 18 19  1  0  0  0  0
 18 20  1  0  0  0  0
 19 41  1  0  0  0  0
 19 42  1  0  0  0  0
 19 43  1  0  0  0  0
 20 44  1  0  0  0  0
 20 45  1  0  0  0  0
 20 46  1  0  0  0  0
 21 22  2  0  0  0  0
 21 47  1  0  0  0  0
M  END
> <s_m_source_file>
AV-unprocessed.smi

> <i_m_source_file_index>
767

> <i_lp_mmshare_version>
43012

> <i_f3d_flags>
0

> <s_epik_input>
W0NIM11jMVtjSF1bY0hdYyhbY0hdbjEpW0NIMl1bQ0gyXVtOSF1DKD1PKVtOSF1bQ0BIXTJDKFtDSDNdKShbQ0gzXSlbQ0BIXShbQ0BASF0yMylPW0NIMl1bQ0gyXTM=

> <s_epik_cmdline>
J2VwaWtfcHl0aG9uJywgJy1waCcsICc3LjAnLCAnLXRuJywgJzgnLCAnLW1hJywgJzIwMCcsICctbWV0YWxfYmluZGluZycsICctaW1hZScsICc8aW5maWxlLm1hZT4nLCAnLW9tYWUnLCAnPG91dGZpbGUubWFlPic=

> <r_epik_Ionization_Penalty>
0.0567523

> <r_epik_Ionization_Penalty_Charging>
0

> <r_epik_Ionization_Penalty_Neutral>
0.0567523

> <r_epik_State_Penalty>
0.0489186

> <r_epik_Charging_Adjusted_Penalty>
0.0489186

> <i_epik_Tot_Q>
0

> <i_epik_Tot_abs_Q>
0

> <r_epik_Metal_State_Penalty>
0.044622

> <b_epik_Metal_Only>
0

> <s_lp_Force_Field>
OPLS_2005

> <r_lp_Energy>
33.1778

> <b_lp_Chiralities_Consistent>
1

> <s_lp_Variant>
AV-unprocessed.smi:767-4

> <Gold.Version>
5.8.1

> <Gold.Id.Protein>
6NUR|6NUR_protein|mol2

> <Gold.PLP.Fitness>
42.4311

> <Gold.PLP.PLP>
-35.0547

> <Gold.PLP.part.hbond>
-2.0000

> <Gold.PLP.part.metal>
0.0000

> <Gold.PLP.part.buried>
-4.6722

> <Gold.PLP.part.nonpolar>
-29.6339

> <Gold.PLP.part.repulsive>
2.1262

> <Gold.PLP.ligand.clash>
0.0000

> <Gold.PLP.ligand.torsion>
0.7281

> <Gold.PLP.Chemscore.Hbond>
1.8960

> <Gold.PLP.Chemscore.CHOScore>
0.9842

> <Gold.PLP.Chemscore.Metal>
0.0000

> <Gold.Chemscore.Hbonds>
donor molecule, donor type, donor heavy atom, donor atom, acceptor molecule, acceptor atom, score
      L1  H     8    32       P1  7948  1.00
      L1  H    11    33       P1  7948  0.86
      L1  C    21    47       P1  7948  1.00

> <Gold.PLP.Chemscore.Internal.Correction>
0.1919

> <Gold.Rescore>
     Score         DG    S(hbond)    S(metal)    S(lipo)     H(rot)  DE(clash)    DE(int)     intcor
     19.20     -20.10       1.89        0.00     102.78       1.45       0.13       0.77       ----

> <Gold.Chemscore.Fitness>
19.1969

> <Gold.Chemscore.DG>
-20.0990

> <Gold.Chemscore.ZeroCoef>
-5.4800

> <Gold.Chemscore.Hbond>
1.8879

> <Gold.Chemscore.Metal>
0.0000

> <Gold.Chemscore.Lipo>
102.7757

> <Gold.Chemscore.Internal_Hbond>
0.0000

> <Gold.Chemscore.DEClash>
0.1271

> <Gold.Chemscore.DEInternal>
0.7749

> <Gold.Chemscore.Rot>
1.4497

> <Gold.Chemscore.Internal.Correction>
   9.000000E+99

> <Gold.Chemscore.Hbonds>
donor molecule, donor type, donor heavy atom, donor atom, acceptor molecule, acceptor atom, score
      L1  H     8    32       P1  7948  0.93
      L1  H    11    33       P1  7948  0.86

> <Gold.Chemscore.Hbond.Weighted>
-6.3054

> <Gold.Chemscore.Metal.Weighted>
-0.0000

> <Gold.Chemscore.Lipo.Weighted>
-12.0248

> <Gold.Chemscore.Internal_Hbond.Weighted>
0.0000

> <Gold.Chemscore.DEClash.Weighted>
0.1271

> <Gold.Chemscore.DEInternal.Weighted>
0.7749

> <Gold.Chemscore.Rot.Weighted>
3.7112

> <Gold.Chemscore.Internal.Correction.Weighted>
   9.000000E+99

> <Gold.Protein.RotatedTorsions>
[ 6907 6896 6895 6894 ] final   45.38 input  -60.11 | X-H torsion
[ 7974 7965 7964 7962 ] final -161.00 input  175.53 | X-H torsion
[ 8008 7997 7996 7995 ] final  136.89 input   59.86 | X-H torsion
[ 10167 10162 10161 10158 ] final -120.90 input  -65.29 | X-H torsion
[ 10718 10713 10712 10709 ] final   -5.11 input   66.30 | X-H torsion
[ 10763 10752 10751 10750 ] final   42.49 input  -60.55 | X-H torsion
[ 11005 11000 10999 10996 ] final   14.16 input  -57.11 | X-H torsion

> <Gold.Protein.ActiveResidues>
 VAL166  LYS551  ARG553  GLY616  TRP617  ASP618  TYR619  PRO620  LYS621  CYS622 
 ASP623  PHE694  ASN695  SER759  ASP760  ASP761  ALA762  ILE779  LEU786  VAL792 
 PHE793  MET794  SER795  GLU796  ALA797  LYS798  CYS799  TRP800  GLU811  SER814 

> <Gold.Protein.RotatedAtoms>
  152.2438  134.8202  160.0456 H   0  0  0  0  0  0  0  0  0  0  0  0  # atno 6907 bound_to 6896
  151.8907  133.3510  159.3805 H   0  0  0  0  0  0  0  0  0  0  0  0  # atno 6908 bound_to 6896
  150.7062  134.4853  159.5534 H   0  0  0  0  0  0  0  0  0  0  0  0  # atno 6909 bound_to 6896
  144.7407  140.3461  143.6125 H   0  0  0  0  0  0  0  0  0  0  0  0  # atno 7974 bound_to 7965
  156.3003  140.2433  156.3820 H   0  0  0  0  0  0  0  0  0  0  0  0  # atno 8008 bound_to 7997
  154.8692  140.0417  157.1734 H   0  0  0  0  0  0  0  0  0  0  0  0  # atno 8009 bound_to 7997
  154.8813  140.2949  155.5427 H   0  0  0  0  0  0  0  0  0  0  0  0  # atno 8010 bound_to 7997
  140.0309  143.5249  152.2177 H   0  0  0  0  0  0  0  0  0  0  0  0  # atno 10167 bound_to 10162
  156.7514  130.5240  149.5803 H   0  0  0  0  0  0  0  0  0  0  0  0  # atno 10718 bound_to 10713
  152.9882  135.6130  154.2957 H   0  0  0  0  0  0  0  0  0  0  0  0  # atno 10763 bound_to 10752
  154.2680  135.2780  155.2752 H   0  0  0  0  0  0  0  0  0  0  0  0  # atno 10764 bound_to 10752
  154.5147  135.5831  153.6689 H   0  0  0  0  0  0  0  0  0  0  0  0  # atno 10765 bound_to 10752
  140.4727  134.1015  155.7735 H   0  0  0  0  0  0  0  0  0  0  0  0  # atno 11005 bound_to 11000
  145.7324  139.1740  143.2423 LP  0  0  0  0  0  0  0  0  0  0  0  0  # atno 17320 bound_to 7965
  146.1196  140.7326  142.9464 LP  0  0  0  0  0  0  0  0  0  0  0  0  # atno 17321 bound_to 7965
  139.6077  144.7600  151.3024 LP  0  0  0  0  0  0  0  0  0  0  0  0  # atno 17342 bound_to 10162
  140.7302  143.6885  150.7942 LP  0  0  0  0  0  0  0  0  0  0  0  0  # atno 17343 bound_to 10162
  156.1399  130.6237  151.0452 LP  0  0  0  0  0  0  0  0  0  0  0  0  # atno 17370 bound_to 10713
  157.6775  131.0846  150.7455 LP  0  0  0  0  0  0  0  0  0  0  0  0  # atno 17371 bound_to 10713
  141.1569  133.8865  157.1952 LP  0  0  0  0  0  0  0  0  0  0  0  0  # atno 17394 bound_to 11000
  139.9875  135.0076  156.9898 LP  0  0  0  0  0  0  0  0  0  0  0  0  # atno 17395 bound_to 11000

$$$$
