AV-unprocessed.smi:662|AV-procd|sdf|3243|dock3
  -GOLD-   22720 0193D 1   1.00000     0.00000
 Structure written by MMmdl.
 34 35  0  0  0  0  0  0  0  0  2 V2000
  146.5317  133.8446  153.9601 O   0  0  0  0  0  0  0  0  0  0  0  0
  146.7559  132.9932  153.1004 C   0  0  0  0  0  0  0  0  0  0  0  0
  147.9994  132.5793  152.7993 N   0  0  0  0  0  0  0  0  0  0  0  0
  149.2173  133.0638  153.4398 C   0  0  0  0  0  0  0  0  0  0  0  0
  149.7069  132.0987  154.5311 C   0  0  0  0  0  0  0  0  0  0  0  0
  149.7038  130.6785  154.0756 C   0  0  0  0  0  0  0  0  0  0  0  0
  148.7227  130.1437  153.3446 N   0  0  0  0  0  0  0  0  0  0  0  0
  148.9282  128.7869  153.0711 C   0  0  0  0  0  0  0  0  0  0  0  0
  147.9232  128.0313  152.2502 C   0  0  0  0  0  0  0  0  0  0  0  0
  147.4135  127.0008  152.9252 F   0  0  0  0  0  0  0  0  0  0  0  0
  146.9082  128.8168  151.8911 F   0  0  0  0  0  0  0  0  0  0  0  0
  148.4763  127.5482  151.1382 F   0  0  0  0  0  0  0  0  0  0  0  0
  150.0864  128.2977  153.6251 C   0  0  0  0  0  0  0  0  0  0  0  0
  150.9559  129.5217  154.5092 S   0  0  0  0  0  0  0  0  0  0  0  0
  145.5738  132.3808  152.3289 C   0  0  2  0  0  0  0  0  0  0  0  0
  145.7887  132.4646  150.8117 C   0  0  0  0  0  0  0  0  0  0  0  0
  144.3747  132.3927  150.2560 C   0  0  0  0  0  0  0  0  0  0  0  0
  143.5348  133.1215  151.3059 C   0  0  0  0  0  0  0  0  0  0  0  0
  144.2775  133.0511  152.5820 N   0  3  0  0  0  0  0  0  0  0  0  0
  148.1164  131.8881  152.0735 H   0  0  0  0  0  0  0  0  0  0  0  0
  149.9837  133.1748  152.6720 H   0  0  0  0  0  0  0  0  0  0  0  0
  149.0509  134.0589  153.8565 H   0  0  0  0  0  0  0  0  0  0  0  0
  150.7187  132.3590  154.8450 H   0  0  0  0  0  0  0  0  0  0  0  0
  149.0751  132.1804  155.4162 H   0  0  0  0  0  0  0  0  0  0  0  0
  150.4774  127.2926  153.5695 H   0  0  0  0  0  0  0  0  0  0  0  0
  145.4666  131.3358  152.6232 H   0  0  0  0  0  0  0  0  0  0  0  0
  146.2412  133.4179  150.5320 H   0  0  0  0  0  0  0  0  0  0  0  0
  146.4270  131.6664  150.4310 H   0  0  0  0  0  0  0  0  0  0  0  0
  144.2838  132.8291  149.2608 H   0  0  0  0  0  0  0  0  0  0  0  0
  144.0616  131.3495  150.1938 H   0  0  0  0  0  0  0  0  0  0  0  0
  143.4157  134.1715  151.0368 H   0  0  0  0  0  0  0  0  0  0  0  0
  142.5398  132.6864  151.4044 H   0  0  0  0  0  0  0  0  0  0  0  0
  143.7547  132.5383  153.2780 H   0  0  0  0  0  0  0  0  0  0  0  0
  144.4511  133.9926  152.9026 H   0  0  0  0  0  0  0  0  0  0  0  0
  1  2  2  0  0  0  0
  2  3  1  0  0  0  0
  2 15  1  0  0  0  0
  3  4  1  0  0  0  0
  3 20  1  0  0  0  0
  4  5  1  0  0  0  0
  4 21  1  0  0  0  0
  4 22  1  0  0  0  0
  5  6  1  0  0  0  0
  5 23  1  0  0  0  0
  5 24  1  0  0  0  0
  6 14  1  0  0  0  0
  6  7  2  0  0  0  0
  7  8  1  0  0  0  0
  8  9  1  0  0  0  0
  8 13  2  0  0  0  0
  9 10  1  0  0  0  0
  9 11  1  0  0  0  0
  9 12  1  0  0  0  0
 13 14  1  0  0  0  0
 13 25  1  0  0  0  0
 15 19  1  0  0  0  0
 15 16  1  0  0  0  0
 15 26  1  0  0  0  0
 16 17  1  0  0  0  0
 16 27  1  0  0  0  0
 16 28  1  0  0  0  0
 17 18  1  0  0  0  0
 17 29  1  0  0  0  0
 17 30  1  0  0  0  0
 18 19  1  0  0  0  0
 18 31  1  0  0  0  0
 18 32  1  0  0  0  0
 19 33  1  0  0  0  0
 19 34  1  0  0  0  0
M  CHG  1  19   1
M  END
> <s_m_source_file>
AV-unprocessed.smi

> <i_m_source_file_index>
662

> <i_lp_mmshare_version>
43012

> <i_f3d_flags>
0

> <s_epik_input>
W05IXTFbQ0gyXVtDSDJdW0NIMl1bQ0BIXTFDKD1PKVtOSF1bQ0gyXVtDSDJdYzJuYyhDKEYpKEYpRilbY0hdczI=

> <s_epik_cmdline>
J2VwaWtfcHl0aG9uJywgJy1waCcsICc3LjAnLCAnLXRuJywgJzgnLCAnLW1hJywgJzIwMCcsICctbWV0YWxfYmluZGluZycsICctaW1hZScsICc8aW5maWxlLm1hZT4nLCAnLW9tYWUnLCAnPG91dGZpbGUubWFlPic=

> <r_epik_Ionization_Penalty>
0.0382401

> <r_epik_Ionization_Penalty_Charging>
0.0382382

> <r_epik_Ionization_Penalty_Neutral>
1.85239e-06

> <r_epik_State_Penalty>
0.0320549

> <r_epik_Charging_Adjusted_Penalty>
0.0702931

> <i_epik_Tot_Q>
1

> <i_epik_Tot_abs_Q>
1

> <r_epik_Metal_State_Penalty>
0.0320549

> <b_epik_Metal_Only>
0

> <s_lp_Force_Field>
OPLS_2005

> <r_lp_Energy>
7.29414

> <b_lp_Chiralities_Consistent>
1

> <s_lp_Variant>
AV-unprocessed.smi:662-1

> <Gold.Version>
5.8.1

> <Gold.Id.Protein>
6NUR|6NUR_protein|mol2

> <Gold.PLP.Fitness>
43.5593

> <Gold.PLP.PLP>
-36.4279

> <Gold.PLP.part.hbond>
-1.4033

> <Gold.PLP.part.metal>
0.0000

> <Gold.PLP.part.buried>
-4.2180

> <Gold.PLP.part.nonpolar>
-32.3360

> <Gold.PLP.part.repulsive>
0.2059

> <Gold.PLP.ligand.clash>
0.0000

> <Gold.PLP.ligand.torsion>
0.6186

> <Gold.PLP.Chemscore.Hbond>
2.4713

> <Gold.PLP.Chemscore.CHOScore>
0.3109

> <Gold.PLP.Chemscore.Metal>
0.0000

> <Gold.Chemscore.Hbonds>
donor molecule, donor type, donor heavy atom, donor atom, acceptor molecule, acceptor atom, score
      L1  H     3    20       P1 10747  0.49
      L1  H    19    33       P1 10957  1.90
      L1  C    13    25       P1 10737  0.33

> <Gold.PLP.Chemscore.Internal.Correction>
0.0221

> <Gold.Rescore>
     Score         DG    S(hbond)    S(metal)    S(lipo)     H(rot)  DE(clash)    DE(int)     intcor
     10.13     -12.52       0.97        0.00      75.59       1.97       0.21       2.18       ----

> <Gold.Chemscore.Fitness>
10.1327

> <Gold.Chemscore.DG>
-12.5170

> <Gold.Chemscore.ZeroCoef>
-5.4800

> <Gold.Chemscore.Hbond>
0.9687

> <Gold.Chemscore.Metal>
0.0000

> <Gold.Chemscore.Lipo>
75.5897

> <Gold.Chemscore.Internal_Hbond>
0.0000

> <Gold.Chemscore.DEClash>
0.2060

> <Gold.Chemscore.DEInternal>
2.1782

> <Gold.Chemscore.Rot>
1.9697

> <Gold.Chemscore.Internal.Correction>
   9.000000E+99

> <Gold.Chemscore.Hbonds>
donor molecule, donor type, donor heavy atom, donor atom, acceptor molecule, acceptor atom, score
      L1  H     3    20       P1 10747  0.47
      L1  H    19    33       P1 10957  0.21

> <Gold.Chemscore.Hbond.Weighted>
-3.2354

> <Gold.Chemscore.Metal.Weighted>
-0.0000

> <Gold.Chemscore.Lipo.Weighted>
-8.8440

> <Gold.Chemscore.Internal_Hbond.Weighted>
0.0000

> <Gold.Chemscore.DEClash.Weighted>
0.2060

> <Gold.Chemscore.DEInternal.Weighted>
2.1782

> <Gold.Chemscore.Rot.Weighted>
5.0424

> <Gold.Chemscore.Internal.Correction.Weighted>
   9.000000E+99

> <Gold.Protein.RotatedTorsions>
[ 6907 6896 6895 6894 ] final   57.25 input  -60.11 | X-H torsion
[ 7974 7965 7964 7962 ] final   82.44 input  175.53 | X-H torsion
[ 8008 7997 7996 7995 ] final  -12.42 input   59.86 | X-H torsion
[ 10167 10162 10161 10158 ] final  -58.35 input  -65.29 | X-H torsion
[ 10718 10713 10712 10709 ] final    8.34 input   66.30 | X-H torsion
[ 10763 10752 10751 10750 ] final  -19.69 input  -60.55 | X-H torsion
[ 11005 11000 10999 10996 ] final -131.85 input  -57.11 | X-H torsion

> <Gold.Protein.ActiveResidues>
 VAL166  LYS551  ARG553  GLY616  TRP617  ASP618  TYR619  PRO620  LYS621  CYS622 
 ASP623  PHE694  ASN695  SER759  ASP760  ASP761  ALA762  ILE779  LEU786  VAL792 
 PHE793  MET794  SER795  GLU796  ALA797  LYS798  CYS799  TRP800  GLU811  SER814 

> <Gold.Protein.RotatedAtoms>
  152.3713  134.6729  160.0174 H   0  0  0  0  0  0  0  0  0  0  0  0  # atno 6907 bound_to 6896
  151.7021  133.3306  159.3277 H   0  0  0  0  0  0  0  0  0  0  0  0  # atno 6908 bound_to 6896
  150.7676  134.6542  159.6349 H   0  0  0  0  0  0  0  0  0  0  0  0  # atno 6909 bound_to 6896
  145.6251  139.2393  143.2116 H   0  0  0  0  0  0  0  0  0  0  0  0  # atno 7974 bound_to 7965
  154.5379  140.2276  155.8691 H   0  0  0  0  0  0  0  0  0  0  0  0  # atno 8008 bound_to 7997
  156.1829  140.3096  155.9146 H   0  0  0  0  0  0  0  0  0  0  0  0  # atno 8009 bound_to 7997
  155.3317  140.0446  157.3033 H   0  0  0  0  0  0  0  0  0  0  0  0  # atno 8010 bound_to 7997
  140.6202  143.2417  151.5498 H   0  0  0  0  0  0  0  0  0  0  0  0  # atno 10167 bound_to 10162
  156.9502  130.5894  149.5656 H   0  0  0  0  0  0  0  0  0  0  0  0  # atno 10718 bound_to 10713
  153.6087  135.6997  153.5355 H   0  0  0  0  0  0  0  0  0  0  0  0  # atno 10763 bound_to 10752
  153.3035  135.4122  155.1273 H   0  0  0  0  0  0  0  0  0  0  0  0  # atno 10764 bound_to 10752
  154.8568  135.3654  154.5625 H   0  0  0  0  0  0  0  0  0  0  0  0  # atno 10765 bound_to 10752
  140.9222  134.1429  157.4304 H   0  0  0  0  0  0  0  0  0  0  0  0  # atno 11005 bound_to 11000
  146.1401  140.7070  142.9371 LP  0  0  0  0  0  0  0  0  0  0  0  0  # atno 17320 bound_to 7965
  144.7216  140.4390  143.7004 LP  0  0  0  0  0  0  0  0  0  0  0  0  # atno 17321 bound_to 7965
  139.5432  144.2590  152.1392 LP  0  0  0  0  0  0  0  0  0  0  0  0  # atno 17342 bound_to 10162
  140.1808  144.4846  150.6529 LP  0  0  0  0  0  0  0  0  0  0  0  0  # atno 17343 bound_to 10162
  156.0366  130.5453  150.8669 LP  0  0  0  0  0  0  0  0  0  0  0  0  # atno 17370 bound_to 10713
  157.5727  131.0946  150.9393 LP  0  0  0  0  0  0  0  0  0  0  0  0  # atno 17371 bound_to 10713
  139.8778  134.9975  156.5852 LP  0  0  0  0  0  0  0  0  0  0  0  0  # atno 17394 bound_to 11000
  140.7972  133.8534  155.8696 LP  0  0  0  0  0  0  0  0  0  0  0  0  # atno 17395 bound_to 11000

$$$$
