AV-unprocessed.smi:676|AV-procd|sdf|3310|dock1
  -GOLD-   22720 0273D 1   1.00000     0.00000
 Structure written by MMmdl.
 42 43  0  0  0  0  0  0  0  0  1 V2000
  143.6955  143.9077  155.6612 C   0  0  0  0  0  0  0  0  0  0  0  0
  144.6175  143.0077  155.0602 O   0  0  0  0  0  0  0  0  0  0  0  0
  145.2808  142.0987  155.9402 C   0  0  2  0  0  0  0  0  0  0  0  0
  144.2746  141.0828  156.5034 C   0  0  0  0  0  0  0  0  0  0  0  0
  146.2082  142.8227  156.9337 C   0  0  0  0  0  0  0  0  0  0  0  0
  147.2341  141.7322  156.6344 C   0  0  2  0  0  0  0  0  0  0  0  0
  148.6028  142.2359  156.6101 N   0  0  0  0  0  0  0  0  0  0  0  0
  149.6226  141.6838  157.2826 C   0  0  0  0  0  0  0  0  0  0  0  0
  149.4944  140.6898  157.9993 O   0  0  0  0  0  0  0  0  0  0  0  0
  150.9916  142.3518  157.0905 C   0  0  0  0  0  0  0  0  0  0  0  0
  151.4631  143.0743  158.2836 N   0  0  0  0  0  0  0  0  0  0  0  0
  151.0559  144.4165  158.4212 C   0  0  0  0  0  0  0  0  0  0  0  0
  151.4352  145.1700  159.4655 C   0  0  0  0  0  0  0  0  0  0  0  0
  152.2838  144.5698  160.4677 C   0  0  0  0  0  0  0  0  0  0  0  0
  152.6821  143.2879  160.3438 C   0  0  0  0  0  0  0  0  0  0  0  0
  152.2735  142.4620  159.2014 C   0  0  0  0  0  0  0  0  0  0  0  0
  152.6376  141.2922  159.0775 O   0  0  0  0  0  0  0  0  0  0  0  0
  146.5754  141.5708  155.2402 C   0  0  0  0  0  0  0  0  0  0  0  0
  146.5280  140.1434  154.6857 C   0  0  0  0  0  0  0  0  0  0  0  0
  147.1363  142.4460  154.1009 C   0  0  0  0  0  0  0  0  0  0  0  0
  143.3429  144.6114  154.9073 H   0  0  0  0  0  0  0  0  0  0  0  0
  144.1527  144.4867  156.4636 H   0  0  0  0  0  0  0  0  0  0  0  0
  142.8205  143.3909  156.0547 H   0  0  0  0  0  0  0  0  0  0  0  0
  144.7678  140.2975  157.0759 H   0  0  0  0  0  0  0  0  0  0  0  0
  143.7103  140.5998  155.7055 H   0  0  0  0  0  0  0  0  0  0  0  0
  143.5593  141.5502  157.1795 H   0  0  0  0  0  0  0  0  0  0  0  0
  146.5149  143.8171  156.6036 H   0  0  0  0  0  0  0  0  0  0  0  0
  145.8521  142.8368  157.9643 H   0  0  0  0  0  0  0  0  0  0  0  0
  147.0959  140.8596  157.2770 H   0  0  0  0  0  0  0  0  0  0  0  0
  148.7862  143.0480  156.0387 H   0  0  0  0  0  0  0  0  0  0  0  0
  151.7090  141.5800  156.8077 H   0  0  0  0  0  0  0  0  0  0  0  0
  150.9444  143.0252  156.2327 H   0  0  0  0  0  0  0  0  0  0  0  0
  150.4291  144.7912  157.6249 H   0  0  0  0  0  0  0  0  0  0  0  0
  151.1177  146.1988  159.5514 H   0  0  0  0  0  0  0  0  0  0  0  0
  152.6019  145.1515  161.3203 H   0  0  0  0  0  0  0  0  0  0  0  0
  153.3178  142.8560  161.1029 H   0  0  0  0  0  0  0  0  0  0  0  0
  147.4956  139.8352  154.2884 H   0  0  0  0  0  0  0  0  0  0  0  0
  145.7976  140.0531  153.8814 H   0  0  0  0  0  0  0  0  0  0  0  0
  146.2608  139.4160  155.4521 H   0  0  0  0  0  0  0  0  0  0  0  0
  148.1316  142.1213  153.7956 H   0  0  0  0  0  0  0  0  0  0  0  0
  147.2170  143.4952  154.3856 H   0  0  0  0  0  0  0  0  0  0  0  0
  146.4997  142.4042  153.2165 H   0  0  0  0  0  0  0  0  0  0  0  0
  1  2  1  0  0  0  0
  1 21  1  0  0  0  0
  1 22  1  0  0  0  0
  1 23  1  0  0  0  0
  2  3  1  0  0  0  0
  3 18  1  0  0  0  0
  3  4  1  0  0  0  0
  3  5  1  0  0  0  0
  4 24  1  0  0  0  0
  4 25  1  0  0  0  0
  4 26  1  0  0  0  0
  5  6  1  0  0  0  0
  5 27  1  0  0  0  0
  5 28  1  0  0  0  0
  6  7  1  0  0  0  0
  6 18  1  0  0  0  0
  6 29  1  0  0  0  0
  7  8  1  0  0  0  0
  7 30  1  0  0  0  0
  8  9  2  0  0  0  0
  8 10  1  0  0  0  0
 10 11  1  0  0  0  0
 10 31  1  0  0  0  0
 10 32  1  0  0  0  0
 11 16  1  0  0  0  0
 11 12  1  0  0  0  0
 12 13  2  0  0  0  0
 12 33  1  0  0  0  0
 13 14  1  0  0  0  0
 13 34  1  0  0  0  0
 14 15  2  0  0  0  0
 14 35  1  0  0  0  0
 15 16  1  0  0  0  0
 15 36  1  0  0  0  0
 16 17  2  0  0  0  0
 18 19  1  0  0  0  0
 18 20  1  0  0  0  0
 19 37  1  0  0  0  0
 19 38  1  0  0  0  0
 19 39  1  0  0  0  0
 20 40  1  0  0  0  0
 20 41  1  0  0  0  0
 20 42  1  0  0  0  0
M  END
> <s_m_source_file>
AV-unprocessed.smi

> <i_m_source_file_index>
676

> <i_lp_mmshare_version>
43012

> <i_f3d_flags>
0

> <s_epik_input>
W0NIM11PW0NAQF0xKFtDSDNdKVtDSDJdW0NASF0oQzEoW0NIM10pW0NIM10pW05IXUMoPU8pW0NIMl1uMltjSF1bY0hdW2NIXVtjSF1jMj1P

> <s_epik_cmdline>
J2VwaWtfcHl0aG9uJywgJy1waCcsICc3LjAnLCAnLXRuJywgJzgnLCAnLW1hJywgJzIwMCcsICctbWV0YWxfYmluZGluZycsICctaW1hZScsICc8aW5maWxlLm1hZT4nLCAnLW9tYWUnLCAnPG91dGZpbGUubWFlPic=

> <r_lp_tautomer_probability>
1

> <r_epik_Ionization_Penalty>
4.09771e-07

> <r_epik_Ionization_Penalty_Charging>
3.90712e-07

> <r_epik_Ionization_Penalty_Neutral>
1.90591e-08

> <r_epik_State_Penalty>
-0

> <r_epik_Charging_Adjusted_Penalty>
3.90712e-07

> <i_epik_Tot_Q>
0

> <i_epik_Tot_abs_Q>
0

> <r_epik_Metal_State_Penalty>
-0

> <b_epik_Metal_Only>
0

> <s_lp_Force_Field>
OPLS_2005

> <r_lp_Energy>
31.4384

> <b_lp_Chiralities_Consistent>
1

> <s_lp_Variant>
AV-unprocessed.smi:676-4

> <Gold.Version>
5.8.1

> <Gold.Id.Protein>
6NUR|6NUR_protein|mol2

> <Gold.PLP.Fitness>
41.8205

> <Gold.PLP.PLP>
-36.8063

> <Gold.PLP.part.hbond>
-1.0000

> <Gold.PLP.part.metal>
0.0000

> <Gold.PLP.part.buried>
-7.1827

> <Gold.PLP.part.nonpolar>
-29.5021

> <Gold.PLP.part.repulsive>
0.2136

> <Gold.PLP.ligand.clash>
0.0000

> <Gold.PLP.ligand.torsion>
0.7035

> <Gold.PLP.Chemscore.Hbond>
0.9920

> <Gold.PLP.Chemscore.CHOScore>
1.0191

> <Gold.PLP.Chemscore.Metal>
0.0000

> <Gold.Chemscore.Hbonds>
donor molecule, donor type, donor heavy atom, donor atom, acceptor molecule, acceptor atom, score
      L1  H     7    30       P1  8028  1.00
      L1  C    12    33       P1  8028  0.94
      L1  C    12    33       P1  8029  0.07

> <Gold.PLP.Chemscore.Internal.Correction>
0.3879

> <Gold.Rescore>
     Score         DG    S(hbond)    S(metal)    S(lipo)     H(rot)  DE(clash)    DE(int)     intcor
     13.49     -14.19       0.97        0.00      82.00       1.62       0.08       0.62       ----

> <Gold.Chemscore.Fitness>
13.4938

> <Gold.Chemscore.DG>
-14.1900

> <Gold.Chemscore.ZeroCoef>
-5.4800

> <Gold.Chemscore.Hbond>
0.9749

> <Gold.Chemscore.Metal>
0.0000

> <Gold.Chemscore.Lipo>
82.0049

> <Gold.Chemscore.Internal_Hbond>
0.0000

> <Gold.Chemscore.DEClash>
0.0754

> <Gold.Chemscore.DEInternal>
0.6208

> <Gold.Chemscore.Rot>
1.6175

> <Gold.Chemscore.Internal.Correction>
   9.000000E+99

> <Gold.Chemscore.Hbonds>
donor molecule, donor type, donor heavy atom, donor atom, acceptor molecule, acceptor atom, score
      L1  H     7    30       P1  8028  0.98

> <Gold.Chemscore.Hbond.Weighted>
-3.2562

> <Gold.Chemscore.Metal.Weighted>
-0.0000

> <Gold.Chemscore.Lipo.Weighted>
-9.5946

> <Gold.Chemscore.Internal_Hbond.Weighted>
0.0000

> <Gold.Chemscore.DEClash.Weighted>
0.0754

> <Gold.Chemscore.DEInternal.Weighted>
0.6208

> <Gold.Chemscore.Rot.Weighted>
4.1408

> <Gold.Chemscore.Internal.Correction.Weighted>
   9.000000E+99

> <Gold.Protein.RotatedTorsions>
[ 6907 6896 6895 6894 ] final -158.04 input  -60.11 | X-H torsion
[ 7974 7965 7964 7962 ] final  -64.33 input  175.53 | X-H torsion
[ 8008 7997 7996 7995 ] final   36.20 input   59.86 | X-H torsion
[ 10167 10162 10161 10158 ] final  118.38 input  -65.29 | X-H torsion
[ 10718 10713 10712 10709 ] final    0.25 input   66.30 | X-H torsion
[ 10763 10752 10751 10750 ] final  154.26 input  -60.55 | X-H torsion
[ 11005 11000 10999 10996 ] final  -52.14 input  -57.11 | X-H torsion

> <Gold.Protein.ActiveResidues>
 VAL166  LYS551  ARG553  GLY616  TRP617  ASP618  TYR619  PRO620  LYS621  CYS622 
 ASP623  PHE694  ASN695  SER759  ASP760  ASP761  ALA762  ILE779  LEU786  VAL792 
 PHE793  MET794  SER795  GLU796  ALA797  LYS798  CYS799  TRP800  GLU811  SER814 

> <Gold.Protein.RotatedAtoms>
  151.3121  133.4076  159.2647 H   0  0  0  0  0  0  0  0  0  0  0  0  # atno 6907 bound_to 6896
  151.0105  134.9394  159.8015 H   0  0  0  0  0  0  0  0  0  0  0  0  # atno 6908 bound_to 6896
  152.5299  134.3085  159.9157 H   0  0  0  0  0  0  0  0  0  0  0  0  # atno 6909 bound_to 6896
  145.7681  140.8827  143.0394 H   0  0  0  0  0  0  0  0  0  0  0  0  # atno 7974 bound_to 7965
  155.1835  140.3302  155.4371 H   0  0  0  0  0  0  0  0  0  0  0  0  # atno 8008 bound_to 7997
  156.2468  140.1923  156.6882 H   0  0  0  0  0  0  0  0  0  0  0  0  # atno 8009 bound_to 7997
  154.6255  140.0589  156.9654 H   0  0  0  0  0  0  0  0  0  0  0  0  # atno 8010 bound_to 7997
  139.6116  144.7083  151.2832 H   0  0  0  0  0  0  0  0  0  0  0  0  # atno 10167 bound_to 10162
  156.8305  130.5487  149.5687 H   0  0  0  0  0  0  0  0  0  0  0  0  # atno 10718 bound_to 10713
  154.1494  135.2816  155.3139 H   0  0  0  0  0  0  0  0  0  0  0  0  # atno 10763 bound_to 10752
  154.6229  135.5461  153.7598 H   0  0  0  0  0  0  0  0  0  0  0  0  # atno 10764 bound_to 10752
  153.0226  135.6443  154.1638 H   0  0  0  0  0  0  0  0  0  0  0  0  # atno 10765 bound_to 10752
  141.0909  133.6633  156.3981 H   0  0  0  0  0  0  0  0  0  0  0  0  # atno 11005 bound_to 11000
  144.6818  139.9817  143.7483 LP  0  0  0  0  0  0  0  0  0  0  0  0  # atno 17320 bound_to 7965
  146.0197  139.3240  143.0820 LP  0  0  0  0  0  0  0  0  0  0  0  0  # atno 17321 bound_to 7965
  140.7322  143.6828  150.7986 LP  0  0  0  0  0  0  0  0  0  0  0  0  # atno 17342 bound_to 10162
  140.0424  143.5332  152.2712 LP  0  0  0  0  0  0  0  0  0  0  0  0  # atno 17343 bound_to 10162
  156.0937  130.5915  150.9776 LP  0  0  0  0  0  0  0  0  0  0  0  0  # atno 17370 bound_to 10713
  157.6409  131.0910  150.8253 LP  0  0  0  0  0  0  0  0  0  0  0  0  # atno 17371 bound_to 10713
  140.5255  134.6263  157.5332 LP  0  0  0  0  0  0  0  0  0  0  0  0  # atno 17394 bound_to 11000
  139.9734  134.7255  155.9996 LP  0  0  0  0  0  0  0  0  0  0  0  0  # atno 17395 bound_to 11000

$$$$
