AV-unprocessed.smi:2568|AV-procd|sdf|10098|dock2
  -GOLD-   2272014113D 1   1.00000     0.00000
 Structure written by MMmdl.
 24 25  0  0  0  0  0  0  0  0  3 V2000
  153.4366  141.3341  159.9773 C   0  0  0  0  0  0  0  0  0  0  0  0
  152.6726  141.0700  158.7004 C   0  0  0  0  0  0  0  0  0  0  0  0
  152.8913  140.0564  157.8444 N   0  5  0  0  0  0  0  0  0  0  0  0
  152.0426  140.1298  156.8397 N   0  0  0  0  0  0  0  0  0  0  0  0
  151.2823  141.2057  157.0936 C   0  0  0  0  0  0  0  0  0  0  0  0
  150.1815  141.7095  156.1837 C   0  0  2  0  0  0  0  0  0  0  0  0
  148.8281  141.7489  156.9200 C   0  0  0  0  0  0  0  0  0  0  0  0
  147.7678  142.2302  156.0135 N   0  3  0  0  0  0  0  0  0  0  0  0
  147.7055  141.4273  154.7771 C   0  0  0  0  0  0  0  0  0  0  0  0
  149.0872  141.3898  154.1028 C   0  0  0  0  0  0  0  0  0  0  0  0
  150.0531  140.8919  155.0215 O   0  0  0  0  0  0  0  0  0  0  0  0
  151.6682  141.8025  158.2306 N   0  0  0  0  0  0  0  0  0  0  0  0
  154.2206  140.5898  160.1186 H   0  0  0  0  0  0  0  0  0  0  0  0
  152.7642  141.2940  160.8343 H   0  0  0  0  0  0  0  0  0  0  0  0
  153.8990  142.3206  159.9442 H   0  0  0  0  0  0  0  0  0  0  0  0
  150.4574  142.7182  155.8707 H   0  0  0  0  0  0  0  0  0  0  0  0
  148.5643  140.7549  157.2844 H   0  0  0  0  0  0  0  0  0  0  0  0
  148.8809  142.4057  157.7889 H   0  0  0  0  0  0  0  0  0  0  0  0
  146.8772  142.1891  156.4881 H   0  0  0  0  0  0  0  0  0  0  0  0
  147.3785  140.4160  155.0227 H   0  0  0  0  0  0  0  0  0  0  0  0
  146.9604  141.8533  154.1049 H   0  0  0  0  0  0  0  0  0  0  0  0
  149.0615  140.7382  153.2293 H   0  0  0  0  0  0  0  0  0  0  0  0
  149.3784  142.3813  153.7521 H   0  0  0  0  0  0  0  0  0  0  0  0
  147.9674  143.1892  155.7673 H   0  0  0  0  0  0  0  0  0  0  0  0
  1 13  1  0  0  0  0
  1 14  1  0  0  0  0
  1 15  1  0  0  0  0
  1  2  1  0  0  0  0
  2 12  2  0  0  0  0
  2  3  1  0  0  0  0
  3  4  1  0  0  0  0
  4  5  2  0  0  0  0
  5 12  1  0  0  0  0
  5  6  1  0  0  0  0
  6 11  1  0  0  0  0
  6  7  1  0  0  0  0
  6 16  1  0  0  0  0
  7  8  1  0  0  0  0
  7 17  1  0  0  0  0
  7 18  1  0  0  0  0
  8  9  1  0  0  0  0
  8 19  1  0  0  0  0
  8 24  1  0  0  0  0
  9 10  1  0  0  0  0
  9 20  1  0  0  0  0
  9 21  1  0  0  0  0
 10 11  1  0  0  0  0
 10 22  1  0  0  0  0
 10 23  1  0  0  0  0
M  CHG  1   3  -1
M  CHG  1   8   1
M  END
> <s_m_source_file>
AV-unprocessed.smi

> <i_m_source_file_index>
2568

> <i_lp_mmshare_version>
43012

> <i_f3d_flags>
0

> <s_epik_input>
W0NIM11jMW5bbkhdYyhuMSlbQ0BASF0yW0NIMl1bTkhdW0NIMl1bQ0gyXU8y

> <s_epik_cmdline>
J2VwaWtfcHl0aG9uJywgJy1waCcsICc3LjAnLCAnLXRuJywgJzgnLCAnLW1hJywgJzIwMCcsICctbWV0YWxfYmluZGluZycsICctaW1hZScsICc8aW5maWxlLm1hZT4nLCAnLW9tYWUnLCAnPG91dGZpbGUubWFlPic=

> <r_lp_tautomer_probability>
0.948284

> <r_epik_Ionization_Penalty>
5.18319

> <r_epik_Ionization_Penalty_Charging>
5.18319

> <r_epik_Ionization_Penalty_Neutral>
2.73247e-13

> <r_epik_State_Penalty>
2.89074

> <r_epik_Charging_Adjusted_Penalty>
8.07392

> <i_epik_Tot_Q>
0

> <i_epik_Tot_abs_Q>
2

> <r_epik_Metal_State_Penalty>
0.548499

> <b_epik_Metal_Only>
1

> <s_lp_Force_Field>
OPLS_2005

> <r_lp_Energy>
8.28058

> <b_lp_Chiralities_Consistent>
1

> <s_lp_Variant>
AV-unprocessed.smi:2568-11

> <Gold.Version>
5.8.1

> <Gold.Id.Protein>
6NUR|6NUR_protein|mol2

> <Gold.PLP.Fitness>
32.2669

> <Gold.PLP.PLP>
-19.3387

> <Gold.PLP.part.hbond>
-3.2202

> <Gold.PLP.part.metal>
0.0000

> <Gold.PLP.part.buried>
0.1999

> <Gold.PLP.part.nonpolar>
-15.0839

> <Gold.PLP.part.repulsive>
0.1462

> <Gold.PLP.ligand.clash>
0.0000

> <Gold.PLP.ligand.torsion>
0.0064

> <Gold.PLP.Chemscore.Hbond>
4.3098

> <Gold.PLP.Chemscore.CHOScore>
0.0000

> <Gold.PLP.Chemscore.Metal>
0.0000

> <Gold.Chemscore.Hbonds>
donor molecule, donor type, donor heavy atom, donor atom, acceptor molecule, acceptor atom, score
      L1  H     8    24       P1  8028  2.00
      P1  H  7989  7998       L1    11  0.28
      P1  H  7997  8009       L1     3  2.00

> <Gold.PLP.Chemscore.Internal.Correction>
0.0117

> <Gold.Rescore>
     Score         DG    S(hbond)    S(metal)    S(lipo)     H(rot)  DE(clash)    DE(int)     intcor
     10.14     -10.21       0.95        0.00      35.05       1.00       0.06       0.01       ----

> <Gold.Chemscore.Fitness>
10.1400

> <Gold.Chemscore.DG>
-10.2071

> <Gold.Chemscore.ZeroCoef>
-5.4800

> <Gold.Chemscore.Hbond>
0.9539

> <Gold.Chemscore.Metal>
0.0000

> <Gold.Chemscore.Lipo>
35.0513

> <Gold.Chemscore.Internal_Hbond>
0.0000

> <Gold.Chemscore.DEClash>
0.0609

> <Gold.Chemscore.DEInternal>
0.0062

> <Gold.Chemscore.Rot>
1.0000

> <Gold.Chemscore.Internal.Correction>
   9.000000E+99

> <Gold.Chemscore.Hbonds>
donor molecule, donor type, donor heavy atom, donor atom, acceptor molecule, acceptor atom, score
      L1  H     8    24       P1  8028  0.55
      P1  H  7989  7998       L1    11  0.02
      P1  H  7997  8009       L1     3  0.34

> <Gold.Chemscore.Hbond.Weighted>
-3.1861

> <Gold.Chemscore.Metal.Weighted>
-0.0000

> <Gold.Chemscore.Lipo.Weighted>
-4.1010

> <Gold.Chemscore.Internal_Hbond.Weighted>
0.0000

> <Gold.Chemscore.DEClash.Weighted>
0.0609

> <Gold.Chemscore.DEInternal.Weighted>
0.0062

> <Gold.Chemscore.Rot.Weighted>
2.5600

> <Gold.Chemscore.Internal.Correction.Weighted>
   9.000000E+99

> <Gold.Protein.RotatedTorsions>
[ 6907 6896 6895 6894 ] final -171.97 input  -60.11 | X-H torsion
[ 7974 7965 7964 7962 ] final  145.90 input  175.53 | X-H torsion
[ 8008 7997 7996 7995 ] final  156.08 input   59.86 | X-H torsion
[ 10167 10162 10161 10158 ] final  124.34 input  -65.29 | X-H torsion
[ 10718 10713 10712 10709 ] final -121.76 input   66.30 | X-H torsion
[ 10763 10752 10751 10750 ] final  -48.05 input  -60.55 | X-H torsion
[ 11005 11000 10999 10996 ] final   53.20 input  -57.11 | X-H torsion

> <Gold.Protein.ActiveResidues>
 VAL166  LYS551  ARG553  GLY616  TRP617  ASP618  TYR619  PRO620  LYS621  CYS622 
 ASP623  PHE694  ASN695  SER759  ASP760  ASP761  ALA762  ILE779  LEU786  VAL792 
 PHE793  MET794  SER795  GLU796  ALA797  LYS798  CYS799  TRP800  GLU811  SER814 

> <Gold.Protein.RotatedAtoms>
  151.5324  133.3447  159.2920 H   0  0  0  0  0  0  0  0  0  0  0  0  # atno 6907 bound_to 6896
  150.8586  134.7934  159.7076 H   0  0  0  0  0  0  0  0  0  0  0  0  # atno 6908 bound_to 6896
  152.4612  134.5189  159.9828 H   0  0  0  0  0  0  0  0  0  0  0  0  # atno 6909 bound_to 6896
  144.8714  139.5840  143.5885 H   0  0  0  0  0  0  0  0  0  0  0  0  # atno 7974 bound_to 7965
  156.2442  140.1922  156.6901 H   0  0  0  0  0  0  0  0  0  0  0  0  # atno 8008 bound_to 7997
  154.6258  140.0602  156.9698 H   0  0  0  0  0  0  0  0  0  0  0  0  # atno 8009 bound_to 7997
  155.1789  140.3274  155.4381 H   0  0  0  0  0  0  0  0  0  0  0  0  # atno 8010 bound_to 7997
  139.5747  144.6957  151.3684 H   0  0  0  0  0  0  0  0  0  0  0  0  # atno 10167 bound_to 10162
  156.1363  130.6433  150.9702 H   0  0  0  0  0  0  0  0  0  0  0  0  # atno 10718 bound_to 10713
  154.0713  135.6604  153.4825 H   0  0  0  0  0  0  0  0  0  0  0  0  # atno 10763 bound_to 10752
  153.0389  135.5158  154.7563 H   0  0  0  0  0  0  0  0  0  0  0  0  # atno 10764 bound_to 10752
  154.6630  135.3018  154.9809 H   0  0  0  0  0  0  0  0  0  0  0  0  # atno 10765 bound_to 10752
  140.0786  134.5370  155.8970 H   0  0  0  0  0  0  0  0  0  0  0  0  # atno 11005 bound_to 11000
  146.2933  139.7203  142.9145 LP  0  0  0  0  0  0  0  0  0  0  0  0  # atno 17320 bound_to 7965
  145.4123  141.0398  143.3010 LP  0  0  0  0  0  0  0  0  0  0  0  0  # atno 17321 bound_to 7965
  140.7031  143.7583  150.7435 LP  0  0  0  0  0  0  0  0  0  0  0  0  # atno 17342 bound_to 10162
  140.1099  143.4709  152.2376 LP  0  0  0  0  0  0  0  0  0  0  0  0  # atno 17343 bound_to 10162
  157.6535  131.0893  150.7998 LP  0  0  0  0  0  0  0  0  0  0  0  0  # atno 17370 bound_to 10713
  156.8078  130.4942  149.5360 LP  0  0  0  0  0  0  0  0  0  0  0  0  # atno 17371 bound_to 10713
  141.2038  133.6635  156.6087 LP  0  0  0  0  0  0  0  0  0  0  0  0  # atno 17394 bound_to 11000
  140.3521  134.7760  157.4474 LP  0  0  0  0  0  0  0  0  0  0  0  0  # atno 17395 bound_to 11000

$$$$
