AV-unprocessed.smi:3062|AV-procd|sdf|11683|dock10
  -GOLD-   2272017 93D 1   1.00000     0.00000
 Structure written by MMmdl.
 39 40  0  0  0  0  0  0  0  0  1 V2000
  148.0440  135.5264  156.0430 C   0  0  0  0  0  0  0  0  0  0  0  0
  148.6594  136.8259  155.5988 C   0  0  0  0  0  0  0  0  0  0  0  0
  147.9594  137.5543  154.7925 N   0  0  0  0  0  0  0  0  0  0  0  0
  148.4302  138.7647  154.3244 N   0  0  0  0  0  0  0  0  0  0  0  0
  147.4996  139.4565  153.4248 C   0  0  0  0  0  0  0  0  0  0  0  0
  146.9055  138.5069  152.3620 C   0  0  2  0  0  0  0  0  0  0  0  0
  146.4117  139.2439  151.2614 O   0  0  0  0  0  0  0  0  0  0  0  0
  145.7576  137.6409  152.9060 C   0  0  0  0  0  0  0  0  0  0  0  0
  145.4970  136.5606  152.0174 O   0  0  0  0  0  0  0  0  0  0  0  0
  144.7387  135.5061  152.5943 C   0  0  0  0  0  0  0  0  0  0  0  0
  144.8331  134.3013  151.7090 C   0  0  0  0  0  0  0  0  0  0  0  0
  143.8109  133.4686  151.3306 C   0  0  0  0  0  0  0  0  0  0  0  0
  144.2384  132.3980  150.4911 C   0  0  0  0  0  0  0  0  0  0  0  0
  145.5852  132.4216  150.2446 C   0  0  0  0  0  0  0  0  0  0  0  0
  146.3584  133.7610  151.0465 S   0  0  0  0  0  0  0  0  0  0  0  0
  149.6378  139.3077  154.6508 C   0  0  0  0  0  0  0  0  0  0  0  0
  150.0135  140.3976  154.2165 O   0  0  0  0  0  0  0  0  0  0  0  0
  150.4274  138.4765  155.5626 C   0  0  0  0  0  0  0  0  0  0  0  0
  151.7010  139.0066  155.9292 C   0  0  0  0  0  0  0  0  0  0  0  0
  152.7408  139.4330  156.2071 N   0  0  0  0  0  0  0  0  0  0  0  0
  149.9766  137.2846  156.0280 C   0  0  0  0  0  0  0  0  0  0  0  0
  150.7554  136.3846  156.9776 C   0  0  0  0  0  0  0  0  0  0  0  0
  147.9788  135.4787  157.1304 H   0  0  0  0  0  0  0  0  0  0  0  0
  148.6404  134.6799  155.7017 H   0  0  0  0  0  0  0  0  0  0  0  0
  147.0346  135.3987  155.6486 H   0  0  0  0  0  0  0  0  0  0  0  0
  146.6936  139.8897  154.0199 H   0  0  0  0  0  0  0  0  0  0  0  0
  147.9828  140.3103  152.9455 H   0  0  0  0  0  0  0  0  0  0  0  0
  147.6764  137.8357  151.9823 H   0  0  0  0  0  0  0  0  0  0  0  0
  145.7642  138.7189  150.8165 H   0  0  0  0  0  0  0  0  0  0  0  0
  145.9881  137.2711  153.9064 H   0  0  0  0  0  0  0  0  0  0  0  0
  144.8658  138.2630  152.9954 H   0  0  0  0  0  0  0  0  0  0  0  0
  145.1629  135.2709  153.5703 H   0  0  0  0  0  0  0  0  0  0  0  0
  143.7021  135.8041  152.7586 H   0  0  0  0  0  0  0  0  0  0  0  0
  142.7786  133.5913  151.6234 H   0  0  0  0  0  0  0  0  0  0  0  0
  143.5533  131.6579  150.1047 H   0  0  0  0  0  0  0  0  0  0  0  0
  146.1682  131.7352  149.6483 H   0  0  0  0  0  0  0  0  0  0  0  0
  151.7374  136.7900  157.2194 H   0  0  0  0  0  0  0  0  0  0  0  0
  150.9086  135.4000  156.5345 H   0  0  0  0  0  0  0  0  0  0  0  0
  150.2127  136.2593  157.9150 H   0  0  0  0  0  0  0  0  0  0  0  0
  1  2  1  0  0  0  0
  1 23  1  0  0  0  0
  1 24  1  0  0  0  0
  1 25  1  0  0  0  0
  2 21  1  0  0  0  0
  2  3  2  0  0  0  0
  3  4  1  0  0  0  0
  4  5  1  0  0  0  0
  4 16  1  0  0  0  0
  5  6  1  0  0  0  0
  5 26  1  0  0  0  0
  5 27  1  0  0  0  0
  6  7  1  0  0  0  0
  6  8  1  0  0  0  0
  6 28  1  0  0  0  0
  7 29  1  0  0  0  0
  8  9  1  0  0  0  0
  8 30  1  0  0  0  0
  8 31  1  0  0  0  0
  9 10  1  0  0  0  0
 10 11  1  0  0  0  0
 10 32  1  0  0  0  0
 10 33  1  0  0  0  0
 11 15  1  0  0  0  0
 11 12  2  0  0  0  0
 12 13  1  0  0  0  0
 12 34  1  0  0  0  0
 13 14  2  0  0  0  0
 13 35  1  0  0  0  0
 14 15  1  0  0  0  0
 14 36  1  0  0  0  0
 16 17  2  0  0  0  0
 16 18  1  0  0  0  0
 18 19  1  0  0  0  0
 18 21  2  0  0  0  0
 19 20  3  0  0  0  0
 21 22  1  0  0  0  0
 22 37  1  0  0  0  0
 22 38  1  0  0  0  0
 22 39  1  0  0  0  0
M  END
> <s_m_source_file>
AV-unprocessed.smi

> <i_m_source_file_index>
3062

> <i_lp_mmshare_version>
43012

> <i_f3d_flags>
0

> <s_epik_input>
TiNDYyhjMVtDSDNdKWMoPU8pbihuYzFbQ0gzXSlbQ0gyXVtDQEhdKFtPSF0pW0NIMl1PW0NIMl1jMltjSF1bY0hdW2NIXXMy

> <s_epik_cmdline>
J2VwaWtfcHl0aG9uJywgJy1waCcsICc3LjAnLCAnLXRuJywgJzgnLCAnLW1hJywgJzIwMCcsICctbWV0YWxfYmluZGluZycsICctaW1hZScsICc8aW5maWxlLm1hZT4nLCAnLW9tYWUnLCAnPG91dGZpbGUubWFlPic=

> <r_lp_tautomer_probability>
1

> <r_epik_Ionization_Penalty>
6.86395e-08

> <r_epik_Ionization_Penalty_Charging>
2.24757e-10

> <r_epik_Ionization_Penalty_Neutral>
6.84147e-08

> <r_epik_State_Penalty>
-0

> <r_epik_Charging_Adjusted_Penalty>
2.24757e-10

> <i_epik_Tot_Q>
0

> <i_epik_Tot_abs_Q>
0

> <r_epik_Metal_State_Penalty>
-0

> <b_epik_Metal_Only>
0

> <s_lp_Force_Field>
OPLS_2005

> <r_lp_Energy>
26.0533

> <b_lp_Chiralities_Consistent>
1

> <s_lp_Variant>
AV-unprocessed.smi:3062-1

> <Gold.Version>
5.8.1

> <Gold.Id.Protein>
6NUR|6NUR_protein|mol2

> <Gold.PLP.Fitness>
42.9303

> <Gold.PLP.PLP>
-35.9028

> <Gold.PLP.part.hbond>
-4.0000

> <Gold.PLP.part.metal>
0.0000

> <Gold.PLP.part.buried>
-7.2983

> <Gold.PLP.part.nonpolar>
-27.4917

> <Gold.PLP.part.repulsive>
1.9235

> <Gold.PLP.ligand.clash>
0.0000

> <Gold.PLP.ligand.torsion>
0.7706

> <Gold.PLP.Chemscore.Hbond>
2.8320

> <Gold.PLP.Chemscore.CHOScore>
0.0000

> <Gold.PLP.Chemscore.Metal>
0.0000

> <Gold.Chemscore.Hbonds>
donor molecule, donor type, donor heavy atom, donor atom, acceptor molecule, acceptor atom, score
      L1  H     7    29       P1 10171  0.72
      P1  H  7989  7998       L1    17  0.85
      P1  H  7997  8009       L1    20  0.90

> <Gold.PLP.Chemscore.Internal.Correction>
0.0727

> <Gold.Rescore>
     Score         DG    S(hbond)    S(metal)    S(lipo)     H(rot)  DE(clash)    DE(int)     intcor
     14.84     -17.32       2.75        0.00      77.60       2.51       0.32       2.16       ----

> <Gold.Chemscore.Fitness>
14.8373

> <Gold.Chemscore.DG>
-17.3195

> <Gold.Chemscore.ZeroCoef>
-5.4800

> <Gold.Chemscore.Hbond>
2.7516

> <Gold.Chemscore.Metal>
0.0000

> <Gold.Chemscore.Lipo>
77.6039

> <Gold.Chemscore.Internal_Hbond>
0.0000

> <Gold.Chemscore.DEClash>
0.3178

> <Gold.Chemscore.DEInternal>
2.1644

> <Gold.Chemscore.Rot>
2.5119

> <Gold.Chemscore.Internal.Correction>
   9.000000E+99

> <Gold.Chemscore.Hbonds>
donor molecule, donor type, donor heavy atom, donor atom, acceptor molecule, acceptor atom, score
      L1  H     7    29       P1 10171  0.69
      P1  H  7989  7998       L1    17  0.83
      P1  H  7997  8009       L1    20  0.88

> <Gold.Chemscore.Hbond.Weighted>
-9.1904

> <Gold.Chemscore.Metal.Weighted>
-0.0000

> <Gold.Chemscore.Lipo.Weighted>
-9.0797

> <Gold.Chemscore.Internal_Hbond.Weighted>
0.0000

> <Gold.Chemscore.DEClash.Weighted>
0.3178

> <Gold.Chemscore.DEInternal.Weighted>
2.1644

> <Gold.Chemscore.Rot.Weighted>
6.4305

> <Gold.Chemscore.Internal.Correction.Weighted>
   9.000000E+99

> <Gold.Protein.RotatedTorsions>
[ 6907 6896 6895 6894 ] final -176.82 input  -60.11 | X-H torsion
[ 7974 7965 7964 7962 ] final   33.83 input  175.53 | X-H torsion
[ 8008 7997 7996 7995 ] final -137.78 input   59.86 | X-H torsion
[ 10167 10162 10161 10158 ] final  119.68 input  -65.29 | X-H torsion
[ 10718 10713 10712 10709 ] final -179.24 input   66.30 | X-H torsion
[ 10763 10752 10751 10750 ] final  -87.45 input  -60.55 | X-H torsion
[ 11005 11000 10999 10996 ] final  -85.33 input  -57.11 | X-H torsion

> <Gold.Protein.ActiveResidues>
 VAL166  LYS551  ARG553  GLY616  TRP617  ASP618  TYR619  PRO620  LYS621  CYS622 
 ASP623  PHE694  ASN695  SER759  ASP760  ASP761  ALA762  ILE779  LEU786  VAL792 
 PHE793  MET794  SER795  GLU796  ALA797  LYS798  CYS799  TRP800  GLU811  SER814 

> <Gold.Protein.RotatedAtoms>
  151.6109  133.3347  159.3067 H   0  0  0  0  0  0  0  0  0  0  0  0  # atno 6907 bound_to 6896
  150.8157  134.7341  159.6739 H   0  0  0  0  0  0  0  0  0  0  0  0  # atno 6908 bound_to 6896
  152.4253  134.5886  160.0019 H   0  0  0  0  0  0  0  0  0  0  0  0  # atno 6909 bound_to 6896
  146.1394  139.6346  142.9173 H   0  0  0  0  0  0  0  0  0  0  0  0  # atno 7974 bound_to 7965
  155.4174  140.0516  157.3028 H   0  0  0  0  0  0  0  0  0  0  0  0  # atno 8008 bound_to 7997
  154.4918  140.2123  155.9491 H   0  0  0  0  0  0  0  0  0  0  0  0  # atno 8009 bound_to 7997
  156.1352  140.3164  155.8415 H   0  0  0  0  0  0  0  0  0  0  0  0  # atno 8010 bound_to 7997
  139.6030  144.7062  151.3017 H   0  0  0  0  0  0  0  0  0  0  0  0  # atno 10167 bound_to 10162
  156.8562  130.9736  151.3088 H   0  0  0  0  0  0  0  0  0  0  0  0  # atno 10718 bound_to 10713
  154.6337  135.5413  153.7709 H   0  0  0  0  0  0  0  0  0  0  0  0  # atno 10763 bound_to 10752
  153.0297  135.6442  154.1263 H   0  0  0  0  0  0  0  0  0  0  0  0  # atno 10764 bound_to 10752
  154.1192  135.2921  155.3192 H   0  0  0  0  0  0  0  0  0  0  0  0  # atno 10765 bound_to 10752
  141.1642  133.7393  156.8998 H   0  0  0  0  0  0  0  0  0  0  0  0  # atno 11005 bound_to 11000
  145.5082  141.0436  143.2503 LP  0  0  0  0  0  0  0  0  0  0  0  0  # atno 17320 bound_to 7965
  144.7775  139.6597  143.7168 LP  0  0  0  0  0  0  0  0  0  0  0  0  # atno 17321 bound_to 7965
  140.7264  143.6991  150.7859 LP  0  0  0  0  0  0  0  0  0  0  0  0  # atno 17342 bound_to 10162
  140.0571  143.5191  152.2646 LP  0  0  0  0  0  0  0  0  0  0  0  0  # atno 17343 bound_to 10162
  157.6276  130.8703  149.9216 LP  0  0  0  0  0  0  0  0  0  0  0  0  # atno 17370 bound_to 10713
  156.0801  130.3674  150.0597 LP  0  0  0  0  0  0  0  0  0  0  0  0  # atno 17371 bound_to 10713
  140.1590  134.9178  157.2690 LP  0  0  0  0  0  0  0  0  0  0  0  0  # atno 17394 bound_to 11000
  140.2633  134.3545  155.7399 LP  0  0  0  0  0  0  0  0  0  0  0  0  # atno 17395 bound_to 11000

$$$$
