AV-unprocessed.smi:187|AV-procd|sdf|1469|dock3
  -GOLD-   2262019283D 1   1.00000     0.00000
 Structure written by MMmdl.
 53 56  0  0  0  0  0  0  0  0  1 V2000
  152.7848  144.1064  158.6326 C   0  0  0  0  0  0  0  0  0  0  0  0
  151.7068  143.0083  158.5158 C   0  0  1  0  0  0  0  0  0  0  0  0
  151.0400  143.0971  157.1265 C   0  0  0  0  0  0  0  0  0  0  0  0
  150.0164  141.9716  156.9016 C   0  0  0  0  0  0  0  0  0  0  0  0
  150.6170  140.5761  157.1695 C   0  0  1  0  0  0  0  0  0  0  0  0
  151.5664  140.1107  156.0483 C   0  0  0  0  0  0  0  0  0  0  0  0
  152.7417  139.6007  156.4252 N   0  0  0  0  0  0  0  0  0  0  0  0
  151.2597  140.2171  154.8622 O   0  0  0  0  0  0  0  0  0  0  0  0
  151.2908  140.5611  158.5578 C   0  0  0  0  0  0  0  0  0  0  0  0
  152.2457  141.6570  158.7348 N   0  0  0  0  0  0  0  0  0  0  0  0
  152.9806  141.4535  159.8526 C   0  0  0  0  0  0  0  0  0  0  0  0
  153.9216  140.4726  159.8868 N   0  0  0  0  0  0  0  0  0  0  0  0
  154.6545  140.2906  160.9897 C   0  0  0  0  0  0  0  0  0  0  0  0
  154.6170  140.9686  162.1395 N   0  0  0  0  0  0  0  0  0  0  0  0
  153.6826  141.9620  162.0991 C   0  0  0  0  0  0  0  0  0  0  0  0
  152.8285  142.2687  161.0042 C   0  0  0  0  0  0  0  0  0  0  0  0
  152.0004  143.3354  161.3277 N   0  0  0  0  0  0  0  0  0  0  0  0
  152.3391  143.6368  162.5517 C   0  0  0  0  0  0  0  0  0  0  0  0
  153.3585  142.8780  163.0840 N   0  0  0  0  0  0  0  0  0  0  0  0
  153.9085  142.9665  164.4047 C   0  0  0  0  0  0  0  0  0  0  0  0
  154.8674  144.0902  164.8058 C   0  0  0  0  0  0  0  0  0  0  0  0
  155.5927  143.1168  165.7634 C   0  0  0  0  0  0  0  0  0  0  0  0
  157.1272  143.2183  165.7738 C   0  0  0  0  0  0  0  0  0  0  0  0
  157.5712  144.1812  166.7080 O   0  0  0  0  0  0  0  0  0  0  0  0
  155.0766  143.1118  167.2167 C   0  0  0  0  0  0  0  0  0  0  0  0
  155.3320  144.3442  167.8594 O   0  0  0  0  0  0  0  0  0  0  0  0
  155.0113  142.0082  164.8581 C   0  0  0  0  0  0  0  0  0  0  0  0
  152.3630  145.0884  158.4173 H   0  0  0  0  0  0  0  0  0  0  0  0
  153.5999  143.9357  157.9284 H   0  0  0  0  0  0  0  0  0  0  0  0
  153.2157  144.1607  159.6321 H   0  0  0  0  0  0  0  0  0  0  0  0
  150.9409  143.1912  159.2709 H   0  0  0  0  0  0  0  0  0  0  0  0
  150.5460  144.0627  157.0140 H   0  0  0  0  0  0  0  0  0  0  0  0
  151.8023  143.0596  156.3479 H   0  0  0  0  0  0  0  0  0  0  0  0
  149.1663  142.1261  157.5674 H   0  0  0  0  0  0  0  0  0  0  0  0
  149.6187  142.0291  155.8876 H   0  0  0  0  0  0  0  0  0  0  0  0
  149.7919  139.8626  157.2030 H   0  0  0  0  0  0  0  0  0  0  0  0
  153.3995  139.2790  155.7303 H   0  0  0  0  0  0  0  0  0  0  0  0
  152.9666  139.5372  157.4075 H   0  0  0  0  0  0  0  0  0  0  0  0
  150.5256  140.6348  159.3323 H   0  0  0  0  0  0  0  0  0  0  0  0
  151.7900  139.6021  158.7094 H   0  0  0  0  0  0  0  0  0  0  0  0
  155.3763  139.4884  160.9436 H   0  0  0  0  0  0  0  0  0  0  0  0
  151.8520  144.4310  163.0986 H   0  0  0  0  0  0  0  0  0  0  0  0
  153.0574  142.9256  165.0867 H   0  0  0  0  0  0  0  0  0  0  0  0
  155.4991  144.4186  163.9783 H   0  0  0  0  0  0  0  0  0  0  0  0
  154.3837  144.9414  165.2859 H   0  0  0  0  0  0  0  0  0  0  0  0
  157.5769  142.2624  166.0437 H   0  0  0  0  0  0  0  0  0  0  0  0
  157.5201  143.4728  164.7890 H   0  0  0  0  0  0  0  0  0  0  0  0
  157.4974  145.0377  166.3151 H   0  0  0  0  0  0  0  0  0  0  0  0
  154.0018  142.9340  167.2546 H   0  0  0  0  0  0  0  0  0  0  0  0
  155.5338  142.3117  167.7994 H   0  0  0  0  0  0  0  0  0  0  0  0
  154.5273  144.8385  167.8911 H   0  0  0  0  0  0  0  0  0  0  0  0
  154.6527  141.1243  165.3867 H   0  0  0  0  0  0  0  0  0  0  0  0
  155.6808  141.7291  164.0420 H   0  0  0  0  0  0  0  0  0  0  0  0
  1  2  1  0  0  0  0
  1 28  1  0  0  0  0
  1 29  1  0  0  0  0
  1 30  1  0  0  0  0
  2 10  1  0  0  0  0
  2  3  1  0  0  0  0
  2 31  1  0  0  0  0
  3  4  1  0  0  0  0
  3 32  1  0  0  0  0
  3 33  1  0  0  0  0
  4  5  1  0  0  0  0
  4 34  1  0  0  0  0
  4 35  1  0  0  0  0
  5  6  1  0  0  0  0
  5  9  1  0  0  0  0
  5 36  1  0  0  0  0
  6  7  1  0  0  0  0
  6  8  2  0  0  0  0
  7 37  1  0  0  0  0
  7 38  1  0  0  0  0
  9 10  1  0  0  0  0
  9 39  1  0  0  0  0
  9 40  1  0  0  0  0
 10 11  1  0  0  0  0
 11 16  1  0  0  0  0
 11 12  2  0  0  0  0
 12 13  1  0  0  0  0
 13 14  2  0  0  0  0
 13 41  1  0  0  0  0
 14 15  1  0  0  0  0
 15 19  1  0  0  0  0
 15 16  2  0  0  0  0
 16 17  1  0  0  0  0
 17 18  2  0  0  0  0
 18 19  1  0  0  0  0
 18 42  1  0  0  0  0
 19 20  1  0  0  0  0
 20 27  1  0  0  0  0
 20 21  1  0  0  0  0
 20 43  1  0  0  0  0
 21 22  1  0  0  0  0
 21 44  1  0  0  0  0
 21 45  1  0  0  0  0
 22 23  1  0  0  0  0
 22 25  1  0  0  0  0
 22 27  1  0  0  0  0
 23 24  1  0  0  0  0
 23 46  1  0  0  0  0
 23 47  1  0  0  0  0
 24 48  1  0  0  0  0
 25 26  1  0  0  0  0
 25 49  1  0  0  0  0
 25 50  1  0  0  0  0
 26 51  1  0  0  0  0
 27 52  1  0  0  0  0
 27 53  1  0  0  0  0
M  END
> <s_m_source_file>
AV-unprocessed.smi

> <i_m_source_file_index>
187

> <i_lp_mmshare_version>
43012

> <i_f3d_flags>
0

> <s_epik_input>
W0NIM11bQ0BASF0xW0NIMl1bQ0gyXVtDQEBIXShDKD1PKVtOSDJdKVtDSDJdTjFjKG5bY0hdbjIpYyhjMjMpbltjSF1uM1tDSF0oW0NIMl00KVtDSDJdQzQoW0NIMl1bT0hdKVtDSDJdW09IXQ==

> <s_epik_cmdline>
J2VwaWtfcHl0aG9uJywgJy1waCcsICc3LjAnLCAnLXRuJywgJzgnLCAnLW1hJywgJzIwMCcsICctbWV0YWxfYmluZGluZycsICctaW1hZScsICc8aW5maWxlLm1hZT4nLCAnLW9tYWUnLCAnPG91dGZpbGUubWFlPic=

> <r_lp_tautomer_probability>
1

> <r_epik_Ionization_Penalty>
0.0017711

> <r_epik_Ionization_Penalty_Charging>
0

> <r_epik_Ionization_Penalty_Neutral>
0.0017711

> <r_epik_State_Penalty>
0.00107211

> <r_epik_Charging_Adjusted_Penalty>
0.00107211

> <i_epik_Tot_Q>
0

> <i_epik_Tot_abs_Q>
0

> <r_epik_Metal_State_Penalty>
-0

> <b_epik_Metal_Only>
0

> <s_lp_Force_Field>
OPLS_2005

> <r_lp_Energy>
37.2201

> <b_lp_Chiralities_Consistent>
1

> <s_lp_Variant>
AV-unprocessed.smi:187-2

> <Gold.Version>
5.8.1

> <Gold.Id.Protein>
6NUR|6NUR_protein|mol2

> <Gold.PLP.Fitness>
58.0305

> <Gold.PLP.PLP>
-56.6570

> <Gold.PLP.part.hbond>
-2.7719

> <Gold.PLP.part.metal>
0.0000

> <Gold.PLP.part.buried>
-4.2840

> <Gold.PLP.part.nonpolar>
-52.1886

> <Gold.PLP.part.repulsive>
2.8033

> <Gold.PLP.ligand.clash>
0.0000

> <Gold.PLP.ligand.torsion>
1.1919

> <Gold.PLP.Chemscore.Hbond>
1.0000

> <Gold.PLP.Chemscore.CHOScore>
0.0000

> <Gold.PLP.Chemscore.Metal>
0.0000

> <Gold.Chemscore.Hbonds>
donor molecule, donor type, donor heavy atom, donor atom, acceptor molecule, acceptor atom, score
      P1  H  7989  7998       L1     8  1.00

> <Gold.PLP.Chemscore.Internal.Correction>
0.7573

> <Gold.Rescore>
     Score         DG    S(hbond)    S(metal)    S(lipo)     H(rot)  DE(clash)    DE(int)     intcor
      5.69     -11.56       1.00        0.00     110.75       3.99       2.16       3.71       ----

> <Gold.Chemscore.Fitness>
5.6920

> <Gold.Chemscore.DG>
-11.5579

> <Gold.Chemscore.ZeroCoef>
-5.4800

> <Gold.Chemscore.Hbond>
0.9986

> <Gold.Chemscore.Metal>
0.0000

> <Gold.Chemscore.Lipo>
110.7465

> <Gold.Chemscore.Internal_Hbond>
0.0000

> <Gold.Chemscore.DEClash>
2.1607

> <Gold.Chemscore.DEInternal>
3.7053

> <Gold.Chemscore.Rot>
3.9902

> <Gold.Chemscore.Internal.Correction>
   9.000000E+99

> <Gold.Chemscore.Hbonds>
donor molecule, donor type, donor heavy atom, donor atom, acceptor molecule, acceptor atom, score
      P1  H  7989  7998       L1     8  0.95

> <Gold.Chemscore.Hbond.Weighted>
-3.3354

> <Gold.Chemscore.Metal.Weighted>
-0.0000

> <Gold.Chemscore.Lipo.Weighted>
-12.9573

> <Gold.Chemscore.Internal_Hbond.Weighted>
0.0000

> <Gold.Chemscore.DEClash.Weighted>
2.1607

> <Gold.Chemscore.DEInternal.Weighted>
3.7053

> <Gold.Chemscore.Rot.Weighted>
10.2148

> <Gold.Chemscore.Internal.Correction.Weighted>
   9.000000E+99

> <Gold.Protein.RotatedTorsions>
[ 6907 6896 6895 6894 ] final   27.50 input  -60.11 | X-H torsion
[ 7974 7965 7964 7962 ] final  -73.62 input  175.53 | X-H torsion
[ 8008 7997 7996 7995 ] final -122.18 input   59.86 | X-H torsion
[ 10167 10162 10161 10158 ] final   35.91 input  -65.29 | X-H torsion
[ 10718 10713 10712 10709 ] final  -12.31 input   66.30 | X-H torsion
[ 10763 10752 10751 10750 ] final -156.05 input  -60.55 | X-H torsion
[ 11005 11000 10999 10996 ] final   71.03 input  -57.11 | X-H torsion

> <Gold.Protein.ActiveResidues>
 VAL166  LYS551  ARG553  GLY616  TRP617  ASP618  TYR619  PRO620  LYS621  CYS622 
 ASP623  PHE694  ASN695  SER759  ASP760  ASP761  ALA762  ILE779  LEU786  VAL792 
 PHE793  MET794  SER795  GLU796  ALA797  LYS798  CYS799  TRP800  GLU811  SER814 

> <Gold.Protein.RotatedAtoms>
  152.0032  134.9917  160.0565 H   0  0  0  0  0  0  0  0  0  0  0  0  # atno 6907 bound_to 6896
  152.1499  133.4511  159.4816 H   0  0  0  0  0  0  0  0  0  0  0  0  # atno 6908 bound_to 6896
  150.6874  134.2120  159.4406 H   0  0  0  0  0  0  0  0  0  0  0  0  # atno 6909 bound_to 6896
  145.6498  140.9286  143.0991 H   0  0  0  0  0  0  0  0  0  0  0  0  # atno 7974 bound_to 7965
  155.1600  140.0405  157.2840 H   0  0  0  0  0  0  0  0  0  0  0  0  # atno 8008 bound_to 7997
  154.6343  140.2532  155.7369 H   0  0  0  0  0  0  0  0  0  0  0  0  # atno 8009 bound_to 7997
  156.2501  140.2869  156.0709 H   0  0  0  0  0  0  0  0  0  0  0  0  # atno 8010 bound_to 7997
  140.4177  144.1503  150.6145 H   0  0  0  0  0  0  0  0  0  0  0  0  # atno 10167 bound_to 10162
  156.6464  130.4942  149.6077 H   0  0  0  0  0  0  0  0  0  0  0  0  # atno 10718 bound_to 10713
  154.7742  135.3154  154.8127 H   0  0  0  0  0  0  0  0  0  0  0  0  # atno 10763 bound_to 10752
  153.8855  135.6830  153.4768 H   0  0  0  0  0  0  0  0  0  0  0  0  # atno 10764 bound_to 10752
  153.1362  135.4759  154.9361 H   0  0  0  0  0  0  0  0  0  0  0  0  # atno 10765 bound_to 10752
  139.9565  134.7135  156.0741 H   0  0  0  0  0  0  0  0  0  0  0  0  # atno 11005 bound_to 11000
  144.7127  139.8311  143.7409 LP  0  0  0  0  0  0  0  0  0  0  0  0  # atno 17320 bound_to 7965
  146.1213  139.4232  143.0226 LP  0  0  0  0  0  0  0  0  0  0  0  0  # atno 17321 bound_to 7965
  140.4568  143.2464  151.9274 LP  0  0  0  0  0  0  0  0  0  0  0  0  # atno 17342 bound_to 10162
  139.4782  144.5508  151.8389 LP  0  0  0  0  0  0  0  0  0  0  0  0  # atno 17343 bound_to 10162
  156.2118  130.6684  151.1278 LP  0  0  0  0  0  0  0  0  0  0  0  0  # atno 17370 bound_to 10713
  157.7155  131.0712  150.6344 LP  0  0  0  0  0  0  0  0  0  0  0  0  # atno 17371 bound_to 10713
  141.1237  133.6605  156.3281 LP  0  0  0  0  0  0  0  0  0  0  0  0  # atno 17394 bound_to 11000
  140.5597  134.5946  157.5430 LP  0  0  0  0  0  0  0  0  0  0  0  0  # atno 17395 bound_to 11000

$$$$
