AV-unprocessed.smi:2077|AV-procd|sdf|8462|dock4
  -GOLD-   2272011163D 1   1.00000     0.00000
 Structure written by MMmdl.
 38 40  0  0  0  0  0  0  0  0  1 V2000
  155.4160  135.4694  162.8240 C   0  0  0  0  0  0  0  0  0  0  0  0
  155.0269  135.6680  161.4150 N   0  0  0  0  0  0  0  0  0  0  0  0
  154.2821  136.7740  161.0990 C   0  0  0  0  0  0  0  0  0  0  0  0
  153.9141  137.6317  161.9030 O   0  0  0  0  0  0  0  0  0  0  0  0
  153.9387  136.8697  159.6778 C   0  0  0  0  0  0  0  0  0  0  0  0
  154.3345  135.9571  158.7587 C   0  0  0  0  0  0  0  0  0  0  0  0
  153.8746  136.2858  157.4882 N   0  0  0  0  0  0  0  0  0  0  0  0
  153.2047  137.4163  157.7191 C   0  0  0  0  0  0  0  0  0  0  0  0
  153.1949  137.8343  159.0015 N   0  0  0  0  0  0  0  0  0  0  0  0
  152.5427  139.0253  159.5222 C   0  0  0  0  0  0  0  0  0  0  0  0
  153.0498  140.3169  158.8518 C   0  0  1  0  0  0  0  0  0  0  0  0
  152.4996  140.4272  157.5529 O   0  0  0  0  0  0  0  0  0  0  0  0
  152.7560  141.5356  159.7118 C   0  0  0  0  0  0  0  0  0  0  0  0
  151.9545  142.5908  159.2221 C   0  0  0  0  0  0  0  0  0  0  0  0
  151.6804  143.7089  160.0339 C   0  0  0  0  0  0  0  0  0  0  0  0
  152.2030  143.7771  161.3397 C   0  0  0  0  0  0  0  0  0  0  0  0
  152.9985  142.7259  161.8344 C   0  0  0  0  0  0  0  0  0  0  0  0
  153.4977  142.7884  163.0913 F   0  0  0  0  0  0  0  0  0  0  0  0
  153.2735  141.6082  161.0230 C   0  0  0  0  0  0  0  0  0  0  0  0
  155.1156  134.8557  159.1889 N   0  0  0  0  0  0  0  0  0  0  0  0
  155.5304  133.8900  158.1672 C   0  0  0  0  0  0  0  0  0  0  0  0
  155.4537  134.7075  160.5129 C   0  0  0  0  0  0  0  0  0  0  0  0
  156.1220  133.7402  160.8877 O   0  0  0  0  0  0  0  0  0  0  0  0
  155.0472  136.2289  163.5142 H   0  0  0  0  0  0  0  0  0  0  0  0
  156.5029  135.4635  162.9204 H   0  0  0  0  0  0  0  0  0  0  0  0
  155.0412  134.5126  163.1914 H   0  0  0  0  0  0  0  0  0  0  0  0
  152.7058  137.9596  156.9297 H   0  0  0  0  0  0  0  0  0  0  0  0
  151.4651  138.9232  159.3846 H   0  0  0  0  0  0  0  0  0  0  0  0
  152.7072  139.0624  160.5993 H   0  0  0  0  0  0  0  0  0  0  0  0
  154.1307  140.2497  158.7223 H   0  0  0  0  0  0  0  0  0  0  0  0
  151.6231  140.0738  157.5682 H   0  0  0  0  0  0  0  0  0  0  0  0
  151.5444  142.5451  158.2237 H   0  0  0  0  0  0  0  0  0  0  0  0
  151.0672  144.5133  159.6553 H   0  0  0  0  0  0  0  0  0  0  0  0
  151.9917  144.6340  161.9625 H   0  0  0  0  0  0  0  0  0  0  0  0
  153.8814  140.8045  161.4128 H   0  0  0  0  0  0  0  0  0  0  0  0
  156.1858  133.0995  158.5338 H   0  0  0  0  0  0  0  0  0  0  0  0
  156.0641  134.4023  157.3660 H   0  0  0  0  0  0  0  0  0  0  0  0
  154.6527  133.4115  157.7316 H   0  0  0  0  0  0  0  0  0  0  0  0
  1  2  1  0  0  0  0
  1 24  1  0  0  0  0
  1 25  1  0  0  0  0
  1 26  1  0  0  0  0
  2 22  1  0  0  0  0
  2  3  1  0  0  0  0
  3  4  2  0  0  0  0
  3  5  1  0  0  0  0
  5  9  1  0  0  0  0
  5  6  2  0  0  0  0
  6  7  1  0  0  0  0
  6 20  1  0  0  0  0
  7  8  2  0  0  0  0
  8  9  1  0  0  0  0
  8 27  1  0  0  0  0
  9 10  1  0  0  0  0
 10 11  1  0  0  0  0
 10 28  1  0  0  0  0
 10 29  1  0  0  0  0
 11 12  1  0  0  0  0
 11 13  1  0  0  0  0
 11 30  1  0  0  0  0
 12 31  1  0  0  0  0
 13 19  1  0  0  0  0
 13 14  2  0  0  0  0
 14 15  1  0  0  0  0
 14 32  1  0  0  0  0
 15 16  2  0  0  0  0
 15 33  1  0  0  0  0
 16 17  1  0  0  0  0
 16 34  1  0  0  0  0
 17 18  1  0  0  0  0
 17 19  2  0  0  0  0
 19 35  1  0  0  0  0
 20 21  1  0  0  0  0
 20 22  1  0  0  0  0
 21 36  1  0  0  0  0
 21 37  1  0  0  0  0
 21 38  1  0  0  0  0
 22 23  2  0  0  0  0
M  END
> <s_m_source_file>
AV-unprocessed.smi

> <i_m_source_file_index>
2077

> <i_lp_mmshare_version>
43012

> <i_f3d_flags>
0

> <s_epik_input>
Tz1jMW4oW0NIM10pYyg9TyluKFtDSDNdKWMoYzEyKW5bY0hdbjJbQ0gyXVtDQEhdKFtPSF0pYzNbY0hdW2NIXVtjSF1jKEYpW2NIXTM=

> <s_epik_cmdline>
J2VwaWtfcHl0aG9uJywgJy1waCcsICc3LjAnLCAnLXRuJywgJzgnLCAnLW1hJywgJzIwMCcsICctbWV0YWxfYmluZGluZycsICctaW1hZScsICc8aW5maWxlLm1hZT4nLCAnLW9tYWUnLCAnPG91dGZpbGUubWFlPic=

> <r_lp_tautomer_probability>
1

> <r_epik_Ionization_Penalty>
1.5338e-06

> <r_epik_Ionization_Penalty_Charging>
3.74189e-09

> <r_epik_Ionization_Penalty_Neutral>
1.53006e-06

> <r_epik_State_Penalty>
-0

> <r_epik_Charging_Adjusted_Penalty>
3.74189e-09

> <i_epik_Tot_Q>
0

> <i_epik_Tot_abs_Q>
0

> <r_epik_Metal_State_Penalty>
-0

> <b_epik_Metal_Only>
0

> <s_lp_Force_Field>
OPLS_2005

> <r_lp_Energy>
35.2463

> <b_lp_Chiralities_Consistent>
1

> <s_lp_Variant>
AV-unprocessed.smi:2077-2

> <Gold.Version>
5.8.1

> <Gold.Id.Protein>
6NUR|6NUR_protein|mol2

> <Gold.PLP.Fitness>
43.1519

> <Gold.PLP.PLP>
-39.0922

> <Gold.PLP.part.hbond>
-2.0000

> <Gold.PLP.part.metal>
0.0000

> <Gold.PLP.part.buried>
-2.3075

> <Gold.PLP.part.nonpolar>
-33.2186

> <Gold.PLP.part.repulsive>
0.0000

> <Gold.PLP.ligand.clash>
0.0000

> <Gold.PLP.ligand.torsion>
0.1633

> <Gold.PLP.Chemscore.Hbond>
1.4543

> <Gold.PLP.Chemscore.CHOScore>
0.0000

> <Gold.PLP.Chemscore.Metal>
0.0000

> <Gold.Chemscore.Hbonds>
donor molecule, donor type, donor heavy atom, donor atom, acceptor molecule, acceptor atom, score
      P1  H  7997  8008       L1    12  0.45
      P1  H 10752 10765       L1     7  0.36

> <Gold.PLP.Chemscore.Internal.Correction>
0.0236

> <Gold.Rescore>
     Score         DG    S(hbond)    S(metal)    S(lipo)     H(rot)  DE(clash)    DE(int)     intcor
     13.35     -13.57       0.98        0.00      90.12       2.24       0.00       0.22       ----

> <Gold.Chemscore.Fitness>
13.3537

> <Gold.Chemscore.DG>
-13.5709

> <Gold.Chemscore.ZeroCoef>
-5.4800

> <Gold.Chemscore.Hbond>
0.9807

> <Gold.Chemscore.Metal>
0.0000

> <Gold.Chemscore.Lipo>
90.1184

> <Gold.Chemscore.Internal_Hbond>
0.0000

> <Gold.Chemscore.DEClash>
0.0004

> <Gold.Chemscore.DEInternal>
0.2167

> <Gold.Chemscore.Rot>
2.2377

> <Gold.Chemscore.Internal.Correction>
   9.000000E+99

> <Gold.Chemscore.Hbonds>
donor molecule, donor type, donor heavy atom, donor atom, acceptor molecule, acceptor atom, score
      P1  H  7997  8008       L1    12  0.08
      P1  H 10752 10765       L1     7  0.34

> <Gold.Chemscore.Hbond.Weighted>
-3.2756

> <Gold.Chemscore.Metal.Weighted>
-0.0000

> <Gold.Chemscore.Lipo.Weighted>
-10.5439

> <Gold.Chemscore.Internal_Hbond.Weighted>
0.0000

> <Gold.Chemscore.DEClash.Weighted>
0.0004

> <Gold.Chemscore.DEInternal.Weighted>
0.2167

> <Gold.Chemscore.Rot.Weighted>
5.7286

> <Gold.Chemscore.Internal.Correction.Weighted>
   9.000000E+99

> <Gold.Protein.RotatedTorsions>
[ 6907 6896 6895 6894 ] final  123.16 input  -60.11 | X-H torsion
[ 7974 7965 7964 7962 ] final    8.96 input  175.53 | X-H torsion
[ 8008 7997 7996 7995 ] final  -48.89 input   59.86 | X-H torsion
[ 10167 10162 10161 10158 ] final -121.52 input  -65.29 | X-H torsion
[ 10718 10713 10712 10709 ] final -170.24 input   66.30 | X-H torsion
[ 10763 10752 10751 10750 ] final -105.62 input  -60.55 | X-H torsion
[ 11005 11000 10999 10996 ] final   65.18 input  -57.11 | X-H torsion

> <Gold.Protein.ActiveResidues>
 VAL166  LYS551  ARG553  GLY616  TRP617  ASP618  TYR619  PRO620  LYS621  CYS622 
 ASP623  PHE694  ASN695  SER759  ASP760  ASP761  ALA762  ILE779  LEU786  VAL792 
 PHE793  MET794  SER795  GLU796  ALA797  LYS798  CYS799  TRP800  GLU811  SER814 

> <Gold.Protein.RotatedAtoms>
  152.4184  133.7076  159.6459 H   0  0  0  0  0  0  0  0  0  0  0  0  # atno 6907 bound_to 6896
  150.8061  133.8497  159.3211 H   0  0  0  0  0  0  0  0  0  0  0  0  # atno 6908 bound_to 6896
  151.6221  135.1033  160.0155 H   0  0  0  0  0  0  0  0  0  0  0  0  # atno 6909 bound_to 6896
  146.2410  139.9855  142.8431 H   0  0  0  0  0  0  0  0  0  0  0  0  # atno 7974 bound_to 7965
  154.4035  140.1310  156.4412 H   0  0  0  0  0  0  0  0  0  0  0  0  # atno 8008 bound_to 7997
  155.7457  140.3489  155.5105 H   0  0  0  0  0  0  0  0  0  0  0  0  # atno 8009 bound_to 7997
  155.8997  140.1017  157.1349 H   0  0  0  0  0  0  0  0  0  0  0  0  # atno 8010 bound_to 7997
  140.0242  143.5314  152.2207 H   0  0  0  0  0  0  0  0  0  0  0  0  # atno 10167 bound_to 10162
  156.7232  130.9278  151.3099 H   0  0  0  0  0  0  0  0  0  0  0  0  # atno 10718 bound_to 10713
  154.7958  135.4742  154.0159 H   0  0  0  0  0  0  0  0  0  0  0  0  # atno 10763 bound_to 10752
  153.1702  135.6824  153.8626 H   0  0  0  0  0  0  0  0  0  0  0  0  # atno 10764 bound_to 10752
  153.8210  135.3204  155.3388 H   0  0  0  0  0  0  0  0  0  0  0  0  # atno 10765 bound_to 10752
  139.9911  134.6590  156.0089 H   0  0  0  0  0  0  0  0  0  0  0  0  # atno 11005 bound_to 11000
  145.1552  140.9644  143.4409 LP  0  0  0  0  0  0  0  0  0  0  0  0  # atno 17320 bound_to 7965
  145.0167  139.3460  143.6092 LP  0  0  0  0  0  0  0  0  0  0  0  0  # atno 17321 bound_to 7965
  139.6119  144.7611  151.2932 LP  0  0  0  0  0  0  0  0  0  0  0  0  # atno 17342 bound_to 10162
  140.7330  143.6808  150.8003 LP  0  0  0  0  0  0  0  0  0  0  0  0  # atno 17343 bound_to 10162
  157.6889  130.9213  150.0461 LP  0  0  0  0  0  0  0  0  0  0  0  0  # atno 17370 bound_to 10713
  156.1580  130.3643  149.9341 LP  0  0  0  0  0  0  0  0  0  0  0  0  # atno 17371 bound_to 10713
  141.1566  133.6542  156.4183 LP  0  0  0  0  0  0  0  0  0  0  0  0  # atno 17394 bound_to 11000
  140.4906  134.6578  157.5209 LP  0  0  0  0  0  0  0  0  0  0  0  0  # atno 17395 bound_to 11000

$$$$
