AV-unprocessed.smi:652|AV-procd|sdf|3201|dock1
  -GOLD-   22720 0133D 1   1.00000     0.00000
 Structure written by MMmdl.
 49 50  0  0  0  0  0  0  0  0  3 V2000
  142.0723  145.2020  153.7541 C   0  0  0  0  0  0  0  0  0  0  0  0
  143.1118  144.7315  154.7802 C   0  0  0  0  0  0  0  0  0  0  0  0
  143.6763  145.9074  155.5933 C   0  0  0  0  0  0  0  0  0  0  0  0
  144.1856  144.0203  154.0915 N   0  0  0  0  0  0  0  0  0  0  0  0
  145.3240  143.5916  154.6589 C   0  0  0  0  0  0  0  0  0  0  0  0
  145.5917  143.7623  155.8486 O   0  0  0  0  0  0  0  0  0  0  0  0
  146.3065  142.8704  153.7301 C   0  0  0  0  0  0  0  0  0  0  0  0
  146.5603  141.4017  154.1306 C   0  0  0  0  0  0  0  0  0  0  0  0
  148.0057  141.0759  154.2253 N   0  3  2  0  0  0  0  0  0  0  0  0
  148.2538  139.6156  154.1827 C   0  0  0  0  0  0  0  0  0  0  0  0
  149.7613  139.3226  154.2400 C   0  0  0  0  0  0  0  0  0  0  0  0
  150.3142  139.9108  155.4108 O   0  0  0  0  0  0  0  0  0  0  0  0
  150.1777  141.3272  155.4235 C   0  0  2  0  0  0  0  0  0  0  0  0
  150.8962  141.8463  156.6797 C   0  0  0  0  0  0  0  0  0  0  0  0
  150.3773  143.1339  157.1178 N   0  0  0  0  0  0  0  0  0  0  0  0
  150.9148  143.7785  158.2397 C   0  0  0  0  0  0  0  0  0  0  0  0
  151.9726  143.2600  159.0226 C   0  0  0  0  0  0  0  0  0  0  0  0
  152.4170  144.0117  160.1235 C   0  0  0  0  0  0  0  0  0  0  0  0
  151.7776  145.2381  160.3761 C   0  0  0  0  0  0  0  0  0  0  0  0
  150.7675  145.7165  159.6157 N   0  0  0  0  0  0  0  0  0  0  0  0
  150.3648  144.9742  158.5694 N   0  3  0  0  0  0  0  0  0  0  0  0
  148.6744  141.6794  155.4055 C   0  0  0  0  0  0  0  0  0  0  0  0
  141.2407  145.7091  154.2441 H   0  0  0  0  0  0  0  0  0  0  0  0
  141.6604  144.3605  153.1962 H   0  0  0  0  0  0  0  0  0  0  0  0
  142.5083  145.8974  153.0361 H   0  0  0  0  0  0  0  0  0  0  0  0
  142.6136  144.0425  155.4648 H   0  0  0  0  0  0  0  0  0  0  0  0
  142.8793  146.4440  156.1088 H   0  0  0  0  0  0  0  0  0  0  0  0
  144.1963  146.6206  154.9529 H   0  0  0  0  0  0  0  0  0  0  0  0
  144.3812  145.5646  156.3513 H   0  0  0  0  0  0  0  0  0  0  0  0
  144.0484  143.8405  153.1073 H   0  0  0  0  0  0  0  0  0  0  0  0
  145.9086  142.9073  152.7148 H   0  0  0  0  0  0  0  0  0  0  0  0
  147.2379  143.4363  153.7266 H   0  0  0  0  0  0  0  0  0  0  0  0
  146.0670  141.1654  155.0751 H   0  0  0  0  0  0  0  0  0  0  0  0
  146.1118  140.7534  153.3754 H   0  0  0  0  0  0  0  0  0  0  0  0
  147.7479  139.1337  155.0209 H   0  0  0  0  0  0  0  0  0  0  0  0
  147.8340  139.1931  153.2690 H   0  0  0  0  0  0  0  0  0  0  0  0
  149.9336  138.2467  154.2704 H   0  0  0  0  0  0  0  0  0  0  0  0
  150.2680  139.7014  153.3508 H   0  0  0  0  0  0  0  0  0  0  0  0
  150.6692  141.7355  154.5380 H   0  0  0  0  0  0  0  0  0  0  0  0
  150.8086  141.1180  157.4870 H   0  0  0  0  0  0  0  0  0  0  0  0
  151.9593  141.9614  156.4644 H   0  0  0  0  0  0  0  0  0  0  0  0
  149.6398  143.5741  156.5870 H   0  0  0  0  0  0  0  0  0  0  0  0
  152.4408  142.3134  158.7973 H   0  0  0  0  0  0  0  0  0  0  0  0
  153.2210  143.6614  160.7538 H   0  0  0  0  0  0  0  0  0  0  0  0
  152.0830  145.8535  161.2097 H   0  0  0  0  0  0  0  0  0  0  0  0
  148.5572  142.7623  155.3871 H   0  0  0  0  0  0  0  0  0  0  0  0
  148.1934  141.3215  156.3174 H   0  0  0  0  0  0  0  0  0  0  0  0
  148.4452  141.4622  153.4018 H   0  0  0  0  0  0  0  0  0  0  0  0
  149.6035  145.3305  157.9913 H   0  0  0  0  0  0  0  0  0  0  0  0
  1  2  1  0  0  0  0
  1 23  1  0  0  0  0
  1 24  1  0  0  0  0
  1 25  1  0  0  0  0
  2  3  1  0  0  0  0
  2  4  1  0  0  0  0
  2 26  1  0  0  0  0
  3 27  1  0  0  0  0
  3 28  1  0  0  0  0
  3 29  1  0  0  0  0
  4  5  1  0  0  0  0
  4 30  1  0  0  0  0
  5  6  2  0  0  0  0
  5  7  1  0  0  0  0
  7  8  1  0  0  0  0
  7 31  1  0  0  0  0
  7 32  1  0  0  0  0
  8  9  1  0  0  0  0
  8 33  1  0  0  0  0
  8 34  1  0  0  0  0
  9 22  1  0  0  0  0
  9 10  1  0  0  0  0
  9 48  1  0  0  0  0
 10 11  1  0  0  0  0
 10 35  1  0  0  0  0
 10 36  1  0  0  0  0
 11 12  1  0  0  0  0
 11 37  1  0  0  0  0
 11 38  1  0  0  0  0
 12 13  1  0  0  0  0
 13 14  1  0  0  0  0
 13 22  1  0  0  0  0
 13 39  1  0  0  0  0
 14 15  1  0  0  0  0
 14 40  1  0  0  0  0
 14 41  1  0  0  0  0
 15 16  1  0  0  0  0
 15 42  1  0  0  0  0
 16 21  1  0  0  0  0
 16 17  2  0  0  0  0
 17 18  1  0  0  0  0
 17 43  1  0  0  0  0
 18 19  2  0  0  0  0
 18 44  1  0  0  0  0
 19 20  1  0  0  0  0
 19 45  1  0  0  0  0
 20 21  2  0  0  0  0
 21 49  1  0  0  0  0
 22 46  1  0  0  0  0
 22 47  1  0  0  0  0
M  CHG  1   9   1
M  CHG  1  21   1
M  END
> <s_m_source_file>
AV-unprocessed.smi

> <i_m_source_file_index>
652

> <i_lp_mmshare_version>
43012

> <i_f3d_flags>
0

> <s_epik_input>
W0NIM11bQ0hdKFtDSDNdKVtOSF1DKD1PKVtDSDJdW0NIMl1OMVtDSDJdW0NIMl1PW0NASF0oW0NIMl0xKVtDSDJdW05IXWMyW2NIXVtjSF1bY0hdbm4y

> <s_epik_cmdline>
J2VwaWtfcHl0aG9uJywgJy1waCcsICc3LjAnLCAnLXRuJywgJzgnLCAnLW1hJywgJzIwMCcsICctbWV0YWxfYmluZGluZycsICctaW1hZScsICc8aW5maWxlLm1hZT4nLCAnLW9tYWUnLCAnPG91dGZpbGUubWFlPic=

> <r_lp_tautomer_probability>
0.966961

> <r_epik_Ionization_Penalty>
2.79885

> <r_epik_Ionization_Penalty_Charging>
2.79884

> <r_epik_Ionization_Penalty_Neutral>
3.2567e-06

> <r_epik_State_Penalty>
2.43203

> <r_epik_Charging_Adjusted_Penalty>
5.23087

> <i_epik_Tot_Q>
2

> <i_epik_Tot_abs_Q>
2

> <r_epik_Metal_State_Penalty>
2.43963

> <b_epik_Metal_Only>
0

> <s_lp_Force_Field>
OPLS_2005

> <r_lp_Energy>
30.0621

> <b_lp_Chiralities_Consistent>
1

> <s_lp_Variant>
AV-unprocessed.smi:652-10

> <Gold.Version>
5.8.1

> <Gold.Id.Protein>
6NUR|6NUR_protein|mol2

> <Gold.PLP.Fitness>
53.8361

> <Gold.PLP.PLP>
-41.0654

> <Gold.PLP.part.hbond>
-5.3712

> <Gold.PLP.part.metal>
0.0000

> <Gold.PLP.part.buried>
-2.8413

> <Gold.PLP.part.nonpolar>
-34.1805

> <Gold.PLP.part.repulsive>
0.7620

> <Gold.PLP.ligand.clash>
0.0000

> <Gold.PLP.ligand.torsion>
0.8159

> <Gold.PLP.Chemscore.Hbond>
4.7436

> <Gold.PLP.Chemscore.CHOScore>
0.0000

> <Gold.PLP.Chemscore.Metal>
0.0000

> <Gold.Chemscore.Hbonds>
donor molecule, donor type, donor heavy atom, donor atom, acceptor molecule, acceptor atom, score
      L1  H     4    30       P1 10174  0.42
      L1  H    15    42       P1  8028  2.00
      L1  H    21    49       P1  8029  1.90

> <Gold.PLP.Chemscore.Internal.Correction>
0.1717

> <Gold.Rescore>
     Score         DG    S(hbond)    S(metal)    S(lipo)     H(rot)  DE(clash)    DE(int)     intcor
     16.10     -18.36       2.26        0.00      96.59       2.33       0.35       1.91       ----

> <Gold.Chemscore.Fitness>
16.1034

> <Gold.Chemscore.DG>
-18.3611

> <Gold.Chemscore.ZeroCoef>
-5.4800

> <Gold.Chemscore.Hbond>
2.2608

> <Gold.Chemscore.Metal>
0.0000

> <Gold.Chemscore.Lipo>
96.5921

> <Gold.Chemscore.Internal_Hbond>
0.0000

> <Gold.Chemscore.DEClash>
0.3519

> <Gold.Chemscore.DEInternal>
1.9058

> <Gold.Chemscore.Rot>
2.3326

> <Gold.Chemscore.Internal.Correction>
   9.000000E+99

> <Gold.Chemscore.Hbonds>
donor molecule, donor type, donor heavy atom, donor atom, acceptor molecule, acceptor atom, score
      L1  H     4    30       P1 10174  0.24
      L1  H    15    42       P1  8028  0.99
      L1  H    21    49       P1  8029  0.21

> <Gold.Chemscore.Hbond.Weighted>
-7.5512

> <Gold.Chemscore.Metal.Weighted>
-0.0000

> <Gold.Chemscore.Lipo.Weighted>
-11.3013

> <Gold.Chemscore.Internal_Hbond.Weighted>
0.0000

> <Gold.Chemscore.DEClash.Weighted>
0.3519

> <Gold.Chemscore.DEInternal.Weighted>
1.9058

> <Gold.Chemscore.Rot.Weighted>
5.9714

> <Gold.Chemscore.Internal.Correction.Weighted>
   9.000000E+99

> <Gold.Protein.RotatedTorsions>
[ 6907 6896 6895 6894 ] final  -40.34 input  -60.11 | X-H torsion
[ 7974 7965 7964 7962 ] final -169.53 input  175.53 | X-H torsion
[ 8008 7997 7996 7995 ] final   31.90 input   59.86 | X-H torsion
[ 10167 10162 10161 10158 ] final    0.79 input  -65.29 | X-H torsion
[ 10718 10713 10712 10709 ] final -138.65 input   66.30 | X-H torsion
[ 10763 10752 10751 10750 ] final   74.86 input  -60.55 | X-H torsion
[ 11005 11000 10999 10996 ] final  163.94 input  -57.11 | X-H torsion

> <Gold.Protein.ActiveResidues>
 VAL166  LYS551  ARG553  GLY616  TRP617  ASP618  TYR619  PRO620  LYS621  CYS622 
 ASP623  PHE694  ASN695  SER759  ASP760  ASP761  ALA762  ILE779  LEU786  VAL792 
 PHE793  MET794  SER795  GLU796  ALA797  LYS798  CYS799  TRP800  GLU811  SER814 

> <Gold.Protein.RotatedAtoms>
  150.9796  134.9154  159.7836 H   0  0  0  0  0  0  0  0  0  0  0  0  # atno 6907 bound_to 6896
  152.5217  134.3428  159.9233 H   0  0  0  0  0  0  0  0  0  0  0  0  # atno 6908 bound_to 6896
  151.3436  133.3912  159.2708 H   0  0  0  0  0  0  0  0  0  0  0  0  # atno 6909 bound_to 6896
  144.7184  140.2207  143.6316 H   0  0  0  0  0  0  0  0  0  0  0  0  # atno 7974 bound_to 7965
  155.1138  140.3241  155.4514 H   0  0  0  0  0  0  0  0  0  0  0  0  # atno 8008 bound_to 7997
  156.2683  140.2039  156.6210 H   0  0  0  0  0  0  0  0  0  0  0  0  # atno 8009 bound_to 7997
  154.6735  140.0534  157.0178 H   0  0  0  0  0  0  0  0  0  0  0  0  # atno 8010 bound_to 7997
  140.6713  143.7041  150.7928 H   0  0  0  0  0  0  0  0  0  0  0  0  # atno 10167 bound_to 10162
  156.3018  130.7433  151.1486 H   0  0  0  0  0  0  0  0  0  0  0  0  # atno 10718 bound_to 10713
  153.0615  135.5010  154.8104 H   0  0  0  0  0  0  0  0  0  0  0  0  # atno 10763 bound_to 10752
  154.6890  135.2981  154.9509 H   0  0  0  0  0  0  0  0  0  0  0  0  # atno 10764 bound_to 10752
  154.0270  135.6734  153.4830 H   0  0  0  0  0  0  0  0  0  0  0  0  # atno 10765 bound_to 10752
  140.2409  134.8052  157.3409 H   0  0  0  0  0  0  0  0  0  0  0  0  # atno 11005 bound_to 11000
  145.8504  139.2172  143.1775 LP  0  0  0  0  0  0  0  0  0  0  0  0  # atno 17320 bound_to 7965
  146.0266  140.8298  142.9897 LP  0  0  0  0  0  0  0  0  0  0  0  0  # atno 17321 bound_to 7965
  140.0727  143.5045  152.2571 LP  0  0  0  0  0  0  0  0  0  0  0  0  # atno 17342 bound_to 10162
  139.5982  144.7574  151.3234 LP  0  0  0  0  0  0  0  0  0  0  0  0  # atno 17343 bound_to 10162
  157.7370  131.0557  150.5383 LP  0  0  0  0  0  0  0  0  0  0  0  0  # atno 17370 bound_to 10713
  156.5511  130.4232  149.6107 LP  0  0  0  0  0  0  0  0  0  0  0  0  # atno 17371 bound_to 10713
  140.1654  134.4675  155.7866 LP  0  0  0  0  0  0  0  0  0  0  0  0  # atno 17394 bound_to 11000
  141.2210  133.6919  156.7617 LP  0  0  0  0  0  0  0  0  0  0  0  0  # atno 17395 bound_to 11000

$$$$
