AV-unprocessed.smi:1978|AV-procd|sdf|8007|dock3
  -GOLD-   2272010193D 1   1.00000     0.00000
 Structure written by MMmdl.
 44 45  0  0  0  0  0  0  0  0  3 V2000
  151.8718  141.4601  158.9882 C   0  0  0  0  0  0  0  0  0  0  0  0
  151.6363  140.8918  157.6304 C   0  0  0  0  0  0  0  0  0  0  0  0
  150.6292  141.0499  156.7212 C   0  0  0  0  0  0  0  0  0  0  0  0
  151.0316  140.2163  155.6421 C   0  0  0  0  0  0  0  0  0  0  0  0
  150.3695  140.0416  154.4878 N   0  5  0  0  0  0  0  0  0  0  0  0
  149.0404  139.7917  154.4956 C   0  0  0  0  0  0  0  0  0  0  0  0
  148.2963  139.8059  155.4787 O   0  0  0  0  0  0  0  0  0  0  0  0
  148.5407  139.5059  153.2862 N   0  0  0  0  0  0  0  0  0  0  0  0
  147.1475  139.1784  153.0059 C   0  0  0  0  0  0  0  0  0  0  0  0
  146.6410  137.9789  153.8525 C   0  0  1  0  0  0  0  0  0  0  0  0
  145.3015  138.3517  154.5375 C   0  0  0  0  0  0  0  0  0  0  0  0
  146.5088  136.7154  153.0453 N   0  3  2  0  0  0  0  0  0  0  0  0
  145.4157  136.7610  152.0256 C   0  0  0  0  0  0  0  0  0  0  0  0
  145.4547  135.5470  151.0824 C   0  0  0  0  0  0  0  0  0  0  0  0
  145.3966  134.2312  151.8594 C   0  0  0  0  0  0  0  0  0  0  0  0
  146.5185  134.2083  152.9015 C   0  0  0  0  0  0  0  0  0  0  0  0
  146.4753  135.4374  153.8338 C   0  0  2  0  0  0  0  0  0  0  0  0
  145.3002  135.3647  154.8345 C   0  0  0  0  0  0  0  0  0  0  0  0
  152.1888  139.6181  155.8699 N   0  0  0  0  0  0  0  0  0  0  0  0
  152.5805  140.0411  157.1456 O   0  0  0  0  0  0  0  0  0  0  0  0
  151.8851  142.5495  158.9526 H   0  0  0  0  0  0  0  0  0  0  0  0
  152.8252  141.1241  159.3965 H   0  0  0  0  0  0  0  0  0  0  0  0
  151.0836  141.1534  159.6756 H   0  0  0  0  0  0  0  0  0  0  0  0
  149.7436  141.6604  156.8140 H   0  0  0  0  0  0  0  0  0  0  0  0
  149.1818  139.5071  152.5064 H   0  0  0  0  0  0  0  0  0  0  0  0
  146.5168  140.0505  153.1878 H   0  0  0  0  0  0  0  0  0  0  0  0
  147.1096  138.9657  151.9384 H   0  0  0  0  0  0  0  0  0  0  0  0
  147.3729  137.7965  154.6407 H   0  0  0  0  0  0  0  0  0  0  0  0
  145.3455  139.3187  155.0375 H   0  0  0  0  0  0  0  0  0  0  0  0
  145.0211  137.6476  155.3188 H   0  0  0  0  0  0  0  0  0  0  0  0
  144.4878  138.3999  153.8131 H   0  0  0  0  0  0  0  0  0  0  0  0
  144.4461  136.8312  152.5190 H   0  0  0  0  0  0  0  0  0  0  0  0
  145.5015  137.6405  151.3925 H   0  0  0  0  0  0  0  0  0  0  0  0
  144.6249  135.5973  150.3767 H   0  0  0  0  0  0  0  0  0  0  0  0
  146.3678  135.5785  150.4865 H   0  0  0  0  0  0  0  0  0  0  0  0
  144.4253  134.1226  152.3426 H   0  0  0  0  0  0  0  0  0  0  0  0
  145.4996  133.3867  151.1772 H   0  0  0  0  0  0  0  0  0  0  0  0
  146.4662  133.2885  153.4853 H   0  0  0  0  0  0  0  0  0  0  0  0
  147.4803  134.1831  152.3871 H   0  0  0  0  0  0  0  0  0  0  0  0
  147.3974  135.3634  154.4077 H   0  0  0  0  0  0  0  0  0  0  0  0
  145.3246  134.4256  155.3876 H   0  0  0  0  0  0  0  0  0  0  0  0
  144.3303  135.4232  154.3419 H   0  0  0  0  0  0  0  0  0  0  0  0
  145.3414  136.1650  155.5727 H   0  0  0  0  0  0  0  0  0  0  0  0
  147.3649  136.6635  152.5120 H   0  0  0  0  0  0  0  0  0  0  0  0
  1  2  1  0  0  0  0
  1 21  1  0  0  0  0
  1 22  1  0  0  0  0
  1 23  1  0  0  0  0
  2 20  1  0  0  0  0
  2  3  2  0  0  0  0
  3  4  1  0  0  0  0
  3 24  1  0  0  0  0
  4  5  1  0  0  0  0
  4 19  2  0  0  0  0
  5  6  1  0  0  0  0
  6  7  2  0  0  0  0
  6  8  1  0  0  0  0
  8  9  1  0  0  0  0
  8 25  1  0  0  0  0
  9 10  1  0  0  0  0
  9 26  1  0  0  0  0
  9 27  1  0  0  0  0
 10 11  1  0  0  0  0
 10 12  1  0  0  0  0
 10 28  1  0  0  0  0
 11 29  1  0  0  0  0
 11 30  1  0  0  0  0
 11 31  1  0  0  0  0
 12 17  1  0  0  0  0
 12 13  1  0  0  0  0
 12 44  1  0  0  0  0
 13 14  1  0  0  0  0
 13 32  1  0  0  0  0
 13 33  1  0  0  0  0
 14 15  1  0  0  0  0
 14 34  1  0  0  0  0
 14 35  1  0  0  0  0
 15 16  1  0  0  0  0
 15 36  1  0  0  0  0
 15 37  1  0  0  0  0
 16 17  1  0  0  0  0
 16 38  1  0  0  0  0
 16 39  1  0  0  0  0
 17 18  1  0  0  0  0
 17 40  1  0  0  0  0
 18 41  1  0  0  0  0
 18 42  1  0  0  0  0
 18 43  1  0  0  0  0
 19 20  1  0  0  0  0
M  CHG  1   5  -1
M  CHG  1  12   1
M  END
> <s_m_source_file>
AV-unprocessed.smi

> <i_m_source_file_index>
1978

> <i_lp_mmshare_version>
43012

> <i_f3d_flags>
0

> <s_epik_input>
W0NIM11jMVtjSF1jKG5vMSlbTkhdQyg9TylbTkhdW0NIMl1bQ0BIXShbQ0gzXSlOMltDSDJdW0NIMl1bQ0gyXVtDSDJdW0NASF0yW0NIM10=

> <s_epik_cmdline>
J2VwaWtfcHl0aG9uJywgJy1waCcsICc3LjAnLCAnLXRuJywgJzgnLCAnLW1hJywgJzIwMCcsICctbWV0YWxfYmluZGluZycsICctaW1hZScsICc8aW5maWxlLm1hZT4nLCAnLW9tYWUnLCAnPG91dGZpbGUubWFlPic=

> <r_epik_Ionization_Penalty>
6.22372

> <r_epik_Ionization_Penalty_Charging>
6.22362

> <r_epik_Ionization_Penalty_Neutral>
9.65074e-05

> <r_epik_State_Penalty>
6.22363

> <r_epik_Charging_Adjusted_Penalty>
12.4472

> <i_epik_Tot_Q>
0

> <i_epik_Tot_abs_Q>
2

> <r_epik_Metal_State_Penalty>
2.16675

> <b_epik_Metal_Only>
1

> <s_lp_Force_Field>
OPLS_2005

> <r_lp_Energy>
15.9266

> <b_lp_Chiralities_Consistent>
1

> <s_lp_Variant>
AV-unprocessed.smi:1978-16

> <Gold.Version>
5.8.1

> <Gold.Id.Protein>
6NUR|6NUR_protein|mol2

> <Gold.PLP.Fitness>
40.9107

> <Gold.PLP.PLP>
-28.9481

> <Gold.PLP.part.hbond>
-4.0767

> <Gold.PLP.part.metal>
0.0000

> <Gold.PLP.part.buried>
-4.6002

> <Gold.PLP.part.nonpolar>
-20.8727

> <Gold.PLP.part.repulsive>
0.2394

> <Gold.PLP.ligand.clash>
0.0000

> <Gold.PLP.ligand.torsion>
1.2652

> <Gold.PLP.Chemscore.Hbond>
4.7833

> <Gold.PLP.Chemscore.CHOScore>
0.0000

> <Gold.PLP.Chemscore.Metal>
0.0000

> <Gold.Chemscore.Hbonds>
donor molecule, donor type, donor heavy atom, donor atom, acceptor molecule, acceptor atom, score
      L1  H     8    25       P1  7957  0.94
      L1  H    12    44       P1  7948  2.00
      P1  H  7989  7998       L1     5  0.70
      P1  H  7997  8010       L1    20  0.88

> <Gold.PLP.Chemscore.Internal.Correction>
0.1429

> <Gold.Rescore>
     Score         DG    S(hbond)    S(metal)    S(lipo)     H(rot)  DE(clash)    DE(int)     intcor
     12.19     -16.72       2.76        0.00      50.54       1.52       0.00       4.53       ----

> <Gold.Chemscore.Fitness>
12.1905

> <Gold.Chemscore.DG>
-16.7177

> <Gold.Chemscore.ZeroCoef>
-5.4800

> <Gold.Chemscore.Hbond>
2.7583

> <Gold.Chemscore.Metal>
0.0000

> <Gold.Chemscore.Lipo>
50.5438

> <Gold.Chemscore.Internal_Hbond>
0.0000

> <Gold.Chemscore.DEClash>
0.0000

> <Gold.Chemscore.DEInternal>
4.5272

> <Gold.Chemscore.Rot>
1.5190

> <Gold.Chemscore.Internal.Correction>
   9.000000E+99

> <Gold.Chemscore.Hbonds>
donor molecule, donor type, donor heavy atom, donor atom, acceptor molecule, acceptor atom, score
      L1  H     8    25       P1  7957  0.86
      L1  H    12    44       P1  7948  1.00
      P1  H  7989  7998       L1     5  0.07
      P1  H  7997  8010       L1    20  0.20

> <Gold.Chemscore.Hbond.Weighted>
-9.2127

> <Gold.Chemscore.Metal.Weighted>
-0.0000

> <Gold.Chemscore.Lipo.Weighted>
-5.9136

> <Gold.Chemscore.Internal_Hbond.Weighted>
0.0000

> <Gold.Chemscore.DEClash.Weighted>
0.0000

> <Gold.Chemscore.DEInternal.Weighted>
4.5272

> <Gold.Chemscore.Rot.Weighted>
3.8886

> <Gold.Chemscore.Internal.Correction.Weighted>
   9.000000E+99

> <Gold.Protein.RotatedTorsions>
[ 6907 6896 6895 6894 ] final   43.76 input  -60.11 | X-H torsion
[ 7974 7965 7964 7962 ] final   13.54 input  175.53 | X-H torsion
[ 8008 7997 7996 7995 ] final   43.67 input   59.86 | X-H torsion
[ 10167 10162 10161 10158 ] final   -4.29 input  -65.29 | X-H torsion
[ 10718 10713 10712 10709 ] final -124.40 input   66.30 | X-H torsion
[ 10763 10752 10751 10750 ] final   33.72 input  -60.55 | X-H torsion
[ 11005 11000 10999 10996 ] final   96.02 input  -57.11 | X-H torsion

> <Gold.Protein.ActiveResidues>
 VAL166  LYS551  ARG553  GLY616  TRP617  ASP618  TYR619  PRO620  LYS621  CYS622 
 ASP623  PHE694  ASN695  SER759  ASP760  ASP761  ALA762  ILE779  LEU786  VAL792 
 PHE793  MET794  SER795  GLU796  ALA797  LYS798  CYS799  TRP800  GLU811  SER814 

> <Gold.Protein.RotatedAtoms>
  152.2242  134.8384  160.0481 H   0  0  0  0  0  0  0  0  0  0  0  0  # atno 6907 bound_to 6896
  151.9157  133.3567  159.3887 H   0  0  0  0  0  0  0  0  0  0  0  0  # atno 6908 bound_to 6896
  150.7008  134.4612  159.5426 H   0  0  0  0  0  0  0  0  0  0  0  0  # atno 6909 bound_to 6896
  146.2327  139.9173  142.8515 H   0  0  0  0  0  0  0  0  0  0  0  0  # atno 7974 bound_to 7965
  155.3066  140.3388  155.4245 H   0  0  0  0  0  0  0  0  0  0  0  0  # atno 8008 bound_to 7997
  156.1975  140.1720  156.8005 H   0  0  0  0  0  0  0  0  0  0  0  0  # atno 8009 bound_to 7997
  154.5518  140.0704  156.8663 H   0  0  0  0  0  0  0  0  0  0  0  0  # atno 8010 bound_to 7997
  140.6922  143.6440  150.8410 H   0  0  0  0  0  0  0  0  0  0  0  0  # atno 10167 bound_to 10162
  156.1585  130.6585  151.0016 H   0  0  0  0  0  0  0  0  0  0  0  0  # atno 10718 bound_to 10713
  153.0198  135.6379  154.1556 H   0  0  0  0  0  0  0  0  0  0  0  0  # atno 10763 bound_to 10752
  154.1292  135.2841  155.3191 H   0  0  0  0  0  0  0  0  0  0  0  0  # atno 10764 bound_to 10752
  154.6207  135.5526  153.7634 H   0  0  0  0  0  0  0  0  0  0  0  0  # atno 10765 bound_to 10752
  139.8784  134.8929  156.4097 H   0  0  0  0  0  0  0  0  0  0  0  0  # atno 11005 bound_to 11000
  145.2171  140.9920  143.4067 LP  0  0  0  0  0  0  0  0  0  0  0  0  # atno 17320 bound_to 7965
  144.9642  139.3948  143.6341 LP  0  0  0  0  0  0  0  0  0  0  0  0  # atno 17321 bound_to 7965
  140.0154  143.5598  152.2822 LP  0  0  0  0  0  0  0  0  0  0  0  0  # atno 17342 bound_to 10162
  139.6337  144.7647  151.2482 LP  0  0  0  0  0  0  0  0  0  0  0  0  # atno 17343 bound_to 10162
  157.6714  131.0860  150.7603 LP  0  0  0  0  0  0  0  0  0  0  0  0  # atno 17370 bound_to 10713
  156.7667  130.4816  149.5426 LP  0  0  0  0  0  0  0  0  0  0  0  0  # atno 17371 bound_to 10713
  140.9209  133.7646  155.9905 LP  0  0  0  0  0  0  0  0  0  0  0  0  # atno 17394 bound_to 11000
  140.8441  134.3032  157.5302 LP  0  0  0  0  0  0  0  0  0  0  0  0  # atno 17395 bound_to 11000

$$$$
