AV-unprocessed.smi:2453|AV-procd|sdf|9691|dock10
  -GOLD-   2272013333D 1   1.00000     0.00000
 Structure written by MMmdl.
 41 42  0  0  0  0  0  0  0  0  2 V2000
  148.3462  141.7375  154.6355 C   0  0  0  0  0  0  0  0  0  0  0  0
  149.2260  140.5040  154.5275 C   0  0  0  0  0  0  0  0  0  0  0  0
  149.0601  139.6251  153.4347 C   0  0  0  0  0  0  0  0  0  0  0  0
  149.8372  138.5274  153.3230 N   0  3  0  0  0  0  0  0  0  0  0  0
  150.7941  138.2164  154.2217 C   0  0  0  0  0  0  0  0  0  0  0  0
  151.0103  139.0520  155.3354 C   0  0  0  0  0  0  0  0  0  0  0  0
  150.2100  140.2109  155.5068 C   0  0  0  0  0  0  0  0  0  0  0  0
  150.3848  141.1169  156.5912 N   0  0  0  0  0  0  0  0  0  0  0  0
  151.4392  141.2458  157.4149 C   0  0  0  0  0  0  0  0  0  0  0  0
  152.4442  140.5357  157.3958 O   0  0  0  0  0  0  0  0  0  0  0  0
  151.2522  142.2500  158.2842 N   0  0  0  0  0  0  0  0  0  0  0  0
  152.1953  142.6795  159.3168 C   0  0  2  0  0  0  0  0  0  0  0  0
  152.6301  141.4434  160.1298 C   0  0  0  0  0  0  0  0  0  0  0  0
  153.5681  141.8210  161.2840 C   0  0  0  0  0  0  0  0  0  0  0  0
  152.9156  142.8684  162.1942 C   0  0  0  0  0  0  0  0  0  0  0  0
  152.5050  144.1124  161.3936 C   0  0  0  0  0  0  0  0  0  0  0  0
  151.5578  143.7678  160.2213 C   0  0  1  0  0  0  0  0  0  0  0  0
  151.1808  145.0380  159.4258 C   0  0  0  0  0  0  0  0  0  0  0  0
  150.3831  144.7140  158.3063 O   0  0  0  0  0  0  0  0  0  0  0  0
  147.6420  141.7965  153.8050 H   0  0  0  0  0  0  0  0  0  0  0  0
  148.9550  142.6420  154.6255 H   0  0  0  0  0  0  0  0  0  0  0  0
  147.7725  141.7162  155.5625 H   0  0  0  0  0  0  0  0  0  0  0  0
  148.3340  139.7667  152.6471 H   0  0  0  0  0  0  0  0  0  0  0  0
  151.3605  137.3186  154.0213 H   0  0  0  0  0  0  0  0  0  0  0  0
  151.7960  138.7949  156.0290 H   0  0  0  0  0  0  0  0  0  0  0  0
  149.5910  141.7066  156.7937 H   0  0  0  0  0  0  0  0  0  0  0  0
  150.3890  142.7703  158.2255 H   0  0  0  0  0  0  0  0  0  0  0  0
  153.0883  143.1084  158.8585 H   0  0  0  0  0  0  0  0  0  0  0  0
  151.7513  140.9377  160.5328 H   0  0  0  0  0  0  0  0  0  0  0  0
  153.1271  140.7240  159.4778 H   0  0  0  0  0  0  0  0  0  0  0  0
  153.8248  140.9327  161.8617 H   0  0  0  0  0  0  0  0  0  0  0  0
  154.5043  142.2125  160.8838 H   0  0  0  0  0  0  0  0  0  0  0  0
  152.0390  142.4390  162.6809 H   0  0  0  0  0  0  0  0  0  0  0  0
  153.6050  143.1502  162.9907 H   0  0  0  0  0  0  0  0  0  0  0  0
  152.0287  144.8257  162.0668 H   0  0  0  0  0  0  0  0  0  0  0  0
  153.3992  144.6051  161.0095 H   0  0  0  0  0  0  0  0  0  0  0  0
  150.6407  143.3518  160.6430 H   0  0  0  0  0  0  0  0  0  0  0  0
  150.6445  145.7455  160.0590 H   0  0  0  0  0  0  0  0  0  0  0  0
  152.0671  145.5516  159.0542 H   0  0  0  0  0  0  0  0  0  0  0  0
  149.7001  145.3624  158.2259 H   0  0  0  0  0  0  0  0  0  0  0  0
  149.6996  137.9098  152.5226 H   0  0  0  0  0  0  0  0  0  0  0  0
  1  2  1  0  0  0  0
  1 20  1  0  0  0  0
  1 21  1  0  0  0  0
  1 22  1  0  0  0  0
  2  7  1  0  0  0  0
  2  3  2  0  0  0  0
  3  4  1  0  0  0  0
  3 23  1  0  0  0  0
  4  5  2  0  0  0  0
  4 41  1  0  0  0  0
  5  6  1  0  0  0  0
  5 24  1  0  0  0  0
  6  7  2  0  0  0  0
  6 25  1  0  0  0  0
  7  8  1  0  0  0  0
  8  9  1  0  0  0  0
  8 26  1  0  0  0  0
  9 10  2  0  0  0  0
  9 11  1  0  0  0  0
 11 12  1  0  0  0  0
 11 27  1  0  0  0  0
 12 17  1  0  0  0  0
 12 13  1  0  0  0  0
 12 28  1  0  0  0  0
 13 14  1  0  0  0  0
 13 29  1  0  0  0  0
 13 30  1  0  0  0  0
 14 15  1  0  0  0  0
 14 31  1  0  0  0  0
 14 32  1  0  0  0  0
 15 16  1  0  0  0  0
 15 33  1  0  0  0  0
 15 34  1  0  0  0  0
 16 17  1  0  0  0  0
 16 35  1  0  0  0  0
 16 36  1  0  0  0  0
 17 18  1  0  0  0  0
 17 37  1  0  0  0  0
 18 19  1  0  0  0  0
 18 38  1  0  0  0  0
 18 39  1  0  0  0  0
 19 40  1  0  0  0  0
M  CHG  1   4   1
M  END
> <s_m_source_file>
AV-unprocessed.smi

> <i_m_source_file_index>
2453

> <i_lp_mmshare_version>
43012

> <i_f3d_flags>
0

> <s_epik_input>
W0NIM11jMVtjSF1uW2NIXVtjSF1jMVtOSF1DKD1PKVtOSF1bQ0BASF0yW0NIMl1bQ0gyXVtDSDJdW0NIMl1bQ0BIXTJbQ0gyXVtPSF0=

> <s_epik_cmdline>
J2VwaWtfcHl0aG9uJywgJy1waCcsICc3LjAnLCAnLXRuJywgJzgnLCAnLW1hJywgJzIwMCcsICctbWV0YWxfYmluZGluZycsICctaW1hZScsICc8aW5maWxlLm1hZT4nLCAnLW9tYWUnLCAnPG91dGZpbGUubWFlPic=

> <r_epik_Ionization_Penalty>
0.71493

> <r_epik_Ionization_Penalty_Charging>
0.714909

> <r_epik_Ionization_Penalty_Neutral>
2.10174e-05

> <r_epik_State_Penalty>
0.738815

> <r_epik_Charging_Adjusted_Penalty>
1.45372

> <i_epik_Tot_Q>
1

> <i_epik_Tot_abs_Q>
1

> <r_epik_Metal_State_Penalty>
0.896004

> <b_epik_Metal_Only>
0

> <s_lp_Force_Field>
OPLS_2005

> <r_lp_Energy>
24.2673

> <b_lp_Chiralities_Consistent>
1

> <s_lp_Variant>
AV-unprocessed.smi:2453-5

> <Gold.Version>
5.8.1

> <Gold.Id.Protein>
6NUR|6NUR_protein|mol2

> <Gold.PLP.Fitness>
54.4786

> <Gold.PLP.PLP>
-43.9277

> <Gold.PLP.part.hbond>
-5.0946

> <Gold.PLP.part.metal>
0.0000

> <Gold.PLP.part.buried>
0.2820

> <Gold.PLP.part.nonpolar>
-37.7834

> <Gold.PLP.part.repulsive>
0.2004

> <Gold.PLP.ligand.clash>
0.0000

> <Gold.PLP.ligand.torsion>
0.1496

> <Gold.PLP.Chemscore.Hbond>
3.6136

> <Gold.PLP.Chemscore.CHOScore>
0.0000

> <Gold.PLP.Chemscore.Metal>
0.0000

> <Gold.Chemscore.Hbonds>
donor molecule, donor type, donor heavy atom, donor atom, acceptor molecule, acceptor atom, score
      L1  H     4    41       P1  7948  1.95
      L1  H    19    40       P1  8029  0.77
      P1  H  7997  8008       L1    10  0.69

> <Gold.PLP.Chemscore.Internal.Correction>
0.0095

> <Gold.Rescore>
     Score         DG    S(hbond)    S(metal)    S(lipo)     H(rot)  DE(clash)    DE(int)     intcor
     15.49     -20.74       2.01        0.00     111.95       1.77       1.20       4.05       ----

> <Gold.Chemscore.Fitness>
15.4852

> <Gold.Chemscore.DG>
-20.7438

> <Gold.Chemscore.ZeroCoef>
-5.4800

> <Gold.Chemscore.Hbond>
2.0081

> <Gold.Chemscore.Metal>
0.0000

> <Gold.Chemscore.Lipo>
111.9546

> <Gold.Chemscore.Internal_Hbond>
0.0000

> <Gold.Chemscore.DEClash>
1.2038

> <Gold.Chemscore.DEInternal>
4.0548

> <Gold.Chemscore.Rot>
1.7742

> <Gold.Chemscore.Internal.Correction>
   9.000000E+99

> <Gold.Chemscore.Hbonds>
donor molecule, donor type, donor heavy atom, donor atom, acceptor molecule, acceptor atom, score
      L1  H     4    41       P1  7948  0.37
      L1  H    19    40       P1  8029  0.33
      P1  H  7997  8008       L1    10  0.67

> <Gold.Chemscore.Hbond.Weighted>
-6.7070

> <Gold.Chemscore.Metal.Weighted>
-0.0000

> <Gold.Chemscore.Lipo.Weighted>
-13.0987

> <Gold.Chemscore.Internal_Hbond.Weighted>
0.0000

> <Gold.Chemscore.DEClash.Weighted>
1.2038

> <Gold.Chemscore.DEInternal.Weighted>
4.0548

> <Gold.Chemscore.Rot.Weighted>
4.5419

> <Gold.Chemscore.Internal.Correction.Weighted>
   9.000000E+99

> <Gold.Protein.RotatedTorsions>
[ 6907 6896 6895 6894 ] final -103.95 input  -60.11 | X-H torsion
[ 7974 7965 7964 7962 ] final  -44.93 input  175.53 | X-H torsion
[ 8008 7997 7996 7995 ] final  -63.25 input   59.86 | X-H torsion
[ 10167 10162 10161 10158 ] final   22.79 input  -65.29 | X-H torsion
[ 10718 10713 10712 10709 ] final   27.69 input   66.30 | X-H torsion
[ 10763 10752 10751 10750 ] final  163.78 input  -60.55 | X-H torsion
[ 11005 11000 10999 10996 ] final   20.59 input  -57.11 | X-H torsion

> <Gold.Protein.ActiveResidues>
 VAL166  LYS551  ARG553  GLY616  TRP617  ASP618  TYR619  PRO620  LYS621  CYS622 
 ASP623  PHE694  ASN695  SER759  ASP760  ASP761  ALA762  ILE779  LEU786  VAL792 
 PHE793  MET794  SER795  GLU796  ALA797  LYS798  CYS799  TRP800  GLU811  SER814 

> <Gold.Protein.RotatedAtoms>
  150.7264  134.0351  159.3746 H   0  0  0  0  0  0  0  0  0  0  0  0  # atno 6907 bound_to 6896
  151.8322  135.0615  160.0447 H   0  0  0  0  0  0  0  0  0  0  0  0  # atno 6908 bound_to 6896
  152.2925  133.5539  159.5603 H   0  0  0  0  0  0  0  0  0  0  0  0  # atno 6909 bound_to 6896
  145.9871  140.7221  142.9335 H   0  0  0  0  0  0  0  0  0  0  0  0  # atno 7974 bound_to 7965
  154.4544  140.0979  156.6713 H   0  0  0  0  0  0  0  0  0  0  0  0  # atno 8008 bound_to 7997
  155.5184  140.3478  155.4383 H   0  0  0  0  0  0  0  0  0  0  0  0  # atno 8009 bound_to 7997
  156.0747  140.1358  156.9775 H   0  0  0  0  0  0  0  0  0  0  0  0  # atno 8010 bound_to 7997
  140.5321  143.9824  150.6471 H   0  0  0  0  0  0  0  0  0  0  0  0  # atno 10167 bound_to 10162
  157.2235  130.6990  149.6281 H   0  0  0  0  0  0  0  0  0  0  0  0  # atno 10718 bound_to 10713
  154.2989  135.2759  155.2620 H   0  0  0  0  0  0  0  0  0  0  0  0  # atno 10763 bound_to 10752
  154.5066  135.5794  153.6575 H   0  0  0  0  0  0  0  0  0  0  0  0  # atno 10764 bound_to 10752
  152.9903  135.6171  154.3158 H   0  0  0  0  0  0  0  0  0  0  0  0  # atno 10765 bound_to 10752
  140.4009  134.1719  155.7664 H   0  0  0  0  0  0  0  0  0  0  0  0  # atno 11005 bound_to 11000
  144.6878  140.3007  143.7263 LP  0  0  0  0  0  0  0  0  0  0  0  0  # atno 17320 bound_to 7965
  145.7684  139.1849  143.2226 LP  0  0  0  0  0  0  0  0  0  0  0  0  # atno 17321 bound_to 7965
  140.3202  143.3142  152.0792 LP  0  0  0  0  0  0  0  0  0  0  0  0  # atno 17342 bound_to 10162
  139.4958  144.6579  151.6531 LP  0  0  0  0  0  0  0  0  0  0  0  0  # atno 17343 bound_to 10162
  155.9680  130.4512  150.5726 LP  0  0  0  0  0  0  0  0  0  0  0  0  # atno 17370 bound_to 10713
  157.3551  131.0740  151.1682 LP  0  0  0  0  0  0  0  0  0  0  0  0  # atno 17371 bound_to 10713
  141.1857  133.8318  157.1095 LP  0  0  0  0  0  0  0  0  0  0  0  0  # atno 17394 bound_to 11000
  140.0337  134.9889  157.0829 LP  0  0  0  0  0  0  0  0  0  0  0  0  # atno 17395 bound_to 11000

$$$$
