AV-unprocessed.smi:1802|AV-procd|sdf|7276|dock5
  -GOLD-   22720 8533D 1   1.00000     0.00000
 Structure written by MMmdl.
 40 41  0  0  0  0  0  0  0  0  3 V2000
  145.9094  136.2886  151.4767 C   0  0  0  0  0  0  0  0  0  0  0  0
  145.3029  135.1246  152.2803 C   0  0  1  0  0  0  0  0  0  0  0  0
  144.8353  133.9606  151.3872 C   0  0  0  0  0  0  0  0  0  0  0  0
  146.0280  133.1599  150.8460 C   0  0  0  0  0  0  0  0  0  0  0  0
  146.9522  132.7062  151.9874 C   0  0  0  0  0  0  0  0  0  0  0  0
  147.4095  133.8628  152.7999 N   0  3  2  0  0  0  0  0  0  0  0  0
  148.4216  133.4718  153.8133 C   0  0  0  0  0  0  0  0  0  0  0  0
  147.8035  133.2568  155.2041 C   0  0  0  0  0  0  0  0  0  0  0  0
  148.8708  133.1168  156.3017 C   0  0  0  0  0  0  0  0  0  0  0  0
  148.2698  133.0887  157.6304 N   0  0  0  0  0  0  0  0  0  0  0  0
  148.5473  133.9361  158.6319 C   0  0  0  0  0  0  0  0  0  0  0  0
  149.3677  134.8412  158.4616 O   0  0  0  0  0  0  0  0  0  0  0  0
  147.8638  133.6781  159.7694 N   0  5  0  0  0  0  0  0  0  0  0  0
  147.7851  134.6139  160.7300 C   0  0  0  0  0  0  0  0  0  0  0  0
  147.9102  135.9250  160.4689 N   0  0  0  0  0  0  0  0  0  0  0  0
  147.7979  136.7203  161.6013 N   0  0  0  0  0  0  0  0  0  0  0  0
  147.5799  135.9852  162.6916 C   0  0  0  0  0  0  0  0  0  0  0  0
  147.4889  134.2558  162.4336 S   0  0  0  0  0  0  0  0  0  0  0  0
  146.2605  134.6138  153.3764 C   0  0  0  0  0  0  0  0  0  0  0  0
  146.8185  135.9934  150.9528 H   0  0  0  0  0  0  0  0  0  0  0  0
  146.1649  137.1229  152.1307 H   0  0  0  0  0  0  0  0  0  0  0  0
  145.2040  136.6610  150.7337 H   0  0  0  0  0  0  0  0  0  0  0  0
  144.4196  135.5249  152.7796 H   0  0  0  0  0  0  0  0  0  0  0  0
  144.1964  133.2958  151.9701 H   0  0  0  0  0  0  0  0  0  0  0  0
  144.2214  134.3296  150.5647 H   0  0  0  0  0  0  0  0  0  0  0  0
  145.6693  132.2918  150.2920 H   0  0  0  0  0  0  0  0  0  0  0  0
  146.5911  133.7637  150.1337 H   0  0  0  0  0  0  0  0  0  0  0  0
  146.4367  131.9902  152.6294 H   0  0  0  0  0  0  0  0  0  0  0  0
  147.8126  132.1885  151.5616 H   0  0  0  0  0  0  0  0  0  0  0  0
  148.9539  132.5788  153.4820 H   0  0  0  0  0  0  0  0  0  0  0  0
  149.1686  134.2623  153.8985 H   0  0  0  0  0  0  0  0  0  0  0  0
  147.1455  134.0931  155.4443 H   0  0  0  0  0  0  0  0  0  0  0  0
  147.1779  132.3649  155.2022 H   0  0  0  0  0  0  0  0  0  0  0  0
  149.4691  132.2177  156.1450 H   0  0  0  0  0  0  0  0  0  0  0  0
  149.5611  133.9598  156.2611 H   0  0  0  0  0  0  0  0  0  0  0  0
  147.5877  132.3663  157.8105 H   0  0  0  0  0  0  0  0  0  0  0  0
  147.4692  136.4643  163.6528 H   0  0  0  0  0  0  0  0  0  0  0  0
  146.6083  135.4600  153.9676 H   0  0  0  0  0  0  0  0  0  0  0  0
  145.7193  133.9613  154.0636 H   0  0  0  0  0  0  0  0  0  0  0  0
  147.8776  134.4882  152.1597 H   0  0  0  0  0  0  0  0  0  0  0  0
  1  2  1  0  0  0  0
  1 20  1  0  0  0  0
  1 21  1  0  0  0  0
  1 22  1  0  0  0  0
  2 19  1  0  0  0  0
  2  3  1  0  0  0  0
  2 23  1  0  0  0  0
  3  4  1  0  0  0  0
  3 24  1  0  0  0  0
  3 25  1  0  0  0  0
  4  5  1  0  0  0  0
  4 26  1  0  0  0  0
  4 27  1  0  0  0  0
  5  6  1  0  0  0  0
  5 28  1  0  0  0  0
  5 29  1  0  0  0  0
  6  7  1  0  0  0  0
  6 19  1  0  0  0  0
  6 40  1  0  0  0  0
  7  8  1  0  0  0  0
  7 30  1  0  0  0  0
  7 31  1  0  0  0  0
  8  9  1  0  0  0  0
  8 32  1  0  0  0  0
  8 33  1  0  0  0  0
  9 10  1  0  0  0  0
  9 34  1  0  0  0  0
  9 35  1  0  0  0  0
 10 11  1  0  0  0  0
 10 36  1  0  0  0  0
 11 12  2  0  0  0  0
 11 13  1  0  0  0  0
 13 14  1  0  0  0  0
 14 18  1  0  0  0  0
 14 15  2  0  0  0  0
 15 16  1  0  0  0  0
 16 17  2  0  0  0  0
 17 18  1  0  0  0  0
 17 37  1  0  0  0  0
 19 38  1  0  0  0  0
 19 39  1  0  0  0  0
M  CHG  1   6   1
M  CHG  1  13  -1
M  END
> <s_m_source_file>
AV-unprocessed.smi

> <i_m_source_file_index>
1802

> <i_lp_mmshare_version>
43012

> <i_f3d_flags>
0

> <s_epik_input>
W0NIM11bQ0BASF0xW0NIMl1bQ0gyXVtDSDJdTihbQ0gyXTEpW0NIMl1bQ0gyXVtDSDJdW05IXUMoPU8pW05IXWMybm5bY0hdczI=

> <s_epik_cmdline>
J2VwaWtfcHl0aG9uJywgJy1waCcsICc3LjAnLCAnLXRuJywgJzgnLCAnLW1hJywgJzIwMCcsICctbWV0YWxfYmluZGluZycsICctaW1hZScsICc8aW5maWxlLm1hZT4nLCAnLW9tYWUnLCAnPG91dGZpbGUubWFlPic=

> <r_lp_tautomer_probability>
1

> <r_epik_Ionization_Penalty>
3.29702

> <r_epik_Ionization_Penalty_Charging>
3.26059

> <r_epik_Ionization_Penalty_Neutral>
0.0364294

> <r_epik_State_Penalty>
3.25788

> <r_epik_Charging_Adjusted_Penalty>
6.51847

> <i_epik_Tot_Q>
0

> <i_epik_Tot_abs_Q>
2

> <r_epik_Metal_State_Penalty>
0.477639

> <b_epik_Metal_Only>
1

> <s_lp_Force_Field>
OPLS_2005

> <r_lp_Energy>
11.8287

> <b_lp_Chiralities_Consistent>
1

> <s_lp_Variant>
AV-unprocessed.smi:1802-6

> <Gold.Version>
5.8.1

> <Gold.Id.Protein>
6NUR|6NUR_protein|mol2

> <Gold.PLP.Fitness>
42.4608

> <Gold.PLP.PLP>
-29.4784

> <Gold.PLP.part.hbond>
-4.0000

> <Gold.PLP.part.metal>
0.0000

> <Gold.PLP.part.buried>
-3.0598

> <Gold.PLP.part.nonpolar>
-22.9055

> <Gold.PLP.part.repulsive>
0.0458

> <Gold.PLP.ligand.clash>
0.0000

> <Gold.PLP.ligand.torsion>
0.6904

> <Gold.PLP.Chemscore.Hbond>
4.7760

> <Gold.PLP.Chemscore.CHOScore>
0.0000

> <Gold.PLP.Chemscore.Metal>
0.0000

> <Gold.Chemscore.Hbonds>
donor molecule, donor type, donor heavy atom, donor atom, acceptor molecule, acceptor atom, score
      L1  H     6    40       P1  7948  2.00
      P1  H  6896  6909       L1    12  1.00
      P1  H  6931  6943       L1    16  1.00

> <Gold.PLP.Chemscore.Internal.Correction>
0.0352

> <Gold.Rescore>
     Score         DG    S(hbond)    S(metal)    S(lipo)     H(rot)  DE(clash)    DE(int)     intcor
     15.93     -18.43       3.31        0.00      58.58       1.94       0.05       2.44       ----

> <Gold.Chemscore.Fitness>
15.9337

> <Gold.Chemscore.DG>
-18.4251

> <Gold.Chemscore.ZeroCoef>
-5.4800

> <Gold.Chemscore.Hbond>
3.3094

> <Gold.Chemscore.Metal>
0.0000

> <Gold.Chemscore.Lipo>
58.5800

> <Gold.Chemscore.Internal_Hbond>
0.0000

> <Gold.Chemscore.DEClash>
0.0487

> <Gold.Chemscore.DEInternal>
2.4427

> <Gold.Chemscore.Rot>
1.9383

> <Gold.Chemscore.Internal.Correction>
   9.000000E+99

> <Gold.Chemscore.Hbonds>
donor molecule, donor type, donor heavy atom, donor atom, acceptor molecule, acceptor atom, score
      L1  H     6    40       P1  7948  0.31
      P1  H  6896  6909       L1    12  0.60
      P1  H  6931  6943       L1    16  0.82
      P1  H  6934  6947       L1    16  0.02

> <Gold.Chemscore.Hbond.Weighted>
-11.0533

> <Gold.Chemscore.Metal.Weighted>
-0.0000

> <Gold.Chemscore.Lipo.Weighted>
-6.8539

> <Gold.Chemscore.Internal_Hbond.Weighted>
0.0000

> <Gold.Chemscore.DEClash.Weighted>
0.0487

> <Gold.Chemscore.DEInternal.Weighted>
2.4427

> <Gold.Chemscore.Rot.Weighted>
4.9620

> <Gold.Chemscore.Internal.Correction.Weighted>
   9.000000E+99

> <Gold.Protein.RotatedTorsions>
[ 6907 6896 6895 6894 ] final   49.68 input  -60.11 | X-H torsion
[ 7974 7965 7964 7962 ] final  107.39 input  175.53 | X-H torsion
[ 8008 7997 7996 7995 ] final -109.95 input   59.86 | X-H torsion
[ 10167 10162 10161 10158 ] final  143.73 input  -65.29 | X-H torsion
[ 10718 10713 10712 10709 ] final  153.27 input   66.30 | X-H torsion
[ 10763 10752 10751 10750 ] final   85.44 input  -60.55 | X-H torsion
[ 11005 11000 10999 10996 ] final   76.23 input  -57.11 | X-H torsion

> <Gold.Protein.ActiveResidues>
 VAL166  LYS551  ARG553  GLY616  TRP617  ASP618  TYR619  PRO620  LYS621  CYS622 
 ASP623  PHE694  ASN695  SER759  ASP760  ASP761  ALA762  ILE779  LEU786  VAL792 
 PHE793  MET794  SER795  GLU796  ALA797  LYS798  CYS799  TRP800  GLU811  SER814 

> <Gold.Protein.RotatedAtoms>
  152.2935  134.7694  160.0372 H   0  0  0  0  0  0  0  0  0  0  0  0  # atno 6907 bound_to 6896
  151.8232  133.3392  159.3599 H   0  0  0  0  0  0  0  0  0  0  0  0  # atno 6908 bound_to 6896
  150.7241  134.5482  159.5826 H   0  0  0  0  0  0  0  0  0  0  0  0  # atno 6909 bound_to 6896
  145.2942  139.2590  143.3848 H   0  0  0  0  0  0  0  0  0  0  0  0  # atno 7974 bound_to 7965
  154.9671  140.0398  157.2217 H   0  0  0  0  0  0  0  0  0  0  0  0  # atno 8008 bound_to 7997
  154.7835  140.2823  155.6023 H   0  0  0  0  0  0  0  0  0  0  0  0  # atno 8009 bound_to 7997
  156.2940  140.2587  156.2666 H   0  0  0  0  0  0  0  0  0  0  0  0  # atno 8010 bound_to 7997
  139.4963  144.6020  151.6459 H   0  0  0  0  0  0  0  0  0  0  0  0  # atno 10167 bound_to 10162
  157.2470  131.0771  151.1755 H   0  0  0  0  0  0  0  0  0  0  0  0  # atno 10718 bound_to 10713
  153.1475  135.4617  154.9588 H   0  0  0  0  0  0  0  0  0  0  0  0  # atno 10763 bound_to 10752
  154.7798  135.3185  154.8016 H   0  0  0  0  0  0  0  0  0  0  0  0  # atno 10764 bound_to 10752
  153.8527  135.6920  153.4845 H   0  0  0  0  0  0  0  0  0  0  0  0  # atno 10765 bound_to 10752
  139.9308  134.7583  156.1369 H   0  0  0  0  0  0  0  0  0  0  0  0  # atno 11005 bound_to 11000
  146.3174  140.3441  142.8650 LP  0  0  0  0  0  0  0  0  0  0  0  0  # atno 17320 bound_to 7965
  144.9147  140.7798  143.5785 LP  0  0  0  0  0  0  0  0  0  0  0  0  # atno 17321 bound_to 7965
  140.5673  144.0169  150.6199 LP  0  0  0  0  0  0  0  0  0  0  0  0  # atno 17342 bound_to 10162
  140.3274  143.3099  152.0722 LP  0  0  0  0  0  0  0  0  0  0  0  0  # atno 17343 bound_to 10162
  157.3319  130.6989  149.6329 LP  0  0  0  0  0  0  0  0  0  0  0  0  # atno 17370 bound_to 10713
  155.9667  130.4305  150.4879 LP  0  0  0  0  0  0  0  0  0  0  0  0  # atno 17371 bound_to 10713
  141.0895  133.6720  156.2509 LP  0  0  0  0  0  0  0  0  0  0  0  0  # atno 17394 bound_to 11000
  140.6208  134.5363  157.5547 LP  0  0  0  0  0  0  0  0  0  0  0  0  # atno 17395 bound_to 11000

$$$$
