AV-unprocessed.smi:1853|AV-procd|sdf|7527|dock10
  -GOLD-   22720 9233D 1   1.00000     0.00000
 Structure written by MMmdl.
 42 44  0  0  0  0  0  0  0  0  1 V2000
  151.8849  145.6266  159.6659 C   0  0  0  0  0  0  0  0  0  0  0  0
  151.9904  144.1281  159.4708 C   0  0  0  0  0  0  0  0  0  0  0  0
  152.7656  143.3467  160.3503 C   0  0  0  0  0  0  0  0  0  0  0  0
  152.8561  141.9540  160.1639 C   0  0  0  0  0  0  0  0  0  0  0  0
  152.1760  141.3207  159.1034 C   0  0  0  0  0  0  0  0  0  0  0  0
  152.3186  139.9538  158.9966 O   0  0  0  0  0  0  0  0  0  0  0  0
  151.2593  139.2142  158.4068 C   0  0  0  0  0  0  0  0  0  0  0  0
  151.2382  137.8108  159.0239 C   0  0  0  0  0  0  0  0  0  0  0  0
  150.2110  136.9733  158.4239 N   0  0  0  0  0  0  0  0  0  0  0  0
  150.1176  136.5323  157.1427 C   0  0  0  0  0  0  0  0  0  0  0  0
  151.1399  136.8829  156.0923 C   0  0  0  0  0  0  0  0  0  0  0  0
  150.4875  137.5011  154.9407 N   0  0  0  0  0  0  0  0  0  0  0  0
  150.7731  138.7171  154.4536 C   0  0  0  0  0  0  0  0  0  0  0  0
  151.6283  139.4698  154.9169 O   0  0  0  0  0  0  0  0  0  0  0  0
  149.0674  135.7494  156.8800 N   0  0  0  0  0  0  0  0  0  0  0  0
  148.4085  135.7001  158.0920 C   0  0  0  0  0  0  0  0  0  0  0  0
  147.2158  135.0386  158.4634 C   0  0  0  0  0  0  0  0  0  0  0  0
  146.7280  135.1341  159.7832 C   0  0  0  0  0  0  0  0  0  0  0  0
  147.4238  135.8908  160.7481 C   0  0  0  0  0  0  0  0  0  0  0  0
  148.6142  136.5568  160.3988 C   0  0  0  0  0  0  0  0  0  0  0  0
  149.0974  136.4579  159.0800 C   0  0  0  0  0  0  0  0  0  0  0  0
  151.3971  142.1130  158.2223 C   0  0  0  0  0  0  0  0  0  0  0  0
  151.3069  143.5063  158.4077 C   0  0  0  0  0  0  0  0  0  0  0  0
  152.6689  145.9952  160.3280 H   0  0  0  0  0  0  0  0  0  0  0  0
  150.9191  145.8816  160.1027 H   0  0  0  0  0  0  0  0  0  0  0  0
  151.9778  146.1440  158.7107 H   0  0  0  0  0  0  0  0  0  0  0  0
  153.2926  143.8107  161.1711 H   0  0  0  0  0  0  0  0  0  0  0  0
  153.4528  141.3644  160.8444 H   0  0  0  0  0  0  0  0  0  0  0  0
  150.3058  139.7124  158.5906 H   0  0  0  0  0  0  0  0  0  0  0  0
  151.4061  139.1443  157.3290 H   0  0  0  0  0  0  0  0  0  0  0  0
  152.2089  137.3249  158.9261 H   0  0  0  0  0  0  0  0  0  0  0  0
  151.0439  137.8814  160.0945 H   0  0  0  0  0  0  0  0  0  0  0  0
  151.9066  137.5523  156.4809 H   0  0  0  0  0  0  0  0  0  0  0  0
  151.6419  135.9704  155.7711 H   0  0  0  0  0  0  0  0  0  0  0  0
  149.7590  136.9672  154.4895 H   0  0  0  0  0  0  0  0  0  0  0  0
  150.1378  138.9507  153.5854 H   0  0  0  0  0  0  0  0  0  0  0  0
  146.6746  134.4574  157.7315 H   0  0  0  0  0  0  0  0  0  0  0  0
  145.8154  134.6247  160.0566 H   0  0  0  0  0  0  0  0  0  0  0  0
  147.0433  135.9595  161.7568 H   0  0  0  0  0  0  0  0  0  0  0  0
  149.1483  137.1373  161.1363 H   0  0  0  0  0  0  0  0  0  0  0  0
  150.8581  141.6764  157.3951 H   0  0  0  0  0  0  0  0  0  0  0  0
  150.7090  144.0974  157.7293 H   0  0  0  0  0  0  0  0  0  0  0  0
  1  2  1  0  0  0  0
  1 24  1  0  0  0  0
  1 25  1  0  0  0  0
  1 26  1  0  0  0  0
  2 23  1  0  0  0  0
  2  3  2  0  0  0  0
  3  4  1  0  0  0  0
  3 27  1  0  0  0  0
  4  5  2  0  0  0  0
  4 28  1  0  0  0  0
  5  6  1  0  0  0  0
  5 22  1  0  0  0  0
  6  7  1  0  0  0  0
  7  8  1  0  0  0  0
  7 29  1  0  0  0  0
  7 30  1  0  0  0  0
  8  9  1  0  0  0  0
  8 31  1  0  0  0  0
  8 32  1  0  0  0  0
  9 21  1  0  0  0  0
  9 10  1  0  0  0  0
 10 11  1  0  0  0  0
 10 15  2  0  0  0  0
 11 12  1  0  0  0  0
 11 33  1  0  0  0  0
 11 34  1  0  0  0  0
 12 13  1  0  0  0  0
 12 35  1  0  0  0  0
 13 14  2  0  0  0  0
 13 36  1  0  0  0  0
 15 16  1  0  0  0  0
 16 21  2  0  0  0  0
 16 17  1  0  0  0  0
 17 18  2  0  0  0  0
 17 37  1  0  0  0  0
 18 19  1  0  0  0  0
 18 38  1  0  0  0  0
 19 20  2  0  0  0  0
 19 39  1  0  0  0  0
 20 21  1  0  0  0  0
 20 40  1  0  0  0  0
 22 23  2  0  0  0  0
 22 41  1  0  0  0  0
 23 42  1  0  0  0  0
M  END
> <s_m_source_file>
AV-unprocessed.smi

> <i_m_source_file_index>
1853

> <i_lp_mmshare_version>
43012

> <i_f3d_flags>
0

> <s_epik_input>
W0NIM11jMVtjSF1bY0hdYyhbY0hdW2NIXTEpT1tDSDJdW0NIMl1uKGMobjIpW0NIMl1bTkhdW0NIXT1PKWMoYzIzKVtjSF1bY0hdW2NIXVtjSF0z

> <s_epik_cmdline>
J2VwaWtfcHl0aG9uJywgJy1waCcsICc3LjAnLCAnLXRuJywgJzgnLCAnLW1hJywgJzIwMCcsICctbWV0YWxfYmluZGluZycsICctaW1hZScsICc8aW5maWxlLm1hZT4nLCAnLW9tYWUnLCAnPG91dGZpbGUubWFlPic=

> <r_lp_tautomer_probability>
1

> <r_epik_Ionization_Penalty>
0.0586177

> <r_epik_Ionization_Penalty_Charging>
0

> <r_epik_Ionization_Penalty_Neutral>
0.0586177

> <r_epik_State_Penalty>
0.0507031

> <r_epik_Charging_Adjusted_Penalty>
0.0507031

> <i_epik_Tot_Q>
0

> <i_epik_Tot_abs_Q>
0

> <r_epik_Metal_State_Penalty>
0.0461069

> <b_epik_Metal_Only>
0

> <s_lp_Force_Field>
OPLS_2005

> <r_lp_Energy>
12.744

> <b_lp_Chiralities_Consistent>
1

> <s_lp_Variant>
AV-unprocessed.smi:1853-1

> <Gold.Version>
5.8.1

> <Gold.Id.Protein>
6NUR|6NUR_protein|mol2

> <Gold.PLP.Fitness>
42.7916

> <Gold.PLP.PLP>
-40.9670

> <Gold.PLP.part.hbond>
-1.0000

> <Gold.PLP.part.metal>
0.0000

> <Gold.PLP.part.buried>
-5.5587

> <Gold.PLP.part.nonpolar>
-34.7251

> <Gold.PLP.part.repulsive>
0.0986

> <Gold.PLP.ligand.clash>
0.0000

> <Gold.PLP.ligand.torsion>
0.6038

> <Gold.PLP.Chemscore.Hbond>
1.0000

> <Gold.PLP.Chemscore.CHOScore>
0.0000

> <Gold.PLP.Chemscore.Metal>
0.0000

> <Gold.Chemscore.Hbonds>
donor molecule, donor type, donor heavy atom, donor atom, acceptor molecule, acceptor atom, score
      P1  H  7989  7998       L1    14  1.00

> <Gold.PLP.Chemscore.Internal.Correction>
0.0322

> <Gold.Rescore>
     Score         DG    S(hbond)    S(metal)    S(lipo)     H(rot)  DE(clash)    DE(int)     intcor
     15.87     -16.55       0.99        0.00     118.72       2.40       0.05       0.64       ----

> <Gold.Chemscore.Fitness>
15.8671

> <Gold.Chemscore.DG>
-16.5501

> <Gold.Chemscore.ZeroCoef>
-5.4800

> <Gold.Chemscore.Hbond>
0.9928

> <Gold.Chemscore.Metal>
0.0000

> <Gold.Chemscore.Lipo>
118.7208

> <Gold.Chemscore.Internal_Hbond>
0.0000

> <Gold.Chemscore.DEClash>
0.0462

> <Gold.Chemscore.DEInternal>
0.6368

> <Gold.Chemscore.Rot>
2.3969

> <Gold.Chemscore.Internal.Correction>
   9.000000E+99

> <Gold.Chemscore.Hbonds>
donor molecule, donor type, donor heavy atom, donor atom, acceptor molecule, acceptor atom, score
      P1  H  7989  7998       L1    14  0.25

> <Gold.Chemscore.Hbond.Weighted>
-3.3159

> <Gold.Chemscore.Metal.Weighted>
-0.0000

> <Gold.Chemscore.Lipo.Weighted>
-13.8903

> <Gold.Chemscore.Internal_Hbond.Weighted>
0.0000

> <Gold.Chemscore.DEClash.Weighted>
0.0462

> <Gold.Chemscore.DEInternal.Weighted>
0.6368

> <Gold.Chemscore.Rot.Weighted>
6.1361

> <Gold.Chemscore.Internal.Correction.Weighted>
   9.000000E+99

> <Gold.Protein.RotatedTorsions>
[ 6907 6896 6895 6894 ] final  166.82 input  -60.11 | X-H torsion
[ 7974 7965 7964 7962 ] final   67.58 input  175.53 | X-H torsion
[ 8008 7997 7996 7995 ] final   64.51 input   59.86 | X-H torsion
[ 10167 10162 10161 10158 ] final  -55.18 input  -65.29 | X-H torsion
[ 10718 10713 10712 10709 ] final  -37.67 input   66.30 | X-H torsion
[ 10763 10752 10751 10750 ] final -128.38 input  -60.55 | X-H torsion
[ 11005 11000 10999 10996 ] final  -59.84 input  -57.11 | X-H torsion

> <Gold.Protein.ActiveResidues>
 VAL166  LYS551  ARG553  GLY616  TRP617  ASP618  TYR619  PRO620  LYS621  CYS622 
 ASP623  PHE694  ASN695  SER759  ASP760  ASP761  ALA762  ILE779  LEU786  VAL792 
 PHE793  MET794  SER795  GLU796  ALA797  LYS798  CYS799  TRP800  GLU811  SER814 

> <Gold.Protein.RotatedAtoms>
  151.8730  133.3479  159.3740 H   0  0  0  0  0  0  0  0  0  0  0  0  # atno 6907 bound_to 6896
  150.7147  134.5094  159.5609 H   0  0  0  0  0  0  0  0  0  0  0  0  # atno 6908 bound_to 6896
  152.2630  134.8014  160.0478 H   0  0  0  0  0  0  0  0  0  0  0  0  # atno 6909 bound_to 6896
  145.8130  139.3042  143.1088 H   0  0  0  0  0  0  0  0  0  0  0  0  # atno 7974 bound_to 7965
  155.6472  140.3497  155.4735 H   0  0  0  0  0  0  0  0  0  0  0  0  # atno 8008 bound_to 7997
  155.9878  140.1187  157.0690 H   0  0  0  0  0  0  0  0  0  0  0  0  # atno 8009 bound_to 7997
  154.4210  140.1125  156.5509 H   0  0  0  0  0  0  0  0  0  0  0  0  # atno 8010 bound_to 7997
  140.6389  143.2497  151.5042 H   0  0  0  0  0  0  0  0  0  0  0  0  # atno 10167 bound_to 10162
  156.3125  130.4254  149.8037 H   0  0  0  0  0  0  0  0  0  0  0  0  # atno 10718 bound_to 10713
  154.8756  135.3930  154.3748 H   0  0  0  0  0  0  0  0  0  0  0  0  # atno 10763 bound_to 10752
  153.4503  135.7028  153.6118 H   0  0  0  0  0  0  0  0  0  0  0  0  # atno 10764 bound_to 10752
  153.4661  135.3801  155.2334 H   0  0  0  0  0  0  0  0  0  0  0  0  # atno 10765 bound_to 10752
  141.1264  133.6618  156.5133 H   0  0  0  0  0  0  0  0  0  0  0  0  # atno 11005 bound_to 11000
  145.9757  140.8724  143.0140 LP  0  0  0  0  0  0  0  0  0  0  0  0  # atno 17320 bound_to 7965
  144.6755  140.2009  143.7387 LP  0  0  0  0  0  0  0  0  0  0  0  0  # atno 17321 bound_to 7965
  139.5599  144.2183  152.1674 LP  0  0  0  0  0  0  0  0  0  0  0  0  # atno 17342 bound_to 10162
  140.1447  144.5169  150.6722 LP  0  0  0  0  0  0  0  0  0  0  0  0  # atno 17343 bound_to 10162
  156.5375  130.8285  151.3258 LP  0  0  0  0  0  0  0  0  0  0  0  0  # atno 17370 bound_to 10713
  157.7394  130.9831  150.2312 LP  0  0  0  0  0  0  0  0  0  0  0  0  # atno 17371 bound_to 10713
  140.4351  134.7066  157.4962 LP  0  0  0  0  0  0  0  0  0  0  0  0  # atno 17394 bound_to 11000
  140.0267  134.6467  155.9163 LP  0  0  0  0  0  0  0  0  0  0  0  0  # atno 17395 bound_to 11000

$$$$
