AV-unprocessed.smi:657|AV-procd|sdf|3226|dock1
  -GOLD-   22720 0163D 1   1.00000     0.00000
 Structure written by MMmdl.
 46 47  0  0  0  0  0  0  0  0  3 V2000
  146.3970  139.7901  154.0461 C   0  0  0  0  0  0  0  0  0  0  0  0
  147.3140  138.9518  153.1342 C   0  0  0  0  0  0  0  0  0  0  0  0
  146.7513  138.8418  151.7066 C   0  0  0  0  0  0  0  0  0  0  0  0
  147.6509  137.5996  153.6961 N   0  3  2  0  0  0  0  0  0  0  0  0
  146.4706  136.6885  153.7742 C   0  0  0  0  0  0  0  0  0  0  0  0
  146.8654  135.2605  154.1695 C   0  0  0  0  0  0  0  0  0  0  0  0
  147.5747  135.2670  155.5233 C   0  0  0  0  0  0  0  0  0  0  0  0
  148.8047  136.1721  155.4370 C   0  0  0  0  0  0  0  0  0  0  0  0
  148.4491  137.6085  154.9720 C   0  0  1  0  0  0  0  0  0  0  0  0
  149.7524  138.4337  154.8954 C   0  0  0  0  0  0  0  0  0  0  0  0
  150.6862  137.9795  154.2270 O   0  0  0  0  0  0  0  0  0  0  0  0
  149.6654  139.5855  155.6206 N   0  5  0  0  0  0  0  0  0  0  0  0
  150.8191  140.3989  155.9929 C   0  0  0  0  0  0  0  0  0  0  0  0
  150.3901  141.8718  156.1383 C   0  0  0  0  0  0  0  0  0  0  0  0
  151.0009  142.5432  157.3439 C   0  0  0  0  0  0  0  0  0  0  0  0
  150.9810  143.9286  157.6805 C   0  0  0  0  0  0  0  0  0  0  0  0
  151.6043  144.1933  158.8171 N   0  0  0  0  0  0  0  0  0  0  0  0
  152.0386  142.9920  159.2491 N   0  0  0  0  0  0  0  0  0  0  0  0
  152.7768  142.9050  160.4908 C   0  0  0  0  0  0  0  0  0  0  0  0
  151.6854  141.9783  158.3851 C   0  0  0  0  0  0  0  0  0  0  0  0
  146.2900  140.8018  153.6540 H   0  0  0  0  0  0  0  0  0  0  0  0
  146.8028  139.8784  155.0538 H   0  0  0  0  0  0  0  0  0  0  0  0
  145.3941  139.3695  154.1197 H   0  0  0  0  0  0  0  0  0  0  0  0
  148.2289  139.5280  153.0127 H   0  0  0  0  0  0  0  0  0  0  0  0
  146.6676  139.8280  151.2491 H   0  0  0  0  0  0  0  0  0  0  0  0
  145.7585  138.3939  151.6835 H   0  0  0  0  0  0  0  0  0  0  0  0
  147.4070  138.2436  151.0728 H   0  0  0  0  0  0  0  0  0  0  0  0
  145.7553  137.0685  154.5042 H   0  0  0  0  0  0  0  0  0  0  0  0
  145.9537  136.6497  152.8167 H   0  0  0  0  0  0  0  0  0  0  0  0
  145.9772  134.6296  154.2185 H   0  0  0  0  0  0  0  0  0  0  0  0
  147.5148  134.8285  153.4071 H   0  0  0  0  0  0  0  0  0  0  0  0
  146.8994  135.6247  156.3016 H   0  0  0  0  0  0  0  0  0  0  0  0
  147.8696  134.2547  155.8012 H   0  0  0  0  0  0  0  0  0  0  0  0
  149.2978  136.2050  156.4097 H   0  0  0  0  0  0  0  0  0  0  0  0
  149.5203  135.7167  154.7503 H   0  0  0  0  0  0  0  0  0  0  0  0
  147.8205  138.0583  155.7420 H   0  0  0  0  0  0  0  0  0  0  0  0
  151.2612  140.0698  156.9346 H   0  0  0  0  0  0  0  0  0  0  0  0
  151.6118  140.3285  155.2474 H   0  0  0  0  0  0  0  0  0  0  0  0
  150.6602  142.4149  155.2317 H   0  0  0  0  0  0  0  0  0  0  0  0
  149.3017  141.9220  156.1940 H   0  0  0  0  0  0  0  0  0  0  0  0
  150.5350  144.7449  157.1315 H   0  0  0  0  0  0  0  0  0  0  0  0
  153.0810  141.8741  160.6743 H   0  0  0  0  0  0  0  0  0  0  0  0
  152.1503  143.2426  161.3168 H   0  0  0  0  0  0  0  0  0  0  0  0
  153.6670  143.5323  160.4358 H   0  0  0  0  0  0  0  0  0  0  0  0
  151.9492  140.9484  158.5762 H   0  0  0  0  0  0  0  0  0  0  0  0
  148.2816  137.1897  153.0215 H   0  0  0  0  0  0  0  0  0  0  0  0
  1  2  1  0  0  0  0
  1 21  1  0  0  0  0
  1 22  1  0  0  0  0
  1 23  1  0  0  0  0
  2  3  1  0  0  0  0
  2  4  1  0  0  0  0
  2 24  1  0  0  0  0
  3 25  1  0  0  0  0
  3 26  1  0  0  0  0
  3 27  1  0  0  0  0
  4  9  1  0  0  0  0
  4  5  1  0  0  0  0
  4 46  1  0  0  0  0
  5  6  1  0  0  0  0
  5 28  1  0  0  0  0
  5 29  1  0  0  0  0
  6  7  1  0  0  0  0
  6 30  1  0  0  0  0
  6 31  1  0  0  0  0
  7  8  1  0  0  0  0
  7 32  1  0  0  0  0
  7 33  1  0  0  0  0
  8  9  1  0  0  0  0
  8 34  1  0  0  0  0
  8 35  1  0  0  0  0
  9 10  1  0  0  0  0
  9 36  1  0  0  0  0
 10 11  2  0  0  0  0
 10 12  1  0  0  0  0
 12 13  1  0  0  0  0
 13 14  1  0  0  0  0
 13 37  1  0  0  0  0
 13 38  1  0  0  0  0
 14 15  1  0  0  0  0
 14 39  1  0  0  0  0
 14 40  1  0  0  0  0
 15 20  2  0  0  0  0
 15 16  1  0  0  0  0
 16 17  2  0  0  0  0
 16 41  1  0  0  0  0
 17 18  1  0  0  0  0
 18 19  1  0  0  0  0
 18 20  1  0  0  0  0
 19 42  1  0  0  0  0
 19 43  1  0  0  0  0
 19 44  1  0  0  0  0
 20 45  1  0  0  0  0
M  CHG  1   4   1
M  CHG  1  12  -1
M  END
> <s_m_source_file>
AV-unprocessed.smi

> <i_m_source_file_index>
657

> <i_lp_mmshare_version>
43012

> <i_f3d_flags>
0

> <s_epik_input>
W0NIM11bQ0hdKFtDSDNdKU4xW0NIMl1bQ0gyXVtDSDJdW0NIMl1bQ0BIXTFDKD1PKVtOSF1bQ0gyXVtDSDJdYzJbY0hdbm4oW0NIM10pW2NIXTI=

> <s_epik_cmdline>
J2VwaWtfcHl0aG9uJywgJy1waCcsICc3LjAnLCAnLXRuJywgJzgnLCAnLW1hJywgJzIwMCcsICctbWV0YWxfYmluZGluZycsICctaW1hZScsICc8aW5maWxlLm1hZT4nLCAnLW9tYWUnLCAnPG91dGZpbGUubWFlPic=

> <r_lp_tautomer_probability>
1

> <r_epik_Ionization_Penalty>
6.1622

> <r_epik_Ionization_Penalty_Charging>
6.16146

> <r_epik_Ionization_Penalty_Neutral>
0.00073675

> <r_epik_State_Penalty>
6.18018

> <r_epik_Charging_Adjusted_Penalty>
12.3416

> <i_epik_Tot_Q>
0

> <i_epik_Tot_abs_Q>
2

> <r_epik_Metal_State_Penalty>
2.12232

> <b_epik_Metal_Only>
1

> <s_lp_Force_Field>
OPLS_2005

> <r_lp_Energy>
11.2403

> <b_lp_Chiralities_Consistent>
1

> <s_lp_Variant>
AV-unprocessed.smi:657-7

> <Gold.Version>
5.8.1

> <Gold.Id.Protein>
6NUR|6NUR_protein|mol2

> <Gold.PLP.Fitness>
41.4771

> <Gold.PLP.PLP>
-33.7128

> <Gold.PLP.part.hbond>
-1.0000

> <Gold.PLP.part.metal>
0.0000

> <Gold.PLP.part.buried>
-2.5055

> <Gold.PLP.part.nonpolar>
-30.3714

> <Gold.PLP.part.repulsive>
0.2998

> <Gold.PLP.ligand.clash>
0.0000

> <Gold.PLP.ligand.torsion>
0.8500

> <Gold.PLP.Chemscore.Hbond>
2.0000

> <Gold.PLP.Chemscore.CHOScore>
0.9996

> <Gold.PLP.Chemscore.Metal>
0.0000

> <Gold.Chemscore.Hbonds>
donor molecule, donor type, donor heavy atom, donor atom, acceptor molecule, acceptor atom, score
      L1  H     4    46       P1  7948  2.00
      L1  C    16    41       P1  8028  1.00

> <Gold.PLP.Chemscore.Internal.Correction>
0.4655

> <Gold.Rescore>
     Score         DG    S(hbond)    S(metal)    S(lipo)     H(rot)  DE(clash)    DE(int)     intcor
     13.81     -14.71       0.99        0.00      85.07       1.57       0.10       0.80       ----

> <Gold.Chemscore.Fitness>
13.8102

> <Gold.Chemscore.DG>
-14.7150

> <Gold.Chemscore.ZeroCoef>
-5.4800

> <Gold.Chemscore.Hbond>
0.9915

> <Gold.Chemscore.Metal>
0.0000

> <Gold.Chemscore.Lipo>
85.0697

> <Gold.Chemscore.Internal_Hbond>
0.0000

> <Gold.Chemscore.DEClash>
0.1031

> <Gold.Chemscore.DEInternal>
0.8016

> <Gold.Chemscore.Rot>
1.5741

> <Gold.Chemscore.Internal.Correction>
   9.000000E+99

> <Gold.Chemscore.Hbonds>
donor molecule, donor type, donor heavy atom, donor atom, acceptor molecule, acceptor atom, score
      L1  H     4    46       P1  7948  1.00

> <Gold.Chemscore.Hbond.Weighted>
-3.3115

> <Gold.Chemscore.Metal.Weighted>
-0.0000

> <Gold.Chemscore.Lipo.Weighted>
-9.9532

> <Gold.Chemscore.Internal_Hbond.Weighted>
0.0000

> <Gold.Chemscore.DEClash.Weighted>
0.1031

> <Gold.Chemscore.DEInternal.Weighted>
0.8016

> <Gold.Chemscore.Rot.Weighted>
4.0297

> <Gold.Chemscore.Internal.Correction.Weighted>
   9.000000E+99

> <Gold.Protein.RotatedTorsions>
[ 6907 6896 6895 6894 ] final -163.03 input  -60.11 | X-H torsion
[ 7974 7965 7964 7962 ] final  -15.29 input  175.53 | X-H torsion
[ 8008 7997 7996 7995 ] final -133.30 input   59.86 | X-H torsion
[ 10167 10162 10161 10158 ] final  -47.41 input  -65.29 | X-H torsion
[ 10718 10713 10712 10709 ] final  -12.80 input   66.30 | X-H torsion
[ 10763 10752 10751 10750 ] final  149.89 input  -60.55 | X-H torsion
[ 11005 11000 10999 10996 ] final  150.51 input  -57.11 | X-H torsion

> <Gold.Protein.ActiveResidues>
 VAL166  LYS551  ARG553  GLY616  TRP617  ASP618  TYR619  PRO620  LYS621  CYS622 
 ASP623  PHE694  ASN695  SER759  ASP760  ASP761  ALA762  ILE779  LEU786  VAL792 
 PHE793  MET794  SER795  GLU796  ALA797  LYS798  CYS799  TRP800  GLU811  SER814 

> <Gold.Protein.RotatedAtoms>
  151.3896  133.3793  159.2719 H   0  0  0  0  0  0  0  0  0  0  0  0  # atno 6907 bound_to 6896
  150.9515  134.8915  159.7685 H   0  0  0  0  0  0  0  0  0  0  0  0  # atno 6908 bound_to 6896
  152.5113  134.3852  159.9417 H   0  0  0  0  0  0  0  0  0  0  0  0  # atno 6909 bound_to 6896
  146.2038  140.3472  142.8414 H   0  0  0  0  0  0  0  0  0  0  0  0  # atno 7974 bound_to 7965
  155.3432  140.0473  157.3045 H   0  0  0  0  0  0  0  0  0  0  0  0  # atno 8008 bound_to 7997
  154.5266  140.2243  155.8844 H   0  0  0  0  0  0  0  0  0  0  0  0  # atno 8009 bound_to 7997
  156.1745  140.3088  155.9041 H   0  0  0  0  0  0  0  0  0  0  0  0  # atno 8010 bound_to 7997
  140.6776  143.2785  151.3923 H   0  0  0  0  0  0  0  0  0  0  0  0  # atno 10167 bound_to 10162
  156.6394  130.4924  149.6100 H   0  0  0  0  0  0  0  0  0  0  0  0  # atno 10718 bound_to 10713
  154.0785  135.2861  155.3295 H   0  0  0  0  0  0  0  0  0  0  0  0  # atno 10763 bound_to 10752
  154.6699  135.5303  153.8128 H   0  0  0  0  0  0  0  0  0  0  0  0  # atno 10764 bound_to 10752
  153.0458  135.6555  154.0962 H   0  0  0  0  0  0  0  0  0  0  0  0  # atno 10765 bound_to 10752
  140.1137  134.8908  157.1973 H   0  0  0  0  0  0  0  0  0  0  0  0  # atno 11005 bound_to 11000
  144.8744  140.7317  143.6026 LP  0  0  0  0  0  0  0  0  0  0  0  0  # atno 17320 bound_to 7965
  145.3392  139.1737  143.4495 LP  0  0  0  0  0  0  0  0  0  0  0  0  # atno 17321 bound_to 7965
  139.6078  144.1162  152.2267 LP  0  0  0  0  0  0  0  0  0  0  0  0  # atno 17342 bound_to 10162
  140.0566  144.5890  150.7295 LP  0  0  0  0  0  0  0  0  0  0  0  0  # atno 17343 bound_to 10162
  156.2171  130.6714  151.1330 LP  0  0  0  0  0  0  0  0  0  0  0  0  # atno 17370 bound_to 10713
  157.7175  131.0701  150.6267 LP  0  0  0  0  0  0  0  0  0  0  0  0  # atno 17371 bound_to 10713
  140.3057  134.3081  155.7279 LP  0  0  0  0  0  0  0  0  0  0  0  0  # atno 17394 bound_to 11000
  141.2136  133.7619  156.9704 LP  0  0  0  0  0  0  0  0  0  0  0  0  # atno 17395 bound_to 11000

$$$$
