AV-unprocessed.smi:1662|AV-procd|sdf|6662|dock3
  -GOLD-   22720 7373D 1   1.00000     0.00000
 Structure written by MMmdl.
 47 48  0  0  0  0  0  0  0  0  1 V2000
  155.7865  140.0649  163.7937 C   0  0  0  0  0  0  0  0  0  0  0  0
  155.3105  138.8778  163.0007 C   0  0  0  0  0  0  0  0  0  0  0  0
  154.9664  139.0992  161.7746 N   0  0  0  0  0  0  0  0  0  0  0  0
  154.5104  138.0805  160.9606 N   0  0  0  0  0  0  0  0  0  0  0  0
  154.1384  138.5140  159.6060 C   0  0  0  0  0  0  0  0  0  0  0  0
  153.0366  139.5829  159.6032 C   0  0  0  0  0  0  0  0  0  0  0  0
  151.9322  139.3426  159.1133 O   0  0  0  0  0  0  0  0  0  0  0  0
  153.3522  140.7560  160.1721 N   0  0  0  0  0  0  0  0  0  0  0  0
  152.4757  141.9227  160.2547 C   0  0  1  0  0  0  0  0  0  0  0  0
  152.9483  142.8297  161.4064 C   0  0  0  0  0  0  0  0  0  0  0  0
  152.0873  144.0918  161.5093 C   0  0  0  0  0  0  0  0  0  0  0  0
  152.0916  144.8576  160.1817 C   0  0  0  0  0  0  0  0  0  0  0  0
  151.6017  143.9816  159.0111 C   0  0  1  0  0  0  0  0  0  0  0  0
  151.5953  144.8124  157.7146 C   0  0  0  0  0  0  0  0  0  0  0  0
  152.4413  142.6771  158.8977 C   0  0  2  0  0  0  0  0  0  0  0  0
  151.9308  141.7583  157.7654 C   0  0  0  0  0  0  0  0  0  0  0  0
  154.3929  136.7754  161.3412 C   0  0  0  0  0  0  0  0  0  0  0  0
  153.9930  135.8957  160.5765 O   0  0  0  0  0  0  0  0  0  0  0  0
  154.7830  136.5324  162.7317 C   0  0  0  0  0  0  0  0  0  0  0  0
  154.6659  135.1804  163.1741 C   0  0  0  0  0  0  0  0  0  0  0  0
  154.5755  134.0897  163.5515 N   0  0  0  0  0  0  0  0  0  0  0  0
  155.2230  137.5260  163.5438 C   0  0  0  0  0  0  0  0  0  0  0  0
  155.6397  137.3259  164.9944 C   0  0  0  0  0  0  0  0  0  0  0  0
  156.7794  139.8841  164.2063 H   0  0  0  0  0  0  0  0  0  0  0  0
  155.1084  140.2721  164.6216 H   0  0  0  0  0  0  0  0  0  0  0  0
  155.8447  140.9665  163.1818 H   0  0  0  0  0  0  0  0  0  0  0  0
  155.0057  138.9236  159.0852 H   0  0  0  0  0  0  0  0  0  0  0  0
  153.8228  137.6515  159.0154 H   0  0  0  0  0  0  0  0  0  0  0  0
  154.2802  140.8594  160.5568 H   0  0  0  0  0  0  0  0  0  0  0  0
  151.4584  141.5922  160.4745 H   0  0  0  0  0  0  0  0  0  0  0  0
  152.9111  142.2873  162.3521 H   0  0  0  0  0  0  0  0  0  0  0  0
  153.9909  143.1127  161.2533 H   0  0  0  0  0  0  0  0  0  0  0  0
  151.0652  143.8212  161.7771 H   0  0  0  0  0  0  0  0  0  0  0  0
  152.4596  144.7319  162.3095 H   0  0  0  0  0  0  0  0  0  0  0  0
  151.4601  145.7419  160.2762 H   0  0  0  0  0  0  0  0  0  0  0  0
  153.0996  145.2201  159.9750 H   0  0  0  0  0  0  0  0  0  0  0  0
  150.5690  143.6997  159.2227 H   0  0  0  0  0  0  0  0  0  0  0  0
  152.6086  145.0535  157.3923 H   0  0  0  0  0  0  0  0  0  0  0  0
  151.0608  145.7523  157.8557 H   0  0  0  0  0  0  0  0  0  0  0  0
  151.0970  144.2902  156.8984 H   0  0  0  0  0  0  0  0  0  0  0  0
  153.4654  142.9625  158.6508 H   0  0  0  0  0  0  0  0  0  0  0  0
  150.8870  141.4844  157.9205 H   0  0  0  0  0  0  0  0  0  0  0  0
  152.5061  140.8351  157.6969 H   0  0  0  0  0  0  0  0  0  0  0  0
  152.0096  142.2362  156.7898 H   0  0  0  0  0  0  0  0  0  0  0  0
  155.4750  136.3038  165.3342 H   0  0  0  0  0  0  0  0  0  0  0  0
  155.0703  137.9828  165.6526 H   0  0  0  0  0  0  0  0  0  0  0  0
  156.7001  137.5480  165.1198 H   0  0  0  0  0  0  0  0  0  0  0  0
  1  2  1  0  0  0  0
  1 24  1  0  0  0  0
  1 25  1  0  0  0  0
  1 26  1  0  0  0  0
  2 22  1  0  0  0  0
  2  3  2  0  0  0  0
  3  4  1  0  0  0  0
  4  5  1  0  0  0  0
  4 17  1  0  0  0  0
  5  6  1  0  0  0  0
  5 27  1  0  0  0  0
  5 28  1  0  0  0  0
  6  7  2  0  0  0  0
  6  8  1  0  0  0  0
  8  9  1  0  0  0  0
  8 29  1  0  0  0  0
  9 15  1  0  0  0  0
  9 10  1  0  0  0  0
  9 30  1  0  0  0  0
 10 11  1  0  0  0  0
 10 31  1  0  0  0  0
 10 32  1  0  0  0  0
 11 12  1  0  0  0  0
 11 33  1  0  0  0  0
 11 34  1  0  0  0  0
 12 13  1  0  0  0  0
 12 35  1  0  0  0  0
 12 36  1  0  0  0  0
 13 14  1  0  0  0  0
 13 15  1  0  0  0  0
 13 37  1  0  0  0  0
 14 38  1  0  0  0  0
 14 39  1  0  0  0  0
 14 40  1  0  0  0  0
 15 16  1  0  0  0  0
 15 41  1  0  0  0  0
 16 42  1  0  0  0  0
 16 43  1  0  0  0  0
 16 44  1  0  0  0  0
 17 18  2  0  0  0  0
 17 19  1  0  0  0  0
 19 20  1  0  0  0  0
 19 22  2  0  0  0  0
 20 21  3  0  0  0  0
 22 23  1  0  0  0  0
 23 45  1  0  0  0  0
 23 46  1  0  0  0  0
 23 47  1  0  0  0  0
M  END
> <s_m_source_file>
AV-unprocessed.smi

> <i_m_source_file_index>
1662

> <i_lp_mmshare_version>
43012

> <i_f3d_flags>
0

> <s_epik_input>
TiNDYyhjMVtDSDNdKWMoPU8pbihuYzFbQ0gzXSlbQ0gyXUMoPU8pW05IXVtDQEBIXTJbQ0gyXVtDSDJdW0NIMl1bQ0BASF0oW0NIM10pW0NASF0yW0NIM10=

> <s_epik_cmdline>
J2VwaWtfcHl0aG9uJywgJy1waCcsICc3LjAnLCAnLXRuJywgJzgnLCAnLW1hJywgJzIwMCcsICctbWV0YWxfYmluZGluZycsICctaW1hZScsICc8aW5maWxlLm1hZT4nLCAnLW9tYWUnLCAnPG91dGZpbGUubWFlPic=

> <r_lp_tautomer_probability>
1

> <r_epik_Ionization_Penalty>
1.90709e-08

> <r_epik_Ionization_Penalty_Charging>
2.37982e-11

> <r_epik_Ionization_Penalty_Neutral>
1.90471e-08

> <r_epik_State_Penalty>
-0

> <r_epik_Charging_Adjusted_Penalty>
2.37982e-11

> <i_epik_Tot_Q>
0

> <i_epik_Tot_abs_Q>
0

> <r_epik_Metal_State_Penalty>
-0

> <b_epik_Metal_Only>
0

> <s_lp_Force_Field>
OPLS_2005

> <r_lp_Energy>
26.9998

> <b_lp_Chiralities_Consistent>
1

> <s_lp_Variant>
AV-unprocessed.smi:1662-6

> <Gold.Version>
5.8.1

> <Gold.Id.Protein>
6NUR|6NUR_protein|mol2

> <Gold.PLP.Fitness>
46.9244

> <Gold.PLP.PLP>
-44.5947

> <Gold.PLP.part.hbond>
-1.0000

> <Gold.PLP.part.metal>
0.0000

> <Gold.PLP.part.buried>
-6.7289

> <Gold.PLP.part.nonpolar>
-36.5923

> <Gold.PLP.part.repulsive>
0.1119

> <Gold.PLP.ligand.clash>
0.0000

> <Gold.PLP.ligand.torsion>
0.3027

> <Gold.PLP.Chemscore.Hbond>
0.9750

> <Gold.PLP.Chemscore.CHOScore>
0.0000

> <Gold.PLP.Chemscore.Metal>
0.0000

> <Gold.Chemscore.Hbonds>
donor molecule, donor type, donor heavy atom, donor atom, acceptor molecule, acceptor atom, score
      P1  H  6896  6909       L1    18  0.96

> <Gold.PLP.Chemscore.Internal.Correction>
0.0102

> <Gold.Rescore>
     Score         DG    S(hbond)    S(metal)    S(lipo)     H(rot)  DE(clash)    DE(int)     intcor
     17.53     -19.42       0.96        0.00     123.56       1.45       0.18       1.71       ----

> <Gold.Chemscore.Fitness>
17.5327

> <Gold.Chemscore.DG>
-19.4183

> <Gold.Chemscore.ZeroCoef>
-5.4800

> <Gold.Chemscore.Hbond>
0.9565

> <Gold.Chemscore.Metal>
0.0000

> <Gold.Chemscore.Lipo>
123.5609

> <Gold.Chemscore.Internal_Hbond>
0.0000

> <Gold.Chemscore.DEClash>
0.1759

> <Gold.Chemscore.DEInternal>
1.7096

> <Gold.Chemscore.Rot>
1.4504

> <Gold.Chemscore.Internal.Correction>
   9.000000E+99

> <Gold.Chemscore.Hbonds>
donor molecule, donor type, donor heavy atom, donor atom, acceptor molecule, acceptor atom, score
      P1  H  6896  6909       L1    18  0.90

> <Gold.Chemscore.Hbond.Weighted>
-3.1946

> <Gold.Chemscore.Metal.Weighted>
-0.0000

> <Gold.Chemscore.Lipo.Weighted>
-14.4566

> <Gold.Chemscore.Internal_Hbond.Weighted>
0.0000

> <Gold.Chemscore.DEClash.Weighted>
0.1759

> <Gold.Chemscore.DEInternal.Weighted>
1.7096

> <Gold.Chemscore.Rot.Weighted>
3.7129

> <Gold.Chemscore.Internal.Correction.Weighted>
   9.000000E+99

> <Gold.Protein.RotatedTorsions>
[ 6907 6896 6895 6894 ] final  165.17 input  -60.11 | X-H torsion
[ 7974 7965 7964 7962 ] final -166.35 input  175.53 | X-H torsion
[ 8008 7997 7996 7995 ] final  -13.65 input   59.86 | X-H torsion
[ 10167 10162 10161 10158 ] final -136.45 input  -65.29 | X-H torsion
[ 10718 10713 10712 10709 ] final  -34.71 input   66.30 | X-H torsion
[ 10763 10752 10751 10750 ] final   77.31 input  -60.55 | X-H torsion
[ 11005 11000 10999 10996 ] final  -51.39 input  -57.11 | X-H torsion

> <Gold.Protein.ActiveResidues>
 VAL166  LYS551  ARG553  GLY616  TRP617  ASP618  TYR619  PRO620  LYS621  CYS622 
 ASP623  PHE694  ASN695  SER759  ASP760  ASP761  ALA762  ILE779  LEU786  VAL792 
 PHE793  MET794  SER795  GLU796  ALA797  LYS798  CYS799  TRP800  GLU811  SER814 

> <Gold.Protein.RotatedAtoms>
  151.8985  133.3532  159.3822 H   0  0  0  0  0  0  0  0  0  0  0  0  # atno 6907 bound_to 6896
  150.7086  134.4852  159.5498 H   0  0  0  0  0  0  0  0  0  0  0  0  # atno 6908 bound_to 6896
  152.2436  134.8204  160.0507 H   0  0  0  0  0  0  0  0  0  0  0  0  # atno 6909 bound_to 6896
  144.7247  140.2680  143.6255 H   0  0  0  0  0  0  0  0  0  0  0  0  # atno 7974 bound_to 7965
  154.5275  140.2244  155.8864 H   0  0  0  0  0  0  0  0  0  0  0  0  # atno 8008 bound_to 7997
  156.1728  140.3118  155.8969 H   0  0  0  0  0  0  0  0  0  0  0  0  # atno 8009 bound_to 7997
  155.3522  140.0456  157.3037 H   0  0  0  0  0  0  0  0  0  0  0  0  # atno 8010 bound_to 7997
  139.8677  143.6997  152.2643 H   0  0  0  0  0  0  0  0  0  0  0  0  # atno 10167 bound_to 10162
  156.3473  130.4303  149.7735 H   0  0  0  0  0  0  0  0  0  0  0  0  # atno 10718 bound_to 10713
  153.0789  135.4919  154.8462 H   0  0  0  0  0  0  0  0  0  0  0  0  # atno 10763 bound_to 10752
  154.7125  135.3023  154.9178 H   0  0  0  0  0  0  0  0  0  0  0  0  # atno 10764 bound_to 10752
  153.9867  135.6783  153.4805 H   0  0  0  0  0  0  0  0  0  0  0  0  # atno 10765 bound_to 10752
  141.0868  133.6641  156.3870 H   0  0  0  0  0  0  0  0  0  0  0  0  # atno 11005 bound_to 11000
  145.8071  139.1988  143.2014 LP  0  0  0  0  0  0  0  0  0  0  0  0  # atno 17320 bound_to 7965
  146.0627  140.7953  142.9727 LP  0  0  0  0  0  0  0  0  0  0  0  0  # atno 17321 bound_to 7965
  139.7314  144.7581  151.0796 LP  0  0  0  0  0  0  0  0  0  0  0  0  # atno 17342 bound_to 10162
  140.7765  143.5084  150.9683 LP  0  0  0  0  0  0  0  0  0  0  0  0  # atno 17343 bound_to 10162
  156.4949  130.8102  151.3109 LP  0  0  0  0  0  0  0  0  0  0  0  0  # atno 17370 bound_to 10713
  157.7456  130.9963  150.2776 LP  0  0  0  0  0  0  0  0  0  0  0  0  # atno 17371 bound_to 10713
  140.5344  134.6181  157.5360 LP  0  0  0  0  0  0  0  0  0  0  0  0  # atno 17394 bound_to 11000
  139.9688  134.7328  156.0084 LP  0  0  0  0  0  0  0  0  0  0  0  0  # atno 17395 bound_to 11000

$$$$
