AV-unprocessed.smi:2004|AV-procd|sdf|8123|dock7
  -GOLD-   2272010353D 1   1.00000     0.00000
 Structure written by MMmdl.
 40 42  0  0  0  0  0  0  0  0  2 V2000
  149.6944  139.2802  154.7956 O   0  0  0  0  0  0  0  0  0  0  0  0
  150.3874  140.3593  155.3859 C   0  0  2  0  0  0  0  0  0  0  0  0
  150.4821  140.1233  156.9061 C   0  0  0  0  0  0  0  0  0  0  0  0
  150.6768  141.3794  157.5320 O   0  0  0  0  0  0  0  0  0  0  0  0
  151.7674  141.4274  158.4313 C   0  0  0  0  0  0  0  0  0  0  0  0
  151.8655  142.8016  159.0626 C   0  0  0  0  0  0  0  0  0  0  0  0
  152.0571  142.9216  160.4550 C   0  0  0  0  0  0  0  0  0  0  0  0
  152.1744  144.1940  161.0467 C   0  0  0  0  0  0  0  0  0  0  0  0
  152.0985  145.3516  160.2484 C   0  0  0  0  0  0  0  0  0  0  0  0
  151.9019  145.2362  158.8585 C   0  0  0  0  0  0  0  0  0  0  0  0
  151.7831  143.9635  158.2664 C   0  0  0  0  0  0  0  0  0  0  0  0
  149.6895  141.6780  154.9685 C   0  0  0  0  0  0  0  0  0  0  0  0
  148.2539  141.5356  154.6850 N   0  0  0  0  0  0  0  0  0  0  0  0
  147.6261  141.1088  153.5552 C   0  0  0  0  0  0  0  0  0  0  0  0
  146.2873  141.1064  153.8036 N   0  3  0  0  0  0  0  0  0  0  0  0
  146.0546  141.5433  155.1091 C   0  0  0  0  0  0  0  0  0  0  0  0
  144.8690  141.6961  155.8206 C   0  0  0  0  0  0  0  0  0  0  0  0
  144.9835  142.1605  157.1473 C   0  0  0  0  0  0  0  0  0  0  0  0
  146.2392  142.4597  157.7153 C   0  0  0  0  0  0  0  0  0  0  0  0
  147.4348  142.3042  156.9832 C   0  0  0  0  0  0  0  0  0  0  0  0
  147.3131  141.8360  155.6761 C   0  0  0  0  0  0  0  0  0  0  0  0
  150.0992  138.4730  155.0739 H   0  0  0  0  0  0  0  0  0  0  0  0
  151.3972  140.3403  154.9754 H   0  0  0  0  0  0  0  0  0  0  0  0
  149.5799  139.6291  157.2700 H   0  0  0  0  0  0  0  0  0  0  0  0
  151.3309  139.4819  157.1484 H   0  0  0  0  0  0  0  0  0  0  0  0
  151.6419  140.6768  159.2134 H   0  0  0  0  0  0  0  0  0  0  0  0
  152.6953  141.2008  157.9042 H   0  0  0  0  0  0  0  0  0  0  0  0
  152.1218  142.0366  161.0710 H   0  0  0  0  0  0  0  0  0  0  0  0
  152.3234  144.2819  162.1128 H   0  0  0  0  0  0  0  0  0  0  0  0
  152.1889  146.3276  160.7020 H   0  0  0  0  0  0  0  0  0  0  0  0
  151.8424  146.1244  158.2469 H   0  0  0  0  0  0  0  0  0  0  0  0
  151.6376  143.8842  157.1991 H   0  0  0  0  0  0  0  0  0  0  0  0
  149.8195  142.4492  155.7288 H   0  0  0  0  0  0  0  0  0  0  0  0
  150.1454  142.0636  154.0552 H   0  0  0  0  0  0  0  0  0  0  0  0
  148.1048  140.8074  152.6348 H   0  0  0  0  0  0  0  0  0  0  0  0
  143.9063  141.4657  155.3884 H   0  0  0  0  0  0  0  0  0  0  0  0
  144.0900  142.2894  157.7408 H   0  0  0  0  0  0  0  0  0  0  0  0
  146.2868  142.8135  158.7349 H   0  0  0  0  0  0  0  0  0  0  0  0
  148.3922  142.5316  157.4275 H   0  0  0  0  0  0  0  0  0  0  0  0
  145.5862  140.8213  153.1320 H   0  0  0  0  0  0  0  0  0  0  0  0
  1  2  1  0  0  0  0
  1 22  1  0  0  0  0
  2  3  1  0  0  0  0
  2 12  1  0  0  0  0
  2 23  1  0  0  0  0
  3  4  1  0  0  0  0
  3 24  1  0  0  0  0
  3 25  1  0  0  0  0
  4  5  1  0  0  0  0
  5  6  1  0  0  0  0
  5 26  1  0  0  0  0
  5 27  1  0  0  0  0
  6 11  1  0  0  0  0
  6  7  2  0  0  0  0
  7  8  1  0  0  0  0
  7 28  1  0  0  0  0
  8  9  2  0  0  0  0
  8 29  1  0  0  0  0
  9 10  1  0  0  0  0
  9 30  1  0  0  0  0
 10 11  2  0  0  0  0
 10 31  1  0  0  0  0
 11 32  1  0  0  0  0
 12 13  1  0  0  0  0
 12 33  1  0  0  0  0
 12 34  1  0  0  0  0
 13 21  1  0  0  0  0
 13 14  1  0  0  0  0
 14 15  2  0  0  0  0
 14 35  1  0  0  0  0
 15 16  1  0  0  0  0
 15 40  1  0  0  0  0
 16 21  2  0  0  0  0
 16 17  1  0  0  0  0
 17 18  2  0  0  0  0
 17 36  1  0  0  0  0
 18 19  1  0  0  0  0
 18 37  1  0  0  0  0
 19 20  2  0  0  0  0
 19 38  1  0  0  0  0
 20 21  1  0  0  0  0
 20 39  1  0  0  0  0
M  CHG  1  15   1
M  END
> <s_m_source_file>
AV-unprocessed.smi

> <i_m_source_file_index>
2004

> <i_lp_mmshare_version>
43012

> <i_f3d_flags>
0

> <s_epik_input>
W2NIXTFbY0hdW2NIXVtjSF1jKGMxMiluKFtjSF1uMilbQ0gyXVtDQEhdKFtPSF0pW0NIMl1PW0NIMl1jM1tjSF1bY0hdW2NIXVtjSF1bY0hdMw==

> <s_epik_cmdline>
J2VwaWtfcHl0aG9uJywgJy1waCcsICc3LjAnLCAnLXRuJywgJzgnLCAnLW1hJywgJzIwMCcsICctbWV0YWxfYmluZGluZycsICctaW1hZScsICc8aW5maWxlLm1hZT4nLCAnLW9tYWUnLCAnPG91dGZpbGUubWFlPic=

> <r_epik_Ionization_Penalty>
1.28975

> <r_epik_Ionization_Penalty_Charging>
1.28975

> <r_epik_Ionization_Penalty_Neutral>
1.07667e-06

> <r_epik_State_Penalty>
1.36276

> <r_epik_Charging_Adjusted_Penalty>
2.65251

> <i_epik_Tot_Q>
1

> <i_epik_Tot_abs_Q>
1

> <r_epik_Metal_State_Penalty>
5.39298

> <b_epik_Metal_Only>
0

> <s_lp_Force_Field>
OPLS_2005

> <r_lp_Energy>
17.8954

> <b_lp_Chiralities_Consistent>
1

> <s_lp_Variant>
AV-unprocessed.smi:2004-3

> <Gold.Version>
5.8.1

> <Gold.Id.Protein>
6NUR|6NUR_protein|mol2

> <Gold.PLP.Fitness>
48.7311

> <Gold.PLP.PLP>
-42.6367

> <Gold.PLP.part.hbond>
-1.0000

> <Gold.PLP.part.metal>
0.0000

> <Gold.PLP.part.buried>
-4.4794

> <Gold.PLP.part.nonpolar>
-37.2775

> <Gold.PLP.part.repulsive>
0.0481

> <Gold.PLP.ligand.clash>
0.0000

> <Gold.PLP.ligand.torsion>
1.5242

> <Gold.PLP.Chemscore.Hbond>
2.0000

> <Gold.PLP.Chemscore.CHOScore>
1.0000

> <Gold.PLP.Chemscore.Metal>
0.0000

> <Gold.Chemscore.Hbonds>
donor molecule, donor type, donor heavy atom, donor atom, acceptor molecule, acceptor atom, score
      L1  H    15    40       P1 10175  1.98
      L1  C    14    35       P1  7957  1.00

> <Gold.PLP.Chemscore.Internal.Correction>
0.1429

> <Gold.Rescore>
     Score         DG    S(hbond)    S(metal)    S(lipo)     H(rot)  DE(clash)    DE(int)     intcor
     13.26     -15.27       0.99        0.00     108.64       2.43       0.04       1.98       ----

> <Gold.Chemscore.Fitness>
13.2583

> <Gold.Chemscore.DG>
-15.2689

> <Gold.Chemscore.ZeroCoef>
-5.4800

> <Gold.Chemscore.Hbond>
0.9853

> <Gold.Chemscore.Metal>
0.0000

> <Gold.Chemscore.Lipo>
108.6395

> <Gold.Chemscore.Internal_Hbond>
0.0000

> <Gold.Chemscore.DEClash>
0.0356

> <Gold.Chemscore.DEInternal>
1.9750

> <Gold.Chemscore.Rot>
2.4269

> <Gold.Chemscore.Internal.Correction>
   9.000000E+99

> <Gold.Chemscore.Hbonds>
donor molecule, donor type, donor heavy atom, donor atom, acceptor molecule, acceptor atom, score
      L1  H    15    40       P1 10175  0.55

> <Gold.Chemscore.Hbond.Weighted>
-3.2909

> <Gold.Chemscore.Metal.Weighted>
-0.0000

> <Gold.Chemscore.Lipo.Weighted>
-12.7108

> <Gold.Chemscore.Internal_Hbond.Weighted>
0.0000

> <Gold.Chemscore.DEClash.Weighted>
0.0356

> <Gold.Chemscore.DEInternal.Weighted>
1.9750

> <Gold.Chemscore.Rot.Weighted>
6.2127

> <Gold.Chemscore.Internal.Correction.Weighted>
   9.000000E+99

> <Gold.Protein.RotatedTorsions>
[ 6907 6896 6895 6894 ] final    9.54 input  -60.11 | X-H torsion
[ 7974 7965 7964 7962 ] final -108.52 input  175.53 | X-H torsion
[ 8008 7997 7996 7995 ] final  -47.03 input   59.86 | X-H torsion
[ 10167 10162 10161 10158 ] final   51.54 input  -65.29 | X-H torsion
[ 10718 10713 10712 10709 ] final  -12.28 input   66.30 | X-H torsion
[ 10763 10752 10751 10750 ] final -171.05 input  -60.55 | X-H torsion
[ 11005 11000 10999 10996 ] final  -15.87 input  -57.11 | X-H torsion

> <Gold.Protein.ActiveResidues>
 VAL166  LYS551  ARG553  GLY616  TRP617  ASP618  TYR619  PRO620  LYS621  CYS622 
 ASP623  PHE694  ASN695  SER759  ASP760  ASP761  ALA762  ILE779  LEU786  VAL792 
 PHE793  MET794  SER795  GLU796  ALA797  LYS798  CYS799  TRP800  GLU811  SER814 

> <Gold.Protein.RotatedAtoms>
  151.7238  135.0889  160.0288 H   0  0  0  0  0  0  0  0  0  0  0  0  # atno 6907 bound_to 6896
  152.3585  133.6263  159.6005 H   0  0  0  0  0  0  0  0  0  0  0  0  # atno 6908 bound_to 6896
  150.7588  133.9378  159.3488 H   0  0  0  0  0  0  0  0  0  0  0  0  # atno 6909 bound_to 6896
  145.1919  140.9018  143.3420 H   0  0  0  0  0  0  0  0  0  0  0  0  # atno 7974 bound_to 7965
  154.4012  140.1356  156.4109 H   0  0  0  0  0  0  0  0  0  0  0  0  # atno 8008 bound_to 7997
  155.7735  140.3483  155.5239 H   0  0  0  0  0  0  0  0  0  0  0  0  # atno 8009 bound_to 7997
  155.8744  140.0977  157.1519 H   0  0  0  0  0  0  0  0  0  0  0  0  # atno 8010 bound_to 7997
  140.2608  144.3375  150.6318 H   0  0  0  0  0  0  0  0  0  0  0  0  # atno 10167 bound_to 10162
  156.6469  130.4944  149.6075 H   0  0  0  0  0  0  0  0  0  0  0  0  # atno 10718 bound_to 10713
  154.6348  135.2891  155.0174 H   0  0  0  0  0  0  0  0  0  0  0  0  # atno 10763 bound_to 10752
  154.1322  135.6531  153.4928 H   0  0  0  0  0  0  0  0  0  0  0  0  # atno 10764 bound_to 10752
  153.0297  135.5313  154.7190 H   0  0  0  0  0  0  0  0  0  0  0  0  # atno 10765 bound_to 10752
  140.8010  133.8214  155.9470 H   0  0  0  0  0  0  0  0  0  0  0  0  # atno 11005 bound_to 11000
  145.0033  139.3578  143.6156 LP  0  0  0  0  0  0  0  0  0  0  0  0  # atno 17320 bound_to 7965
  146.3434  139.9265  142.8759 LP  0  0  0  0  0  0  0  0  0  0  0  0  # atno 17321 bound_to 7965
  140.5967  143.2167  151.7150 LP  0  0  0  0  0  0  0  0  0  0  0  0  # atno 17342 bound_to 10162
  139.5017  144.3856  152.0332 LP  0  0  0  0  0  0  0  0  0  0  0  0  # atno 17343 bound_to 10162
  156.2115  130.6682  151.1274 LP  0  0  0  0  0  0  0  0  0  0  0  0  # atno 17370 bound_to 10713
  157.7153  131.0713  150.6349 LP  0  0  0  0  0  0  0  0  0  0  0  0  # atno 17371 bound_to 10713
  140.9294  134.2041  157.4874 LP  0  0  0  0  0  0  0  0  0  0  0  0  # atno 17394 bound_to 11000
  139.8722  134.9826  156.5165 LP  0  0  0  0  0  0  0  0  0  0  0  0  # atno 17395 bound_to 11000

$$$$
