AV-unprocessed.smi:1507|AV-procd|sdf|6080|dock4
  -GOLD-   22720 6203D 1   1.00000     0.00000
 Structure written by MMmdl.
 34 35  0  0  0  0  0  0  0  0  1 V2000
  148.8521  135.6050  154.4524 N   0  0  0  0  0  0  0  0  0  0  0  0
  150.0982  136.3892  155.3398 S   0  0  0  0  0  0  0  0  0  0  0  0
  149.4837  137.1888  156.4100 O   0  0  0  0  0  0  0  0  0  0  0  0
  151.1566  135.4111  155.6326 O   0  0  0  0  0  0  0  0  0  0  0  0
  150.6683  137.4595  154.1170 N   0  0  0  0  0  0  0  0  0  0  0  0
  150.1703  138.8317  154.0647 C   0  0  0  0  0  0  0  0  0  0  0  0
  150.6871  139.6794  155.2097 C   0  0  0  0  0  0  0  0  0  0  0  0
  149.9818  140.8166  155.6482 C   0  0  0  0  0  0  0  0  0  0  0  0
  150.5038  141.5717  156.7160 C   0  0  0  0  0  0  0  0  0  0  0  0
  151.7207  141.1697  157.3178 C   0  0  0  0  0  0  0  0  0  0  0  0
  152.2649  141.9149  158.3866 N   0  0  0  0  0  0  0  0  0  0  0  0
  152.6426  141.1422  159.5676 C   0  0  0  0  0  0  0  0  0  0  0  0
  153.4877  142.0013  160.5245 C   0  0  0  0  0  0  0  0  0  0  0  0
  152.7861  143.1970  160.8469 O   0  0  0  0  0  0  0  0  0  0  0  0
  152.5314  143.9882  159.6913 C   0  0  0  0  0  0  0  0  0  0  0  0
  151.6479  143.2005  158.7095 C   0  0  0  0  0  0  0  0  0  0  0  0
  152.3898  140.0676  156.8958 N   0  0  0  0  0  0  0  0  0  0  0  0
  151.8867  139.3486  155.8705 C   0  0  0  0  0  0  0  0  0  0  0  0
  149.0282  135.6416  153.4489 H   0  0  0  0  0  0  0  0  0  0  0  0
  147.9359  135.9892  154.6828 H   0  0  0  0  0  0  0  0  0  0  0  0
  150.8340  137.0236  153.2103 H   0  0  0  0  0  0  0  0  0  0  0  0
  150.4839  139.2900  153.1259 H   0  0  0  0  0  0  0  0  0  0  0  0
  149.0800  138.8156  154.0596 H   0  0  0  0  0  0  0  0  0  0  0  0
  149.0537  141.1073  155.1784 H   0  0  0  0  0  0  0  0  0  0  0  0
  149.9609  142.4363  157.0672 H   0  0  0  0  0  0  0  0  0  0  0  0
  151.7355  140.8059  160.0714 H   0  0  0  0  0  0  0  0  0  0  0  0
  153.2070  140.2493  159.3033 H   0  0  0  0  0  0  0  0  0  0  0  0
  153.6899  141.4502  161.4432 H   0  0  0  0  0  0  0  0  0  0  0  0
  154.4543  142.2428  160.0794 H   0  0  0  0  0  0  0  0  0  0  0  0
  152.0290  144.9071  159.9934 H   0  0  0  0  0  0  0  0  0  0  0  0
  153.4721  144.2798  159.2214 H   0  0  0  0  0  0  0  0  0  0  0  0
  151.5037  143.7891  157.8025 H   0  0  0  0  0  0  0  0  0  0  0  0
  150.6639  143.0294  159.1485 H   0  0  0  0  0  0  0  0  0  0  0  0
  152.4581  138.4822  155.5709 H   0  0  0  0  0  0  0  0  0  0  0  0
  1  2  1  0  0  0  0
  1 19  1  0  0  0  0
  1 20  1  0  0  0  0
  2  3  2  0  0  0  0
  2  4  2  0  0  0  0
  2  5  1  0  0  0  0
  5  6  1  0  0  0  0
  5 21  1  0  0  0  0
  6  7  1  0  0  0  0
  6 22  1  0  0  0  0
  6 23  1  0  0  0  0
  7 18  1  0  0  0  0
  7  8  2  0  0  0  0
  8  9  1  0  0  0  0
  8 24  1  0  0  0  0
  9 10  2  0  0  0  0
  9 25  1  0  0  0  0
 10 11  1  0  0  0  0
 10 17  1  0  0  0  0
 11 16  1  0  0  0  0
 11 12  1  0  0  0  0
 12 13  1  0  0  0  0
 12 26  1  0  0  0  0
 12 27  1  0  0  0  0
 13 14  1  0  0  0  0
 13 28  1  0  0  0  0
 13 29  1  0  0  0  0
 14 15  1  0  0  0  0
 15 16  1  0  0  0  0
 15 30  1  0  0  0  0
 15 31  1  0  0  0  0
 16 32  1  0  0  0  0
 16 33  1  0  0  0  0
 17 18  2  0  0  0  0
 18 34  1  0  0  0  0
M  END
> <s_m_source_file>
AV-unprocessed.smi

> <i_m_source_file_index>
1507

> <i_lp_mmshare_version>
43012

> <i_f3d_flags>
0

> <s_epik_input>
W05IMl1TKD1PKSg9TylbTkhdW0NIMl1jMVtjSF1bY0hdYyhuW2NIXTEpTjJbQ0gyXVtDSDJdT1tDSDJdW0NIMl0y

> <s_epik_cmdline>
J2VwaWtfcHl0aG9uJywgJy1waCcsICc3LjAnLCAnLXRuJywgJzgnLCAnLW1hJywgJzIwMCcsICctbWV0YWxfYmluZGluZycsICctaW1hZScsICc8aW5maWxlLm1hZT4nLCAnLW9tYWUnLCAnPG91dGZpbGUubWFlPic=

> <r_lp_tautomer_probability>
1

> <r_epik_Ionization_Penalty>
0.193648

> <r_epik_Ionization_Penalty_Charging>
0

> <r_epik_Ionization_Penalty_Neutral>
0.193648

> <r_epik_State_Penalty>
0.187016

> <r_epik_Charging_Adjusted_Penalty>
0.187016

> <i_epik_Tot_Q>
0

> <i_epik_Tot_abs_Q>
0

> <r_epik_Metal_State_Penalty>
0.77957

> <b_epik_Metal_Only>
0

> <s_lp_Force_Field>
OPLS_2005

> <r_lp_Energy>
21.8842

> <b_lp_Chiralities_Consistent>
1

> <s_lp_Variant>
AV-unprocessed.smi:1507-1

> <Gold.Version>
5.8.1

> <Gold.Id.Protein>
6NUR|6NUR_protein|mol2

> <Gold.PLP.Fitness>
45.4334

> <Gold.PLP.PLP>
-35.0599

> <Gold.PLP.part.hbond>
-4.5630

> <Gold.PLP.part.metal>
0.0000

> <Gold.PLP.part.buried>
-4.2330

> <Gold.PLP.part.nonpolar>
-26.3423

> <Gold.PLP.part.repulsive>
0.1201

> <Gold.PLP.ligand.clash>
0.0000

> <Gold.PLP.ligand.torsion>
1.0143

> <Gold.PLP.Chemscore.Hbond>
3.9920

> <Gold.PLP.Chemscore.CHOScore>
0.0000

> <Gold.PLP.Chemscore.Metal>
0.0000

> <Gold.Chemscore.Hbonds>
donor molecule, donor type, donor heavy atom, donor atom, acceptor molecule, acceptor atom, score
      L1  H     1    19       P1  7948  1.00
      L1  H     5    21       P1  7949  0.79
      P1  H  7997  8008       L1    17  1.00
      P1  H 10752 10763       L1     4  1.00

> <Gold.PLP.Chemscore.Internal.Correction>
0.4261

> <Gold.Rescore>
     Score         DG    S(hbond)    S(metal)    S(lipo)     H(rot)  DE(clash)    DE(int)     intcor
     15.45     -17.71       2.84        0.00      77.57       2.47       0.07       2.19       ----

> <Gold.Chemscore.Fitness>
15.4494

> <Gold.Chemscore.DG>
-17.7095

> <Gold.Chemscore.ZeroCoef>
-5.4800

> <Gold.Chemscore.Hbond>
2.8353

> <Gold.Chemscore.Metal>
0.0000

> <Gold.Chemscore.Lipo>
77.5663

> <Gold.Chemscore.Internal_Hbond>
0.0000

> <Gold.Chemscore.DEClash>
0.0693

> <Gold.Chemscore.DEInternal>
2.1909

> <Gold.Chemscore.Rot>
2.4671

> <Gold.Chemscore.Internal.Correction>
   9.000000E+99

> <Gold.Chemscore.Hbonds>
donor molecule, donor type, donor heavy atom, donor atom, acceptor molecule, acceptor atom, score
      L1  H     1    19       P1  7948  0.78
      L1  H     5    21       P1  7949  0.11
      P1  H  7997  8008       L1    17  0.38
      P1  H 10752 10763       L1     4  0.91

> <Gold.Chemscore.Hbond.Weighted>
-9.4700

> <Gold.Chemscore.Metal.Weighted>
-0.0000

> <Gold.Chemscore.Lipo.Weighted>
-9.0753

> <Gold.Chemscore.Internal_Hbond.Weighted>
0.0000

> <Gold.Chemscore.DEClash.Weighted>
0.0693

> <Gold.Chemscore.DEInternal.Weighted>
2.1909

> <Gold.Chemscore.Rot.Weighted>
6.3157

> <Gold.Chemscore.Internal.Correction.Weighted>
   9.000000E+99

> <Gold.Protein.RotatedTorsions>
[ 6907 6896 6895 6894 ] final  167.65 input  -60.11 | X-H torsion
[ 7974 7965 7964 7962 ] final -157.86 input  175.53 | X-H torsion
[ 8008 7997 7996 7995 ] final  -51.66 input   59.86 | X-H torsion
[ 10167 10162 10161 10158 ] final   37.23 input  -65.29 | X-H torsion
[ 10718 10713 10712 10709 ] final   53.16 input   66.30 | X-H torsion
[ 10763 10752 10751 10750 ] final   67.41 input  -60.55 | X-H torsion
[ 11005 11000 10999 10996 ] final   25.50 input  -57.11 | X-H torsion

> <Gold.Protein.ActiveResidues>
 VAL166  LYS551  ARG553  GLY616  TRP617  ASP618  TYR619  PRO620  LYS621  CYS622 
 ASP623  PHE694  ASN695  SER759  ASP760  ASP761  ALA762  ILE779  LEU786  VAL792 
 PHE793  MET794  SER795  GLU796  ALA797  LYS798  CYS799  TRP800  GLU811  SER814 

> <Gold.Protein.RotatedAtoms>
  151.8600  133.3455  159.3700 H   0  0  0  0  0  0  0  0  0  0  0  0  # atno 6907 bound_to 6896
  150.7182  134.5215  159.5665 H   0  0  0  0  0  0  0  0  0  0  0  0  # atno 6908 bound_to 6896
  152.2727  134.7916  160.0462 H   0  0  0  0  0  0  0  0  0  0  0  0  # atno 6909 bound_to 6896
  144.7530  140.3910  143.6033 H   0  0  0  0  0  0  0  0  0  0  0  0  # atno 7974 bound_to 7965
  154.4088  140.1242  156.4865 H   0  0  0  0  0  0  0  0  0  0  0  0  # atno 8008 bound_to 7997
  155.7033  140.3494  155.4923 H   0  0  0  0  0  0  0  0  0  0  0  0  # atno 8009 bound_to 7997
  155.9365  140.1079  157.1080 H   0  0  0  0  0  0  0  0  0  0  0  0  # atno 8010 bound_to 7997
  140.4052  144.1668  150.6136 H   0  0  0  0  0  0  0  0  0  0  0  0  # atno 10167 bound_to 10162
  157.5142  130.8521  149.8474 H   0  0  0  0  0  0  0  0  0  0  0  0  # atno 10718 bound_to 10713
  153.0185  135.5285  154.6975 H   0  0  0  0  0  0  0  0  0  0  0  0  # atno 10763 bound_to 10752
  154.6093  135.2876  155.0452 H   0  0  0  0  0  0  0  0  0  0  0  0  # atno 10764 bound_to 10752
  154.1479  135.6567  153.5009 H   0  0  0  0  0  0  0  0  0  0  0  0  # atno 10765 bound_to 10752
  140.3471  134.2269  155.7683 H   0  0  0  0  0  0  0  0  0  0  0  0  # atno 11005 bound_to 11000
  145.6877  139.1632  143.2665 LP  0  0  0  0  0  0  0  0  0  0  0  0  # atno 17320 bound_to 7965
  146.1505  140.6932  142.9324 LP  0  0  0  0  0  0  0  0  0  0  0  0  # atno 17321 bound_to 7965
  140.4697  143.2417  151.9106 LP  0  0  0  0  0  0  0  0  0  0  0  0  # atno 17342 bound_to 10162
  139.4783  144.5383  151.8566 LP  0  0  0  0  0  0  0  0  0  0  0  0  # atno 17343 bound_to 10162
  156.0309  130.3765  150.1691 LP  0  0  0  0  0  0  0  0  0  0  0  0  # atno 17370 bound_to 10713
  156.9880  130.9884  151.3421 LP  0  0  0  0  0  0  0  0  0  0  0  0  # atno 17371 bound_to 10713
  141.2022  133.7942  157.0400 LP  0  0  0  0  0  0  0  0  0  0  0  0  # atno 17394 bound_to 11000
  140.0733  134.9690  157.1504 LP  0  0  0  0  0  0  0  0  0  0  0  0  # atno 17395 bound_to 11000

$$$$
