AV-unprocessed.smi:1510|AV-procd|sdf|6096|dock3
  -GOLD-   22720 6223D 1   1.00000     0.00000
 Structure written by MMmdl.
 33 34  0  0  0  0  0  0  0  0  1 V2000
  152.2410  136.4144  155.8250 O   0  0  0  0  0  0  0  0  0  0  0  0
  151.5836  137.2973  155.2724 C   0  0  0  0  0  0  0  0  0  0  0  0
  152.2378  138.6319  154.8905 C   0  0  0  0  0  0  0  0  0  0  0  0
  151.6442  139.7769  155.5949 N   0  0  0  0  0  0  0  0  0  0  0  0
  150.7146  140.4846  154.8479 N   0  0  0  0  0  0  0  0  0  0  0  0
  150.1154  141.5040  155.3639 C   0  0  0  0  0  0  0  0  0  0  0  0
  149.1980  142.1731  154.5917 O   0  0  0  0  0  0  0  0  0  0  0  0
  150.3980  141.9339  156.7157 C   0  0  0  0  0  0  0  0  0  0  0  0
  151.3078  141.2401  157.4343 C   0  0  0  0  0  0  0  0  0  0  0  0
  152.0035  140.0769  156.8812 C   0  0  0  0  0  0  0  0  0  0  0  0
  152.8353  139.4252  157.5128 O   0  0  0  0  0  0  0  0  0  0  0  0
  150.2800  137.1724  154.9826 N   0  0  0  0  0  0  0  0  0  0  0  0
  149.4760  135.9801  155.2264 C   0  0  0  0  0  0  0  0  0  0  0  0
  150.2312  134.6871  154.8687 C   0  0  2  0  0  0  0  0  0  0  0  0
  149.3733  133.5950  154.2330 C   0  0  0  0  0  0  0  0  0  0  0  0
  150.1569  132.3278  154.5304 C   0  0  0  0  0  0  0  0  0  0  0  0
  151.0733  132.7195  155.6950 C   0  0  0  0  0  0  0  0  0  0  0  0
  150.7096  134.0499  156.0414 O   0  0  0  0  0  0  0  0  0  0  0  0
  149.1775  143.0536  154.9338 H   0  0  0  0  0  0  0  0  0  0  0  0
  153.3114  138.5933  155.0855 H   0  0  0  0  0  0  0  0  0  0  0  0
  152.1408  138.7577  153.8107 H   0  0  0  0  0  0  0  0  0  0  0  0
  149.8885  142.7907  157.1315 H   0  0  0  0  0  0  0  0  0  0  0  0
  151.5287  141.5499  158.4451 H   0  0  0  0  0  0  0  0  0  0  0  0
  149.8167  137.9503  154.5358 H   0  0  0  0  0  0  0  0  0  0  0  0
  149.1533  135.9543  156.2684 H   0  0  0  0  0  0  0  0  0  0  0  0
  148.5704  136.0583  154.6243 H   0  0  0  0  0  0  0  0  0  0  0  0
  151.0838  134.9089  154.2241 H   0  0  0  0  0  0  0  0  0  0  0  0
  148.3997  133.5479  154.7225 H   0  0  0  0  0  0  0  0  0  0  0  0
  149.2088  133.7530  153.1666 H   0  0  0  0  0  0  0  0  0  0  0  0
  149.4940  131.5013  154.7878 H   0  0  0  0  0  0  0  0  0  0  0  0
  150.7511  132.0252  153.6676 H   0  0  0  0  0  0  0  0  0  0  0  0
  150.9634  132.0558  156.5529 H   0  0  0  0  0  0  0  0  0  0  0  0
  152.1184  132.7011  155.3836 H   0  0  0  0  0  0  0  0  0  0  0  0
  1  2  2  0  0  0  0
  2  3  1  0  0  0  0
  2 12  1  0  0  0  0
  3 20  1  0  0  0  0
  3 21  1  0  0  0  0
  3  4  1  0  0  0  0
  4  5  1  0  0  0  0
  4 10  1  0  0  0  0
  5  6  2  0  0  0  0
  6  7  1  0  0  0  0
  6  8  1  0  0  0  0
  7 19  1  0  0  0  0
  8 22  1  0  0  0  0
  8  9  2  0  0  0  0
  9 23  1  0  0  0  0
  9 10  1  0  0  0  0
 10 11  2  0  0  0  0
 12 13  1  0  0  0  0
 12 24  1  0  0  0  0
 13 14  1  0  0  0  0
 13 25  1  0  0  0  0
 13 26  1  0  0  0  0
 14 18  1  0  0  0  0
 14 15  1  0  0  0  0
 14 27  1  0  0  0  0
 15 16  1  0  0  0  0
 15 28  1  0  0  0  0
 15 29  1  0  0  0  0
 16 17  1  0  0  0  0
 16 30  1  0  0  0  0
 16 31  1  0  0  0  0
 17 18  1  0  0  0  0
 17 32  1  0  0  0  0
 17 33  1  0  0  0  0
M  END
> <s_m_source_file>
AV-unprocessed.smi

> <i_m_source_file_index>
1510

> <i_lp_mmshare_version>
43012

> <i_f3d_flags>
0

> <s_epik_input>
TzFbQ0gyXVtDSDJdW0NIMl1bQ0BIXTFbQ0gyXVtOSF1DKD1PKVtDSDJdbjJbbkhdYyg9TylbY0hdW2NIXWMyPU8=

> <s_epik_cmdline>
J2VwaWtfcHl0aG9uJywgJy1waCcsICc3LjAnLCAnLXRuJywgJzgnLCAnLW1hJywgJzIwMCcsICctbWV0YWxfYmluZGluZycsICctaW1hZScsICc8aW5maWxlLm1hZT4nLCAnLW9tYWUnLCAnPG91dGZpbGUubWFlPic=

> <r_lp_tautomer_probability>
0.9996

> <r_epik_Ionization_Penalty>
2.13037

> <r_epik_Ionization_Penalty_Charging>
3.76e-08

> <r_epik_Ionization_Penalty_Neutral>
2.13037

> <r_epik_State_Penalty>
1.70753

> <r_epik_Charging_Adjusted_Penalty>
1.70753

> <i_epik_Tot_Q>
0

> <i_epik_Tot_abs_Q>
0

> <r_epik_Metal_State_Penalty>
1.70753

> <b_epik_Metal_Only>
0

> <s_lp_Force_Field>
OPLS_2005

> <r_lp_Energy>
28.2415

> <b_lp_Chiralities_Consistent>
1

> <s_lp_Variant>
AV-unprocessed.smi:1510-3

> <Gold.Version>
5.8.1

> <Gold.Id.Protein>
6NUR|6NUR_protein|mol2

> <Gold.PLP.Fitness>
43.4763

> <Gold.PLP.PLP>
-33.1110

> <Gold.PLP.part.hbond>
-5.0000

> <Gold.PLP.part.metal>
0.0000

> <Gold.PLP.part.buried>
-2.8010

> <Gold.PLP.part.nonpolar>
-23.9606

> <Gold.PLP.part.repulsive>
0.1465

> <Gold.PLP.ligand.clash>
0.0000

> <Gold.PLP.ligand.torsion>
0.9836

> <Gold.PLP.Chemscore.Hbond>
4.1076

> <Gold.PLP.Chemscore.CHOScore>
0.0000

> <Gold.PLP.Chemscore.Metal>
0.0000

> <Gold.Chemscore.Hbonds>
donor molecule, donor type, donor heavy atom, donor atom, acceptor molecule, acceptor atom, score
      L1  H     7    19       P1  8028  1.00
      P1  H  7989  7998       L1     5  1.00
      P1  H  7997  8008       L1    11  1.00
      P1  H  8011  8017       L1     7  0.06
      P1  H 10752 10765       L1     1  0.93

> <Gold.PLP.Chemscore.Internal.Correction>
0.0095

> <Gold.Rescore>
     Score         DG    S(hbond)    S(metal)    S(lipo)     H(rot)  DE(clash)    DE(int)     intcor
     10.31     -14.15       2.99        0.00      47.69       2.69       0.07       3.77       ----

> <Gold.Chemscore.Fitness>
10.3129

> <Gold.Chemscore.DG>
-14.1456

> <Gold.Chemscore.ZeroCoef>
-5.4800

> <Gold.Chemscore.Hbond>
2.9884

> <Gold.Chemscore.Metal>
0.0000

> <Gold.Chemscore.Lipo>
47.6937

> <Gold.Chemscore.Internal_Hbond>
0.0000

> <Gold.Chemscore.DEClash>
0.0655

> <Gold.Chemscore.DEInternal>
3.7672

> <Gold.Chemscore.Rot>
2.6937

> <Gold.Chemscore.Internal.Correction>
   9.000000E+99

> <Gold.Chemscore.Hbonds>
donor molecule, donor type, donor heavy atom, donor atom, acceptor molecule, acceptor atom, score
      L1  H     7    19       P1  8028  1.00
      P1  H  7989  7998       L1     5  0.25
      P1  H  7997  8008       L1    11  0.60
      P1  H  8011  8017       L1     7  0.03
      P1  H 10752 10765       L1     1  0.85

> <Gold.Chemscore.Hbond.Weighted>
-9.9814

> <Gold.Chemscore.Metal.Weighted>
-0.0000

> <Gold.Chemscore.Lipo.Weighted>
-5.5802

> <Gold.Chemscore.Internal_Hbond.Weighted>
0.0000

> <Gold.Chemscore.DEClash.Weighted>
0.0655

> <Gold.Chemscore.DEInternal.Weighted>
3.7672

> <Gold.Chemscore.Rot.Weighted>
6.8959

> <Gold.Chemscore.Internal.Correction.Weighted>
   9.000000E+99

> <Gold.Protein.RotatedTorsions>
[ 6907 6896 6895 6894 ] final   20.27 input  -60.11 | X-H torsion
[ 7974 7965 7964 7962 ] final   96.23 input  175.53 | X-H torsion
[ 8008 7997 7996 7995 ] final  -81.89 input   59.86 | X-H torsion
[ 10167 10162 10161 10158 ] final  -91.55 input  -65.29 | X-H torsion
[ 10718 10713 10712 10709 ] final -106.44 input   66.30 | X-H torsion
[ 10763 10752 10751 10750 ] final -155.00 input  -60.55 | X-H torsion
[ 11005 11000 10999 10996 ] final   71.33 input  -57.11 | X-H torsion

> <Gold.Protein.ActiveResidues>
 VAL166  LYS551  ARG553  GLY616  TRP617  ASP618  TYR619  PRO620  LYS621  CYS622 
 ASP623  PHE694  ASN695  SER759  ASP760  ASP761  ALA762  ILE779  LEU786  VAL792 
 PHE793  MET794  SER795  GLU796  ALA797  LYS798  CYS799  TRP800  GLU811  SER814 

> <Gold.Protein.RotatedAtoms>
  151.8937  135.0406  160.0499 H   0  0  0  0  0  0  0  0  0  0  0  0  # atno 6907 bound_to 6896
  152.2415  133.5135  159.5281 H   0  0  0  0  0  0  0  0  0  0  0  0  # atno 6908 bound_to 6896
  150.7055  134.0999  159.4004 H   0  0  0  0  0  0  0  0  0  0  0  0  # atno 6909 bound_to 6896
  145.4416  139.2301  143.3089 H   0  0  0  0  0  0  0  0  0  0  0  0  # atno 7974 bound_to 7965
  154.6030  140.0641  156.9394 H   0  0  0  0  0  0  0  0  0  0  0  0  # atno 8008 bound_to 7997
  155.2100  140.3322  155.4312 H   0  0  0  0  0  0  0  0  0  0  0  0  # atno 8009 bound_to 7997
  156.2330  140.1850  156.7177 H   0  0  0  0  0  0  0  0  0  0  0  0  # atno 8010 bound_to 7997
  140.3437  143.2928  151.9806 H   0  0  0  0  0  0  0  0  0  0  0  0  # atno 10167 bound_to 10162
  156.0390  130.5613  150.7681 H   0  0  0  0  0  0  0  0  0  0  0  0  # atno 10718 bound_to 10713
  154.7819  135.3177  154.7972 H   0  0  0  0  0  0  0  0  0  0  0  0  # atno 10763 bound_to 10752
  153.8681  135.6847  153.4781 H   0  0  0  0  0  0  0  0  0  0  0  0  # atno 10764 bound_to 10752
  153.1458  135.4720  154.9501 H   0  0  0  0  0  0  0  0  0  0  0  0  # atno 10765 bound_to 10752
  139.9549  134.7162  156.0776 H   0  0  0  0  0  0  0  0  0  0  0  0  # atno 11005 bound_to 11000
  146.2553  140.5164  142.8876 LP  0  0  0  0  0  0  0  0  0  0  0  0  # atno 17320 bound_to 7965
  144.8118  140.6399  143.6410 LP  0  0  0  0  0  0  0  0  0  0  0  0  # atno 17321 bound_to 7965
  139.4836  144.6135  151.7390 LP  0  0  0  0  0  0  0  0  0  0  0  0  # atno 17342 bound_to 10162
  140.5284  144.0768  150.6045 LP  0  0  0  0  0  0  0  0  0  0  0  0  # atno 17343 bound_to 10162
  157.5182  131.0930  151.0112 LP  0  0  0  0  0  0  0  0  0  0  0  0  # atno 17370 bound_to 10713
  157.0450  130.5764  149.5361 LP  0  0  0  0  0  0  0  0  0  0  0  0  # atno 17371 bound_to 10713
  141.1219  133.6610  156.3236 LP  0  0  0  0  0  0  0  0  0  0  0  0  # atno 17394 bound_to 11000
  140.5633  134.5913  157.5439 LP  0  0  0  0  0  0  0  0  0  0  0  0  # atno 17395 bound_to 11000

$$$$
