AV-unprocessed.smi:2226|AV-procd|sdf|9013|dock6
  -GOLD-   2272012213D 1   1.00000     0.00000
 Structure written by MMmdl.
 40 42  0  0  0  0  0  0  0  0  2 V2000
  146.8162  138.7194  152.1953 C   0  0  0  0  0  0  0  0  0  0  0  0
  147.4725  138.0689  153.3545 N   0  3  2  0  0  0  0  0  0  0  0  0
  146.5534  137.3451  154.2647 C   0  0  2  0  0  0  0  0  0  0  0  0
  145.6576  138.3259  155.0627 C   0  0  0  0  0  0  0  0  0  0  0  0
  146.4305  139.4490  155.7780 C   0  0  0  0  0  0  0  0  0  0  0  0
  147.5769  140.0193  154.9241 C   0  0  0  0  0  0  0  0  0  0  0  0
  148.3733  138.9494  154.1363 C   0  0  1  0  0  0  0  0  0  0  0  0
  149.3212  138.0740  154.9892 C   0  0  0  0  0  0  0  0  0  0  0  0
  148.6438  136.9296  155.7932 C   0  0  1  0  0  0  0  0  0  0  0  0
  148.3975  137.2807  157.1897 N   0  0  0  0  0  0  0  0  0  0  0  0
  148.9087  136.6667  158.2679 C   0  0  0  0  0  0  0  0  0  0  0  0
  149.6687  135.6989  158.1628 O   0  0  0  0  0  0  0  0  0  0  0  0
  148.4727  137.2992  159.4230 N   0  0  0  0  0  0  0  0  0  0  0  0
  148.0473  136.5943  160.4266 C   0  0  0  0  0  0  0  0  0  0  0  0
  147.9279  135.2237  160.6415 N   0  0  0  0  0  0  0  0  0  0  0  0
  147.4179  135.0314  161.8949 C   0  0  0  0  0  0  0  0  0  0  0  0
  147.2248  136.2247  162.4485 C   0  0  0  0  0  0  0  0  0  0  0  0
  147.6018  137.2000  161.5744 O   0  0  0  0  0  0  0  0  0  0  0  0
  147.3723  136.3509  155.1212 C   0  0  0  0  0  0  0  0  0  0  0  0
  146.1350  139.5140  152.4979 H   0  0  0  0  0  0  0  0  0  0  0  0
  146.2468  137.9877  151.6216 H   0  0  0  0  0  0  0  0  0  0  0  0
  147.5628  139.1511  151.5282 H   0  0  0  0  0  0  0  0  0  0  0  0
  145.8874  136.7379  153.6494 H   0  0  0  0  0  0  0  0  0  0  0  0
  144.9459  138.7852  154.3762 H   0  0  0  0  0  0  0  0  0  0  0  0
  145.0494  137.7786  155.7836 H   0  0  0  0  0  0  0  0  0  0  0  0
  145.7413  140.2517  156.0413 H   0  0  0  0  0  0  0  0  0  0  0  0
  146.8094  139.0998  156.7323 H   0  0  0  0  0  0  0  0  0  0  0  0
  147.1542  140.7327  154.2162 H   0  0  0  0  0  0  0  0  0  0  0  0
  148.2507  140.6020  155.5534 H   0  0  0  0  0  0  0  0  0  0  0  0
  149.0087  139.4850  153.4292 H   0  0  0  0  0  0  0  0  0  0  0  0
  150.0240  137.6043  154.2994 H   0  0  0  0  0  0  0  0  0  0  0  0
  149.9392  138.7010  155.6328 H   0  0  0  0  0  0  0  0  0  0  0  0
  149.3591  136.1058  155.8354 H   0  0  0  0  0  0  0  0  0  0  0  0
  147.7851  138.0666  157.3550 H   0  0  0  0  0  0  0  0  0  0  0  0
  148.1604  134.4689  160.0119 H   0  0  0  0  0  0  0  0  0  0  0  0
  147.2429  134.0327  162.2670 H   0  0  0  0  0  0  0  0  0  0  0  0
  146.8445  136.5340  163.4109 H   0  0  0  0  0  0  0  0  0  0  0  0
  146.7320  135.8600  155.8556 H   0  0  0  0  0  0  0  0  0  0  0  0
  147.6982  135.5522  154.4531 H   0  0  0  0  0  0  0  0  0  0  0  0
  148.0676  137.3615  152.9475 H   0  0  0  0  0  0  0  0  0  0  0  0
  1  2  1  0  0  0  0
  1 20  1  0  0  0  0
  1 21  1  0  0  0  0
  1 22  1  0  0  0  0
  2  7  1  0  0  0  0
  2  3  1  0  0  0  0
  2 40  1  0  0  0  0
  3 19  1  0  0  0  0
  3  4  1  0  0  0  0
  3 23  1  0  0  0  0
  4  5  1  0  0  0  0
  4 24  1  0  0  0  0
  4 25  1  0  0  0  0
  5  6  1  0  0  0  0
  5 26  1  0  0  0  0
  5 27  1  0  0  0  0
  6  7  1  0  0  0  0
  6 28  1  0  0  0  0
  6 29  1  0  0  0  0
  7  8  1  0  0  0  0
  7 30  1  0  0  0  0
  8  9  1  0  0  0  0
  8 31  1  0  0  0  0
  8 32  1  0  0  0  0
  9 10  1  0  0  0  0
  9 19  1  0  0  0  0
  9 33  1  0  0  0  0
 10 34  1  0  0  0  0
 10 11  1  0  0  0  0
 11 13  1  0  0  0  0
 11 12  2  0  0  0  0
 13 14  2  0  0  0  0
 14 18  1  0  0  0  0
 14 15  1  0  0  0  0
 15 35  1  0  0  0  0
 15 16  1  0  0  0  0
 16 36  1  0  0  0  0
 16 17  2  0  0  0  0
 17 37  1  0  0  0  0
 17 18  1  0  0  0  0
 19 38  1  0  0  0  0
 19 39  1  0  0  0  0
M  CHG  1   2   1
M  END
> <s_m_source_file>
AV-unprocessed.smi

> <i_m_source_file_index>
2226

> <i_lp_mmshare_version>
43012

> <i_f3d_flags>
0

> <s_epik_input>
W0NIMl0xW0NIMl1bQ0gyXVtDQEhdKE4oW0NIM10pW0NIXTEyKVtDSDJdW0NASF0oW0NIMl0yKVtOSF1DKD1PKVtOSF1jM25bY0hdW2NIXW8z

> <s_epik_cmdline>
J2VwaWtfcHl0aG9uJywgJy1waCcsICc3LjAnLCAnLXRuJywgJzgnLCAnLW1hJywgJzIwMCcsICctbWV0YWxfYmluZGluZycsICctaW1hZScsICc8aW5maWxlLm1hZT4nLCAnLW9tYWUnLCAnPG91dGZpbGUubWFlPic=

> <r_lp_tautomer_probability>
0.107061

> <r_epik_Ionization_Penalty>
1.08307

> <r_epik_Ionization_Penalty_Charging>
1.08272

> <r_epik_Ionization_Penalty_Neutral>
0.000345913

> <r_epik_State_Penalty>
2.5744

> <r_epik_Charging_Adjusted_Penalty>
3.65713

> <i_epik_Tot_Q>
1

> <i_epik_Tot_abs_Q>
1

> <r_epik_Metal_State_Penalty>
3.72133

> <b_epik_Metal_Only>
0

> <s_lp_Force_Field>
OPLS_2005

> <r_lp_Energy>
59.8025

> <b_lp_Chiralities_Consistent>
1

> <s_lp_Variant>
AV-unprocessed.smi:2226-13

> <Gold.Version>
5.8.1

> <Gold.Id.Protein>
6NUR|6NUR_protein|mol2

> <Gold.PLP.Fitness>
37.8834

> <Gold.PLP.PLP>
-24.3978

> <Gold.PLP.part.hbond>
-4.3082

> <Gold.PLP.part.metal>
0.0000

> <Gold.PLP.part.buried>
-3.2672

> <Gold.PLP.part.nonpolar>
-16.1917

> <Gold.PLP.part.repulsive>
0.1393

> <Gold.PLP.ligand.clash>
0.0000

> <Gold.PLP.ligand.torsion>
0.4229

> <Gold.PLP.Chemscore.Hbond>
4.7600

> <Gold.PLP.Chemscore.CHOScore>
0.0000

> <Gold.PLP.Chemscore.Metal>
0.0000

> <Gold.Chemscore.Hbonds>
donor molecule, donor type, donor heavy atom, donor atom, acceptor molecule, acceptor atom, score
      L1  H     2    40       P1  7948  2.00
      P1  H  6896  6908       L1    12  0.98
      P1  H  6931  6943       L1    18  0.93
      P1  H  6934  6947       L1    18  0.78

> <Gold.PLP.Chemscore.Internal.Correction>
0.0513

> <Gold.Rescore>
     Score         DG    S(hbond)    S(metal)    S(lipo)     H(rot)  DE(clash)    DE(int)     intcor
     17.99     -18.54       3.04        0.00      46.57       1.00       0.11       0.44       ----

> <Gold.Chemscore.Fitness>
17.9903

> <Gold.Chemscore.DG>
-18.5388

> <Gold.Chemscore.ZeroCoef>
-5.4800

> <Gold.Chemscore.Hbond>
3.0449

> <Gold.Chemscore.Metal>
0.0000

> <Gold.Chemscore.Lipo>
46.5716

> <Gold.Chemscore.Internal_Hbond>
0.0000

> <Gold.Chemscore.DEClash>
0.1131

> <Gold.Chemscore.DEInternal>
0.4354

> <Gold.Chemscore.Rot>
1.0000

> <Gold.Chemscore.Internal.Correction>
   9.000000E+99

> <Gold.Chemscore.Hbonds>
donor molecule, donor type, donor heavy atom, donor atom, acceptor molecule, acceptor atom, score
      L1  H     2    40       P1  7948  1.00
      P1  H  6896  6908       L1    12  0.91
      P1  H  6931  6943       L1    18  0.20
      P1  H  6934  6947       L1    18  0.26

> <Gold.Chemscore.Hbond.Weighted>
-10.1700

> <Gold.Chemscore.Metal.Weighted>
-0.0000

> <Gold.Chemscore.Lipo.Weighted>
-5.4489

> <Gold.Chemscore.Internal_Hbond.Weighted>
0.0000

> <Gold.Chemscore.DEClash.Weighted>
0.1131

> <Gold.Chemscore.DEInternal.Weighted>
0.4354

> <Gold.Chemscore.Rot.Weighted>
2.5600

> <Gold.Chemscore.Internal.Correction.Weighted>
   9.000000E+99

> <Gold.Protein.RotatedTorsions>
[ 6907 6896 6895 6894 ] final  171.31 input  -60.11 | X-H torsion
[ 7974 7965 7964 7962 ] final   57.58 input  175.53 | X-H torsion
[ 8008 7997 7996 7995 ] final  -57.24 input   59.86 | X-H torsion
[ 10167 10162 10161 10158 ] final   44.21 input  -65.29 | X-H torsion
[ 10718 10713 10712 10709 ] final -148.67 input   66.30 | X-H torsion
[ 10763 10752 10751 10750 ] final -117.11 input  -60.55 | X-H torsion
[ 11005 11000 10999 10996 ] final   49.29 input  -57.11 | X-H torsion

> <Gold.Protein.ActiveResidues>
 VAL166  LYS551  ARG553  GLY616  TRP617  ASP618  TYR619  PRO620  LYS621  CYS622 
 ASP623  PHE694  ASN695  SER759  ASP760  ASP761  ALA762  ILE779  LEU786  VAL792 
 PHE793  MET794  SER795  GLU796  ALA797  LYS798  CYS799  TRP800  GLU811  SER814 

> <Gold.Protein.RotatedAtoms>
  151.8023  133.3371  159.3530 H   0  0  0  0  0  0  0  0  0  0  0  0  # atno 6907 bound_to 6896
  150.7354  134.5742  159.5915 H   0  0  0  0  0  0  0  0  0  0  0  0  # atno 6908 bound_to 6896
  152.3134  134.7470  160.0382 H   0  0  0  0  0  0  0  0  0  0  0  0  # atno 6909 bound_to 6896
  145.9275  139.3780  143.0441 H   0  0  0  0  0  0  0  0  0  0  0  0  # atno 7974 bound_to 7965
  154.4260  140.1111  156.5765 H   0  0  0  0  0  0  0  0  0  0  0  0  # atno 8008 bound_to 7997
  155.6157  140.3494  155.4617 H   0  0  0  0  0  0  0  0  0  0  0  0  # atno 8009 bound_to 7997
  156.0064  140.1210  157.0486 H   0  0  0  0  0  0  0  0  0  0  0  0  # atno 8010 bound_to 7997
  140.3366  144.2522  150.6161 H   0  0  0  0  0  0  0  0  0  0  0  0  # atno 10167 bound_to 10162
  156.4232  130.8039  151.2263 H   0  0  0  0  0  0  0  0  0  0  0  0  # atno 10718 bound_to 10713
  154.8543  135.4321  154.1927 H   0  0  0  0  0  0  0  0  0  0  0  0  # atno 10763 bound_to 10752
  153.2992  135.6967  153.7225 H   0  0  0  0  0  0  0  0  0  0  0  0  # atno 10764 bound_to 10752
  153.6362  135.3476  155.3031 H   0  0  0  0  0  0  0  0  0  0  0  0  # atno 10765 bound_to 10752
  140.1116  134.4947  155.8673 H   0  0  0  0  0  0  0  0  0  0  0  0  # atno 11005 bound_to 11000
  145.8469  140.9550  143.0770 LP  0  0  0  0  0  0  0  0  0  0  0  0  # atno 17320 bound_to 7965
  144.6760  140.0357  143.7482 LP  0  0  0  0  0  0  0  0  0  0  0  0  # atno 17321 bound_to 7965
  140.5348  143.2235  151.8181 LP  0  0  0  0  0  0  0  0  0  0  0  0  # atno 17342 bound_to 10162
  139.4847  144.4675  151.9466 LP  0  0  0  0  0  0  0  0  0  0  0  0  # atno 17343 bound_to 10162
  157.7508  131.0221  150.3779 LP  0  0  0  0  0  0  0  0  0  0  0  0  # atno 17370 bound_to 10713
  156.4101  130.3932  149.6897 LP  0  0  0  0  0  0  0  0  0  0  0  0  # atno 17371 bound_to 10713
  141.2131  133.6729  156.6716 LP  0  0  0  0  0  0  0  0  0  0  0  0  # atno 17394 bound_to 11000
  140.3083  134.8107  157.4155 LP  0  0  0  0  0  0  0  0  0  0  0  0  # atno 17395 bound_to 11000

$$$$
