AV-unprocessed.smi:2143|AV-procd|sdf|8725|dock9
  -GOLD-   2272011493D 1   1.00000     0.00000
 Structure written by MMmdl.
 44 45  0  0  0  0  0  0  0  0  1 V2000
  147.4707  138.3610  154.6474 C   0  0  0  0  0  0  0  0  0  0  0  0
  148.1538  139.4025  153.7371 C   0  0  1  0  0  0  0  0  0  0  0  0
  147.1219  140.3235  153.0552 C   0  0  0  0  0  0  0  0  0  0  0  0
  146.5032  141.3297  154.0378 C   0  0  0  0  0  0  0  0  0  0  0  0
  147.5892  142.1599  154.7350 C   0  0  0  0  0  0  0  0  0  0  0  0
  148.6345  141.2703  155.4356 C   0  0  2  0  0  0  0  0  0  0  0  0
  149.6661  142.1340  156.0090 N   0  0  0  0  0  0  0  0  0  0  0  0
  150.4553  141.8349  157.0526 C   0  0  0  0  0  0  0  0  0  0  0  0
  150.4238  140.7526  157.6401 O   0  0  0  0  0  0  0  0  0  0  0  0
  151.4473  142.9274  157.4744 C   0  0  0  0  0  0  0  0  0  0  0  0
  152.1105  142.6428  158.7534 N   0  0  0  0  0  0  0  0  0  0  0  0
  152.0582  143.5740  159.7744 C   0  0  0  0  0  0  0  0  0  0  0  0
  152.6565  143.3994  160.9730 C   0  0  0  0  0  0  0  0  0  0  0  0
  153.4088  142.1851  161.2648 C   0  0  0  0  0  0  0  0  0  0  0  0
  153.9871  141.9951  162.3352 O   0  0  0  0  0  0  0  0  0  0  0  0
  153.4329  141.2422  160.2091 N   0  0  0  0  0  0  0  0  0  0  0  0
  154.1739  140.0120  160.3971 C   0  0  0  0  0  0  0  0  0  0  0  0
  152.8184  141.4378  158.9520 C   0  0  0  0  0  0  0  0  0  0  0  0
  152.8963  140.5993  158.0504 O   0  0  0  0  0  0  0  0  0  0  0  0
  149.2493  140.2447  154.4454 C   0  0  1  0  0  0  0  0  0  0  0  0
  150.3433  139.3639  155.0808 C   0  0  0  0  0  0  0  0  0  0  0  0
  146.9931  138.8189  155.5131 H   0  0  0  0  0  0  0  0  0  0  0  0
  148.1823  137.6224  155.0155 H   0  0  0  0  0  0  0  0  0  0  0  0
  146.7017  137.8138  154.1015 H   0  0  0  0  0  0  0  0  0  0  0  0
  148.6420  138.8370  152.9421 H   0  0  0  0  0  0  0  0  0  0  0  0
  147.6089  140.8710  152.2470 H   0  0  0  0  0  0  0  0  0  0  0  0
  146.3365  139.7303  152.5855 H   0  0  0  0  0  0  0  0  0  0  0  0
  145.8182  141.9910  153.5067 H   0  0  0  0  0  0  0  0  0  0  0  0
  145.9042  140.8061  154.7832 H   0  0  0  0  0  0  0  0  0  0  0  0
  148.0812  142.7952  153.9966 H   0  0  0  0  0  0  0  0  0  0  0  0
  147.1262  142.8321  155.4586 H   0  0  0  0  0  0  0  0  0  0  0  0
  148.1267  140.7260  156.2330 H   0  0  0  0  0  0  0  0  0  0  0  0
  149.7760  143.0440  155.5857 H   0  0  0  0  0  0  0  0  0  0  0  0
  152.1917  143.0334  156.6843 H   0  0  0  0  0  0  0  0  0  0  0  0
  150.9349  143.8897  157.5276 H   0  0  0  0  0  0  0  0  0  0  0  0
  151.5165  144.4936  159.6061 H   0  0  0  0  0  0  0  0  0  0  0  0
  152.5807  144.1709  161.7253 H   0  0  0  0  0  0  0  0  0  0  0  0
  153.6081  139.1925  159.9506 H   0  0  0  0  0  0  0  0  0  0  0  0
  154.2978  139.7995  161.4592 H   0  0  0  0  0  0  0  0  0  0  0  0
  155.1390  140.1457  159.9062 H   0  0  0  0  0  0  0  0  0  0  0  0
  149.7454  140.8203  153.6618 H   0  0  0  0  0  0  0  0  0  0  0  0
  149.9774  138.8461  155.9676 H   0  0  0  0  0  0  0  0  0  0  0  0
  151.2075  139.9561  155.3818 H   0  0  0  0  0  0  0  0  0  0  0  0
  150.7009  138.6120  154.3769 H   0  0  0  0  0  0  0  0  0  0  0  0
  1  2  1  0  0  0  0
  1 22  1  0  0  0  0
  1 23  1  0  0  0  0
  1 24  1  0  0  0  0
  2 20  1  0  0  0  0
  2  3  1  0  0  0  0
  2 25  1  0  0  0  0
  3  4  1  0  0  0  0
  3 26  1  0  0  0  0
  3 27  1  0  0  0  0
  4  5  1  0  0  0  0
  4 28  1  0  0  0  0
  4 29  1  0  0  0  0
  5  6  1  0  0  0  0
  5 30  1  0  0  0  0
  5 31  1  0  0  0  0
  6  7  1  0  0  0  0
  6 20  1  0  0  0  0
  6 32  1  0  0  0  0
  7  8  1  0  0  0  0
  7 33  1  0  0  0  0
  8  9  2  0  0  0  0
  8 10  1  0  0  0  0
 10 11  1  0  0  0  0
 10 34  1  0  0  0  0
 10 35  1  0  0  0  0
 11 18  1  0  0  0  0
 11 12  1  0  0  0  0
 12 13  2  0  0  0  0
 12 36  1  0  0  0  0
 13 14  1  0  0  0  0
 13 37  1  0  0  0  0
 14 15  2  0  0  0  0
 14 16  1  0  0  0  0
 16 17  1  0  0  0  0
 16 18  1  0  0  0  0
 17 38  1  0  0  0  0
 17 39  1  0  0  0  0
 17 40  1  0  0  0  0
 18 19  2  0  0  0  0
 20 21  1  0  0  0  0
 20 41  1  0  0  0  0
 21 42  1  0  0  0  0
 21 43  1  0  0  0  0
 21 44  1  0  0  0  0
M  END
> <s_m_source_file>
AV-unprocessed.smi

> <i_m_source_file_index>
2143

> <i_lp_mmshare_version>
43012

> <i_f3d_flags>
0

> <s_epik_input>
W0NIM11bQ0BASF0xW0NIMl1bQ0gyXVtDSDJdW0NASF0oW0NASF0xW0NIM10pW05IXUMoPU8pW0NIMl1uMltjSF1bY0hdYyg9TyluKFtDSDNdKWMyPU8=

> <s_epik_cmdline>
J2VwaWtfcHl0aG9uJywgJy1waCcsICc3LjAnLCAnLXRuJywgJzgnLCAnLW1hJywgJzIwMCcsICctbWV0YWxfYmluZGluZycsICctaW1hZScsICc8aW5maWxlLm1hZT4nLCAnLW9tYWUnLCAnPG91dGZpbGUubWFlPic=

> <r_lp_tautomer_probability>
1

> <r_epik_Ionization_Penalty>
3.18445e-08

> <r_epik_Ionization_Penalty_Charging>
1.27977e-08

> <r_epik_Ionization_Penalty_Neutral>
1.90469e-08

> <r_epik_State_Penalty>
-0

> <r_epik_Charging_Adjusted_Penalty>
1.27977e-08

> <i_epik_Tot_Q>
0

> <i_epik_Tot_abs_Q>
0

> <r_epik_Metal_State_Penalty>
-0

> <b_epik_Metal_Only>
0

> <s_lp_Force_Field>
OPLS_2005

> <r_lp_Energy>
21.4204

> <b_lp_Chiralities_Consistent>
1

> <s_lp_Variant>
AV-unprocessed.smi:2143-4

> <Gold.Version>
5.8.1

> <Gold.Id.Protein>
6NUR|6NUR_protein|mol2

> <Gold.PLP.Fitness>
46.5086

> <Gold.PLP.PLP>
-42.8317

> <Gold.PLP.part.hbond>
-3.0000

> <Gold.PLP.part.metal>
0.0000

> <Gold.PLP.part.buried>
0.4888

> <Gold.PLP.part.nonpolar>
-39.3422

> <Gold.PLP.part.repulsive>
0.1444

> <Gold.PLP.ligand.clash>
0.0000

> <Gold.PLP.ligand.torsion>
0.4680

> <Gold.PLP.Chemscore.Hbond>
1.5360

> <Gold.PLP.Chemscore.CHOScore>
0.0000

> <Gold.PLP.Chemscore.Metal>
0.0000

> <Gold.Chemscore.Hbonds>
donor molecule, donor type, donor heavy atom, donor atom, acceptor molecule, acceptor atom, score
      L1  H     7    33       P1  8028  0.75
      P1  H  7997  8009       L1    19  0.77

> <Gold.PLP.Chemscore.Internal.Correction>
0.0050

> <Gold.Rescore>
     Score         DG    S(hbond)    S(metal)    S(lipo)     H(rot)  DE(clash)    DE(int)     intcor
     11.07     -17.22       1.63        0.00      86.84       1.51       0.10       6.04       ----

> <Gold.Chemscore.Fitness>
11.0737

> <Gold.Chemscore.DG>
-17.2162

> <Gold.Chemscore.ZeroCoef>
-5.4800

> <Gold.Chemscore.Hbond>
1.6315

> <Gold.Chemscore.Metal>
0.0000

> <Gold.Chemscore.Lipo>
86.8421

> <Gold.Chemscore.Internal_Hbond>
0.0000

> <Gold.Chemscore.DEClash>
0.1008

> <Gold.Chemscore.DEInternal>
6.0416

> <Gold.Chemscore.Rot>
1.5131

> <Gold.Chemscore.Internal.Correction>
   9.000000E+99

> <Gold.Chemscore.Hbonds>
donor molecule, donor type, donor heavy atom, donor atom, acceptor molecule, acceptor atom, score
      L1  H     7    33       P1  8028  0.74
      P1  H  7997  8009       L1    19  0.71

> <Gold.Chemscore.Hbond.Weighted>
-5.4491

> <Gold.Chemscore.Metal.Weighted>
-0.0000

> <Gold.Chemscore.Lipo.Weighted>
-10.1605

> <Gold.Chemscore.Internal_Hbond.Weighted>
0.0000

> <Gold.Chemscore.DEClash.Weighted>
0.1008

> <Gold.Chemscore.DEInternal.Weighted>
6.0416

> <Gold.Chemscore.Rot.Weighted>
3.8734

> <Gold.Chemscore.Internal.Correction.Weighted>
   9.000000E+99

> <Gold.Protein.RotatedTorsions>
[ 6907 6896 6895 6894 ] final -147.52 input  -60.11 | X-H torsion
[ 7974 7965 7964 7962 ] final   54.28 input  175.53 | X-H torsion
[ 8008 7997 7996 7995 ] final  164.10 input   59.86 | X-H torsion
[ 10167 10162 10161 10158 ] final   48.32 input  -65.29 | X-H torsion
[ 10718 10713 10712 10709 ] final  173.71 input   66.30 | X-H torsion
[ 10763 10752 10751 10750 ] final  -85.31 input  -60.55 | X-H torsion
[ 11005 11000 10999 10996 ] final   12.09 input  -57.11 | X-H torsion

> <Gold.Protein.ActiveResidues>
 VAL166  LYS551  ARG553  GLY616  TRP617  ASP618  TYR619  PRO620  LYS621  CYS622 
 ASP623  PHE694  ASN695  SER759  ASP760  ASP761  ALA762  ILE779  LEU786  VAL792 
 PHE793  MET794  SER795  GLU796  ALA797  LYS798  CYS799  TRP800  GLU811  SER814 

> <Gold.Protein.RotatedAtoms>
  151.1568  133.4871  159.2594 H   0  0  0  0  0  0  0  0  0  0  0  0  # atno 6907 bound_to 6896
  151.1496  135.0220  159.8672 H   0  0  0  0  0  0  0  0  0  0  0  0  # atno 6908 bound_to 6896
  152.5463  134.1453  159.8549 H   0  0  0  0  0  0  0  0  0  0  0  0  # atno 6909 bound_to 6896
  145.9624  139.4072  143.0240 H   0  0  0  0  0  0  0  0  0  0  0  0  # atno 7974 bound_to 7965
  156.1906  140.1706  156.8098 H   0  0  0  0  0  0  0  0  0  0  0  0  # atno 8008 bound_to 7997
  154.5467  140.0725  156.8633 H   0  0  0  0  0  0  0  0  0  0  0  0  # atno 8009 bound_to 7997
  155.3108  140.3367  155.4246 H   0  0  0  0  0  0  0  0  0  0  0  0  # atno 8010 bound_to 7997
  140.2945  144.3007  150.6233 H   0  0  0  0  0  0  0  0  0  0  0  0  # atno 10167 bound_to 10162
  156.9602  131.0058  151.2929 H   0  0  0  0  0  0  0  0  0  0  0  0  # atno 10718 bound_to 10713
  154.6097  135.5489  153.7460 H   0  0  0  0  0  0  0  0  0  0  0  0  # atno 10763 bound_to 10752
  153.0189  135.6386  154.1596 H   0  0  0  0  0  0  0  0  0  0  0  0  # atno 10764 bound_to 10752
  154.1534  135.2901  155.3109 H   0  0  0  0  0  0  0  0  0  0  0  0  # atno 10765 bound_to 10752
  140.4959  134.0794  155.7782 H   0  0  0  0  0  0  0  0  0  0  0  0  # atno 11005 bound_to 11000
  145.8021  140.9766  143.0993 LP  0  0  0  0  0  0  0  0  0  0  0  0  # atno 17320 bound_to 7965
  144.6818  139.9814  143.7483 LP  0  0  0  0  0  0  0  0  0  0  0  0  # atno 17321 bound_to 7965
  140.5704  143.2181  151.7610 LP  0  0  0  0  0  0  0  0  0  0  0  0  # atno 17342 bound_to 10162
  139.4930  144.4225  151.9962 LP  0  0  0  0  0  0  0  0  0  0  0  0  # atno 17343 bound_to 10162
  157.5662  130.8279  149.8331 LP  0  0  0  0  0  0  0  0  0  0  0  0  # atno 17370 bound_to 10713
  156.0325  130.3760  150.1648 LP  0  0  0  0  0  0  0  0  0  0  0  0  # atno 17371 bound_to 10713
  141.1460  133.9053  157.2213 LP  0  0  0  0  0  0  0  0  0  0  0  0  # atno 17394 bound_to 11000
  139.9742  135.0119  156.9588 LP  0  0  0  0  0  0  0  0  0  0  0  0  # atno 17395 bound_to 11000

$$$$
