AV-unprocessed.smi:1021|AV-procd|sdf|4457|dock2
  -GOLD-   22720 2433D 1   1.00000     0.00000
 Structure written by MMmdl.
 43 45  0  0  0  0  0  0  0  0  2 V2000
  148.5635  139.2556  153.1233 O   0  0  0  0  0  0  0  0  0  0  0  0
  148.0604  140.5262  153.4778 C   0  0  0  0  0  0  0  0  0  0  0  0
  149.0634  141.2707  154.3715 C   0  0  0  0  0  0  0  0  0  0  0  0
  149.0585  140.7739  155.8291 C   0  0  0  0  0  0  0  0  0  0  0  0
  150.0344  141.4949  156.7084 C   0  0  0  0  0  0  0  0  0  0  0  0
  150.3055  142.8323  156.7116 N   0  3  0  0  0  0  0  0  0  0  0  0
  151.2678  143.1200  157.6798 C   0  0  0  0  0  0  0  0  0  0  0  0
  151.8555  144.3260  158.0491 C   0  0  0  0  0  0  0  0  0  0  0  0
  152.8125  144.2728  159.0836 C   0  0  0  0  0  0  0  0  0  0  0  0
  153.1528  143.0544  159.7064 C   0  0  0  0  0  0  0  0  0  0  0  0
  152.5499  141.8383  159.3228 C   0  0  0  0  0  0  0  0  0  0  0  0
  151.6025  141.8995  158.3008 C   0  0  0  0  0  0  0  0  0  0  0  0
  150.8167  140.9266  157.6705 N   0  0  0  0  0  0  0  0  0  0  0  0
  150.9202  139.5195  158.0899 C   0  0  0  0  0  0  0  0  0  0  0  0
  152.0888  138.7754  157.4132 C   0  0  1  0  0  0  0  0  0  0  0  0
  152.8534  139.6744  156.6335 O   0  0  0  0  0  0  0  0  0  0  0  0
  152.9377  138.0366  158.4357 C   0  0  0  0  0  0  0  0  0  0  0  0
  154.0072  137.2215  158.0063 C   0  0  0  0  0  0  0  0  0  0  0  0
  154.7929  136.5272  158.9469 C   0  0  0  0  0  0  0  0  0  0  0  0
  154.5120  136.6416  160.3219 C   0  0  0  0  0  0  0  0  0  0  0  0
  155.2667  135.9727  161.2253 F   0  0  0  0  0  0  0  0  0  0  0  0
  153.4446  137.4507  160.7563 C   0  0  0  0  0  0  0  0  0  0  0  0
  152.6586  138.1454  159.8162 C   0  0  0  0  0  0  0  0  0  0  0  0
  149.1593  139.3592  152.3969 H   0  0  0  0  0  0  0  0  0  0  0  0
  147.8431  141.0970  152.5745 H   0  0  0  0  0  0  0  0  0  0  0  0
  147.1172  140.3886  154.0073 H   0  0  0  0  0  0  0  0  0  0  0  0
  150.0623  141.1385  153.9542 H   0  0  0  0  0  0  0  0  0  0  0  0
  148.8536  142.3410  154.3373 H   0  0  0  0  0  0  0  0  0  0  0  0
  148.0631  140.8884  156.2593 H   0  0  0  0  0  0  0  0  0  0  0  0
  149.2896  139.7087  155.8553 H   0  0  0  0  0  0  0  0  0  0  0  0
  151.5976  145.2600  157.5719 H   0  0  0  0  0  0  0  0  0  0  0  0
  153.2959  145.1840  159.4048 H   0  0  0  0  0  0  0  0  0  0  0  0
  153.8922  143.0519  160.4939 H   0  0  0  0  0  0  0  0  0  0  0  0
  152.8231  140.9105  159.8029 H   0  0  0  0  0  0  0  0  0  0  0  0
  150.9916  139.4699  159.1765 H   0  0  0  0  0  0  0  0  0  0  0  0
  149.9771  139.0376  157.8294 H   0  0  0  0  0  0  0  0  0  0  0  0
  151.6786  138.0403  156.7198 H   0  0  0  0  0  0  0  0  0  0  0  0
  152.5781  139.5969  155.7326 H   0  0  0  0  0  0  0  0  0  0  0  0
  154.2291  137.1238  156.9538 H   0  0  0  0  0  0  0  0  0  0  0  0
  155.6111  135.9059  158.6132 H   0  0  0  0  0  0  0  0  0  0  0  0
  153.2276  137.5376  161.8108 H   0  0  0  0  0  0  0  0  0  0  0  0
  151.8394  138.7607  160.1586 H   0  0  0  0  0  0  0  0  0  0  0  0
  149.8601  143.4983  156.0937 H   0  0  0  0  0  0  0  0  0  0  0  0
  1  2  1  0  0  0  0
  1 24  1  0  0  0  0
  2  3  1  0  0  0  0
  2 25  1  0  0  0  0
  2 26  1  0  0  0  0
  3  4  1  0  0  0  0
  3 27  1  0  0  0  0
  3 28  1  0  0  0  0
  4  5  1  0  0  0  0
  4 29  1  0  0  0  0
  4 30  1  0  0  0  0
  5 13  1  0  0  0  0
  5  6  2  0  0  0  0
  6  7  1  0  0  0  0
  6 43  1  0  0  0  0
  7 12  2  0  0  0  0
  7  8  1  0  0  0  0
  8  9  2  0  0  0  0
  8 31  1  0  0  0  0
  9 10  1  0  0  0  0
  9 32  1  0  0  0  0
 10 11  2  0  0  0  0
 10 33  1  0  0  0  0
 11 12  1  0  0  0  0
 11 34  1  0  0  0  0
 12 13  1  0  0  0  0
 13 14  1  0  0  0  0
 14 15  1  0  0  0  0
 14 35  1  0  0  0  0
 14 36  1  0  0  0  0
 15 16  1  0  0  0  0
 15 17  1  0  0  0  0
 15 37  1  0  0  0  0
 16 38  1  0  0  0  0
 17 23  1  0  0  0  0
 17 18  2  0  0  0  0
 18 19  1  0  0  0  0
 18 39  1  0  0  0  0
 19 20  2  0  0  0  0
 19 40  1  0  0  0  0
 20 21  1  0  0  0  0
 20 22  1  0  0  0  0
 22 23  2  0  0  0  0
 22 41  1  0  0  0  0
 23 42  1  0  0  0  0
M  CHG  1   6   1
M  END
> <s_m_source_file>
AV-unprocessed.smi

> <i_m_source_file_index>
1021

> <i_lp_mmshare_version>
43012

> <i_f3d_flags>
0

> <s_epik_input>
W09IXVtDSDJdW0NIMl1bQ0gyXWMobjEpbihjKGMxMilbY0hdW2NIXVtjSF1bY0hdMilbQ0gyXVtDQEhdKFtPSF0pYzNbY0hdW2NIXWMoRilbY0hdW2NIXTM=

> <s_epik_cmdline>
J2VwaWtfcHl0aG9uJywgJy1waCcsICc3LjAnLCAnLXRuJywgJzgnLCAnLW1hJywgJzIwMCcsICctbWV0YWxfYmluZGluZycsICctaW1hZScsICc8aW5maWxlLm1hZT4nLCAnLW9tYWUnLCAnPG91dGZpbGUubWFlPic=

> <r_epik_Ionization_Penalty>
0.786441

> <r_epik_Ionization_Penalty_Charging>
0.786439

> <r_epik_Ionization_Penalty_Neutral>
1.96029e-06

> <r_epik_State_Penalty>
0.816472

> <r_epik_Charging_Adjusted_Penalty>
1.60291

> <i_epik_Tot_Q>
1

> <i_epik_Tot_abs_Q>
1

> <r_epik_Metal_State_Penalty>
4.73733

> <b_epik_Metal_Only>
0

> <s_lp_Force_Field>
OPLS_2005

> <r_lp_Energy>
16.4086

> <b_lp_Chiralities_Consistent>
1

> <s_lp_Variant>
AV-unprocessed.smi:1021-4

> <Gold.Version>
5.8.1

> <Gold.Id.Protein>
6NUR|6NUR_protein|mol2

> <Gold.PLP.Fitness>
53.4782

> <Gold.PLP.PLP>
-44.2232

> <Gold.PLP.part.hbond>
-2.6708

> <Gold.PLP.part.metal>
0.0000

> <Gold.PLP.part.buried>
-5.1825

> <Gold.PLP.part.nonpolar>
-36.6008

> <Gold.PLP.part.repulsive>
0.0427

> <Gold.PLP.ligand.clash>
0.0000

> <Gold.PLP.ligand.torsion>
1.4134

> <Gold.PLP.Chemscore.Hbond>
4.0000

> <Gold.PLP.Chemscore.CHOScore>
0.0000

> <Gold.PLP.Chemscore.Metal>
0.0000

> <Gold.Chemscore.Hbonds>
donor molecule, donor type, donor heavy atom, donor atom, acceptor molecule, acceptor atom, score
      L1  H     1    24       P1  7957  0.86
      L1  H     6    43       P1  8028  2.00
      P1  H  7997  8010       L1    16  0.90

> <Gold.PLP.Chemscore.Internal.Correction>
0.0819

> <Gold.Rescore>
     Score         DG    S(hbond)    S(metal)    S(lipo)     H(rot)  DE(clash)    DE(int)     intcor
     20.21     -21.54       2.96        0.00     122.03       3.16       0.00       1.33       ----

> <Gold.Chemscore.Fitness>
20.2124

> <Gold.Chemscore.DG>
-21.5417

> <Gold.Chemscore.ZeroCoef>
-5.4800

> <Gold.Chemscore.Hbond>
2.9564

> <Gold.Chemscore.Metal>
0.0000

> <Gold.Chemscore.Lipo>
122.0341

> <Gold.Chemscore.Internal_Hbond>
0.0000

> <Gold.Chemscore.DEClash>
0.0033

> <Gold.Chemscore.DEInternal>
1.3260

> <Gold.Chemscore.Rot>
3.1604

> <Gold.Chemscore.Internal.Correction>
   9.000000E+99

> <Gold.Chemscore.Hbonds>
donor molecule, donor type, donor heavy atom, donor atom, acceptor molecule, acceptor atom, score
      L1  H     1    24       P1  7957  0.81
      L1  H     6    43       P1  8028  0.98
      P1  H  7997  8010       L1    16  0.17

> <Gold.Chemscore.Hbond.Weighted>
-9.8743

> <Gold.Chemscore.Metal.Weighted>
-0.0000

> <Gold.Chemscore.Lipo.Weighted>
-14.2780

> <Gold.Chemscore.Internal_Hbond.Weighted>
0.0000

> <Gold.Chemscore.DEClash.Weighted>
0.0033

> <Gold.Chemscore.DEInternal.Weighted>
1.3260

> <Gold.Chemscore.Rot.Weighted>
8.0907

> <Gold.Chemscore.Internal.Correction.Weighted>
   9.000000E+99

> <Gold.Protein.RotatedTorsions>
[ 6907 6896 6895 6894 ] final   99.94 input  -60.11 | X-H torsion
[ 7974 7965 7964 7962 ] final -144.04 input  175.53 | X-H torsion
[ 8008 7997 7996 7995 ] final   75.53 input   59.86 | X-H torsion
[ 10167 10162 10161 10158 ] final   87.95 input  -65.29 | X-H torsion
[ 10718 10713 10712 10709 ] final   50.44 input   66.30 | X-H torsion
[ 10763 10752 10751 10750 ] final  101.56 input  -60.55 | X-H torsion
[ 11005 11000 10999 10996 ] final   31.95 input  -57.11 | X-H torsion

> <Gold.Protein.ActiveResidues>
 VAL166  LYS551  ARG553  GLY616  TRP617  ASP618  TYR619  PRO620  LYS621  CYS622 
 ASP623  PHE694  ASN695  SER759  ASP760  ASP761  ALA762  ILE779  LEU786  VAL792 
 PHE793  MET794  SER795  GLU796  ALA797  LYS798  CYS799  TRP800  GLU811  SER814 

> <Gold.Protein.RotatedAtoms>
  152.5382  134.0352  159.8042 H   0  0  0  0  0  0  0  0  0  0  0  0  # atno 6907 bound_to 6896
  151.0517  133.5611  159.2649 H   0  0  0  0  0  0  0  0  0  0  0  0  # atno 6908 bound_to 6896
  151.2543  135.0640  159.9127 H   0  0  0  0  0  0  0  0  0  0  0  0  # atno 6909 bound_to 6896
  144.8326  140.5759  143.5505 H   0  0  0  0  0  0  0  0  0  0  0  0  # atno 7974 bound_to 7965
  155.8142  140.3472  155.5475 H   0  0  0  0  0  0  0  0  0  0  0  0  # atno 8008 bound_to 7997
  155.8409  140.0941  157.1755 H   0  0  0  0  0  0  0  0  0  0  0  0  # atno 8009 bound_to 7997
  154.4005  140.1394  156.3715 H   0  0  0  0  0  0  0  0  0  0  0  0  # atno 8010 bound_to 7997
  139.8722  144.6486  150.8936 H   0  0  0  0  0  0  0  0  0  0  0  0  # atno 10167 bound_to 10162
  157.4885  130.8361  149.8175 H   0  0  0  0  0  0  0  0  0  0  0  0  # atno 10718 bound_to 10713
  153.3283  135.4040  155.1474 H   0  0  0  0  0  0  0  0  0  0  0  0  # atno 10763 bound_to 10752
  154.8617  135.3604  154.5504 H   0  0  0  0  0  0  0  0  0  0  0  0  # atno 10764 bound_to 10752
  153.5942  135.7073  153.5470 H   0  0  0  0  0  0  0  0  0  0  0  0  # atno 10765 bound_to 10752
  140.2786  134.2999  155.7807 H   0  0  0  0  0  0  0  0  0  0  0  0  # atno 11005 bound_to 11000
  145.4863  139.1491  143.3734 LP  0  0  0  0  0  0  0  0  0  0  0  0  # atno 17320 bound_to 7965
  146.2627  140.5000  142.8846 LP  0  0  0  0  0  0  0  0  0  0  0  0  # atno 17321 bound_to 7965
  140.7759  143.3654  151.1748 LP  0  0  0  0  0  0  0  0  0  0  0  0  # atno 17342 bound_to 10162
  139.7273  143.9128  152.3007 LP  0  0  0  0  0  0  0  0  0  0  0  0  # atno 17343 bound_to 10162
  156.0160  130.3813  150.2109 LP  0  0  0  0  0  0  0  0  0  0  0  0  # atno 17370 bound_to 10713
  157.0297  131.0004  151.3316 LP  0  0  0  0  0  0  0  0  0  0  0  0  # atno 17371 bound_to 10713
  141.2166  133.7511  156.9445 LP  0  0  0  0  0  0  0  0  0  0  0  0  # atno 17394 bound_to 11000
  140.1305  134.9359  157.2330 LP  0  0  0  0  0  0  0  0  0  0  0  0  # atno 17395 bound_to 11000

$$$$
