AV-unprocessed.smi:2245|AV-procd|sdf|9081|dock1
  -GOLD-   2272012283D 1   1.00000     0.00000
 Structure written by MMmdl.
 45 46  0  0  0  0  0  0  0  0  2 V2000
  153.5411  138.4338  154.7952 C   0  0  0  0  0  0  0  0  0  0  0  0
  152.1457  138.9980  154.9617 C   0  0  0  0  0  0  0  0  0  0  0  0
  151.9096  140.0928  155.8145 C   0  0  0  0  0  0  0  0  0  0  0  0
  150.5897  140.5705  155.9334 C   0  0  0  0  0  0  0  0  0  0  0  0
  150.2645  141.7467  156.8299 C   0  0  0  0  0  0  0  0  0  0  0  0
  149.5473  140.0278  155.2689 N   0  0  0  0  0  0  0  0  0  0  0  0
  149.7627  138.9727  154.4448 C   0  0  0  0  0  0  0  0  0  0  0  0
  148.7352  138.3298  153.7044 N   0  0  0  0  0  0  0  0  0  0  0  0
  147.4045  138.4670  153.8406 C   0  0  0  0  0  0  0  0  0  0  0  0
  146.8423  139.2119  154.6437 O   0  0  0  0  0  0  0  0  0  0  0  0
  146.7429  137.6765  152.9827 N   0  0  0  0  0  0  0  0  0  0  0  0
  145.2900  137.5945  152.8671 C   0  0  0  0  0  0  0  0  0  0  0  0
  144.8350  136.4320  151.9623 C   0  0  1  0  0  0  0  0  0  0  0  0
  145.6579  136.2786  150.6846 C   0  0  0  0  0  0  0  0  0  0  0  0
  145.4576  134.8141  150.2715 C   0  0  0  0  0  0  0  0  0  0  0  0
  144.8952  134.1076  151.4484 N   0  3  1  0  0  0  0  0  0  0  0  0
  145.4731  132.7710  151.7288 C   0  0  0  0  0  0  0  0  0  0  0  0
  145.1993  131.7595  150.6018 C   0  0  0  0  0  0  0  0  0  0  0  0
  145.3767  130.5261  151.0726 F   0  0  0  0  0  0  0  0  0  0  0  0
  143.9414  131.8786  150.1772 F   0  0  0  0  0  0  0  0  0  0  0  0
  146.0284  131.9430  149.5749 F   0  0  0  0  0  0  0  0  0  0  0  0
  144.9518  135.0428  152.5895 C   0  0  0  0  0  0  0  0  0  0  0  0
  151.0560  138.4313  154.2698 C   0  0  0  0  0  0  0  0  0  0  0  0
  154.2970  139.1812  155.0384 H   0  0  0  0  0  0  0  0  0  0  0  0
  153.7054  138.1084  153.7677 H   0  0  0  0  0  0  0  0  0  0  0  0
  153.6801  137.5766  155.4543 H   0  0  0  0  0  0  0  0  0  0  0  0
  152.7186  140.5536  156.3625 H   0  0  0  0  0  0  0  0  0  0  0  0
  151.1177  142.0158  157.4533 H   0  0  0  0  0  0  0  0  0  0  0  0
  149.4272  141.5071  157.4862 H   0  0  0  0  0  0  0  0  0  0  0  0
  149.9924  142.6145  156.2286 H   0  0  0  0  0  0  0  0  0  0  0  0
  149.0520  137.6878  152.9933 H   0  0  0  0  0  0  0  0  0  0  0  0
  147.2831  137.1020  152.3524 H   0  0  0  0  0  0  0  0  0  0  0  0
  144.8497  137.4940  153.8605 H   0  0  0  0  0  0  0  0  0  0  0  0
  144.9319  138.5436  152.4671 H   0  0  0  0  0  0  0  0  0  0  0  0
  143.7949  136.5871  151.6703 H   0  0  0  0  0  0  0  0  0  0  0  0
  145.3551  136.9790  149.9056 H   0  0  0  0  0  0  0  0  0  0  0  0
  146.7138  136.4552  150.8955 H   0  0  0  0  0  0  0  0  0  0  0  0
  144.7501  134.7339  149.4459 H   0  0  0  0  0  0  0  0  0  0  0  0
  146.4028  134.3813  149.9418 H   0  0  0  0  0  0  0  0  0  0  0  0
  146.5432  132.8565  151.9246 H   0  0  0  0  0  0  0  0  0  0  0  0
  145.0201  132.3906  152.6455 H   0  0  0  0  0  0  0  0  0  0  0  0
  145.9108  134.9425  153.1012 H   0  0  0  0  0  0  0  0  0  0  0  0
  144.1592  134.8391  153.3104 H   0  0  0  0  0  0  0  0  0  0  0  0
  151.2138  137.5893  153.6111 H   0  0  0  0  0  0  0  0  0  0  0  0
  143.9131  133.9718  151.2543 H   0  0  0  0  0  0  0  0  0  0  0  0
  1  2  1  0  0  0  0
  1 24  1  0  0  0  0
  1 25  1  0  0  0  0
  1 26  1  0  0  0  0
  2 23  1  0  0  0  0
  2  3  2  0  0  0  0
  3  4  1  0  0  0  0
  3 27  1  0  0  0  0
  4  5  1  0  0  0  0
  4  6  2  0  0  0  0
  5 28  1  0  0  0  0
  5 29  1  0  0  0  0
  5 30  1  0  0  0  0
  6  7  1  0  0  0  0
  7  8  1  0  0  0  0
  7 23  2  0  0  0  0
  8  9  1  0  0  0  0
  8 31  1  0  0  0  0
  9 10  2  0  0  0  0
  9 11  1  0  0  0  0
 11 12  1  0  0  0  0
 11 32  1  0  0  0  0
 12 13  1  0  0  0  0
 12 33  1  0  0  0  0
 12 34  1  0  0  0  0
 13 22  1  0  0  0  0
 13 14  1  0  0  0  0
 13 35  1  0  0  0  0
 14 15  1  0  0  0  0
 14 36  1  0  0  0  0
 14 37  1  0  0  0  0
 15 16  1  0  0  0  0
 15 38  1  0  0  0  0
 15 39  1  0  0  0  0
 16 17  1  0  0  0  0
 16 22  1  0  0  0  0
 16 45  1  0  0  0  0
 17 18  1  0  0  0  0
 17 40  1  0  0  0  0
 17 41  1  0  0  0  0
 18 19  1  0  0  0  0
 18 20  1  0  0  0  0
 18 21  1  0  0  0  0
 22 42  1  0  0  0  0
 22 43  1  0  0  0  0
 23 44  1  0  0  0  0
M  CHG  1  16   1
M  END
> <s_m_source_file>
AV-unprocessed.smi

> <i_m_source_file_index>
2245

> <i_lp_mmshare_version>
43012

> <i_f3d_flags>
0

> <s_epik_input>
W0NIM11jMVtjSF1jKFtDSDNdKW5jKFtjSF0xKVtOSF1DKD1PKVtOSF1bQ0gyXVtDQEBIXTJbQ0gyXVtDSDJdTihbQ0gyXTIpW0NIMl1DKEYpKEYpRg==

> <s_epik_cmdline>
J2VwaWtfcHl0aG9uJywgJy1waCcsICc3LjAnLCAnLXRuJywgJzgnLCAnLW1hJywgJzIwMCcsICctbWV0YWxfYmluZGluZycsICctaW1hZScsICc8aW5maWxlLm1hZT4nLCAnLW9tYWUnLCAnPG91dGZpbGUubWFlPic=

> <r_epik_Ionization_Penalty>
0.628315

> <r_epik_Ionization_Penalty_Charging>
0.628113

> <r_epik_Ionization_Penalty_Neutral>
0.000202271

> <r_epik_State_Penalty>
0.644725

> <r_epik_Charging_Adjusted_Penalty>
1.27284

> <i_epik_Tot_Q>
1

> <i_epik_Tot_abs_Q>
1

> <r_epik_Metal_State_Penalty>
0.644752

> <b_epik_Metal_Only>
0

> <s_lp_Force_Field>
OPLS_2005

> <r_lp_Energy>
28.8991

> <b_lp_Chiralities_Consistent>
1

> <s_lp_Variant>
AV-unprocessed.smi:2245-6

> <Gold.Version>
5.8.1

> <Gold.Id.Protein>
6NUR|6NUR_protein|mol2

> <Gold.PLP.Fitness>
49.5583

> <Gold.PLP.PLP>
-44.0615

> <Gold.PLP.part.hbond>
-2.5439

> <Gold.PLP.part.metal>
0.0000

> <Gold.PLP.part.buried>
-0.7722

> <Gold.PLP.part.nonpolar>
-40.8598

> <Gold.PLP.part.repulsive>
0.2179

> <Gold.PLP.ligand.clash>
0.0000

> <Gold.PLP.ligand.torsion>
0.4629

> <Gold.PLP.Chemscore.Hbond>
2.0000

> <Gold.PLP.Chemscore.CHOScore>
0.0000

> <Gold.PLP.Chemscore.Metal>
0.0000

> <Gold.Chemscore.Hbonds>
donor molecule, donor type, donor heavy atom, donor atom, acceptor molecule, acceptor atom, score
      L1  H     8    31       P1  7948  1.00
      L1  H    11    32       P1  7948  1.00

> <Gold.PLP.Chemscore.Internal.Correction>
0.4226

> <Gold.Rescore>
     Score         DG    S(hbond)    S(metal)    S(lipo)     H(rot)  DE(clash)    DE(int)     intcor
     15.77     -18.19       1.95        0.00      88.20       1.61       0.58       1.84       ----

> <Gold.Chemscore.Fitness>
15.7657

> <Gold.Chemscore.DG>
-18.1859

> <Gold.Chemscore.ZeroCoef>
-5.4800

> <Gold.Chemscore.Hbond>
1.9517

> <Gold.Chemscore.Metal>
0.0000

> <Gold.Chemscore.Lipo>
88.2032

> <Gold.Chemscore.Internal_Hbond>
0.0000

> <Gold.Chemscore.DEClash>
0.5834

> <Gold.Chemscore.DEInternal>
1.8368

> <Gold.Chemscore.Rot>
1.6143

> <Gold.Chemscore.Internal.Correction>
   9.000000E+99

> <Gold.Chemscore.Hbonds>
donor molecule, donor type, donor heavy atom, donor atom, acceptor molecule, acceptor atom, score
      L1  H     8    31       P1  7948  0.99
      L1  H    11    32       P1  7948  0.95

> <Gold.Chemscore.Hbond.Weighted>
-6.5186

> <Gold.Chemscore.Metal.Weighted>
-0.0000

> <Gold.Chemscore.Lipo.Weighted>
-10.3198

> <Gold.Chemscore.Internal_Hbond.Weighted>
0.0000

> <Gold.Chemscore.DEClash.Weighted>
0.5834

> <Gold.Chemscore.DEInternal.Weighted>
1.8368

> <Gold.Chemscore.Rot.Weighted>
4.1325

> <Gold.Chemscore.Internal.Correction.Weighted>
   9.000000E+99

> <Gold.Protein.RotatedTorsions>
[ 6907 6896 6895 6894 ] final   60.10 input  -60.11 | X-H torsion
[ 7974 7965 7964 7962 ] final  170.34 input  175.53 | X-H torsion
[ 8008 7997 7996 7995 ] final  -27.15 input   59.86 | X-H torsion
[ 10167 10162 10161 10158 ] final  -58.35 input  -65.29 | X-H torsion
[ 10718 10713 10712 10709 ] final -166.83 input   66.30 | X-H torsion
[ 10763 10752 10751 10750 ] final    4.10 input  -60.55 | X-H torsion
[ 11005 11000 10999 10996 ] final -132.87 input  -57.11 | X-H torsion

> <Gold.Protein.ActiveResidues>
 VAL166  LYS551  ARG553  GLY616  TRP617  ASP618  TYR619  PRO620  LYS621  CYS622 
 ASP623  PHE694  ASN695  SER759  ASP760  ASP761  ALA762  ILE779  LEU786  VAL792 
 PHE793  MET794  SER795  GLU796  ALA797  LYS798  CYS799  TRP800  GLU811  SER814 

> <Gold.Protein.RotatedAtoms>
  152.3973  134.6344  160.0083 H   0  0  0  0  0  0  0  0  0  0  0  0  # atno 6907 bound_to 6896
  151.6560  133.3313  159.3171 H   0  0  0  0  0  0  0  0  0  0  0  0  # atno 6908 bound_to 6896
  150.7878  134.6921  159.6547 H   0  0  0  0  0  0  0  0  0  0  0  0  # atno 6909 bound_to 6896
  144.7327  139.9187  143.6419 H   0  0  0  0  0  0  0  0  0  0  0  0  # atno 7974 bound_to 7965
  154.4391  140.1880  156.0886 H   0  0  0  0  0  0  0  0  0  0  0  0  # atno 8008 bound_to 7997
  156.0383  140.3322  155.7189 H   0  0  0  0  0  0  0  0  0  0  0  0  # atno 8009 bound_to 7997
  155.5737  140.0615  157.2791 H   0  0  0  0  0  0  0  0  0  0  0  0  # atno 8010 bound_to 7997
  140.6202  143.2417  151.5498 H   0  0  0  0  0  0  0  0  0  0  0  0  # atno 10167 bound_to 10162
  156.6736  130.9094  151.3047 H   0  0  0  0  0  0  0  0  0  0  0  0  # atno 10718 bound_to 10713
  153.2753  135.6936  153.7439 H   0  0  0  0  0  0  0  0  0  0  0  0  # atno 10763 bound_to 10752
  153.6447  135.3387  155.3083 H   0  0  0  0  0  0  0  0  0  0  0  0  # atno 10764 bound_to 10752
  154.8477  135.4440  154.1789 H   0  0  0  0  0  0  0  0  0  0  0  0  # atno 10765 bound_to 10752
  140.9132  134.1541  157.4373 H   0  0  0  0  0  0  0  0  0  0  0  0  # atno 11005 bound_to 11000
  146.0946  139.3937  143.0384 LP  0  0  0  0  0  0  0  0  0  0  0  0  # atno 17320 bound_to 7965
  145.7664  140.9915  143.1173 LP  0  0  0  0  0  0  0  0  0  0  0  0  # atno 17321 bound_to 7965
  139.5432  144.2590  152.1392 LP  0  0  0  0  0  0  0  0  0  0  0  0  # atno 17342 bound_to 10162
  140.1808  144.4846  150.6529 LP  0  0  0  0  0  0  0  0  0  0  0  0  # atno 17343 bound_to 10162
  157.7068  130.9394  150.0958 LP  0  0  0  0  0  0  0  0  0  0  0  0  # atno 17370 bound_to 10713
  156.1920  130.3655  149.8898 LP  0  0  0  0  0  0  0  0  0  0  0  0  # atno 17371 bound_to 10713
  139.8761  134.9943  156.5689 LP  0  0  0  0  0  0  0  0  0  0  0  0  # atno 17394 bound_to 11000
  140.8084  133.8449  155.8788 LP  0  0  0  0  0  0  0  0  0  0  0  0  # atno 17395 bound_to 11000

$$$$
