AV-unprocessed.smi:13|AV-procd|sdf|75|dock3
  -GOLD-   2262015203D 1   1.00000     0.00000
 Structure written by MMmdl.
 54 58  0  0  0  0  0  0  0  0  1 V2000
  147.9889  141.2820  153.3998 C   0  0  0  0  0  0  0  0  0  0  0  0
  148.0114  140.3575  154.6168 C   0  0  0  0  0  0  0  0  0  0  0  0
  148.4221  141.2209  155.8174 C   0  0  0  0  0  0  0  0  0  0  0  0
  146.7611  139.4890  154.8204 C   0  0  0  0  0  0  0  0  0  0  0  0
  147.6630  138.4046  155.1803 N   0  0  0  0  0  0  0  0  0  0  0  0
  147.2800  137.1103  154.7355 C   0  0  0  0  0  0  0  0  0  0  0  0
  147.9556  135.9944  155.1238 N   0  0  0  0  0  0  0  0  0  0  0  0
  147.5744  134.7836  154.7067 C   0  0  0  0  0  0  0  0  0  0  0  0
  146.5545  134.4594  153.9108 N   0  0  0  0  0  0  0  0  0  0  0  0
  145.8666  135.5692  153.5190 C   0  0  0  0  0  0  0  0  0  0  0  0
  146.1640  136.9137  153.8789 C   0  0  0  0  0  0  0  0  0  0  0  0
  145.2505  137.7768  153.2878 N   0  0  0  0  0  0  0  0  0  0  0  0
  144.4596  136.9882  152.6130 C   0  0  0  0  0  0  0  0  0  0  0  0
  144.7477  135.6448  152.7073 N   0  0  0  0  0  0  0  0  0  0  0  0
  144.0294  134.5530  152.0668 C   0  0  0  0  0  0  0  0  0  0  0  0
  144.6978  134.0511  150.7650 C   0  0  1  0  0  0  0  0  0  0  0  0
  144.8616  135.1452  149.8785 O   0  0  0  0  0  0  0  0  0  0  0  0
  146.0651  133.4234  151.0046 C   0  0  0  0  0  0  0  0  0  0  0  0
  146.1789  132.4216  149.8639 C   0  0  0  0  0  0  0  0  0  0  0  0
  144.8675  131.8900  149.7789 O   0  0  0  0  0  0  0  0  0  0  0  0
  143.9301  132.9339  150.0268 C   0  0  0  0  0  0  0  0  0  0  0  0
  148.7481  139.0149  154.4212 C   0  0  2  0  0  0  0  0  0  0  0  0
  150.1125  138.7492  155.0604 C   0  0  1  0  0  0  0  0  0  0  0  0
  150.6989  137.3738  154.7479 C   0  0  0  0  0  0  0  0  0  0  0  0
  152.1902  137.5831  154.9444 C   0  0  0  0  0  0  0  0  0  0  0  0
  152.3711  139.0980  154.8074 C   0  0  0  0  0  0  0  0  0  0  0  0
  151.0838  139.6093  154.4868 O   0  0  0  0  0  0  0  0  0  0  0  0
  147.2679  142.0906  153.5240 H   0  0  0  0  0  0  0  0  0  0  0  0
  147.7139  140.7418  152.4934 H   0  0  0  0  0  0  0  0  0  0  0  0
  148.9662  141.7321  153.2220 H   0  0  0  0  0  0  0  0  0  0  0  0
  148.4365  140.6453  156.7434 H   0  0  0  0  0  0  0  0  0  0  0  0
  147.7299  142.0496  155.9693 H   0  0  0  0  0  0  0  0  0  0  0  0
  149.4184  141.6441  155.6852 H   0  0  0  0  0  0  0  0  0  0  0  0
  146.1175  139.8114  155.6394 H   0  0  0  0  0  0  0  0  0  0  0  0
  146.1980  139.3247  153.9002 H   0  0  0  0  0  0  0  0  0  0  0  0
  148.1704  133.9567  155.0640 H   0  0  0  0  0  0  0  0  0  0  0  0
  143.6343  137.3675  152.0279 H   0  0  0  0  0  0  0  0  0  0  0  0
  143.9416  133.7360  152.7842 H   0  0  0  0  0  0  0  0  0  0  0  0
  143.0117  134.8873  151.8614 H   0  0  0  0  0  0  0  0  0  0  0  0
  145.3404  134.8463  149.1206 H   0  0  0  0  0  0  0  0  0  0  0  0
  146.8830  134.1449  151.0260 H   0  0  0  0  0  0  0  0  0  0  0  0
  146.0739  132.8831  151.9524 H   0  0  0  0  0  0  0  0  0  0  0  0
  146.4354  132.9198  148.9276 H   0  0  0  0  0  0  0  0  0  0  0  0
  146.9177  131.6434  150.0561 H   0  0  0  0  0  0  0  0  0  0  0  0
  143.1205  132.5205  150.6267 H   0  0  0  0  0  0  0  0  0  0  0  0
  143.4956  133.2806  149.0880 H   0  0  0  0  0  0  0  0  0  0  0  0
  148.7155  138.7231  153.3695 H   0  0  0  0  0  0  0  0  0  0  0  0
  150.0925  138.9121  156.1397 H   0  0  0  0  0  0  0  0  0  0  0  0
  150.2963  136.5860  155.3847 H   0  0  0  0  0  0  0  0  0  0  0  0
  150.4981  137.1047  153.7100 H   0  0  0  0  0  0  0  0  0  0  0  0
  152.5007  137.2551  155.9370 H   0  0  0  0  0  0  0  0  0  0  0  0
  152.7732  137.0283  154.2089 H   0  0  0  0  0  0  0  0  0  0  0  0
  152.7085  139.5318  155.7494 H   0  0  0  0  0  0  0  0  0  0  0  0
  153.0923  139.3629  154.0339 H   0  0  0  0  0  0  0  0  0  0  0  0
  1  2  1  0  0  0  0
  1 28  1  0  0  0  0
  1 29  1  0  0  0  0
  1 30  1  0  0  0  0
  2 22  1  0  0  0  0
  2  3  1  0  0  0  0
  2  4  1  0  0  0  0
  3 31  1  0  0  0  0
  3 32  1  0  0  0  0
  3 33  1  0  0  0  0
  4  5  1  0  0  0  0
  4 34  1  0  0  0  0
  4 35  1  0  0  0  0
  5  6  1  0  0  0  0
  5 22  1  0  0  0  0
  6 11  1  0  0  0  0
  6  7  2  0  0  0  0
  7  8  1  0  0  0  0
  8  9  2  0  0  0  0
  8 36  1  0  0  0  0
  9 10  1  0  0  0  0
 10 14  1  0  0  0  0
 10 11  2  0  0  0  0
 11 12  1  0  0  0  0
 12 13  2  0  0  0  0
 13 14  1  0  0  0  0
 13 37  1  0  0  0  0
 14 15  1  0  0  0  0
 15 16  1  0  0  0  0
 15 38  1  0  0  0  0
 15 39  1  0  0  0  0
 16 21  1  0  0  0  0
 16 17  1  0  0  0  0
 16 18  1  0  0  0  0
 17 40  1  0  0  0  0
 18 19  1  0  0  0  0
 18 41  1  0  0  0  0
 18 42  1  0  0  0  0
 19 20  1  0  0  0  0
 19 43  1  0  0  0  0
 19 44  1  0  0  0  0
 20 21  1  0  0  0  0
 21 45  1  0  0  0  0
 21 46  1  0  0  0  0
 22 23  1  0  0  0  0
 22 47  1  0  0  0  0
 23 27  1  0  0  0  0
 23 24  1  0  0  0  0
 23 48  1  0  0  0  0
 24 25  1  0  0  0  0
 24 49  1  0  0  0  0
 24 50  1  0  0  0  0
 25 26  1  0  0  0  0
 25 51  1  0  0  0  0
 25 52  1  0  0  0  0
 26 27  1  0  0  0  0
 26 53  1  0  0  0  0
 26 54  1  0  0  0  0
M  END
> <s_m_source_file>
AV-unprocessed.smi

> <i_m_source_file_index>
13

> <i_lp_mmshare_version>
43012

> <i_f3d_flags>
0

> <s_epik_input>
TzFbQ0gyXVtDSDJdW0NIMl1bQ0BIXTFbQ0BASF0yTihbQ0gyXUMyKFtDSDNdKVtDSDNdKWMobltjSF1uMyljKGMzNCluW2NIXW40W0NIMl1bQ0BAXTUoW09IXSlbQ0gyXVtDSDJdT1tDSDJdNQ==

> <s_epik_cmdline>
J2VwaWtfcHl0aG9uJywgJy1waCcsICc3LjAnLCAnLXRuJywgJzgnLCAnLW1hJywgJzIwMCcsICctbWV0YWxfYmluZGluZycsICctaW1hZScsICc8aW5maWxlLm1hZT4nLCAnLW9tYWUnLCAnPG91dGZpbGUubWFlPic=

> <r_lp_tautomer_probability>
1

> <r_epik_Ionization_Penalty>
0.00202764

> <r_epik_Ionization_Penalty_Charging>
0

> <r_epik_Ionization_Penalty_Neutral>
0.00202764

> <r_epik_State_Penalty>
0.00134017

> <r_epik_Charging_Adjusted_Penalty>
0.00134017

> <i_epik_Tot_Q>
0

> <i_epik_Tot_abs_Q>
0

> <r_epik_Metal_State_Penalty>
-0

> <b_epik_Metal_Only>
0

> <s_lp_Force_Field>
OPLS_2005

> <r_lp_Energy>
60.8326

> <b_lp_Chiralities_Consistent>
1

> <s_lp_Variant>
AV-unprocessed.smi:13-7

> <Gold.Version>
5.8.1

> <Gold.Id.Protein>
6NUR|6NUR_protein|mol2

> <Gold.PLP.Fitness>
40.7696

> <Gold.PLP.PLP>
-33.6055

> <Gold.PLP.part.hbond>
-2.2436

> <Gold.PLP.part.metal>
0.0000

> <Gold.PLP.part.buried>
-2.2213

> <Gold.PLP.part.nonpolar>
-29.3682

> <Gold.PLP.part.repulsive>
0.6661

> <Gold.PLP.ligand.clash>
0.0018

> <Gold.PLP.ligand.torsion>
0.8292

> <Gold.PLP.Chemscore.Hbond>
1.8500

> <Gold.PLP.Chemscore.CHOScore>
0.9310

> <Gold.PLP.Chemscore.Metal>
0.0000

> <Gold.Chemscore.Hbonds>
donor molecule, donor type, donor heavy atom, donor atom, acceptor molecule, acceptor atom, score
      L1  H    17    40       P1  7921  1.00
      P1  H  7989  7998       L1    27  0.80
      L1  C    13    37       P1 10171  0.91

> <Gold.PLP.Chemscore.Internal.Correction>
0.4815

> <Gold.Rescore>
     Score         DG    S(hbond)    S(metal)    S(lipo)     H(rot)  DE(clash)    DE(int)     intcor
     10.91     -13.59       1.18        0.00      86.04       2.30       0.34       2.34       ----

> <Gold.Chemscore.Fitness>
10.9139

> <Gold.Chemscore.DG>
-13.5917

> <Gold.Chemscore.ZeroCoef>
-5.4800

> <Gold.Chemscore.Hbond>
1.1774

> <Gold.Chemscore.Metal>
0.0000

> <Gold.Chemscore.Lipo>
86.0364

> <Gold.Chemscore.Internal_Hbond>
0.0000

> <Gold.Chemscore.DEClash>
0.3408

> <Gold.Chemscore.DEInternal>
2.3371

> <Gold.Chemscore.Rot>
2.2996

> <Gold.Chemscore.Internal.Correction>
   9.000000E+99

> <Gold.Chemscore.Hbonds>
donor molecule, donor type, donor heavy atom, donor atom, acceptor molecule, acceptor atom, score
      L1  H    17    40       P1  7921  1.00
      P1  H  7989  7998       L1    27  0.12

> <Gold.Chemscore.Hbond.Weighted>
-3.9324

> <Gold.Chemscore.Metal.Weighted>
-0.0000

> <Gold.Chemscore.Lipo.Weighted>
-10.0663

> <Gold.Chemscore.Internal_Hbond.Weighted>
0.0000

> <Gold.Chemscore.DEClash.Weighted>
0.3408

> <Gold.Chemscore.DEInternal.Weighted>
2.3371

> <Gold.Chemscore.Rot.Weighted>
5.8869

> <Gold.Chemscore.Internal.Correction.Weighted>
   9.000000E+99

> <Gold.Protein.RotatedTorsions>
[ 6907 6896 6895 6894 ] final  -54.36 input  -60.11 | X-H torsion
[ 7974 7965 7964 7962 ] final -171.56 input  175.53 | X-H torsion
[ 8008 7997 7996 7995 ] final   65.19 input   59.86 | X-H torsion
[ 10167 10162 10161 10158 ] final   11.65 input  -65.29 | X-H torsion
[ 10718 10713 10712 10709 ] final  171.73 input   66.30 | X-H torsion
[ 10763 10752 10751 10750 ] final  -89.05 input  -60.55 | X-H torsion
[ 11005 11000 10999 10996 ] final -132.06 input  -57.11 | X-H torsion

> <Gold.Protein.ActiveResidues>
 VAL166  LYS551  ARG553  GLY616  TRP617  ASP618  TYR619  PRO620  LYS621  CYS622 
 ASP623  PHE694  ASN695  SER759  ASP760  ASP761  ALA762  ILE779  LEU786  VAL792 
 PHE793  MET794  SER795  GLU796  ALA797  LYS798  CYS799  TRP800  GLU811  SER814 

> <Gold.Protein.RotatedAtoms>
  150.8345  134.7612  159.6880 H   0  0  0  0  0  0  0  0  0  0  0  0  # atno 6907 bound_to 6896
  152.4444  134.5522  159.9880 H   0  0  0  0  0  0  0  0  0  0  0  0  # atno 6908 bound_to 6896
  151.5676  133.3357  159.3019 H   0  0  0  0  0  0  0  0  0  0  0  0  # atno 6909 bound_to 6896
  144.7156  140.1904  143.6349 H   0  0  0  0  0  0  0  0  0  0  0  0  # atno 7974 bound_to 7965
  155.6578  140.3497  155.4771 H   0  0  0  0  0  0  0  0  0  0  0  0  # atno 8008 bound_to 7997
  155.9794  140.1171  157.0763 H   0  0  0  0  0  0  0  0  0  0  0  0  # atno 8009 bound_to 7997
  154.4187  140.1141  156.5400 H   0  0  0  0  0  0  0  0  0  0  0  0  # atno 8010 bound_to 7997
  140.6118  143.8392  150.7074 H   0  0  0  0  0  0  0  0  0  0  0  0  # atno 10167 bound_to 10162
  156.9892  131.0142  151.2861 H   0  0  0  0  0  0  0  0  0  0  0  0  # atno 10718 bound_to 10713
  154.6511  135.5355  153.7903 H   0  0  0  0  0  0  0  0  0  0  0  0  # atno 10763 bound_to 10752
  153.0386  135.6482  154.1016 H   0  0  0  0  0  0  0  0  0  0  0  0  # atno 10764 bound_to 10752
  154.0933  135.2938  155.3247 H   0  0  0  0  0  0  0  0  0  0  0  0  # atno 10765 bound_to 10752
  140.9203  134.1452  157.4319 H   0  0  0  0  0  0  0  0  0  0  0  0  # atno 11005 bound_to 11000
  145.8773  139.2304  143.1626 LP  0  0  0  0  0  0  0  0  0  0  0  0  # atno 17320 bound_to 7965
  146.0028  140.8505  143.0010 LP  0  0  0  0  0  0  0  0  0  0  0  0  # atno 17321 bound_to 7965
  140.1962  143.3996  152.1826 LP  0  0  0  0  0  0  0  0  0  0  0  0  # atno 17342 bound_to 10162
  139.5367  144.7216  151.4869 LP  0  0  0  0  0  0  0  0  0  0  0  0  # atno 17343 bound_to 10162
  157.5471  130.8157  149.8099 LP  0  0  0  0  0  0  0  0  0  0  0  0  # atno 17370 bound_to 10713
  156.0214  130.3794  150.1952 LP  0  0  0  0  0  0  0  0  0  0  0  0  # atno 17371 bound_to 10713
  139.8774  134.9969  156.5818 LP  0  0  0  0  0  0  0  0  0  0  0  0  # atno 17394 bound_to 11000
  140.7996  133.8516  155.8715 LP  0  0  0  0  0  0  0  0  0  0  0  0  # atno 17395 bound_to 11000

$$$$
