AV-unprocessed.smi:1097|AV-procd|sdf|4751|dock2
  -GOLD-   22720 3283D 1   1.00000     0.00000
 Structure written by MMmdl.
 40 41  0  0  0  0  0  0  0  0  1 V2000
  150.0479  134.8992  155.0043 C   0  0  0  0  0  0  0  0  0  0  0  0
  151.2637  135.4073  155.5248 O   0  0  0  0  0  0  0  0  0  0  0  0
  151.1547  136.7596  155.9357 C   0  0  0  0  0  0  0  0  0  0  0  0
  151.6895  137.6648  154.8229 C   0  0  0  0  0  0  0  0  0  0  0  0
  151.8196  138.9864  155.3372 O   0  0  0  0  0  0  0  0  0  0  0  0
  150.7531  139.8585  155.2207 C   0  0  0  0  0  0  0  0  0  0  0  0
  149.8084  139.5847  154.2849 N   0  0  0  0  0  0  0  0  0  0  0  0
  148.7544  140.4169  154.1636 C   0  0  0  0  0  0  0  0  0  0  0  0
  148.5832  141.5619  154.9616 C   0  0  0  0  0  0  0  0  0  0  0  0
  149.5595  141.8503  155.9325 C   0  0  0  0  0  0  0  0  0  0  0  0
  150.6684  140.9852  156.0800 C   0  0  0  0  0  0  0  0  0  0  0  0
  151.7370  141.2852  157.0946 C   0  0  0  0  0  0  0  0  0  0  0  0
  152.5550  140.4304  157.4357 O   0  0  0  0  0  0  0  0  0  0  0  0
  151.7019  142.5233  157.6134 N   0  0  0  0  0  0  0  0  0  0  0  0
  152.6228  143.0322  158.6256 C   0  0  2  0  0  0  0  0  0  0  0  0
  152.8905  141.9915  159.7243 C   0  0  0  0  0  0  0  0  0  0  0  0
  152.7269  142.7798  161.0128 C   0  0  0  0  0  0  0  0  0  0  0  0
  152.9735  142.3067  162.1211 O   0  0  0  0  0  0  0  0  0  0  0  0
  152.2935  144.0192  160.7645 N   0  0  0  0  0  0  0  0  0  0  0  0
  152.0235  145.0430  161.7644 C   0  0  0  0  0  0  0  0  0  0  0  0
  152.0511  144.2653  159.3541 C   0  0  0  0  0  0  0  0  0  0  0  0
  150.1863  133.8633  154.6950 H   0  0  0  0  0  0  0  0  0  0  0  0
  149.7234  135.4694  154.1328 H   0  0  0  0  0  0  0  0  0  0  0  0
  149.2562  134.9242  155.7543 H   0  0  0  0  0  0  0  0  0  0  0  0
  150.1116  137.0037  156.1434 H   0  0  0  0  0  0  0  0  0  0  0  0
  151.7212  136.9214  156.8541 H   0  0  0  0  0  0  0  0  0  0  0  0
  152.6554  137.2925  154.4772 H   0  0  0  0  0  0  0  0  0  0  0  0
  150.9986  137.6533  153.9781 H   0  0  0  0  0  0  0  0  0  0  0  0
  148.0263  140.1628  153.4075 H   0  0  0  0  0  0  0  0  0  0  0  0
  147.7260  142.2055  154.8293 H   0  0  0  0  0  0  0  0  0  0  0  0
  149.4528  142.7309  156.5492 H   0  0  0  0  0  0  0  0  0  0  0  0
  150.9844  143.1550  157.2883 H   0  0  0  0  0  0  0  0  0  0  0  0
  153.5739  143.2941  158.1577 H   0  0  0  0  0  0  0  0  0  0  0  0
  152.1660  141.1760  159.7112 H   0  0  0  0  0  0  0  0  0  0  0  0
  153.8920  141.5665  159.6487 H   0  0  0  0  0  0  0  0  0  0  0  0
  152.9111  145.2315  162.3698 H   0  0  0  0  0  0  0  0  0  0  0  0
  151.2164  144.7265  162.4260 H   0  0  0  0  0  0  0  0  0  0  0  0
  151.7285  145.9826  161.2955 H   0  0  0  0  0  0  0  0  0  0  0  0
  152.5370  145.1846  159.0246 H   0  0  0  0  0  0  0  0  0  0  0  0
  150.9768  144.3748  159.1964 H   0  0  0  0  0  0  0  0  0  0  0  0
  1  2  1  0  0  0  0
  1 22  1  0  0  0  0
  1 23  1  0  0  0  0
  1 24  1  0  0  0  0
  2  3  1  0  0  0  0
  3  4  1  0  0  0  0
  3 25  1  0  0  0  0
  3 26  1  0  0  0  0
  4  5  1  0  0  0  0
  4 27  1  0  0  0  0
  4 28  1  0  0  0  0
  5  6  1  0  0  0  0
  6 11  1  0  0  0  0
  6  7  2  0  0  0  0
  7  8  1  0  0  0  0
  8  9  2  0  0  0  0
  8 29  1  0  0  0  0
  9 10  1  0  0  0  0
  9 30  1  0  0  0  0
 10 11  2  0  0  0  0
 10 31  1  0  0  0  0
 11 12  1  0  0  0  0
 12 13  2  0  0  0  0
 12 14  1  0  0  0  0
 14 15  1  0  0  0  0
 14 32  1  0  0  0  0
 15 21  1  0  0  0  0
 15 16  1  0  0  0  0
 15 33  1  0  0  0  0
 16 17  1  0  0  0  0
 16 34  1  0  0  0  0
 16 35  1  0  0  0  0
 17 18  2  0  0  0  0
 17 19  1  0  0  0  0
 19 20  1  0  0  0  0
 19 21  1  0  0  0  0
 20 36  1  0  0  0  0
 20 37  1  0  0  0  0
 20 38  1  0  0  0  0
 21 39  1  0  0  0  0
 21 40  1  0  0  0  0
M  END
> <s_m_source_file>
AV-unprocessed.smi

> <i_m_source_file_index>
1097

> <i_lp_mmshare_version>
43012

> <i_f3d_flags>
0

> <s_epik_input>
W0NIM11PW0NIMl1bQ0gyXU9jMW5bY0hdW2NIXVtjSF1jMUMoPU8pW05IXVtDQEBIXTJbQ0gyXUMoPU8pTihbQ0gzXSlbQ0gyXTI=

> <s_epik_cmdline>
J2VwaWtfcHl0aG9uJywgJy1waCcsICc3LjAnLCAnLXRuJywgJzgnLCAnLW1hJywgJzIwMCcsICctbWV0YWxfYmluZGluZycsICctaW1hZScsICc8aW5maWxlLm1hZT4nLCAnLW9tYWUnLCAnPG91dGZpbGUubWFlPic=

> <r_lp_tautomer_probability>
1

> <r_epik_Ionization_Penalty>
2.30122e-06

> <r_epik_Ionization_Penalty_Charging>
0

> <r_epik_Ionization_Penalty_Neutral>
2.30122e-06

> <r_epik_State_Penalty>
-0

> <r_epik_Charging_Adjusted_Penalty>
0

> <i_epik_Tot_Q>
0

> <i_epik_Tot_abs_Q>
0

> <r_epik_Metal_State_Penalty>
-0

> <b_epik_Metal_Only>
0

> <s_lp_Force_Field>
OPLS_2005

> <r_lp_Energy>
19.8502

> <b_lp_Chiralities_Consistent>
1

> <s_lp_Variant>
AV-unprocessed.smi:1097-1

> <Gold.Version>
5.8.1

> <Gold.Id.Protein>
6NUR|6NUR_protein|mol2

> <Gold.PLP.Fitness>
41.8309

> <Gold.PLP.PLP>
-37.5814

> <Gold.PLP.part.hbond>
-2.2840

> <Gold.PLP.part.metal>
0.0000

> <Gold.PLP.part.buried>
5.2872

> <Gold.PLP.part.nonpolar>
-39.1310

> <Gold.PLP.part.repulsive>
0.3473

> <Gold.PLP.ligand.clash>
0.0000

> <Gold.PLP.ligand.torsion>
1.1381

> <Gold.PLP.Chemscore.Hbond>
1.8382

> <Gold.PLP.Chemscore.CHOScore>
0.2931

> <Gold.PLP.Chemscore.Metal>
0.0000

> <Gold.Chemscore.Hbonds>
donor molecule, donor type, donor heavy atom, donor atom, acceptor molecule, acceptor atom, score
      P1  H  7997  8009       L1    13  0.90
      P1  H 10752 10764       L1     2  0.90
      L1  C     8    29       P1  7957  0.20

> <Gold.PLP.Chemscore.Internal.Correction>
0.1319

> <Gold.Rescore>
     Score         DG    S(hbond)    S(metal)    S(lipo)     H(rot)  DE(clash)    DE(int)     intcor
      8.41     -15.54       1.31        0.00      91.31       1.95       2.82       4.31       ----

> <Gold.Chemscore.Fitness>
8.4136

> <Gold.Chemscore.DG>
-15.5392

> <Gold.Chemscore.ZeroCoef>
-5.4800

> <Gold.Chemscore.Hbond>
1.3054

> <Gold.Chemscore.Metal>
0.0000

> <Gold.Chemscore.Lipo>
91.3083

> <Gold.Chemscore.Internal_Hbond>
0.0000

> <Gold.Chemscore.DEClash>
2.8155

> <Gold.Chemscore.DEInternal>
4.3101

> <Gold.Chemscore.Rot>
1.9468

> <Gold.Chemscore.Internal.Correction>
   9.000000E+99

> <Gold.Chemscore.Hbonds>
donor molecule, donor type, donor heavy atom, donor atom, acceptor molecule, acceptor atom, score
      P1  H  7997  8009       L1    13  0.84
      P1  H 10752 10764       L1     2  0.18

> <Gold.Chemscore.Hbond.Weighted>
-4.3599

> <Gold.Chemscore.Metal.Weighted>
-0.0000

> <Gold.Chemscore.Lipo.Weighted>
-10.6831

> <Gold.Chemscore.Internal_Hbond.Weighted>
0.0000

> <Gold.Chemscore.DEClash.Weighted>
2.8155

> <Gold.Chemscore.DEInternal.Weighted>
4.3101

> <Gold.Chemscore.Rot.Weighted>
4.9839

> <Gold.Chemscore.Internal.Correction.Weighted>
   9.000000E+99

> <Gold.Protein.RotatedTorsions>
[ 6907 6896 6895 6894 ] final   34.51 input  -60.11 | X-H torsion
[ 7974 7965 7964 7962 ] final  137.74 input  175.53 | X-H torsion
[ 8008 7997 7996 7995 ] final -179.85 input   59.86 | X-H torsion
[ 10167 10162 10161 10158 ] final   17.91 input  -65.29 | X-H torsion
[ 10718 10713 10712 10709 ] final   90.28 input   66.30 | X-H torsion
[ 10763 10752 10751 10750 ] final  -51.35 input  -60.55 | X-H torsion
[ 11005 11000 10999 10996 ] final  118.67 input  -57.11 | X-H torsion

> <Gold.Protein.ActiveResidues>
 VAL166  LYS551  ARG553  GLY616  TRP617  ASP618  TYR619  PRO620  LYS621  CYS622 
 ASP623  PHE694  ASN695  SER759  ASP760  ASP761  ALA762  ILE779  LEU786  VAL792 
 PHE793  MET794  SER795  GLU796  ALA797  LYS798  CYS799  TRP800  GLU811  SER814 

> <Gold.Protein.RotatedAtoms>
  152.1033  134.9326  160.0568 H   0  0  0  0  0  0  0  0  0  0  0  0  # atno 6907 bound_to 6896
  152.0532  133.4023  159.4394 H   0  0  0  0  0  0  0  0  0  0  0  0  # atno 6908 bound_to 6896
  150.6840  134.3205  159.4828 H   0  0  0  0  0  0  0  0  0  0  0  0  # atno 6909 bound_to 6896
  144.9439  139.4898  143.5558 H   0  0  0  0  0  0  0  0  0  0  0  0  # atno 7974 bound_to 7965
  156.0353  140.1291  157.0215 H   0  0  0  0  0  0  0  0  0  0  0  0  # atno 8008 bound_to 7997
  154.4367  140.1041  156.6228 H   0  0  0  0  0  0  0  0  0  0  0  0  # atno 8009 bound_to 7997
  155.5747  140.3467  155.4526 H   0  0  0  0  0  0  0  0  0  0  0  0  # atno 8010 bound_to 7997
  140.5691  143.9194  150.6699 H   0  0  0  0  0  0  0  0  0  0  0  0  # atno 10167 bound_to 10162
  157.6958  131.0365  150.3554 H   0  0  0  0  0  0  0  0  0  0  0  0  # atno 10718 bound_to 10713
  154.1252  135.6528  153.4911 H   0  0  0  0  0  0  0  0  0  0  0  0  # atno 10763 bound_to 10752
  153.0212  135.5280  154.7056 H   0  0  0  0  0  0  0  0  0  0  0  0  # atno 10764 bound_to 10752
  154.6275  135.2972  155.0225 H   0  0  0  0  0  0  0  0  0  0  0  0  # atno 10765 bound_to 10752
  139.9118  134.9622  156.7539 H   0  0  0  0  0  0  0  0  0  0  0  0  # atno 11005 bound_to 11000
  146.3296  139.8477  142.8879 LP  0  0  0  0  0  0  0  0  0  0  0  0  # atno 17320 bound_to 7965
  145.2948  141.0177  143.3642 LP  0  0  0  0  0  0  0  0  0  0  0  0  # atno 17321 bound_to 7965
  140.2665  143.3486  152.1276 LP  0  0  0  0  0  0  0  0  0  0  0  0  # atno 17342 bound_to 10162
  139.5108  144.6890  151.5809 LP  0  0  0  0  0  0  0  0  0  0  0  0  # atno 17343 bound_to 10162
  156.3997  130.3913  149.6969 LP  0  0  0  0  0  0  0  0  0  0  0  0  # atno 17370 bound_to 10713
  156.4290  130.7806  151.2825 LP  0  0  0  0  0  0  0  0  0  0  0  0  # atno 17371 bound_to 10713
  140.6752  133.9524  155.7879 LP  0  0  0  0  0  0  0  0  0  0  0  0  # atno 17394 bound_to 11000
  141.0550  134.0430  157.3735 LP  0  0  0  0  0  0  0  0  0  0  0  0  # atno 17395 bound_to 11000

$$$$
