AV-unprocessed.smi:1312|AV-procd|sdf|5448|dock6
  -GOLD-   22720 5 13D 1   1.00000     0.00000
 Structure written by MMmdl.
 50 51  0  0  0  0  0  0  0  0  2 V2000
  143.6225  137.2539  153.4858 C   0  0  0  0  0  0  0  0  0  0  0  0
  144.8837  136.7869  154.2295 C   0  0  0  0  0  0  0  0  0  0  0  0
  146.2098  136.9877  153.4461 C   0  0  2  0  0  0  0  0  0  0  0  0
  146.4166  138.4592  153.0043 C   0  0  0  0  0  0  0  0  0  0  0  0
  147.8277  138.8267  152.9697 N   0  0  0  0  0  0  0  0  0  0  0  0
  148.6078  138.9603  154.0518 C   0  0  0  0  0  0  0  0  0  0  0  0
  148.1949  138.7930  155.2004 O   0  0  0  0  0  0  0  0  0  0  0  0
  150.0719  139.3252  153.7796 C   0  0  0  0  0  0  0  0  0  0  0  0
  150.8301  139.5779  155.0606 C   0  0  0  0  0  0  0  0  0  0  0  0
  152.1055  139.0571  155.4283 C   0  0  0  0  0  0  0  0  0  0  0  0
  152.9901  138.1322  154.6424 C   0  0  0  0  0  0  0  0  0  0  0  0
  152.4968  139.4739  156.6213 N   0  0  0  0  0  0  0  0  0  0  0  0
  151.4947  140.2645  157.0551 N   0  0  0  0  0  0  0  0  0  0  0  0
  151.6002  140.8983  158.3551 C   0  0  0  0  0  0  0  0  0  0  0  0
  150.4682  140.3468  156.1344 C   0  0  0  0  0  0  0  0  0  0  0  0
  149.2388  141.1592  156.3832 C   0  0  0  0  0  0  0  0  0  0  0  0
  146.3058  136.0432  152.2936 N   0  3  0  0  0  0  0  0  0  0  0  0
  146.0933  134.6134  152.6084 C   0  0  0  0  0  0  0  0  0  0  0  0
  145.7507  133.9611  151.2743 C   0  0  0  0  0  0  0  0  0  0  0  0
  144.9079  135.0250  150.5823 C   0  0  0  0  0  0  0  0  0  0  0  0
  145.4270  136.3582  151.1377 C   0  0  0  0  0  0  0  0  0  0  0  0
  142.7310  137.0507  154.0796 H   0  0  0  0  0  0  0  0  0  0  0  0
  143.5051  136.7387  152.5325 H   0  0  0  0  0  0  0  0  0  0  0  0
  143.6439  138.3260  153.2905 H   0  0  0  0  0  0  0  0  0  0  0  0
  144.9373  137.3109  155.1839 H   0  0  0  0  0  0  0  0  0  0  0  0
  144.7602  135.7390  154.5019 H   0  0  0  0  0  0  0  0  0  0  0  0
  147.0277  136.7398  154.1248 H   0  0  0  0  0  0  0  0  0  0  0  0
  146.0224  138.6239  152.0013 H   0  0  0  0  0  0  0  0  0  0  0  0
  145.8684  139.1289  153.6689 H   0  0  0  0  0  0  0  0  0  0  0  0
  148.2432  138.9813  152.0623 H   0  0  0  0  0  0  0  0  0  0  0  0
  150.5224  138.5116  153.2106 H   0  0  0  0  0  0  0  0  0  0  0  0
  150.1064  140.1998  153.1289 H   0  0  0  0  0  0  0  0  0  0  0  0
  153.1783  138.5266  153.6440 H   0  0  0  0  0  0  0  0  0  0  0  0
  152.5237  137.1533  154.5300 H   0  0  0  0  0  0  0  0  0  0  0  0
  153.9566  137.9863  155.1264 H   0  0  0  0  0  0  0  0  0  0  0  0
  151.5684  141.9817  158.2377 H   0  0  0  0  0  0  0  0  0  0  0  0
  152.5358  140.6237  158.8442 H   0  0  0  0  0  0  0  0  0  0  0  0
  150.7684  140.5832  158.9853 H   0  0  0  0  0  0  0  0  0  0  0  0
  148.5057  141.0215  155.5887 H   0  0  0  0  0  0  0  0  0  0  0  0
  149.4811  142.2207  156.4363 H   0  0  0  0  0  0  0  0  0  0  0  0
  148.7670  140.8716  157.3228 H   0  0  0  0  0  0  0  0  0  0  0  0
  146.9721  134.1607  153.0686 H   0  0  0  0  0  0  0  0  0  0  0  0
  145.2522  134.5070  153.2959 H   0  0  0  0  0  0  0  0  0  0  0  0
  146.6628  133.7800  150.7041 H   0  0  0  0  0  0  0  0  0  0  0  0
  145.2279  133.0110  151.3872 H   0  0  0  0  0  0  0  0  0  0  0  0
  144.9732  134.9677  149.4955 H   0  0  0  0  0  0  0  0  0  0  0  0
  143.8604  134.8973  150.8578 H   0  0  0  0  0  0  0  0  0  0  0  0
  144.5829  136.9859  151.4268 H   0  0  0  0  0  0  0  0  0  0  0  0
  146.0045  136.9012  150.3890 H   0  0  0  0  0  0  0  0  0  0  0  0
  147.2517  136.1046  151.9446 H   0  0  0  0  0  0  0  0  0  0  0  0
  1  2  1  0  0  0  0
  1 22  1  0  0  0  0
  1 23  1  0  0  0  0
  1 24  1  0  0  0  0
  2  3  1  0  0  0  0
  2 25  1  0  0  0  0
  2 26  1  0  0  0  0
  3  4  1  0  0  0  0
  3 17  1  0  0  0  0
  3 27  1  0  0  0  0
  4  5  1  0  0  0  0
  4 28  1  0  0  0  0
  4 29  1  0  0  0  0
  5  6  1  0  0  0  0
  5 30  1  0  0  0  0
  6  7  2  0  0  0  0
  6  8  1  0  0  0  0
  8  9  1  0  0  0  0
  8 31  1  0  0  0  0
  8 32  1  0  0  0  0
  9 15  2  0  0  0  0
  9 10  1  0  0  0  0
 10 11  1  0  0  0  0
 10 12  2  0  0  0  0
 11 33  1  0  0  0  0
 11 34  1  0  0  0  0
 11 35  1  0  0  0  0
 12 13  1  0  0  0  0
 13 14  1  0  0  0  0
 13 15  1  0  0  0  0
 14 36  1  0  0  0  0
 14 37  1  0  0  0  0
 14 38  1  0  0  0  0
 15 16  1  0  0  0  0
 16 39  1  0  0  0  0
 16 40  1  0  0  0  0
 16 41  1  0  0  0  0
 17 21  1  0  0  0  0
 17 18  1  0  0  0  0
 17 50  1  0  0  0  0
 18 19  1  0  0  0  0
 18 42  1  0  0  0  0
 18 43  1  0  0  0  0
 19 20  1  0  0  0  0
 19 44  1  0  0  0  0
 19 45  1  0  0  0  0
 20 21  1  0  0  0  0
 20 46  1  0  0  0  0
 20 47  1  0  0  0  0
 21 48  1  0  0  0  0
 21 49  1  0  0  0  0
M  CHG  1  17   1
M  END
> <s_m_source_file>
AV-unprocessed.smi

> <i_m_source_file_index>
1312

> <i_lp_mmshare_version>
43012

> <i_f3d_flags>
0

> <s_epik_input>
W0NIMl0xW0NIMl1bQ0gyXVtDSDJdTjFbQ0BIXShbQ0gyXVtDSDNdKVtDSDJdW05IXUMoPU8pW0NIMl1jMmMoW0NIM10pbm4oW0NIM10pYzJbQ0gzXQ==

> <s_epik_cmdline>
J2VwaWtfcHl0aG9uJywgJy1waCcsICc3LjAnLCAnLXRuJywgJzgnLCAnLW1hJywgJzIwMCcsICctbWV0YWxfYmluZGluZycsICctaW1hZScsICc8aW5maWxlLm1hZT4nLCAnLW9tYWUnLCAnPG91dGZpbGUubWFlPic=

> <r_lp_tautomer_probability>
1

> <r_epik_Ionization_Penalty>
0.00585463

> <r_epik_Ionization_Penalty_Charging>
0.00366302

> <r_epik_Ionization_Penalty_Neutral>
0.00219161

> <r_epik_State_Penalty>
-0

> <r_epik_Charging_Adjusted_Penalty>
0.00366302

> <i_epik_Tot_Q>
1

> <i_epik_Tot_abs_Q>
1

> <r_epik_Metal_State_Penalty>
-0

> <b_epik_Metal_Only>
0

> <s_lp_Force_Field>
OPLS_2005

> <r_lp_Energy>
29.647

> <b_lp_Chiralities_Consistent>
1

> <s_lp_Variant>
AV-unprocessed.smi:1312-1

> <Gold.Version>
5.8.1

> <Gold.Id.Protein>
6NUR|6NUR_protein|mol2

> <Gold.PLP.Fitness>
44.6728

> <Gold.PLP.PLP>
-34.2286

> <Gold.PLP.part.hbond>
-4.0000

> <Gold.PLP.part.metal>
0.0000

> <Gold.PLP.part.buried>
1.3790

> <Gold.PLP.part.nonpolar>
-31.5327

> <Gold.PLP.part.repulsive>
0.1227

> <Gold.PLP.ligand.clash>
0.0000

> <Gold.PLP.ligand.torsion>
0.6653

> <Gold.PLP.Chemscore.Hbond>
3.8800

> <Gold.PLP.Chemscore.CHOScore>
0.0000

> <Gold.PLP.Chemscore.Metal>
0.0000

> <Gold.Chemscore.Hbonds>
donor molecule, donor type, donor heavy atom, donor atom, acceptor molecule, acceptor atom, score
      L1  H     5    30       P1  7957  0.86
      L1  H    17    50       P1  7948  2.00
      P1  H  7997  8008       L1    12  1.00

> <Gold.PLP.Chemscore.Internal.Correction>
0.1349

> <Gold.Rescore>
     Score         DG    S(hbond)    S(metal)    S(lipo)     H(rot)  DE(clash)    DE(int)     intcor
     14.91     -19.57       2.60        0.00      83.94       1.72       1.79       2.87       ----

> <Gold.Chemscore.Fitness>
14.9139

> <Gold.Chemscore.DG>
-19.5719

> <Gold.Chemscore.ZeroCoef>
-5.4800

> <Gold.Chemscore.Hbond>
2.5982

> <Gold.Chemscore.Metal>
0.0000

> <Gold.Chemscore.Lipo>
83.9367

> <Gold.Chemscore.Internal_Hbond>
0.0000

> <Gold.Chemscore.DEClash>
1.7889

> <Gold.Chemscore.DEInternal>
2.8691

> <Gold.Chemscore.Rot>
1.7213

> <Gold.Chemscore.Internal.Correction>
   9.000000E+99

> <Gold.Chemscore.Hbonds>
donor molecule, donor type, donor heavy atom, donor atom, acceptor molecule, acceptor atom, score
      L1  H     5    30       P1  7957  0.85
      L1  H    17    50       P1  7948  1.00
      P1  H  7997  8008       L1    12  0.83

> <Gold.Chemscore.Hbond.Weighted>
-8.6779

> <Gold.Chemscore.Metal.Weighted>
-0.0000

> <Gold.Chemscore.Lipo.Weighted>
-9.8206

> <Gold.Chemscore.Internal_Hbond.Weighted>
0.0000

> <Gold.Chemscore.DEClash.Weighted>
1.7889

> <Gold.Chemscore.DEInternal.Weighted>
2.8691

> <Gold.Chemscore.Rot.Weighted>
4.4065

> <Gold.Chemscore.Internal.Correction.Weighted>
   9.000000E+99

> <Gold.Protein.RotatedTorsions>
[ 6907 6896 6895 6894 ] final   71.38 input  -60.11 | X-H torsion
[ 7974 7965 7964 7962 ] final -142.11 input  175.53 | X-H torsion
[ 8008 7997 7996 7995 ] final  -61.14 input   59.86 | X-H torsion
[ 10167 10162 10161 10158 ] final   15.63 input  -65.29 | X-H torsion
[ 10718 10713 10712 10709 ] final   80.06 input   66.30 | X-H torsion
[ 10763 10752 10751 10750 ] final   21.19 input  -60.55 | X-H torsion
[ 11005 11000 10999 10996 ] final   88.71 input  -57.11 | X-H torsion

> <Gold.Protein.ActiveResidues>
 VAL166  LYS551  ARG553  GLY616  TRP617  ASP618  TYR619  PRO620  LYS621  CYS622 
 ASP623  PHE694  ASN695  SER759  ASP760  ASP761  ALA762  ILE779  LEU786  VAL792 
 PHE793  MET794  SER795  GLU796  ALA797  LYS798  CYS799  TRP800  GLU811  SER814 

> <Gold.Protein.RotatedAtoms>
  152.4806  134.4729  159.9640 H   0  0  0  0  0  0  0  0  0  0  0  0  # atno 6907 bound_to 6896
  151.4735  133.3557  159.2835 H   0  0  0  0  0  0  0  0  0  0  0  0  # atno 6908 bound_to 6896
  150.8876  134.8302  159.7331 H   0  0  0  0  0  0  0  0  0  0  0  0  # atno 6909 bound_to 6896
  144.8468  140.5998  143.5416 H   0  0  0  0  0  0  0  0  0  0  0  0  # atno 7974 bound_to 7965
  154.4433  140.1024  156.6384 H   0  0  0  0  0  0  0  0  0  0  0  0  # atno 8008 bound_to 7997
  155.5528  140.3486  155.4454 H   0  0  0  0  0  0  0  0  0  0  0  0  # atno 8009 bound_to 7997
  156.0516  140.1305  157.0032 H   0  0  0  0  0  0  0  0  0  0  0  0  # atno 8010 bound_to 7997
  140.5854  143.8900  150.6826 H   0  0  0  0  0  0  0  0  0  0  0  0  # atno 10167 bound_to 10162
  157.6795  130.9942  150.2023 H   0  0  0  0  0  0  0  0  0  0  0  0  # atno 10718 bound_to 10713
  153.1015  135.6674  153.9664 H   0  0  0  0  0  0  0  0  0  0  0  0  # atno 10763 bound_to 10752
  153.9233  135.3012  155.3448 H   0  0  0  0  0  0  0  0  0  0  0  0  # atno 10764 bound_to 10752
  154.7436  135.5068  153.9240 H   0  0  0  0  0  0  0  0  0  0  0  0  # atno 10765 bound_to 10752
  139.8890  134.8505  156.3038 H   0  0  0  0  0  0  0  0  0  0  0  0  # atno 11005 bound_to 11000
  145.4580  139.1516  143.3882 LP  0  0  0  0  0  0  0  0  0  0  0  0  # atno 17320 bound_to 7965
  146.2751  140.4709  142.8798 LP  0  0  0  0  0  0  0  0  0  0  0  0  # atno 17321 bound_to 7965
  140.2409  143.3664  152.1487 LP  0  0  0  0  0  0  0  0  0  0  0  0  # atno 17342 bound_to 10162
  139.5194  144.7019  151.5467 LP  0  0  0  0  0  0  0  0  0  0  0  0  # atno 17343 bound_to 10162
  156.2711  130.3722  149.8030 LP  0  0  0  0  0  0  0  0  0  0  0  0  # atno 17370 bound_to 10713
  156.5747  130.8440  151.3366 LP  0  0  0  0  0  0  0  0  0  0  0  0  # atno 17371 bound_to 10713
  140.9895  133.7217  156.0793 LP  0  0  0  0  0  0  0  0  0  0  0  0  # atno 17394 bound_to 11000
  140.7643  134.3904  157.5520 LP  0  0  0  0  0  0  0  0  0  0  0  0  # atno 17395 bound_to 11000

$$$$
