AV-unprocessed.smi:532|AV-procd|sdf|2850|dock8
  -GOLD-   2262023343D 1   1.00000     0.00000
 Structure written by MMmdl.
 49 51  0  0  0  0  0  0  0  0  1 V2000
  150.1417  137.2460  158.9951 C   0  0  0  0  0  0  0  0  0  0  0  0
  150.7143  137.8770  157.8633 O   0  0  0  0  0  0  0  0  0  0  0  0
  152.0112  138.3843  158.1257 C   0  0  0  0  0  0  0  0  0  0  0  0
  152.4051  139.3502  157.0022 C   0  0  0  0  0  0  0  0  0  0  0  0
  151.2553  140.0999  156.5158 N   0  0  0  0  0  0  0  0  0  0  0  0
  150.7441  141.2585  157.0038 C   0  0  0  0  0  0  0  0  0  0  0  0
  151.3068  141.8869  158.1108 N   0  0  0  0  0  0  0  0  0  0  0  0
  151.5985  141.1766  159.3569 C   0  0  0  0  0  0  0  0  0  0  0  0
  152.8253  141.7282  160.1181 C   0  0  1  0  0  0  0  0  0  0  0  0
  154.1654  141.3243  159.4814 C   0  0  0  0  0  0  0  0  0  0  0  0
  152.7002  143.2480  160.3215 C   0  0  0  0  0  0  0  0  0  0  0  0
  152.3673  143.9604  159.0008 C   0  0  2  0  0  0  0  0  0  0  0  0
  152.1678  145.4673  159.2121 C   0  0  0  0  0  0  0  0  0  0  0  0
  151.1245  143.3138  158.3634 C   0  0  0  0  0  0  0  0  0  0  0  0
  149.6857  141.7302  156.3389 N   0  0  0  0  0  0  0  0  0  0  0  0
  149.4983  140.7774  155.3479 C   0  0  0  0  0  0  0  0  0  0  0  0
  150.4251  139.7908  155.4398 C   0  0  0  0  0  0  0  0  0  0  0  0
  150.4554  138.6487  154.5193 C   0  0  0  0  0  0  0  0  0  0  0  0
  151.2792  137.7398  154.5947 O   0  0  0  0  0  0  0  0  0  0  0  0
  149.4787  138.6996  153.5809 N   0  0  0  0  0  0  0  0  0  0  0  0
  148.5170  139.6618  153.4303 C   0  0  0  0  0  0  0  0  0  0  0  0
  147.6930  139.5623  152.5216 O   0  0  0  0  0  0  0  0  0  0  0  0
  148.5196  140.7097  154.3180 N   0  0  0  0  0  0  0  0  0  0  0  0
  147.5330  141.7892  154.2467 C   0  0  0  0  0  0  0  0  0  0  0  0
  149.4560  137.9387  152.9179 H   0  0  0  0  0  0  0  0  0  0  0  0
  149.1484  136.8738  158.7444 H   0  0  0  0  0  0  0  0  0  0  0  0
  150.0399  137.9447  159.8265 H   0  0  0  0  0  0  0  0  0  0  0  0
  150.7455  136.3983  159.3219 H   0  0  0  0  0  0  0  0  0  0  0  0
  152.0260  138.8983  159.0880 H   0  0  0  0  0  0  0  0  0  0  0  0
  152.7277  137.5643  158.1846 H   0  0  0  0  0  0  0  0  0  0  0  0
  153.1667  140.0496  157.3449 H   0  0  0  0  0  0  0  0  0  0  0  0
  152.8588  138.8093  156.1722 H   0  0  0  0  0  0  0  0  0  0  0  0
  150.7156  141.2435  159.9939 H   0  0  0  0  0  0  0  0  0  0  0  0
  151.7376  140.1158  159.1452 H   0  0  0  0  0  0  0  0  0  0  0  0
  152.8176  141.2701  161.1075 H   0  0  0  0  0  0  0  0  0  0  0  0
  154.2846  141.7363  158.4813 H   0  0  0  0  0  0  0  0  0  0  0  0
  154.2526  140.2402  159.4092 H   0  0  0  0  0  0  0  0  0  0  0  0
  155.0042  141.6774  160.0815 H   0  0  0  0  0  0  0  0  0  0  0  0
  151.9065  143.4446  161.0438 H   0  0  0  0  0  0  0  0  0  0  0  0
  153.6156  143.6517  160.7559 H   0  0  0  0  0  0  0  0  0  0  0  0
  153.2061  143.8359  158.3147 H   0  0  0  0  0  0  0  0  0  0  0  0
  151.3301  145.6668  159.8813 H   0  0  0  0  0  0  0  0  0  0  0  0
  151.9673  145.9722  158.2667 H   0  0  0  0  0  0  0  0  0  0  0  0
  153.0575  145.9237  159.6467 H   0  0  0  0  0  0  0  0  0  0  0  0
  150.8963  143.8110  157.4197 H   0  0  0  0  0  0  0  0  0  0  0  0
  150.2530  143.4517  159.0047 H   0  0  0  0  0  0  0  0  0  0  0  0
  146.8152  141.6833  153.4327 H   0  0  0  0  0  0  0  0  0  0  0  0
  148.0385  142.7463  154.1139 H   0  0  0  0  0  0  0  0  0  0  0  0
  146.9666  141.8357  155.1773 H   0  0  0  0  0  0  0  0  0  0  0  0
  1  2  1  0  0  0  0
  1 26  1  0  0  0  0
  1 27  1  0  0  0  0
  1 28  1  0  0  0  0
  2  3  1  0  0  0  0
  3  4  1  0  0  0  0
  3 29  1  0  0  0  0
  3 30  1  0  0  0  0
  4  5  1  0  0  0  0
  4 31  1  0  0  0  0
  4 32  1  0  0  0  0
  5 17  1  0  0  0  0
  5  6  1  0  0  0  0
  6  7  1  0  0  0  0
  6 15  2  0  0  0  0
  7 14  1  0  0  0  0
  7  8  1  0  0  0  0
  8  9  1  0  0  0  0
  8 33  1  0  0  0  0
  8 34  1  0  0  0  0
  9 10  1  0  0  0  0
  9 11  1  0  0  0  0
  9 35  1  0  0  0  0
 10 36  1  0  0  0  0
 10 37  1  0  0  0  0
 10 38  1  0  0  0  0
 11 12  1  0  0  0  0
 11 39  1  0  0  0  0
 11 40  1  0  0  0  0
 12 13  1  0  0  0  0
 12 14  1  0  0  0  0
 12 41  1  0  0  0  0
 13 42  1  0  0  0  0
 13 43  1  0  0  0  0
 13 44  1  0  0  0  0
 14 45  1  0  0  0  0
 14 46  1  0  0  0  0
 15 16  1  0  0  0  0
 16 23  1  0  0  0  0
 16 17  2  0  0  0  0
 17 18  1  0  0  0  0
 18 19  2  0  0  0  0
 18 20  1  0  0  0  0
 20 25  1  0  0  0  0
 20 21  1  0  0  0  0
 21 22  2  0  0  0  0
 21 23  1  0  0  0  0
 23 24  1  0  0  0  0
 24 47  1  0  0  0  0
 24 48  1  0  0  0  0
 24 49  1  0  0  0  0
M  END
> <s_m_source_file>
AV-unprocessed.smi

> <i_m_source_file_index>
532

> <i_lp_mmshare_version>
43012

> <i_f3d_flags>
0

> <s_epik_input>
W0NIM11uMWMoPU8pW25IXWMoPU8pYyhjMTIpbihbQ0gyXVtDSDJdT1tDSDNdKWMobjIpTjNbQ0gyXVtDQEBIXShbQ0gzXSlbQ0gyXVtDQEBIXShbQ0gzXSlbQ0gyXTM=

> <s_epik_cmdline>
J2VwaWtfcHl0aG9uJywgJy1waCcsICc3LjAnLCAnLXRuJywgJzgnLCAnLW1hJywgJzIwMCcsICctbWV0YWxfYmluZGluZycsICctaW1hZScsICc8aW5maWxlLm1hZT4nLCAnLW9tYWUnLCAnPG91dGZpbGUubWFlPic=

> <r_lp_tautomer_probability>
1

> <r_epik_Ionization_Penalty>
0.000642525

> <r_epik_Ionization_Penalty_Charging>
0.000121571

> <r_epik_Ionization_Penalty_Neutral>
0.000520954

> <r_epik_State_Penalty>
-0

> <r_epik_Charging_Adjusted_Penalty>
0.000121571

> <i_epik_Tot_Q>
0

> <i_epik_Tot_abs_Q>
0

> <r_epik_Metal_State_Penalty>
0.0931709

> <b_epik_Metal_Only>
0

> <s_lp_Force_Field>
OPLS_2005

> <r_lp_Energy>
43.7667

> <b_lp_Chiralities_Consistent>
1

> <s_lp_Variant>
AV-unprocessed.smi:532-3

> <Gold.Version>
5.8.1

> <Gold.Id.Protein>
6NUR|6NUR_protein|mol2

> <Gold.PLP.Fitness>
44.8319

> <Gold.PLP.PLP>
-43.1472

> <Gold.PLP.part.hbond>
-2.0000

> <Gold.PLP.part.metal>
0.0000

> <Gold.PLP.part.buried>
-3.4857

> <Gold.PLP.part.nonpolar>
-43.2738

> <Gold.PLP.part.repulsive>
5.3763

> <Gold.PLP.ligand.clash>
0.0000

> <Gold.PLP.ligand.torsion>
1.0992

> <Gold.PLP.Chemscore.Hbond>
1.0000

> <Gold.PLP.Chemscore.CHOScore>
0.0000

> <Gold.PLP.Chemscore.Metal>
0.0000

> <Gold.Chemscore.Hbonds>
donor molecule, donor type, donor heavy atom, donor atom, acceptor molecule, acceptor atom, score
      L1  H    20    25       P1  7948  1.00

> <Gold.PLP.Chemscore.Internal.Correction>
0.8830

> <Gold.Rescore>
     Score         DG    S(hbond)    S(metal)    S(lipo)     H(rot)  DE(clash)    DE(int)     intcor
     14.92     -16.81       0.92        0.00     101.81       1.43       0.61       1.29       ----

> <Gold.Chemscore.Fitness>
14.9163

> <Gold.Chemscore.DG>
-16.8120

> <Gold.Chemscore.ZeroCoef>
-5.4800

> <Gold.Chemscore.Hbond>
0.9242

> <Gold.Chemscore.Metal>
0.0000

> <Gold.Chemscore.Lipo>
101.8118

> <Gold.Chemscore.Internal_Hbond>
0.0000

> <Gold.Chemscore.DEClash>
0.6068

> <Gold.Chemscore.DEInternal>
1.2889

> <Gold.Chemscore.Rot>
1.4324

> <Gold.Chemscore.Internal.Correction>
   9.000000E+99

> <Gold.Chemscore.Hbonds>
donor molecule, donor type, donor heavy atom, donor atom, acceptor molecule, acceptor atom, score
      L1  H    20    25       P1  7948  0.82

> <Gold.Chemscore.Hbond.Weighted>
-3.0869

> <Gold.Chemscore.Metal.Weighted>
-0.0000

> <Gold.Chemscore.Lipo.Weighted>
-11.9120

> <Gold.Chemscore.Internal_Hbond.Weighted>
0.0000

> <Gold.Chemscore.DEClash.Weighted>
0.6068

> <Gold.Chemscore.DEInternal.Weighted>
1.2889

> <Gold.Chemscore.Rot.Weighted>
3.6669

> <Gold.Chemscore.Internal.Correction.Weighted>
   9.000000E+99

> <Gold.Protein.RotatedTorsions>
[ 6907 6896 6895 6894 ] final  -22.95 input  -60.11 | X-H torsion
[ 7974 7965 7964 7962 ] final -125.97 input  175.53 | X-H torsion
[ 8008 7997 7996 7995 ] final -160.25 input   59.86 | X-H torsion
[ 10167 10162 10161 10158 ] final -137.90 input  -65.29 | X-H torsion
[ 10718 10713 10712 10709 ] final  172.32 input   66.30 | X-H torsion
[ 10763 10752 10751 10750 ] final  103.69 input  -60.55 | X-H torsion
[ 11005 11000 10999 10996 ] final  -73.76 input  -57.11 | X-H torsion

> <Gold.Protein.ActiveResidues>
 VAL166  LYS551  ARG553  GLY616  TRP617  ASP618  TYR619  PRO620  LYS621  CYS622 
 ASP623  PHE694  ASN695  SER759  ASP760  ASP761  ALA762  ILE779  LEU786  VAL792 
 PHE793  MET794  SER795  GLU796  ALA797  LYS798  CYS799  TRP800  GLU811  SER814 

> <Gold.Protein.RotatedAtoms>
  151.2112  135.0482  159.8911 H   0  0  0  0  0  0  0  0  0  0  0  0  # atno 6907 bound_to 6896
  152.5424  134.0743  159.8218 H   0  0  0  0  0  0  0  0  0  0  0  0  # atno 6908 bound_to 6896
  151.0897  133.5278  159.2647 H   0  0  0  0  0  0  0  0  0  0  0  0  # atno 6909 bound_to 6896
  144.9921  140.7742  143.4548 H   0  0  0  0  0  0  0  0  0  0  0  0  # atno 7974 bound_to 7965
  155.7746  140.0856  157.2090 H   0  0  0  0  0  0  0  0  0  0  0  0  # atno 8008 bound_to 7997
  154.3994  140.1519  156.3039 H   0  0  0  0  0  0  0  0  0  0  0  0  # atno 8009 bound_to 7997
  155.8713  140.3425  155.5826 H   0  0  0  0  0  0  0  0  0  0  0  0  # atno 8010 bound_to 7997
  139.8531  143.7172  152.2656 H   0  0  0  0  0  0  0  0  0  0  0  0  # atno 10167 bound_to 10162
  156.9807  131.0118  151.2882 H   0  0  0  0  0  0  0  0  0  0  0  0  # atno 10718 bound_to 10713
  153.3560  135.3968  155.1682 H   0  0  0  0  0  0  0  0  0  0  0  0  # atno 10763 bound_to 10752
  154.8671  135.3668  154.5161 H   0  0  0  0  0  0  0  0  0  0  0  0  # atno 10764 bound_to 10752
  153.5616  135.7081  153.5605 H   0  0  0  0  0  0  0  0  0  0  0  0  # atno 10765 bound_to 10752
  141.1627  133.6889  156.7261 H   0  0  0  0  0  0  0  0  0  0  0  0  # atno 11005 bound_to 11000
  145.2271  139.2132  143.5062 LP  0  0  0  0  0  0  0  0  0  0  0  0  # atno 17320 bound_to 7965
  146.3433  140.2141  142.8590 LP  0  0  0  0  0  0  0  0  0  0  0  0  # atno 17321 bound_to 7965
  139.7445  144.7551  151.0600 LP  0  0  0  0  0  0  0  0  0  0  0  0  # atno 17342 bound_to 10162
  140.7785  143.4932  150.9866 LP  0  0  0  0  0  0  0  0  0  0  0  0  # atno 17343 bound_to 10162
  157.5528  130.8194  149.8167 LP  0  0  0  0  0  0  0  0  0  0  0  0  # atno 17370 bound_to 10713
  156.0245  130.3784  150.1862 LP  0  0  0  0  0  0  0  0  0  0  0  0  # atno 17371 bound_to 10713
  140.2780  134.8339  157.3907 LP  0  0  0  0  0  0  0  0  0  0  0  0  # atno 17394 bound_to 11000
  140.1460  134.4911  155.7996 LP  0  0  0  0  0  0  0  0  0  0  0  0  # atno 17395 bound_to 11000

$$$$
