AV-unprocessed.smi:3336|AV-procd|sdf|12854|dock4
  -GOLD-   2272019243D 1   1.00000     0.00000
 Structure written by MMmdl.
 42 43  0  0  0  0  0  0  0  0  2 V2000
  146.5538  138.8043  151.4241 C   0  0  0  0  0  0  0  0  0  0  0  0
  146.2282  138.4222  152.8807 C   0  0  1  0  0  0  0  0  0  0  0  0
  145.0958  137.3788  152.9736 C   0  0  0  0  0  0  0  0  0  0  0  0
  145.3730  136.1685  152.2205 N   0  0  0  0  0  0  0  0  0  0  0  0
  144.9514  135.8299  150.9517 C   0  0  0  0  0  0  0  0  0  0  0  0
  145.4726  134.6007  150.6653 C   0  0  0  0  0  0  0  0  0  0  0  0
  146.2159  134.2679  151.8323 C   0  0  0  0  0  0  0  0  0  0  0  0
  146.1565  135.2098  152.7601 N   0  0  0  0  0  0  0  0  0  0  0  0
  147.4314  137.8984  153.5701 N   0  3  0  0  0  0  0  0  0  0  0  0
  148.3608  138.9123  154.1278 C   0  0  2  0  0  0  0  0  0  0  0  0
  149.7136  138.2430  154.4235 C   0  0  0  0  0  0  0  0  0  0  0  0
  147.7927  139.5608  155.4093 C   0  0  0  0  0  0  0  0  0  0  0  0
  147.5727  138.8294  156.3767 O   0  0  0  0  0  0  0  0  0  0  0  0
  147.5537  140.8958  155.4531 N   0  0  0  0  0  0  0  0  0  0  0  0
  147.8275  141.7883  154.3213 C   0  0  0  0  0  0  0  0  0  0  0  0
  146.4985  142.3958  153.8408 C   0  0  0  0  0  0  0  0  0  0  0  0
  145.8801  143.0967  154.9159 O   0  0  0  0  0  0  0  0  0  0  0  0
  145.6181  142.2657  156.0431 C   0  0  0  0  0  0  0  0  0  0  0  0
  146.9326  141.6451  156.5521 C   0  0  0  0  0  0  0  0  0  0  0  0
  145.6874  139.2372  150.9232 H   0  0  0  0  0  0  0  0  0  0  0  0
  146.8669  137.9329  150.8481 H   0  0  0  0  0  0  0  0  0  0  0  0
  147.3522  139.5435  151.3660 H   0  0  0  0  0  0  0  0  0  0  0  0
  145.8937  139.3187  153.4046 H   0  0  0  0  0  0  0  0  0  0  0  0
  144.9195  137.1039  154.0146 H   0  0  0  0  0  0  0  0  0  0  0  0
  144.1616  137.8017  152.6007 H   0  0  0  0  0  0  0  0  0  0  0  0
  144.3216  136.4824  150.3647 H   0  0  0  0  0  0  0  0  0  0  0  0
  145.3456  134.0277  149.7588 H   0  0  0  0  0  0  0  0  0  0  0  0
  146.7938  133.3771  152.0309 H   0  0  0  0  0  0  0  0  0  0  0  0
  147.1269  137.3235  154.3433 H   0  0  0  0  0  0  0  0  0  0  0  0
  148.5021  139.6679  153.3576 H   0  0  0  0  0  0  0  0  0  0  0  0
  150.4452  138.9554  154.8050 H   0  0  0  0  0  0  0  0  0  0  0  0
  150.1347  137.8019  153.5195 H   0  0  0  0  0  0  0  0  0  0  0  0
  149.6124  137.4474  155.1629 H   0  0  0  0  0  0  0  0  0  0  0  0
  148.5075  142.5789  154.6420 H   0  0  0  0  0  0  0  0  0  0  0  0
  148.3223  141.2876  153.4883 H   0  0  0  0  0  0  0  0  0  0  0  0
  146.6760  143.0917  153.0208 H   0  0  0  0  0  0  0  0  0  0  0  0
  145.8291  141.6205  153.4648 H   0  0  0  0  0  0  0  0  0  0  0  0
  145.1570  142.8686  156.8257 H   0  0  0  0  0  0  0  0  0  0  0  0
  144.8993  141.4904  155.7733 H   0  0  0  0  0  0  0  0  0  0  0  0
  146.7184  141.0502  157.4363 H   0  0  0  0  0  0  0  0  0  0  0  0
  147.6143  142.4314  156.8797 H   0  0  0  0  0  0  0  0  0  0  0  0
  147.9347  137.3150  152.9174 H   0  0  0  0  0  0  0  0  0  0  0  0
  1  2  1  0  0  0  0
  1 20  1  0  0  0  0
  1 21  1  0  0  0  0
  1 22  1  0  0  0  0
  2  3  1  0  0  0  0
  2  9  1  0  0  0  0
  2 23  1  0  0  0  0
  3  4  1  0  0  0  0
  3 24  1  0  0  0  0
  3 25  1  0  0  0  0
  4  8  1  0  0  0  0
  4  5  1  0  0  0  0
  5  6  2  0  0  0  0
  5 26  1  0  0  0  0
  6  7  1  0  0  0  0
  6 27  1  0  0  0  0
  7  8  2  0  0  0  0
  7 28  1  0  0  0  0
  9 10  1  0  0  0  0
  9 29  1  0  0  0  0
  9 42  1  0  0  0  0
 10 11  1  0  0  0  0
 10 12  1  0  0  0  0
 10 30  1  0  0  0  0
 11 31  1  0  0  0  0
 11 32  1  0  0  0  0
 11 33  1  0  0  0  0
 12 13  2  0  0  0  0
 12 14  1  0  0  0  0
 14 19  1  0  0  0  0
 14 15  1  0  0  0  0
 15 16  1  0  0  0  0
 15 34  1  0  0  0  0
 15 35  1  0  0  0  0
 16 17  1  0  0  0  0
 16 36  1  0  0  0  0
 16 37  1  0  0  0  0
 17 18  1  0  0  0  0
 18 19  1  0  0  0  0
 18 38  1  0  0  0  0
 18 39  1  0  0  0  0
 19 40  1  0  0  0  0
 19 41  1  0  0  0  0
M  CHG  1   9   1
M  END
> <s_m_source_file>
AV-unprocessed.smi

> <i_m_source_file_index>
3336

> <i_lp_mmshare_version>
43012

> <i_f3d_flags>
0

> <s_epik_input>
bjFbY0hdW2NIXVtjSF1uMVtDSDJdW0NAQEhdKFtDSDNdKVtOSF1bQ0BIXShbQ0gzXSlDKD1PKU4yW0NIMl1bQ0gyXU9bQ0gyXVtDSDJdMg==

> <s_epik_cmdline>
J2VwaWtfcHl0aG9uJywgJy1waCcsICc3LjAnLCAnLXRuJywgJzgnLCAnLW1hJywgJzIwMCcsICctbWV0YWxfYmluZGluZycsICctaW1hZScsICc8aW5maWxlLm1hZT4nLCAnLW9tYWUnLCAnPG91dGZpbGUubWFlPic=

> <r_lp_tautomer_probability>
1

> <r_epik_Ionization_Penalty>
0.200288

> <r_epik_Ionization_Penalty_Charging>
0.200285

> <r_epik_Ionization_Penalty_Neutral>
3.37705e-06

> <r_epik_State_Penalty>
0.190126

> <r_epik_Charging_Adjusted_Penalty>
0.39041

> <i_epik_Tot_Q>
1

> <i_epik_Tot_abs_Q>
1

> <r_epik_Metal_State_Penalty>
0.190133

> <b_epik_Metal_Only>
0

> <s_lp_Force_Field>
OPLS_2005

> <r_lp_Energy>
27.5118

> <b_lp_Chiralities_Consistent>
1

> <s_lp_Variant>
AV-unprocessed.smi:3336-2

> <Gold.Version>
5.8.1

> <Gold.Id.Protein>
6NUR|6NUR_protein|mol2

> <Gold.PLP.Fitness>
37.3440

> <Gold.PLP.PLP>
-29.7339

> <Gold.PLP.part.hbond>
-1.0000

> <Gold.PLP.part.metal>
0.0000

> <Gold.PLP.part.buried>
-3.5139

> <Gold.PLP.part.nonpolar>
-26.7363

> <Gold.PLP.part.repulsive>
0.6492

> <Gold.PLP.ligand.clash>
0.0000

> <Gold.PLP.ligand.torsion>
0.7362

> <Gold.PLP.Chemscore.Hbond>
2.0000

> <Gold.PLP.Chemscore.CHOScore>
1.0000

> <Gold.PLP.Chemscore.Metal>
0.0000

> <Gold.Chemscore.Hbonds>
donor molecule, donor type, donor heavy atom, donor atom, acceptor molecule, acceptor atom, score
      L1  H     9    42       P1  7948  2.00
      L1  C     5    26       P1 10171  1.00

> <Gold.PLP.Chemscore.Internal.Correction>
0.0824

> <Gold.Rescore>
     Score         DG    S(hbond)    S(metal)    S(lipo)     H(rot)  DE(clash)    DE(int)     intcor
     11.28     -12.08       1.00        0.00      68.46       1.85       0.07       0.74       ----

> <Gold.Chemscore.Fitness>
11.2759

> <Gold.Chemscore.DG>
-12.0831

> <Gold.Chemscore.ZeroCoef>
-5.4800

> <Gold.Chemscore.Hbond>
1.0000

> <Gold.Chemscore.Metal>
0.0000

> <Gold.Chemscore.Lipo>
68.4585

> <Gold.Chemscore.Internal_Hbond>
0.0000

> <Gold.Chemscore.DEClash>
0.0710

> <Gold.Chemscore.DEInternal>
0.7362

> <Gold.Chemscore.Rot>
1.8541

> <Gold.Chemscore.Internal.Correction>
   9.000000E+99

> <Gold.Chemscore.Hbonds>
donor molecule, donor type, donor heavy atom, donor atom, acceptor molecule, acceptor atom, score
      L1  H     9    42       P1  7948  1.00

> <Gold.Chemscore.Hbond.Weighted>
-3.3400

> <Gold.Chemscore.Metal.Weighted>
-0.0000

> <Gold.Chemscore.Lipo.Weighted>
-8.0096

> <Gold.Chemscore.Internal_Hbond.Weighted>
0.0000

> <Gold.Chemscore.DEClash.Weighted>
0.0710

> <Gold.Chemscore.DEInternal.Weighted>
0.7362

> <Gold.Chemscore.Rot.Weighted>
4.7465

> <Gold.Chemscore.Internal.Correction.Weighted>
   9.000000E+99

> <Gold.Protein.RotatedTorsions>
[ 6907 6896 6895 6894 ] final   27.32 input  -60.11 | X-H torsion
[ 7974 7965 7964 7962 ] final -161.81 input  175.53 | X-H torsion
[ 8008 7997 7996 7995 ] final -155.55 input   59.86 | X-H torsion
[ 10167 10162 10161 10158 ] final   78.73 input  -65.29 | X-H torsion
[ 10718 10713 10712 10709 ] final  154.33 input   66.30 | X-H torsion
[ 10763 10752 10751 10750 ] final  159.62 input  -60.55 | X-H torsion
[ 11005 11000 10999 10996 ] final    1.31 input  -57.11 | X-H torsion

> <Gold.Protein.ActiveResidues>
 VAL166  LYS551  ARG553  GLY616  TRP617  ASP618  TYR619  PRO620  LYS621  CYS622 
 ASP623  PHE694  ASN695  SER759  ASP760  ASP761  ALA762  ILE779  LEU786  VAL792 
 PHE793  MET794  SER795  GLU796  ALA797  LYS798  CYS799  TRP800  GLU811  SER814 

> <Gold.Protein.RotatedAtoms>
  152.0005  134.9931  160.0564 H   0  0  0  0  0  0  0  0  0  0  0  0  # atno 6907 bound_to 6896
  152.1523  133.4525  159.4828 H   0  0  0  0  0  0  0  0  0  0  0  0  # atno 6908 bound_to 6896
  150.6877  134.2091  159.4395 H   0  0  0  0  0  0  0  0  0  0  0  0  # atno 6909 bound_to 6896
  144.7378  140.3344  143.6147 H   0  0  0  0  0  0  0  0  0  0  0  0  # atno 7974 bound_to 7965
  155.7035  140.0769  157.2400 H   0  0  0  0  0  0  0  0  0  0  0  0  # atno 8008 bound_to 7997
  154.4069  140.1643  156.2271 H   0  0  0  0  0  0  0  0  0  0  0  0  # atno 8009 bound_to 7997
  155.9346  140.3389  155.6280 H   0  0  0  0  0  0  0  0  0  0  0  0  # atno 8010 bound_to 7997
  139.9679  144.5915  150.8012 H   0  0  0  0  0  0  0  0  0  0  0  0  # atno 10167 bound_to 10162
  157.2331  131.0743  151.1841 H   0  0  0  0  0  0  0  0  0  0  0  0  # atno 10718 bound_to 10713
  154.2346  135.2777  155.2877 H   0  0  0  0  0  0  0  0  0  0  0  0  # atno 10763 bound_to 10752
  154.5595  135.5651  153.6998 H   0  0  0  0  0  0  0  0  0  0  0  0  # atno 10764 bound_to 10752
  153.0013  135.6294  154.2489 H   0  0  0  0  0  0  0  0  0  0  0  0  # atno 10765 bound_to 10752
  140.6168  133.9697  155.8205 H   0  0  0  0  0  0  0  0  0  0  0  0  # atno 11005 bound_to 11000
  145.7439  139.1772  143.2360 LP  0  0  0  0  0  0  0  0  0  0  0  0  # atno 17320 bound_to 7965
  146.1113  140.7425  142.9502 LP  0  0  0  0  0  0  0  0  0  0  0  0  # atno 17321 bound_to 7965
  140.7532  143.3004  151.3096 LP  0  0  0  0  0  0  0  0  0  0  0  0  # atno 17342 bound_to 10162
  139.6504  144.0373  152.2622 LP  0  0  0  0  0  0  0  0  0  0  0  0  # atno 17343 bound_to 10162
  157.3458  130.7056  149.6409 LP  0  0  0  0  0  0  0  0  0  0  0  0  # atno 17370 bound_to 10713
  155.9674  130.4267  150.4709 LP  0  0  0  0  0  0  0  0  0  0  0  0  # atno 17371 bound_to 10713
  141.0770  134.0120  157.3443 LP  0  0  0  0  0  0  0  0  0  0  0  0  # atno 17394 bound_to 11000
  139.9169  135.0197  156.7917 LP  0  0  0  0  0  0  0  0  0  0  0  0  # atno 17395 bound_to 11000

$$$$
