AV-unprocessed.smi:557|AV-procd|sdf|2914|dock6
  -GOLD-   2262023403D 1   1.00000     0.00000
 Structure written by MMmdl.
 47 49  0  0  0  0  0  0  0  0  2 V2000
  152.6925  142.0678  159.8449 C   0  0  0  0  0  0  0  0  0  0  0  0
  152.0186  141.8494  158.5829 N   0  0  0  0  0  0  0  0  0  0  0  0
  151.8566  140.6711  157.8866 C   0  0  0  0  0  0  0  0  0  0  0  0
  151.1545  140.9598  156.7503 C   0  0  0  0  0  0  0  0  0  0  0  0
  150.7218  140.0304  155.6514 C   0  0  0  0  0  0  0  0  0  0  0  0
  149.7028  140.6998  154.7205 C   0  0  0  0  0  0  0  0  0  0  0  0
  148.8452  139.6991  154.0916 N   0  0  0  0  0  0  0  0  0  0  0  0
  148.2104  138.6798  154.6944 C   0  0  0  0  0  0  0  0  0  0  0  0
  148.2909  138.4869  155.9058 O   0  0  0  0  0  0  0  0  0  0  0  0
  147.4832  137.9077  153.8684 N   0  0  0  0  0  0  0  0  0  0  0  0
  146.7074  136.7361  154.2708 C   0  0  2  0  0  0  0  0  0  0  0  0
  147.5746  135.6285  154.8992 C   0  0  0  0  0  0  0  0  0  0  0  0
  147.0065  134.3232  154.3329 C   0  0  0  0  0  0  0  0  0  0  0  0
  146.5671  134.7133  152.9884 N   0  3  1  0  0  0  0  0  0  0  0  0
  145.7360  133.7690  152.2144 C   0  0  0  0  0  0  0  0  0  0  0  0
  145.5691  134.3257  150.7841 C   0  0  0  0  0  0  0  0  0  0  0  0
  145.0551  135.7836  150.7794 C   0  0  0  0  0  0  0  0  0  0  0  0
  145.8886  136.6908  151.7105 C   0  0  0  0  0  0  0  0  0  0  0  0
  145.9542  136.0476  153.1074 C   0  0  2  0  0  0  0  0  0  0  0  0
  150.9287  142.3626  156.8487 C   0  0  0  0  0  0  0  0  0  0  0  0
  151.4475  142.8915  157.9449 N   0  0  0  0  0  0  0  0  0  0  0  0
  153.1862  141.1510  160.1690 H   0  0  0  0  0  0  0  0  0  0  0  0
  151.9681  142.3681  160.6023 H   0  0  0  0  0  0  0  0  0  0  0  0
  153.4420  142.8522  159.7340 H   0  0  0  0  0  0  0  0  0  0  0  0
  152.2509  139.7342  158.2518 H   0  0  0  0  0  0  0  0  0  0  0  0
  151.5836  139.7026  155.0686 H   0  0  0  0  0  0  0  0  0  0  0  0
  150.2853  139.1232  156.0710 H   0  0  0  0  0  0  0  0  0  0  0  0
  149.0895  141.4023  155.2876 H   0  0  0  0  0  0  0  0  0  0  0  0
  150.2225  141.2690  153.9478 H   0  0  0  0  0  0  0  0  0  0  0  0
  148.7184  139.7879  153.0935 H   0  0  0  0  0  0  0  0  0  0  0  0
  147.4779  138.1447  152.8868 H   0  0  0  0  0  0  0  0  0  0  0  0
  145.9718  137.0440  155.0168 H   0  0  0  0  0  0  0  0  0  0  0  0
  148.6134  135.7351  154.5823 H   0  0  0  0  0  0  0  0  0  0  0  0
  147.5603  135.6506  155.9895 H   0  0  0  0  0  0  0  0  0  0  0  0
  147.7424  133.5194  154.3052 H   0  0  0  0  0  0  0  0  0  0  0  0
  146.1488  133.9902  154.9196 H   0  0  0  0  0  0  0  0  0  0  0  0
  146.2192  132.7919  152.1838 H   0  0  0  0  0  0  0  0  0  0  0  0
  144.7666  133.6370  152.6975 H   0  0  0  0  0  0  0  0  0  0  0  0
  146.5315  134.2871  150.2718 H   0  0  0  0  0  0  0  0  0  0  0  0
  144.8931  133.6896  150.2123 H   0  0  0  0  0  0  0  0  0  0  0  0
  145.0636  136.1811  149.7640 H   0  0  0  0  0  0  0  0  0  0  0  0
  144.0140  135.7955  151.1041 H   0  0  0  0  0  0  0  0  0  0  0  0
  146.8923  136.8241  151.3046 H   0  0  0  0  0  0  0  0  0  0  0  0
  145.4321  137.6793  151.7639 H   0  0  0  0  0  0  0  0  0  0  0  0
  144.9284  135.9051  153.4549 H   0  0  0  0  0  0  0  0  0  0  0  0
  150.4074  143.0084  156.1575 H   0  0  0  0  0  0  0  0  0  0  0  0
  147.4169  134.8453  152.4585 H   0  0  0  0  0  0  0  0  0  0  0  0
  1  2  1  0  0  0  0
  1 22  1  0  0  0  0
  1 23  1  0  0  0  0
  1 24  1  0  0  0  0
  2 21  1  0  0  0  0
  2  3  1  0  0  0  0
  3  4  2  0  0  0  0
  3 25  1  0  0  0  0
  4  5  1  0  0  0  0
  4 20  1  0  0  0  0
  5  6  1  0  0  0  0
  5 26  1  0  0  0  0
  5 27  1  0  0  0  0
  6  7  1  0  0  0  0
  6 28  1  0  0  0  0
  6 29  1  0  0  0  0
  7  8  1  0  0  0  0
  7 30  1  0  0  0  0
  8  9  2  0  0  0  0
  8 10  1  0  0  0  0
 10 11  1  0  0  0  0
 10 31  1  0  0  0  0
 11 19  1  0  0  0  0
 11 12  1  0  0  0  0
 11 32  1  0  0  0  0
 12 13  1  0  0  0  0
 12 33  1  0  0  0  0
 12 34  1  0  0  0  0
 13 14  1  0  0  0  0
 13 35  1  0  0  0  0
 13 36  1  0  0  0  0
 14 19  1  0  0  0  0
 14 15  1  0  0  0  0
 14 47  1  0  0  0  0
 15 16  1  0  0  0  0
 15 37  1  0  0  0  0
 15 38  1  0  0  0  0
 16 17  1  0  0  0  0
 16 39  1  0  0  0  0
 16 40  1  0  0  0  0
 17 18  1  0  0  0  0
 17 41  1  0  0  0  0
 17 42  1  0  0  0  0
 18 19  1  0  0  0  0
 18 43  1  0  0  0  0
 18 44  1  0  0  0  0
 19 45  1  0  0  0  0
 20 21  2  0  0  0  0
 20 46  1  0  0  0  0
M  CHG  1  14   1
M  END
> <s_m_source_file>
AV-unprocessed.smi

> <i_m_source_file_index>
557

> <i_lp_mmshare_version>
43012

> <i_f3d_flags>
0

> <s_epik_input>
W0NIM11uMVtjSF1jKFtjSF1uMSlbQ0gyXVtDSDJdW05IXUMoPU8pW05IXVtDQEhdKFtDSDJdW0NIMl0yKVtDQEhdKE4yMylbQ0gyXVtDSDJdW0NIMl1bQ0gyXTM=

> <s_epik_cmdline>
J2VwaWtfcHl0aG9uJywgJy1waCcsICc3LjAnLCAnLXRuJywgJzgnLCAnLW1hJywgJzIwMCcsICctbWV0YWxfYmluZGluZycsICctaW1hZScsICc8aW5maWxlLm1hZT4nLCAnLW9tYWUnLCAnPG91dGZpbGUubWFlPic=

> <r_lp_tautomer_probability>
1

> <r_epik_Ionization_Penalty>
0.000956547

> <r_epik_Ionization_Penalty_Charging>
0.000435796

> <r_epik_Ionization_Penalty_Neutral>
0.000520752

> <r_epik_State_Penalty>
-0

> <r_epik_Charging_Adjusted_Penalty>
0.000435796

> <i_epik_Tot_Q>
1

> <i_epik_Tot_abs_Q>
1

> <r_epik_Metal_State_Penalty>
-0

> <b_epik_Metal_Only>
0

> <s_lp_Force_Field>
OPLS_2005

> <r_lp_Energy>
46.5188

> <b_lp_Chiralities_Consistent>
1

> <s_lp_Variant>
AV-unprocessed.smi:557-1

> <Gold.Version>
5.8.1

> <Gold.Id.Protein>
6NUR|6NUR_protein|mol2

> <Gold.PLP.Fitness>
41.8361

> <Gold.PLP.PLP>
-31.0751

> <Gold.PLP.part.hbond>
-3.0000

> <Gold.PLP.part.metal>
0.0000

> <Gold.PLP.part.buried>
1.5718

> <Gold.PLP.part.nonpolar>
-28.2914

> <Gold.PLP.part.repulsive>
0.2070

> <Gold.PLP.ligand.clash>
0.0000

> <Gold.PLP.ligand.torsion>
0.3587

> <Gold.PLP.Chemscore.Hbond>
2.8237

> <Gold.PLP.Chemscore.CHOScore>
1.0000

> <Gold.PLP.Chemscore.Metal>
0.0000

> <Gold.Chemscore.Hbonds>
donor molecule, donor type, donor heavy atom, donor atom, acceptor molecule, acceptor atom, score
      L1  H     7    30       P1  7957  0.70
      L1  H    14    47       P1  7948  1.47
      L1  C    20    46       P1  8028  1.00

> <Gold.PLP.Chemscore.Internal.Correction>
0.0071

> <Gold.Rescore>
     Score         DG    S(hbond)    S(metal)    S(lipo)     H(rot)  DE(clash)    DE(int)     intcor
     14.24     -16.29       1.65        0.00      80.23       1.60       0.39       1.66       ----

> <Gold.Chemscore.Fitness>
14.2374

> <Gold.Chemscore.DG>
-16.2939

> <Gold.Chemscore.ZeroCoef>
-5.4800

> <Gold.Chemscore.Hbond>
1.6549

> <Gold.Chemscore.Metal>
0.0000

> <Gold.Chemscore.Lipo>
80.2313

> <Gold.Chemscore.Internal_Hbond>
0.0000

> <Gold.Chemscore.DEClash>
0.3933

> <Gold.Chemscore.DEInternal>
1.6632

> <Gold.Chemscore.Rot>
1.6018

> <Gold.Chemscore.Internal.Correction>
   9.000000E+99

> <Gold.Chemscore.Hbonds>
donor molecule, donor type, donor heavy atom, donor atom, acceptor molecule, acceptor atom, score
      L1  H     7    30       P1  7957  0.68
      L1  H    14    47       P1  7948  0.69

> <Gold.Chemscore.Hbond.Weighted>
-5.5275

> <Gold.Chemscore.Metal.Weighted>
-0.0000

> <Gold.Chemscore.Lipo.Weighted>
-9.3871

> <Gold.Chemscore.Internal_Hbond.Weighted>
0.0000

> <Gold.Chemscore.DEClash.Weighted>
0.3933

> <Gold.Chemscore.DEInternal.Weighted>
1.6632

> <Gold.Chemscore.Rot.Weighted>
4.1006

> <Gold.Chemscore.Internal.Correction.Weighted>
   9.000000E+99

> <Gold.Protein.RotatedTorsions>
[ 6907 6896 6895 6894 ] final   79.71 input  -60.11 | X-H torsion
[ 7974 7965 7964 7962 ] final  161.64 input  175.53 | X-H torsion
[ 8008 7997 7996 7995 ] final  -99.59 input   59.86 | X-H torsion
[ 10167 10162 10161 10158 ] final   15.72 input  -65.29 | X-H torsion
[ 10718 10713 10712 10709 ] final  -32.31 input   66.30 | X-H torsion
[ 10763 10752 10751 10750 ] final  103.14 input  -60.55 | X-H torsion
[ 11005 11000 10999 10996 ] final  136.53 input  -57.11 | X-H torsion

> <Gold.Protein.ActiveResidues>
 VAL166  LYS551  ARG553  GLY616  TRP617  ASP618  TYR619  PRO620  LYS621  CYS622 
 ASP623  PHE694  ASN695  SER759  ASP760  ASP761  ALA762  ILE779  LEU786  VAL792 
 PHE793  MET794  SER795  GLU796  ALA797  LYS798  CYS799  TRP800  GLU811  SER814 

> <Gold.Protein.RotatedAtoms>
  152.5208  134.3469  159.9237 H   0  0  0  0  0  0  0  0  0  0  0  0  # atno 6907 bound_to 6896
  151.3420  133.3952  159.2680 H   0  0  0  0  0  0  0  0  0  0  0  0  # atno 6908 bound_to 6896
  150.9796  134.9172  159.7894 H   0  0  0  0  0  0  0  0  0  0  0  0  # atno 6909 bound_to 6896
  144.7676  139.7926  143.6309 H   0  0  0  0  0  0  0  0  0  0  0  0  # atno 7974 bound_to 7965
  154.8169  140.0447  157.1383 H   0  0  0  0  0  0  0  0  0  0  0  0  # atno 8008 bound_to 7997
  154.9304  140.3039  155.5150 H   0  0  0  0  0  0  0  0  0  0  0  0  # atno 8009 bound_to 7997
  156.2977  140.2324  156.4363 H   0  0  0  0  0  0  0  0  0  0  0  0  # atno 8010 bound_to 7997
  140.5848  143.8911  150.6820 H   0  0  0  0  0  0  0  0  0  0  0  0  # atno 10167 bound_to 10162
  156.3765  130.4348  149.7503 H   0  0  0  0  0  0  0  0  0  0  0  0  # atno 10718 bound_to 10713
  153.3488  135.3986  155.1630 H   0  0  0  0  0  0  0  0  0  0  0  0  # atno 10763 bound_to 10752
  154.8658  135.3651  154.5249 H   0  0  0  0  0  0  0  0  0  0  0  0  # atno 10764 bound_to 10752
  153.5699  135.7079  153.5569 H   0  0  0  0  0  0  0  0  0  0  0  0  # atno 10765 bound_to 10752
  140.0053  134.9462  157.0160 H   0  0  0  0  0  0  0  0  0  0  0  0  # atno 11005 bound_to 11000
  146.1796  139.4982  142.9875 LP  0  0  0  0  0  0  0  0  0  0  0  0  # atno 17320 bound_to 7965
  145.6422  141.0282  143.1805 LP  0  0  0  0  0  0  0  0  0  0  0  0  # atno 17321 bound_to 7965
  140.2420  143.3657  152.1479 LP  0  0  0  0  0  0  0  0  0  0  0  0  # atno 17342 bound_to 10162
  139.5191  144.7015  151.5481 LP  0  0  0  0  0  0  0  0  0  0  0  0  # atno 17343 bound_to 10162
  156.4610  130.7952  151.2972 LP  0  0  0  0  0  0  0  0  0  0  0  0  # atno 17370 bound_to 10713
  157.7488  131.0065  150.3156 LP  0  0  0  0  0  0  0  0  0  0  0  0  # atno 17371 bound_to 10713
  140.4653  134.1442  155.7196 LP  0  0  0  0  0  0  0  0  0  0  0  0  # atno 17394 bound_to 11000
  141.1672  133.8680  157.1680 LP  0  0  0  0  0  0  0  0  0  0  0  0  # atno 17395 bound_to 11000

$$$$
