AV-unprocessed.smi:970|AV-procd|sdf|4291|dock2
  -GOLD-   22720 2193D 1   1.00000     0.00000
 Structure written by MMmdl.
 31 31  0  0  0  0  0  0  0  0  1 V2000
  145.2786  135.2317  151.3433 C   0  0  0  0  0  0  0  0  0  0  0  0
  146.0479  136.4002  151.7423 N   0  0  0  0  0  0  0  0  0  0  0  0
  145.5566  137.4135  152.4699 C   0  0  0  0  0  0  0  0  0  0  0  0
  144.3943  137.4468  152.8783 O   0  0  0  0  0  0  0  0  0  0  0  0
  146.5362  138.5515  152.7998 C   0  0  2  0  0  0  0  0  0  0  0  0
  146.8583  139.2946  151.4927 C   0  0  0  0  0  0  0  0  0  0  0  0
  147.7874  138.0128  153.3294 N   0  0  0  0  0  0  0  0  0  0  0  0
  148.3583  138.3694  154.4925 C   0  0  0  0  0  0  0  0  0  0  0  0
  147.8678  139.2111  155.2465 O   0  0  0  0  0  0  0  0  0  0  0  0
  149.6719  137.6538  154.8556 C   0  0  2  0  0  0  0  0  0  0  0  0
  149.5199  136.6684  156.0321 C   0  0  0  0  0  0  0  0  0  0  0  0
  150.7391  138.6180  155.0981 N   0  0  0  0  0  0  0  0  0  0  0  0
  151.9601  138.6993  154.5649 C   0  0  0  0  0  0  0  0  0  0  0  0
  152.6659  139.7372  154.9910 N   0  0  0  0  0  0  0  0  0  0  0  0
  151.7553  140.2985  155.8407 C   0  0  0  0  0  0  0  0  0  0  0  0
  150.5831  139.6718  155.9378 N   0  0  0  0  0  0  0  0  0  0  0  0
  145.8919  134.5751  150.7264 H   0  0  0  0  0  0  0  0  0  0  0  0
  144.4009  135.5218  150.7640 H   0  0  0  0  0  0  0  0  0  0  0  0
  144.9489  134.6688  152.2175 H   0  0  0  0  0  0  0  0  0  0  0  0
  147.0123  136.4432  151.4456 H   0  0  0  0  0  0  0  0  0  0  0  0
  146.0898  139.2446  153.5158 H   0  0  0  0  0  0  0  0  0  0  0  0
  145.9598  139.7291  151.0529 H   0  0  0  0  0  0  0  0  0  0  0  0
  147.3083  138.6353  150.7487 H   0  0  0  0  0  0  0  0  0  0  0  0
  147.5575  140.1118  151.6727 H   0  0  0  0  0  0  0  0  0  0  0  0
  148.2478  137.3077  152.7727 H   0  0  0  0  0  0  0  0  0  0  0  0
  149.9596  137.0706  153.9794 H   0  0  0  0  0  0  0  0  0  0  0  0
  148.7766  135.9015  155.8116 H   0  0  0  0  0  0  0  0  0  0  0  0
  149.2139  137.1728  156.9495 H   0  0  0  0  0  0  0  0  0  0  0  0
  150.4621  136.1586  156.2343 H   0  0  0  0  0  0  0  0  0  0  0  0
  152.3387  137.9869  153.8465 H   0  0  0  0  0  0  0  0  0  0  0  0
  151.9606  141.1990  156.4006 H   0  0  0  0  0  0  0  0  0  0  0  0
  1  2  1  0  0  0  0
  1 17  1  0  0  0  0
  1 18  1  0  0  0  0
  1 19  1  0  0  0  0
  2  3  1  0  0  0  0
  2 20  1  0  0  0  0
  3  4  2  0  0  0  0
  3  5  1  0  0  0  0
  5  6  1  0  0  0  0
  5  7  1  0  0  0  0
  5 21  1  0  0  0  0
  6 22  1  0  0  0  0
  6 23  1  0  0  0  0
  6 24  1  0  0  0  0
  7  8  1  0  0  0  0
  7 25  1  0  0  0  0
  8  9  2  0  0  0  0
  8 10  1  0  0  0  0
 10 11  1  0  0  0  0
 10 12  1  0  0  0  0
 10 26  1  0  0  0  0
 11 27  1  0  0  0  0
 11 28  1  0  0  0  0
 11 29  1  0  0  0  0
 12 16  1  0  0  0  0
 12 13  1  0  0  0  0
 13 14  2  0  0  0  0
 13 30  1  0  0  0  0
 14 15  1  0  0  0  0
 15 16  2  0  0  0  0
 15 31  1  0  0  0  0
M  END
> <s_m_source_file>
AV-unprocessed.smi

> <i_m_source_file_index>
970

> <i_lp_mmshare_version>
43012

> <i_f3d_flags>
0

> <s_epik_input>
W0NIM11bTkhdQyg9TylbQ0BIXShbQ0gzXSlbTkhdQyg9TylbQ0BIXShbQ0gzXSluMVtjSF1uW2NIXW4x

> <s_epik_cmdline>
J2VwaWtfcHl0aG9uJywgJy1waCcsICc3LjAnLCAnLXRuJywgJzgnLCAnLW1hJywgJzIwMCcsICctbWV0YWxfYmluZGluZycsICctaW1hZScsICc8aW5maWxlLm1hZT4nLCAnLW9tYWUnLCAnPG91dGZpbGUubWFlPic=

> <r_lp_tautomer_probability>
1

> <r_epik_Ionization_Penalty>
1.07271e-05

> <r_epik_Ionization_Penalty_Charging>
0

> <r_epik_Ionization_Penalty_Neutral>
1.07271e-05

> <r_epik_State_Penalty>
-0

> <r_epik_Charging_Adjusted_Penalty>
0

> <i_epik_Tot_Q>
0

> <i_epik_Tot_abs_Q>
0

> <r_epik_Metal_State_Penalty>
-0

> <b_epik_Metal_Only>
0

> <s_lp_Force_Field>
OPLS_2005

> <r_lp_Energy>
8.61602

> <b_lp_Chiralities_Consistent>
1

> <s_lp_Variant>
AV-unprocessed.smi:970-1

> <Gold.Version>
5.8.1

> <Gold.Id.Protein>
6NUR|6NUR_protein|mol2

> <Gold.PLP.Fitness>
32.9558

> <Gold.PLP.PLP>
-25.1902

> <Gold.PLP.part.hbond>
-3.9921

> <Gold.PLP.part.metal>
0.0000

> <Gold.PLP.part.buried>
-1.8363

> <Gold.PLP.part.nonpolar>
-21.1085

> <Gold.PLP.part.repulsive>
0.5308

> <Gold.PLP.ligand.clash>
0.0000

> <Gold.PLP.ligand.torsion>
0.5679

> <Gold.PLP.Chemscore.Hbond>
2.9286

> <Gold.PLP.Chemscore.CHOScore>
0.0000

> <Gold.PLP.Chemscore.Metal>
0.0000

> <Gold.Chemscore.Hbonds>
donor molecule, donor type, donor heavy atom, donor atom, acceptor molecule, acceptor atom, score
      L1  H     2    20       P1  7948  1.00
      L1  H     7    25       P1  7948  1.00
      P1  H  7989  7998       L1    14  0.04
      P1  H  7997  8008       L1    14  0.80

> <Gold.PLP.Chemscore.Internal.Correction>
0.1154

> <Gold.Rescore>
     Score         DG    S(hbond)    S(metal)    S(lipo)     H(rot)  DE(clash)    DE(int)     intcor
      9.92     -11.98       2.97        0.00      27.34       2.59       0.01       2.05       ----

> <Gold.Chemscore.Fitness>
9.9184

> <Gold.Chemscore.DG>
-11.9778

> <Gold.Chemscore.ZeroCoef>
-5.4800

> <Gold.Chemscore.Hbond>
2.9694

> <Gold.Chemscore.Metal>
0.0000

> <Gold.Chemscore.Lipo>
27.3364

> <Gold.Chemscore.Internal_Hbond>
0.0000

> <Gold.Chemscore.DEClash>
0.0098

> <Gold.Chemscore.DEInternal>
2.0497

> <Gold.Chemscore.Rot>
2.5852

> <Gold.Chemscore.Internal.Correction>
   9.000000E+99

> <Gold.Chemscore.Hbonds>
donor molecule, donor type, donor heavy atom, donor atom, acceptor molecule, acceptor atom, score
      L1  H     2    20       P1  7948  0.94
      L1  H     7    25       P1  7948  0.97
      P1  H  7997  8008       L1    14  0.15

> <Gold.Chemscore.Hbond.Weighted>
-9.9177

> <Gold.Chemscore.Metal.Weighted>
-0.0000

> <Gold.Chemscore.Lipo.Weighted>
-3.1984

> <Gold.Chemscore.Internal_Hbond.Weighted>
0.0000

> <Gold.Chemscore.DEClash.Weighted>
0.0098

> <Gold.Chemscore.DEInternal.Weighted>
2.0497

> <Gold.Chemscore.Rot.Weighted>
6.6182

> <Gold.Chemscore.Internal.Correction.Weighted>
   9.000000E+99

> <Gold.Protein.RotatedTorsions>
[ 6907 6896 6895 6894 ] final -108.63 input  -60.11 | X-H torsion
[ 7974 7965 7964 7962 ] final  -66.80 input  175.53 | X-H torsion
[ 8008 7997 7996 7995 ] final  -29.54 input   59.86 | X-H torsion
[ 10167 10162 10161 10158 ] final  148.75 input  -65.29 | X-H torsion
[ 10718 10713 10712 10709 ] final  107.55 input   66.30 | X-H torsion
[ 10763 10752 10751 10750 ] final   46.72 input  -60.55 | X-H torsion
[ 11005 11000 10999 10996 ] final  -13.16 input  -57.11 | X-H torsion

> <Gold.Protein.ActiveResidues>
 VAL166  LYS551  ARG553  GLY616  TRP617  ASP618  TYR619  PRO620  LYS621  CYS622 
 ASP623  PHE694  ASN695  SER759  ASP760  ASP761  ALA762  ILE779  LEU786  VAL792 
 PHE793  MET794  SER795  GLU796  ALA797  LYS798  CYS799  TRP800  GLU811  SER814 

> <Gold.Protein.RotatedAtoms>
  150.7513  133.9649  159.3526 H   0  0  0  0  0  0  0  0  0  0  0  0  # atno 6907 bound_to 6896
  151.7578  135.0815  160.0350 H   0  0  0  0  0  0  0  0  0  0  0  0  # atno 6908 bound_to 6896
  152.3424  133.6045  159.5921 H   0  0  0  0  0  0  0  0  0  0  0  0  # atno 6909 bound_to 6896
  145.7372  140.8970  143.0549 H   0  0  0  0  0  0  0  0  0  0  0  0  # atno 7974 bound_to 7965
  154.4286  140.1815  156.1265 H   0  0  0  0  0  0  0  0  0  0  0  0  # atno 8008 bound_to 7997
  156.0102  140.3351  155.6908 H   0  0  0  0  0  0  0  0  0  0  0  0  # atno 8009 bound_to 7997
  155.6122  140.0651  157.2693 H   0  0  0  0  0  0  0  0  0  0  0  0  # atno 8010 bound_to 7997
  139.4870  144.5655  151.7153 H   0  0  0  0  0  0  0  0  0  0  0  0  # atno 10167 bound_to 10162
  157.6623  131.0875  150.6173 H   0  0  0  0  0  0  0  0  0  0  0  0  # atno 10718 bound_to 10713
  152.9807  135.5999  154.3646 H   0  0  0  0  0  0  0  0  0  0  0  0  # atno 10763 bound_to 10752
  154.3325  135.2768  155.2466 H   0  0  0  0  0  0  0  0  0  0  0  0  # atno 10764 bound_to 10752
  154.4584  135.5972  153.6294 H   0  0  0  0  0  0  0  0  0  0  0  0  # atno 10765 bound_to 10752
  140.7732  133.8422  155.9225 H   0  0  0  0  0  0  0  0  0  0  0  0  # atno 11005 bound_to 11000
  144.6879  139.9411  143.7475 LP  0  0  0  0  0  0  0  0  0  0  0  0  # atno 17320 bound_to 7965
  146.0482  139.3486  143.0655 LP  0  0  0  0  0  0  0  0  0  0  0  0  # atno 17321 bound_to 7965
  140.5232  144.0846  150.6029 LP  0  0  0  0  0  0  0  0  0  0  0  0  # atno 17342 bound_to 10162
  140.3811  143.2802  152.0169 LP  0  0  0  0  0  0  0  0  0  0  0  0  # atno 17343 bound_to 10162
  156.6476  130.4476  149.5730 LP  0  0  0  0  0  0  0  0  0  0  0  0  # atno 17370 bound_to 10713
  156.2162  130.6709  151.1321 LP  0  0  0  0  0  0  0  0  0  0  0  0  # atno 17371 bound_to 10713
  140.9554  134.1725  157.4696 LP  0  0  0  0  0  0  0  0  0  0  0  0  # atno 17394 bound_to 11000
  139.8753  134.9925  156.5598 LP  0  0  0  0  0  0  0  0  0  0  0  0  # atno 17395 bound_to 11000

$$$$
