AV-unprocessed.smi:2499|AV-procd|sdf|9840|dock2
  -GOLD-   2272013463D 1   1.00000     0.00000
 Structure written by MMmdl.
 26 27  0  0  0  0  0  0  0  0  2 V2000
  150.7288  142.0018  158.5712 C   0  0  0  0  0  0  0  0  0  0  0  0
  151.2495  142.6672  157.2898 C   0  0  1  0  0  0  0  0  0  0  0  0
  150.2005  142.6061  156.2757 N   0  0  0  0  0  0  0  0  0  0  0  0
  150.0505  141.6534  155.3435 C   0  0  0  0  0  0  0  0  0  0  0  0
  150.8434  140.7105  155.2918 O   0  0  0  0  0  0  0  0  0  0  0  0
  148.9901  141.8531  154.5285 N   0  5  0  0  0  0  0  0  0  0  0  0
  148.3521  140.8004  153.9920 C   0  0  0  0  0  0  0  0  0  0  0  0
  148.7010  139.5184  154.1128 N   0  0  0  0  0  0  0  0  0  0  0  0
  147.7524  138.7988  153.4027 C   0  0  0  0  0  0  0  0  0  0  0  0
  146.8534  139.6890  152.8825 C   0  0  0  0  0  0  0  0  0  0  0  0
  147.2190  140.9545  153.2499 O   0  0  0  0  0  0  0  0  0  0  0  0
  151.7372  144.0786  157.5736 C   0  0  0  0  0  0  0  0  0  0  0  0
  152.7254  144.3636  158.6804 C   0  0  0  0  0  0  0  0  0  0  0  0
  151.2913  144.8205  158.8118 C   0  0  0  0  0  0  0  0  0  0  0  0
  151.5008  141.9728  159.3406 H   0  0  0  0  0  0  0  0  0  0  0  0
  150.4167  140.9743  158.3816 H   0  0  0  0  0  0  0  0  0  0  0  0
  149.8728  142.5408  158.9788 H   0  0  0  0  0  0  0  0  0  0  0  0
  152.1003  142.0777  156.9431 H   0  0  0  0  0  0  0  0  0  0  0  0
  149.5247  143.3557  156.2781 H   0  0  0  0  0  0  0  0  0  0  0  0
  147.7912  137.7224  153.3263 H   0  0  0  0  0  0  0  0  0  0  0  0
  145.9655  139.5951  152.2757 H   0  0  0  0  0  0  0  0  0  0  0  0
  151.8393  144.6889  156.6780 H   0  0  0  0  0  0  0  0  0  0  0  0
  153.0445  143.5319  159.3054 H   0  0  0  0  0  0  0  0  0  0  0  0
  153.4825  145.1216  158.4917 H   0  0  0  0  0  0  0  0  0  0  0  0
  151.0910  145.8855  158.7141 H   0  0  0  0  0  0  0  0  0  0  0  0
  150.6595  144.2901  159.5215 H   0  0  0  0  0  0  0  0  0  0  0  0
  1  2  1  0  0  0  0
  1 15  1  0  0  0  0
  1 16  1  0  0  0  0
  1 17  1  0  0  0  0
  2  3  1  0  0  0  0
  2 12  1  0  0  0  0
  2 18  1  0  0  0  0
  3 19  1  0  0  0  0
  3  4  1  0  0  0  0
  4  6  1  0  0  0  0
  4  5  2  0  0  0  0
  6  7  1  0  0  0  0
  7 11  1  0  0  0  0
  7  8  2  0  0  0  0
  8  9  1  0  0  0  0
  9 20  1  0  0  0  0
  9 10  2  0  0  0  0
 10 21  1  0  0  0  0
 10 11  1  0  0  0  0
 12 14  1  0  0  0  0
 12 13  1  0  0  0  0
 12 22  1  0  0  0  0
 13 14  1  0  0  0  0
 13 23  1  0  0  0  0
 13 24  1  0  0  0  0
 14 25  1  0  0  0  0
 14 26  1  0  0  0  0
M  CHG  1   6  -1
M  END
> <s_m_source_file>
AV-unprocessed.smi

> <i_m_source_file_index>
2499

> <i_lp_mmshare_version>
43012

> <i_f3d_flags>
0

> <s_epik_input>
W0NIMl0xW0NIMl1bQ0hdMVtDQEhdKFtDSDNdKVtOSF1DKD1PKVtOSF1jMm5bY0hdW2NIXW8y

> <s_epik_cmdline>
J2VwaWtfcHl0aG9uJywgJy1waCcsICc3LjAnLCAnLXRuJywgJzgnLCAnLW1hJywgJzIwMCcsICctbWV0YWxfYmluZGluZycsICctaW1hZScsICc8aW5maWxlLm1hZT4nLCAnLW9tYWUnLCAnPG91dGZpbGUubWFlPic=

> <r_lp_tautomer_probability>
0.107061

> <r_epik_Ionization_Penalty>
11.2144

> <r_epik_Ionization_Penalty_Charging>
7.87172

> <r_epik_Ionization_Penalty_Neutral>
3.3427

> <r_epik_State_Penalty>
5.96777

> <r_epik_Charging_Adjusted_Penalty>
13.8395

> <i_epik_Tot_Q>
-1

> <i_epik_Tot_abs_Q>
1

> <r_epik_Metal_State_Penalty>
1.88989

> <b_epik_Metal_Only>
1

> <s_lp_Force_Field>
OPLS_2005

> <r_lp_Energy>
7.96156

> <b_lp_Chiralities_Consistent>
1

> <s_lp_Variant>
AV-unprocessed.smi:2499-10

> <Gold.Version>
5.8.1

> <Gold.Id.Protein>
6NUR|6NUR_protein|mol2

> <Gold.PLP.Fitness>
39.4030

> <Gold.PLP.PLP>
-28.9699

> <Gold.PLP.part.hbond>
-2.9465

> <Gold.PLP.part.metal>
0.0000

> <Gold.PLP.part.buried>
-2.7187

> <Gold.PLP.part.nonpolar>
-23.7778

> <Gold.PLP.part.repulsive>
1.0248

> <Gold.PLP.ligand.clash>
0.0000

> <Gold.PLP.ligand.torsion>
1.1482

> <Gold.PLP.Chemscore.Hbond>
1.8986

> <Gold.PLP.Chemscore.CHOScore>
1.9786

> <Gold.PLP.Chemscore.Metal>
0.0000

> <Gold.Chemscore.Hbonds>
donor molecule, donor type, donor heavy atom, donor atom, acceptor molecule, acceptor atom, score
      L1  H     3    19       P1  8028  1.00
      P1  H  7989  7998       L1     5  0.86
      P1  H  8011  8017       L1     6  0.02
      L1  C     9    20       P1  7948  1.00
      L1  C    10    21       P1 10175  1.00

> <Gold.PLP.Chemscore.Internal.Correction>
1.0978

> <Gold.Rescore>
     Score         DG    S(hbond)    S(metal)    S(lipo)     H(rot)  DE(clash)    DE(int)     intcor
     12.53     -15.62       1.50        0.00      71.86       1.28       0.51       2.57       ----

> <Gold.Chemscore.Fitness>
12.5349

> <Gold.Chemscore.DG>
-15.6188

> <Gold.Chemscore.ZeroCoef>
-5.4800

> <Gold.Chemscore.Hbond>
1.4977

> <Gold.Chemscore.Metal>
0.0000

> <Gold.Chemscore.Lipo>
71.8596

> <Gold.Chemscore.Internal_Hbond>
0.0000

> <Gold.Chemscore.DEClash>
0.5129

> <Gold.Chemscore.DEInternal>
2.5709

> <Gold.Chemscore.Rot>
1.2778

> <Gold.Chemscore.Internal.Correction>
   9.000000E+99

> <Gold.Chemscore.Hbonds>
donor molecule, donor type, donor heavy atom, donor atom, acceptor molecule, acceptor atom, score
      L1  H     3    19       P1  8028  0.96
      P1  H  7989  7998       L1     5  0.33

> <Gold.Chemscore.Hbond.Weighted>
-5.0023

> <Gold.Chemscore.Metal.Weighted>
-0.0000

> <Gold.Chemscore.Lipo.Weighted>
-8.4076

> <Gold.Chemscore.Internal_Hbond.Weighted>
0.0000

> <Gold.Chemscore.DEClash.Weighted>
0.5129

> <Gold.Chemscore.DEInternal.Weighted>
2.5709

> <Gold.Chemscore.Rot.Weighted>
3.2711

> <Gold.Chemscore.Internal.Correction.Weighted>
   9.000000E+99

> <Gold.Protein.RotatedTorsions>
[ 6907 6896 6895 6894 ] final   -9.05 input  -60.11 | X-H torsion
[ 7974 7965 7964 7962 ] final  -81.78 input  175.53 | X-H torsion
[ 8008 7997 7996 7995 ] final  -18.86 input   59.86 | X-H torsion
[ 10167 10162 10161 10158 ] final  -56.19 input  -65.29 | X-H torsion
[ 10718 10713 10712 10709 ] final  -20.28 input   66.30 | X-H torsion
[ 10763 10752 10751 10750 ] final -127.20 input  -60.55 | X-H torsion
[ 11005 11000 10999 10996 ] final  121.02 input  -57.11 | X-H torsion

> <Gold.Protein.ActiveResidues>
 VAL166  LYS551  ARG553  GLY616  TRP617  ASP618  TYR619  PRO620  LYS621  CYS622 
 ASP623  PHE694  ASN695  SER759  ASP760  ASP761  ALA762  ILE779  LEU786  VAL792 
 PHE793  MET794  SER795  GLU796  ALA797  LYS798  CYS799  TRP800  GLU811  SER814 

> <Gold.Protein.RotatedAtoms>
  151.4239  135.1001  159.9621 H   0  0  0  0  0  0  0  0  0  0  0  0  # atno 6907 bound_to 6896
  152.4979  133.8681  159.7295 H   0  0  0  0  0  0  0  0  0  0  0  0  # atno 6908 bound_to 6896
  150.9204  133.6830  159.2861 H   0  0  0  0  0  0  0  0  0  0  0  0  # atno 6909 bound_to 6896
  145.5420  140.9508  143.1546 H   0  0  0  0  0  0  0  0  0  0  0  0  # atno 7974 bound_to 7965
  154.4877  140.2104  155.9619 H   0  0  0  0  0  0  0  0  0  0  0  0  # atno 8008 bound_to 7997
  156.1260  140.3205  155.8246 H   0  0  0  0  0  0  0  0  0  0  0  0  # atno 8009 bound_to 7997
  155.4383  140.0508  157.3003 H   0  0  0  0  0  0  0  0  0  0  0  0  # atno 8010 bound_to 7997
  140.6331  143.2469  151.5189 H   0  0  0  0  0  0  0  0  0  0  0  0  # atno 10167 bound_to 10162
  156.5340  130.4662  149.6532 H   0  0  0  0  0  0  0  0  0  0  0  0  # atno 10718 bound_to 10713
  154.8751  135.3970  154.3555 H   0  0  0  0  0  0  0  0  0  0  0  0  # atno 10763 bound_to 10752
  153.4335  135.7025  153.6220 H   0  0  0  0  0  0  0  0  0  0  0  0  # atno 10764 bound_to 10752
  153.4832  135.3764  155.2422 H   0  0  0  0  0  0  0  0  0  0  0  0  # atno 10765 bound_to 10752
  139.9209  134.9637  156.7896 H   0  0  0  0  0  0  0  0  0  0  0  0  # atno 11005 bound_to 11000
  144.7572  139.7045  143.7249 LP  0  0  0  0  0  0  0  0  0  0  0  0  # atno 17320 bound_to 7965
  146.1974  139.5249  142.9765 LP  0  0  0  0  0  0  0  0  0  0  0  0  # atno 17321 bound_to 7965
  139.5544  144.2314  152.1586 LP  0  0  0  0  0  0  0  0  0  0  0  0  # atno 17342 bound_to 10162
  140.1563  144.5067  150.6658 LP  0  0  0  0  0  0  0  0  0  0  0  0  # atno 17343 bound_to 10162
  156.3033  130.7189  151.2065 LP  0  0  0  0  0  0  0  0  0  0  0  0  # atno 17370 bound_to 10713
  157.7417  131.0500  150.5079 LP  0  0  0  0  0  0  0  0  0  0  0  0  # atno 17371 bound_to 10713
  140.6478  133.9759  155.7740 LP  0  0  0  0  0  0  0  0  0  0  0  0  # atno 17394 bound_to 11000
  141.0728  134.0179  157.3501 LP  0  0  0  0  0  0  0  0  0  0  0  0  # atno 17395 bound_to 11000

$$$$
