AV-unprocessed.smi:2359|AV-procd|sdf|9408|dock4
  -GOLD-   2272013 43D 1   1.00000     0.00000
 Structure written by MMmdl.
 40 41  0  0  0  0  0  0  0  0  1 V2000
  143.5833  131.8202  150.3510 C   0  0  0  0  0  0  0  0  0  0  0  0
  144.3813  133.0219  150.8114 C   0  0  0  0  0  0  0  0  0  0  0  0
  145.7856  133.0306  150.7211 C   0  0  0  0  0  0  0  0  0  0  0  0
  146.4871  134.1699  151.1599 C   0  0  0  0  0  0  0  0  0  0  0  0
  145.7700  135.2723  151.6769 C   0  0  0  0  0  0  0  0  0  0  0  0
  146.5713  136.3684  152.0941 N   0  0  0  0  0  0  0  0  0  0  0  0
  146.1830  137.4892  152.7278 C   0  0  0  0  0  0  0  0  0  0  0  0
  145.0262  137.7633  153.0496 O   0  0  0  0  0  0  0  0  0  0  0  0
  147.2260  138.2938  152.9726 N   0  0  0  0  0  0  0  0  0  0  0  0
  147.1298  139.5834  153.6429 C   0  0  0  0  0  0  0  0  0  0  0  0
  148.4951  140.2859  153.6623 C   0  0  0  0  0  0  0  0  0  0  0  0
  149.5205  139.5741  154.5591 C   0  0  1  0  0  0  0  0  0  0  0  0
  150.1850  138.3821  153.8429 C   0  0  0  0  0  0  0  0  0  0  0  0
  151.2521  137.7425  154.7384 C   0  0  0  0  0  0  0  0  0  0  0  0
  152.2363  138.8152  155.2165 C   0  0  0  0  0  0  0  0  0  0  0  0
  151.4780  139.9905  155.8535 C   0  0  0  0  0  0  0  0  0  0  0  0
  150.5285  140.5130  154.9295 O   0  0  0  0  0  0  0  0  0  0  0  0
  144.4163  135.2548  151.7588 N   0  0  0  0  0  0  0  0  0  0  0  0
  143.7446  134.1627  151.3379 C   0  0  0  0  0  0  0  0  0  0  0  0
  143.9905  130.9053  150.7818 H   0  0  0  0  0  0  0  0  0  0  0  0
  143.6216  131.7365  149.2649 H   0  0  0  0  0  0  0  0  0  0  0  0
  142.5384  131.9014  150.6518 H   0  0  0  0  0  0  0  0  0  0  0  0
  146.3187  132.1799  150.3227 H   0  0  0  0  0  0  0  0  0  0  0  0
  147.5653  134.1927  151.0976 H   0  0  0  0  0  0  0  0  0  0  0  0
  147.5561  136.2884  151.8889 H   0  0  0  0  0  0  0  0  0  0  0  0
  148.1444  137.9973  152.6762 H   0  0  0  0  0  0  0  0  0  0  0  0
  146.3934  140.2005  153.1263 H   0  0  0  0  0  0  0  0  0  0  0  0
  146.7705  139.4373  154.6629 H   0  0  0  0  0  0  0  0  0  0  0  0
  148.8828  140.3320  152.6438 H   0  0  0  0  0  0  0  0  0  0  0  0
  148.3752  141.3186  153.9928 H   0  0  0  0  0  0  0  0  0  0  0  0
  149.0133  139.2179  155.4576 H   0  0  0  0  0  0  0  0  0  0  0  0
  149.4362  137.6384  153.5686 H   0  0  0  0  0  0  0  0  0  0  0  0
  150.6449  138.7203  152.9134 H   0  0  0  0  0  0  0  0  0  0  0  0
  150.7754  137.2713  155.5990 H   0  0  0  0  0  0  0  0  0  0  0  0
  151.7791  136.9543  154.2003 H   0  0  0  0  0  0  0  0  0  0  0  0
  152.9425  138.3893  155.9299 H   0  0  0  0  0  0  0  0  0  0  0  0
  152.8234  139.1766  154.3714 H   0  0  0  0  0  0  0  0  0  0  0  0
  150.9757  139.6795  156.7708 H   0  0  0  0  0  0  0  0  0  0  0  0
  152.1755  140.7825  156.1261 H   0  0  0  0  0  0  0  0  0  0  0  0
  142.6689  134.2039  151.4254 H   0  0  0  0  0  0  0  0  0  0  0  0
  1  2  1  0  0  0  0
  1 20  1  0  0  0  0
  1 21  1  0  0  0  0
  1 22  1  0  0  0  0
  2 19  1  0  0  0  0
  2  3  2  0  0  0  0
  3  4  1  0  0  0  0
  3 23  1  0  0  0  0
  4  5  2  0  0  0  0
  4 24  1  0  0  0  0
  5  6  1  0  0  0  0
  5 18  1  0  0  0  0
  6  7  1  0  0  0  0
  6 25  1  0  0  0  0
  7  8  2  0  0  0  0
  7  9  1  0  0  0  0
  9 10  1  0  0  0  0
  9 26  1  0  0  0  0
 10 11  1  0  0  0  0
 10 27  1  0  0  0  0
 10 28  1  0  0  0  0
 11 12  1  0  0  0  0
 11 29  1  0  0  0  0
 11 30  1  0  0  0  0
 12 17  1  0  0  0  0
 12 13  1  0  0  0  0
 12 31  1  0  0  0  0
 13 14  1  0  0  0  0
 13 32  1  0  0  0  0
 13 33  1  0  0  0  0
 14 15  1  0  0  0  0
 14 34  1  0  0  0  0
 14 35  1  0  0  0  0
 15 16  1  0  0  0  0
 15 36  1  0  0  0  0
 15 37  1  0  0  0  0
 16 17  1  0  0  0  0
 16 38  1  0  0  0  0
 16 39  1  0  0  0  0
 18 19  2  0  0  0  0
 19 40  1  0  0  0  0
M  END
> <s_m_source_file>
AV-unprocessed.smi

> <i_m_source_file_index>
2359

> <i_lp_mmshare_version>
43012

> <i_f3d_flags>
0

> <s_epik_input>
W0NIM11jMVtjSF1bY0hdYyhuW2NIXTEpW05IXUMoPU8pW05IXVtDSDJdW0NIMl1bQ0BASF0yW0NIMl1bQ0gyXVtDSDJdW0NIMl1PMg==

> <s_epik_cmdline>
J2VwaWtfcHl0aG9uJywgJy1waCcsICc3LjAnLCAnLXRuJywgJzgnLCAnLW1hJywgJzIwMCcsICctbWV0YWxfYmluZGluZycsICctaW1hZScsICc8aW5maWxlLm1hZT4nLCAnLW9tYWUnLCAnPG91dGZpbGUubWFlPic=

> <r_lp_tautomer_probability>
1

> <r_epik_Ionization_Penalty>
5.73679e-05

> <r_epik_Ionization_Penalty_Charging>
0

> <r_epik_Ionization_Penalty_Neutral>
5.73679e-05

> <r_epik_State_Penalty>
-0

> <r_epik_Charging_Adjusted_Penalty>
0

> <i_epik_Tot_Q>
0

> <i_epik_Tot_abs_Q>
0

> <r_epik_Metal_State_Penalty>
-0

> <b_epik_Metal_Only>
0

> <s_lp_Force_Field>
OPLS_2005

> <r_lp_Energy>
11.4199

> <b_lp_Chiralities_Consistent>
1

> <s_lp_Variant>
AV-unprocessed.smi:2359-2

> <Gold.Version>
5.8.1

> <Gold.Id.Protein>
6NUR|6NUR_protein|mol2

> <Gold.PLP.Fitness>
41.5226

> <Gold.PLP.PLP>
-33.0746

> <Gold.PLP.part.hbond>
-2.4864

> <Gold.PLP.part.metal>
0.0000

> <Gold.PLP.part.buried>
0.8558

> <Gold.PLP.part.nonpolar>
-31.9296

> <Gold.PLP.part.repulsive>
0.9086

> <Gold.PLP.ligand.clash>
0.0000

> <Gold.PLP.ligand.torsion>
0.2567

> <Gold.PLP.Chemscore.Hbond>
2.2296

> <Gold.PLP.Chemscore.CHOScore>
0.7552

> <Gold.PLP.Chemscore.Metal>
0.0000

> <Gold.Chemscore.Hbonds>
donor molecule, donor type, donor heavy atom, donor atom, acceptor molecule, acceptor atom, score
      L1  H     6    25       P1  7948  0.62
      L1  H     9    26       P1  7948  0.62
      P1  H  7989  7998       L1    17  1.00
      L1  C    19    40       P1 10186  0.77

> <Gold.PLP.Chemscore.Internal.Correction>
0.0068

> <Gold.Rescore>
     Score         DG    S(hbond)    S(metal)    S(lipo)     H(rot)  DE(clash)    DE(int)     intcor
     16.38     -18.35       1.96        0.00      85.11       1.42       0.39       1.58       ----

> <Gold.Chemscore.Fitness>
16.3787

> <Gold.Chemscore.DG>
-18.3463

> <Gold.Chemscore.ZeroCoef>
-5.4800

> <Gold.Chemscore.Hbond>
1.9628

> <Gold.Chemscore.Metal>
0.0000

> <Gold.Chemscore.Lipo>
85.1125

> <Gold.Chemscore.Internal_Hbond>
0.0000

> <Gold.Chemscore.DEClash>
0.3885

> <Gold.Chemscore.DEInternal>
1.5791

> <Gold.Chemscore.Rot>
1.4248

> <Gold.Chemscore.Internal.Correction>
   9.000000E+99

> <Gold.Chemscore.Hbonds>
donor molecule, donor type, donor heavy atom, donor atom, acceptor molecule, acceptor atom, score
      L1  H     6    25       P1  7948  0.60
      L1  H     9    26       P1  7948  0.60
      P1  H  7989  7998       L1    17  0.22

> <Gold.Chemscore.Hbond.Weighted>
-6.5558

> <Gold.Chemscore.Metal.Weighted>
-0.0000

> <Gold.Chemscore.Lipo.Weighted>
-9.9582

> <Gold.Chemscore.Internal_Hbond.Weighted>
0.0000

> <Gold.Chemscore.DEClash.Weighted>
0.3885

> <Gold.Chemscore.DEInternal.Weighted>
1.5791

> <Gold.Chemscore.Rot.Weighted>
3.6476

> <Gold.Chemscore.Internal.Correction.Weighted>
   9.000000E+99

> <Gold.Protein.RotatedTorsions>
[ 6907 6896 6895 6894 ] final   -0.36 input  -60.11 | X-H torsion
[ 7974 7965 7964 7962 ] final  151.89 input  175.53 | X-H torsion
[ 8008 7997 7996 7995 ] final  -66.01 input   59.86 | X-H torsion
[ 10167 10162 10161 10158 ] final   94.33 input  -65.29 | X-H torsion
[ 10718 10713 10712 10709 ] final  -81.14 input   66.30 | X-H torsion
[ 10763 10752 10751 10750 ] final  124.06 input  -60.55 | X-H torsion
[ 11005 11000 10999 10996 ] final -104.16 input  -57.11 | X-H torsion

> <Gold.Protein.ActiveResidues>
 VAL166  LYS551  ARG553  GLY616  TRP617  ASP618  TYR619  PRO620  LYS621  CYS622 
 ASP623  PHE694  ASN695  SER759  ASP760  ASP761  ALA762  ILE779  LEU786  VAL792 
 PHE793  MET794  SER795  GLU796  ALA797  LYS798  CYS799  TRP800  GLU811  SER814 

> <Gold.Protein.RotatedAtoms>
  151.5636  135.1065  159.9978 H   0  0  0  0  0  0  0  0  0  0  0  0  # atno 6907 bound_to 6896
  152.4435  133.7488  159.6693 H   0  0  0  0  0  0  0  0  0  0  0  0  # atno 6908 bound_to 6896
  150.8345  133.7968  159.3109 H   0  0  0  0  0  0  0  0  0  0  0  0  # atno 6909 bound_to 6896
  144.8260  139.6597  143.6079 H   0  0  0  0  0  0  0  0  0  0  0  0  # atno 7974 bound_to 7965
  154.4707  140.0921  156.7138 H   0  0  0  0  0  0  0  0  0  0  0  0  # atno 8008 bound_to 7997
  155.4731  140.3465  155.4310 H   0  0  0  0  0  0  0  0  0  0  0  0  # atno 8009 bound_to 7997
  156.1035  140.1428  156.9425 H   0  0  0  0  0  0  0  0  0  0  0  0  # atno 8010 bound_to 7997
  139.8094  144.6780  150.9660 H   0  0  0  0  0  0  0  0  0  0  0  0  # atno 10167 bound_to 10162
  156.0056  130.4595  150.3907 H   0  0  0  0  0  0  0  0  0  0  0  0  # atno 10718 bound_to 10713
  153.6554  135.3355  155.3112 H   0  0  0  0  0  0  0  0  0  0  0  0  # atno 10763 bound_to 10752
  154.8527  135.4351  154.1860 H   0  0  0  0  0  0  0  0  0  0  0  0  # atno 10764 bound_to 10752
  153.2813  135.7009  153.7458 H   0  0  0  0  0  0  0  0  0  0  0  0  # atno 10765 bound_to 10752
  141.1113  133.8700  157.1577 H   0  0  0  0  0  0  0  0  0  0  0  0  # atno 11005 bound_to 11000
  146.2565  139.6315  142.9391 LP  0  0  0  0  0  0  0  0  0  0  0  0  # atno 17320 bound_to 7965
  145.4999  141.0437  143.2546 LP  0  0  0  0  0  0  0  0  0  0  0  0  # atno 17321 bound_to 7965
  140.7818  143.4200  151.0856 LP  0  0  0  0  0  0  0  0  0  0  0  0  # atno 17342 bound_to 10162
  139.7868  143.8276  152.3146 LP  0  0  0  0  0  0  0  0  0  0  0  0  # atno 17343 bound_to 10162
  157.1982  131.0431  151.2664 LP  0  0  0  0  0  0  0  0  0  0  0  0  # atno 17370 bound_to 10713
  157.3999  130.7328  149.6760 LP  0  0  0  0  0  0  0  0  0  0  0  0  # atno 17371 bound_to 10713
  140.0008  135.0028  157.0186 LP  0  0  0  0  0  0  0  0  0  0  0  0  # atno 17394 bound_to 11000
  140.4768  134.1330  155.7211 LP  0  0  0  0  0  0  0  0  0  0  0  0  # atno 17395 bound_to 11000

$$$$
