AV-unprocessed.smi:50|AV-procd|sdf|495|dock4
  -GOLD-   2262016363D 1   1.00000     0.00000
 Structure written by MMmdl.
 43 44  0  0  0  0  0  0  0  0  3 V2000
  143.6715  133.7025  151.8269 C   0  0  0  0  0  0  0  0  0  0  0  0
  144.5587  134.4215  150.7929 C   0  0  0  0  0  0  0  0  0  0  0  0
  145.8817  133.6468  150.6348 C   0  0  0  0  0  0  0  0  0  0  0  0
  144.7526  135.9192  151.1594 C   0  0  2  0  0  0  0  0  0  0  0  0
  145.3682  136.6627  150.0429 N   0  3  0  0  0  0  0  0  0  0  0  0
  145.6420  136.1539  152.3956 C   0  0  0  0  0  0  0  0  0  0  0  0
  146.1218  135.2571  153.0924 O   0  0  0  0  0  0  0  0  0  0  0  0
  145.8114  137.4732  152.6046 O   0  0  0  0  0  0  0  0  0  0  0  0
  146.4660  137.9503  153.7731 C   0  0  0  0  0  0  0  0  0  0  0  0
  147.3981  139.1145  153.4170 C   0  0  0  0  0  0  0  0  0  0  0  0
  147.4622  140.0256  154.5062 O   0  0  0  0  0  0  0  0  0  0  0  0
  148.4551  140.9959  154.4028 C   0  0  0  0  0  0  0  0  0  0  0  0
  149.2979  140.9107  155.5830 N   0  0  0  0  0  0  0  0  0  0  0  0
  149.0250  141.4245  156.7982 C   0  0  0  0  0  0  0  0  0  0  0  0
  149.9418  141.1939  157.7366 N   0  0  0  0  0  0  0  0  0  0  0  0
  150.8973  140.4685  157.0359 C   0  0  0  0  0  0  0  0  0  0  0  0
  152.1691  139.8428  157.4707 C   0  0  0  0  0  0  0  0  0  0  0  0
  152.5294  139.9722  158.6387 O   0  0  0  0  0  0  0  0  0  0  0  0
  152.8301  139.1292  156.5108 N   0  5  0  0  0  0  0  0  0  0  0  0
  152.3254  139.0577  155.2052 C   0  0  0  0  0  0  0  0  0  0  0  0
  153.1311  138.3278  154.3593 N   0  0  0  0  0  0  0  0  0  0  0  0
  151.2194  139.5936  154.7508 N   0  0  0  0  0  0  0  0  0  0  0  0
  150.5312  140.2845  155.7300 C   0  0  0  0  0  0  0  0  0  0  0  0
  143.7746  136.3655  151.3444 H   0  0  0  0  0  0  0  0  0  0  0  0
  144.1143  133.7456  152.8227 H   0  0  0  0  0  0  0  0  0  0  0  0
  143.5400  132.6510  151.5693 H   0  0  0  0  0  0  0  0  0  0  0  0
  142.6752  134.1409  151.8862 H   0  0  0  0  0  0  0  0  0  0  0  0
  144.0417  134.3713  149.8332 H   0  0  0  0  0  0  0  0  0  0  0  0
  146.4973  133.7298  151.5314 H   0  0  0  0  0  0  0  0  0  0  0  0
  146.4670  134.0075  149.7891 H   0  0  0  0  0  0  0  0  0  0  0  0
  145.6983  132.5865  150.4570 H   0  0  0  0  0  0  0  0  0  0  0  0
  146.3514  136.7964  150.2350 H   0  0  0  0  0  0  0  0  0  0  0  0
  144.9211  137.5634  149.9501 H   0  0  0  0  0  0  0  0  0  0  0  0
  145.6884  138.3127  154.4455 H   0  0  0  0  0  0  0  0  0  0  0  0
  146.9962  137.1617  154.3090 H   0  0  0  0  0  0  0  0  0  0  0  0
  148.3700  138.7245  153.1162 H   0  0  0  0  0  0  0  0  0  0  0  0
  147.0042  139.6574  152.5577 H   0  0  0  0  0  0  0  0  0  0  0  0
  149.0602  140.9031  153.4990 H   0  0  0  0  0  0  0  0  0  0  0  0
  147.9777  141.9762  154.3972 H   0  0  0  0  0  0  0  0  0  0  0  0
  148.1182  141.9740  157.0041 H   0  0  0  0  0  0  0  0  0  0  0  0
  153.9936  137.8907  154.6488 H   0  0  0  0  0  0  0  0  0  0  0  0
  152.8996  138.1515  153.3925 H   0  0  0  0  0  0  0  0  0  0  0  0
  145.2627  136.1372  149.1873 H   0  0  0  0  0  0  0  0  0  0  0  0
  1  2  1  0  0  0  0
  1 25  1  0  0  0  0
  1 26  1  0  0  0  0
  1 27  1  0  0  0  0
  2  3  1  0  0  0  0
  2  4  1  0  0  0  0
  2 28  1  0  0  0  0
  3 29  1  0  0  0  0
  3 30  1  0  0  0  0
  3 31  1  0  0  0  0
  4 24  1  0  0  0  0
  4  5  1  0  0  0  0
  4  6  1  0  0  0  0
  5 32  1  0  0  0  0
  5 33  1  0  0  0  0
  5 43  1  0  0  0  0
  6  7  2  0  0  0  0
  6  8  1  0  0  0  0
  8  9  1  0  0  0  0
  9 10  1  0  0  0  0
  9 34  1  0  0  0  0
  9 35  1  0  0  0  0
 10 11  1  0  0  0  0
 10 36  1  0  0  0  0
 10 37  1  0  0  0  0
 11 12  1  0  0  0  0
 12 13  1  0  0  0  0
 12 38  1  0  0  0  0
 12 39  1  0  0  0  0
 13 23  1  0  0  0  0
 13 14  1  0  0  0  0
 14 15  2  0  0  0  0
 14 40  1  0  0  0  0
 15 16  1  0  0  0  0
 16 23  2  0  0  0  0
 16 17  1  0  0  0  0
 17 18  2  0  0  0  0
 17 19  1  0  0  0  0
 19 20  1  0  0  0  0
 20 21  1  0  0  0  0
 20 22  2  0  0  0  0
 21 41  1  0  0  0  0
 21 42  1  0  0  0  0
 22 23  1  0  0  0  0
M  CHG  1   5   1
M  CHG  1  19  -1
M  END
> <s_m_source_file>
AV-unprocessed.smi

> <i_m_source_file_index>
50

> <i_lp_mmshare_version>
43012

> <i_f3d_flags>
0

> <s_epik_input>
W0NIM11bQ0hdKFtDSDNdKVtDQEhdKFtOSDJdKUMoPU8pT1tDSDJdW0NIMl1PW0NIMl1uKFtjSF1uMSljKGMxMiluYyhbTkgyXSlbbkhdYzI9Tw==

> <s_epik_cmdline>
J2VwaWtfcHl0aG9uJywgJy1waCcsICc3LjAnLCAnLXRuJywgJzgnLCAnLW1hJywgJzIwMCcsICctbWV0YWxfYmluZGluZycsICctaW1hZScsICc8aW5maWxlLm1hZT4nLCAnLW9tYWUnLCAnPG91dGZpbGUubWFlPic=

> <r_lp_tautomer_probability>
0.99994

> <r_epik_Ionization_Penalty>
3.77459

> <r_epik_Ionization_Penalty_Charging>
0.215994

> <r_epik_Ionization_Penalty_Neutral>
3.5586

> <r_epik_State_Penalty>
3.75449

> <r_epik_Charging_Adjusted_Penalty>
3.97048

> <i_epik_Tot_Q>
0

> <i_epik_Tot_abs_Q>
2

> <r_epik_Metal_State_Penalty>
0.723824

> <b_epik_Metal_Only>
1

> <s_epik_Chemistry_Notes>
This compound has an ester and may undergo hydrolysis at high or low pH. This compound contains an acetal/aminal-like group ( X-CH(R)-Y where X, Y are N, S, or O) that may be acid/base labile, releasing an aldehyde.

> <s_lp_Force_Field>
OPLS_2005

> <r_lp_Energy>
6.41072

> <b_lp_Chiralities_Consistent>
1

> <s_lp_Variant>
AV-unprocessed.smi:50-5

> <Gold.Version>
5.8.1

> <Gold.Id.Protein>
6NUR|6NUR_protein|mol2

> <Gold.PLP.Fitness>
49.0180

> <Gold.PLP.PLP>
-35.4626

> <Gold.PLP.part.hbond>
-4.0000

> <Gold.PLP.part.metal>
0.0000

> <Gold.PLP.part.buried>
-3.6019

> <Gold.PLP.part.nonpolar>
-28.5042

> <Gold.PLP.part.repulsive>
1.0223

> <Gold.PLP.ligand.clash>
0.0000

> <Gold.PLP.ligand.torsion>
1.3736

> <Gold.PLP.Chemscore.Hbond>
5.0000

> <Gold.PLP.Chemscore.CHOScore>
0.3253

> <Gold.PLP.Chemscore.Metal>
0.0000

> <Gold.Chemscore.Hbonds>
donor molecule, donor type, donor heavy atom, donor atom, acceptor molecule, acceptor atom, score
      L1  H     5    33       P1 10171  0.81
      L1  H     5    43       P1  7921  0.58
      P1  H  7989  7998       L1    22  1.00
      P1  H  7997  8010       L1    19  1.50

> <Gold.PLP.Chemscore.Internal.Correction>
0.3268

> <Gold.Rescore>
     Score         DG    S(hbond)    S(metal)    S(lipo)     H(rot)  DE(clash)    DE(int)     intcor
      5.63      -8.09       3.12        0.00      38.92       4.83       0.01       2.45       ----

> <Gold.Chemscore.Fitness>
5.6265

> <Gold.Chemscore.DG>
-8.0862

> <Gold.Chemscore.ZeroCoef>
-5.4800

> <Gold.Chemscore.Hbond>
3.1200

> <Gold.Chemscore.Metal>
0.0000

> <Gold.Chemscore.Lipo>
38.9173

> <Gold.Chemscore.Internal_Hbond>
0.0000

> <Gold.Chemscore.DEClash>
0.0053

> <Gold.Chemscore.DEInternal>
2.4545

> <Gold.Chemscore.Rot>
4.8312

> <Gold.Chemscore.Internal.Correction>
   9.000000E+99

> <Gold.Chemscore.Hbonds>
donor molecule, donor type, donor heavy atom, donor atom, acceptor molecule, acceptor atom, score
      L1  H     5    33       P1 10171  0.80
      L1  H     5    43       P1  7921  0.55
      P1  H  7989  7998       L1    22  0.35
      P1  H  7997  8010       L1    19  0.08

> <Gold.Chemscore.Hbond.Weighted>
-10.4207

> <Gold.Chemscore.Metal.Weighted>
-0.0000

> <Gold.Chemscore.Lipo.Weighted>
-4.5533

> <Gold.Chemscore.Internal_Hbond.Weighted>
0.0000

> <Gold.Chemscore.DEClash.Weighted>
0.0053

> <Gold.Chemscore.DEInternal.Weighted>
2.4545

> <Gold.Chemscore.Rot.Weighted>
12.3678

> <Gold.Chemscore.Internal.Correction.Weighted>
   9.000000E+99

> <Gold.Protein.RotatedTorsions>
[ 6907 6896 6895 6894 ] final  -59.98 input  -60.11 | X-H torsion
[ 7974 7965 7964 7962 ] final  -63.99 input  175.53 | X-H torsion
[ 8008 7997 7996 7995 ] final   56.80 input   59.86 | X-H torsion
[ 10167 10162 10161 10158 ] final  -79.70 input  -65.29 | X-H torsion
[ 10718 10713 10712 10709 ] final  -43.46 input   66.30 | X-H torsion
[ 10763 10752 10751 10750 ] final   72.65 input  -60.55 | X-H torsion
[ 11005 11000 10999 10996 ] final -112.01 input  -57.11 | X-H torsion

> <Gold.Protein.ActiveResidues>
 VAL166  LYS551  ARG553  GLY616  TRP617  ASP618  TYR619  PRO620  LYS621  CYS622 
 ASP623  PHE694  ASN695  SER759  ASP760  ASP761  ALA762  ILE779  LEU786  VAL792 
 PHE793  MET794  SER795  GLU796  ALA797  LYS798  CYS799  TRP800  GLU811  SER814 

> <Gold.Protein.RotatedAtoms>
  150.7890  134.6898  159.6489 H   0  0  0  0  0  0  0  0  0  0  0  0  # atno 6907 bound_to 6896
  152.3992  134.6311  160.0085 H   0  0  0  0  0  0  0  0  0  0  0  0  # atno 6908 bound_to 6896
  151.6588  133.3281  159.3205 H   0  0  0  0  0  0  0  0  0  0  0  0  # atno 6909 bound_to 6896
  145.7722  140.8806  143.0374 H   0  0  0  0  0  0  0  0  0  0  0  0  # atno 7974 bound_to 7965
  155.5233  140.3480  155.4411 H   0  0  0  0  0  0  0  0  0  0  0  0  # atno 8008 bound_to 7997
  156.0769  140.1377  156.9787 H   0  0  0  0  0  0  0  0  0  0  0  0  # atno 8009 bound_to 7997
  154.4558  140.0954  156.6729 H   0  0  0  0  0  0  0  0  0  0  0  0  # atno 8010 bound_to 7997
  140.4570  143.2465  151.8406 H   0  0  0  0  0  0  0  0  0  0  0  0  # atno 10167 bound_to 10162
  156.2488  130.4186  149.8674 H   0  0  0  0  0  0  0  0  0  0  0  0  # atno 10718 bound_to 10713
  153.0472  135.5092  154.7776 H   0  0  0  0  0  0  0  0  0  0  0  0  # atno 10763 bound_to 10752
  154.6666  135.2946  154.9799 H   0  0  0  0  0  0  0  0  0  0  0  0  # atno 10764 bound_to 10752
  154.0632  135.6688  153.4867 H   0  0  0  0  0  0  0  0  0  0  0  0  # atno 10765 bound_to 10752
  141.0701  133.9394  157.2502 H   0  0  0  0  0  0  0  0  0  0  0  0  # atno 11005 bound_to 11000
  144.6810  139.9872  143.7484 LP  0  0  0  0  0  0  0  0  0  0  0  0  # atno 17320 bound_to 7965
  146.0158  139.3208  143.0843 LP  0  0  0  0  0  0  0  0  0  0  0  0  # atno 17321 bound_to 7965
  139.4802  144.5053  151.9005 LP  0  0  0  0  0  0  0  0  0  0  0  0  # atno 17342 bound_to 10162
  140.4140  144.2332  150.5888 LP  0  0  0  0  0  0  0  0  0  0  0  0  # atno 17343 bound_to 10162
  156.6230  130.8634  151.3479 LP  0  0  0  0  0  0  0  0  0  0  0  0  # atno 17370 bound_to 10713
  157.7206  130.9553  150.1423 LP  0  0  0  0  0  0  0  0  0  0  0  0  # atno 17371 bound_to 10713
  139.9514  135.0174  156.9006 LP  0  0  0  0  0  0  0  0  0  0  0  0  # atno 17394 bound_to 11000
  140.5692  134.0460  155.7424 LP  0  0  0  0  0  0  0  0  0  0  0  0  # atno 17395 bound_to 11000

$$$$
