AV-unprocessed.smi:1433|AV-procd|sdf|5837|dock1
  -GOLD-   22720 5493D 1   1.00000     0.00000
 Structure written by MMmdl.
 44 45  0  0  0  0  0  0  0  0  1 V2000
  149.2726  141.5483  156.5181 C   0  0  0  0  0  0  0  0  0  0  0  0
  149.5522  141.3929  155.0133 C   0  0  2  0  0  0  0  0  0  0  0  0
  148.3569  140.8207  154.2253 C   0  0  0  0  0  0  0  0  0  0  0  0
  148.1394  139.3856  154.4418 N   0  0  0  0  0  0  0  0  0  0  0  0
  147.0060  138.8525  153.6491 C   0  0  1  0  0  0  0  0  0  0  0  0
  146.9376  139.4542  152.2209 C   0  0  0  0  0  0  0  0  0  0  0  0
  147.0074  137.3026  153.5382 C   0  0  0  0  0  0  0  0  0  0  0  0
  146.1567  136.8282  152.4539 N   0  0  0  0  0  0  0  0  0  0  0  0
  145.9406  135.5399  152.1515 C   0  0  0  0  0  0  0  0  0  0  0  0
  146.4125  134.6025  152.7946 O   0  0  0  0  0  0  0  0  0  0  0  0
  145.0563  135.2672  150.9336 C   0  0  0  0  0  0  0  0  0  0  0  0
  145.0291  133.8509  150.6115 N   0  0  0  0  0  0  0  0  0  0  0  0
  143.9355  133.0152  150.5204 C   0  0  0  0  0  0  0  0  0  0  0  0
  144.4004  131.7700  150.2079 C   0  0  0  0  0  0  0  0  0  0  0  0
  145.8105  131.9451  150.1287 C   0  0  0  0  0  0  0  0  0  0  0  0
  146.1841  133.1914  150.3697 N   0  0  0  0  0  0  0  0  0  0  0  0
  149.3990  138.6911  154.1591 C   0  0  0  0  0  0  0  0  0  0  0  0
  150.5785  139.2250  154.9915 C   0  0  1  0  0  0  0  0  0  0  0  0
  151.9002  138.5445  154.6193 C   0  0  0  0  0  0  0  0  0  0  0  0
  150.7259  140.6227  154.7664 O   0  0  0  0  0  0  0  0  0  0  0  0
  148.4477  142.2404  156.6887 H   0  0  0  0  0  0  0  0  0  0  0  0
  150.1464  141.9426  157.0372 H   0  0  0  0  0  0  0  0  0  0  0  0
  149.0033  140.6018  156.9863 H   0  0  0  0  0  0  0  0  0  0  0  0
  149.7578  142.3914  154.6266 H   0  0  0  0  0  0  0  0  0  0  0  0
  147.4806  141.3966  154.5151 H   0  0  0  0  0  0  0  0  0  0  0  0
  148.5143  141.0049  153.1614 H   0  0  0  0  0  0  0  0  0  0  0  0
  146.0814  139.1330  154.1564 H   0  0  0  0  0  0  0  0  0  0  0  0
  146.1410  139.0186  151.6185 H   0  0  0  0  0  0  0  0  0  0  0  0
  147.8736  139.2992  151.6834 H   0  0  0  0  0  0  0  0  0  0  0  0
  146.7275  140.5227  152.2319 H   0  0  0  0  0  0  0  0  0  0  0  0
  148.0288  136.9429  153.3998 H   0  0  0  0  0  0  0  0  0  0  0  0
  146.6197  136.8311  154.4396 H   0  0  0  0  0  0  0  0  0  0  0  0
  145.7276  137.5307  151.8684 H   0  0  0  0  0  0  0  0  0  0  0  0
  144.0365  135.6012  151.1293 H   0  0  0  0  0  0  0  0  0  0  0  0
  145.4211  135.8314  150.0737 H   0  0  0  0  0  0  0  0  0  0  0  0
  142.9300  133.3733  150.6866 H   0  0  0  0  0  0  0  0  0  0  0  0
  143.8219  130.8702  150.0604 H   0  0  0  0  0  0  0  0  0  0  0  0
  146.5681  131.2087  149.9048 H   0  0  0  0  0  0  0  0  0  0  0  0
  149.3105  137.6301  154.3845 H   0  0  0  0  0  0  0  0  0  0  0  0
  149.6334  138.7704  153.0964 H   0  0  0  0  0  0  0  0  0  0  0  0
  150.3882  139.0441  156.0499 H   0  0  0  0  0  0  0  0  0  0  0  0
  151.8482  137.4679  154.7842 H   0  0  0  0  0  0  0  0  0  0  0  0
  152.7215  138.9334  155.2215 H   0  0  0  0  0  0  0  0  0  0  0  0
  152.1485  138.7114  153.5707 H   0  0  0  0  0  0  0  0  0  0  0  0
  1  2  1  0  0  0  0
  1 21  1  0  0  0  0
  1 22  1  0  0  0  0
  1 23  1  0  0  0  0
  2 20  1  0  0  0  0
  2  3  1  0  0  0  0
  2 24  1  0  0  0  0
  3  4  1  0  0  0  0
  3 25  1  0  0  0  0
  3 26  1  0  0  0  0
  4  5  1  0  0  0  0
  4 17  1  0  0  0  0
  5  6  1  0  0  0  0
  5  7  1  0  0  0  0
  5 27  1  0  0  0  0
  6 28  1  0  0  0  0
  6 29  1  0  0  0  0
  6 30  1  0  0  0  0
  7  8  1  0  0  0  0
  7 31  1  0  0  0  0
  7 32  1  0  0  0  0
  8  9  1  0  0  0  0
  8 33  1  0  0  0  0
  9 10  2  0  0  0  0
  9 11  1  0  0  0  0
 11 12  1  0  0  0  0
 11 34  1  0  0  0  0
 11 35  1  0  0  0  0
 12 16  1  0  0  0  0
 12 13  1  0  0  0  0
 13 14  2  0  0  0  0
 13 36  1  0  0  0  0
 14 15  1  0  0  0  0
 14 37  1  0  0  0  0
 15 16  2  0  0  0  0
 15 38  1  0  0  0  0
 17 18  1  0  0  0  0
 17 39  1  0  0  0  0
 17 40  1  0  0  0  0
 18 19  1  0  0  0  0
 18 20  1  0  0  0  0
 18 41  1  0  0  0  0
 19 42  1  0  0  0  0
 19 43  1  0  0  0  0
 19 44  1  0  0  0  0
M  END
> <s_m_source_file>
AV-unprocessed.smi

> <i_m_source_file_index>
1433

> <i_lp_mmshare_version>
43012

> <i_f3d_flags>
0

> <s_epik_input>
W0NIM11bQ0BASF0xW0NIMl1OKFtDSDJdW0NASF0oTzEpW0NIM10pW0NASF0oW0NIM10pW0NIMl1bTkhdQyg9TylbQ0gyXW4yW2NIXVtjSF1bY0hdbjI=

> <s_epik_cmdline>
J2VwaWtfcHl0aG9uJywgJy1waCcsICc3LjAnLCAnLXRuJywgJzgnLCAnLW1hJywgJzIwMCcsICctbWV0YWxfYmluZGluZycsICctaW1hZScsICc8aW5maWxlLm1hZT4nLCAnLW9tYWUnLCAnPG91dGZpbGUubWFlPic=

> <r_lp_tautomer_probability>
1

> <r_epik_Ionization_Penalty>
0.196927

> <r_epik_Ionization_Penalty_Charging>
0

> <r_epik_Ionization_Penalty_Neutral>
0.196927

> <r_epik_State_Penalty>
0.186684

> <r_epik_Charging_Adjusted_Penalty>
0.186684

> <i_epik_Tot_Q>
0

> <i_epik_Tot_abs_Q>
0

> <r_epik_Metal_State_Penalty>
0.186682

> <b_epik_Metal_Only>
0

> <s_lp_Force_Field>
OPLS_2005

> <r_lp_Energy>
30.021

> <b_lp_Chiralities_Consistent>
1

> <s_lp_Variant>
AV-unprocessed.smi:1433-3

> <Gold.Version>
5.8.1

> <Gold.Id.Protein>
6NUR|6NUR_protein|mol2

> <Gold.PLP.Fitness>
42.6323

> <Gold.PLP.PLP>
-34.8217

> <Gold.PLP.part.hbond>
-1.8609

> <Gold.PLP.part.metal>
0.0000

> <Gold.PLP.part.buried>
0.6460

> <Gold.PLP.part.nonpolar>
-34.4974

> <Gold.PLP.part.repulsive>
0.5276

> <Gold.PLP.ligand.clash>
0.0165

> <Gold.PLP.ligand.torsion>
0.6230

> <Gold.PLP.Chemscore.Hbond>
0.9920

> <Gold.PLP.Chemscore.CHOScore>
2.0000

> <Gold.PLP.Chemscore.Metal>
0.0000

> <Gold.Chemscore.Hbonds>
donor molecule, donor type, donor heavy atom, donor atom, acceptor molecule, acceptor atom, score
      P1  H  7989  7998       L1    20  0.98
      L1  C    13    36       P1 10186  1.00
      L1  C    15    38       P1 10747  1.00

> <Gold.PLP.Chemscore.Internal.Correction>
0.0972

> <Gold.Rescore>
     Score         DG    S(hbond)    S(metal)    S(lipo)     H(rot)  DE(clash)    DE(int)     intcor
     12.32     -14.87       0.89        0.00      94.46       1.80       0.34       2.22       ----

> <Gold.Chemscore.Fitness>
12.3192

> <Gold.Chemscore.DG>
-14.8722

> <Gold.Chemscore.ZeroCoef>
-5.4800

> <Gold.Chemscore.Hbond>
0.8856

> <Gold.Chemscore.Metal>
0.0000

> <Gold.Chemscore.Lipo>
94.4618

> <Gold.Chemscore.Internal_Hbond>
0.0000

> <Gold.Chemscore.DEClash>
0.3379

> <Gold.Chemscore.DEInternal>
2.2151

> <Gold.Chemscore.Rot>
1.8038

> <Gold.Chemscore.Internal.Correction>
   9.000000E+99

> <Gold.Chemscore.Hbonds>
donor molecule, donor type, donor heavy atom, donor atom, acceptor molecule, acceptor atom, score
      P1  H  7989  7998       L1    20  0.70

> <Gold.Chemscore.Hbond.Weighted>
-2.9579

> <Gold.Chemscore.Metal.Weighted>
-0.0000

> <Gold.Chemscore.Lipo.Weighted>
-11.0520

> <Gold.Chemscore.Internal_Hbond.Weighted>
0.0000

> <Gold.Chemscore.DEClash.Weighted>
0.3379

> <Gold.Chemscore.DEInternal.Weighted>
2.2151

> <Gold.Chemscore.Rot.Weighted>
4.6178

> <Gold.Chemscore.Internal.Correction.Weighted>
   9.000000E+99

> <Gold.Protein.RotatedTorsions>
[ 6907 6896 6895 6894 ] final -141.06 input  -60.11 | X-H torsion
[ 7974 7965 7964 7962 ] final -114.12 input  175.53 | X-H torsion
[ 8008 7997 7996 7995 ] final -166.49 input   59.86 | X-H torsion
[ 10167 10162 10161 10158 ] final -115.92 input  -65.29 | X-H torsion
[ 10718 10713 10712 10709 ] final -171.43 input   66.30 | X-H torsion
[ 10763 10752 10751 10750 ] final  -37.33 input  -60.55 | X-H torsion
[ 11005 11000 10999 10996 ] final  -25.07 input  -57.11 | X-H torsion

> <Gold.Protein.ActiveResidues>
 VAL166  LYS551  ARG553  GLY616  TRP617  ASP618  TYR619  PRO620  LYS621  CYS622 
 ASP623  PHE694  ASN695  SER759  ASP760  ASP761  ALA762  ILE779  LEU786  VAL792 
 PHE793  MET794  SER795  GLU796  ALA797  LYS798  CYS799  TRP800  GLU811  SER814 

> <Gold.Protein.RotatedAtoms>
  151.0688  133.5483  159.2628 H   0  0  0  0  0  0  0  0  0  0  0  0  # atno 6907 bound_to 6896
  151.2430  135.0595  159.9042 H   0  0  0  0  0  0  0  0  0  0  0  0  # atno 6908 bound_to 6896
  152.5408  134.0460  159.8142 H   0  0  0  0  0  0  0  0  0  0  0  0  # atno 6909 bound_to 6896
  145.1239  140.8685  143.3797 H   0  0  0  0  0  0  0  0  0  0  0  0  # atno 7974 bound_to 7965
  155.8645  140.0983  157.1591 H   0  0  0  0  0  0  0  0  0  0  0  0  # atno 8008 bound_to 7997
  154.3992  140.1359  156.4065 H   0  0  0  0  0  0  0  0  0  0  0  0  # atno 8009 bound_to 7997
  155.7819  140.3458  155.5304 H   0  0  0  0  0  0  0  0  0  0  0  0  # atno 8010 bound_to 7997
  140.0848  143.4754  152.1905 H   0  0  0  0  0  0  0  0  0  0  0  0  # atno 10167 bound_to 10162
  156.7407  130.9341  151.3110 H   0  0  0  0  0  0  0  0  0  0  0  0  # atno 10718 bound_to 10713
  153.8945  135.6809  153.4758 H   0  0  0  0  0  0  0  0  0  0  0  0  # atno 10763 bound_to 10752
  153.1163  135.4760  154.9118 H   0  0  0  0  0  0  0  0  0  0  0  0  # atno 10764 bound_to 10752
  154.7606  135.3209  154.8339 H   0  0  0  0  0  0  0  0  0  0  0  0  # atno 10765 bound_to 10752
  140.8903  133.7593  156.0413 H   0  0  0  0  0  0  0  0  0  0  0  0  # atno 11005 bound_to 11000
  145.0709  139.3032  143.5832 LP  0  0  0  0  0  0  0  0  0  0  0  0  # atno 17320 bound_to 7965
  146.3519  140.0184  142.8661 LP  0  0  0  0  0  0  0  0  0  0  0  0  # atno 17321 bound_to 7965
  139.5759  144.7487  151.3768 LP  0  0  0  0  0  0  0  0  0  0  0  0  # atno 17342 bound_to 10162
  140.7059  143.7515  150.7481 LP  0  0  0  0  0  0  0  0  0  0  0  0  # atno 17343 bound_to 10162
  157.6820  130.9149  150.0290 LP  0  0  0  0  0  0  0  0  0  0  0  0  # atno 17370 bound_to 10713
  156.1467  130.3642  149.9500 LP  0  0  0  0  0  0  0  0  0  0  0  0  # atno 17371 bound_to 10713
  140.8354  134.3129  157.5333 LP  0  0  0  0  0  0  0  0  0  0  0  0  # atno 17394 bound_to 11000
  139.8729  134.9387  156.3721 LP  0  0  0  0  0  0  0  0  0  0  0  0  # atno 17395 bound_to 11000

$$$$
