AV-unprocessed.smi:1093|AV-procd|sdf|4739|dock3
  -GOLD-   22720 3273D 1   1.00000     0.00000
 Structure written by MMmdl.
 48 49  0  0  0  0  0  0  0  0  3 V2000
  145.2835  133.3779  150.5376 C   0  0  0  0  0  0  0  0  0  0  0  0
  146.5546  133.9031  151.2211 C   0  0  0  0  0  0  0  0  0  0  0  0
  146.3204  135.1662  151.9652 N   0  3  2  0  0  0  0  0  0  0  0  0
  145.3714  134.9853  153.0947 C   0  0  0  0  0  0  0  0  0  0  0  0
  145.2535  136.2670  153.9377 C   0  0  0  0  0  0  0  0  0  0  0  0
  144.8718  137.4763  153.0682 C   0  0  0  0  0  0  0  0  0  0  0  0
  145.8363  137.6240  151.8785 C   0  0  1  0  0  0  0  0  0  0  0  0
  147.1537  138.0472  152.3555 N   0  0  0  0  0  0  0  0  0  0  0  0
  147.3806  139.0302  153.2388 C   0  0  0  0  0  0  0  0  0  0  0  0
  146.4869  139.7226  153.7238 O   0  0  0  0  0  0  0  0  0  0  0  0
  148.6936  139.1582  153.4971 N   0  0  0  0  0  0  0  0  0  0  0  0
  149.3425  140.0535  154.3913 C   0  0  0  0  0  0  0  0  0  0  0  0
  150.4697  139.5768  155.0926 C   0  0  0  0  0  0  0  0  0  0  0  0
  151.1406  140.4194  156.0022 C   0  0  0  0  0  0  0  0  0  0  0  0
  150.6751  141.7401  156.2148 C   0  0  0  0  0  0  0  0  0  0  0  0
  151.2909  142.6424  157.1089 N   0  0  0  0  0  0  0  0  0  0  0  0
  151.9327  142.1403  158.3187 C   0  0  0  0  0  0  0  0  0  0  0  0
  151.3156  144.0662  156.7997 C   0  0  0  0  0  0  0  0  0  0  0  0
  149.5823  142.1498  155.5253 N   0  3  0  0  0  0  0  0  0  0  0  0
  148.9104  141.3773  154.6444 C   0  0  0  0  0  0  0  0  0  0  0  0
  145.9059  136.2963  151.0911 C   0  0  0  0  0  0  0  0  0  0  0  0
  145.5131  132.5079  149.9219 H   0  0  0  0  0  0  0  0  0  0  0  0
  144.8437  134.1345  149.8872 H   0  0  0  0  0  0  0  0  0  0  0  0
  144.5257  133.0701  151.2574 H   0  0  0  0  0  0  0  0  0  0  0  0
  146.9762  133.1482  151.8863 H   0  0  0  0  0  0  0  0  0  0  0  0
  147.2986  134.0791  150.4431 H   0  0  0  0  0  0  0  0  0  0  0  0
  144.3926  134.6996  152.7059 H   0  0  0  0  0  0  0  0  0  0  0  0
  145.7084  134.1686  153.7343 H   0  0  0  0  0  0  0  0  0  0  0  0
  144.5104  136.1269  154.7234 H   0  0  0  0  0  0  0  0  0  0  0  0
  146.2001  136.4590  154.4444 H   0  0  0  0  0  0  0  0  0  0  0  0
  143.8560  137.3423  152.6940 H   0  0  0  0  0  0  0  0  0  0  0  0
  144.8584  138.3867  153.6689 H   0  0  0  0  0  0  0  0  0  0  0  0
  145.4489  138.4046  151.2214 H   0  0  0  0  0  0  0  0  0  0  0  0
  147.9481  137.5275  152.0111 H   0  0  0  0  0  0  0  0  0  0  0  0
  149.3085  138.5557  152.9698 H   0  0  0  0  0  0  0  0  0  0  0  0
  150.8258  138.5689  154.9349 H   0  0  0  0  0  0  0  0  0  0  0  0
  152.0043  140.0352  156.5240 H   0  0  0  0  0  0  0  0  0  0  0  0
  152.7410  141.4528  158.0674 H   0  0  0  0  0  0  0  0  0  0  0  0
  151.2114  141.6148  158.9452 H   0  0  0  0  0  0  0  0  0  0  0  0
  152.3570  142.9523  158.9095 H   0  0  0  0  0  0  0  0  0  0  0  0
  150.3020  144.4609  156.7250 H   0  0  0  0  0  0  0  0  0  0  0  0
  151.8304  144.2430  155.8550 H   0  0  0  0  0  0  0  0  0  0  0  0
  151.8361  144.6315  157.5727 H   0  0  0  0  0  0  0  0  0  0  0  0
  148.0522  141.8527  154.1945 H   0  0  0  0  0  0  0  0  0  0  0  0
  146.5941  136.4049  150.2541 H   0  0  0  0  0  0  0  0  0  0  0  0
  144.9310  136.0734  150.6545 H   0  0  0  0  0  0  0  0  0  0  0  0
  147.2061  135.4222  152.3772 H   0  0  0  0  0  0  0  0  0  0  0  0
  149.2426  143.0987  155.6833 H   0  0  0  0  0  0  0  0  0  0  0  0
  1  2  1  0  0  0  0
  1 22  1  0  0  0  0
  1 23  1  0  0  0  0
  1 24  1  0  0  0  0
  2  3  1  0  0  0  0
  2 25  1  0  0  0  0
  2 26  1  0  0  0  0
  3 21  1  0  0  0  0
  3  4  1  0  0  0  0
  3 47  1  0  0  0  0
  4  5  1  0  0  0  0
  4 27  1  0  0  0  0
  4 28  1  0  0  0  0
  5  6  1  0  0  0  0
  5 29  1  0  0  0  0
  5 30  1  0  0  0  0
  6  7  1  0  0  0  0
  6 31  1  0  0  0  0
  6 32  1  0  0  0  0
  7  8  1  0  0  0  0
  7 21  1  0  0  0  0
  7 33  1  0  0  0  0
  8  9  1  0  0  0  0
  8 34  1  0  0  0  0
  9 10  2  0  0  0  0
  9 11  1  0  0  0  0
 11 12  1  0  0  0  0
 11 35  1  0  0  0  0
 12 20  1  0  0  0  0
 12 13  2  0  0  0  0
 13 14  1  0  0  0  0
 13 36  1  0  0  0  0
 14 15  2  0  0  0  0
 14 37  1  0  0  0  0
 15 16  1  0  0  0  0
 15 19  1  0  0  0  0
 16 17  1  0  0  0  0
 16 18  1  0  0  0  0
 17 38  1  0  0  0  0
 17 39  1  0  0  0  0
 17 40  1  0  0  0  0
 18 41  1  0  0  0  0
 18 42  1  0  0  0  0
 18 43  1  0  0  0  0
 19 20  2  0  0  0  0
 19 48  1  0  0  0  0
 20 44  1  0  0  0  0
 21 45  1  0  0  0  0
 21 46  1  0  0  0  0
M  CHG  1   3   1
M  CHG  1  19   1
M  END
> <s_m_source_file>
AV-unprocessed.smi

> <i_m_source_file_index>
1093

> <i_lp_mmshare_version>
43012

> <i_f3d_flags>
0

> <s_epik_input>
W0NIM11bQ0gyXU4xW0NIMl1bQ0gyXVtDSDJdW0NASF0oW0NIMl0xKVtOSF1DKD1PKVtOSF1jMltjSF1bY0hdYyhOKFtDSDNdKVtDSDNdKW5bY0hdMg==

> <s_epik_cmdline>
J2VwaWtfcHl0aG9uJywgJy1waCcsICc3LjAnLCAnLXRuJywgJzgnLCAnLW1hJywgJzIwMCcsICctbWV0YWxfYmluZGluZycsICctaW1hZScsICc8aW5maWxlLm1hZT4nLCAnLW9tYWUnLCAnPG91dGZpbGUubWFlPic=

> <r_lp_tautomer_probability>
0.999994

> <r_epik_Ionization_Penalty>
0.346711

> <r_epik_Ionization_Penalty_Charging>
0.346691

> <r_epik_Ionization_Penalty_Neutral>
1.93006e-05

> <r_epik_State_Penalty>
0.339838

> <r_epik_Charging_Adjusted_Penalty>
0.68653

> <i_epik_Tot_Q>
2

> <i_epik_Tot_abs_Q>
2

> <r_epik_Metal_State_Penalty>
0.600835

> <b_epik_Metal_Only>
0

> <s_lp_Force_Field>
OPLS_2005

> <r_lp_Energy>
35.5707

> <b_lp_Chiralities_Consistent>
1

> <s_lp_Variant>
AV-unprocessed.smi:1093-2

> <Gold.Version>
5.8.1

> <Gold.Id.Protein>
6NUR|6NUR_protein|mol2

> <Gold.PLP.Fitness>
49.4102

> <Gold.PLP.PLP>
-37.2042

> <Gold.PLP.part.hbond>
-4.0053

> <Gold.PLP.part.metal>
0.0000

> <Gold.PLP.part.buried>
-0.2743

> <Gold.PLP.part.nonpolar>
-32.4261

> <Gold.PLP.part.repulsive>
0.5276

> <Gold.PLP.ligand.clash>
0.0000

> <Gold.PLP.ligand.torsion>
0.8601

> <Gold.PLP.Chemscore.Hbond>
4.6320

> <Gold.PLP.Chemscore.CHOScore>
0.0000

> <Gold.PLP.Chemscore.Metal>
0.0000

> <Gold.Chemscore.Hbonds>
donor molecule, donor type, donor heavy atom, donor atom, acceptor molecule, acceptor atom, score
      L1  H     3    47       P1  7948  1.57
      L1  H     8    34       P1  7948  1.00
      L1  H    19    48       P1  8028  2.00

> <Gold.PLP.Chemscore.Internal.Correction>
0.0301

> <Gold.Rescore>
     Score         DG    S(hbond)    S(metal)    S(lipo)     H(rot)  DE(clash)    DE(int)     intcor
     18.35     -22.10       2.86        0.00      86.53       1.19       1.66       2.09       ----

> <Gold.Chemscore.Fitness>
18.3496

> <Gold.Chemscore.DG>
-22.0998

> <Gold.Chemscore.ZeroCoef>
-5.4800

> <Gold.Chemscore.Hbond>
2.8607

> <Gold.Chemscore.Metal>
0.0000

> <Gold.Chemscore.Lipo>
86.5291

> <Gold.Chemscore.Internal_Hbond>
0.0000

> <Gold.Chemscore.DEClash>
1.6569

> <Gold.Chemscore.DEInternal>
2.0934

> <Gold.Chemscore.Rot>
1.1949

> <Gold.Chemscore.Internal.Correction>
   9.000000E+99

> <Gold.Chemscore.Hbonds>
donor molecule, donor type, donor heavy atom, donor atom, acceptor molecule, acceptor atom, score
      L1  H     3    47       P1  7948  0.76
      L1  H     8    34       P1  7948  0.98
      L1  H    11    35       P1  7957  0.01
      L1  H    19    48       P1  8028  1.00

> <Gold.Chemscore.Hbond.Weighted>
-9.5549

> <Gold.Chemscore.Metal.Weighted>
-0.0000

> <Gold.Chemscore.Lipo.Weighted>
-10.1239

> <Gold.Chemscore.Internal_Hbond.Weighted>
0.0000

> <Gold.Chemscore.DEClash.Weighted>
1.6569

> <Gold.Chemscore.DEInternal.Weighted>
2.0934

> <Gold.Chemscore.Rot.Weighted>
3.0590

> <Gold.Chemscore.Internal.Correction.Weighted>
   9.000000E+99

> <Gold.Protein.RotatedTorsions>
[ 6907 6896 6895 6894 ] final   92.21 input  -60.11 | X-H torsion
[ 7974 7965 7964 7962 ] final -112.40 input  175.53 | X-H torsion
[ 8008 7997 7996 7995 ] final   31.82 input   59.86 | X-H torsion
[ 10167 10162 10161 10158 ] final  163.78 input  -65.29 | X-H torsion
[ 10718 10713 10712 10709 ] final  174.71 input   66.30 | X-H torsion
[ 10763 10752 10751 10750 ] final  -77.70 input  -60.55 | X-H torsion
[ 11005 11000 10999 10996 ] final   99.16 input  -57.11 | X-H torsion

> <Gold.Protein.ActiveResidues>
 VAL166  LYS551  ARG553  GLY616  TRP617  ASP618  TYR619  PRO620  LYS621  CYS622 
 ASP623  PHE694  ASN695  SER759  ASP760  ASP761  ALA762  ILE779  LEU786  VAL792 
 PHE793  MET794  SER795  GLU796  ALA797  LYS798  CYS799  TRP800  GLU811  SER814 

> <Gold.Protein.RotatedAtoms>
  152.5452  134.1537  159.8528 H   0  0  0  0  0  0  0  0  0  0  0  0  # atno 6907 bound_to 6896
  151.1561  133.4868  159.2602 H   0  0  0  0  0  0  0  0  0  0  0  0  # atno 6908 bound_to 6896
  151.1421  135.0195  159.8685 H   0  0  0  0  0  0  0  0  0  0  0  0  # atno 6909 bound_to 6896
  145.1444  140.8795  143.3683 H   0  0  0  0  0  0  0  0  0  0  0  0  # atno 7974 bound_to 7965
  155.1126  140.3240  155.4517 H   0  0  0  0  0  0  0  0  0  0  0  0  # atno 8008 bound_to 7997
  156.2686  140.2041  156.6198 H   0  0  0  0  0  0  0  0  0  0  0  0  # atno 8009 bound_to 7997
  154.6744  140.0533  157.0187 H   0  0  0  0  0  0  0  0  0  0  0  0  # atno 8010 bound_to 7997
  139.4879  144.4302  151.9079 H   0  0  0  0  0  0  0  0  0  0  0  0  # atno 10167 bound_to 10162
  156.9455  131.0015  151.2959 H   0  0  0  0  0  0  0  0  0  0  0  0  # atno 10718 bound_to 10713
  154.5163  135.5755  153.6645 H   0  0  0  0  0  0  0  0  0  0  0  0  # atno 10763 bound_to 10752
  152.9907  135.6171  154.2812 H   0  0  0  0  0  0  0  0  0  0  0  0  # atno 10764 bound_to 10752
  154.2730  135.2853  155.2709 H   0  0  0  0  0  0  0  0  0  0  0  0  # atno 10765 bound_to 10752
  139.8771  134.9082  156.4563 H   0  0  0  0  0  0  0  0  0  0  0  0  # atno 11005 bound_to 11000
  145.0497  139.3191  143.5934 LP  0  0  0  0  0  0  0  0  0  0  0  0  # atno 17320 bound_to 7965
  146.3501  139.9901  142.8686 LP  0  0  0  0  0  0  0  0  0  0  0  0  # atno 17321 bound_to 7965
  140.3750  144.2808  150.5915 LP  0  0  0  0  0  0  0  0  0  0  0  0  # atno 17342 bound_to 10162
  140.5285  143.2249  151.8276 LP  0  0  0  0  0  0  0  0  0  0  0  0  # atno 17343 bound_to 10162
  157.5756  130.8341  149.8452 LP  0  0  0  0  0  0  0  0  0  0  0  0  # atno 17370 bound_to 10713
  156.0385  130.3745  150.1496 LP  0  0  0  0  0  0  0  0  0  0  0  0  # atno 17371 bound_to 10713
  140.8895  133.7858  155.9556 LP  0  0  0  0  0  0  0  0  0  0  0  0  # atno 17394 bound_to 11000
  140.8768  134.2660  157.5164 LP  0  0  0  0  0  0  0  0  0  0  0  0  # atno 17395 bound_to 11000

$$$$
