AV-unprocessed.smi:926|AV-procd|sdf|4183|dock5
  -GOLD-   22720 2 83D 1   1.00000     0.00000
 Structure written by MMmdl.
 37 39  0  0  0  0  0  0  0  0  1 V2000
  148.2326  141.0320  155.5571 O   0  0  0  0  0  0  0  0  0  0  0  0
  149.2227  140.3089  155.6657 C   0  0  0  0  0  0  0  0  0  0  0  0
  149.6737  139.4507  154.4843 C   0  0  0  0  0  0  0  0  0  0  0  0
  151.0098  138.9310  154.7063 N   0  0  0  0  0  0  0  0  0  0  0  0
  151.4491  137.6816  154.8730 C   0  0  0  0  0  0  0  0  0  0  0  0
  152.7596  137.6455  155.0604 N   0  0  0  0  0  0  0  0  0  0  0  0
  153.1234  138.9804  154.9986 N   0  0  0  0  0  0  0  0  0  0  0  0
  152.0893  139.7479  154.7885 N   0  0  0  0  0  0  0  0  0  0  0  0
  149.9494  140.2111  156.7901 N   0  0  0  0  0  0  0  0  0  0  0  0
  149.6532  140.9072  158.0358 C   0  0  0  0  0  0  0  0  0  0  0  0
  149.8513  142.4258  157.8876 C   0  0  0  0  0  0  0  0  0  0  0  0
  151.3330  142.8461  157.8264 C   0  0  2  0  0  0  0  0  0  0  0  0
  152.1482  142.4510  159.0767 C   0  0  0  0  0  0  0  0  0  0  0  0
  152.8427  143.7691  159.4673 C   0  0  2  0  0  0  0  0  0  0  0  0
  151.8047  144.7242  160.0853 C   0  0  0  0  0  0  0  0  0  0  0  0
  150.9769  145.1606  158.8627 C   0  0  0  0  0  0  0  0  0  0  0  0
  151.6230  144.3633  157.7109 C   0  0  1  0  0  0  0  0  0  0  0  0
  153.0948  144.4129  158.1088 C   0  0  0  0  0  0  0  0  0  0  0  0
  148.9904  138.6114  154.3484 H   0  0  0  0  0  0  0  0  0  0  0  0
  149.6555  140.0363  153.5636 H   0  0  0  0  0  0  0  0  0  0  0  0
  150.8143  136.8078  154.8622 H   0  0  0  0  0  0  0  0  0  0  0  0
  150.7483  139.5933  156.7895 H   0  0  0  0  0  0  0  0  0  0  0  0
  148.6212  140.6910  158.3128 H   0  0  0  0  0  0  0  0  0  0  0  0
  150.2797  140.5092  158.8354 H   0  0  0  0  0  0  0  0  0  0  0  0
  149.3211  142.7894  157.0077 H   0  0  0  0  0  0  0  0  0  0  0  0
  149.3823  142.9270  158.7352 H   0  0  0  0  0  0  0  0  0  0  0  0
  151.7804  142.3543  156.9610 H   0  0  0  0  0  0  0  0  0  0  0  0
  151.5277  142.0644  159.8863 H   0  0  0  0  0  0  0  0  0  0  0  0
  152.8809  141.6824  158.8276 H   0  0  0  0  0  0  0  0  0  0  0  0
  153.7302  143.6292  160.0852 H   0  0  0  0  0  0  0  0  0  0  0  0
  151.1957  144.2363  160.8471 H   0  0  0  0  0  0  0  0  0  0  0  0
  152.2909  145.5853  160.5457 H   0  0  0  0  0  0  0  0  0  0  0  0
  149.9110  144.9696  158.9807 H   0  0  0  0  0  0  0  0  0  0  0  0
  151.0932  146.2318  158.6934 H   0  0  0  0  0  0  0  0  0  0  0  0
  151.4107  144.7752  156.7239 H   0  0  0  0  0  0  0  0  0  0  0  0
  153.4931  145.4269  158.1770 H   0  0  0  0  0  0  0  0  0  0  0  0
  153.7414  143.8183  157.4609 H   0  0  0  0  0  0  0  0  0  0  0  0
  1  2  2  0  0  0  0
  2  3  1  0  0  0  0
  2  9  1  0  0  0  0
  3  4  1  0  0  0  0
  3 19  1  0  0  0  0
  3 20  1  0  0  0  0
  4  8  1  0  0  0  0
  4  5  1  0  0  0  0
  5  6  2  0  0  0  0
  5 21  1  0  0  0  0
  6  7  1  0  0  0  0
  7  8  2  0  0  0  0
  9 10  1  0  0  0  0
  9 22  1  0  0  0  0
 10 11  1  0  0  0  0
 10 23  1  0  0  0  0
 10 24  1  0  0  0  0
 11 12  1  0  0  0  0
 11 25  1  0  0  0  0
 11 26  1  0  0  0  0
 12 17  1  0  0  0  0
 12 13  1  0  0  0  0
 12 27  1  0  0  0  0
 13 14  1  0  0  0  0
 13 28  1  0  0  0  0
 13 29  1  0  0  0  0
 14 18  1  0  0  0  0
 14 15  1  0  0  0  0
 14 30  1  0  0  0  0
 15 16  1  0  0  0  0
 15 31  1  0  0  0  0
 15 32  1  0  0  0  0
 16 17  1  0  0  0  0
 16 33  1  0  0  0  0
 16 34  1  0  0  0  0
 17 18  1  0  0  0  0
 17 35  1  0  0  0  0
 18 36  1  0  0  0  0
 18 37  1  0  0  0  0
M  END
> <s_m_source_file>
AV-unprocessed.smi

> <i_m_source_file_index>
926

> <i_lp_mmshare_version>
43012

> <i_f3d_flags>
0

> <s_epik_input>
bjFubltjSF1uMVtDSDJdQyg9TylbTkhdW0NIMl1bQ0gyXVtDQEhdKFtDSDJdW0NASF0yMylbQ0BIXShbQ0gyXTMpW0NIMl1bQ0gyXTI=

> <s_epik_cmdline>
J2VwaWtfcHl0aG9uJywgJy1waCcsICc3LjAnLCAnLXRuJywgJzgnLCAnLW1hJywgJzIwMCcsICctbWV0YWxfYmluZGluZycsICctaW1hZScsICc8aW5maWxlLm1hZT4nLCAnLW9tYWUnLCAnPG91dGZpbGUubWFlPic=

> <r_lp_tautomer_probability>
1

> <r_epik_Ionization_Penalty>
4.22645e-07

> <r_epik_Ionization_Penalty_Charging>
0

> <r_epik_Ionization_Penalty_Neutral>
4.22645e-07

> <r_epik_State_Penalty>
-0

> <r_epik_Charging_Adjusted_Penalty>
0

> <i_epik_Tot_Q>
0

> <i_epik_Tot_abs_Q>
0

> <r_epik_Metal_State_Penalty>
-0

> <b_epik_Metal_Only>
0

> <s_lp_Force_Field>
OPLS_2005

> <r_lp_Energy>
51.1932

> <b_lp_Chiralities_Consistent>
1

> <s_lp_Variant>
AV-unprocessed.smi:926-1

> <Gold.Version>
5.8.1

> <Gold.Id.Protein>
6NUR|6NUR_protein|mol2

> <Gold.PLP.Fitness>
46.8195

> <Gold.PLP.PLP>
-40.8595

> <Gold.PLP.part.hbond>
-3.0000

> <Gold.PLP.part.metal>
0.0000

> <Gold.PLP.part.buried>
-7.5976

> <Gold.PLP.part.nonpolar>
-32.2867

> <Gold.PLP.part.repulsive>
0.1852

> <Gold.PLP.ligand.clash>
0.0000

> <Gold.PLP.ligand.torsion>
0.2661

> <Gold.PLP.Chemscore.Hbond>
2.1591

> <Gold.PLP.Chemscore.CHOScore>
0.0000

> <Gold.PLP.Chemscore.Metal>
0.0000

> <Gold.Chemscore.Hbonds>
donor molecule, donor type, donor heavy atom, donor atom, acceptor molecule, acceptor atom, score
      P1  H  7989  7998       L1     8  0.81
      P1  H  7997  8010       L1     7  1.00
      P1  H 10752 10765       L1     6  0.31

> <Gold.PLP.Chemscore.Internal.Correction>
0.0151

> <Gold.Rescore>
     Score         DG    S(hbond)    S(metal)    S(lipo)     H(rot)  DE(clash)    DE(int)     intcor
     15.86     -16.45       1.73        0.00     100.05       2.54       0.17       0.42       ----

> <Gold.Chemscore.Fitness>
15.8590

> <Gold.Chemscore.DG>
-16.4539

> <Gold.Chemscore.ZeroCoef>
-5.4800

> <Gold.Chemscore.Hbond>
1.7307

> <Gold.Chemscore.Metal>
0.0000

> <Gold.Chemscore.Lipo>
100.0451

> <Gold.Chemscore.Internal_Hbond>
0.0000

> <Gold.Chemscore.DEClash>
0.1736

> <Gold.Chemscore.DEInternal>
0.4213

> <Gold.Chemscore.Rot>
2.5436

> <Gold.Chemscore.Internal.Correction>
   9.000000E+99

> <Gold.Chemscore.Hbonds>
donor molecule, donor type, donor heavy atom, donor atom, acceptor molecule, acceptor atom, score
      P1  H  7989  7998       L1     8  0.18
      P1  H  7997  8010       L1     7  0.48
      P1  H 10752 10765       L1     6  0.07

> <Gold.Chemscore.Hbond.Weighted>
-5.7804

> <Gold.Chemscore.Metal.Weighted>
-0.0000

> <Gold.Chemscore.Lipo.Weighted>
-11.7053

> <Gold.Chemscore.Internal_Hbond.Weighted>
0.0000

> <Gold.Chemscore.DEClash.Weighted>
0.1736

> <Gold.Chemscore.DEInternal.Weighted>
0.4213

> <Gold.Chemscore.Rot.Weighted>
6.5117

> <Gold.Chemscore.Internal.Correction.Weighted>
   9.000000E+99

> <Gold.Protein.RotatedTorsions>
[ 6907 6896 6895 6894 ] final  163.95 input  -60.11 | X-H torsion
[ 7974 7965 7964 7962 ] final  110.34 input  175.53 | X-H torsion
[ 8008 7997 7996 7995 ] final  104.11 input   59.86 | X-H torsion
[ 10167 10162 10161 10158 ] final -154.84 input  -65.29 | X-H torsion
[ 10718 10713 10712 10709 ] final  112.68 input   66.30 | X-H torsion
[ 10763 10752 10751 10750 ] final -164.96 input  -60.55 | X-H torsion
[ 11005 11000 10999 10996 ] final  104.51 input  -57.11 | X-H torsion

> <Gold.Protein.ActiveResidues>
 VAL166  LYS551  ARG553  GLY616  TRP617  ASP618  TYR619  PRO620  LYS621  CYS622 
 ASP623  PHE694  ASN695  SER759  ASP760  ASP761  ALA762  ILE779  LEU786  VAL792 
 PHE793  MET794  SER795  GLU796  ALA797  LYS798  CYS799  TRP800  GLU811  SER814 

> <Gold.Protein.RotatedAtoms>
  151.9173  133.3576  159.3884 H   0  0  0  0  0  0  0  0  0  0  0  0  # atno 6907 bound_to 6896
  150.7044  134.4671  159.5417 H   0  0  0  0  0  0  0  0  0  0  0  0  # atno 6908 bound_to 6896
  152.2288  134.8342  160.0527 H   0  0  0  0  0  0  0  0  0  0  0  0  # atno 6909 bound_to 6896
  145.2562  139.2720  143.4041 H   0  0  0  0  0  0  0  0  0  0  0  0  # atno 7974 bound_to 7965
  156.1544  140.3153  155.8701 H   0  0  0  0  0  0  0  0  0  0  0  0  # atno 8008 bound_to 7997
  155.3907  140.0493  157.3058 H   0  0  0  0  0  0  0  0  0  0  0  0  # atno 8009 bound_to 7997
  154.5088  140.2157  155.9209 H   0  0  0  0  0  0  0  0  0  0  0  0  # atno 8010 bound_to 7997
  139.6980  143.9309  152.2416 H   0  0  0  0  0  0  0  0  0  0  0  0  # atno 10167 bound_to 10162
  157.6380  131.0971  150.6930 H   0  0  0  0  0  0  0  0  0  0  0  0  # atno 10718 bound_to 10713
  154.6978  135.2982  154.9386 H   0  0  0  0  0  0  0  0  0  0  0  0  # atno 10763 bound_to 10752
  154.0328  135.6668  153.4786 H   0  0  0  0  0  0  0  0  0  0  0  0  # atno 10764 bound_to 10752
  153.0659  135.5089  154.8105 H   0  0  0  0  0  0  0  0  0  0  0  0  # atno 10765 bound_to 10752
  139.8792  134.9303  156.5373 H   0  0  0  0  0  0  0  0  0  0  0  0  # atno 11005 bound_to 11000
  146.3288  140.2967  142.8618 LP  0  0  0  0  0  0  0  0  0  0  0  0  # atno 17320 bound_to 7965
  144.9459  140.8127  143.5602 LP  0  0  0  0  0  0  0  0  0  0  0  0  # atno 17321 bound_to 7965
  139.9144  144.6837  150.8528 LP  0  0  0  0  0  0  0  0  0  0  0  0  # atno 17342 bound_to 10162
  140.7702  143.3420  151.2189 LP  0  0  0  0  0  0  0  0  0  0  0  0  # atno 17343 bound_to 10162
  156.7258  130.4694  149.5511 LP  0  0  0  0  0  0  0  0  0  0  0  0  # atno 17370 bound_to 10713
  156.1635  130.6389  151.0748 LP  0  0  0  0  0  0  0  0  0  0  0  0  # atno 17371 bound_to 10713
  140.8336  133.8259  155.9007 LP  0  0  0  0  0  0  0  0  0  0  0  0  # atno 17394 bound_to 11000
  140.9305  134.2028  157.4867 LP  0  0  0  0  0  0  0  0  0  0  0  0  # atno 17395 bound_to 11000

$$$$
