AV-unprocessed.smi:485|AV-procd|sdf|2694|dock1
  -GOLD-   2262023123D 1   1.00000     0.00000
 Structure written by MMmdl.
 37 39  0  0  0  0  0  0  0  0  2 V2000
  151.3203  136.3702  154.1393 O   0  0  0  0  0  0  0  0  0  0  0  0
  151.6001  137.6330  154.7018 C   0  0  0  0  0  0  0  0  0  0  0  0
  150.5050  138.6174  154.4560 C   0  0  0  0  0  0  0  0  0  0  0  0
  149.4087  138.4130  153.6728 N   0  3  0  0  0  0  0  0  0  0  0  0
  148.5951  139.5465  153.6937 C   0  0  0  0  0  0  0  0  0  0  0  0
  147.3837  139.8094  153.0615 C   0  0  0  0  0  0  0  0  0  0  0  0
  146.8097  141.0765  153.2948 C   0  0  0  0  0  0  0  0  0  0  0  0
  147.4393  142.0256  154.1261 C   0  0  0  0  0  0  0  0  0  0  0  0
  148.6678  141.7475  154.7611 C   0  0  0  0  0  0  0  0  0  0  0  0
  149.2272  140.4909  154.5288 C   0  0  0  0  0  0  0  0  0  0  0  0
  150.4012  139.8735  154.9779 N   0  0  0  0  0  0  0  0  0  0  0  0
  151.3021  140.5940  155.8921 C   0  0  0  0  0  0  0  0  0  0  0  0
  150.6758  140.8543  157.2769 C   0  0  1  0  0  0  0  0  0  0  0  0
  150.7152  139.6779  158.0616 O   0  0  0  0  0  0  0  0  0  0  0  0
  151.3451  142.0316  157.9687 C   0  0  0  0  0  0  0  0  0  0  0  0
  151.3285  143.3167  157.3822 C   0  0  0  0  0  0  0  0  0  0  0  0
  151.9430  144.4031  158.0348 C   0  0  0  0  0  0  0  0  0  0  0  0
  152.5747  144.2124  159.2787 C   0  0  0  0  0  0  0  0  0  0  0  0
  152.5904  142.9348  159.8702 C   0  0  0  0  0  0  0  0  0  0  0  0
  151.9767  141.8477  159.2176 C   0  0  0  0  0  0  0  0  0  0  0  0
  151.0881  136.4889  153.2309 H   0  0  0  0  0  0  0  0  0  0  0  0
  151.7564  137.5199  155.7745 H   0  0  0  0  0  0  0  0  0  0  0  0
  152.5314  138.0117  154.2797 H   0  0  0  0  0  0  0  0  0  0  0  0
  146.9000  139.0845  152.4233 H   0  0  0  0  0  0  0  0  0  0  0  0
  145.8689  141.3258  152.8260 H   0  0  0  0  0  0  0  0  0  0  0  0
  146.9714  142.9872  154.2795 H   0  0  0  0  0  0  0  0  0  0  0  0
  149.1435  142.4846  155.3910 H   0  0  0  0  0  0  0  0  0  0  0  0
  152.2417  140.0478  155.9773 H   0  0  0  0  0  0  0  0  0  0  0  0
  151.5498  141.5432  155.4153 H   0  0  0  0  0  0  0  0  0  0  0  0
  149.6208  141.0962  157.1427 H   0  0  0  0  0  0  0  0  0  0  0  0
  150.5945  139.9196  158.9674 H   0  0  0  0  0  0  0  0  0  0  0  0
  150.8423  143.4746  156.4305 H   0  0  0  0  0  0  0  0  0  0  0  0
  151.9282  145.3836  157.5820 H   0  0  0  0  0  0  0  0  0  0  0  0
  153.0451  145.0459  159.7794 H   0  0  0  0  0  0  0  0  0  0  0  0
  153.0725  142.7886  160.8256 H   0  0  0  0  0  0  0  0  0  0  0  0
  151.9916  140.8726  159.6819 H   0  0  0  0  0  0  0  0  0  0  0  0
  149.2304  137.5553  153.1665 H   0  0  0  0  0  0  0  0  0  0  0  0
  1  2  1  0  0  0  0
  1 21  1  0  0  0  0
  2  3  1  0  0  0  0
  2 22  1  0  0  0  0
  2 23  1  0  0  0  0
  3 11  1  0  0  0  0
  3  4  2  0  0  0  0
  4  5  1  0  0  0  0
  4 37  1  0  0  0  0
  5 10  2  0  0  0  0
  5  6  1  0  0  0  0
  6  7  2  0  0  0  0
  6 24  1  0  0  0  0
  7  8  1  0  0  0  0
  7 25  1  0  0  0  0
  8  9  2  0  0  0  0
  8 26  1  0  0  0  0
  9 10  1  0  0  0  0
  9 27  1  0  0  0  0
 10 11  1  0  0  0  0
 11 12  1  0  0  0  0
 12 13  1  0  0  0  0
 12 28  1  0  0  0  0
 12 29  1  0  0  0  0
 13 14  1  0  0  0  0
 13 15  1  0  0  0  0
 13 30  1  0  0  0  0
 14 31  1  0  0  0  0
 15 20  1  0  0  0  0
 15 16  2  0  0  0  0
 16 17  1  0  0  0  0
 16 32  1  0  0  0  0
 17 18  2  0  0  0  0
 17 33  1  0  0  0  0
 18 19  1  0  0  0  0
 18 34  1  0  0  0  0
 19 20  2  0  0  0  0
 19 35  1  0  0  0  0
 20 36  1  0  0  0  0
M  CHG  1   4   1
M  END
> <s_m_source_file>
AV-unprocessed.smi

> <i_m_source_file_index>
485

> <i_lp_mmshare_version>
43012

> <i_f3d_flags>
0

> <s_epik_input>
W2NIXTFbY0hdW2NIXVtjSF1jKGMxMiluKGMobjIpW0NIMl1bT0hdKVtDSDJdW0NASF0oW09IXSljM1tjSF1bY0hdW2NIXVtjSF1bY0hdMw==

> <s_epik_cmdline>
J2VwaWtfcHl0aG9uJywgJy1waCcsICc3LjAnLCAnLXRuJywgJzgnLCAnLW1hJywgJzIwMCcsICctbWV0YWxfYmluZGluZycsICctaW1hZScsICc8aW5maWxlLm1hZT4nLCAnLW9tYWUnLCAnPG91dGZpbGUubWFlPic=

> <r_epik_Ionization_Penalty>
1.35643

> <r_epik_Ionization_Penalty_Charging>
1.35557

> <r_epik_Ionization_Penalty_Neutral>
0.000857128

> <r_epik_State_Penalty>
1.43401

> <r_epik_Charging_Adjusted_Penalty>
2.78958

> <i_epik_Tot_Q>
1

> <i_epik_Tot_abs_Q>
1

> <r_epik_Metal_State_Penalty>
5.47166

> <b_epik_Metal_Only>
0

> <s_lp_Force_Field>
OPLS_2005

> <r_lp_Energy>
14.7644

> <b_lp_Chiralities_Consistent>
1

> <s_lp_Variant>
AV-unprocessed.smi:485-4

> <Gold.Version>
5.8.1

> <Gold.Id.Protein>
6NUR|6NUR_protein|mol2

> <Gold.PLP.Fitness>
61.4725

> <Gold.PLP.PLP>
-50.0254

> <Gold.PLP.part.hbond>
-4.3207

> <Gold.PLP.part.metal>
0.0000

> <Gold.PLP.part.buried>
1.6731

> <Gold.PLP.part.nonpolar>
-47.5999

> <Gold.PLP.part.repulsive>
0.0599

> <Gold.PLP.ligand.clash>
0.0000

> <Gold.PLP.ligand.torsion>
0.2992

> <Gold.PLP.Chemscore.Hbond>
4.0000

> <Gold.PLP.Chemscore.CHOScore>
0.0000

> <Gold.PLP.Chemscore.Metal>
0.0000

> <Gold.Chemscore.Hbonds>
donor molecule, donor type, donor heavy atom, donor atom, acceptor molecule, acceptor atom, score
      L1  H     1    21       P1  7949  1.00
      L1  H     4    37       P1  7948  2.00
      P1  H 10752 10764       L1     1  0.95

> <Gold.PLP.Chemscore.Internal.Correction>
0.0454

> <Gold.Rescore>
     Score         DG    S(hbond)    S(metal)    S(lipo)     H(rot)  DE(clash)    DE(int)     intcor
     20.89     -21.48       2.45        0.00     125.78       2.70       0.36       0.22       ----

> <Gold.Chemscore.Fitness>
20.8931

> <Gold.Chemscore.DG>
-21.4759

> <Gold.Chemscore.ZeroCoef>
-5.4800

> <Gold.Chemscore.Hbond>
2.4498

> <Gold.Chemscore.Metal>
0.0000

> <Gold.Chemscore.Lipo>
125.7775

> <Gold.Chemscore.Internal_Hbond>
0.0000

> <Gold.Chemscore.DEClash>
0.3648

> <Gold.Chemscore.DEInternal>
0.2181

> <Gold.Chemscore.Rot>
2.6963

> <Gold.Chemscore.Internal.Correction>
   9.000000E+99

> <Gold.Chemscore.Hbonds>
donor molecule, donor type, donor heavy atom, donor atom, acceptor molecule, acceptor atom, score
      L1  H     1    21       P1  7949  0.33
      L1  H     4    37       P1  7948  0.99
      P1  H 10752 10764       L1     1  0.14

> <Gold.Chemscore.Hbond.Weighted>
-8.1824

> <Gold.Chemscore.Metal.Weighted>
-0.0000

> <Gold.Chemscore.Lipo.Weighted>
-14.7160

> <Gold.Chemscore.Internal_Hbond.Weighted>
0.0000

> <Gold.Chemscore.DEClash.Weighted>
0.3648

> <Gold.Chemscore.DEInternal.Weighted>
0.2181

> <Gold.Chemscore.Rot.Weighted>
6.9024

> <Gold.Chemscore.Internal.Correction.Weighted>
   9.000000E+99

> <Gold.Protein.RotatedTorsions>
[ 6907 6896 6895 6894 ] final  148.19 input  -60.11 | X-H torsion
[ 7974 7965 7964 7962 ] final -146.65 input  175.53 | X-H torsion
[ 8008 7997 7996 7995 ] final  -42.77 input   59.86 | X-H torsion
[ 10167 10162 10161 10158 ] final    5.87 input  -65.29 | X-H torsion
[ 10718 10713 10712 10709 ] final   32.96 input   66.30 | X-H torsion
[ 10763 10752 10751 10750 ] final  -82.75 input  -60.55 | X-H torsion
[ 11005 11000 10999 10996 ] final  134.67 input  -57.11 | X-H torsion

> <Gold.Protein.ActiveResidues>
 VAL166  LYS551  ARG553  GLY616  TRP617  ASP618  TYR619  PRO620  LYS621  CYS622 
 ASP623  PHE694  ASN695  SER759  ASP760  ASP761  ALA762  ILE779  LEU786  VAL792 
 PHE793  MET794  SER795  GLU796  ALA797  LYS798  CYS799  TRP800  GLU811  SER814 

> <Gold.Protein.RotatedAtoms>
  152.1448  133.4485  159.4784 H   0  0  0  0  0  0  0  0  0  0  0  0  # atno 6907 bound_to 6896
  150.6889  134.2261  159.4425 H   0  0  0  0  0  0  0  0  0  0  0  0  # atno 6908 bound_to 6896
  152.0154  134.9852  160.0620 H   0  0  0  0  0  0  0  0  0  0  0  0  # atno 6909 bound_to 6896
  144.8145  140.5429  143.5620 H   0  0  0  0  0  0  0  0  0  0  0  0  # atno 7974 bound_to 7965
  154.3998  140.1465  156.3410 H   0  0  0  0  0  0  0  0  0  0  0  0  # atno 8008 bound_to 7997
  155.8356  140.3464  155.5578 H   0  0  0  0  0  0  0  0  0  0  0  0  # atno 8009 bound_to 7997
  155.8141  140.0888  157.1877 H   0  0  0  0  0  0  0  0  0  0  0  0  # atno 8010 bound_to 7997
  140.6458  143.7664  150.7497 H   0  0  0  0  0  0  0  0  0  0  0  0  # atno 10167 bound_to 10162
  157.2918  130.7306  149.6615 H   0  0  0  0  0  0  0  0  0  0  0  0  # atno 10718 bound_to 10713
  154.5795  135.5580  153.7171 H   0  0  0  0  0  0  0  0  0  0  0  0  # atno 10763 bound_to 10752
  153.0076  135.6316  154.2002 H   0  0  0  0  0  0  0  0  0  0  0  0  # atno 10764 bound_to 10752
  154.1943  135.2881  155.2992 H   0  0  0  0  0  0  0  0  0  0  0  0  # atno 10765 bound_to 10752
  139.9930  134.9508  156.9899 H   0  0  0  0  0  0  0  0  0  0  0  0  # atno 11005 bound_to 11000
  145.5246  139.1476  143.3533 LP  0  0  0  0  0  0  0  0  0  0  0  0  # atno 17320 bound_to 7965
  146.2447  140.5386  142.8919 LP  0  0  0  0  0  0  0  0  0  0  0  0  # atno 17321 bound_to 7965
  140.1305  143.4530  152.2257 LP  0  0  0  0  0  0  0  0  0  0  0  0  # atno 17342 bound_to 10162
  139.5669  144.7440  151.3997 LP  0  0  0  0  0  0  0  0  0  0  0  0  # atno 17343 bound_to 10162
  155.9667  130.4306  150.4886 LP  0  0  0  0  0  0  0  0  0  0  0  0  # atno 17370 bound_to 10713
  157.2850  131.0614  151.2172 LP  0  0  0  0  0  0  0  0  0  0  0  0  # atno 17371 bound_to 10713
  140.4872  134.1229  155.7226 LP  0  0  0  0  0  0  0  0  0  0  0  0  # atno 17394 bound_to 11000
  141.1581  133.8844  157.1922 LP  0  0  0  0  0  0  0  0  0  0  0  0  # atno 17395 bound_to 11000

$$$$
