AV-unprocessed.smi:1718|AV-procd|sdf|6929|dock10
  -GOLD-   22720 8143D 1   1.00000     0.00000
 Structure written by MMmdl.
 39 40  0  0  0  0  0  0  0  0  2 V2000
  149.5580  134.1095  154.4695 C   0  0  0  0  0  0  0  0  0  0  0  0
  150.0229  135.1779  155.4703 C   0  0  1  0  0  0  0  0  0  0  0  0
  149.3340  136.3861  155.1613 O   0  0  0  0  0  0  0  0  0  0  0  0
  150.1056  137.5754  155.2839 C   0  0  0  0  0  0  0  0  0  0  0  0
  149.4543  138.6745  154.4369 C   0  0  1  0  0  0  0  0  0  0  0  0
  147.9465  138.8114  154.6472 C   0  0  0  0  0  0  0  0  0  0  0  0
  147.7165  140.2570  154.2714 C   0  0  0  0  0  0  0  0  0  0  0  0
  148.9629  140.9255  154.8428 C   0  0  0  0  0  0  0  0  0  0  0  0
  149.9990  139.9493  154.7697 O   0  0  0  0  0  0  0  0  0  0  0  0
  149.7267  134.7561  156.9186 C   0  0  0  0  0  0  0  0  0  0  0  0
  150.1084  133.6561  157.3183 O   0  0  0  0  0  0  0  0  0  0  0  0
  149.0498  135.6591  157.6547 N   0  0  0  0  0  0  0  0  0  0  0  0
  148.5802  135.5615  158.9751 C   0  0  0  0  0  0  0  0  0  0  0  0
  148.1543  134.4097  159.5638 C   0  0  0  0  0  0  0  0  0  0  0  0
  147.6601  134.3707  160.9343 C   0  0  0  0  0  0  0  0  0  0  0  0
  147.2767  133.0910  161.6562 C   0  0  0  0  0  0  0  0  0  0  0  0
  146.3385  132.4238  160.9836 F   0  0  0  0  0  0  0  0  0  0  0  0
  148.3426  132.3009  161.7765 F   0  0  0  0  0  0  0  0  0  0  0  0
  146.8127  133.3522  162.8784 F   0  0  0  0  0  0  0  0  0  0  0  0
  147.6851  135.6140  161.5359 C   0  0  0  0  0  0  0  0  0  0  0  0
  148.0606  136.8033  161.0164 N   0  5  0  0  0  0  0  0  0  0  0  0
  148.5223  136.8277  159.7341 C   0  0  0  0  0  0  0  0  0  0  0  0
  148.8880  137.8758  159.2008 O   0  0  0  0  0  0  0  0  0  0  0  0
  150.0344  133.1485  154.6661 H   0  0  0  0  0  0  0  0  0  0  0  0
  149.8117  134.3995  153.4498 H   0  0  0  0  0  0  0  0  0  0  0  0
  148.4779  133.9636  154.5101 H   0  0  0  0  0  0  0  0  0  0  0  0
  151.0961  135.3277  155.3365 H   0  0  0  0  0  0  0  0  0  0  0  0
  150.1842  137.9054  156.3203 H   0  0  0  0  0  0  0  0  0  0  0  0
  151.1185  137.3856  154.9260 H   0  0  0  0  0  0  0  0  0  0  0  0
  149.6594  138.5016  153.3792 H   0  0  0  0  0  0  0  0  0  0  0  0
  147.3679  138.1128  154.0423 H   0  0  0  0  0  0  0  0  0  0  0  0
  147.6854  138.6533  155.6946 H   0  0  0  0  0  0  0  0  0  0  0  0
  147.6948  140.3633  153.1858 H   0  0  0  0  0  0  0  0  0  0  0  0
  146.7897  140.6650  154.6753 H   0  0  0  0  0  0  0  0  0  0  0  0
  149.2319  141.8343  154.3041 H   0  0  0  0  0  0  0  0  0  0  0  0
  148.8072  141.1857  155.8906 H   0  0  0  0  0  0  0  0  0  0  0  0
  148.8734  136.5514  157.2160 H   0  0  0  0  0  0  0  0  0  0  0  0
  148.1473  133.4803  159.0182 H   0  0  0  0  0  0  0  0  0  0  0  0
  147.3594  135.6588  162.5971 H   0  0  0  0  0  0  0  0  0  0  0  0
  1  2  1  0  0  0  0
  1 24  1  0  0  0  0
  1 25  1  0  0  0  0
  1 26  1  0  0  0  0
  2  3  1  0  0  0  0
  2 10  1  0  0  0  0
  2 27  1  0  0  0  0
  3  4  1  0  0  0  0
  4  5  1  0  0  0  0
  4 28  1  0  0  0  0
  4 29  1  0  0  0  0
  5  9  1  0  0  0  0
  5  6  1  0  0  0  0
  5 30  1  0  0  0  0
  6  7  1  0  0  0  0
  6 31  1  0  0  0  0
  6 32  1  0  0  0  0
  7  8  1  0  0  0  0
  7 33  1  0  0  0  0
  7 34  1  0  0  0  0
  8  9  1  0  0  0  0
  8 35  1  0  0  0  0
  8 36  1  0  0  0  0
 10 11  2  0  0  0  0
 10 12  1  0  0  0  0
 12 13  1  0  0  0  0
 12 37  1  0  0  0  0
 13 22  1  0  0  0  0
 13 14  2  0  0  0  0
 14 15  1  0  0  0  0
 14 38  1  0  0  0  0
 15 16  1  0  0  0  0
 15 20  2  0  0  0  0
 16 17  1  0  0  0  0
 16 18  1  0  0  0  0
 16 19  1  0  0  0  0
 20 21  1  0  0  0  0
 20 39  1  0  0  0  0
 21 22  1  0  0  0  0
 22 23  2  0  0  0  0
M  CHG  1  21  -1
M  END
> <s_m_source_file>
AV-unprocessed.smi

> <i_m_source_file_index>
1718

> <i_lp_mmshare_version>
43012

> <i_f3d_flags>
0

> <s_epik_input>
TzFbQ0gyXVtDSDJdW0NIMl1bQ0BIXTFbQ0gyXU9bQ0BASF0oW0NIM10pQyg9TylbTkhdYzJbY0hdYyhDKEYpKEYpRilbY0hdW25IXWMyPU8=

> <s_epik_cmdline>
J2VwaWtfcHl0aG9uJywgJy1waCcsICc3LjAnLCAnLXRuJywgJzgnLCAnLW1hJywgJzIwMCcsICctbWV0YWxfYmluZGluZycsICctaW1hZScsICc8aW5maWxlLm1hZT4nLCAnLW9tYWUnLCAnPG91dGZpbGUubWFlPic=

> <r_epik_Ionization_Penalty>
2.5466

> <r_epik_Ionization_Penalty_Charging>
0.0575837

> <r_epik_Ionization_Penalty_Neutral>
2.48901

> <r_epik_State_Penalty>
2.6532

> <r_epik_Charging_Adjusted_Penalty>
2.71078

> <i_epik_Tot_Q>
-1

> <i_epik_Tot_abs_Q>
1

> <r_epik_Metal_State_Penalty>
0.516196

> <b_epik_Metal_Only>
0

> <s_lp_Force_Field>
OPLS_2005

> <r_lp_Energy>
35.9934

> <b_lp_Chiralities_Consistent>
1

> <s_lp_Variant>
AV-unprocessed.smi:1718-8

> <Gold.Version>
5.8.1

> <Gold.Id.Protein>
6NUR|6NUR_protein|mol2

> <Gold.PLP.Fitness>
50.4253

> <Gold.PLP.PLP>
-36.5445

> <Gold.PLP.part.hbond>
-5.1102

> <Gold.PLP.part.metal>
0.0000

> <Gold.PLP.part.buried>
-3.3961

> <Gold.PLP.part.nonpolar>
-29.5718

> <Gold.PLP.part.repulsive>
0.3127

> <Gold.PLP.ligand.clash>
0.0000

> <Gold.PLP.ligand.torsion>
1.1531

> <Gold.PLP.Chemscore.Hbond>
5.3520

> <Gold.PLP.Chemscore.CHOScore>
0.0000

> <Gold.PLP.Chemscore.Metal>
0.0000

> <Gold.Chemscore.Hbonds>
donor molecule, donor type, donor heavy atom, donor atom, acceptor molecule, acceptor atom, score
      P1  H  6896  6909       L1    11  0.92
      P1  H  6931  6943       L1    21  2.00
      P1  H  6934  6947       L1    21  0.12
      P1  H  7989  7998       L1     9  0.42

> <Gold.PLP.Chemscore.Internal.Correction>
0.1310

> <Gold.Rescore>
     Score         DG    S(hbond)    S(metal)    S(lipo)     H(rot)  DE(clash)    DE(int)     intcor
     15.75     -16.91       2.48        0.00      67.25       1.85       0.07       1.09       ----

> <Gold.Chemscore.Fitness>
15.7492

> <Gold.Chemscore.DG>
-16.9123

> <Gold.Chemscore.ZeroCoef>
-5.4800

> <Gold.Chemscore.Hbond>
2.4816

> <Gold.Chemscore.Metal>
0.0000

> <Gold.Chemscore.Lipo>
67.2509

> <Gold.Chemscore.Internal_Hbond>
0.0000

> <Gold.Chemscore.DEClash>
0.0705

> <Gold.Chemscore.DEInternal>
1.0925

> <Gold.Chemscore.Rot>
1.8455

> <Gold.Chemscore.Internal.Correction>
   9.000000E+99

> <Gold.Chemscore.Hbonds>
donor molecule, donor type, donor heavy atom, donor atom, acceptor molecule, acceptor atom, score
      P1  H  6896  6909       L1    11  0.58
      P1  H  6931  6943       L1    21  0.44
      P1  H  6934  6947       L1    21  0.01
      P1  H  7989  7998       L1     9  0.22

> <Gold.Chemscore.Hbond.Weighted>
-8.2884

> <Gold.Chemscore.Metal.Weighted>
-0.0000

> <Gold.Chemscore.Lipo.Weighted>
-7.8684

> <Gold.Chemscore.Internal_Hbond.Weighted>
0.0000

> <Gold.Chemscore.DEClash.Weighted>
0.0705

> <Gold.Chemscore.DEInternal.Weighted>
1.0925

> <Gold.Chemscore.Rot.Weighted>
4.7245

> <Gold.Chemscore.Internal.Correction.Weighted>
   9.000000E+99

> <Gold.Protein.RotatedTorsions>
[ 6907 6896 6895 6894 ] final    3.00 input  -60.11 | X-H torsion
[ 7974 7965 7964 7962 ] final  -26.91 input  175.53 | X-H torsion
[ 8008 7997 7996 7995 ] final  -20.30 input   59.86 | X-H torsion
[ 10167 10162 10161 10158 ] final -122.91 input  -65.29 | X-H torsion
[ 10718 10713 10712 10709 ] final  100.16 input   66.30 | X-H torsion
[ 10763 10752 10751 10750 ] final  -20.15 input  -60.55 | X-H torsion
[ 11005 11000 10999 10996 ] final  104.51 input  -57.11 | X-H torsion

> <Gold.Protein.ActiveResidues>
 VAL166  LYS551  ARG553  GLY616  TRP617  ASP618  TYR619  PRO620  LYS621  CYS622 
 ASP623  PHE694  ASN695  SER759  ASP760  ASP761  ALA762  ILE779  LEU786  VAL792 
 PHE793  MET794  SER795  GLU796  ALA797  LYS798  CYS799  TRP800  GLU811  SER814 

> <Gold.Protein.RotatedAtoms>
  151.6180  135.1034  160.0095 H   0  0  0  0  0  0  0  0  0  0  0  0  # atno 6907 bound_to 6896
  152.4173  133.7054  159.6459 H   0  0  0  0  0  0  0  0  0  0  0  0  # atno 6908 bound_to 6896
  150.8061  133.8434  159.3226 H   0  0  0  0  0  0  0  0  0  0  0  0  # atno 6909 bound_to 6896
  146.1393  140.5083  142.8659 H   0  0  0  0  0  0  0  0  0  0  0  0  # atno 7974 bound_to 7965
  154.4779  140.2065  155.9833 H   0  0  0  0  0  0  0  0  0  0  0  0  # atno 8008 bound_to 7997
  156.1119  140.3227  155.8054 H   0  0  0  0  0  0  0  0  0  0  0  0  # atno 8009 bound_to 7997
  155.4620  140.0525  157.2980 H   0  0  0  0  0  0  0  0  0  0  0  0  # atno 8010 bound_to 7997
  140.0092  143.5459  152.2270 H   0  0  0  0  0  0  0  0  0  0  0  0  # atno 10167 bound_to 10162
  157.6860  131.0690  150.5059 H   0  0  0  0  0  0  0  0  0  0  0  0  # atno 10718 bound_to 10713
  153.6160  135.6994  153.5329 H   0  0  0  0  0  0  0  0  0  0  0  0  # atno 10763 bound_to 10752
  153.2977  135.4138  155.1224 H   0  0  0  0  0  0  0  0  0  0  0  0  # atno 10764 bound_to 10752
  154.8553  135.3641  154.5699 H   0  0  0  0  0  0  0  0  0  0  0  0  # atno 10765 bound_to 10752
  139.8792  134.9303  156.5373 H   0  0  0  0  0  0  0  0  0  0  0  0  # atno 11005 bound_to 11000
  144.7775  140.5770  143.6628 LP  0  0  0  0  0  0  0  0  0  0  0  0  # atno 17320 bound_to 7965
  145.5083  139.1480  143.3619 LP  0  0  0  0  0  0  0  0  0  0  0  0  # atno 17321 bound_to 7965
  139.6217  144.7630  151.2726 LP  0  0  0  0  0  0  0  0  0  0  0  0  # atno 17342 bound_to 10162
  140.7388  143.6637  150.8142 LP  0  0  0  0  0  0  0  0  0  0  0  0  # atno 17343 bound_to 10162
  156.5378  130.4200  149.6169 LP  0  0  0  0  0  0  0  0  0  0  0  0  # atno 17370 bound_to 10713
  156.3012  130.7178  151.2050 LP  0  0  0  0  0  0  0  0  0  0  0  0  # atno 17371 bound_to 10713
  140.8336  133.8259  155.9007 LP  0  0  0  0  0  0  0  0  0  0  0  0  # atno 17394 bound_to 11000
  140.9305  134.2028  157.4867 LP  0  0  0  0  0  0  0  0  0  0  0  0  # atno 17395 bound_to 11000

$$$$
