AV-unprocessed.smi:2594|AV-procd|sdf|10166|dock6
  -GOLD-   2272014183D 1   1.00000     0.00000
 Structure written by MMmdl.
 29 30  0  0  0  0  0  0  0  0  1 V2000
  149.8169  139.9847  155.2665 O   0  0  0  0  0  0  0  0  0  0  0  0
  149.4968  141.1696  155.1587 C   0  0  0  0  0  0  0  0  0  0  0  0
  148.6253  141.6434  153.9880 C   0  0  0  0  0  0  0  0  0  0  0  0
  147.2936  142.0800  154.4096 N   0  0  0  0  0  0  0  0  0  0  0  0
  146.7726  143.1999  153.8395 N   0  0  0  0  0  0  0  0  0  0  0  0
  145.6142  143.4725  154.3147 C   0  0  0  0  0  0  0  0  0  0  0  0
  144.9952  142.3646  155.5465 S   0  0  0  0  0  0  0  0  0  0  0  0
  146.5113  141.4397  155.3670 C   0  0  0  0  0  0  0  0  0  0  0  0
  146.7652  140.4210  156.0077 O   0  0  0  0  0  0  0  0  0  0  0  0
  149.8612  142.1109  156.0422 N   0  0  0  0  0  0  0  0  0  0  0  0
  150.7068  141.8804  157.2078 C   0  0  0  0  0  0  0  0  0  0  0  0
  150.8898  143.1650  158.0333 C   0  0  2  0  0  0  0  0  0  0  0  0
  151.8089  144.1926  157.3786 C   0  0  0  0  0  0  0  0  0  0  0  0
  152.2421  145.0109  158.5738 C   0  0  0  0  0  0  0  0  0  0  0  0
  152.3806  143.9444  159.6582 C   0  0  0  0  0  0  0  0  0  0  0  0
  151.5136  142.8767  159.2815 O   0  0  0  0  0  0  0  0  0  0  0  0
  149.1442  142.4549  153.4756 H   0  0  0  0  0  0  0  0  0  0  0  0
  148.5192  140.8370  153.2604 H   0  0  0  0  0  0  0  0  0  0  0  0
  144.9844  144.3153  154.0308 H   0  0  0  0  0  0  0  0  0  0  0  0
  149.5532  143.0591  155.8826 H   0  0  0  0  0  0  0  0  0  0  0  0
  150.2486  141.1030  157.8196 H   0  0  0  0  0  0  0  0  0  0  0  0
  151.6763  141.4934  156.8901 H   0  0  0  0  0  0  0  0  0  0  0  0
  149.9254  143.6340  158.2361 H   0  0  0  0  0  0  0  0  0  0  0  0
  152.6733  143.7052  156.9252 H   0  0  0  0  0  0  0  0  0  0  0  0
  151.3071  144.7851  156.6131 H   0  0  0  0  0  0  0  0  0  0  0  0
  153.1631  145.5686  158.4026 H   0  0  0  0  0  0  0  0  0  0  0  0
  151.4577  145.7198  158.8431 H   0  0  0  0  0  0  0  0  0  0  0  0
  153.4016  143.5632  159.6945 H   0  0  0  0  0  0  0  0  0  0  0  0
  152.1279  144.3290  160.6464 H   0  0  0  0  0  0  0  0  0  0  0  0
  1  2  2  0  0  0  0
  2  3  1  0  0  0  0
  2 10  1  0  0  0  0
  3  4  1  0  0  0  0
  3 17  1  0  0  0  0
  3 18  1  0  0  0  0
  4  8  1  0  0  0  0
  4  5  1  0  0  0  0
  5  6  2  0  0  0  0
  6  7  1  0  0  0  0
  6 19  1  0  0  0  0
  7  8  1  0  0  0  0
  8  9  2  0  0  0  0
 10 11  1  0  0  0  0
 10 20  1  0  0  0  0
 11 12  1  0  0  0  0
 11 21  1  0  0  0  0
 11 22  1  0  0  0  0
 12 16  1  0  0  0  0
 12 13  1  0  0  0  0
 12 23  1  0  0  0  0
 13 14  1  0  0  0  0
 13 24  1  0  0  0  0
 13 25  1  0  0  0  0
 14 15  1  0  0  0  0
 14 26  1  0  0  0  0
 14 27  1  0  0  0  0
 15 16  1  0  0  0  0
 15 28  1  0  0  0  0
 15 29  1  0  0  0  0
M  END
> <s_m_source_file>
AV-unprocessed.smi

> <i_m_source_file_index>
2594

> <i_lp_mmshare_version>
43012

> <i_f3d_flags>
0

> <s_epik_input>
TzFbQ0gyXVtDSDJdW0NIMl1bQ0BIXTFbQ0gyXVtOSF1DKD1PKVtDSDJdbjJuW2NIXXNjMj1P

> <s_epik_cmdline>
J2VwaWtfcHl0aG9uJywgJy1waCcsICc3LjAnLCAnLXRuJywgJzgnLCAnLW1hJywgJzIwMCcsICctbWV0YWxfYmluZGluZycsICctaW1hZScsICc8aW5maWxlLm1hZT4nLCAnLW9tYWUnLCAnPG91dGZpbGUubWFlPic=

> <r_lp_tautomer_probability>
1

> <r_epik_Ionization_Penalty>
2.49222e-07

> <r_epik_Ionization_Penalty_Charging>
1.4085e-08

> <r_epik_Ionization_Penalty_Neutral>
2.35137e-07

> <r_epik_State_Penalty>
-0

> <r_epik_Charging_Adjusted_Penalty>
1.4085e-08

> <i_epik_Tot_Q>
0

> <i_epik_Tot_abs_Q>
0

> <r_epik_Metal_State_Penalty>
-0

> <b_epik_Metal_Only>
0

> <s_lp_Force_Field>
OPLS_2005

> <r_lp_Energy>
18.2258

> <b_lp_Chiralities_Consistent>
1

> <s_lp_Variant>
AV-unprocessed.smi:2594-1

> <Gold.Version>
5.8.1

> <Gold.Id.Protein>
6NUR|6NUR_protein|mol2

> <Gold.PLP.Fitness>
36.1911

> <Gold.PLP.PLP>
-33.7522

> <Gold.PLP.part.hbond>
-2.0000

> <Gold.PLP.part.metal>
0.0000

> <Gold.PLP.part.buried>
-1.8756

> <Gold.PLP.part.nonpolar>
-30.7348

> <Gold.PLP.part.repulsive>
0.4766

> <Gold.PLP.ligand.clash>
0.0000

> <Gold.PLP.ligand.torsion>
0.3830

> <Gold.PLP.Chemscore.Hbond>
1.0624

> <Gold.PLP.Chemscore.CHOScore>
0.0000

> <Gold.PLP.Chemscore.Metal>
0.0000

> <Gold.Chemscore.Hbonds>
donor molecule, donor type, donor heavy atom, donor atom, acceptor molecule, acceptor atom, score
      L1  H    10    20       P1  8028  1.00
      P1  H  8022  8030       L1     5  0.04

> <Gold.PLP.Chemscore.Internal.Correction>
0.0177

> <Gold.Rescore>
     Score         DG    S(hbond)    S(metal)    S(lipo)     H(rot)  DE(clash)    DE(int)     intcor
     10.98     -12.14       1.00        0.00      71.97       2.00       0.12       1.04       ----

> <Gold.Chemscore.Fitness>
10.9774

> <Gold.Chemscore.DG>
-12.1358

> <Gold.Chemscore.ZeroCoef>
-5.4800

> <Gold.Chemscore.Hbond>
1.0007

> <Gold.Chemscore.Metal>
0.0000

> <Gold.Chemscore.Lipo>
71.9750

> <Gold.Chemscore.Internal_Hbond>
0.0000

> <Gold.Chemscore.DEClash>
0.1200

> <Gold.Chemscore.DEInternal>
1.0385

> <Gold.Chemscore.Rot>
1.9952

> <Gold.Chemscore.Internal.Correction>
   9.000000E+99

> <Gold.Chemscore.Hbonds>
donor molecule, donor type, donor heavy atom, donor atom, acceptor molecule, acceptor atom, score
      L1  H    10    20       P1  8028  1.00
      P1  H  8022  8030       L1     5  0.03

> <Gold.Chemscore.Hbond.Weighted>
-3.3425

> <Gold.Chemscore.Metal.Weighted>
-0.0000

> <Gold.Chemscore.Lipo.Weighted>
-8.4211

> <Gold.Chemscore.Internal_Hbond.Weighted>
0.0000

> <Gold.Chemscore.DEClash.Weighted>
0.1200

> <Gold.Chemscore.DEInternal.Weighted>
1.0385

> <Gold.Chemscore.Rot.Weighted>
5.1077

> <Gold.Chemscore.Internal.Correction.Weighted>
   9.000000E+99

> <Gold.Protein.RotatedTorsions>
[ 6907 6896 6895 6894 ] final   -1.21 input  -60.11 | X-H torsion
[ 7974 7965 7964 7962 ] final  -13.17 input  175.53 | X-H torsion
[ 8008 7997 7996 7995 ] final -149.42 input   59.86 | X-H torsion
[ 10167 10162 10161 10158 ] final  154.57 input  -65.29 | X-H torsion
[ 10718 10713 10712 10709 ] final   91.64 input   66.30 | X-H torsion
[ 10763 10752 10751 10750 ] final   20.90 input  -60.55 | X-H torsion
[ 11005 11000 10999 10996 ] final -104.40 input  -57.11 | X-H torsion

> <Gold.Protein.ActiveResidues>
 VAL166  LYS551  ARG553  GLY616  TRP617  ASP618  TYR619  PRO620  LYS621  CYS622 
 ASP623  PHE694  ASN695  SER759  ASP760  ASP761  ALA762  ILE779  LEU786  VAL792 
 PHE793  MET794  SER795  GLU796  ALA797  LYS798  CYS799  TRP800  GLU811  SER814 

> <Gold.Protein.RotatedAtoms>
  151.5497  135.1067  159.9946 H   0  0  0  0  0  0  0  0  0  0  0  0  # atno 6907 bound_to 6896
  152.4497  133.7601  159.6752 H   0  0  0  0  0  0  0  0  0  0  0  0  # atno 6908 bound_to 6896
  150.8422  133.7851  159.3080 H   0  0  0  0  0  0  0  0  0  0  0  0  # atno 6909 bound_to 6896
  146.2124  140.3165  142.8387 H   0  0  0  0  0  0  0  0  0  0  0  0  # atno 7974 bound_to 7965
  155.6074  140.0668  157.2716 H   0  0  0  0  0  0  0  0  0  0  0  0  # atno 8008 bound_to 7997
  154.4262  140.1807  156.1284 H   0  0  0  0  0  0  0  0  0  0  0  0  # atno 8009 bound_to 7997
  156.0112  140.3326  155.6946 H   0  0  0  0  0  0  0  0  0  0  0  0  # atno 8010 bound_to 7997
  139.4823  144.5175  151.7929 H   0  0  0  0  0  0  0  0  0  0  0  0  # atno 10167 bound_to 10162
  157.6960  131.0414  150.3760 H   0  0  0  0  0  0  0  0  0  0  0  0  # atno 10718 bound_to 10713
  153.1039  135.6679  153.9622 H   0  0  0  0  0  0  0  0  0  0  0  0  # atno 10763 bound_to 10752
  153.9185  135.3017  155.3449 H   0  0  0  0  0  0  0  0  0  0  0  0  # atno 10764 bound_to 10752
  154.7460  135.5057  153.9280 H   0  0  0  0  0  0  0  0  0  0  0  0  # atno 10765 bound_to 10752
  141.1102  133.8720  157.1606 H   0  0  0  0  0  0  0  0  0  0  0  0  # atno 11005 bound_to 11000
  144.8951  140.7572  143.5902 LP  0  0  0  0  0  0  0  0  0  0  0  0  # atno 17320 bound_to 7965
  145.3089  139.1825  143.4649 LP  0  0  0  0  0  0  0  0  0  0  0  0  # atno 17321 bound_to 7965
  140.4685  144.1621  150.5915 LP  0  0  0  0  0  0  0  0  0  0  0  0  # atno 17342 bound_to 10162
  140.4408  143.2527  151.9475 LP  0  0  0  0  0  0  0  0  0  0  0  0  # atno 17343 bound_to 10162
  156.4179  130.3947  149.6845 LP  0  0  0  0  0  0  0  0  0  0  0  0  # atno 17370 bound_to 10713
  156.4106  130.7720  151.2733 LP  0  0  0  0  0  0  0  0  0  0  0  0  # atno 17371 bound_to 10713
  139.9992  135.0034  157.0151 LP  0  0  0  0  0  0  0  0  0  0  0  0  # atno 17394 bound_to 11000
  140.4795  134.1304  155.7215 LP  0  0  0  0  0  0  0  0  0  0  0  0  # atno 17395 bound_to 11000

$$$$
