AV-unprocessed.smi:1921|AV-procd|sdf|7785|dock9
  -GOLD-   22720 9533D 1   1.00000     0.00000
 Structure written by MMmdl.
 27 28  0  0  0  0  0  0  0  0  1 V2000
  152.1243  144.8899  158.3011 C   0  0  0  0  0  0  0  0  0  0  0  0
  152.0859  143.3985  157.9412 C   0  0  2  0  0  0  0  0  0  0  0  0
  150.9965  143.1741  156.9963 N   0  0  0  0  0  0  0  0  0  0  0  0
  150.6944  141.9999  156.4229 C   0  0  0  0  0  0  0  0  0  0  0  0
  151.3199  140.9598  156.6306 O   0  0  0  0  0  0  0  0  0  0  0  0
  149.6333  142.1178  155.6053 N   0  0  0  0  0  0  0  0  0  0  0  0
  149.0094  141.1088  154.8255 C   0  0  0  0  0  0  0  0  0  0  0  0
  149.5040  139.8782  154.6470 N   0  0  0  0  0  0  0  0  0  0  0  0
  148.6813  139.0953  153.8331 C   0  0  0  0  0  0  0  0  0  0  0  0
  147.5561  139.7501  153.3983 C   0  0  0  0  0  0  0  0  0  0  0  0
  147.4837  141.3857  153.9978 S   0  0  0  0  0  0  0  0  0  0  0  0
  151.9867  142.5420  159.1927 C   0  0  0  0  0  0  0  0  0  0  0  0
  152.2232  143.1366  160.5612 C   0  0  0  0  0  0  0  0  0  0  0  0
  153.2150  142.1542  159.9821 C   0  0  0  0  0  0  0  0  0  0  0  0
  152.9607  145.1121  158.9644 H   0  0  0  0  0  0  0  0  0  0  0  0
  151.2090  145.2008  158.8061 H   0  0  0  0  0  0  0  0  0  0  0  0
  152.2409  145.5077  157.4100 H   0  0  0  0  0  0  0  0  0  0  0  0
  153.0292  143.1622  157.4444 H   0  0  0  0  0  0  0  0  0  0  0  0
  150.4270  143.9749  156.7649 H   0  0  0  0  0  0  0  0  0  0  0  0
  149.2239  143.0373  155.5315 H   0  0  0  0  0  0  0  0  0  0  0  0
  148.9740  138.0792  153.6137 H   0  0  0  0  0  0  0  0  0  0  0  0
  146.7685  139.3707  152.7645 H   0  0  0  0  0  0  0  0  0  0  0  0
  151.2000  141.7912  159.1419 H   0  0  0  0  0  0  0  0  0  0  0  0
  152.5271  144.1802  160.6166 H   0  0  0  0  0  0  0  0  0  0  0  0
  151.5887  142.7915  161.3749 H   0  0  0  0  0  0  0  0  0  0  0  0
  153.2416  141.1532  160.4074 H   0  0  0  0  0  0  0  0  0  0  0  0
  154.1758  142.5472  159.6557 H   0  0  0  0  0  0  0  0  0  0  0  0
  1  2  1  0  0  0  0
  1 15  1  0  0  0  0
  1 16  1  0  0  0  0
  1 17  1  0  0  0  0
  2  3  1  0  0  0  0
  2 12  1  0  0  0  0
  2 18  1  0  0  0  0
  3  4  1  0  0  0  0
  3 19  1  0  0  0  0
  4  5  2  0  0  0  0
  4  6  1  0  0  0  0
  6  7  1  0  0  0  0
  6 20  1  0  0  0  0
  7 11  1  0  0  0  0
  7  8  2  0  0  0  0
  8  9  1  0  0  0  0
  9 10  2  0  0  0  0
  9 21  1  0  0  0  0
 10 11  1  0  0  0  0
 10 22  1  0  0  0  0
 12 14  1  0  0  0  0
 12 13  1  0  0  0  0
 12 23  1  0  0  0  0
 13 14  1  0  0  0  0
 13 24  1  0  0  0  0
 13 25  1  0  0  0  0
 14 26  1  0  0  0  0
 14 27  1  0  0  0  0
M  END
> <s_m_source_file>
AV-unprocessed.smi

> <i_m_source_file_index>
1921

> <i_lp_mmshare_version>
43012

> <i_f3d_flags>
0

> <s_epik_input>
W0NIMl0xW0NIMl1bQ0hdMVtDQEhdKFtDSDNdKVtOSF1DKD1PKVtOSF1jMm5bY0hdW2NIXXMy

> <s_epik_cmdline>
J2VwaWtfcHl0aG9uJywgJy1waCcsICc3LjAnLCAnLXRuJywgJzgnLCAnLW1hJywgJzIwMCcsICctbWV0YWxfYmluZGluZycsICctaW1hZScsICc8aW5maWxlLm1hZT4nLCAnLW9tYWUnLCAnPG91dGZpbGUubWFlPic=

> <r_lp_tautomer_probability>
0.999

> <r_epik_Ionization_Penalty>
0.000426276

> <r_epik_Ionization_Penalty_Charging>
0

> <r_epik_Ionization_Penalty_Neutral>
0.000426276

> <r_epik_State_Penalty>
0.000177984

> <r_epik_Charging_Adjusted_Penalty>
0.000177984

> <i_epik_Tot_Q>
0

> <i_epik_Tot_abs_Q>
0

> <r_epik_Metal_State_Penalty>
-0

> <b_epik_Metal_Only>
0

> <s_lp_Force_Field>
OPLS_2005

> <r_lp_Energy>
11.4039

> <b_lp_Chiralities_Consistent>
1

> <s_lp_Variant>
AV-unprocessed.smi:1921-1

> <Gold.Version>
5.8.1

> <Gold.Id.Protein>
6NUR|6NUR_protein|mol2

> <Gold.PLP.Fitness>
40.4768

> <Gold.PLP.PLP>
-32.4202

> <Gold.PLP.part.hbond>
-2.0000

> <Gold.PLP.part.metal>
0.0000

> <Gold.PLP.part.buried>
-2.7284

> <Gold.PLP.part.nonpolar>
-27.8221

> <Gold.PLP.part.repulsive>
0.2996

> <Gold.PLP.ligand.clash>
0.0000

> <Gold.PLP.ligand.torsion>
0.9665

> <Gold.PLP.Chemscore.Hbond>
1.9760

> <Gold.PLP.Chemscore.CHOScore>
1.0000

> <Gold.PLP.Chemscore.Metal>
0.0000

> <Gold.Chemscore.Hbonds>
donor molecule, donor type, donor heavy atom, donor atom, acceptor molecule, acceptor atom, score
      L1  H     3    19       P1  8028  0.98
      L1  H     6    20       P1  8028  1.00
      L1  C     9    21       P1  7948  1.00

> <Gold.PLP.Chemscore.Internal.Correction>
1.0616

> <Gold.Rescore>
     Score         DG    S(hbond)    S(metal)    S(lipo)     H(rot)  DE(clash)    DE(int)     intcor
     15.49     -18.00       1.91        0.00      80.06       1.26       0.33       2.19       ----

> <Gold.Chemscore.Fitness>
15.4895

> <Gold.Chemscore.DG>
-18.0044

> <Gold.Chemscore.ZeroCoef>
-5.4800

> <Gold.Chemscore.Hbond>
1.9102

> <Gold.Chemscore.Metal>
0.0000

> <Gold.Chemscore.Lipo>
80.0647

> <Gold.Chemscore.Internal_Hbond>
0.0000

> <Gold.Chemscore.DEClash>
0.3292

> <Gold.Chemscore.DEInternal>
2.1856

> <Gold.Chemscore.Rot>
1.2591

> <Gold.Chemscore.Internal.Correction>
   9.000000E+99

> <Gold.Chemscore.Hbonds>
donor molecule, donor type, donor heavy atom, donor atom, acceptor molecule, acceptor atom, score
      L1  H     3    19       P1  8028  0.88
      L1  H     6    20       P1  8028  1.00

> <Gold.Chemscore.Hbond.Weighted>
-6.3801

> <Gold.Chemscore.Metal.Weighted>
-0.0000

> <Gold.Chemscore.Lipo.Weighted>
-9.3676

> <Gold.Chemscore.Internal_Hbond.Weighted>
0.0000

> <Gold.Chemscore.DEClash.Weighted>
0.3292

> <Gold.Chemscore.DEInternal.Weighted>
2.1856

> <Gold.Chemscore.Rot.Weighted>
3.2233

> <Gold.Chemscore.Internal.Correction.Weighted>
   9.000000E+99

> <Gold.Protein.RotatedTorsions>
[ 6907 6896 6895 6894 ] final   25.92 input  -60.11 | X-H torsion
[ 7974 7965 7964 7962 ] final   45.72 input  175.53 | X-H torsion
[ 8008 7997 7996 7995 ] final  112.89 input   59.86 | X-H torsion
[ 10167 10162 10161 10158 ] final -170.04 input  -65.29 | X-H torsion
[ 10718 10713 10712 10709 ] final  152.88 input   66.30 | X-H torsion
[ 10763 10752 10751 10750 ] final  -41.94 input  -60.55 | X-H torsion
[ 11005 11000 10999 10996 ] final   -2.07 input  -57.11 | X-H torsion

> <Gold.Protein.ActiveResidues>
 VAL166  LYS551  ARG553  GLY616  TRP617  ASP618  TYR619  PRO620  LYS621  CYS622 
 ASP623  PHE694  ASN695  SER759  ASP760  ASP761  ALA762  ILE779  LEU786  VAL792 
 PHE793  MET794  SER795  GLU796  ALA797  LYS798  CYS799  TRP800  GLU811  SER814 

> <Gold.Protein.RotatedAtoms>
  151.9797  135.0035  160.0556 H   0  0  0  0  0  0  0  0  0  0  0  0  # atno 6907 bound_to 6896
  152.1708  133.4637  159.4916 H   0  0  0  0  0  0  0  0  0  0  0  0  # atno 6908 bound_to 6896
  150.6901  134.1873  159.4314 H   0  0  0  0  0  0  0  0  0  0  0  0  # atno 6909 bound_to 6896
  146.0454  139.4933  142.9752 H   0  0  0  0  0  0  0  0  0  0  0  0  # atno 7974 bound_to 7965
  156.2222  140.2990  155.9979 H   0  0  0  0  0  0  0  0  0  0  0  0  # atno 8008 bound_to 7997
  155.2452  140.0424  157.2997 H   0  0  0  0  0  0  0  0  0  0  0  0  # atno 8009 bound_to 7997
  154.5858  140.2388  155.7997 H   0  0  0  0  0  0  0  0  0  0  0  0  # atno 8010 bound_to 7997
  139.5885  144.1264  152.1606 H   0  0  0  0  0  0  0  0  0  0  0  0  # atno 10167 bound_to 10162
  157.2520  131.0781  151.1723 H   0  0  0  0  0  0  0  0  0  0  0  0  # atno 10718 bound_to 10713
  153.9708  135.6728  153.4747 H   0  0  0  0  0  0  0  0  0  0  0  0  # atno 10763 bound_to 10752
  153.0794  135.4931  154.8468 H   0  0  0  0  0  0  0  0  0  0  0  0  # atno 10764 bound_to 10752
  154.7220  135.3119  154.8993 H   0  0  0  0  0  0  0  0  0  0  0  0  # atno 10765 bound_to 10752
  140.6543  133.9377  155.8398 H   0  0  0  0  0  0  0  0  0  0  0  0  # atno 11005 bound_to 11000
  145.6814  141.0190  143.1604 LP  0  0  0  0  0  0  0  0  0  0  0  0  # atno 17320 bound_to 7965
  144.7095  139.8426  143.7419 LP  0  0  0  0  0  0  0  0  0  0  0  0  # atno 17321 bound_to 7965
  140.0833  144.5682  150.7106 LP  0  0  0  0  0  0  0  0  0  0  0  0  # atno 17342 bound_to 10162
  140.7153  143.2539  151.4454 LP  0  0  0  0  0  0  0  0  0  0  0  0  # atno 17343 bound_to 10162
  157.3267  130.6964  149.6300 LP  0  0  0  0  0  0  0  0  0  0  0  0  # atno 17370 bound_to 10713
  155.9666  130.4319  150.4941 LP  0  0  0  0  0  0  0  0  0  0  0  0  # atno 17371 bound_to 10713
  141.0513  134.0480  157.3779 LP  0  0  0  0  0  0  0  0  0  0  0  0  # atno 17394 bound_to 11000
  139.9035  135.0172  156.7379 LP  0  0  0  0  0  0  0  0  0  0  0  0  # atno 17395 bound_to 11000

$$$$
