AV-unprocessed.smi:2742|AV-procd|sdf|10562|dock10
  -GOLD-   2272015 13D 1   1.00000     0.00000
 Structure written by MMmdl.
 37 38  0  0  0  0  0  0  0  0  1 V2000
  144.7600  141.3079  158.7004 C   0  0  0  0  0  0  0  0  0  0  0  0
  144.0108  141.9658  157.1861 S   0  0  0  0  0  0  0  0  0  0  0  0
  145.4948  142.3492  156.2104 C   0  0  2  0  0  0  0  0  0  0  0  0
  145.1004  142.9867  154.8668 C   0  0  0  0  0  0  0  0  0  0  0  0
  146.3361  143.3059  154.0118 C   0  0  0  0  0  0  0  0  0  0  0  0
  147.1919  142.0495  153.7793 C   0  0  0  0  0  0  0  0  0  0  0  0
  147.5929  141.3657  155.1038 C   0  0  1  0  0  0  0  0  0  0  0  0
  148.5742  142.1640  155.8385 N   0  0  0  0  0  0  0  0  0  0  0  0
  149.3874  141.7036  156.8004 C   0  0  0  0  0  0  0  0  0  0  0  0
  149.3813  140.5361  157.1892 O   0  0  0  0  0  0  0  0  0  0  0  0
  150.1820  142.6809  157.2705 N   0  0  0  0  0  0  0  0  0  0  0  0
  151.1865  142.6218  158.2767 C   0  0  0  0  0  0  0  0  0  0  0  0
  151.6260  141.4303  158.9042 C   0  0  0  0  0  0  0  0  0  0  0  0
  152.6415  141.5144  159.8780 C   0  0  0  0  0  0  0  0  0  0  0  0
  153.2280  142.6734  160.2443 N   0  0  0  0  0  0  0  0  0  0  0  0
  152.8151  143.8057  159.6371 C   0  0  0  0  0  0  0  0  0  0  0  0
  151.8072  143.8325  158.6523 C   0  0  0  0  0  0  0  0  0  0  0  0
  151.4433  145.0056  158.0798 F   0  0  0  0  0  0  0  0  0  0  0  0
  146.3567  141.0894  155.9833 C   0  0  0  0  0  0  0  0  0  0  0  0
  143.9820  141.0502  159.4188 H   0  0  0  0  0  0  0  0  0  0  0  0
  145.4159  142.0504  159.1551 H   0  0  0  0  0  0  0  0  0  0  0  0
  145.3404  140.4103  158.4895 H   0  0  0  0  0  0  0  0  0  0  0  0
  146.0714  143.0826  156.7754 H   0  0  0  0  0  0  0  0  0  0  0  0
  144.4431  142.3116  154.3168 H   0  0  0  0  0  0  0  0  0  0  0  0
  144.5298  143.8998  155.0403 H   0  0  0  0  0  0  0  0  0  0  0  0
  146.0259  143.7247  153.0540 H   0  0  0  0  0  0  0  0  0  0  0  0
  146.9334  144.0746  154.5036 H   0  0  0  0  0  0  0  0  0  0  0  0
  146.6245  141.3428  153.1725 H   0  0  0  0  0  0  0  0  0  0  0  0
  148.0777  142.3027  153.1955 H   0  0  0  0  0  0  0  0  0  0  0  0
  148.0488  140.4021  154.8691 H   0  0  0  0  0  0  0  0  0  0  0  0
  148.6443  143.1387  155.5854 H   0  0  0  0  0  0  0  0  0  0  0  0
  150.0239  143.6000  156.8837 H   0  0  0  0  0  0  0  0  0  0  0  0
  151.2219  140.4611  158.6593 H   0  0  0  0  0  0  0  0  0  0  0  0
  152.9959  140.6225  160.3730 H   0  0  0  0  0  0  0  0  0  0  0  0
  153.3039  144.7185  159.9439 H   0  0  0  0  0  0  0  0  0  0  0  0
  146.6731  140.6646  156.9359 H   0  0  0  0  0  0  0  0  0  0  0  0
  145.7464  140.3241  155.5014 H   0  0  0  0  0  0  0  0  0  0  0  0
  1  2  1  0  0  0  0
  1 20  1  0  0  0  0
  1 21  1  0  0  0  0
  1 22  1  0  0  0  0
  2  3  1  0  0  0  0
  3 19  1  0  0  0  0
  3  4  1  0  0  0  0
  3 23  1  0  0  0  0
  4  5  1  0  0  0  0
  4 24  1  0  0  0  0
  4 25  1  0  0  0  0
  5  6  1  0  0  0  0
  5 26  1  0  0  0  0
  5 27  1  0  0  0  0
  6  7  1  0  0  0  0
  6 28  1  0  0  0  0
  6 29  1  0  0  0  0
  7  8  1  0  0  0  0
  7 19  1  0  0  0  0
  7 30  1  0  0  0  0
  8  9  1  0  0  0  0
  8 31  1  0  0  0  0
  9 10  2  0  0  0  0
  9 11  1  0  0  0  0
 11 12  1  0  0  0  0
 11 32  1  0  0  0  0
 12 17  1  0  0  0  0
 12 13  2  0  0  0  0
 13 14  1  0  0  0  0
 13 33  1  0  0  0  0
 14 15  2  0  0  0  0
 14 34  1  0  0  0  0
 15 16  1  0  0  0  0
 16 17  2  0  0  0  0
 16 35  1  0  0  0  0
 17 18  1  0  0  0  0
 19 36  1  0  0  0  0
 19 37  1  0  0  0  0
M  END
> <s_m_source_file>
AV-unprocessed.smi

> <i_m_source_file_index>
2742

> <i_lp_mmshare_version>
43012

> <i_f3d_flags>
0

> <s_epik_input>
W0NIM11TW0NAQEhdMVtDSDJdW0NIMl1bQ0gyXVtDQEhdKFtDSDJdMSlbTkhdQyg9TylbTkhdYzJbY0hdW2NIXW5bY0hdYzJG

> <s_epik_cmdline>
J2VwaWtfcHl0aG9uJywgJy1waCcsICc3LjAnLCAnLXRuJywgJzgnLCAnLW1hJywgJzIwMCcsICctbWV0YWxfYmluZGluZycsICctaW1hZScsICc8aW5maWxlLm1hZT4nLCAnLW9tYWUnLCAnPG91dGZpbGUubWFlPic=

> <r_epik_Ionization_Penalty>
0.00344009

> <r_epik_Ionization_Penalty_Charging>
0

> <r_epik_Ionization_Penalty_Neutral>
0.00344009

> <r_epik_State_Penalty>
0.0024078

> <r_epik_Charging_Adjusted_Penalty>
0.0024078

> <i_epik_Tot_Q>
0

> <i_epik_Tot_abs_Q>
0

> <r_epik_Metal_State_Penalty>
-0

> <b_epik_Metal_Only>
0

> <s_lp_Force_Field>
OPLS_2005

> <r_lp_Energy>
13.9457

> <b_lp_Chiralities_Consistent>
1

> <s_lp_Variant>
AV-unprocessed.smi:2742-1

> <Gold.Version>
5.8.1

> <Gold.Id.Protein>
6NUR|6NUR_protein|mol2

> <Gold.PLP.Fitness>
40.2969

> <Gold.PLP.PLP>
-34.9019

> <Gold.PLP.part.hbond>
-2.0000

> <Gold.PLP.part.metal>
0.0000

> <Gold.PLP.part.buried>
-7.0933

> <Gold.PLP.part.nonpolar>
-26.2931

> <Gold.PLP.part.repulsive>
0.1288

> <Gold.PLP.ligand.clash>
0.0000

> <Gold.PLP.ligand.torsion>
0.2487

> <Gold.PLP.Chemscore.Hbond>
1.9600

> <Gold.PLP.Chemscore.CHOScore>
0.0000

> <Gold.PLP.Chemscore.Metal>
0.0000

> <Gold.Chemscore.Hbonds>
donor molecule, donor type, donor heavy atom, donor atom, acceptor molecule, acceptor atom, score
      L1  H     8    31       P1  8028  1.00
      L1  H    11    32       P1  8028  0.94

> <Gold.PLP.Chemscore.Internal.Correction>
0.0124

> <Gold.Rescore>
     Score         DG    S(hbond)    S(metal)    S(lipo)     H(rot)  DE(clash)    DE(int)     intcor
     16.52     -18.24       1.97        0.00      78.85       1.19       0.39       1.33       ----

> <Gold.Chemscore.Fitness>
16.5193

> <Gold.Chemscore.DG>
-18.2405

> <Gold.Chemscore.ZeroCoef>
-5.4800

> <Gold.Chemscore.Hbond>
1.9686

> <Gold.Chemscore.Metal>
0.0000

> <Gold.Chemscore.Lipo>
78.8497

> <Gold.Chemscore.Internal_Hbond>
0.0000

> <Gold.Chemscore.DEClash>
0.3869

> <Gold.Chemscore.DEInternal>
1.3343

> <Gold.Chemscore.Rot>
1.1875

> <Gold.Chemscore.Internal.Correction>
   9.000000E+99

> <Gold.Chemscore.Hbonds>
donor molecule, donor type, donor heavy atom, donor atom, acceptor molecule, acceptor atom, score
      L1  H     8    31       P1  8028  0.98
      L1  H    11    32       P1  8028  0.87

> <Gold.Chemscore.Hbond.Weighted>
-6.5750

> <Gold.Chemscore.Metal.Weighted>
-0.0000

> <Gold.Chemscore.Lipo.Weighted>
-9.2254

> <Gold.Chemscore.Internal_Hbond.Weighted>
0.0000

> <Gold.Chemscore.DEClash.Weighted>
0.3869

> <Gold.Chemscore.DEInternal.Weighted>
1.3343

> <Gold.Chemscore.Rot.Weighted>
3.0400

> <Gold.Chemscore.Internal.Correction.Weighted>
   9.000000E+99

> <Gold.Protein.RotatedTorsions>
[ 6907 6896 6895 6894 ] final   69.55 input  -60.11 | X-H torsion
[ 7974 7965 7964 7962 ] final   98.89 input  175.53 | X-H torsion
[ 8008 7997 7996 7995 ] final   64.15 input   59.86 | X-H torsion
[ 10167 10162 10161 10158 ] final   24.31 input  -65.29 | X-H torsion
[ 10718 10713 10712 10709 ] final  -83.46 input   66.30 | X-H torsion
[ 10763 10752 10751 10750 ] final   24.31 input  -60.55 | X-H torsion
[ 11005 11000 10999 10996 ] final  118.34 input  -57.11 | X-H torsion

> <Gold.Protein.ActiveResidues>
 VAL166  LYS551  ARG553  GLY616  TRP617  ASP618  TYR619  PRO620  LYS621  CYS622 
 ASP623  PHE694  ASN695  SER759  ASP760  ASP761  ALA762  ILE779  LEU786  VAL792 
 PHE793  MET794  SER795  GLU796  ALA797  LYS798  CYS799  TRP800  GLU811  SER814 

> <Gold.Protein.RotatedAtoms>
  152.4693  134.4999  159.9721 H   0  0  0  0  0  0  0  0  0  0  0  0  # atno 6907 bound_to 6896
  151.5029  133.3495  159.2880 H   0  0  0  0  0  0  0  0  0  0  0  0  # atno 6908 bound_to 6896
  150.8694  134.8093  159.7205 H   0  0  0  0  0  0  0  0  0  0  0  0  # atno 6909 bound_to 6896
  145.4061  139.2340  143.3273 H   0  0  0  0  0  0  0  0  0  0  0  0  # atno 7974 bound_to 7965
  155.6415  140.3497  155.4716 H   0  0  0  0  0  0  0  0  0  0  0  0  # atno 8008 bound_to 7997
  155.9922  140.1196  157.0651 H   0  0  0  0  0  0  0  0  0  0  0  0  # atno 8009 bound_to 7997
  154.4222  140.1117  156.5567 H   0  0  0  0  0  0  0  0  0  0  0  0  # atno 8010 bound_to 7997
  140.5198  144.0021  150.6411 H   0  0  0  0  0  0  0  0  0  0  0  0  # atno 10167 bound_to 10162
  156.0018  130.4666  150.4261 H   0  0  0  0  0  0  0  0  0  0  0  0  # atno 10718 bound_to 10713
  153.0773  135.6608  154.0119 H   0  0  0  0  0  0  0  0  0  0  0  0  # atno 10763 bound_to 10752
  153.9750  135.2961  155.3426 H   0  0  0  0  0  0  0  0  0  0  0  0  # atno 10764 bound_to 10752
  154.7164  135.5183  153.8815 H   0  0  0  0  0  0  0  0  0  0  0  0  # atno 10765 bound_to 10752
  139.9106  134.9619  156.7488 H   0  0  0  0  0  0  0  0  0  0  0  0  # atno 11005 bound_to 11000
  146.2728  140.4766  142.8807 LP  0  0  0  0  0  0  0  0  0  0  0  0  # atno 17320 bound_to 7965
  144.8340  140.6753  143.6272 LP  0  0  0  0  0  0  0  0  0  0  0  0  # atno 17321 bound_to 7965
  140.3367  143.3044  152.0631 LP  0  0  0  0  0  0  0  0  0  0  0  0  # atno 17342 bound_to 10162
  139.4920  144.6471  151.6755 LP  0  0  0  0  0  0  0  0  0  0  0  0  # atno 17343 bound_to 10162
  157.2313  131.0505  151.2490 LP  0  0  0  0  0  0  0  0  0  0  0  0  # atno 17370 bound_to 10713
  157.3708  130.7180  149.6564 LP  0  0  0  0  0  0  0  0  0  0  0  0  # atno 17371 bound_to 10713
  140.6790  133.9491  155.7899 LP  0  0  0  0  0  0  0  0  0  0  0  0  # atno 17394 bound_to 11000
  141.0523  134.0466  157.3767 LP  0  0  0  0  0  0  0  0  0  0  0  0  # atno 17395 bound_to 11000

$$$$
