AV-unprocessed.smi:2450|AV-procd|sdf|9666|dock4
  -GOLD-   2272013303D 1   1.00000     0.00000
 Structure written by MMmdl.
 41 42  0  0  0  0  0  0  0  0  1 V2000
  151.5710  137.4749  153.9898 C   0  0  0  0  0  0  0  0  0  0  0  0
  151.2390  138.1666  155.3198 C   0  0  0  0  0  0  0  0  0  0  0  0
  150.9945  139.6839  155.1958 C   0  0  1  0  0  0  0  0  0  0  0  0
  149.6123  139.9841  154.5995 C   0  0  0  0  0  0  0  0  0  0  0  0
  151.1022  140.3389  156.4988 N   0  0  0  0  0  0  0  0  0  0  0  0
  152.0817  140.1528  157.3958 C   0  0  0  0  0  0  0  0  0  0  0  0
  153.0186  139.3707  157.2346 O   0  0  0  0  0  0  0  0  0  0  0  0
  151.8857  140.9117  158.4868 N   0  0  0  0  0  0  0  0  0  0  0  0
  152.6733  140.9736  159.6712 C   0  0  0  0  0  0  0  0  0  0  0  0
  153.4479  139.8699  160.1051 C   0  0  0  0  0  0  0  0  0  0  0  0
  154.2646  140.0034  161.2410 C   0  0  0  0  0  0  0  0  0  0  0  0
  154.2914  141.2447  161.8975 C   0  0  0  0  0  0  0  0  0  0  0  0
  153.5715  142.3089  161.4900 N   0  0  0  0  0  0  0  0  0  0  0  0
  152.7679  142.1918  160.4038 C   0  0  0  0  0  0  0  0  0  0  0  0
  152.0275  143.3376  160.0319 N   0  0  0  0  0  0  0  0  0  0  0  0
  152.1533  143.8959  158.6899 C   0  0  0  0  0  0  0  0  0  0  0  0
  151.5300  145.2854  158.7813 C   0  0  0  0  0  0  0  0  0  0  0  0
  151.9283  145.7286  160.1859 C   0  0  0  0  0  0  0  0  0  0  0  0
  151.9156  144.4280  160.9968 C   0  0  0  0  0  0  0  0  0  0  0  0
  151.6693  136.3982  154.1285 H   0  0  0  0  0  0  0  0  0  0  0  0
  152.5095  137.8379  153.5709 H   0  0  0  0  0  0  0  0  0  0  0  0
  150.7860  137.6446  153.2522 H   0  0  0  0  0  0  0  0  0  0  0  0
  150.3478  137.6968  155.7376 H   0  0  0  0  0  0  0  0  0  0  0  0
  152.0415  137.9779  156.0340 H   0  0  0  0  0  0  0  0  0  0  0  0
  151.7371  140.0945  154.5096 H   0  0  0  0  0  0  0  0  0  0  0  0
  149.5066  139.5371  153.6105 H   0  0  0  0  0  0  0  0  0  0  0  0
  149.4553  141.0581  154.4924 H   0  0  0  0  0  0  0  0  0  0  0  0
  148.8128  139.5912  155.2290 H   0  0  0  0  0  0  0  0  0  0  0  0
  150.3725  140.9966  156.7313 H   0  0  0  0  0  0  0  0  0  0  0  0
  151.0210  141.4320  158.5172 H   0  0  0  0  0  0  0  0  0  0  0  0
  153.4489  138.9312  159.5724 H   0  0  0  0  0  0  0  0  0  0  0  0
  154.8659  139.1777  161.5916 H   0  0  0  0  0  0  0  0  0  0  0  0
  154.9124  141.3904  162.7690 H   0  0  0  0  0  0  0  0  0  0  0  0
  153.2024  143.9878  158.4056 H   0  0  0  0  0  0  0  0  0  0  0  0
  151.6496  143.2726  157.9504 H   0  0  0  0  0  0  0  0  0  0  0  0
  151.8819  145.9619  158.0020 H   0  0  0  0  0  0  0  0  0  0  0  0
  150.4439  145.2139  158.7067 H   0  0  0  0  0  0  0  0  0  0  0  0
  152.9393  146.1381  160.1664 H   0  0  0  0  0  0  0  0  0  0  0  0
  151.2654  146.4906  160.5966 H   0  0  0  0  0  0  0  0  0  0  0  0
  150.9684  144.3328  161.5287 H   0  0  0  0  0  0  0  0  0  0  0  0
  152.7202  144.4102  161.7334 H   0  0  0  0  0  0  0  0  0  0  0  0
  1  2  1  0  0  0  0
  1 20  1  0  0  0  0
  1 21  1  0  0  0  0
  1 22  1  0  0  0  0
  2  3  1  0  0  0  0
  2 23  1  0  0  0  0
  2 24  1  0  0  0  0
  3  4  1  0  0  0  0
  3  5  1  0  0  0  0
  3 25  1  0  0  0  0
  4 26  1  0  0  0  0
  4 27  1  0  0  0  0
  4 28  1  0  0  0  0
  5  6  1  0  0  0  0
  5 29  1  0  0  0  0
  6  7  2  0  0  0  0
  6  8  1  0  0  0  0
  8  9  1  0  0  0  0
  8 30  1  0  0  0  0
  9 14  1  0  0  0  0
  9 10  2  0  0  0  0
 10 11  1  0  0  0  0
 10 31  1  0  0  0  0
 11 12  2  0  0  0  0
 11 32  1  0  0  0  0
 12 13  1  0  0  0  0
 12 33  1  0  0  0  0
 13 14  2  0  0  0  0
 14 15  1  0  0  0  0
 15 19  1  0  0  0  0
 15 16  1  0  0  0  0
 16 17  1  0  0  0  0
 16 34  1  0  0  0  0
 16 35  1  0  0  0  0
 17 18  1  0  0  0  0
 17 36  1  0  0  0  0
 17 37  1  0  0  0  0
 18 19  1  0  0  0  0
 18 38  1  0  0  0  0
 18 39  1  0  0  0  0
 19 40  1  0  0  0  0
 19 41  1  0  0  0  0
M  END
> <s_m_source_file>
AV-unprocessed.smi

> <i_m_source_file_index>
2450

> <i_lp_mmshare_version>
43012

> <i_f3d_flags>
0

> <s_epik_input>
W0NIM11bQ0gyXVtDQEhdKFtDSDNdKVtOSF1DKD1PKVtOSF1jMVtjSF1bY0hdW2NIXW5jMU4yW0NIMl1bQ0gyXVtDSDJdW0NIMl0y

> <s_epik_cmdline>
J2VwaWtfcHl0aG9uJywgJy1waCcsICc3LjAnLCAnLXRuJywgJzgnLCAnLW1hJywgJzIwMCcsICctbWV0YWxfYmluZGluZycsICctaW1hZScsICc8aW5maWxlLm1hZT4nLCAnLW9tYWUnLCAnPG91dGZpbGUubWFlPic=

> <r_lp_tautomer_probability>
1

> <r_epik_Ionization_Penalty>
0.103391

> <r_epik_Ionization_Penalty_Charging>
0

> <r_epik_Ionization_Penalty_Neutral>
0.103391

> <r_epik_State_Penalty>
0.0927616

> <r_epik_Charging_Adjusted_Penalty>
0.0927616

> <i_epik_Tot_Q>
0

> <i_epik_Tot_abs_Q>
0

> <r_epik_Metal_State_Penalty>
0.0789158

> <b_epik_Metal_Only>
0

> <s_lp_Force_Field>
OPLS_2005

> <r_lp_Energy>
32.3159

> <b_lp_Chiralities_Consistent>
1

> <s_lp_Variant>
AV-unprocessed.smi:2450-2

> <Gold.Version>
5.8.1

> <Gold.Id.Protein>
6NUR|6NUR_protein|mol2

> <Gold.PLP.Fitness>
43.6289

> <Gold.PLP.PLP>
-41.5508

> <Gold.PLP.part.hbond>
-1.0000

> <Gold.PLP.part.metal>
0.0000

> <Gold.PLP.part.buried>
-1.1105

> <Gold.PLP.part.nonpolar>
-39.0782

> <Gold.PLP.part.repulsive>
0.2436

> <Gold.PLP.ligand.clash>
0.0000

> <Gold.PLP.ligand.torsion>
0.6351

> <Gold.PLP.Chemscore.Hbond>
1.0000

> <Gold.PLP.Chemscore.CHOScore>
0.0000

> <Gold.PLP.Chemscore.Metal>
0.0000

> <Gold.Chemscore.Hbonds>
donor molecule, donor type, donor heavy atom, donor atom, acceptor molecule, acceptor atom, score
      P1  H  7997  8008       L1     7  1.00

> <Gold.PLP.Chemscore.Internal.Correction>
0.3483

> <Gold.Rescore>
     Score         DG    S(hbond)    S(metal)    S(lipo)     H(rot)  DE(clash)    DE(int)     intcor
     14.50     -18.40       0.95        0.00     112.04       1.32       0.04       3.87       ----

> <Gold.Chemscore.Fitness>
14.4966

> <Gold.Chemscore.DG>
-18.4028

> <Gold.Chemscore.ZeroCoef>
-5.4800

> <Gold.Chemscore.Hbond>
0.9532

> <Gold.Chemscore.Metal>
0.0000

> <Gold.Chemscore.Lipo>
112.0411

> <Gold.Chemscore.Internal_Hbond>
0.0000

> <Gold.Chemscore.DEClash>
0.0375

> <Gold.Chemscore.DEInternal>
3.8688

> <Gold.Chemscore.Rot>
1.3163

> <Gold.Chemscore.Internal.Correction>
   9.000000E+99

> <Gold.Chemscore.Hbonds>
donor molecule, donor type, donor heavy atom, donor atom, acceptor molecule, acceptor atom, score
      P1  H  7997  8008       L1     7  0.93

> <Gold.Chemscore.Hbond.Weighted>
-3.1836

> <Gold.Chemscore.Metal.Weighted>
-0.0000

> <Gold.Chemscore.Lipo.Weighted>
-13.1088

> <Gold.Chemscore.Internal_Hbond.Weighted>
0.0000

> <Gold.Chemscore.DEClash.Weighted>
0.0375

> <Gold.Chemscore.DEInternal.Weighted>
3.8688

> <Gold.Chemscore.Rot.Weighted>
3.3696

> <Gold.Chemscore.Internal.Correction.Weighted>
   9.000000E+99

> <Gold.Protein.RotatedTorsions>
[ 6907 6896 6895 6894 ] final  -18.74 input  -60.11 | X-H torsion
[ 7974 7965 7964 7962 ] final  -60.05 input  175.53 | X-H torsion
[ 8008 7997 7996 7995 ] final  -81.69 input   59.86 | X-H torsion
[ 10167 10162 10161 10158 ] final   79.69 input  -65.29 | X-H torsion
[ 10718 10713 10712 10709 ] final  -25.04 input   66.30 | X-H torsion
[ 10763 10752 10751 10750 ] final   70.47 input  -60.55 | X-H torsion
[ 11005 11000 10999 10996 ] final -146.56 input  -57.11 | X-H torsion

> <Gold.Protein.ActiveResidues>
 VAL166  LYS551  ARG553  GLY616  TRP617  ASP618  TYR619  PRO620  LYS621  CYS622 
 ASP623  PHE694  ASN695  SER759  ASP760  ASP761  ALA762  ILE779  LEU786  VAL792 
 PHE793  MET794  SER795  GLU796  ALA797  LYS798  CYS799  TRP800  GLU811  SER814 

> <Gold.Protein.RotatedAtoms>
  151.2736  135.0692  159.9142 H   0  0  0  0  0  0  0  0  0  0  0  0  # atno 6907 bound_to 6896
  152.5346  134.0104  159.7946 H   0  0  0  0  0  0  0  0  0  0  0  0  # atno 6908 bound_to 6896
  151.0347  133.5709  159.2688 H   0  0  0  0  0  0  0  0  0  0  0  0  # atno 6909 bound_to 6896
  145.8202  140.8545  143.0137 H   0  0  0  0  0  0  0  0  0  0  0  0  # atno 7974 bound_to 7965
  154.6009  140.0644  156.9367 H   0  0  0  0  0  0  0  0  0  0  0  0  # atno 8008 bound_to 7997
  155.2133  140.3324  155.4307 H   0  0  0  0  0  0  0  0  0  0  0  0  # atno 8009 bound_to 7997
  156.2317  140.1844  156.7208 H   0  0  0  0  0  0  0  0  0  0  0  0  # atno 8010 bound_to 7997
  139.9577  144.5983  150.8101 H   0  0  0  0  0  0  0  0  0  0  0  0  # atno 10167 bound_to 10162
  156.4696  130.4521  149.6877 H   0  0  0  0  0  0  0  0  0  0  0  0  # atno 10718 bound_to 10713
  153.0344  135.5172  154.7447 H   0  0  0  0  0  0  0  0  0  0  0  0  # atno 10763 bound_to 10752
  154.6436  135.2915  155.0076 H   0  0  0  0  0  0  0  0  0  0  0  0  # atno 10764 bound_to 10752
  154.0985  135.6639  153.4917 H   0  0  0  0  0  0  0  0  0  0  0  0  # atno 10765 bound_to 10752
  140.7807  134.3082  157.5046 H   0  0  0  0  0  0  0  0  0  0  0  0  # atno 11005 bound_to 11000
  144.6748  140.0522  143.7478 LP  0  0  0  0  0  0  0  0  0  0  0  0  # atno 17320 bound_to 7965
  145.9683  139.2851  143.1114 LP  0  0  0  0  0  0  0  0  0  0  0  0  # atno 17321 bound_to 7965
  140.7563  143.3063  151.2953 LP  0  0  0  0  0  0  0  0  0  0  0  0  # atno 17342 bound_to 10162
  139.6579  144.0243  152.2672 LP  0  0  0  0  0  0  0  0  0  0  0  0  # atno 17343 bound_to 10162
  156.3632  130.7492  151.2467 LP  0  0  0  0  0  0  0  0  0  0  0  0  # atno 17370 bound_to 10713
  157.7492  131.0344  150.4317 LP  0  0  0  0  0  0  0  0  0  0  0  0  # atno 17371 bound_to 10713
  139.8743  134.9317  156.3534 LP  0  0  0  0  0  0  0  0  0  0  0  0  # atno 17394 bound_to 11000
  140.9485  133.7467  156.0240 LP  0  0  0  0  0  0  0  0  0  0  0  0  # atno 17395 bound_to 11000

$$$$
