AV-unprocessed.smi:1994|AV-procd|sdf|8073|dock4
  -GOLD-   2272010283D 1   1.00000     0.00000
 Structure written by MMmdl.
 39 41  0  0  0  0  0  0  0  0  1 V2000
  150.9003  136.6798  154.2805 C   0  0  0  0  0  0  0  0  0  0  0  0
  150.0966  137.9205  154.0523 C   0  0  0  0  0  0  0  0  0  0  0  0
  148.8295  137.8797  153.6390 N   0  0  0  0  0  0  0  0  0  0  0  0
  148.4935  139.2175  153.5589 C   0  0  0  0  0  0  0  0  0  0  0  0
  147.2834  139.8404  153.1778 C   0  0  0  0  0  0  0  0  0  0  0  0
  147.1751  141.2466  153.1717 C   0  0  0  0  0  0  0  0  0  0  0  0
  148.2727  142.0489  153.5460 C   0  0  0  0  0  0  0  0  0  0  0  0
  149.4876  141.4487  153.9292 C   0  0  0  0  0  0  0  0  0  0  0  0
  149.5903  140.0448  153.9334 C   0  0  0  0  0  0  0  0  0  0  0  0
  150.6146  139.1583  154.2492 N   0  0  0  0  0  0  0  0  0  0  0  0
  151.9548  139.5175  154.6920 C   0  0  0  0  0  0  0  0  0  0  0  0
  152.0329  139.7345  156.2169 C   0  0  1  0  0  0  0  0  0  0  0  0
  153.3045  139.3874  156.7285 O   0  0  0  0  0  0  0  0  0  0  0  0
  151.6791  141.1653  156.6548 C   0  0  0  0  0  0  0  0  0  0  0  0
  151.9414  141.3286  158.0432 O   0  0  0  0  0  0  0  0  0  0  0  0
  151.7167  142.5636  158.6132 C   0  0  0  0  0  0  0  0  0  0  0  0
  151.1292  143.6599  157.9313 C   0  0  0  0  0  0  0  0  0  0  0  0
  150.9385  144.8904  158.5900 C   0  0  0  0  0  0  0  0  0  0  0  0
  151.3296  145.0416  159.9331 C   0  0  0  0  0  0  0  0  0  0  0  0
  151.9119  143.9593  160.6179 C   0  0  0  0  0  0  0  0  0  0  0  0
  152.1036  142.7286  159.9607 C   0  0  0  0  0  0  0  0  0  0  0  0
  152.6665  141.6950  160.6312 F   0  0  0  0  0  0  0  0  0  0  0  0
  150.2770  135.7927  154.1625 H   0  0  0  0  0  0  0  0  0  0  0  0
  151.3151  136.6744  155.2884 H   0  0  0  0  0  0  0  0  0  0  0  0
  151.7175  136.6241  153.5612 H   0  0  0  0  0  0  0  0  0  0  0  0
  146.4373  139.2346  152.8887 H   0  0  0  0  0  0  0  0  0  0  0  0
  146.2456  141.7121  152.8783 H   0  0  0  0  0  0  0  0  0  0  0  0
  148.1813  143.1252  153.5383 H   0  0  0  0  0  0  0  0  0  0  0  0
  150.3307  142.0592  154.2164 H   0  0  0  0  0  0  0  0  0  0  0  0
  152.6605  138.7509  154.3723 H   0  0  0  0  0  0  0  0  0  0  0  0
  152.2471  140.4314  154.1735 H   0  0  0  0  0  0  0  0  0  0  0  0
  151.3232  139.0608  156.6986 H   0  0  0  0  0  0  0  0  0  0  0  0
  153.4433  138.4634  156.5883 H   0  0  0  0  0  0  0  0  0  0  0  0
  152.2999  141.8637  156.0916 H   0  0  0  0  0  0  0  0  0  0  0  0
  150.6359  141.3873  156.4235 H   0  0  0  0  0  0  0  0  0  0  0  0
  150.8165  143.5836  156.9013 H   0  0  0  0  0  0  0  0  0  0  0  0
  150.4914  145.7200  158.0622 H   0  0  0  0  0  0  0  0  0  0  0  0
  151.1836  145.9857  160.4368 H   0  0  0  0  0  0  0  0  0  0  0  0
  152.2135  144.0728  161.6489 H   0  0  0  0  0  0  0  0  0  0  0  0
  1  2  1  0  0  0  0
  1 23  1  0  0  0  0
  1 24  1  0  0  0  0
  1 25  1  0  0  0  0
  2 10  1  0  0  0  0
  2  3  2  0  0  0  0
  3  4  1  0  0  0  0
  4  9  2  0  0  0  0
  4  5  1  0  0  0  0
  5  6  2  0  0  0  0
  5 26  1  0  0  0  0
  6  7  1  0  0  0  0
  6 27  1  0  0  0  0
  7  8  2  0  0  0  0
  7 28  1  0  0  0  0
  8  9  1  0  0  0  0
  8 29  1  0  0  0  0
  9 10  1  0  0  0  0
 10 11  1  0  0  0  0
 11 12  1  0  0  0  0
 11 30  1  0  0  0  0
 11 31  1  0  0  0  0
 12 13  1  0  0  0  0
 12 14  1  0  0  0  0
 12 32  1  0  0  0  0
 13 33  1  0  0  0  0
 14 15  1  0  0  0  0
 14 34  1  0  0  0  0
 14 35  1  0  0  0  0
 15 16  1  0  0  0  0
 16 21  1  0  0  0  0
 16 17  2  0  0  0  0
 17 18  1  0  0  0  0
 17 36  1  0  0  0  0
 18 19  2  0  0  0  0
 18 37  1  0  0  0  0
 19 20  1  0  0  0  0
 19 38  1  0  0  0  0
 20 21  2  0  0  0  0
 20 39  1  0  0  0  0
 21 22  1  0  0  0  0
M  END
> <s_m_source_file>
AV-unprocessed.smi

> <i_m_source_file_index>
1994

> <i_lp_mmshare_version>
43012

> <i_f3d_flags>
0

> <s_epik_input>
W2NIXTFbY0hdW2NIXVtjSF1jKGMxMiluKGMobjIpW0NIM10pW0NIMl1bQ0BIXShbT0hdKVtDSDJdT2MzW2NIXVtjSF1bY0hdW2NIXWMzRg==

> <s_epik_cmdline>
J2VwaWtfcHl0aG9uJywgJy1waCcsICc3LjAnLCAnLXRuJywgJzgnLCAnLW1hJywgJzIwMCcsICctbWV0YWxfYmluZGluZycsICctaW1hZScsICc8aW5maWxlLm1hZT4nLCAnLW9tYWUnLCAnPG91dGZpbGUubWFlPic=

> <r_lp_tautomer_probability>
1

> <r_epik_Ionization_Penalty>
0.112614

> <r_epik_Ionization_Penalty_Charging>
0

> <r_epik_Ionization_Penalty_Neutral>
0.112614

> <r_epik_State_Penalty>
0.10231

> <r_epik_Charging_Adjusted_Penalty>
0.10231

> <i_epik_Tot_Q>
0

> <i_epik_Tot_abs_Q>
0

> <r_epik_Metal_State_Penalty>
0.000111664

> <b_epik_Metal_Only>
0

> <s_lp_Force_Field>
OPLS_2005

> <r_lp_Energy>
17.3721

> <b_lp_Chiralities_Consistent>
1

> <s_lp_Variant>
AV-unprocessed.smi:1994-2

> <Gold.Version>
5.8.1

> <Gold.Id.Protein>
6NUR|6NUR_protein|mol2

> <Gold.PLP.Fitness>
52.8861

> <Gold.PLP.PLP>
-51.4590

> <Gold.PLP.part.hbond>
-0.9240

> <Gold.PLP.part.metal>
0.0000

> <Gold.PLP.part.buried>
-3.4032

> <Gold.PLP.part.nonpolar>
-45.6304

> <Gold.PLP.part.repulsive>
0.5025

> <Gold.PLP.ligand.clash>
0.0000

> <Gold.PLP.ligand.torsion>
0.7979

> <Gold.PLP.Chemscore.Hbond>
1.0000

> <Gold.PLP.Chemscore.CHOScore>
0.0000

> <Gold.PLP.Chemscore.Metal>
0.0000

> <Gold.Chemscore.Hbonds>
donor molecule, donor type, donor heavy atom, donor atom, acceptor molecule, acceptor atom, score
      P1  H  7997  8010       L1    13  0.39

> <Gold.PLP.Chemscore.Internal.Correction>
0.0229

> <Gold.Rescore>
     Score         DG    S(hbond)    S(metal)    S(lipo)     H(rot)  DE(clash)    DE(int)     intcor
     17.08     -17.67       0.92        0.00     125.83       2.19       0.03       0.56       ----

> <Gold.Chemscore.Fitness>
17.0839

> <Gold.Chemscore.DG>
-17.6688

> <Gold.Chemscore.ZeroCoef>
-5.4800

> <Gold.Chemscore.Hbond>
0.9189

> <Gold.Chemscore.Metal>
0.0000

> <Gold.Chemscore.Lipo>
125.8334

> <Gold.Chemscore.Internal_Hbond>
0.0000

> <Gold.Chemscore.DEClash>
0.0266

> <Gold.Chemscore.DEInternal>
0.5583

> <Gold.Chemscore.Rot>
2.1886

> <Gold.Chemscore.Internal.Correction>
   9.000000E+99

> <Gold.Chemscore.Hbonds>
donor molecule, donor type, donor heavy atom, donor atom, acceptor molecule, acceptor atom, score
      P1  H  7997  8010       L1    13  0.33

> <Gold.Chemscore.Hbond.Weighted>
-3.0691

> <Gold.Chemscore.Metal.Weighted>
-0.0000

> <Gold.Chemscore.Lipo.Weighted>
-14.7225

> <Gold.Chemscore.Internal_Hbond.Weighted>
0.0000

> <Gold.Chemscore.DEClash.Weighted>
0.0266

> <Gold.Chemscore.DEInternal.Weighted>
0.5583

> <Gold.Chemscore.Rot.Weighted>
5.6028

> <Gold.Chemscore.Internal.Correction.Weighted>
   9.000000E+99

> <Gold.Protein.RotatedTorsions>
[ 6907 6896 6895 6894 ] final   46.31 input  -60.11 | X-H torsion
[ 7974 7965 7964 7962 ] final -150.30 input  175.53 | X-H torsion
[ 8008 7997 7996 7995 ] final   71.73 input   59.86 | X-H torsion
[ 10167 10162 10161 10158 ] final  118.67 input  -65.29 | X-H torsion
[ 10718 10713 10712 10709 ] final  154.24 input   66.30 | X-H torsion
[ 10763 10752 10751 10750 ] final -106.37 input  -60.55 | X-H torsion
[ 11005 11000 10999 10996 ] final   19.56 input  -57.11 | X-H torsion

> <Gold.Protein.ActiveResidues>
 VAL166  LYS551  ARG553  GLY616  TRP617  ASP618  TYR619  PRO620  LYS621  CYS622 
 ASP623  PHE694  ASN695  SER759  ASP760  ASP761  ALA762  ILE779  LEU786  VAL792 
 PHE793  MET794  SER795  GLU796  ALA797  LYS798  CYS799  TRP800  GLU811  SER814 

> <Gold.Protein.RotatedAtoms>
  152.2549  134.8095  160.0439 H   0  0  0  0  0  0  0  0  0  0  0  0  # atno 6907 bound_to 6896
  151.8762  133.3480  159.3759 H   0  0  0  0  0  0  0  0  0  0  0  0  # atno 6908 bound_to 6896
  150.7096  134.4991  159.5597 H   0  0  0  0  0  0  0  0  0  0  0  0  # atno 6909 bound_to 6896
  144.7916  140.4950  143.5769 H   0  0  0  0  0  0  0  0  0  0  0  0  # atno 7974 bound_to 7965
  155.7583  140.3487  155.5185 H   0  0  0  0  0  0  0  0  0  0  0  0  # atno 8008 bound_to 7997
  155.8938  140.1022  157.1420 H   0  0  0  0  0  0  0  0  0  0  0  0  # atno 8009 bound_to 7997
  154.4036  140.1299  156.4336 H   0  0  0  0  0  0  0  0  0  0  0  0  # atno 8010 bound_to 7997
  139.6096  144.7078  151.2874 H   0  0  0  0  0  0  0  0  0  0  0  0  # atno 10167 bound_to 10162
  157.2343  131.0745  151.1833 H   0  0  0  0  0  0  0  0  0  0  0  0  # atno 10718 bound_to 10713
  154.8008  135.4714  154.0271 H   0  0  0  0  0  0  0  0  0  0  0  0  # atno 10763 bound_to 10752
  153.1778  135.6835  153.8526 H   0  0  0  0  0  0  0  0  0  0  0  0  # atno 10764 bound_to 10752
  153.8087  135.3220  155.3376 H   0  0  0  0  0  0  0  0  0  0  0  0  # atno 10765 bound_to 10752
  140.4124  134.1604  155.7668 H   0  0  0  0  0  0  0  0  0  0  0  0  # atno 11005 bound_to 11000
  145.5780  139.1487  143.3251 LP  0  0  0  0  0  0  0  0  0  0  0  0  # atno 17320 bound_to 7965
  146.2170  140.5911  142.9034 LP  0  0  0  0  0  0  0  0  0  0  0  0  # atno 17321 bound_to 7965
  140.7310  143.6865  150.7957 LP  0  0  0  0  0  0  0  0  0  0  0  0  # atno 17342 bound_to 10162
  140.0457  143.5301  152.2697 LP  0  0  0  0  0  0  0  0  0  0  0  0  # atno 17343 bound_to 10162
  157.3446  130.7050  149.6402 LP  0  0  0  0  0  0  0  0  0  0  0  0  # atno 17370 bound_to 10713
  155.9673  130.4270  150.4724 LP  0  0  0  0  0  0  0  0  0  0  0  0  # atno 17371 bound_to 10713
  141.1816  133.8402  157.1238 LP  0  0  0  0  0  0  0  0  0  0  0  0  # atno 17394 bound_to 11000
  140.0258  134.9924  157.0683 LP  0  0  0  0  0  0  0  0  0  0  0  0  # atno 17395 bound_to 11000

$$$$
