AV-unprocessed.smi:2803|AV-procd|sdf|10808|dock6
  -GOLD-   2272015243D 1   1.00000     0.00000
 Structure written by MMmdl.
 42 43  0  0  0  0  0  0  0  0  1 V2000
  145.2813  134.1055  153.4669 C   0  0  0  0  0  0  0  0  0  0  0  0
  146.4610  133.7577  152.5367 C   0  0  2  0  0  0  0  0  0  0  0  0
  146.4948  132.2904  152.3947 C   0  0  0  0  0  0  0  0  0  0  0  0
  146.5182  131.1386  152.2827 N   0  0  0  0  0  0  0  0  0  0  0  0
  147.7222  134.1600  153.1648 N   0  0  0  0  0  0  0  0  0  0  0  0
  148.2947  133.6593  154.2721 C   0  0  0  0  0  0  0  0  0  0  0  0
  147.8050  132.7503  154.9428 O   0  0  0  0  0  0  0  0  0  0  0  0
  149.6173  134.3134  154.6922 C   0  0  0  0  0  0  0  0  0  0  0  0
  149.4291  135.5404  155.4685 N   0  0  0  0  0  0  0  0  0  0  0  0
  148.8638  136.6810  154.9531 C   0  0  0  0  0  0  0  0  0  0  0  0
  148.8070  137.6230  155.8287 N   0  0  0  0  0  0  0  0  0  0  0  0
  149.3568  137.0596  156.9459 N   0  0  0  0  0  0  0  0  0  0  0  0
  149.4739  137.8495  158.1984 C   0  0  0  0  0  0  0  0  0  0  0  0
  150.9608  137.9763  158.5951 C   0  0  0  0  0  0  0  0  0  0  0  0
  148.7230  137.1812  159.3771 C   0  0  0  0  0  0  0  0  0  0  0  0
  148.8661  139.2532  157.9866 C   0  0  0  0  0  0  0  0  0  0  0  0
  149.7394  135.7844  156.7381 C   0  0  0  0  0  0  0  0  0  0  0  0
  150.2636  135.0040  157.5327 O   0  0  0  0  0  0  0  0  0  0  0  0
  146.2398  134.3977  151.1620 C   0  0  0  0  0  0  0  0  0  0  0  0
  145.6504  135.7807  150.9942 C   0  0  0  0  0  0  0  0  0  0  0  0
  144.8663  134.5644  150.5525 C   0  0  0  0  0  0  0  0  0  0  0  0
  144.3439  133.7147  153.0693 H   0  0  0  0  0  0  0  0  0  0  0  0
  145.1546  135.1815  153.5865 H   0  0  0  0  0  0  0  0  0  0  0  0
  145.4187  133.6752  154.4594 H   0  0  0  0  0  0  0  0  0  0  0  0
  148.2153  134.9093  152.7008 H   0  0  0  0  0  0  0  0  0  0  0  0
  150.1979  133.6086  155.2901 H   0  0  0  0  0  0  0  0  0  0  0  0
  150.2061  134.5127  153.7953 H   0  0  0  0  0  0  0  0  0  0  0  0
  148.5288  136.6988  153.9146 H   0  0  0  0  0  0  0  0  0  0  0  0
  151.0725  138.5078  159.5408 H   0  0  0  0  0  0  0  0  0  0  0  0
  151.5414  138.5248  157.8538 H   0  0  0  0  0  0  0  0  0  0  0  0
  151.4220  136.9953  158.7146 H   0  0  0  0  0  0  0  0  0  0  0  0
  149.1182  136.1887  159.5981 H   0  0  0  0  0  0  0  0  0  0  0  0
  147.6565  137.0800  159.1715 H   0  0  0  0  0  0  0  0  0  0  0  0
  148.8168  137.7712  160.2894 H   0  0  0  0  0  0  0  0  0  0  0  0
  148.8895  139.8360  158.9079 H   0  0  0  0  0  0  0  0  0  0  0  0
  147.8254  139.1886  157.6672 H   0  0  0  0  0  0  0  0  0  0  0  0
  149.4063  139.8287  157.2350 H   0  0  0  0  0  0  0  0  0  0  0  0
  147.0321  134.1678  150.4526 H   0  0  0  0  0  0  0  0  0  0  0  0
  145.3027  136.3082  151.8799 H   0  0  0  0  0  0  0  0  0  0  0  0
  146.0739  136.4135  150.2168 H   0  0  0  0  0  0  0  0  0  0  0  0
  144.7711  134.3889  149.4831 H   0  0  0  0  0  0  0  0  0  0  0  0
  143.9997  134.2815  151.1464 H   0  0  0  0  0  0  0  0  0  0  0  0
  1  2  1  0  0  0  0
  1 22  1  0  0  0  0
  1 23  1  0  0  0  0
  1 24  1  0  0  0  0
  2  3  1  0  0  0  0
  2  5  1  0  0  0  0
  2 19  1  0  0  0  0
  3  4  3  0  0  0  0
  5  6  1  0  0  0  0
  5 25  1  0  0  0  0
  6  7  2  0  0  0  0
  6  8  1  0  0  0  0
  8  9  1  0  0  0  0
  8 26  1  0  0  0  0
  8 27  1  0  0  0  0
  9 17  1  0  0  0  0
  9 10  1  0  0  0  0
 10 11  2  0  0  0  0
 10 28  1  0  0  0  0
 11 12  1  0  0  0  0
 12 13  1  0  0  0  0
 12 17  1  0  0  0  0
 13 14  1  0  0  0  0
 13 15  1  0  0  0  0
 13 16  1  0  0  0  0
 14 29  1  0  0  0  0
 14 30  1  0  0  0  0
 14 31  1  0  0  0  0
 15 32  1  0  0  0  0
 15 33  1  0  0  0  0
 15 34  1  0  0  0  0
 16 35  1  0  0  0  0
 16 36  1  0  0  0  0
 16 37  1  0  0  0  0
 17 18  2  0  0  0  0
 19 21  1  0  0  0  0
 19 20  1  0  0  0  0
 19 38  1  0  0  0  0
 20 21  1  0  0  0  0
 20 39  1  0  0  0  0
 20 40  1  0  0  0  0
 21 41  1  0  0  0  0
 21 42  1  0  0  0  0
M  END
> <s_m_source_file>
AV-unprocessed.smi

> <i_m_source_file_index>
2803

> <i_lp_mmshare_version>
43012

> <i_f3d_flags>
0

> <s_epik_input>
W0NIMl0xW0NIMl1bQ0hdMVtDQF0oW0NIM10pKEMjTilbTkhdQyg9TylbQ0gyXW4yW2NIXW5uKGMyPU8pQyhbQ0gzXSkoW0NIM10pW0NIM10=

> <s_epik_cmdline>
J2VwaWtfcHl0aG9uJywgJy1waCcsICc3LjAnLCAnLXRuJywgJzgnLCAnLW1hJywgJzIwMCcsICctbWV0YWxfYmluZGluZycsICctaW1hZScsICc8aW5maWxlLm1hZT4nLCAnLW9tYWUnLCAnPG91dGZpbGUubWFlPic=

> <r_lp_tautomer_probability>
1

> <r_epik_Ionization_Penalty>
4.88615e-06

> <r_epik_Ionization_Penalty_Charging>
4.80261e-08

> <r_epik_Ionization_Penalty_Neutral>
4.83813e-06

> <r_epik_State_Penalty>
-0

> <r_epik_Charging_Adjusted_Penalty>
4.80261e-08

> <i_epik_Tot_Q>
0

> <i_epik_Tot_abs_Q>
0

> <r_epik_Metal_State_Penalty>
-0

> <b_epik_Metal_Only>
0

> <s_lp_Force_Field>
OPLS_2005

> <r_lp_Energy>
31.1455

> <b_lp_Chiralities_Consistent>
1

> <s_lp_Variant>
AV-unprocessed.smi:2803-2

> <Gold.Version>
5.8.1

> <Gold.Id.Protein>
6NUR|6NUR_protein|mol2

> <Gold.PLP.Fitness>
34.7162

> <Gold.PLP.PLP>
-28.0238

> <Gold.PLP.part.hbond>
-2.0000

> <Gold.PLP.part.metal>
0.0000

> <Gold.PLP.part.buried>
-4.3513

> <Gold.PLP.part.nonpolar>
-21.7231

> <Gold.PLP.part.repulsive>
0.6571

> <Gold.PLP.ligand.clash>
0.0000

> <Gold.PLP.ligand.torsion>
1.2372

> <Gold.PLP.Chemscore.Hbond>
1.5440

> <Gold.PLP.Chemscore.CHOScore>
1.0000

> <Gold.PLP.Chemscore.Metal>
0.0000

> <Gold.Chemscore.Hbonds>
donor molecule, donor type, donor heavy atom, donor atom, acceptor molecule, acceptor atom, score
      L1  H     5    25       P1  7948  1.00
      P1  H  6896  6907       L1    18  0.47
      L1  C    10    28       P1  7948  1.00

> <Gold.PLP.Chemscore.Internal.Correction>
1.5346

> <Gold.Rescore>
     Score         DG    S(hbond)    S(metal)    S(lipo)     H(rot)  DE(clash)    DE(int)     intcor
      8.97     -11.16       1.84        0.00      40.85       2.05       0.02       2.17       ----

> <Gold.Chemscore.Fitness>
8.9737

> <Gold.Chemscore.DG>
-11.1604

> <Gold.Chemscore.ZeroCoef>
-5.4800

> <Gold.Chemscore.Hbond>
1.8378

> <Gold.Chemscore.Metal>
0.0000

> <Gold.Chemscore.Lipo>
40.8482

> <Gold.Chemscore.Internal_Hbond>
0.0000

> <Gold.Chemscore.DEClash>
0.0207

> <Gold.Chemscore.DEInternal>
2.1661

> <Gold.Chemscore.Rot>
2.0457

> <Gold.Chemscore.Internal.Correction>
   9.000000E+99

> <Gold.Chemscore.Hbonds>
donor molecule, donor type, donor heavy atom, donor atom, acceptor molecule, acceptor atom, score
      L1  H     5    25       P1  7948  0.74
      P1  H  6896  6907       L1    18  0.47

> <Gold.Chemscore.Hbond.Weighted>
-6.1382

> <Gold.Chemscore.Metal.Weighted>
-0.0000

> <Gold.Chemscore.Lipo.Weighted>
-4.7792

> <Gold.Chemscore.Internal_Hbond.Weighted>
0.0000

> <Gold.Chemscore.DEClash.Weighted>
0.0207

> <Gold.Chemscore.DEInternal.Weighted>
2.1661

> <Gold.Chemscore.Rot.Weighted>
5.2370

> <Gold.Chemscore.Internal.Correction.Weighted>
   9.000000E+99

> <Gold.Protein.RotatedTorsions>
[ 6907 6896 6895 6894 ] final -110.18 input  -60.11 | X-H torsion
[ 7974 7965 7964 7962 ] final   68.69 input  175.53 | X-H torsion
[ 8008 7997 7996 7995 ] final   80.69 input   59.86 | X-H torsion
[ 10167 10162 10161 10158 ] final   68.14 input  -65.29 | X-H torsion
[ 10718 10713 10712 10709 ] final   69.72 input   66.30 | X-H torsion
[ 10763 10752 10751 10750 ] final  101.40 input  -60.55 | X-H torsion
[ 11005 11000 10999 10996 ] final  -97.84 input  -57.11 | X-H torsion

> <Gold.Protein.ActiveResidues>
 VAL166  LYS551  ARG553  GLY616  TRP617  ASP618  TYR619  PRO620  LYS621  CYS622 
 ASP623  PHE694  ASN695  SER759  ASP760  ASP761  ALA762  ILE779  LEU786  VAL792 
 PHE793  MET794  SER795  GLU796  ALA797  LYS798  CYS799  TRP800  GLU811  SER814 

> <Gold.Protein.RotatedAtoms>
  150.7608  133.9420  159.3458 H   0  0  0  0  0  0  0  0  0  0  0  0  # atno 6907 bound_to 6896
  151.7329  135.0869  160.0312 H   0  0  0  0  0  0  0  0  0  0  0  0  # atno 6908 bound_to 6896
  152.3578  133.6221  159.6028 H   0  0  0  0  0  0  0  0  0  0  0  0  # atno 6909 bound_to 6896
  145.7995  139.2975  143.1163 H   0  0  0  0  0  0  0  0  0  0  0  0  # atno 7974 bound_to 7965
  155.8869  140.3441  155.5928 H   0  0  0  0  0  0  0  0  0  0  0  0  # atno 8008 bound_to 7997
  155.7655  140.0838  157.2153 H   0  0  0  0  0  0  0  0  0  0  0  0  # atno 8009 bound_to 7997
  154.4029  140.1528  156.2869 H   0  0  0  0  0  0  0  0  0  0  0  0  # atno 8010 bound_to 7997
  140.0819  144.5063  150.7156 H   0  0  0  0  0  0  0  0  0  0  0  0  # atno 10167 bound_to 10162
  157.6361  130.9440  150.0553 H   0  0  0  0  0  0  0  0  0  0  0  0  # atno 10718 bound_to 10713
  153.3261  135.4046  155.1457 H   0  0  0  0  0  0  0  0  0  0  0  0  # atno 10763 bound_to 10752
  154.8612  135.3599  154.5531 H   0  0  0  0  0  0  0  0  0  0  0  0  # atno 10764 bound_to 10752
  153.5967  135.7072  153.5460 H   0  0  0  0  0  0  0  0  0  0  0  0  # atno 10765 bound_to 10752
  141.1365  133.8201  157.0760 H   0  0  0  0  0  0  0  0  0  0  0  0  # atno 11005 bound_to 11000
  145.9892  140.8617  143.0075 LP  0  0  0  0  0  0  0  0  0  0  0  0  # atno 17320 bound_to 7965
  144.6770  140.2191  143.7368 LP  0  0  0  0  0  0  0  0  0  0  0  0  # atno 17321 bound_to 7965
  140.7073  143.2478  151.4688 LP  0  0  0  0  0  0  0  0  0  0  0  0  # atno 17342 bound_to 10162
  139.5774  144.1787  152.1922 LP  0  0  0  0  0  0  0  0  0  0  0  0  # atno 17343 bound_to 10162
  156.1602  130.3644  149.9310 LP  0  0  0  0  0  0  0  0  0  0  0  0  # atno 17370 bound_to 10713
  156.7310  130.9043  151.3625 LP  0  0  0  0  0  0  0  0  0  0  0  0  # atno 17371 bound_to 10713
  140.0481  134.9820  157.1086 LP  0  0  0  0  0  0  0  0  0  0  0  0  # atno 17394 bound_to 11000
  140.4031  134.2061  155.7163 LP  0  0  0  0  0  0  0  0  0  0  0  0  # atno 17395 bound_to 11000

$$$$
