AV-unprocessed.smi:314|AV-procd|sdf|2314|dock2
  -GOLD-   2262022213D 1   1.00000     0.00000
 Structure written by MMmdl.
 48 49  0  0  0  0  0  0  0  0  1 V2000
  146.9142  129.9059  152.5643 C   0  0  0  0  0  0  0  0  0  0  0  0
  147.9437  130.0457  153.5373 O   0  0  0  0  0  0  0  0  0  0  0  0
  148.4465  131.3072  153.7821 C   0  0  0  0  0  0  0  0  0  0  0  0
  149.4617  131.4523  154.7486 C   0  0  0  0  0  0  0  0  0  0  0  0
  149.9851  132.7349  154.9996 C   0  0  0  0  0  0  0  0  0  0  0  0
  149.4782  133.8347  154.2679 C   0  0  0  0  0  0  0  0  0  0  0  0
  149.9124  135.1750  154.4463 N   0  0  0  0  0  0  0  0  0  0  0  0
  150.8420  135.6380  155.2989 C   0  0  0  0  0  0  0  0  0  0  0  0
  151.5077  134.9456  156.0690 O   0  0  0  0  0  0  0  0  0  0  0  0
  150.9814  136.9669  155.1904 N   0  0  0  0  0  0  0  0  0  0  0  0
  151.9327  137.7707  155.9494 C   0  0  0  0  0  0  0  0  0  0  0  0
  152.1336  139.1571  155.3049 C   0  0  0  0  0  0  0  0  0  0  0  0
  151.0395  140.1766  155.6646 C   0  0  0  0  0  0  0  0  0  0  0  0
  150.3460  140.6529  154.7646 O   0  0  0  0  0  0  0  0  0  0  0  0
  150.8654  140.5153  156.9647 N   0  0  0  0  0  0  0  0  0  0  0  0
  149.8997  141.4882  157.4847 C   0  0  0  0  0  0  0  0  0  0  0  0
  150.6619  142.6883  158.0850 C   0  0  2  0  0  0  0  0  0  0  0  0
  151.3366  143.5880  157.0338 C   0  0  0  0  0  0  0  0  0  0  0  0
  151.6016  142.2264  159.0608 O   0  0  0  0  0  0  0  0  0  0  0  0
  152.5131  141.2188  158.6152 C   0  0  1  0  0  0  0  0  0  0  0  0
  153.3913  140.8156  159.8049 C   0  0  0  0  0  0  0  0  0  0  0  0
  151.7223  140.0249  158.0457 C   0  0  0  0  0  0  0  0  0  0  0  0
  148.4486  133.5867  153.3368 C   0  0  0  0  0  0  0  0  0  0  0  0
  147.9450  132.3595  153.0890 N   0  0  0  0  0  0  0  0  0  0  0  0
  146.6346  128.8556  152.4830 H   0  0  0  0  0  0  0  0  0  0  0  0
  147.2488  130.2359  151.5797 H   0  0  0  0  0  0  0  0  0  0  0  0
  146.0207  130.4652  152.8453 H   0  0  0  0  0  0  0  0  0  0  0  0
  149.8311  130.5944  155.2911 H   0  0  0  0  0  0  0  0  0  0  0  0
  150.7494  132.8521  155.7522 H   0  0  0  0  0  0  0  0  0  0  0  0
  149.5179  135.8486  153.8063 H   0  0  0  0  0  0  0  0  0  0  0  0
  150.3949  137.4567  154.5307 H   0  0  0  0  0  0  0  0  0  0  0  0
  151.5451  137.8798  156.9629 H   0  0  0  0  0  0  0  0  0  0  0  0
  152.8819  137.2377  156.0332 H   0  0  0  0  0  0  0  0  0  0  0  0
  153.0958  139.5624  155.6203 H   0  0  0  0  0  0  0  0  0  0  0  0
  152.1682  139.0459  154.2204 H   0  0  0  0  0  0  0  0  0  0  0  0
  149.1793  141.8373  156.7465 H   0  0  0  0  0  0  0  0  0  0  0  0
  149.3048  141.0068  158.2622 H   0  0  0  0  0  0  0  0  0  0  0  0
  149.9426  143.3072  158.6220 H   0  0  0  0  0  0  0  0  0  0  0  0
  150.5956  144.0131  156.3565 H   0  0  0  0  0  0  0  0  0  0  0  0
  152.0589  143.0461  156.4241 H   0  0  0  0  0  0  0  0  0  0  0  0
  151.8594  144.4167  157.5116 H   0  0  0  0  0  0  0  0  0  0  0  0
  153.1607  141.6307  157.8406 H   0  0  0  0  0  0  0  0  0  0  0  0
  154.1195  140.0573  159.5162 H   0  0  0  0  0  0  0  0  0  0  0  0
  152.7907  140.4110  160.6200 H   0  0  0  0  0  0  0  0  0  0  0  0
  153.9417  141.6740  160.1906 H   0  0  0  0  0  0  0  0  0  0  0  0
  151.1028  139.5724  158.8215 H   0  0  0  0  0  0  0  0  0  0  0  0
  152.4109  139.2451  157.7179 H   0  0  0  0  0  0  0  0  0  0  0  0
  148.0189  134.3966  152.7655 H   0  0  0  0  0  0  0  0  0  0  0  0
  1  2  1  0  0  0  0
  1 25  1  0  0  0  0
  1 26  1  0  0  0  0
  1 27  1  0  0  0  0
  2  3  1  0  0  0  0
  3 24  1  0  0  0  0
  3  4  2  0  0  0  0
  4  5  1  0  0  0  0
  4 28  1  0  0  0  0
  5  6  2  0  0  0  0
  5 29  1  0  0  0  0
  6  7  1  0  0  0  0
  6 23  1  0  0  0  0
  7  8  1  0  0  0  0
  7 30  1  0  0  0  0
  8  9  2  0  0  0  0
  8 10  1  0  0  0  0
 10 11  1  0  0  0  0
 10 31  1  0  0  0  0
 11 12  1  0  0  0  0
 11 32  1  0  0  0  0
 11 33  1  0  0  0  0
 12 13  1  0  0  0  0
 12 34  1  0  0  0  0
 12 35  1  0  0  0  0
 13 14  2  0  0  0  0
 13 15  1  0  0  0  0
 15 22  1  0  0  0  0
 15 16  1  0  0  0  0
 16 17  1  0  0  0  0
 16 36  1  0  0  0  0
 16 37  1  0  0  0  0
 17 18  1  0  0  0  0
 17 19  1  0  0  0  0
 17 38  1  0  0  0  0
 18 39  1  0  0  0  0
 18 40  1  0  0  0  0
 18 41  1  0  0  0  0
 19 20  1  0  0  0  0
 20 21  1  0  0  0  0
 20 22  1  0  0  0  0
 20 42  1  0  0  0  0
 21 43  1  0  0  0  0
 21 44  1  0  0  0  0
 21 45  1  0  0  0  0
 22 46  1  0  0  0  0
 22 47  1  0  0  0  0
 23 24  2  0  0  0  0
 23 48  1  0  0  0  0
M  END
> <s_m_source_file>
AV-unprocessed.smi

> <i_m_source_file_index>
314

> <i_lp_mmshare_version>
43012

> <i_f3d_flags>
0

> <s_epik_input>
W0NIM11PYzFbY0hdW2NIXWMoW2NIXW4xKVtOSF1DKD1PKVtOSF1bQ0gyXVtDSDJdQyg9TylOMltDSDJdW0NAQEhdKFtDSDNdKU9bQ0BASF0oW0NIM10pW0NIMl0y

> <s_epik_cmdline>
J2VwaWtfcHl0aG9uJywgJy1waCcsICc3LjAnLCAnLXRuJywgJzgnLCAnLW1hJywgJzIwMCcsICctbWV0YWxfYmluZGluZycsICctaW1hZScsICc8aW5maWxlLm1hZT4nLCAnLW9tYWUnLCAnPG91dGZpbGUubWFlPic=

> <r_lp_tautomer_probability>
1

> <r_epik_Ionization_Penalty>
8.55977e-05

> <r_epik_Ionization_Penalty_Charging>
0

> <r_epik_Ionization_Penalty_Neutral>
8.55977e-05

> <r_epik_State_Penalty>
-0

> <r_epik_Charging_Adjusted_Penalty>
0

> <i_epik_Tot_Q>
0

> <i_epik_Tot_abs_Q>
0

> <r_epik_Metal_State_Penalty>
-0

> <b_epik_Metal_Only>
0

> <s_lp_Force_Field>
OPLS_2005

> <r_lp_Energy>
25.8744

> <b_lp_Chiralities_Consistent>
1

> <s_lp_Variant>
AV-unprocessed.smi:314-2

> <Gold.Version>
5.8.1

> <Gold.Id.Protein>
6NUR|6NUR_protein|mol2

> <Gold.PLP.Fitness>
48.0896

> <Gold.PLP.PLP>
-38.4122

> <Gold.PLP.part.hbond>
-3.0802

> <Gold.PLP.part.metal>
0.0000

> <Gold.PLP.part.buried>
-0.7721

> <Gold.PLP.part.nonpolar>
-33.3439

> <Gold.PLP.part.repulsive>
0.4642

> <Gold.PLP.ligand.clash>
0.0000

> <Gold.PLP.ligand.torsion>
0.2267

> <Gold.PLP.Chemscore.Hbond>
2.3688

> <Gold.PLP.Chemscore.CHOScore>
0.9991

> <Gold.PLP.Chemscore.Metal>
0.0000

> <Gold.Chemscore.Hbonds>
donor molecule, donor type, donor heavy atom, donor atom, acceptor molecule, acceptor atom, score
      L1  H     7    30       P1  7948  0.90
      P1  H  7989  7998       L1    14  0.90
      P1  H 10752 10765       L1     9  0.57
      L1  C    23    48       P1  7948  1.00

> <Gold.PLP.Chemscore.Internal.Correction>
0.0269

> <Gold.Rescore>
     Score         DG    S(hbond)    S(metal)    S(lipo)     H(rot)  DE(clash)    DE(int)     intcor
     13.40     -14.98       1.36        0.00      81.82       1.81       0.08       1.49       ----

> <Gold.Chemscore.Fitness>
13.4002

> <Gold.Chemscore.DG>
-14.9758

> <Gold.Chemscore.ZeroCoef>
-5.4800

> <Gold.Chemscore.Hbond>
1.3617

> <Gold.Chemscore.Metal>
0.0000

> <Gold.Chemscore.Lipo>
81.8207

> <Gold.Chemscore.Internal_Hbond>
0.0000

> <Gold.Chemscore.DEClash>
0.0820

> <Gold.Chemscore.DEInternal>
1.4936

> <Gold.Chemscore.Rot>
1.8067

> <Gold.Chemscore.Internal.Correction>
   9.000000E+99

> <Gold.Chemscore.Hbonds>
donor molecule, donor type, donor heavy atom, donor atom, acceptor molecule, acceptor atom, score
      L1  H     7    30       P1  7948  0.37
      P1  H  7989  7998       L1    14  0.23
      P1  H 10752 10765       L1     9  0.06

> <Gold.Chemscore.Hbond.Weighted>
-4.5479

> <Gold.Chemscore.Metal.Weighted>
-0.0000

> <Gold.Chemscore.Lipo.Weighted>
-9.5730

> <Gold.Chemscore.Internal_Hbond.Weighted>
0.0000

> <Gold.Chemscore.DEClash.Weighted>
0.0820

> <Gold.Chemscore.DEInternal.Weighted>
1.4936

> <Gold.Chemscore.Rot.Weighted>
4.6252

> <Gold.Chemscore.Internal.Correction.Weighted>
   9.000000E+99

> <Gold.Protein.RotatedTorsions>
[ 6907 6896 6895 6894 ] final  -19.39 input  -60.11 | X-H torsion
[ 7974 7965 7964 7962 ] final -114.18 input  175.53 | X-H torsion
[ 8008 7997 7996 7995 ] final  111.97 input   59.86 | X-H torsion
[ 10167 10162 10161 10158 ] final   39.97 input  -65.29 | X-H torsion
[ 10718 10713 10712 10709 ] final  101.03 input   66.30 | X-H torsion
[ 10763 10752 10751 10750 ] final -137.52 input  -60.55 | X-H torsion
[ 11005 11000 10999 10996 ] final -161.18 input  -57.11 | X-H torsion

> <Gold.Protein.ActiveResidues>
 VAL166  LYS551  ARG553  GLY616  TRP617  ASP618  TYR619  PRO620  LYS621  CYS622 
 ASP623  PHE694  ASN695  SER759  ASP760  ASP761  ALA762  ILE779  LEU786  VAL792 
 PHE793  MET794  SER795  GLU796  ALA797  LYS798  CYS799  TRP800  GLU811  SER814 

> <Gold.Protein.RotatedAtoms>
  151.2639  135.0663  159.9108 H   0  0  0  0  0  0  0  0  0  0  0  0  # atno 6907 bound_to 6896
  152.5361  134.0202  159.7988 H   0  0  0  0  0  0  0  0  0  0  0  0  # atno 6908 bound_to 6896
  151.0429  133.5640  159.2680 H   0  0  0  0  0  0  0  0  0  0  0  0  # atno 6909 bound_to 6896
  145.1232  140.8681  143.3802 H   0  0  0  0  0  0  0  0  0  0  0  0  # atno 7974 bound_to 7965
  156.2160  140.3009  155.9842 H   0  0  0  0  0  0  0  0  0  0  0  0  # atno 8008 bound_to 7997
  155.2603  140.0429  157.3013 H   0  0  0  0  0  0  0  0  0  0  0  0  # atno 8009 bound_to 7997
  154.5769  140.2364  155.8118 H   0  0  0  0  0  0  0  0  0  0  0  0  # atno 8010 bound_to 7997
  140.3788  144.2008  150.6131 H   0  0  0  0  0  0  0  0  0  0  0  0  # atno 10167 bound_to 10162
  157.6839  131.0715  150.5191 H   0  0  0  0  0  0  0  0  0  0  0  0  # atno 10718 bound_to 10713
  154.8660  135.3640  154.5236 H   0  0  0  0  0  0  0  0  0  0  0  0  # atno 10763 bound_to 10752
  153.5865  135.7017  153.5446 H   0  0  0  0  0  0  0  0  0  0  0  0  # atno 10764 bound_to 10752
  153.3411  135.4097  155.1535 H   0  0  0  0  0  0  0  0  0  0  0  0  # atno 10765 bound_to 10752
  140.6233  134.4728  157.5225 H   0  0  0  0  0  0  0  0  0  0  0  0  # atno 11005 bound_to 11000
  145.0718  139.3026  143.5828 LP  0  0  0  0  0  0  0  0  0  0  0  0  # atno 17320 bound_to 7965
  146.3519  140.0195  142.8660 LP  0  0  0  0  0  0  0  0  0  0  0  0  # atno 17321 bound_to 7965
  140.4959  143.2333  151.8750 LP  0  0  0  0  0  0  0  0  0  0  0  0  # atno 17342 bound_to 10162
  139.4797  144.5114  151.8927 LP  0  0  0  0  0  0  0  0  0  0  0  0  # atno 17343 bound_to 10162
  156.5505  130.4230  149.6110 LP  0  0  0  0  0  0  0  0  0  0  0  0  # atno 17370 bound_to 10713
  156.2907  130.7122  151.1970 LP  0  0  0  0  0  0  0  0  0  0  0  0  # atno 17371 bound_to 10713
  139.9145  134.8275  156.1414 LP  0  0  0  0  0  0  0  0  0  0  0  0  # atno 17394 bound_to 11000
  141.0727  133.6789  156.2173 LP  0  0  0  0  0  0  0  0  0  0  0  0  # atno 17395 bound_to 11000

$$$$
