AV-unprocessed.smi:72|AV-procd|sdf|679|dock2
  -GOLD-   2262016583D 1   1.00000     0.00000
 Structure written by MMmdl.
 29 30  0  0  0  0  0  0  0  0  1 V2000
  145.3632  138.4222  152.7910 N   0  0  0  0  0  0  0  0  0  0  0  0
  146.4008  138.9515  153.3329 C   0  0  0  0  0  0  0  0  0  0  0  0
  147.5532  138.2565  153.7298 N   0  0  0  0  0  0  0  0  0  0  0  0
  148.5329  138.9268  154.2538 C   0  0  0  0  0  0  0  0  0  0  0  0
  148.4775  140.3697  154.4315 N   0  0  0  0  0  0  0  0  0  0  0  0
  149.6275  141.1298  155.0523 C   0  0  2  0  0  0  0  0  0  0  0  0
  150.8028  140.3845  154.9064 O   0  0  0  0  0  0  0  0  0  0  0  0
  151.4626  140.2896  156.1624 C   0  0  2  0  0  0  0  0  0  0  0  0
  152.3816  139.0555  156.2104 C   0  0  0  0  0  0  0  0  0  0  0  0
  153.3792  139.0928  155.2105 O   0  0  0  0  0  0  0  0  0  0  0  0
  150.3389  140.3641  157.1983 C   0  0  1  0  0  0  0  0  0  0  0  0
  150.7911  140.7661  158.4777 O   0  0  0  0  0  0  0  0  0  0  0  0
  149.3750  141.3574  156.5549 C   0  0  1  0  0  0  0  0  0  0  0  0
  149.6487  142.6999  156.9120 O   0  0  0  0  0  0  0  0  0  0  0  0
  147.3079  141.0807  154.0682 C   0  0  0  0  0  0  0  0  0  0  0  0
  147.1898  142.2934  154.2416 O   0  0  0  0  0  0  0  0  0  0  0  0
  146.3209  140.3371  153.5232 N   0  0  0  0  0  0  0  0  0  0  0  0
  149.7313  142.0525  154.4787 H   0  0  0  0  0  0  0  0  0  0  0  0
  152.0812  141.1852  156.2470 H   0  0  0  0  0  0  0  0  0  0  0  0
  149.8351  139.4014  157.2880 H   0  0  0  0  0  0  0  0  0  0  0  0
  148.3386  141.1402  156.8178 H   0  0  0  0  0  0  0  0  0  0  0  0
  144.6706  139.1329  152.6023 H   0  0  0  0  0  0  0  0  0  0  0  0
  149.4535  138.4530  154.5957 H   0  0  0  0  0  0  0  0  0  0  0  0
  152.8497  138.9644  157.1907 H   0  0  0  0  0  0  0  0  0  0  0  0
  151.7895  138.1535  156.0546 H   0  0  0  0  0  0  0  0  0  0  0  0
  153.1847  138.4276  154.5679 H   0  0  0  0  0  0  0  0  0  0  0  0
  150.8474  140.0010  159.0292 H   0  0  0  0  0  0  0  0  0  0  0  0
  149.1248  143.2677  156.3676 H   0  0  0  0  0  0  0  0  0  0  0  0
  145.4745  140.8125  153.2453 H   0  0  0  0  0  0  0  0  0  0  0  0
  1  2  2  0  0  0  0
  1 22  1  0  0  0  0
  2 17  1  0  0  0  0
  2  3  1  0  0  0  0
  3  4  2  0  0  0  0
  4  5  1  0  0  0  0
  4 23  1  0  0  0  0
  5  6  1  0  0  0  0
  5 15  1  0  0  0  0
  6 18  1  0  0  0  0
  6 13  1  0  0  0  0
  6  7  1  0  0  0  0
  7  8  1  0  0  0  0
  8 19  1  0  0  0  0
  8  9  1  0  0  0  0
  8 11  1  0  0  0  0
  9 10  1  0  0  0  0
  9 24  1  0  0  0  0
  9 25  1  0  0  0  0
 10 26  1  0  0  0  0
 11 20  1  0  0  0  0
 11 12  1  0  0  0  0
 11 13  1  0  0  0  0
 12 27  1  0  0  0  0
 13 21  1  0  0  0  0
 13 14  1  0  0  0  0
 14 28  1  0  0  0  0
 15 16  2  0  0  0  0
 15 17  1  0  0  0  0
 17 29  1  0  0  0  0
M  END
> <s_m_source_file>
AV-unprocessed.smi

> <i_m_source_file_index>
72

> <i_lp_mmshare_version>
43012

> <i_f3d_flags>
0

> <s_epik_input>
W05IMl1jMW5bY0hdbihjKD1PKW4xKVtDQEBIXTJPW0NASF0oW0NIMl1bT0hdKVtDQEBIXShbT0hdKVtDQEhdMltPSF0=

> <s_epik_cmdline>
J2VwaWtfcHl0aG9uJywgJy1waCcsICc3LjAnLCAnLXRuJywgJzgnLCAnLW1hJywgJzIwMCcsICctbWV0YWxfYmluZGluZycsICctaW1hZScsICc8aW5maWxlLm1hZT4nLCAnLW9tYWUnLCAnPG91dGZpbGUubWFlPic=

> <r_lp_tautomer_probability>
7.17554e-07

> <r_epik_Ionization_Penalty>
0.0066451

> <r_epik_Ionization_Penalty_Charging>
0.00663793

> <r_epik_Ionization_Penalty_Neutral>
7.17052e-06

> <r_epik_State_Penalty>
0.419231

> <r_epik_Charging_Adjusted_Penalty>
0.425868

> <i_epik_Tot_Q>
0

> <i_epik_Tot_abs_Q>
0

> <r_epik_Metal_State_Penalty>
1.44144

> <b_epik_Metal_Only>
0

> <s_epik_Chemistry_Notes>
This compound contains an acetal/aminal-like group ( X-CH(R)-Y where X, Y are N, S, or O) that may be acid/base labile, releasing an aldehyde.

> <s_lp_Force_Field>
OPLS_2005

> <r_lp_Energy>
43.5106

> <b_lp_Chiralities_Consistent>
1

> <s_lp_Variant>
AV-unprocessed.smi:72-17

> <Gold.Version>
5.8.1

> <Gold.Id.Protein>
6NUR|6NUR_protein|mol2

> <Gold.PLP.Fitness>
38.5484

> <Gold.PLP.PLP>
-25.4338

> <Gold.PLP.part.hbond>
-6.0000

> <Gold.PLP.part.metal>
0.0000

> <Gold.PLP.part.buried>
-3.3818

> <Gold.PLP.part.nonpolar>
-18.8146

> <Gold.PLP.part.repulsive>
2.0650

> <Gold.PLP.ligand.clash>
0.0000

> <Gold.PLP.ligand.torsion>
0.6225

> <Gold.PLP.Chemscore.Hbond>
4.7840

> <Gold.PLP.Chemscore.CHOScore>
0.0000

> <Gold.PLP.Chemscore.Metal>
0.0000

> <Gold.Chemscore.Hbonds>
donor molecule, donor type, donor heavy atom, donor atom, acceptor molecule, acceptor atom, score
      L1  H     1    22       P1 10175  1.00
      L1  H    14    28       P1  8028  1.00
      L1  H    17    29       P1 10175  0.85
      P1  H  7989  7998       L1     7  1.00
      P1  H  7997  8010       L1    10  0.80

> <Gold.PLP.Chemscore.Internal.Correction>
0.0074

> <Gold.Rescore>
     Score         DG    S(hbond)    S(metal)    S(lipo)     H(rot)  DE(clash)    DE(int)     intcor
     11.09     -11.54       4.23        0.00      19.91       4.06       0.22       0.22       ----

> <Gold.Chemscore.Fitness>
11.0931

> <Gold.Chemscore.DG>
-11.5373

> <Gold.Chemscore.ZeroCoef>
-5.4800

> <Gold.Chemscore.Hbond>
4.2279

> <Gold.Chemscore.Metal>
0.0000

> <Gold.Chemscore.Lipo>
19.9128

> <Gold.Chemscore.Internal_Hbond>
0.0000

> <Gold.Chemscore.DEClash>
0.2217

> <Gold.Chemscore.DEInternal>
0.2225

> <Gold.Chemscore.Rot>
4.0600

> <Gold.Chemscore.Internal.Correction>
   9.000000E+99

> <Gold.Chemscore.Hbonds>
donor molecule, donor type, donor heavy atom, donor atom, acceptor molecule, acceptor atom, score
      L1  H     1    22       P1 10175  1.00
      L1  H    14    28       P1  8028  0.94
      L1  H    17    29       P1 10175  0.58
      P1  H  7989  7998       L1     7  0.72
      P1  H  7997  8010       L1    10  0.12

> <Gold.Chemscore.Hbond.Weighted>
-14.1211

> <Gold.Chemscore.Metal.Weighted>
-0.0000

> <Gold.Chemscore.Lipo.Weighted>
-2.3298

> <Gold.Chemscore.Internal_Hbond.Weighted>
0.0000

> <Gold.Chemscore.DEClash.Weighted>
0.2217

> <Gold.Chemscore.DEInternal.Weighted>
0.2225

> <Gold.Chemscore.Rot.Weighted>
10.3936

> <Gold.Chemscore.Internal.Correction.Weighted>
   9.000000E+99

> <Gold.Protein.RotatedTorsions>
[ 6907 6896 6895 6894 ] final   71.13 input  -60.11 | X-H torsion
[ 7974 7965 7964 7962 ] final -160.83 input  175.53 | X-H torsion
[ 8008 7997 7996 7995 ] final   95.70 input   59.86 | X-H torsion
[ 10167 10162 10161 10158 ] final  -54.67 input  -65.29 | X-H torsion
[ 10718 10713 10712 10709 ] final  142.33 input   66.30 | X-H torsion
[ 10763 10752 10751 10750 ] final  -67.18 input  -60.55 | X-H torsion
[ 11005 11000 10999 10996 ] final -113.70 input  -57.11 | X-H torsion

> <Gold.Protein.ActiveResidues>
 VAL166  LYS551  ARG553  GLY616  TRP617  ASP618  TYR619  PRO620  LYS621  CYS622 
 ASP623  PHE694  ASN695  SER759  ASP760  ASP761  ALA762  ILE779  LEU786  VAL792 
 PHE793  MET794  SER795  GLU796  ALA797  LYS798  CYS799  TRP800  GLU811  SER814 

> <Gold.Protein.RotatedAtoms>
  152.4791  134.4766  159.9652 H   0  0  0  0  0  0  0  0  0  0  0  0  # atno 6907 bound_to 6896
  151.4775  133.3548  159.2841 H   0  0  0  0  0  0  0  0  0  0  0  0  # atno 6908 bound_to 6896
  150.8851  134.8274  159.7314 H   0  0  0  0  0  0  0  0  0  0  0  0  # atno 6909 bound_to 6896
  144.7413  140.3485  143.6120 H   0  0  0  0  0  0  0  0  0  0  0  0  # atno 7974 bound_to 7965
  156.0717  140.3283  155.7584 H   0  0  0  0  0  0  0  0  0  0  0  0  # atno 8008 bound_to 7997
  155.5295  140.0592  157.2909 H   0  0  0  0  0  0  0  0  0  0  0  0  # atno 8009 bound_to 7997
  154.4533  140.1930  156.0470 H   0  0  0  0  0  0  0  0  0  0  0  0  # atno 8010 bound_to 7997
  140.6417  143.2512  151.4970 H   0  0  0  0  0  0  0  0  0  0  0  0  # atno 10167 bound_to 10162
  157.3817  131.0993  151.0732 H   0  0  0  0  0  0  0  0  0  0  0  0  # atno 10718 bound_to 10713
  154.3708  135.6095  153.5739 H   0  0  0  0  0  0  0  0  0  0  0  0  # atno 10763 bound_to 10752
  152.9790  135.5837  154.4525 H   0  0  0  0  0  0  0  0  0  0  0  0  # atno 10764 bound_to 10752
  154.4278  135.2847  155.1910 H   0  0  0  0  0  0  0  0  0  0  0  0  # atno 10765 bound_to 10752
  141.0598  133.9553  157.2687 H   0  0  0  0  0  0  0  0  0  0  0  0  # atno 11005 bound_to 11000
  145.7300  139.1733  143.2435 LP  0  0  0  0  0  0  0  0  0  0  0  0  # atno 17320 bound_to 7965
  146.1213  140.7305  142.9456 LP  0  0  0  0  0  0  0  0  0  0  0  0  # atno 17321 bound_to 7965
  139.5627  144.2118  152.1716 LP  0  0  0  0  0  0  0  0  0  0  0  0  # atno 17342 bound_to 10162
  140.1390  144.5219  150.6755 LP  0  0  0  0  0  0  0  0  0  0  0  0  # atno 17343 bound_to 10162
  157.1798  130.6304  149.5668 LP  0  0  0  0  0  0  0  0  0  0  0  0  # atno 17370 bound_to 10713
  155.9777  130.4757  150.6612 LP  0  0  0  0  0  0  0  0  0  0  0  0  # atno 17371 bound_to 10713
  139.9422  135.0189  156.8744 LP  0  0  0  0  0  0  0  0  0  0  0  0  # atno 17394 bound_to 11000
  140.5891  134.0279  155.7493 LP  0  0  0  0  0  0  0  0  0  0  0  0  # atno 17395 bound_to 11000

$$$$
