AV-unprocessed.smi:2899|AV-procd|sdf|11146|dock7
  -GOLD-   2272016 23D 1   1.00000     0.00000
 Structure written by MMmdl.
 30 32  0  0  0  0  0  0  0  0  1 V2000
  152.5183  138.6276  155.1437 C   0  0  0  0  0  0  0  0  0  0  0  0
  151.3514  139.5917  155.1278 C   0  0  0  0  0  0  0  0  0  0  0  0
  150.1840  139.3258  154.3823 C   0  0  0  0  0  0  0  0  0  0  0  0
  149.1685  140.3006  154.4507 C   0  0  0  0  0  0  0  0  0  0  0  0
  149.3091  141.4245  155.1871 N   0  0  0  0  0  0  0  0  0  0  0  0
  150.4575  141.5765  155.8517 C   0  0  0  0  0  0  0  0  0  0  0  0
  150.5674  142.7419  156.5879 N   0  0  0  0  0  0  0  0  0  0  0  0
  151.6074  143.0032  157.5756 C   0  0  1  0  0  0  0  0  0  0  0  0
  151.6774  144.4762  157.9978 C   0  0  0  0  0  0  0  0  0  0  0  0
  151.4978  144.3790  159.5180 C   0  0  2  0  0  0  0  0  0  0  0  0
  152.7107  143.7400  160.2078 C   0  0  0  0  0  0  0  0  0  0  0  0
  152.5620  142.2729  159.8051 C   0  0  0  0  0  0  0  0  0  0  0  0
  151.3104  142.3138  158.9177 C   0  0  1  0  0  0  0  0  0  0  0  0
  150.5651  143.3154  159.5916 O   0  0  0  0  0  0  0  0  0  0  0  0
  151.4851  140.7183  155.8616 N   0  0  0  0  0  0  0  0  0  0  0  0
  152.2909  137.7250  154.5757 H   0  0  0  0  0  0  0  0  0  0  0  0
  152.7557  138.3350  156.1669 H   0  0  0  0  0  0  0  0  0  0  0  0
  153.4009  139.0939  154.7049 H   0  0  0  0  0  0  0  0  0  0  0  0
  150.0697  138.4286  153.7918 H   0  0  0  0  0  0  0  0  0  0  0  0
  148.2403  140.1789  153.9124 H   0  0  0  0  0  0  0  0  0  0  0  0
  149.9610  143.5065  156.3290 H   0  0  0  0  0  0  0  0  0  0  0  0
  152.5635  142.6561  157.1813 H   0  0  0  0  0  0  0  0  0  0  0  0
  152.6202  144.9475  157.7187 H   0  0  0  0  0  0  0  0  0  0  0  0
  150.8663  145.0605  157.5602 H   0  0  0  0  0  0  0  0  0  0  0  0
  151.1604  145.3056  159.9833 H   0  0  0  0  0  0  0  0  0  0  0  0
  153.6532  144.1781  159.8776 H   0  0  0  0  0  0  0  0  0  0  0  0
  152.6437  143.8476  161.2908 H   0  0  0  0  0  0  0  0  0  0  0  0
  153.4352  141.8860  159.2785 H   0  0  0  0  0  0  0  0  0  0  0  0
  152.3913  141.6511  160.6848 H   0  0  0  0  0  0  0  0  0  0  0  0
  150.8061  141.3505  158.8317 H   0  0  0  0  0  0  0  0  0  0  0  0
  1  2  1  0  0  0  0
  1 16  1  0  0  0  0
  1 17  1  0  0  0  0
  1 18  1  0  0  0  0
  2 15  1  0  0  0  0
  2  3  2  0  0  0  0
  3  4  1  0  0  0  0
  3 19  1  0  0  0  0
  4  5  2  0  0  0  0
  4 20  1  0  0  0  0
  5  6  1  0  0  0  0
  6  7  1  0  0  0  0
  6 15  2  0  0  0  0
  7  8  1  0  0  0  0
  7 21  1  0  0  0  0
  8 13  1  0  0  0  0
  8  9  1  0  0  0  0
  8 22  1  0  0  0  0
  9 10  1  0  0  0  0
  9 23  1  0  0  0  0
  9 24  1  0  0  0  0
 10 14  1  0  0  0  0
 10 11  1  0  0  0  0
 10 25  1  0  0  0  0
 11 12  1  0  0  0  0
 11 26  1  0  0  0  0
 11 27  1  0  0  0  0
 12 13  1  0  0  0  0
 12 28  1  0  0  0  0
 12 29  1  0  0  0  0
 13 14  1  0  0  0  0
 13 30  1  0  0  0  0
M  END
> <s_m_source_file>
AV-unprocessed.smi

> <i_m_source_file_index>
2899

> <i_lp_mmshare_version>
43012

> <i_f3d_flags>
0

> <s_epik_input>
W0NIM11jMVtjSF1bY0hdbmMobjEpW05IXVtDQEhdKFtDSDJdW0NAQEhdMjMpW0NAQEhdKE8zKVtDSDJdW0NIMl0y

> <s_epik_cmdline>
J2VwaWtfcHl0aG9uJywgJy1waCcsICc3LjAnLCAnLXRuJywgJzgnLCAnLW1hJywgJzIwMCcsICctbWV0YWxfYmluZGluZycsICctaW1hZScsICc8aW5maWxlLm1hZT4nLCAnLW9tYWUnLCAnPG91dGZpbGUubWFlPic=

> <r_lp_tautomer_probability>
1

> <r_epik_Ionization_Penalty>
0.00589655

> <r_epik_Ionization_Penalty_Charging>
0

> <r_epik_Ionization_Penalty_Neutral>
0.00589655

> <r_epik_State_Penalty>
0.00375391

> <r_epik_Charging_Adjusted_Penalty>
0.00375391

> <i_epik_Tot_Q>
0

> <i_epik_Tot_abs_Q>
0

> <r_epik_Metal_State_Penalty>
-0

> <b_epik_Metal_Only>
0

> <s_lp_Force_Field>
OPLS_2005

> <r_lp_Energy>
31.4606

> <b_lp_Chiralities_Consistent>
1

> <s_lp_Variant>
AV-unprocessed.smi:2899-4

> <Gold.Version>
5.8.1

> <Gold.Id.Protein>
6NUR|6NUR_protein|mol2

> <Gold.PLP.Fitness>
40.0754

> <Gold.PLP.PLP>
-37.5431

> <Gold.PLP.part.hbond>
-2.2503

> <Gold.PLP.part.metal>
0.0000

> <Gold.PLP.part.buried>
-4.2744

> <Gold.PLP.part.nonpolar>
-31.0967

> <Gold.PLP.part.repulsive>
0.2630

> <Gold.PLP.ligand.clash>
0.0000

> <Gold.PLP.ligand.torsion>
0.2435

> <Gold.PLP.Chemscore.Hbond>
1.0000

> <Gold.PLP.Chemscore.CHOScore>
0.0000

> <Gold.PLP.Chemscore.Metal>
0.0000

> <Gold.Chemscore.Hbonds>
donor molecule, donor type, donor heavy atom, donor atom, acceptor molecule, acceptor atom, score
      L1  H     7    21       P1  8028  1.00

> <Gold.PLP.Chemscore.Internal.Correction>
0.0194

> <Gold.Rescore>
     Score         DG    S(hbond)    S(metal)    S(lipo)     H(rot)  DE(clash)    DE(int)     intcor
     17.37     -17.74       1.00        0.00      98.16       1.00       0.14       0.23       ----

> <Gold.Chemscore.Fitness>
17.3744

> <Gold.Chemscore.DG>
-17.7449

> <Gold.Chemscore.ZeroCoef>
-5.4800

> <Gold.Chemscore.Hbond>
1.0000

> <Gold.Chemscore.Metal>
0.0000

> <Gold.Chemscore.Lipo>
98.1620

> <Gold.Chemscore.Internal_Hbond>
0.0000

> <Gold.Chemscore.DEClash>
0.1363

> <Gold.Chemscore.DEInternal>
0.2343

> <Gold.Chemscore.Rot>
1.0000

> <Gold.Chemscore.Internal.Correction>
   9.000000E+99

> <Gold.Chemscore.Hbonds>
donor molecule, donor type, donor heavy atom, donor atom, acceptor molecule, acceptor atom, score
      L1  H     7    21       P1  8028  1.00

> <Gold.Chemscore.Hbond.Weighted>
-3.3399

> <Gold.Chemscore.Metal.Weighted>
-0.0000

> <Gold.Chemscore.Lipo.Weighted>
-11.4850

> <Gold.Chemscore.Internal_Hbond.Weighted>
0.0000

> <Gold.Chemscore.DEClash.Weighted>
0.1363

> <Gold.Chemscore.DEInternal.Weighted>
0.2343

> <Gold.Chemscore.Rot.Weighted>
2.5600

> <Gold.Chemscore.Internal.Correction.Weighted>
   9.000000E+99

> <Gold.Protein.RotatedTorsions>
[ 6907 6896 6895 6894 ] final -125.33 input  -60.11 | X-H torsion
[ 7974 7965 7964 7962 ] final   25.33 input  175.53 | X-H torsion
[ 8008 7997 7996 7995 ] final  163.44 input   59.86 | X-H torsion
[ 10167 10162 10161 10158 ] final   32.27 input  -65.29 | X-H torsion
[ 10718 10713 10712 10709 ] final   78.92 input   66.30 | X-H torsion
[ 10763 10752 10751 10750 ] final    7.18 input  -60.55 | X-H torsion
[ 11005 11000 10999 10996 ] final   27.47 input  -57.11 | X-H torsion

> <Gold.Protein.ActiveResidues>
 VAL166  LYS551  ARG553  GLY616  TRP617  ASP618  TYR619  PRO620  LYS621  CYS622 
 ASP623  PHE694  ASN695  SER759  ASP760  ASP761  ALA762  ILE779  LEU786  VAL792 
 PHE793  MET794  SER795  GLU796  ALA797  LYS798  CYS799  TRP800  GLU811  SER814 

> <Gold.Protein.RotatedAtoms>
  150.8857  133.7311  159.2918 H   0  0  0  0  0  0  0  0  0  0  0  0  # atno 6907 bound_to 6896
  151.4877  135.1054  159.9805 H   0  0  0  0  0  0  0  0  0  0  0  0  # atno 6908 bound_to 6896
  152.4788  133.8158  159.7083 H   0  0  0  0  0  0  0  0  0  0  0  0  # atno 6909 bound_to 6896
  146.1894  139.7481  142.8843 H   0  0  0  0  0  0  0  0  0  0  0  0  # atno 7974 bound_to 7965
  156.1957  140.1723  156.8003 H   0  0  0  0  0  0  0  0  0  0  0  0  # atno 8008 bound_to 7997
  154.5526  140.0714  156.8724 H   0  0  0  0  0  0  0  0  0  0  0  0  # atno 8009 bound_to 7997
  155.2999  140.3361  155.4250 H   0  0  0  0  0  0  0  0  0  0  0  0  # atno 8010 bound_to 7997
  140.4513  144.1044  150.6192 H   0  0  0  0  0  0  0  0  0  0  0  0  # atno 10167 bound_to 10162
  157.6760  130.9890  150.1857 H   0  0  0  0  0  0  0  0  0  0  0  0  # atno 10718 bound_to 10713
  153.2393  135.6901  153.7801 H   0  0  0  0  0  0  0  0  0  0  0  0  # atno 10763 bound_to 10752
  153.6937  135.3308  155.3209 H   0  0  0  0  0  0  0  0  0  0  0  0  # atno 10764 bound_to 10752
  154.8348  135.4551  154.1308 H   0  0  0  0  0  0  0  0  0  0  0  0  # atno 10765 bound_to 10752
  140.3259  134.2491  155.7709 H   0  0  0  0  0  0  0  0  0  0  0  0  # atno 11005 bound_to 11000
  145.3840  141.0362  143.3161 LP  0  0  0  0  0  0  0  0  0  0  0  0  # atno 17320 bound_to 7965
  144.8458  139.5400  143.6879 LP  0  0  0  0  0  0  0  0  0  0  0  0  # atno 17321 bound_to 7965
  140.4203  143.2614  151.9723 LP  0  0  0  0  0  0  0  0  0  0  0  0  # atno 17342 bound_to 10162
  139.4797  144.5836  151.7890 LP  0  0  0  0  0  0  0  0  0  0  0  0  # atno 17343 bound_to 10162
  156.2580  130.3707  149.8161 LP  0  0  0  0  0  0  0  0  0  0  0  0  # atno 17370 bound_to 10713
  156.5915  130.8508  151.3409 LP  0  0  0  0  0  0  0  0  0  0  0  0  # atno 17371 bound_to 10713
  141.2075  133.7803  157.0114 LP  0  0  0  0  0  0  0  0  0  0  0  0  # atno 17394 bound_to 11000
  140.0902  134.9597  157.1763 LP  0  0  0  0  0  0  0  0  0  0  0  0  # atno 17395 bound_to 11000

$$$$
