AV-unprocessed.smi:96|AV-procd|sdf|859|dock6
  -GOLD-   2262017303D 1   1.00000     0.00000
 Structure written by MMmdl.
 43 46  0  0  0  0  0  0  0  0  1 V2000
  151.1663  136.9226  159.8407 O   0  0  0  0  0  0  0  0  0  0  0  0
  150.6984  137.6628  158.9746 C   0  0  0  0  0  0  0  0  0  0  0  0
  151.6128  138.6041  158.1740 C   0  0  0  0  0  0  0  0  0  0  0  0
  152.1399  139.7387  158.9644 N   0  0  0  0  0  0  0  0  0  0  0  0
  153.3093  139.5410  159.7404 C   0  0  0  0  0  0  0  0  0  0  0  0
  153.8738  138.4466  159.7779 O   0  0  0  0  0  0  0  0  0  0  0  0
  153.7891  140.7117  160.4655 C   0  0  0  0  0  0  0  0  0  0  0  0
  154.9007  140.6215  161.2153 F   0  0  0  0  0  0  0  0  0  0  0  0
  153.1355  141.8892  160.3927 C   0  0  0  0  0  0  0  0  0  0  0  0
  151.9842  142.0636  159.6502 N   0  0  0  0  0  0  0  0  0  0  0  0
  151.3467  143.4325  159.5881 C   0  0  2  0  0  0  0  0  0  0  0  0
  151.5451  144.1448  158.2367 C   0  0  0  0  0  0  0  0  0  0  0  0
  152.2498  145.4324  158.6315 C   0  0  0  0  0  0  0  0  0  0  0  0
  151.8993  145.5726  160.1087 C   0  0  0  0  0  0  0  0  0  0  0  0
  151.9158  144.2334  160.5772 O   0  0  0  0  0  0  0  0  0  0  0  0
  151.4765  140.9869  158.8867 C   0  0  0  0  0  0  0  0  0  0  0  0
  150.4876  141.1301  158.1659 O   0  0  0  0  0  0  0  0  0  0  0  0
  149.3909  137.7457  158.6672 N   0  0  0  0  0  0  0  0  0  0  0  0
  148.2993  137.0184  159.2146 C   0  0  0  0  0  0  0  0  0  0  0  0
  147.0094  136.9673  158.6108 C   0  0  0  0  0  0  0  0  0  0  0  0
  145.9561  136.2421  159.2132 C   0  0  0  0  0  0  0  0  0  0  0  0
  146.2198  135.5864  160.4259 C   0  0  0  0  0  0  0  0  0  0  0  0
  147.4611  135.6444  161.0233 C   0  0  0  0  0  0  0  0  0  0  0  0
  148.5244  136.3576  160.4463 C   0  0  0  0  0  0  0  0  0  0  0  0
  147.4420  134.9362  162.1814 O   0  0  0  0  0  0  0  0  0  0  0  0
  146.1396  134.4234  162.2962 C   0  0  0  0  0  0  0  0  0  0  0  0
  145.3818  134.8397  161.1892 O   0  0  0  0  0  0  0  0  0  0  0  0
  152.4279  138.0161  157.7487 H   0  0  0  0  0  0  0  0  0  0  0  0
  151.0622  138.9584  157.3011 H   0  0  0  0  0  0  0  0  0  0  0  0
  153.5358  142.7269  160.9450 H   0  0  0  0  0  0  0  0  0  0  0  0
  150.2896  143.2831  159.8131 H   0  0  0  0  0  0  0  0  0  0  0  0
  152.1161  143.5465  157.5263 H   0  0  0  0  0  0  0  0  0  0  0  0
  150.5647  144.3496  157.8052 H   0  0  0  0  0  0  0  0  0  0  0  0
  153.3284  145.3222  158.5151 H   0  0  0  0  0  0  0  0  0  0  0  0
  151.9333  146.2903  158.0379 H   0  0  0  0  0  0  0  0  0  0  0  0
  152.6069  146.1985  160.6529 H   0  0  0  0  0  0  0  0  0  0  0  0
  150.8994  145.9913  160.2339 H   0  0  0  0  0  0  0  0  0  0  0  0
  149.1410  138.4640  158.0030 H   0  0  0  0  0  0  0  0  0  0  0  0
  146.8004  137.4907  157.6907 H   0  0  0  0  0  0  0  0  0  0  0  0
  144.9774  136.1999  158.7585 H   0  0  0  0  0  0  0  0  0  0  0  0
  149.4884  136.3922  160.9325 H   0  0  0  0  0  0  0  0  0  0  0  0
  146.1773  133.3339  162.3246 H   0  0  0  0  0  0  0  0  0  0  0  0
  145.6806  134.7939  163.2134 H   0  0  0  0  0  0  0  0  0  0  0  0
  1  2  2  0  0  0  0
  2  3  1  0  0  0  0
  2 18  1  0  0  0  0
  3  4  1  0  0  0  0
  3 28  1  0  0  0  0
  3 29  1  0  0  0  0
  4 16  1  0  0  0  0
  4  5  1  0  0  0  0
  5  6  2  0  0  0  0
  5  7  1  0  0  0  0
  7  8  1  0  0  0  0
  7  9  2  0  0  0  0
  9 10  1  0  0  0  0
  9 30  1  0  0  0  0
 10 11  1  0  0  0  0
 10 16  1  0  0  0  0
 11 15  1  0  0  0  0
 11 12  1  0  0  0  0
 11 31  1  0  0  0  0
 12 13  1  0  0  0  0
 12 32  1  0  0  0  0
 12 33  1  0  0  0  0
 13 14  1  0  0  0  0
 13 34  1  0  0  0  0
 13 35  1  0  0  0  0
 14 15  1  0  0  0  0
 14 36  1  0  0  0  0
 14 37  1  0  0  0  0
 16 17  2  0  0  0  0
 18 19  1  0  0  0  0
 18 38  1  0  0  0  0
 19 24  1  0  0  0  0
 19 20  2  0  0  0  0
 20 21  1  0  0  0  0
 20 39  1  0  0  0  0
 21 22  2  0  0  0  0
 21 40  1  0  0  0  0
 22 27  1  0  0  0  0
 22 23  1  0  0  0  0
 23 24  2  0  0  0  0
 23 25  1  0  0  0  0
 24 41  1  0  0  0  0
 25 26  1  0  0  0  0
 26 27  1  0  0  0  0
 26 42  1  0  0  0  0
 26 43  1  0  0  0  0
M  END
> <s_m_source_file>
AV-unprocessed.smi

> <i_m_source_file_index>
96

> <i_lp_mmshare_version>
43012

> <i_f3d_flags>
0

> <s_epik_input>
TzFbQ0gyXU9jKGMxMilbY0hdYyhbY0hdW2NIXTIpW05IXUMoPU8pW0NIMl1uM2MoPU8pYyhGKVtjSF1uKGMzPU8pW0NAQEhdNFtDSDJdW0NIMl1bQ0gyXU80

> <s_epik_cmdline>
J2VwaWtfcHl0aG9uJywgJy1waCcsICc3LjAnLCAnLXRuJywgJzgnLCAnLW1hJywgJzIwMCcsICctbWV0YWxfYmluZGluZycsICctaW1hZScsICc8aW5maWxlLm1hZT4nLCAnLW9tYWUnLCAnPG91dGZpbGUubWFlPic=

> <r_lp_tautomer_probability>
1

> <r_epik_Ionization_Penalty>
1.04778e-05

> <r_epik_Ionization_Penalty_Charging>
3.88729e-08

> <r_epik_Ionization_Penalty_Neutral>
1.04389e-05

> <r_epik_State_Penalty>
-0

> <r_epik_Charging_Adjusted_Penalty>
3.88729e-08

> <i_epik_Tot_Q>
0

> <i_epik_Tot_abs_Q>
0

> <r_epik_Metal_State_Penalty>
-0

> <b_epik_Metal_Only>
0

> <s_epik_Chemistry_Notes>
This compound contains an acetal/aminal-like group ( X-CH(R)-Y where X, Y are N, S, or O) that may be acid/base labile, releasing an aldehyde.

> <s_lp_Force_Field>
OPLS_2005

> <r_lp_Energy>
41.3846

> <b_lp_Chiralities_Consistent>
1

> <s_lp_Variant>
AV-unprocessed.smi:96-1

> <Gold.Version>
5.8.1

> <Gold.Id.Protein>
6NUR|6NUR_protein|mol2

> <Gold.PLP.Fitness>
48.0387

> <Gold.PLP.PLP>
-46.5090

> <Gold.PLP.part.hbond>
-1.0000

> <Gold.PLP.part.metal>
0.0000

> <Gold.PLP.part.buried>
-7.4296

> <Gold.PLP.part.nonpolar>
-39.2224

> <Gold.PLP.part.repulsive>
0.2898

> <Gold.PLP.ligand.clash>
0.0000

> <Gold.PLP.ligand.torsion>
0.7528

> <Gold.PLP.Chemscore.Hbond>
1.0000

> <Gold.PLP.Chemscore.CHOScore>
0.0000

> <Gold.PLP.Chemscore.Metal>
0.0000

> <Gold.Chemscore.Hbonds>
donor molecule, donor type, donor heavy atom, donor atom, acceptor molecule, acceptor atom, score
      P1  H  6896  6907       L1     1  1.00

> <Gold.PLP.Chemscore.Internal.Correction>
0.0353

> <Gold.Rescore>
     Score         DG    S(hbond)    S(metal)    S(lipo)     H(rot)  DE(clash)    DE(int)     intcor
     12.00     -14.17       1.00        0.00      86.25       1.85       0.04       2.14       ----

> <Gold.Chemscore.Fitness>
11.9991

> <Gold.Chemscore.DG>
-14.1740

> <Gold.Chemscore.ZeroCoef>
-5.4800

> <Gold.Chemscore.Hbond>
0.9995

> <Gold.Chemscore.Metal>
0.0000

> <Gold.Chemscore.Lipo>
86.2478

> <Gold.Chemscore.Internal_Hbond>
0.0000

> <Gold.Chemscore.DEClash>
0.0393

> <Gold.Chemscore.DEInternal>
2.1356

> <Gold.Chemscore.Rot>
1.8497

> <Gold.Chemscore.Internal.Correction>
   9.000000E+99

> <Gold.Chemscore.Hbonds>
donor molecule, donor type, donor heavy atom, donor atom, acceptor molecule, acceptor atom, score
      P1  H  6896  6907       L1     1  1.00

> <Gold.Chemscore.Hbond.Weighted>
-3.3384

> <Gold.Chemscore.Metal.Weighted>
-0.0000

> <Gold.Chemscore.Lipo.Weighted>
-10.0910

> <Gold.Chemscore.Internal_Hbond.Weighted>
0.0000

> <Gold.Chemscore.DEClash.Weighted>
0.0393

> <Gold.Chemscore.DEInternal.Weighted>
2.1356

> <Gold.Chemscore.Rot.Weighted>
4.7354

> <Gold.Chemscore.Internal.Correction.Weighted>
   9.000000E+99

> <Gold.Protein.RotatedTorsions>
[ 6907 6896 6895 6894 ] final   -8.09 input  -60.11 | X-H torsion
[ 7974 7965 7964 7962 ] final  109.78 input  175.53 | X-H torsion
[ 8008 7997 7996 7995 ] final   70.02 input   59.86 | X-H torsion
[ 10167 10162 10161 10158 ] final  -18.19 input  -65.29 | X-H torsion
[ 10718 10713 10712 10709 ] final -125.64 input   66.30 | X-H torsion
[ 10763 10752 10751 10750 ] final -122.65 input  -60.55 | X-H torsion
[ 11005 11000 10999 10996 ] final  122.97 input  -57.11 | X-H torsion

> <Gold.Protein.ActiveResidues>
 VAL166  LYS551  ARG553  GLY616  TRP617  ASP618  TYR619  PRO620  LYS621  CYS622 
 ASP623  PHE694  ASN695  SER759  ASP760  ASP761  ALA762  ILE779  LEU786  VAL792 
 PHE793  MET794  SER795  GLU796  ALA797  LYS798  CYS799  TRP800  GLU811  SER814 

> <Gold.Protein.RotatedAtoms>
  151.4392  135.1018  159.9664 H   0  0  0  0  0  0  0  0  0  0  0  0  # atno 6907 bound_to 6896
  152.4928  133.8544  159.7228 H   0  0  0  0  0  0  0  0  0  0  0  0  # atno 6908 bound_to 6896
  150.9100  133.6951  159.2885 H   0  0  0  0  0  0  0  0  0  0  0  0  # atno 6909 bound_to 6896
  145.2634  139.2693  143.4005 H   0  0  0  0  0  0  0  0  0  0  0  0  # atno 7974 bound_to 7965
  155.7324  140.3491  155.5065 H   0  0  0  0  0  0  0  0  0  0  0  0  # atno 8008 bound_to 7997
  155.9170  140.1060  157.1257 H   0  0  0  0  0  0  0  0  0  0  0  0  # atno 8009 bound_to 7997
  154.4064  140.1257  156.4617 H   0  0  0  0  0  0  0  0  0  0  0  0  # atno 8010 bound_to 7997
  140.7256  143.4941  150.9954 H   0  0  0  0  0  0  0  0  0  0  0  0  # atno 10167 bound_to 10162
  156.1693  130.6656  151.0158 H   0  0  0  0  0  0  0  0  0  0  0  0  # atno 10718 bound_to 10713
  154.8693  135.4125  154.2815 H   0  0  0  0  0  0  0  0  0  0  0  0  # atno 10763 bound_to 10752
  153.3707  135.7007  153.6645 H   0  0  0  0  0  0  0  0  0  0  0  0  # atno 10764 bound_to 10752
  153.5508  135.3629  155.2731 H   0  0  0  0  0  0  0  0  0  0  0  0  # atno 10765 bound_to 10752
  139.9292  134.9641  156.8189 H   0  0  0  0  0  0  0  0  0  0  0  0  # atno 11005 bound_to 11000
  146.3268  140.3057  142.8623 LP  0  0  0  0  0  0  0  0  0  0  0  0  # atno 17320 bound_to 7965
  144.9398  140.8066  143.5637 LP  0  0  0  0  0  0  0  0  0  0  0  0  # atno 17321 bound_to 7965
  139.8647  143.7269  152.3171 LP  0  0  0  0  0  0  0  0  0  0  0  0  # atno 17342 bound_to 10162
  139.7497  144.7537  151.0525 LP  0  0  0  0  0  0  0  0  0  0  0  0  # atno 17343 bound_to 10162
  157.6791  131.0843  150.7416 LP  0  0  0  0  0  0  0  0  0  0  0  0  # atno 17370 bound_to 10713
  156.7476  130.4758  149.5463 LP  0  0  0  0  0  0  0  0  0  0  0  0  # atno 17371 bound_to 10713
  140.6251  133.9958  155.7636 LP  0  0  0  0  0  0  0  0  0  0  0  0  # atno 17394 bound_to 11000
  141.0869  133.9976  157.3299 LP  0  0  0  0  0  0  0  0  0  0  0  0  # atno 17395 bound_to 11000

$$$$
