AV-unprocessed.smi:928|AV-procd|sdf|4193|dock1
  -GOLD-   22720 2103D 1   1.00000     0.00000
 Structure written by MMmdl.
 43 44  0  0  0  0  0  0  0  0  1 V2000
  151.2641  141.5129  157.9146 C   0  0  0  0  0  0  0  0  0  0  0  0
  150.9150  142.0868  156.5371 C   0  0  0  0  0  0  0  0  0  0  0  0
  150.1745  141.1228  155.6703 C   0  0  0  0  0  0  0  0  0  0  0  0
  150.6011  139.8944  155.2295 C   0  0  0  0  0  0  0  0  0  0  0  0
  149.6669  139.2224  154.4383 N   0  0  0  0  0  0  0  0  0  0  0  0
  148.5482  139.9282  154.2600 C   0  0  0  0  0  0  0  0  0  0  0  0
  147.3729  139.4280  153.4900 C   0  0  0  0  0  0  0  0  0  0  0  0
  146.7797  138.1486  154.1011 C   0  0  0  0  0  0  0  0  0  0  0  0
  146.9556  136.9988  153.2222 N   0  0  0  0  0  0  0  0  0  0  0  0
  146.0115  136.0867  152.9538 C   0  0  0  0  0  0  0  0  0  0  0  0
  144.8749  136.1096  153.4266 O   0  0  0  0  0  0  0  0  0  0  0  0
  146.4569  135.1461  152.1097 N   0  0  0  0  0  0  0  0  0  0  0  0
  145.6765  134.0110  151.6211 C   0  0  2  0  0  0  0  0  0  0  0  0
  146.4955  133.1304  150.6540 C   0  0  0  0  0  0  0  0  0  0  0  0
  145.6622  131.9410  150.1501 C   0  0  0  0  0  0  0  0  0  0  0  0
  144.3511  132.4086  149.4976 C   0  0  0  0  0  0  0  0  0  0  0  0
  143.5331  133.3011  150.4494 C   0  0  0  0  0  0  0  0  0  0  0  0
  144.3555  134.4924  150.9787 C   0  0  2  0  0  0  0  0  0  0  0  0
  144.6055  135.3876  149.9102 O   0  0  0  0  0  0  0  0  0  0  0  0
  148.5664  141.4778  155.0928 S   0  0  0  0  0  0  0  0  0  0  0  0
  151.8085  142.2433  158.5133 H   0  0  0  0  0  0  0  0  0  0  0  0
  151.8901  140.6248  157.8225 H   0  0  0  0  0  0  0  0  0  0  0  0
  150.3656  141.2340  158.4658 H   0  0  0  0  0  0  0  0  0  0  0  0
  150.3177  142.9904  156.6633 H   0  0  0  0  0  0  0  0  0  0  0  0
  151.8308  142.3991  156.0345 H   0  0  0  0  0  0  0  0  0  0  0  0
  151.5490  139.4195  155.4355 H   0  0  0  0  0  0  0  0  0  0  0  0
  146.6189  140.2154  153.4575 H   0  0  0  0  0  0  0  0  0  0  0  0
  147.6824  139.2496  152.4593 H   0  0  0  0  0  0  0  0  0  0  0  0
  147.2278  137.9471  155.0756 H   0  0  0  0  0  0  0  0  0  0  0  0
  145.7110  138.2806  154.2724 H   0  0  0  0  0  0  0  0  0  0  0  0
  147.8593  136.8930  152.7852 H   0  0  0  0  0  0  0  0  0  0  0  0
  147.4081  135.2172  151.7807 H   0  0  0  0  0  0  0  0  0  0  0  0
  145.4057  133.3968  152.4825 H   0  0  0  0  0  0  0  0  0  0  0  0
  146.8390  133.7235  149.8055 H   0  0  0  0  0  0  0  0  0  0  0  0
  147.3919  132.7578  151.1513 H   0  0  0  0  0  0  0  0  0  0  0  0
  146.2439  131.3559  149.4372 H   0  0  0  0  0  0  0  0  0  0  0  0
  145.4362  131.2758  150.9843 H   0  0  0  0  0  0  0  0  0  0  0  0
  144.5749  132.9556  148.5810 H   0  0  0  0  0  0  0  0  0  0  0  0
  143.7570  131.5443  149.2000 H   0  0  0  0  0  0  0  0  0  0  0  0
  142.6316  133.6557  149.9482 H   0  0  0  0  0  0  0  0  0  0  0  0
  143.1937  132.6999  151.2938 H   0  0  0  0  0  0  0  0  0  0  0  0
  143.7649  135.0293  151.7220 H   0  0  0  0  0  0  0  0  0  0  0  0
  145.0162  134.9089  149.2072 H   0  0  0  0  0  0  0  0  0  0  0  0
  1  2  1  0  0  0  0
  1 21  1  0  0  0  0
  1 22  1  0  0  0  0
  1 23  1  0  0  0  0
  2  3  1  0  0  0  0
  2 24  1  0  0  0  0
  2 25  1  0  0  0  0
  3 20  1  0  0  0  0
  3  4  2  0  0  0  0
  4  5  1  0  0  0  0
  4 26  1  0  0  0  0
  5  6  2  0  0  0  0
  6  7  1  0  0  0  0
  6 20  1  0  0  0  0
  7  8  1  0  0  0  0
  7 27  1  0  0  0  0
  7 28  1  0  0  0  0
  8  9  1  0  0  0  0
  8 29  1  0  0  0  0
  8 30  1  0  0  0  0
  9 10  1  0  0  0  0
  9 31  1  0  0  0  0
 10 11  2  0  0  0  0
 10 12  1  0  0  0  0
 12 13  1  0  0  0  0
 12 32  1  0  0  0  0
 13 18  1  0  0  0  0
 13 14  1  0  0  0  0
 13 33  1  0  0  0  0
 14 15  1  0  0  0  0
 14 34  1  0  0  0  0
 14 35  1  0  0  0  0
 15 16  1  0  0  0  0
 15 36  1  0  0  0  0
 15 37  1  0  0  0  0
 16 17  1  0  0  0  0
 16 38  1  0  0  0  0
 16 39  1  0  0  0  0
 17 18  1  0  0  0  0
 17 40  1  0  0  0  0
 17 41  1  0  0  0  0
 18 19  1  0  0  0  0
 18 42  1  0  0  0  0
 19 43  1  0  0  0  0
M  END
> <s_m_source_file>
AV-unprocessed.smi

> <i_m_source_file_index>
928

> <i_lp_mmshare_version>
43012

> <i_f3d_flags>
0

> <s_epik_input>
W0NIM11bQ0gyXWMxW2NIXW5jKHMxKVtDSDJdW0NIMl1bTkhdQyg9TylbTkhdW0NAQEhdMltDSDJdW0NIMl1bQ0gyXVtDSDJdW0NASF0yW09IXQ==

> <s_epik_cmdline>
J2VwaWtfcHl0aG9uJywgJy1waCcsICc3LjAnLCAnLXRuJywgJzgnLCAnLW1hJywgJzIwMCcsICctbWV0YWxfYmluZGluZycsICctaW1hZScsICc8aW5maWxlLm1hZT4nLCAnLW9tYWUnLCAnPG91dGZpbGUubWFlPic=

> <r_epik_Ionization_Penalty>
0.000957396

> <r_epik_Ionization_Penalty_Charging>
0

> <r_epik_Ionization_Penalty_Neutral>
0.000957396

> <r_epik_State_Penalty>
0.000586538

> <r_epik_Charging_Adjusted_Penalty>
0.000586538

> <i_epik_Tot_Q>
0

> <i_epik_Tot_abs_Q>
0

> <r_epik_Metal_State_Penalty>
-0

> <b_epik_Metal_Only>
0

> <s_lp_Force_Field>
OPLS_2005

> <r_lp_Energy>
-0.721606

> <b_lp_Chiralities_Consistent>
1

> <s_lp_Variant>
AV-unprocessed.smi:928-3

> <Gold.Version>
5.8.1

> <Gold.Id.Protein>
6NUR|6NUR_protein|mol2

> <Gold.PLP.Fitness>
44.2585

> <Gold.PLP.PLP>
-36.4781

> <Gold.PLP.part.hbond>
-3.1472

> <Gold.PLP.part.metal>
0.0000

> <Gold.PLP.part.buried>
-2.3880

> <Gold.PLP.part.nonpolar>
-31.6135

> <Gold.PLP.part.repulsive>
0.2860

> <Gold.PLP.ligand.clash>
0.0000

> <Gold.PLP.ligand.torsion>
0.4907

> <Gold.PLP.Chemscore.Hbond>
2.9120

> <Gold.PLP.Chemscore.CHOScore>
0.0000

> <Gold.PLP.Chemscore.Metal>
0.0000

> <Gold.Chemscore.Hbonds>
donor molecule, donor type, donor heavy atom, donor atom, acceptor molecule, acceptor atom, score
      L1  H     9    31       P1  7948  1.00
      L1  H    12    32       P1  7948  0.93
      L1  H    19    43       P1  7921  1.00

> <Gold.PLP.Chemscore.Internal.Correction>
0.0258

> <Gold.Rescore>
     Score         DG    S(hbond)    S(metal)    S(lipo)     H(rot)  DE(clash)    DE(int)     intcor
     18.49     -20.35       2.67        0.00      99.14       2.21       0.33       1.53       ----

> <Gold.Chemscore.Fitness>
18.4872

> <Gold.Chemscore.DG>
-20.3461

> <Gold.Chemscore.ZeroCoef>
-5.4800

> <Gold.Chemscore.Hbond>
2.6707

> <Gold.Chemscore.Metal>
0.0000

> <Gold.Chemscore.Lipo>
99.1420

> <Gold.Chemscore.Internal_Hbond>
0.0000

> <Gold.Chemscore.DEClash>
0.3277

> <Gold.Chemscore.DEInternal>
1.5313

> <Gold.Chemscore.Rot>
2.2084

> <Gold.Chemscore.Internal.Correction>
   9.000000E+99

> <Gold.Chemscore.Hbonds>
donor molecule, donor type, donor heavy atom, donor atom, acceptor molecule, acceptor atom, score
      L1  H     9    31       P1  7948  0.96
      L1  H    12    32       P1  7948  0.85
      L1  H    19    43       P1  7921  0.96

> <Gold.Chemscore.Hbond.Weighted>
-8.9200

> <Gold.Chemscore.Metal.Weighted>
-0.0000

> <Gold.Chemscore.Lipo.Weighted>
-11.5996

> <Gold.Chemscore.Internal_Hbond.Weighted>
0.0000

> <Gold.Chemscore.DEClash.Weighted>
0.3277

> <Gold.Chemscore.DEInternal.Weighted>
1.5313

> <Gold.Chemscore.Rot.Weighted>
5.6535

> <Gold.Chemscore.Internal.Correction.Weighted>
   9.000000E+99

> <Gold.Protein.RotatedTorsions>
[ 6907 6896 6895 6894 ] final  -52.65 input  -60.11 | X-H torsion
[ 7974 7965 7964 7962 ] final -148.00 input  175.53 | X-H torsion
[ 8008 7997 7996 7995 ] final  158.47 input   59.86 | X-H torsion
[ 10167 10162 10161 10158 ] final    5.86 input  -65.29 | X-H torsion
[ 10718 10713 10712 10709 ] final   19.46 input   66.30 | X-H torsion
[ 10763 10752 10751 10750 ] final   87.07 input  -60.55 | X-H torsion
[ 11005 11000 10999 10996 ] final -113.29 input  -57.11 | X-H torsion

> <Gold.Protein.ActiveResidues>
 VAL166  LYS551  ARG553  GLY616  TRP617  ASP618  TYR619  PRO620  LYS621  CYS622 
 ASP623  PHE694  ASN695  SER759  ASP760  ASP761  ALA762  ILE779  LEU786  VAL792 
 PHE793  MET794  SER795  GLU796  ALA797  LYS798  CYS799  TRP800  GLU811  SER814 

> <Gold.Protein.RotatedAtoms>
  150.8498  134.7819  159.6999 H   0  0  0  0  0  0  0  0  0  0  0  0  # atno 6907 bound_to 6896
  152.4566  134.5275  159.9811 H   0  0  0  0  0  0  0  0  0  0  0  0  # atno 6908 bound_to 6896
  151.5398  133.3397  159.2969 H   0  0  0  0  0  0  0  0  0  0  0  0  # atno 6909 bound_to 6896
  144.8057  140.5254  143.5676 H   0  0  0  0  0  0  0  0  0  0  0  0  # atno 7974 bound_to 7965
  156.2300  140.1857  156.7265 H   0  0  0  0  0  0  0  0  0  0  0  0  # atno 8008 bound_to 7997
  154.6007  140.0636  156.9392 H   0  0  0  0  0  0  0  0  0  0  0  0  # atno 8009 bound_to 7997
  155.2180  140.3305  155.4322 H   0  0  0  0  0  0  0  0  0  0  0  0  # atno 8010 bound_to 7997
  140.6459  143.7663  150.7498 H   0  0  0  0  0  0  0  0  0  0  0  0  # atno 10167 bound_to 10162
  157.1108  130.6508  149.5897 H   0  0  0  0  0  0  0  0  0  0  0  0  # atno 10718 bound_to 10713
  153.1632  135.4557  154.9801 H   0  0  0  0  0  0  0  0  0  0  0  0  # atno 10763 bound_to 10752
  154.7913  135.3221  154.7774 H   0  0  0  0  0  0  0  0  0  0  0  0  # atno 10764 bound_to 10752
  153.8260  135.6942  153.4875 H   0  0  0  0  0  0  0  0  0  0  0  0  # atno 10765 bound_to 10752
  141.0623  133.9515  157.2644 H   0  0  0  0  0  0  0  0  0  0  0  0  # atno 11005 bound_to 11000
  145.5444  139.1475  143.3429 LP  0  0  0  0  0  0  0  0  0  0  0  0  # atno 17320 bound_to 7965
  146.2348  140.5583  142.8959 LP  0  0  0  0  0  0  0  0  0  0  0  0  # atno 17321 bound_to 7965
  140.1304  143.4531  152.2258 LP  0  0  0  0  0  0  0  0  0  0  0  0  # atno 17342 bound_to 10162
  139.5670  144.7441  151.3995 LP  0  0  0  0  0  0  0  0  0  0  0  0  # atno 17343 bound_to 10162
  155.9851  130.4879  150.7015 LP  0  0  0  0  0  0  0  0  0  0  0  0  # atno 17370 bound_to 10713
  157.4561  131.0878  151.0795 LP  0  0  0  0  0  0  0  0  0  0  0  0  # atno 17371 bound_to 10713
  139.9444  135.0186  156.8807 LP  0  0  0  0  0  0  0  0  0  0  0  0  # atno 17394 bound_to 11000
  140.5844  134.0322  155.7476 LP  0  0  0  0  0  0  0  0  0  0  0  0  # atno 17395 bound_to 11000

$$$$
