AV-unprocessed.smi:1040|AV-procd|sdf|4526|dock4
  -GOLD-   22720 2543D 1   1.00000     0.00000
 Structure written by MMmdl.
 55 56  0  0  0  0  0  0  0  0  2 V2000
  142.9612  137.0293  159.2423 C   0  0  0  0  0  0  0  0  0  0  0  0
  143.7342  137.8926  160.2526 C   0  0  2  0  0  0  0  0  0  0  0  0
  143.9467  139.2378  159.7224 N   0  0  0  0  0  0  0  0  0  0  0  0
  144.4572  140.2751  160.3997 C   0  0  0  0  0  0  0  0  0  0  0  0
  144.7784  140.2255  161.5870 O   0  0  0  0  0  0  0  0  0  0  0  0
  144.5874  141.3518  159.6076 N   0  0  0  0  0  0  0  0  0  0  0  0
  145.1765  142.6058  159.9304 C   0  0  0  0  0  0  0  0  0  0  0  0
  145.2300  143.1051  161.2562 C   0  0  0  0  0  0  0  0  0  0  0  0
  145.8123  144.3644  161.5036 C   0  0  0  0  0  0  0  0  0  0  0  0
  146.3236  145.1077  160.4232 C   0  0  0  0  0  0  0  0  0  0  0  0
  146.2432  144.6111  159.1709 N   0  3  0  0  0  0  0  0  0  0  0  0
  145.6924  143.4072  158.8809 C   0  0  0  0  0  0  0  0  0  0  0  0
  145.6587  142.9872  157.5415 N   0  0  0  0  0  0  0  0  0  0  0  0
  145.0332  143.9555  156.6448 C   0  0  0  0  0  0  0  0  0  0  0  0
  144.8135  143.3423  155.2509 C   0  0  0  0  0  0  0  0  0  0  0  0
  146.1272  142.7782  154.6855 C   0  0  0  0  0  0  0  0  0  0  0  0
  146.7567  141.7916  155.6828 C   0  0  0  0  0  0  0  0  0  0  0  0
  146.9279  142.4425  157.0664 C   0  0  0  0  0  0  0  0  0  0  0  0
  145.0607  137.2679  160.6995 C   0  0  0  0  0  0  0  0  0  0  0  0
  146.1295  137.7910  160.3812 O   0  0  0  0  0  0  0  0  0  0  0  0
  144.9662  136.1386  161.4243 N   0  0  0  0  0  0  0  0  0  0  0  0
  146.0476  135.3177  161.9823 C   0  0  0  0  0  0  0  0  0  0  0  0
  146.9493  134.9066  160.8050 C   0  0  0  0  0  0  0  0  0  0  0  0
  145.4803  134.0454  162.6470 C   0  0  0  0  0  0  0  0  0  0  0  0
  146.8830  136.1321  162.9918 C   0  0  0  0  0  0  0  0  0  0  0  0
  142.7923  136.0241  159.6300 H   0  0  0  0  0  0  0  0  0  0  0  0
  143.5065  136.9350  158.3023 H   0  0  0  0  0  0  0  0  0  0  0  0
  141.9847  137.4604  159.0191 H   0  0  0  0  0  0  0  0  0  0  0  0
  143.1182  137.9805  161.1501 H   0  0  0  0  0  0  0  0  0  0  0  0
  143.7135  139.3730  158.7492 H   0  0  0  0  0  0  0  0  0  0  0  0
  144.3556  141.2163  158.6342 H   0  0  0  0  0  0  0  0  0  0  0  0
  144.8216  142.5480  162.0857 H   0  0  0  0  0  0  0  0  0  0  0  0
  145.8611  144.7566  162.5091 H   0  0  0  0  0  0  0  0  0  0  0  0
  146.7849  146.0799  160.5210 H   0  0  0  0  0  0  0  0  0  0  0  0
  144.0791  144.2816  157.0613 H   0  0  0  0  0  0  0  0  0  0  0  0
  145.6672  144.8398  156.5653 H   0  0  0  0  0  0  0  0  0  0  0  0
  144.0723  142.5445  155.3159 H   0  0  0  0  0  0  0  0  0  0  0  0
  144.4034  144.0912  154.5727 H   0  0  0  0  0  0  0  0  0  0  0  0
  145.9462  142.2850  153.7300 H   0  0  0  0  0  0  0  0  0  0  0  0
  146.8228  143.5949  154.4887 H   0  0  0  0  0  0  0  0  0  0  0  0
  146.1229  140.9080  155.7717 H   0  0  0  0  0  0  0  0  0  0  0  0
  147.7212  141.4450  155.3104 H   0  0  0  0  0  0  0  0  0  0  0  0
  147.6688  143.2412  157.0101 H   0  0  0  0  0  0  0  0  0  0  0  0
  147.3027  141.7062  157.7788 H   0  0  0  0  0  0  0  0  0  0  0  0
  144.0315  135.8059  161.6133 H   0  0  0  0  0  0  0  0  0  0  0  0
  147.7838  134.2899  161.1408 H   0  0  0  0  0  0  0  0  0  0  0  0
  147.3691  135.7785  160.3012 H   0  0  0  0  0  0  0  0  0  0  0  0
  146.3962  134.3313  160.0612 H   0  0  0  0  0  0  0  0  0  0  0  0
  144.8579  133.4785  161.9537 H   0  0  0  0  0  0  0  0  0  0  0  0
  144.8739  134.2749  163.5231 H   0  0  0  0  0  0  0  0  0  0  0  0
  146.2822  133.3860  162.9807 H   0  0  0  0  0  0  0  0  0  0  0  0
  147.7417  135.5584  163.3418 H   0  0  0  0  0  0  0  0  0  0  0  0
  146.3056  136.4108  163.8731 H   0  0  0  0  0  0  0  0  0  0  0  0
  147.2638  137.0503  162.5429 H   0  0  0  0  0  0  0  0  0  0  0  0
  146.6163  145.1712  158.4042 H   0  0  0  0  0  0  0  0  0  0  0  0
  1  2  1  0  0  0  0
  1 26  1  0  0  0  0
  1 27  1  0  0  0  0
  1 28  1  0  0  0  0
  2  3  1  0  0  0  0
  2 19  1  0  0  0  0
  2 29  1  0  0  0  0
  3  4  1  0  0  0  0
  3 30  1  0  0  0  0
  4  5  2  0  0  0  0
  4  6  1  0  0  0  0
  6  7  1  0  0  0  0
  6 31  1  0  0  0  0
  7 12  1  0  0  0  0
  7  8  2  0  0  0  0
  8  9  1  0  0  0  0
  8 32  1  0  0  0  0
  9 10  2  0  0  0  0
  9 33  1  0  0  0  0
 10 11  1  0  0  0  0
 10 34  1  0  0  0  0
 11 12  2  0  0  0  0
 11 55  1  0  0  0  0
 12 13  1  0  0  0  0
 13 18  1  0  0  0  0
 13 14  1  0  0  0  0
 14 15  1  0  0  0  0
 14 35  1  0  0  0  0
 14 36  1  0  0  0  0
 15 16  1  0  0  0  0
 15 37  1  0  0  0  0
 15 38  1  0  0  0  0
 16 17  1  0  0  0  0
 16 39  1  0  0  0  0
 16 40  1  0  0  0  0
 17 18  1  0  0  0  0
 17 41  1  0  0  0  0
 17 42  1  0  0  0  0
 18 43  1  0  0  0  0
 18 44  1  0  0  0  0
 19 20  2  0  0  0  0
 19 21  1  0  0  0  0
 21 22  1  0  0  0  0
 21 45  1  0  0  0  0
 22 23  1  0  0  0  0
 22 24  1  0  0  0  0
 22 25  1  0  0  0  0
 23 46  1  0  0  0  0
 23 47  1  0  0  0  0
 23 48  1  0  0  0  0
 24 49  1  0  0  0  0
 24 50  1  0  0  0  0
 24 51  1  0  0  0  0
 25 52  1  0  0  0  0
 25 53  1  0  0  0  0
 25 54  1  0  0  0  0
M  CHG  1  11   1
M  END
> <s_m_source_file>
AV-unprocessed.smi

> <i_m_source_file_index>
1040

> <i_lp_mmshare_version>
43012

> <i_f3d_flags>
0

> <s_epik_input>
W0NIM11DKFtDSDNdKShbQ0gzXSlbTkhdQyg9TylbQ0BIXShbQ0gzXSlbTkhdQyg9TylbTkhdYzFbY0hdW2NIXVtjSF1uYzFOMltDSDJdW0NIMl1bQ0gyXVtDSDJdW0NIMl0y

> <s_epik_cmdline>
J2VwaWtfcHl0aG9uJywgJy1waCcsICc3LjAnLCAnLXRuJywgJzgnLCAnLW1hJywgJzIwMCcsICctbWV0YWxfYmluZGluZycsICctaW1hZScsICc8aW5maWxlLm1hZT4nLCAnLW9tYWUnLCAnPG91dGZpbGUubWFlPic=

> <r_lp_tautomer_probability>
0.999994

> <r_epik_Ionization_Penalty>
1.20468

> <r_epik_Ionization_Penalty_Charging>
1.20466

> <r_epik_Ionization_Penalty_Neutral>
1.88859e-05

> <r_epik_State_Penalty>
1.27057

> <r_epik_Charging_Adjusted_Penalty>
2.47523

> <i_epik_Tot_Q>
1

> <i_epik_Tot_abs_Q>
1

> <r_epik_Metal_State_Penalty>
1.34448

> <b_epik_Metal_Only>
0

> <s_lp_Force_Field>
OPLS_2005

> <r_lp_Energy>
28.5731

> <b_lp_Chiralities_Consistent>
1

> <s_lp_Variant>
AV-unprocessed.smi:1040-3

> <Gold.Version>
5.8.1

> <Gold.Id.Protein>
6NUR|6NUR_protein|mol2

> <Gold.PLP.Fitness>
43.0159

> <Gold.PLP.PLP>
-35.0645

> <Gold.PLP.part.hbond>
-4.6040

> <Gold.PLP.part.metal>
0.0000

> <Gold.PLP.part.buried>
-3.6720

> <Gold.PLP.part.nonpolar>
-27.3702

> <Gold.PLP.part.repulsive>
0.3977

> <Gold.PLP.ligand.clash>
0.0000

> <Gold.PLP.ligand.torsion>
0.6811

> <Gold.PLP.Chemscore.Hbond>
3.0000

> <Gold.PLP.Chemscore.CHOScore>
0.0000

> <Gold.PLP.Chemscore.Metal>
0.0000

> <Gold.Chemscore.Hbonds>
donor molecule, donor type, donor heavy atom, donor atom, acceptor molecule, acceptor atom, score
      L1  H    11    55       P1  8029  2.00
      P1  H  6934  6947       L1    20  1.00

> <Gold.PLP.Chemscore.Internal.Correction>
0.3136

> <Gold.Rescore>
     Score         DG    S(hbond)    S(metal)    S(lipo)     H(rot)  DE(clash)    DE(int)     intcor
     10.84     -15.71       1.92        0.00      68.54       1.64       2.73       2.13       ----

> <Gold.Chemscore.Fitness>
10.8444

> <Gold.Chemscore.DG>
-15.7069

> <Gold.Chemscore.ZeroCoef>
-5.4800

> <Gold.Chemscore.Hbond>
1.9202

> <Gold.Chemscore.Metal>
0.0000

> <Gold.Chemscore.Lipo>
68.5378

> <Gold.Chemscore.Internal_Hbond>
0.0000

> <Gold.Chemscore.DEClash>
2.7330

> <Gold.Chemscore.DEInternal>
2.1295

> <Gold.Chemscore.Rot>
1.6428

> <Gold.Chemscore.Internal.Correction>
   9.000000E+99

> <Gold.Chemscore.Hbonds>
donor molecule, donor type, donor heavy atom, donor atom, acceptor molecule, acceptor atom, score
      L1  H    11    55       P1  8029  0.99
      P1  H  6934  6947       L1    20  0.99

> <Gold.Chemscore.Hbond.Weighted>
-6.4134

> <Gold.Chemscore.Metal.Weighted>
-0.0000

> <Gold.Chemscore.Lipo.Weighted>
-8.0189

> <Gold.Chemscore.Internal_Hbond.Weighted>
0.0000

> <Gold.Chemscore.DEClash.Weighted>
2.7330

> <Gold.Chemscore.DEInternal.Weighted>
2.1295

> <Gold.Chemscore.Rot.Weighted>
4.2055

> <Gold.Chemscore.Internal.Correction.Weighted>
   9.000000E+99

> <Gold.Protein.RotatedTorsions>
[ 6907 6896 6895 6894 ] final  165.76 input  -60.11 | X-H torsion
[ 7974 7965 7964 7962 ] final   -5.12 input  175.53 | X-H torsion
[ 8008 7997 7996 7995 ] final   59.00 input   59.86 | X-H torsion
[ 10167 10162 10161 10158 ] final -169.64 input  -65.29 | X-H torsion
[ 10718 10713 10712 10709 ] final -128.25 input   66.30 | X-H torsion
[ 10763 10752 10751 10750 ] final  120.11 input  -60.55 | X-H torsion
[ 11005 11000 10999 10996 ] final   81.17 input  -57.11 | X-H torsion

> <Gold.Protein.ActiveResidues>
 VAL166  LYS551  ARG553  GLY616  TRP617  ASP618  TYR619  PRO620  LYS621  CYS622 
 ASP623  PHE694  ASN695  SER759  ASP760  ASP761  ALA762  ILE779  LEU786  VAL792 
 PHE793  MET794  SER795  GLU796  ALA797  LYS798  CYS799  TRP800  GLU811  SER814 

> <Gold.Protein.RotatedAtoms>
  151.8894  133.3513  159.3793 H   0  0  0  0  0  0  0  0  0  0  0  0  # atno 6907 bound_to 6896
  150.7107  134.4938  159.5538 H   0  0  0  0  0  0  0  0  0  0  0  0  # atno 6908 bound_to 6896
  152.2506  134.8137  160.0497 H   0  0  0  0  0  0  0  0  0  0  0  0  # atno 6909 bound_to 6896
  146.2359  140.1974  142.8333 H   0  0  0  0  0  0  0  0  0  0  0  0  # atno 7974 bound_to 7965
  155.5592  140.3488  155.4487 H   0  0  0  0  0  0  0  0  0  0  0  0  # atno 8008 bound_to 7997
  156.0527  140.1321  157.0058 H   0  0  0  0  0  0  0  0  0  0  0  0  # atno 8009 bound_to 7997
  154.4442  140.1001  156.6385 H   0  0  0  0  0  0  0  0  0  0  0  0  # atno 8010 bound_to 7997
  139.5910  144.1213  152.1634 H   0  0  0  0  0  0  0  0  0  0  0  0  # atno 10167 bound_to 10162
  156.1933  130.6810  151.0451 H   0  0  0  0  0  0  0  0  0  0  0  0  # atno 10718 bound_to 10713
  153.5935  135.3461  155.2919 H   0  0  0  0  0  0  0  0  0  0  0  0  # atno 10763 bound_to 10752
  154.8648  135.4210  154.2490 H   0  0  0  0  0  0  0  0  0  0  0  0  # atno 10764 bound_to 10752
  153.3303  135.7044  153.7025 H   0  0  0  0  0  0  0  0  0  0  0  0  # atno 10765 bound_to 10752
  139.9108  134.7976  156.2006 H   0  0  0  0  0  0  0  0  0  0  0  0  # atno 11005 bound_to 11000
  144.9809  140.8458  143.5397 LP  0  0  0  0  0  0  0  0  0  0  0  0  # atno 17320 bound_to 7965
  145.1967  139.2273  143.5214 LP  0  0  0  0  0  0  0  0  0  0  0  0  # atno 17321 bound_to 7965
  140.0787  144.5719  150.7138 LP  0  0  0  0  0  0  0  0  0  0  0  0  # atno 17342 bound_to 10162
  140.7173  143.2556  151.4392 LP  0  0  0  0  0  0  0  0  0  0  0  0  # atno 17343 bound_to 10162
  157.6942  131.0799  150.7017 LP  0  0  0  0  0  0  0  0  0  0  0  0  # atno 17370 bound_to 10713
  156.7074  130.4641  149.5556 LP  0  0  0  0  0  0  0  0  0  0  0  0  # atno 17371 bound_to 10713
  141.0527  133.6880  156.1802 LP  0  0  0  0  0  0  0  0  0  0  0  0  # atno 17394 bound_to 11000
  140.6785  134.4792  157.5588 LP  0  0  0  0  0  0  0  0  0  0  0  0  # atno 17395 bound_to 11000

$$$$
