AV-unprocessed.smi:709|AV-procd|sdf|3459|dock7
  -GOLD-   22720 0443D 1   1.00000     0.00000
 Structure written by MMmdl.
 48 50  0  0  0  0  0  0  0  0  1 V2000
  144.4638  132.1521  149.6410 C   0  0  0  0  0  0  0  0  0  0  0  0
  144.4622  131.5107  151.0302 C   0  0  0  0  0  0  0  0  0  0  0  0
  145.7200  131.7428  151.6408 O   0  0  0  0  0  0  0  0  0  0  0  0
  145.6371  132.5976  152.7696 C   0  0  1  0  0  0  0  0  0  0  0  0
  146.9897  133.0867  153.2991 C   0  0  0  0  0  0  0  0  0  0  0  0
  146.2731  134.4093  153.5746 C   0  0  1  0  0  0  0  0  0  0  0  0
  147.1226  135.5731  153.3467 N   0  0  0  0  0  0  0  0  0  0  0  0
  146.9533  136.7606  153.9428 C   0  0  0  0  0  0  0  0  0  0  0  0
  146.0750  136.9759  154.7778 O   0  0  0  0  0  0  0  0  0  0  0  0
  147.8633  137.6510  153.5081 N   0  0  0  0  0  0  0  0  0  0  0  0
  148.0030  139.0106  153.8366 C   0  0  0  0  0  0  0  0  0  0  0  0
  147.1225  139.9812  153.4844 C   0  0  0  0  0  0  0  0  0  0  0  0
  147.3488  141.3579  153.8537 C   0  0  0  0  0  0  0  0  0  0  0  0
  148.4579  141.6583  154.5434 C   0  0  0  0  0  0  0  0  0  0  0  0
  149.3902  140.6715  154.9071 N   0  0  0  0  0  0  0  0  0  0  0  0
  150.5729  141.1003  155.6584 C   0  0  0  0  0  0  0  0  0  0  0  0
  149.2259  139.3529  154.5887 C   0  0  0  0  0  0  0  0  0  0  0  0
  150.0617  138.5079  154.9195 O   0  0  0  0  0  0  0  0  0  0  0  0
  145.3024  134.0657  152.4108 C   0  0  0  0  0  0  0  0  0  0  0  0
  143.8538  134.5212  152.5539 C   0  0  0  0  0  0  0  0  0  0  0  0
  143.6941  135.8168  151.7506 C   0  0  0  0  0  0  0  0  0  0  0  0
  144.8633  135.8520  150.7622 C   0  0  0  0  0  0  0  0  0  0  0  0
  145.6428  134.5557  150.9949 C   0  0  0  0  0  0  0  0  0  0  0  0
  143.5073  132.0009  149.1406 H   0  0  0  0  0  0  0  0  0  0  0  0
  145.2430  131.7204  149.0126 H   0  0  0  0  0  0  0  0  0  0  0  0
  144.6419  133.2258  149.7059 H   0  0  0  0  0  0  0  0  0  0  0  0
  143.6645  131.9407  151.6378 H   0  0  0  0  0  0  0  0  0  0  0  0
  144.2725  130.4398  150.9452 H   0  0  0  0  0  0  0  0  0  0  0  0
  144.9865  132.2096  153.5574 H   0  0  0  0  0  0  0  0  0  0  0  0
  147.3481  132.5658  154.1872 H   0  0  0  0  0  0  0  0  0  0  0  0
  147.7570  133.1498  152.5250 H   0  0  0  0  0  0  0  0  0  0  0  0
  145.7836  134.3993  154.5519 H   0  0  0  0  0  0  0  0  0  0  0  0
  147.8709  135.4724  152.6767 H   0  0  0  0  0  0  0  0  0  0  0  0
  148.5677  137.2991  152.8759 H   0  0  0  0  0  0  0  0  0  0  0  0
  146.2387  139.7651  152.9062 H   0  0  0  0  0  0  0  0  0  0  0  0
  146.6405  142.1267  153.5820 H   0  0  0  0  0  0  0  0  0  0  0  0
  148.6978  142.6637  154.8575 H   0  0  0  0  0  0  0  0  0  0  0  0
  151.4855  140.8459  155.1169 H   0  0  0  0  0  0  0  0  0  0  0  0
  150.6064  140.6086  156.6318 H   0  0  0  0  0  0  0  0  0  0  0  0
  150.5917  142.1759  155.8371 H   0  0  0  0  0  0  0  0  0  0  0  0
  143.1865  133.7599  152.1479 H   0  0  0  0  0  0  0  0  0  0  0  0
  143.5655  134.6667  153.5955 H   0  0  0  0  0  0  0  0  0  0  0  0
  142.7305  135.8492  151.2412 H   0  0  0  0  0  0  0  0  0  0  0  0
  143.7419  136.6824  152.4121 H   0  0  0  0  0  0  0  0  0  0  0  0
  144.5241  135.9348  149.7292 H   0  0  0  0  0  0  0  0  0  0  0  0
  145.4962  136.7160  150.9671 H   0  0  0  0  0  0  0  0  0  0  0  0
  146.7116  134.6967  150.8331 H   0  0  0  0  0  0  0  0  0  0  0  0
  145.3164  133.8220  150.2571 H   0  0  0  0  0  0  0  0  0  0  0  0
  1  2  1  0  0  0  0
  1 24  1  0  0  0  0
  1 25  1  0  0  0  0
  1 26  1  0  0  0  0
  2  3  1  0  0  0  0
  2 27  1  0  0  0  0
  2 28  1  0  0  0  0
  3  4  1  0  0  0  0
  4 19  1  0  0  0  0
  4  5  1  0  0  0  0
  4 29  1  0  0  0  0
  5  6  1  0  0  0  0
  5 30  1  0  0  0  0
  5 31  1  0  0  0  0
  6  7  1  0  0  0  0
  6 19  1  0  0  0  0
  6 32  1  0  0  0  0
  7  8  1  0  0  0  0
  7 33  1  0  0  0  0
  8  9  2  0  0  0  0
  8 10  1  0  0  0  0
 10 11  1  0  0  0  0
 10 34  1  0  0  0  0
 11 17  1  0  0  0  0
 11 12  2  0  0  0  0
 12 13  1  0  0  0  0
 12 35  1  0  0  0  0
 13 14  2  0  0  0  0
 13 36  1  0  0  0  0
 14 15  1  0  0  0  0
 14 37  1  0  0  0  0
 15 16  1  0  0  0  0
 15 17  1  0  0  0  0
 16 38  1  0  0  0  0
 16 39  1  0  0  0  0
 16 40  1  0  0  0  0
 17 18  2  0  0  0  0
 19 23  1  0  0  0  0
 19 20  1  0  0  0  0
 20 21  1  0  0  0  0
 20 41  1  0  0  0  0
 20 42  1  0  0  0  0
 21 22  1  0  0  0  0
 21 43  1  0  0  0  0
 21 44  1  0  0  0  0
 22 23  1  0  0  0  0
 22 45  1  0  0  0  0
 22 46  1  0  0  0  0
 23 47  1  0  0  0  0
 23 48  1  0  0  0  0
M  END
> <s_m_source_file>
AV-unprocessed.smi

> <i_m_source_file_index>
709

> <i_lp_mmshare_version>
43012

> <i_f3d_flags>
0

> <s_epik_input>
W0NIMl0xW0NIMl1bQ0gyXVtDSDJdQzEyW0NASF0oT1tDSDJdW0NIM10pW0NIMl1bQ0BIXTJbTkhdQyg9TylbTkhdYzNbY0hdW2NIXVtjSF1uKFtDSDNdKWMzPU8=

> <s_epik_cmdline>
J2VwaWtfcHl0aG9uJywgJy1waCcsICc3LjAnLCAnLXRuJywgJzgnLCAnLW1hJywgJzIwMCcsICctbWV0YWxfYmluZGluZycsICctaW1hZScsICc8aW5maWxlLm1hZT4nLCAnLW9tYWUnLCAnPG91dGZpbGUubWFlPic=

> <r_lp_tautomer_probability>
1

> <r_epik_Ionization_Penalty>
2.50859e-05

> <r_epik_Ionization_Penalty_Charging>
5.10493e-06

> <r_epik_Ionization_Penalty_Neutral>
1.9981e-05

> <r_epik_State_Penalty>
-0

> <r_epik_Charging_Adjusted_Penalty>
5.10493e-06

> <i_epik_Tot_Q>
0

> <i_epik_Tot_abs_Q>
0

> <r_epik_Metal_State_Penalty>
-0

> <b_epik_Metal_Only>
0

> <s_lp_Force_Field>
OPLS_2005

> <r_lp_Energy>
49.4881

> <b_lp_Chiralities_Consistent>
1

> <s_lp_Variant>
AV-unprocessed.smi:709-2

> <Gold.Version>
5.8.1

> <Gold.Id.Protein>
6NUR|6NUR_protein|mol2

> <Gold.PLP.Fitness>
44.2627

> <Gold.PLP.PLP>
-37.8360

> <Gold.PLP.part.hbond>
-1.5044

> <Gold.PLP.part.metal>
0.0000

> <Gold.PLP.part.buried>
-2.4761

> <Gold.PLP.part.nonpolar>
-33.6269

> <Gold.PLP.part.repulsive>
0.3378

> <Gold.PLP.ligand.clash>
0.0000

> <Gold.PLP.ligand.torsion>
1.3125

> <Gold.PLP.Chemscore.Hbond>
1.9040

> <Gold.PLP.Chemscore.CHOScore>
1.0000

> <Gold.PLP.Chemscore.Metal>
0.0000

> <Gold.Chemscore.Hbonds>
donor molecule, donor type, donor heavy atom, donor atom, acceptor molecule, acceptor atom, score
      L1  H     7    33       P1  7948  0.93
      L1  H    10    34       P1  7948  0.90
      L1  C    14    37       P1  8028  1.00

> <Gold.PLP.Chemscore.Internal.Correction>
0.3397

> <Gold.Rescore>
     Score         DG    S(hbond)    S(metal)    S(lipo)     H(rot)  DE(clash)    DE(int)     intcor
     17.52     -19.05       1.89        0.00      91.75       1.36       0.21       1.32       ----

> <Gold.Chemscore.Fitness>
17.5236

> <Gold.Chemscore.DG>
-19.0542

> <Gold.Chemscore.ZeroCoef>
-5.4800

> <Gold.Chemscore.Hbond>
1.8925

> <Gold.Chemscore.Metal>
0.0000

> <Gold.Chemscore.Lipo>
91.7477

> <Gold.Chemscore.Internal_Hbond>
0.0000

> <Gold.Chemscore.DEClash>
0.2104

> <Gold.Chemscore.DEInternal>
1.3202

> <Gold.Chemscore.Rot>
1.3599

> <Gold.Chemscore.Internal.Correction>
   9.000000E+99

> <Gold.Chemscore.Hbonds>
donor molecule, donor type, donor heavy atom, donor atom, acceptor molecule, acceptor atom, score
      L1  H     7    33       P1  7948  0.84
      L1  H    10    34       P1  7948  0.83

> <Gold.Chemscore.Hbond.Weighted>
-6.3210

> <Gold.Chemscore.Metal.Weighted>
-0.0000

> <Gold.Chemscore.Lipo.Weighted>
-10.7345

> <Gold.Chemscore.Internal_Hbond.Weighted>
0.0000

> <Gold.Chemscore.DEClash.Weighted>
0.2104

> <Gold.Chemscore.DEInternal.Weighted>
1.3202

> <Gold.Chemscore.Rot.Weighted>
3.4813

> <Gold.Chemscore.Internal.Correction.Weighted>
   9.000000E+99

> <Gold.Protein.RotatedTorsions>
[ 6907 6896 6895 6894 ] final  106.58 input  -60.11 | X-H torsion
[ 7974 7965 7964 7962 ] final  -15.31 input  175.53 | X-H torsion
[ 8008 7997 7996 7995 ] final  -87.91 input   59.86 | X-H torsion
[ 10167 10162 10161 10158 ] final   26.50 input  -65.29 | X-H torsion
[ 10718 10713 10712 10709 ] final  119.52 input   66.30 | X-H torsion
[ 10763 10752 10751 10750 ] final  -76.66 input  -60.55 | X-H torsion
[ 11005 11000 10999 10996 ] final -115.19 input  -57.11 | X-H torsion

> <Gold.Protein.ActiveResidues>
 VAL166  LYS551  ARG553  GLY616  TRP617  ASP618  TYR619  PRO620  LYS621  CYS622 
 ASP623  PHE694  ASN695  SER759  ASP760  ASP761  ALA762  ILE779  LEU786  VAL792 
 PHE793  MET794  SER795  GLU796  ALA797  LYS798  CYS799  TRP800  GLU811  SER814 

> <Gold.Protein.RotatedAtoms>
  152.5188  133.9360  159.7603 H   0  0  0  0  0  0  0  0  0  0  0  0  # atno 6907 bound_to 6896
  150.9700  133.6346  159.2746 H   0  0  0  0  0  0  0  0  0  0  0  0  # atno 6908 bound_to 6896
  151.3560  135.0900  159.9472 H   0  0  0  0  0  0  0  0  0  0  0  0  # atno 6909 bound_to 6896
  146.2037  140.3474  142.8414 H   0  0  0  0  0  0  0  0  0  0  0  0  # atno 7974 bound_to 7965
  154.6687  140.0560  157.0142 H   0  0  0  0  0  0  0  0  0  0  0  0  # atno 8008 bound_to 7997
  155.1120  140.3239  155.4500 H   0  0  0  0  0  0  0  0  0  0  0  0  # atno 8009 bound_to 7997
  156.2648  140.2012  156.6244 H   0  0  0  0  0  0  0  0  0  0  0  0  # atno 8010 bound_to 7997
  140.5017  144.0304  150.6335 H   0  0  0  0  0  0  0  0  0  0  0  0  # atno 10167 bound_to 10162
  157.5956  131.1058  150.7907 H   0  0  0  0  0  0  0  0  0  0  0  0  # atno 10718 bound_to 10713
  154.5028  135.5790  153.6544 H   0  0  0  0  0  0  0  0  0  0  0  0  # atno 10763 bound_to 10752
  152.9882  135.6140  154.2980 H   0  0  0  0  0  0  0  0  0  0  0  0  # atno 10764 bound_to 10752
  154.2889  135.2849  155.2643 H   0  0  0  0  0  0  0  0  0  0  0  0  # atno 10765 bound_to 10752
  141.0503  133.9697  157.2847 H   0  0  0  0  0  0  0  0  0  0  0  0  # atno 11005 bound_to 11000
  144.8743  140.7315  143.6027 LP  0  0  0  0  0  0  0  0  0  0  0  0  # atno 17320 bound_to 7965
  145.3394  139.1736  143.4494 LP  0  0  0  0  0  0  0  0  0  0  0  0  # atno 17321 bound_to 7965
  140.3602  143.2912  152.0392 LP  0  0  0  0  0  0  0  0  0  0  0  0  # atno 17342 bound_to 10162
  139.4874  144.6309  151.7072 LP  0  0  0  0  0  0  0  0  0  0  0  0  # atno 17343 bound_to 10162
  156.8319  130.5018  149.5330 LP  0  0  0  0  0  0  0  0  0  0  0  0  # atno 17370 bound_to 10713
  156.1018  130.5974  150.9906 LP  0  0  0  0  0  0  0  0  0  0  0  0  # atno 17371 bound_to 10713
  139.9345  135.0197  156.8511 LP  0  0  0  0  0  0  0  0  0  0  0  0  # atno 17394 bound_to 11000
  140.6067  134.0120  155.7560 LP  0  0  0  0  0  0  0  0  0  0  0  0  # atno 17395 bound_to 11000

$$$$
