AV-unprocessed.smi:1956|AV-procd|sdf|7902|dock9
  -GOLD-   2272010 63D 1   1.00000     0.00000
 Structure written by MMmdl.
 46 47  0  0  0  0  0  0  0  0  2 V2000
  154.6727  140.7269  160.9239 C   0  0  0  0  0  0  0  0  0  0  0  0
  154.0594  142.0060  160.8059 O   0  0  0  0  0  0  0  0  0  0  0  0
  153.1482  142.2038  159.7888 C   0  0  0  0  0  0  0  0  0  0  0  0
  152.5755  143.4815  159.6351 C   0  0  0  0  0  0  0  0  0  0  0  0
  151.6454  143.6931  158.5994 C   0  0  0  0  0  0  0  0  0  0  0  0
  151.3139  142.6133  157.7446 C   0  0  0  0  0  0  0  0  0  0  0  0
  150.3981  142.6805  156.6575 N   0  0  0  0  0  0  0  0  0  0  0  0
  150.0190  141.7213  155.7952 C   0  0  0  0  0  0  0  0  0  0  0  0
  150.4216  140.5588  155.7884 O   0  0  0  0  0  0  0  0  0  0  0  0
  149.1237  142.1902  154.9141 N   0  0  0  0  0  0  0  0  0  0  0  0
  148.5212  141.4074  153.8409 C   0  0  0  0  0  0  0  0  0  0  0  0
  146.9820  141.4288  153.9189 C   0  0  0  0  0  0  0  0  0  0  0  0
  146.3868  140.0859  153.7045 N   0  3  1  0  0  0  0  0  0  0  0  0
  146.9404  139.4098  152.5027 C   0  0  0  0  0  0  0  0  0  0  0  0
  146.1938  138.0987  152.2105 C   0  0  0  0  0  0  0  0  0  0  0  0
  146.2198  137.1660  153.4295 C   0  0  0  0  0  0  0  0  0  0  0  0
  145.7060  137.8817  154.6926 C   0  0  2  0  0  0  0  0  0  0  0  0
  144.1793  138.0745  154.6903 C   0  0  0  0  0  0  0  0  0  0  0  0
  146.4602  139.2104  154.9060 C   0  0  0  0  0  0  0  0  0  0  0  0
  151.9464  141.3751  157.9834 C   0  0  0  0  0  0  0  0  0  0  0  0
  152.8382  141.1656  158.9741 N   0  0  0  0  0  0  0  0  0  0  0  0
  155.3623  140.7342  161.7679 H   0  0  0  0  0  0  0  0  0  0  0  0
  155.2460  140.4744  160.0304 H   0  0  0  0  0  0  0  0  0  0  0  0
  153.9334  139.9459  161.1076 H   0  0  0  0  0  0  0  0  0  0  0  0
  152.8457  144.2879  160.3009 H   0  0  0  0  0  0  0  0  0  0  0  0
  151.2183  144.6765  158.4902 H   0  0  0  0  0  0  0  0  0  0  0  0
  149.9808  143.5882  156.5119 H   0  0  0  0  0  0  0  0  0  0  0  0
  148.8475  143.1589  154.9847 H   0  0  0  0  0  0  0  0  0  0  0  0
  148.8704  141.8299  152.8998 H   0  0  0  0  0  0  0  0  0  0  0  0
  148.8914  140.3812  153.8760 H   0  0  0  0  0  0  0  0  0  0  0  0
  146.6945  141.7874  154.9081 H   0  0  0  0  0  0  0  0  0  0  0  0
  146.5652  142.1389  153.2029 H   0  0  0  0  0  0  0  0  0  0  0  0
  146.8556  140.0656  151.6354 H   0  0  0  0  0  0  0  0  0  0  0  0
  148.0038  139.2147  152.6505 H   0  0  0  0  0  0  0  0  0  0  0  0
  145.1631  138.3164  151.9284 H   0  0  0  0  0  0  0  0  0  0  0  0
  146.6445  137.5989  151.3527 H   0  0  0  0  0  0  0  0  0  0  0  0
  145.6345  136.2672  153.2320 H   0  0  0  0  0  0  0  0  0  0  0  0
  147.2441  136.8311  153.5992 H   0  0  0  0  0  0  0  0  0  0  0  0
  145.9317  137.2379  155.5438 H   0  0  0  0  0  0  0  0  0  0  0  0
  143.8516  138.7316  153.8847 H   0  0  0  0  0  0  0  0  0  0  0  0
  143.8399  138.5125  155.6294 H   0  0  0  0  0  0  0  0  0  0  0  0
  143.6642  137.1209  154.5703 H   0  0  0  0  0  0  0  0  0  0  0  0
  147.5081  139.0069  155.1326 H   0  0  0  0  0  0  0  0  0  0  0  0
  146.0502  139.7174  155.7787 H   0  0  0  0  0  0  0  0  0  0  0  0
  151.7308  140.5209  157.3584 H   0  0  0  0  0  0  0  0  0  0  0  0
  145.4072  140.2394  153.5112 H   0  0  0  0  0  0  0  0  0  0  0  0
  1  2  1  0  0  0  0
  1 22  1  0  0  0  0
  1 23  1  0  0  0  0
  1 24  1  0  0  0  0
  2  3  1  0  0  0  0
  3 21  1  0  0  0  0
  3  4  2  0  0  0  0
  4  5  1  0  0  0  0
  4 25  1  0  0  0  0
  5  6  2  0  0  0  0
  5 26  1  0  0  0  0
  6  7  1  0  0  0  0
  6 20  1  0  0  0  0
  7  8  1  0  0  0  0
  7 27  1  0  0  0  0
  8  9  2  0  0  0  0
  8 10  1  0  0  0  0
 10 11  1  0  0  0  0
 10 28  1  0  0  0  0
 11 12  1  0  0  0  0
 11 29  1  0  0  0  0
 11 30  1  0  0  0  0
 12 13  1  0  0  0  0
 12 31  1  0  0  0  0
 12 32  1  0  0  0  0
 13 19  1  0  0  0  0
 13 14  1  0  0  0  0
 13 46  1  0  0  0  0
 14 15  1  0  0  0  0
 14 33  1  0  0  0  0
 14 34  1  0  0  0  0
 15 16  1  0  0  0  0
 15 35  1  0  0  0  0
 15 36  1  0  0  0  0
 16 17  1  0  0  0  0
 16 37  1  0  0  0  0
 16 38  1  0  0  0  0
 17 18  1  0  0  0  0
 17 19  1  0  0  0  0
 17 39  1  0  0  0  0
 18 40  1  0  0  0  0
 18 41  1  0  0  0  0
 18 42  1  0  0  0  0
 19 43  1  0  0  0  0
 19 44  1  0  0  0  0
 20 21  2  0  0  0  0
 20 45  1  0  0  0  0
M  CHG  1  13   1
M  END
> <s_m_source_file>
AV-unprocessed.smi

> <i_m_source_file_index>
1956

> <i_lp_mmshare_version>
43012

> <i_f3d_flags>
0

> <s_epik_input>
W0NIM11PYzFbY0hdW2NIXWMoW2NIXW4xKVtOSF1DKD1PKVtOSF1bQ0gyXVtDSDJdTjJbQ0gyXVtDSDJdW0NIMl1bQ0BASF0oW0NIM10pW0NIMl0y

> <s_epik_cmdline>
J2VwaWtfcHl0aG9uJywgJy1waCcsICc3LjAnLCAnLXRuJywgJzgnLCAnLW1hJywgJzIwMCcsICctbWV0YWxfYmluZGluZycsICctaW1hZScsICc8aW5maWxlLm1hZT4nLCAnLW9tYWUnLCAnPG91dGZpbGUubWFlPic=

> <r_lp_tautomer_probability>
1

> <r_epik_Ionization_Penalty>
0.00179545

> <r_epik_Ionization_Penalty_Charging>
0.00171832

> <r_epik_Ionization_Penalty_Neutral>
7.7124e-05

> <r_epik_State_Penalty>
0.0011618

> <r_epik_Charging_Adjusted_Penalty>
0.00288012

> <i_epik_Tot_Q>
1

> <i_epik_Tot_abs_Q>
1

> <r_epik_Metal_State_Penalty>
-0

> <b_epik_Metal_Only>
0

> <s_lp_Force_Field>
OPLS_2005

> <r_lp_Energy>
22.555

> <b_lp_Chiralities_Consistent>
1

> <s_lp_Variant>
AV-unprocessed.smi:1956-3

> <Gold.Version>
5.8.1

> <Gold.Id.Protein>
6NUR|6NUR_protein|mol2

> <Gold.PLP.Fitness>
49.1430

> <Gold.PLP.PLP>
-37.9794

> <Gold.PLP.part.hbond>
-3.3246

> <Gold.PLP.part.metal>
0.0000

> <Gold.PLP.part.buried>
-1.5750

> <Gold.PLP.part.nonpolar>
-32.4940

> <Gold.PLP.part.repulsive>
0.3110

> <Gold.PLP.ligand.clash>
0.0000

> <Gold.PLP.ligand.torsion>
0.4416

> <Gold.PLP.Chemscore.Hbond>
4.0000

> <Gold.PLP.Chemscore.CHOScore>
0.0000

> <Gold.PLP.Chemscore.Metal>
0.0000

> <Gold.Chemscore.Hbonds>
donor molecule, donor type, donor heavy atom, donor atom, acceptor molecule, acceptor atom, score
      L1  H     7    27       P1  8028  1.00
      L1  H    10    28       P1  8028  1.00
      L1  H    13    46       P1 10175  2.00

> <Gold.PLP.Chemscore.Internal.Correction>
0.0468

> <Gold.Rescore>
     Score         DG    S(hbond)    S(metal)    S(lipo)     H(rot)  DE(clash)    DE(int)     intcor
     19.15     -21.14       2.92        0.00      87.83       1.71       0.16       1.84       ----

> <Gold.Chemscore.Fitness>
19.1487

> <Gold.Chemscore.DG>
-21.1448

> <Gold.Chemscore.ZeroCoef>
-5.4800

> <Gold.Chemscore.Hbond>
2.9247

> <Gold.Chemscore.Metal>
0.0000

> <Gold.Chemscore.Lipo>
87.8264

> <Gold.Chemscore.Internal_Hbond>
0.0000

> <Gold.Chemscore.DEClash>
0.1562

> <Gold.Chemscore.DEInternal>
1.8399

> <Gold.Chemscore.Rot>
1.7107

> <Gold.Chemscore.Internal.Correction>
   9.000000E+99

> <Gold.Chemscore.Hbonds>
donor molecule, donor type, donor heavy atom, donor atom, acceptor molecule, acceptor atom, score
      L1  H     7    27       P1  8028  0.98
      L1  H    10    28       P1  8028  0.98
      L1  H    13    46       P1 10175  0.93

> <Gold.Chemscore.Hbond.Weighted>
-9.7686

> <Gold.Chemscore.Metal.Weighted>
-0.0000

> <Gold.Chemscore.Lipo.Weighted>
-10.2757

> <Gold.Chemscore.Internal_Hbond.Weighted>
0.0000

> <Gold.Chemscore.DEClash.Weighted>
0.1562

> <Gold.Chemscore.DEInternal.Weighted>
1.8399

> <Gold.Chemscore.Rot.Weighted>
4.3794

> <Gold.Chemscore.Internal.Correction.Weighted>
   9.000000E+99

> <Gold.Protein.RotatedTorsions>
[ 6907 6896 6895 6894 ] final  138.56 input  -60.11 | X-H torsion
[ 7974 7965 7964 7962 ] final  -35.92 input  175.53 | X-H torsion
[ 8008 7997 7996 7995 ] final   28.41 input   59.86 | X-H torsion
[ 10167 10162 10161 10158 ] final -124.51 input  -65.29 | X-H torsion
[ 10718 10713 10712 10709 ] final  -12.83 input   66.30 | X-H torsion
[ 10763 10752 10751 10750 ] final  -31.50 input  -60.55 | X-H torsion
[ 11005 11000 10999 10996 ] final  -97.57 input  -57.11 | X-H torsion

> <Gold.Protein.ActiveResidues>
 VAL166  LYS551  ARG553  GLY616  TRP617  ASP618  TYR619  PRO620  LYS621  CYS622 
 ASP623  PHE694  ASN695  SER759  ASP760  ASP761  ALA762  ILE779  LEU786  VAL792 
 PHE793  MET794  SER795  GLU796  ALA797  LYS798  CYS799  TRP800  GLU811  SER814 

> <Gold.Protein.RotatedAtoms>
  152.2652  133.5333  159.5405 H   0  0  0  0  0  0  0  0  0  0  0  0  # atno 6907 bound_to 6896
  150.7139  134.0774  159.3895 H   0  0  0  0  0  0  0  0  0  0  0  0  # atno 6908 bound_to 6896
  151.8691  135.0496  160.0528 H   0  0  0  0  0  0  0  0  0  0  0  0  # atno 6909 bound_to 6896
  146.0705  140.6217  142.8954 H   0  0  0  0  0  0  0  0  0  0  0  0  # atno 7974 bound_to 7965
  155.0582  140.3187  155.4669 H   0  0  0  0  0  0  0  0  0  0  0  0  # atno 8008 bound_to 7997
  156.2819  140.2133  156.5653 H   0  0  0  0  0  0  0  0  0  0  0  0  # atno 8009 bound_to 7997
  154.7154  140.0494  157.0577 H   0  0  0  0  0  0  0  0  0  0  0  0  # atno 8010 bound_to 7997
  139.9921  143.5630  152.2338 H   0  0  0  0  0  0  0  0  0  0  0  0  # atno 10167 bound_to 10162
  156.6390  130.4923  149.6101 H   0  0  0  0  0  0  0  0  0  0  0  0  # atno 10718 bound_to 10713
  153.7984  135.6892  153.4859 H   0  0  0  0  0  0  0  0  0  0  0  0  # atno 10763 bound_to 10752
  153.1704  135.4545  154.9893 H   0  0  0  0  0  0  0  0  0  0  0  0  # atno 10764 bound_to 10752
  154.8016  135.3340  154.7475 H   0  0  0  0  0  0  0  0  0  0  0  0  # atno 10765 bound_to 10752
  141.1374  133.8181  157.0724 H   0  0  0  0  0  0  0  0  0  0  0  0  # atno 11005 bound_to 11000
  144.7229  140.4431  143.6995 LP  0  0  0  0  0  0  0  0  0  0  0  0  # atno 17320 bound_to 7965
  145.6399  139.1548  143.2921 LP  0  0  0  0  0  0  0  0  0  0  0  0  # atno 17321 bound_to 7965
  139.6333  144.7647  151.2491 LP  0  0  0  0  0  0  0  0  0  0  0  0  # atno 17342 bound_to 10162
  140.7451  143.6442  150.8307 LP  0  0  0  0  0  0  0  0  0  0  0  0  # atno 17343 bound_to 10162
  156.2174  130.6716  151.1333 LP  0  0  0  0  0  0  0  0  0  0  0  0  # atno 17370 bound_to 10713
  157.7177  131.0700  150.6263 LP  0  0  0  0  0  0  0  0  0  0  0  0  # atno 17371 bound_to 10713
  140.0503  134.9809  157.1124 LP  0  0  0  0  0  0  0  0  0  0  0  0  # atno 17394 bound_to 11000
  140.4000  134.2092  155.7164 LP  0  0  0  0  0  0  0  0  0  0  0  0  # atno 17395 bound_to 11000

$$$$
