AV-unprocessed.smi:3162|AV-procd|sdf|12068|dock7
  -GOLD-   2272017493D 1   1.00000     0.00000
 Structure written by MMmdl.
 36 36  0  0  0  0  0  0  0  0  1 V2000
  146.6115  142.7338  154.4237 C   0  0  0  0  0  0  0  0  0  0  0  0
  146.8004  141.2912  153.9286 C   0  0  0  0  0  0  0  0  0  0  0  0
  148.0977  140.6140  154.4220 C   0  0  1  0  0  0  0  0  0  0  0  0
  148.1997  140.7740  155.8874 N   0  0  0  0  0  0  0  0  0  0  0  0
  149.2947  141.6003  156.4036 C   0  0  2  0  0  0  0  0  0  0  0  0
  150.5196  141.3345  155.5131 C   0  0  0  0  0  0  0  0  0  0  0  0
  149.5799  141.3440  157.9055 C   0  0  0  0  0  0  0  0  0  0  0  0
  150.5491  142.2609  158.4855 N   0  0  0  0  0  0  0  0  0  0  0  0
  150.4504  143.6276  158.6432 C   0  0  0  0  0  0  0  0  0  0  0  0
  151.6019  144.0586  159.2387 C   0  0  0  0  0  0  0  0  0  0  0  0
  151.9914  145.4532  159.6352 C   0  0  0  0  0  0  0  0  0  0  0  0
  152.3578  142.8629  159.4001 C   0  0  0  0  0  0  0  0  0  0  0  0
  151.7291  141.7915  158.9453 N   0  0  0  0  0  0  0  0  0  0  0  0
  148.1783  139.1447  153.9700 C   0  0  0  0  0  0  0  0  0  0  0  0
  148.3202  138.9160  152.6619 N   0  0  0  0  0  0  0  0  0  0  0  0
  148.1342  138.2322  154.7930 O   0  0  0  0  0  0  0  0  0  0  0  0
  145.6509  143.1308  154.0951 H   0  0  0  0  0  0  0  0  0  0  0  0
  147.3871  143.3976  154.0415 H   0  0  0  0  0  0  0  0  0  0  0  0
  146.6338  142.7814  155.5125 H   0  0  0  0  0  0  0  0  0  0  0  0
  145.9449  140.7053  154.2679 H   0  0  0  0  0  0  0  0  0  0  0  0
  146.7576  141.2739  152.8387 H   0  0  0  0  0  0  0  0  0  0  0  0
  148.9261  141.1556  153.9654 H   0  0  0  0  0  0  0  0  0  0  0  0
  148.2261  139.8738  156.3451 H   0  0  0  0  0  0  0  0  0  0  0  0
  149.0448  142.6537  156.2786 H   0  0  0  0  0  0  0  0  0  0  0  0
  151.3797  141.9131  155.8513 H   0  0  0  0  0  0  0  0  0  0  0  0
  150.3221  141.6173  154.4786 H   0  0  0  0  0  0  0  0  0  0  0  0
  150.8054  140.2819  155.5173 H   0  0  0  0  0  0  0  0  0  0  0  0
  148.6473  141.4353  158.4645 H   0  0  0  0  0  0  0  0  0  0  0  0
  149.9196  140.3237  158.0807 H   0  0  0  0  0  0  0  0  0  0  0  0
  149.5745  144.1748  158.3268 H   0  0  0  0  0  0  0  0  0  0  0  0
  152.3372  145.4955  160.6680 H   0  0  0  0  0  0  0  0  0  0  0  0
  151.1566  146.1492  159.5478 H   0  0  0  0  0  0  0  0  0  0  0  0
  152.7974  145.8377  159.0099 H   0  0  0  0  0  0  0  0  0  0  0  0
  153.3404  142.7432  159.8323 H   0  0  0  0  0  0  0  0  0  0  0  0
  148.3790  137.9684  152.3193 H   0  0  0  0  0  0  0  0  0  0  0  0
  148.3696  139.6939  152.0202 H   0  0  0  0  0  0  0  0  0  0  0  0
  1  2  1  0  0  0  0
  1 17  1  0  0  0  0
  1 18  1  0  0  0  0
  1 19  1  0  0  0  0
  2  3  1  0  0  0  0
  2 20  1  0  0  0  0
  2 21  1  0  0  0  0
  3  4  1  0  0  0  0
  3 14  1  0  0  0  0
  3 22  1  0  0  0  0
  4  5  1  0  0  0  0
  4 23  1  0  0  0  0
  5  6  1  0  0  0  0
  5  7  1  0  0  0  0
  5 24  1  0  0  0  0
  6 25  1  0  0  0  0
  6 26  1  0  0  0  0
  6 27  1  0  0  0  0
  7  8  1  0  0  0  0
  7 28  1  0  0  0  0
  7 29  1  0  0  0  0
  8 13  1  0  0  0  0
  8  9  1  0  0  0  0
  9 10  2  0  0  0  0
  9 30  1  0  0  0  0
 10 11  1  0  0  0  0
 10 12  1  0  0  0  0
 11 31  1  0  0  0  0
 11 32  1  0  0  0  0
 11 33  1  0  0  0  0
 12 13  2  0  0  0  0
 12 34  1  0  0  0  0
 14 15  1  0  0  0  0
 14 16  2  0  0  0  0
 15 35  1  0  0  0  0
 15 36  1  0  0  0  0
M  END
> <s_m_source_file>
AV-unprocessed.smi

> <i_m_source_file_index>
3162

> <i_lp_mmshare_version>
43012

> <i_f3d_flags>
0

> <s_epik_input>
W0NIM11bQ0gyXVtDQEBIXShDKD1PKVtOSDJdKVtOSF1bQ0BIXShbQ0gzXSlbQ0gyXW4xW2NIXWMoW0NIM10pW2NIXW4x

> <s_epik_cmdline>
J2VwaWtfcHl0aG9uJywgJy1waCcsICc3LjAnLCAnLXRuJywgJzgnLCAnLW1hJywgJzIwMCcsICctbWV0YWxfYmluZGluZycsICctaW1hZScsICc8aW5maWxlLm1hZT4nLCAnLW9tYWUnLCAnPG91dGZpbGUubWFlPic=

> <r_lp_tautomer_probability>
1

> <r_epik_Ionization_Penalty>
1.04167

> <r_epik_Ionization_Penalty_Charging>
0

> <r_epik_Ionization_Penalty_Neutral>
1.04167

> <r_epik_State_Penalty>
1.09367

> <r_epik_Charging_Adjusted_Penalty>
1.09367

> <i_epik_Tot_Q>
0

> <i_epik_Tot_abs_Q>
0

> <r_epik_Metal_State_Penalty>
1.09362

> <b_epik_Metal_Only>
0

> <s_lp_Force_Field>
OPLS_2005

> <r_lp_Energy>
2.92083

> <b_lp_Chiralities_Consistent>
1

> <s_lp_Variant>
AV-unprocessed.smi:3162-6

> <Gold.Version>
5.8.1

> <Gold.Id.Protein>
6NUR|6NUR_protein|mol2

> <Gold.PLP.Fitness>
39.6249

> <Gold.PLP.PLP>
-32.1269

> <Gold.PLP.part.hbond>
-1.7440

> <Gold.PLP.part.metal>
0.0000

> <Gold.PLP.part.buried>
-3.6193

> <Gold.PLP.part.nonpolar>
-27.0439

> <Gold.PLP.part.repulsive>
0.1734

> <Gold.PLP.ligand.clash>
0.0000

> <Gold.PLP.ligand.torsion>
1.1431

> <Gold.PLP.Chemscore.Hbond>
1.9913

> <Gold.PLP.Chemscore.CHOScore>
1.2009

> <Gold.PLP.Chemscore.Metal>
0.0000

> <Gold.Chemscore.Hbonds>
donor molecule, donor type, donor heavy atom, donor atom, acceptor molecule, acceptor atom, score
      L1  H    15    35       P1  7948  1.00
      L1  H    15    36       P1  7957  0.49
      L1  C     9    30       P1  8028  0.20
      L1  C     9    30       P1  8029  0.59

> <Gold.PLP.Chemscore.Internal.Correction>
0.2079

> <Gold.Rescore>
     Score         DG    S(hbond)    S(metal)    S(lipo)     H(rot)  DE(clash)    DE(int)     intcor
     14.25     -15.37       1.94        0.00      82.44       2.43       0.03       1.10       ----

> <Gold.Chemscore.Fitness>
14.2459

> <Gold.Chemscore.DG>
-15.3734

> <Gold.Chemscore.ZeroCoef>
-5.4800

> <Gold.Chemscore.Hbond>
1.9390

> <Gold.Chemscore.Metal>
0.0000

> <Gold.Chemscore.Lipo>
82.4362

> <Gold.Chemscore.Internal_Hbond>
0.0000

> <Gold.Chemscore.DEClash>
0.0321

> <Gold.Chemscore.DEInternal>
1.0954

> <Gold.Chemscore.Rot>
2.4328

> <Gold.Chemscore.Internal.Correction>
   9.000000E+99

> <Gold.Chemscore.Hbonds>
donor molecule, donor type, donor heavy atom, donor atom, acceptor molecule, acceptor atom, score
      L1  H    15    35       P1  7948  1.00
      L1  H    15    36       P1  7957  0.46

> <Gold.Chemscore.Hbond.Weighted>
-6.4763

> <Gold.Chemscore.Metal.Weighted>
-0.0000

> <Gold.Chemscore.Lipo.Weighted>
-9.6450

> <Gold.Chemscore.Internal_Hbond.Weighted>
0.0000

> <Gold.Chemscore.DEClash.Weighted>
0.0321

> <Gold.Chemscore.DEInternal.Weighted>
1.0954

> <Gold.Chemscore.Rot.Weighted>
6.2279

> <Gold.Chemscore.Internal.Correction.Weighted>
   9.000000E+99

> <Gold.Protein.RotatedTorsions>
[ 6907 6896 6895 6894 ] final   55.28 input  -60.11 | X-H torsion
[ 7974 7965 7964 7962 ] final -159.72 input  175.53 | X-H torsion
[ 8008 7997 7996 7995 ] final   47.69 input   59.86 | X-H torsion
[ 10167 10162 10161 10158 ] final   69.38 input  -65.29 | X-H torsion
[ 10718 10713 10712 10709 ] final  -19.31 input   66.30 | X-H torsion
[ 10763 10752 10751 10750 ] final  -64.21 input  -60.55 | X-H torsion
[ 11005 11000 10999 10996 ] final  172.43 input  -57.11 | X-H torsion

> <Gold.Protein.ActiveResidues>
 VAL166  LYS551  ARG553  GLY616  TRP617  ASP618  TYR619  PRO620  LYS621  CYS622 
 ASP623  PHE694  ASN695  SER759  ASP760  ASP761  ALA762  ILE779  LEU786  VAL792 
 PHE793  MET794  SER795  GLU796  ALA797  LYS798  CYS799  TRP800  GLU811  SER814 

> <Gold.Protein.RotatedAtoms>
  152.3522  134.6989  160.0232 H   0  0  0  0  0  0  0  0  0  0  0  0  # atno 6907 bound_to 6896
  151.7339  133.3313  159.3356 H   0  0  0  0  0  0  0  0  0  0  0  0  # atno 6908 bound_to 6896
  150.7548  134.6272  159.6212 H   0  0  0  0  0  0  0  0  0  0  0  0  # atno 6909 bound_to 6896
  144.7454  140.3644  143.6089 H   0  0  0  0  0  0  0  0  0  0  0  0  # atno 7974 bound_to 7965
  155.3733  140.3425  155.4244 H   0  0  0  0  0  0  0  0  0  0  0  0  # atno 8008 bound_to 7997
  156.1651  140.1613  156.8580 H   0  0  0  0  0  0  0  0  0  0  0  0  # atno 8009 bound_to 7997
  154.5177  140.0774  156.8094 H   0  0  0  0  0  0  0  0  0  0  0  0  # atno 8010 bound_to 7997
  140.0684  144.5173  150.7244 H   0  0  0  0  0  0  0  0  0  0  0  0  # atno 10167 bound_to 10162
  156.5475  130.4693  149.6468 H   0  0  0  0  0  0  0  0  0  0  0  0  # atno 10718 bound_to 10713
  154.3267  135.6185  153.5532 H   0  0  0  0  0  0  0  0  0  0  0  0  # atno 10763 bound_to 10752
  152.9815  135.5737  154.5008 H   0  0  0  0  0  0  0  0  0  0  0  0  # atno 10764 bound_to 10752
  154.4687  135.2858  155.1636 H   0  0  0  0  0  0  0  0  0  0  0  0  # atno 10765 bound_to 10752
  140.3296  134.7368  157.4124 H   0  0  0  0  0  0  0  0  0  0  0  0  # atno 11005 bound_to 11000
  145.7143  139.1693  143.2520 LP  0  0  0  0  0  0  0  0  0  0  0  0  # atno 17320 bound_to 7965
  146.1324  140.7168  142.9406 LP  0  0  0  0  0  0  0  0  0  0  0  0  # atno 17321 bound_to 7965
  140.7137  143.2526  151.4500 LP  0  0  0  0  0  0  0  0  0  0  0  0  # atno 17342 bound_to 10162
  139.5850  144.1623  152.2018 LP  0  0  0  0  0  0  0  0  0  0  0  0  # atno 17343 bound_to 10162
  156.2915  130.7126  151.1976 LP  0  0  0  0  0  0  0  0  0  0  0  0  # atno 17370 bound_to 10713
  157.7394  131.0530  150.5235 LP  0  0  0  0  0  0  0  0  0  0  0  0  # atno 17371 bound_to 10713
  140.0872  134.5650  155.8480 LP  0  0  0  0  0  0  0  0  0  0  0  0  # atno 17394 bound_to 11000
  141.2066  133.6657  156.6256 LP  0  0  0  0  0  0  0  0  0  0  0  0  # atno 17395 bound_to 11000

$$$$
