AV-unprocessed.smi:2566|AV-procd|sdf|10072|dock4
  -GOLD-   2272014103D 1   1.00000     0.00000
 Structure written by MMmdl.
 21 22  0  0  0  0  0  0  0  0  2 V2000
  152.2205  138.4834  153.9658 C   0  0  0  0  0  0  0  0  0  0  0  0
  151.3173  139.3519  154.4096 N   0  0  0  0  0  0  0  0  0  0  0  0
  151.8482  139.6789  155.6222 C   0  0  0  0  0  0  0  0  0  0  0  0
  151.1874  140.6163  156.5846 C   0  0  2  0  0  0  0  0  0  0  0  0
  150.7382  141.9254  155.9082 C   0  0  0  0  0  0  0  0  0  0  0  0
  150.1856  142.8488  156.9184 N   0  3  0  0  0  0  0  0  0  0  0  0
  151.1453  143.0865  158.0151 C   0  0  0  0  0  0  0  0  0  0  0  0
  151.6013  141.7475  158.6224 C   0  0  0  0  0  0  0  0  0  0  0  0
  152.1414  140.9130  157.6027 O   0  0  0  0  0  0  0  0  0  0  0  0
  152.9733  139.0522  155.9480 N   0  0  0  0  0  0  0  0  0  0  0  0
  153.2380  138.2517  154.8272 O   0  0  0  0  0  0  0  0  0  0  0  0
  152.1686  137.9845  153.0093 H   0  0  0  0  0  0  0  0  0  0  0  0
  150.3298  140.1106  157.0337 H   0  0  0  0  0  0  0  0  0  0  0  0
  151.5818  142.4061  155.4103 H   0  0  0  0  0  0  0  0  0  0  0  0
  149.9831  141.7285  155.1466 H   0  0  0  0  0  0  0  0  0  0  0  0
  149.9518  143.7280  156.4789 H   0  0  0  0  0  0  0  0  0  0  0  0
  152.0042  143.6351  157.6265 H   0  0  0  0  0  0  0  0  0  0  0  0
  150.6791  143.7143  158.7747 H   0  0  0  0  0  0  0  0  0  0  0  0
  152.3666  141.9198  159.3795 H   0  0  0  0  0  0  0  0  0  0  0  0
  150.7711  141.2420  159.1183 H   0  0  0  0  0  0  0  0  0  0  0  0
  149.3461  142.4413  157.3052 H   0  0  0  0  0  0  0  0  0  0  0  0
  1 11  1  0  0  0  0
  1  2  2  0  0  0  0
  1 12  1  0  0  0  0
  2  3  1  0  0  0  0
  3  4  1  0  0  0  0
  3 10  2  0  0  0  0
  4  9  1  0  0  0  0
  4  5  1  0  0  0  0
  4 13  1  0  0  0  0
  5  6  1  0  0  0  0
  5 14  1  0  0  0  0
  5 15  1  0  0  0  0
  6  7  1  0  0  0  0
  6 16  1  0  0  0  0
  6 21  1  0  0  0  0
  7  8  1  0  0  0  0
  7 17  1  0  0  0  0
  7 18  1  0  0  0  0
  8  9  1  0  0  0  0
  8 19  1  0  0  0  0
  8 20  1  0  0  0  0
 10 11  1  0  0  0  0
M  CHG  1   6   1
M  END
> <s_m_source_file>
AV-unprocessed.smi

> <i_m_source_file_index>
2566

> <i_lp_mmshare_version>
43012

> <i_f3d_flags>
0

> <s_epik_input>
bjFvW2NIXW5jMVtDQEBIXTJbQ0gyXVtOSF1bQ0gyXVtDSDJdTzI=

> <s_epik_cmdline>
J2VwaWtfcHl0aG9uJywgJy1waCcsICc3LjAnLCAnLXRuJywgJzgnLCAnLW1hJywgJzIwMCcsICctbWV0YWxfYmluZGluZycsICctaW1hZScsICc8aW5maWxlLm1hZT4nLCAnLW9tYWUnLCAnPG91dGZpbGUubWFlPic=

> <r_lp_tautomer_probability>
1

> <r_epik_Ionization_Penalty>
0.157575

> <r_epik_Ionization_Penalty_Charging>
0.157575

> <r_epik_Ionization_Penalty_Neutral>
8.82756e-14

> <r_epik_State_Penalty>
0.146877

> <r_epik_Charging_Adjusted_Penalty>
0.304452

> <i_epik_Tot_Q>
1

> <i_epik_Tot_abs_Q>
1

> <r_epik_Metal_State_Penalty>
0.146877

> <b_epik_Metal_Only>
0

> <s_lp_Force_Field>
OPLS_2005

> <r_lp_Energy>
9.76896

> <b_lp_Chiralities_Consistent>
1

> <s_lp_Variant>
AV-unprocessed.smi:2566-1

> <Gold.Version>
5.8.1

> <Gold.Id.Protein>
6NUR|6NUR_protein|mol2

> <Gold.PLP.Fitness>
33.9701

> <Gold.PLP.PLP>
-19.8631

> <Gold.PLP.part.hbond>
-4.0000

> <Gold.PLP.part.metal>
0.0000

> <Gold.PLP.part.buried>
-4.8255

> <Gold.PLP.part.nonpolar>
-11.2153

> <Gold.PLP.part.repulsive>
0.1580

> <Gold.PLP.ligand.clash>
0.0000

> <Gold.PLP.ligand.torsion>
0.3002

> <Gold.PLP.Chemscore.Hbond>
3.9500

> <Gold.PLP.Chemscore.CHOScore>
0.9474

> <Gold.PLP.Chemscore.Metal>
0.0000

> <Gold.Chemscore.Hbonds>
donor molecule, donor type, donor heavy atom, donor atom, acceptor molecule, acceptor atom, score
      L1  H     6    16       P1  8028  2.00
      P1  H  7989  7998       L1     2  1.00
      P1  H  7997  8008       L1    10  1.00
      L1  C     1    12       P1  7949  0.60

> <Gold.PLP.Chemscore.Internal.Correction>
0.0151

> <Gold.Rescore>
     Score         DG    S(hbond)    S(metal)    S(lipo)     H(rot)  DE(clash)    DE(int)     intcor
     13.31     -13.35       1.99        0.00      32.25       1.00       0.00       0.04       ----

> <Gold.Chemscore.Fitness>
13.3108

> <Gold.Chemscore.DG>
-13.3532

> <Gold.Chemscore.ZeroCoef>
-5.4800

> <Gold.Chemscore.Hbond>
1.9941

> <Gold.Chemscore.Metal>
0.0000

> <Gold.Chemscore.Lipo>
32.2464

> <Gold.Chemscore.Internal_Hbond>
0.0000

> <Gold.Chemscore.DEClash>
0.0021

> <Gold.Chemscore.DEInternal>
0.0402

> <Gold.Chemscore.Rot>
1.0000

> <Gold.Chemscore.Internal.Correction>
   9.000000E+99

> <Gold.Chemscore.Hbonds>
donor molecule, donor type, donor heavy atom, donor atom, acceptor molecule, acceptor atom, score
      L1  H     6    16       P1  8028  0.96
      P1  H  7989  7998       L1     2  0.13
      P1  H  7997  8008       L1    10  0.53

> <Gold.Chemscore.Hbond.Weighted>
-6.6603

> <Gold.Chemscore.Metal.Weighted>
-0.0000

> <Gold.Chemscore.Lipo.Weighted>
-3.7728

> <Gold.Chemscore.Internal_Hbond.Weighted>
0.0000

> <Gold.Chemscore.DEClash.Weighted>
0.0021

> <Gold.Chemscore.DEInternal.Weighted>
0.0402

> <Gold.Chemscore.Rot.Weighted>
2.5600

> <Gold.Chemscore.Internal.Correction.Weighted>
   9.000000E+99

> <Gold.Protein.RotatedTorsions>
[ 6907 6896 6895 6894 ] final  155.66 input  -60.11 | X-H torsion
[ 7974 7965 7964 7962 ] final -128.83 input  175.53 | X-H torsion
[ 8008 7997 7996 7995 ] final  -30.88 input   59.86 | X-H torsion
[ 10167 10162 10161 10158 ] final -164.59 input  -65.29 | X-H torsion
[ 10718 10713 10712 10709 ] final -156.40 input   66.30 | X-H torsion
[ 10763 10752 10751 10750 ] final   73.35 input  -60.55 | X-H torsion
[ 11005 11000 10999 10996 ] final  -39.46 input  -57.11 | X-H torsion

> <Gold.Protein.ActiveResidues>
 VAL166  LYS551  ARG553  GLY616  TRP617  ASP618  TYR619  PRO620  LYS621  CYS622 
 ASP623  PHE694  ASN695  SER759  ASP760  ASP761  ALA762  ILE779  LEU786  VAL792 
 PHE793  MET794  SER795  GLU796  ALA797  LYS798  CYS799  TRP800  GLU811  SER814 

> <Gold.Protein.RotatedAtoms>
  152.0410  133.3977  159.4336 H   0  0  0  0  0  0  0  0  0  0  0  0  # atno 6907 bound_to 6896
  150.6875  134.3415  159.4879 H   0  0  0  0  0  0  0  0  0  0  0  0  # atno 6908 bound_to 6896
  152.1213  134.9203  160.0613 H   0  0  0  0  0  0  0  0  0  0  0  0  # atno 6909 bound_to 6896
  144.9631  140.7468  143.4716 H   0  0  0  0  0  0  0  0  0  0  0  0  # atno 7974 bound_to 7965
  154.4234  140.1779  156.1477 H   0  0  0  0  0  0  0  0  0  0  0  0  # atno 8008 bound_to 7997
  155.9940  140.3366  155.6756 H   0  0  0  0  0  0  0  0  0  0  0  0  # atno 8009 bound_to 7997
  155.6334  140.0672  157.2632 H   0  0  0  0  0  0  0  0  0  0  0  0  # atno 8010 bound_to 7997
  139.6240  144.0568  152.1958 H   0  0  0  0  0  0  0  0  0  0  0  0  # atno 10167 bound_to 10162
  156.5260  130.8499  151.2699 H   0  0  0  0  0  0  0  0  0  0  0  0  # atno 10718 bound_to 10713
  153.0516  135.5066  154.7881 H   0  0  0  0  0  0  0  0  0  0  0  0  # atno 10763 bound_to 10752
  154.6738  135.2957  154.9708 H   0  0  0  0  0  0  0  0  0  0  0  0  # atno 10764 bound_to 10752
  154.0517  135.6703  153.4854 H   0  0  0  0  0  0  0  0  0  0  0  0  # atno 10765 bound_to 10752
  141.0103  133.6911  156.2189 H   0  0  0  0  0  0  0  0  0  0  0  0  # atno 11005 bound_to 11000
  145.2670  139.1969  143.4862 LP  0  0  0  0  0  0  0  0  0  0  0  0  # atno 17320 bound_to 7965
  146.3359  140.2609  142.8602 LP  0  0  0  0  0  0  0  0  0  0  0  0  # atno 17321 bound_to 7965
  140.0217  144.6148  150.7561 LP  0  0  0  0  0  0  0  0  0  0  0  0  # atno 17342 bound_to 10162
  140.7400  143.2798  151.3632 LP  0  0  0  0  0  0  0  0  0  0  0  0  # atno 17343 bound_to 10162
  157.7429  130.9901  150.2554 LP  0  0  0  0  0  0  0  0  0  0  0  0  # atno 17370 bound_to 10713
  156.3104  130.3771  149.7666 LP  0  0  0  0  0  0  0  0  0  0  0  0  # atno 17371 bound_to 10713
  140.6744  134.4833  157.5588 LP  0  0  0  0  0  0  0  0  0  0  0  0  # atno 17394 bound_to 11000
  139.9086  134.8394  156.1611 LP  0  0  0  0  0  0  0  0  0  0  0  0  # atno 17395 bound_to 11000

$$$$
