AV-unprocessed.smi:1798|AV-procd|sdf|7259|dock2
  -GOLD-   22720 8513D 1   1.00000     0.00000
 Structure written by MMmdl.
 40 41  0  0  0  0  0  0  0  0  3 V2000
  151.3773  145.4311  160.2369 C   0  0  0  0  0  0  0  0  0  0  0  0
  151.7861  143.9546  160.3360 C   0  0  2  0  0  0  0  0  0  0  0  0
  152.5299  143.6631  161.6533 C   0  0  0  0  0  0  0  0  0  0  0  0
  152.9444  142.1863  161.7557 C   0  0  0  0  0  0  0  0  0  0  0  0
  153.7978  141.7550  160.5460 C   0  0  1  0  0  0  0  0  0  0  0  0
  154.1196  140.3331  160.6224 N   0  0  0  0  0  0  0  0  0  0  0  0
  155.1393  139.7331  159.9897 C   0  0  0  0  0  0  0  0  0  0  0  0
  155.9391  140.3375  159.2737 O   0  0  0  0  0  0  0  0  0  0  0  0
  155.2796  138.2224  160.2262 C   0  0  0  0  0  0  0  0  0  0  0  0
  155.0561  137.8290  161.6277 N   0  0  0  0  0  0  0  0  0  0  0  0
  155.6927  138.6013  162.6195 C   0  0  0  0  0  0  0  0  0  0  0  0
  155.5632  138.3282  163.9326 C   0  0  0  0  0  0  0  0  0  0  0  0
  156.2289  139.1286  164.9369 N   0  3  0  0  0  0  0  0  0  0  0  0
  156.8684  140.1116  164.5766 O   0  0  0  0  0  0  0  0  0  0  0  0
  156.1365  138.8020  166.1164 O   0  5  0  0  0  0  0  0  0  0  0  0
  154.7348  137.1985  164.3077 C   0  0  0  0  0  0  0  0  0  0  0  0
  154.1260  136.4540  163.3638 C   0  0  0  0  0  0  0  0  0  0  0  0
  154.2714  136.7511  161.9351 C   0  0  0  0  0  0  0  0  0  0  0  0
  153.7215  136.0722  161.0677 O   0  0  0  0  0  0  0  0  0  0  0  0
  153.0571  142.0468  159.2284 C   0  0  0  0  0  0  0  0  0  0  0  0
  152.6435  143.5244  159.1304 C   0  0  0  0  0  0  0  0  0  0  0  0
  152.2500  146.0851  160.2356 H   0  0  0  0  0  0  0  0  0  0  0  0
  150.7453  145.7208  161.0768 H   0  0  0  0  0  0  0  0  0  0  0  0
  150.8161  145.6225  159.3221 H   0  0  0  0  0  0  0  0  0  0  0  0
  150.8715  143.3597  160.3273 H   0  0  0  0  0  0  0  0  0  0  0  0
  153.4173  144.2937  161.7233 H   0  0  0  0  0  0  0  0  0  0  0  0
  151.8991  143.9239  162.5038 H   0  0  0  0  0  0  0  0  0  0  0  0
  153.4957  142.0272  162.6832 H   0  0  0  0  0  0  0  0  0  0  0  0
  152.0506  141.5637  161.8181 H   0  0  0  0  0  0  0  0  0  0  0  0
  154.7262  142.3299  160.5456 H   0  0  0  0  0  0  0  0  0  0  0  0
  153.5167  139.7614  161.1963 H   0  0  0  0  0  0  0  0  0  0  0  0
  154.5767  137.7097  159.5682 H   0  0  0  0  0  0  0  0  0  0  0  0
  156.2674  137.8941  159.8969 H   0  0  0  0  0  0  0  0  0  0  0  0
  156.2929  139.4146  162.2379 H   0  0  0  0  0  0  0  0  0  0  0  0
  154.5970  136.9410  165.3475 H   0  0  0  0  0  0  0  0  0  0  0  0
  153.5145  135.6163  163.6652 H   0  0  0  0  0  0  0  0  0  0  0  0
  153.6897  141.7870  158.3788 H   0  0  0  0  0  0  0  0  0  0  0  0
  152.1682  141.4184  159.1556 H   0  0  0  0  0  0  0  0  0  0  0  0
  152.0928  143.6873  158.2034 H   0  0  0  0  0  0  0  0  0  0  0  0
  153.5368  144.1478  159.0711 H   0  0  0  0  0  0  0  0  0  0  0  0
  1  2  1  0  0  0  0
  1 22  1  0  0  0  0
  1 23  1  0  0  0  0
  1 24  1  0  0  0  0
  2 21  1  0  0  0  0
  2  3  1  0  0  0  0
  2 25  1  0  0  0  0
  3  4  1  0  0  0  0
  3 26  1  0  0  0  0
  3 27  1  0  0  0  0
  4  5  1  0  0  0  0
  4 28  1  0  0  0  0
  4 29  1  0  0  0  0
  5  6  1  0  0  0  0
  5 20  1  0  0  0  0
  5 30  1  0  0  0  0
  6  7  1  0  0  0  0
  6 31  1  0  0  0  0
  7  8  2  0  0  0  0
  7  9  1  0  0  0  0
  9 10  1  0  0  0  0
  9 32  1  0  0  0  0
  9 33  1  0  0  0  0
 10 18  1  0  0  0  0
 10 11  1  0  0  0  0
 11 12  2  0  0  0  0
 11 34  1  0  0  0  0
 12 13  1  0  0  0  0
 12 16  1  0  0  0  0
 13 14  2  0  0  0  0
 13 15  1  0  0  0  0
 16 17  2  0  0  0  0
 16 35  1  0  0  0  0
 17 18  1  0  0  0  0
 17 36  1  0  0  0  0
 18 19  2  0  0  0  0
 20 21  1  0  0  0  0
 20 37  1  0  0  0  0
 20 38  1  0  0  0  0
 21 39  1  0  0  0  0
 21 40  1  0  0  0  0
M  CHG  1  13   1
M  CHG  1  15  -1
M  END
> <s_m_source_file>
AV-unprocessed.smi

> <i_m_source_file_index>
1798

> <i_lp_mmshare_version>
43012

> <i_f3d_flags>
0

> <s_epik_input>
W0NIM11bQ0BASF0xW0NIMl1bQ0gyXVtDQEhdKFtDSDJdW0NIMl0xKVtOSF1DKD1PKVtDSDJdbjJbY0hdYyhbTitdKD1PKVtPLV0pW2NIXVtjSF1jMj1P

> <s_epik_cmdline>
J2VwaWtfcHl0aG9uJywgJy1waCcsICc3LjAnLCAnLXRuJywgJzgnLCAnLW1hJywgJzIwMCcsICctbWV0YWxfYmluZGluZycsICctaW1hZScsICc8aW5maWxlLm1hZT4nLCAnLW9tYWUnLCAnPG91dGZpbGUubWFlPic=

> <r_lp_tautomer_probability>
1

> <r_epik_Ionization_Penalty>
1.91292e-08

> <r_epik_Ionization_Penalty_Charging>
8.23013e-11

> <r_epik_Ionization_Penalty_Neutral>
1.90469e-08

> <r_epik_State_Penalty>
-0

> <r_epik_Charging_Adjusted_Penalty>
8.23013e-11

> <i_epik_Tot_Q>
0

> <i_epik_Tot_abs_Q>
2

> <r_epik_Metal_State_Penalty>
-0

> <b_epik_Metal_Only>
0

> <s_lp_Force_Field>
OPLS_2005

> <r_lp_Energy>
19.9033

> <b_lp_Chiralities_Consistent>
1

> <s_lp_Variant>
AV-unprocessed.smi:1798-1

> <Gold.Version>
5.8.1

> <Gold.Id.Protein>
6NUR|6NUR_protein|mol2

> <Gold.PLP.Fitness>
49.3940

> <Gold.PLP.PLP>
-45.9622

> <Gold.PLP.part.hbond>
-2.3449

> <Gold.PLP.part.metal>
0.0000

> <Gold.PLP.part.buried>
-5.3293

> <Gold.PLP.part.nonpolar>
-39.4824

> <Gold.PLP.part.repulsive>
0.1515

> <Gold.PLP.ligand.clash>
0.0000

> <Gold.PLP.ligand.torsion>
0.7051

> <Gold.PLP.Chemscore.Hbond>
1.6106

> <Gold.PLP.Chemscore.CHOScore>
0.0000

> <Gold.PLP.Chemscore.Metal>
0.0000

> <Gold.Chemscore.Hbonds>
donor molecule, donor type, donor heavy atom, donor atom, acceptor molecule, acceptor atom, score
      P1  H  6896  6909       L1    19  0.78
      P1  H  7997  8010       L1     8  0.90

> <Gold.PLP.Chemscore.Internal.Correction>
0.0103

> <Gold.Rescore>
     Score         DG    S(hbond)    S(metal)    S(lipo)     H(rot)  DE(clash)    DE(int)     intcor
     19.78     -20.39       1.85        0.00     108.69       1.55       0.16       0.45       ----

> <Gold.Chemscore.Fitness>
19.7836

> <Gold.Chemscore.DG>
-20.3924

> <Gold.Chemscore.ZeroCoef>
-5.4800

> <Gold.Chemscore.Hbond>
1.8456

> <Gold.Chemscore.Metal>
0.0000

> <Gold.Chemscore.Lipo>
108.6944

> <Gold.Chemscore.Internal_Hbond>
0.0000

> <Gold.Chemscore.DEClash>
0.1617

> <Gold.Chemscore.DEInternal>
0.4470

> <Gold.Chemscore.Rot>
1.5505

> <Gold.Chemscore.Internal.Correction>
   9.000000E+99

> <Gold.Chemscore.Hbonds>
donor molecule, donor type, donor heavy atom, donor atom, acceptor molecule, acceptor atom, score
      P1  H  6896  6909       L1    19  0.76
      P1  H  7997  8010       L1     8  0.72

> <Gold.Chemscore.Hbond.Weighted>
-6.1643

> <Gold.Chemscore.Metal.Weighted>
-0.0000

> <Gold.Chemscore.Lipo.Weighted>
-12.7172

> <Gold.Chemscore.Internal_Hbond.Weighted>
0.0000

> <Gold.Chemscore.DEClash.Weighted>
0.1617

> <Gold.Chemscore.DEInternal.Weighted>
0.4470

> <Gold.Chemscore.Rot.Weighted>
3.9692

> <Gold.Chemscore.Internal.Correction.Weighted>
   9.000000E+99

> <Gold.Protein.RotatedTorsions>
[ 6907 6896 6895 6894 ] final  164.29 input  -60.11 | X-H torsion
[ 7974 7965 7964 7962 ] final   87.62 input  175.53 | X-H torsion
[ 8008 7997 7996 7995 ] final  -27.62 input   59.86 | X-H torsion
[ 10167 10162 10161 10158 ] final  -72.33 input  -65.29 | X-H torsion
[ 10718 10713 10712 10709 ] final   34.89 input   66.30 | X-H torsion
[ 10763 10752 10751 10750 ] final -116.28 input  -60.55 | X-H torsion
[ 11005 11000 10999 10996 ] final   25.09 input  -57.11 | X-H torsion

> <Gold.Protein.ActiveResidues>
 VAL166  LYS551  ARG553  GLY616  TRP617  ASP618  TYR619  PRO620  LYS621  CYS622 
 ASP623  PHE694  ASN695  SER759  ASP760  ASP761  ALA762  ILE779  LEU786  VAL792 
 PHE793  MET794  SER795  GLU796  ALA797  LYS798  CYS799  TRP800  GLU811  SER814 

> <Gold.Protein.RotatedAtoms>
  151.9121  133.3564  159.3866 H   0  0  0  0  0  0  0  0  0  0  0  0  # atno 6907 bound_to 6896
  150.7056  134.4722  159.5440 H   0  0  0  0  0  0  0  0  0  0  0  0  # atno 6908 bound_to 6896
  152.2330  134.8304  160.0522 H   0  0  0  0  0  0  0  0  0  0  0  0  # atno 6909 bound_to 6896
  145.5566  139.2300  143.2483 H   0  0  0  0  0  0  0  0  0  0  0  0  # atno 7974 bound_to 7965
  154.4369  140.1867  156.0960 H   0  0  0  0  0  0  0  0  0  0  0  0  # atno 8008 bound_to 7997
  156.0328  140.3328  155.7133 H   0  0  0  0  0  0  0  0  0  0  0  0  # atno 8009 bound_to 7997
  155.5813  140.0622  157.2773 H   0  0  0  0  0  0  0  0  0  0  0  0  # atno 8010 bound_to 7997
  140.5201  143.2333  151.7445 H   0  0  0  0  0  0  0  0  0  0  0  0  # atno 10167 bound_to 10162
  157.3159  130.7423  149.6754 H   0  0  0  0  0  0  0  0  0  0  0  0  # atno 10718 bound_to 10713
  154.8513  135.4351  154.1796 H   0  0  0  0  0  0  0  0  0  0  0  0  # atno 10763 bound_to 10752
  153.2890  135.6960  153.7317 H   0  0  0  0  0  0  0  0  0  0  0  0  # atno 10764 bound_to 10752
  153.6492  135.3454  155.3069 H   0  0  0  0  0  0  0  0  0  0  0  0  # atno 10765 bound_to 10752
  140.3516  134.2222  155.7679 H   0  0  0  0  0  0  0  0  0  0  0  0  # atno 11005 bound_to 11000
  146.1880  140.6390  142.9158 LP  0  0  0  0  0  0  0  0  0  0  0  0  # atno 17320 bound_to 7965
  144.7503  140.5174  143.6806 LP  0  0  0  0  0  0  0  0  0  0  0  0  # atno 17321 bound_to 7965
  139.4921  144.4267  151.9918 LP  0  0  0  0  0  0  0  0  0  0  0  0  # atno 17342 bound_to 10162
  140.3363  144.3256  150.5976 LP  0  0  0  0  0  0  0  0  0  0  0  0  # atno 17343 bound_to 10162
  155.9681  130.4237  150.4576 LP  0  0  0  0  0  0  0  0  0  0  0  0  # atno 17370 bound_to 10713
  157.2583  131.0561  151.2336 LP  0  0  0  0  0  0  0  0  0  0  0  0  # atno 17371 bound_to 10713
  141.2010  133.7973  157.0460 LP  0  0  0  0  0  0  0  0  0  0  0  0  # atno 17394 bound_to 11000
  140.0698  134.9708  157.1448 LP  0  0  0  0  0  0  0  0  0  0  0  0  # atno 17395 bound_to 11000

$$$$
