AV-unprocessed.smi:207|AV-procd|sdf|1602|dock1
  -GOLD-   2262019513D 1   1.00000     0.00000
 Structure written by MMmdl.
 55 58  0  0  0  0  0  0  0  0  1 V2000
  146.2471  132.1477  149.5686 C   0  0  0  0  0  0  0  0  0  0  0  0
  145.5457  132.5570  150.8800 C   0  0  0  0  0  0  0  0  0  0  0  0
  145.3566  131.2614  151.7144 C   0  0  0  0  0  0  0  0  0  0  0  0
  146.5534  133.4721  151.6262 C   0  0  0  0  0  0  0  0  0  0  0  0
  145.9869  134.0057  152.8660 N   0  0  0  0  0  0  0  0  0  0  0  0
  146.8320  134.5923  153.7512 C   0  0  0  0  0  0  0  0  0  0  0  0
  147.7729  133.8471  154.3912 N   0  0  0  0  0  0  0  0  0  0  0  0
  148.6180  134.4206  155.2525 C   0  0  0  0  0  0  0  0  0  0  0  0
  148.6933  135.7011  155.6192 N   0  0  0  0  0  0  0  0  0  0  0  0
  147.7447  136.4533  154.9921 C   0  0  0  0  0  0  0  0  0  0  0  0
  146.7858  135.9835  154.0500 C   0  0  0  0  0  0  0  0  0  0  0  0
  145.9840  137.0370  153.6275 N   0  0  0  0  0  0  0  0  0  0  0  0
  146.4491  138.0708  154.2734 C   0  0  0  0  0  0  0  0  0  0  0  0
  147.4999  137.8095  155.1245 N   0  0  0  0  0  0  0  0  0  0  0  0
  148.1989  138.7744  155.9613 C   0  0  0  0  0  0  0  0  0  0  0  0
  149.1342  139.7295  155.1890 C   0  0  0  0  0  0  0  0  0  0  0  0
  148.3250  140.7820  154.4102 C   0  0  0  0  0  0  0  0  0  0  0  0
  149.0588  141.2914  153.3148 O   0  0  0  0  0  0  0  0  0  0  0  0
  150.3167  140.3024  155.9844 C   0  0  0  0  0  0  0  0  0  0  0  0
  151.2625  139.9091  154.9685 O   0  0  0  0  0  0  0  0  0  0  0  0
  150.2553  139.0573  154.3836 C   0  0  0  0  0  0  0  0  0  0  0  0
  144.7336  134.7215  152.6574 C   0  0  0  0  0  0  0  0  0  0  0  0
  143.7376  133.8341  151.8972 C   0  0  0  0  0  0  0  0  0  0  0  0
  144.2874  133.3207  150.6374 N   0  0  0  0  0  0  0  0  0  0  0  0
  143.2504  132.6312  149.8534 C   0  0  0  0  0  0  0  0  0  0  0  0
  143.4746  132.6355  148.3311 C   0  0  0  0  0  0  0  0  0  0  0  0
  143.3916  133.9591  147.8495 O   0  0  0  0  0  0  0  0  0  0  0  0
  147.2459  131.7526  149.7592 H   0  0  0  0  0  0  0  0  0  0  0  0
  146.3598  132.9966  148.8932 H   0  0  0  0  0  0  0  0  0  0  0  0
  145.7023  131.3623  149.0452 H   0  0  0  0  0  0  0  0  0  0  0  0
  146.3160  130.7763  151.8971 H   0  0  0  0  0  0  0  0  0  0  0  0
  144.7318  130.5269  151.2081 H   0  0  0  0  0  0  0  0  0  0  0  0
  144.9160  131.4481  152.6929 H   0  0  0  0  0  0  0  0  0  0  0  0
  147.4648  132.9161  151.8517 H   0  0  0  0  0  0  0  0  0  0  0  0
  146.8428  134.3066  150.9850 H   0  0  0  0  0  0  0  0  0  0  0  0
  149.3360  133.7587  155.7139 H   0  0  0  0  0  0  0  0  0  0  0  0
  146.0291  139.0585  154.1506 H   0  0  0  0  0  0  0  0  0  0  0  0
  147.4477  139.3391  156.5148 H   0  0  0  0  0  0  0  0  0  0  0  0
  148.7606  138.2238  156.7170 H   0  0  0  0  0  0  0  0  0  0  0  0
  147.3763  140.3811  154.0528 H   0  0  0  0  0  0  0  0  0  0  0  0
  148.0698  141.6225  155.0567 H   0  0  0  0  0  0  0  0  0  0  0  0
  149.1546  140.6061  152.6716 H   0  0  0  0  0  0  0  0  0  0  0  0
  150.2755  141.3828  156.1287 H   0  0  0  0  0  0  0  0  0  0  0  0
  150.5140  139.7910  156.9276 H   0  0  0  0  0  0  0  0  0  0  0  0
  150.4155  138.0080  154.6374 H   0  0  0  0  0  0  0  0  0  0  0  0
  150.1704  139.1875  153.3040 H   0  0  0  0  0  0  0  0  0  0  0  0
  144.2899  135.0345  153.6018 H   0  0  0  0  0  0  0  0  0  0  0  0
  144.9359  135.6292  152.0868 H   0  0  0  0  0  0  0  0  0  0  0  0
  143.4018  133.0138  152.5316 H   0  0  0  0  0  0  0  0  0  0  0  0
  142.8498  134.4331  151.6911 H   0  0  0  0  0  0  0  0  0  0  0  0
  143.1015  131.6131  150.2090 H   0  0  0  0  0  0  0  0  0  0  0  0
  142.2912  133.1246  150.0169 H   0  0  0  0  0  0  0  0  0  0  0  0
  144.4613  132.2370  148.0929 H   0  0  0  0  0  0  0  0  0  0  0  0
  142.7469  132.0331  147.7931 H   0  0  0  0  0  0  0  0  0  0  0  0
  144.2431  134.2164  147.5300 H   0  0  0  0  0  0  0  0  0  0  0  0
  1  2  1  0  0  0  0
  1 28  1  0  0  0  0
  1 29  1  0  0  0  0
  1 30  1  0  0  0  0
  2 24  1  0  0  0  0
  2  3  1  0  0  0  0
  2  4  1  0  0  0  0
  3 31  1  0  0  0  0
  3 32  1  0  0  0  0
  3 33  1  0  0  0  0
  4  5  1  0  0  0  0
  4 34  1  0  0  0  0
  4 35  1  0  0  0  0
  5  6  1  0  0  0  0
  5 22  1  0  0  0  0
  6 11  1  0  0  0  0
  6  7  2  0  0  0  0
  7  8  1  0  0  0  0
  8  9  2  0  0  0  0
  8 36  1  0  0  0  0
  9 10  1  0  0  0  0
 10 14  1  0  0  0  0
 10 11  2  0  0  0  0
 11 12  1  0  0  0  0
 12 13  2  0  0  0  0
 13 14  1  0  0  0  0
 13 37  1  0  0  0  0
 14 15  1  0  0  0  0
 15 16  1  0  0  0  0
 15 38  1  0  0  0  0
 15 39  1  0  0  0  0
 16 21  1  0  0  0  0
 16 17  1  0  0  0  0
 16 19  1  0  0  0  0
 17 18  1  0  0  0  0
 17 40  1  0  0  0  0
 17 41  1  0  0  0  0
 18 42  1  0  0  0  0
 19 20  1  0  0  0  0
 19 43  1  0  0  0  0
 19 44  1  0  0  0  0
 20 21  1  0  0  0  0
 21 45  1  0  0  0  0
 21 46  1  0  0  0  0
 22 23  1  0  0  0  0
 22 47  1  0  0  0  0
 22 48  1  0  0  0  0
 23 24  1  0  0  0  0
 23 49  1  0  0  0  0
 23 50  1  0  0  0  0
 24 25  1  0  0  0  0
 25 26  1  0  0  0  0
 25 51  1  0  0  0  0
 25 52  1  0  0  0  0
 26 27  1  0  0  0  0
 26 53  1  0  0  0  0
 26 54  1  0  0  0  0
 27 55  1  0  0  0  0
M  END
> <s_m_source_file>
AV-unprocessed.smi

> <i_m_source_file_index>
207

> <i_lp_mmshare_version>
43012

> <i_f3d_flags>
0

> <s_epik_input>
W09IXVtDSDJdW0NIMl1OMVtDSDJdW0NIMl1OKFtDSDJdQzEoW0NIM10pW0NIM10pYyhuW2NIXW4yKWMoYzIzKW5bY0hdbjNbQ0gyXUM0KFtDSDJdW09IXSlbQ0gyXU9bQ0gyXTQ=

> <s_epik_cmdline>
J2VwaWtfcHl0aG9uJywgJy1waCcsICc3LjAnLCAnLXRuJywgJzgnLCAnLW1hJywgJzIwMCcsICctbWV0YWxfYmluZGluZycsICctaW1hZScsICc8aW5maWxlLm1hZT4nLCAnLW9tYWUnLCAnPG91dGZpbGUubWFlPic=

> <r_lp_tautomer_probability>
1

> <r_epik_Ionization_Penalty>
0.411763

> <r_epik_Ionization_Penalty_Charging>
0

> <r_epik_Ionization_Penalty_Neutral>
0.411763

> <r_epik_State_Penalty>
0.407012

> <r_epik_Charging_Adjusted_Penalty>
0.407012

> <i_epik_Tot_Q>
0

> <i_epik_Tot_abs_Q>
0

> <r_epik_Metal_State_Penalty>
0.401279

> <b_epik_Metal_Only>
0

> <s_lp_Force_Field>
OPLS_2005

> <r_lp_Energy>
76.2772

> <b_lp_Chiralities_Consistent>
1

> <s_lp_Variant>
AV-unprocessed.smi:207-1

> <Gold.Version>
5.8.1

> <Gold.Id.Protein>
6NUR|6NUR_protein|mol2

> <Gold.PLP.Fitness>
51.4545

> <Gold.PLP.PLP>
-39.1035

> <Gold.PLP.part.hbond>
-7.3284

> <Gold.PLP.part.metal>
0.0000

> <Gold.PLP.part.buried>
-2.6353

> <Gold.PLP.part.nonpolar>
-30.9387

> <Gold.PLP.part.repulsive>
0.5711

> <Gold.PLP.ligand.clash>
0.0000

> <Gold.PLP.ligand.torsion>
1.4107

> <Gold.PLP.Chemscore.Hbond>
4.8000

> <Gold.PLP.Chemscore.CHOScore>
0.0000

> <Gold.PLP.Chemscore.Metal>
0.0000

> <Gold.Chemscore.Hbonds>
donor molecule, donor type, donor heavy atom, donor atom, acceptor molecule, acceptor atom, score
      L1  H    18    42       P1  7957  1.00
      L1  H    27    55       P1  7921  1.00
      P1  H  7989  7998       L1    20  0.90
      P1  H  8011  8017       L1    18  0.60
      P1  H 10192 10197       L1    27  1.00

> <Gold.PLP.Chemscore.Internal.Correction>
0.7725

> <Gold.Rescore>
     Score         DG    S(hbond)    S(metal)    S(lipo)     H(rot)  DE(clash)    DE(int)     intcor
     12.29     -18.42       3.30        0.00      98.17       3.74       1.61       4.52       ----

> <Gold.Chemscore.Fitness>
12.2867

> <Gold.Chemscore.DG>
-18.4207

> <Gold.Chemscore.ZeroCoef>
-5.4800

> <Gold.Chemscore.Hbond>
3.3045

> <Gold.Chemscore.Metal>
0.0000

> <Gold.Chemscore.Lipo>
98.1721

> <Gold.Chemscore.Internal_Hbond>
0.0000

> <Gold.Chemscore.DEClash>
1.6116

> <Gold.Chemscore.DEInternal>
4.5224

> <Gold.Chemscore.Rot>
3.7432

> <Gold.Chemscore.Internal.Correction>
   9.000000E+99

> <Gold.Chemscore.Hbonds>
donor molecule, donor type, donor heavy atom, donor atom, acceptor molecule, acceptor atom, score
      L1  H    18    42       P1  7957  0.96
      L1  H    27    55       P1  7921  0.98
      P1  H  7989  7998       L1    20  0.18
      P1  H  8011  8017       L1    18  0.04
      P1  H 10192 10197       L1    27  0.74

> <Gold.Chemscore.Hbond.Weighted>
-11.0371

> <Gold.Chemscore.Metal.Weighted>
-0.0000

> <Gold.Chemscore.Lipo.Weighted>
-11.4861

> <Gold.Chemscore.Internal_Hbond.Weighted>
0.0000

> <Gold.Chemscore.DEClash.Weighted>
1.6116

> <Gold.Chemscore.DEInternal.Weighted>
4.5224

> <Gold.Chemscore.Rot.Weighted>
9.5825

> <Gold.Chemscore.Internal.Correction.Weighted>
   9.000000E+99

> <Gold.Protein.RotatedTorsions>
[ 6907 6896 6895 6894 ] final   77.14 input  -60.11 | X-H torsion
[ 7974 7965 7964 7962 ] final  138.89 input  175.53 | X-H torsion
[ 8008 7997 7996 7995 ] final  148.97 input   59.86 | X-H torsion
[ 10167 10162 10161 10158 ] final  114.99 input  -65.29 | X-H torsion
[ 10718 10713 10712 10709 ] final  -89.19 input   66.30 | X-H torsion
[ 10763 10752 10751 10750 ] final  -84.37 input  -60.55 | X-H torsion
[ 11005 11000 10999 10996 ] final  -86.04 input  -57.11 | X-H torsion

> <Gold.Protein.ActiveResidues>
 VAL166  LYS551  ARG553  GLY616  TRP617  ASP618  TYR619  PRO620  LYS621  CYS622 
 ASP623  PHE694  ASN695  SER759  ASP760  ASP761  ALA762  ILE779  LEU786  VAL792 
 PHE793  MET794  SER795  GLU796  ALA797  LYS798  CYS799  TRP800  GLU811  SER814 

> <Gold.Protein.RotatedAtoms>
  152.5104  134.3862  159.9368 H   0  0  0  0  0  0  0  0  0  0  0  0  # atno 6907 bound_to 6896
  151.3821  133.3811  159.2719 H   0  0  0  0  0  0  0  0  0  0  0  0  # atno 6908 bound_to 6896
  150.9497  134.8918  159.7723 H   0  0  0  0  0  0  0  0  0  0  0  0  # atno 6909 bound_to 6896
  144.9329  139.5024  143.5609 H   0  0  0  0  0  0  0  0  0  0  0  0  # atno 7974 bound_to 7965
  156.2772  140.2114  156.5783 H   0  0  0  0  0  0  0  0  0  0  0  0  # atno 8008 bound_to 7997
  154.7079  140.0515  157.0545 H   0  0  0  0  0  0  0  0  0  0  0  0  # atno 8009 bound_to 7997
  155.0645  140.3170  155.4653 H   0  0  0  0  0  0  0  0  0  0  0  0  # atno 8010 bound_to 7997
  139.6349  144.7119  151.2356 H   0  0  0  0  0  0  0  0  0  0  0  0  # atno 10167 bound_to 10162
  155.9984  130.4863  150.5134 H   0  0  0  0  0  0  0  0  0  0  0  0  # atno 10718 bound_to 10713
  154.5987  135.5523  153.7352 H   0  0  0  0  0  0  0  0  0  0  0  0  # atno 10763 bound_to 10752
  153.0146  135.6361  154.1745 H   0  0  0  0  0  0  0  0  0  0  0  0  # atno 10764 bound_to 10752
  154.1685  135.2893  155.3068 H   0  0  0  0  0  0  0  0  0  0  0  0  # atno 10765 bound_to 10752
  141.1634  133.7433  156.9104 H   0  0  0  0  0  0  0  0  0  0  0  0  # atno 11005 bound_to 11000
  146.3255  139.8293  142.8911 LP  0  0  0  0  0  0  0  0  0  0  0  0  # atno 17320 bound_to 7965
  145.3112  141.0220  143.3553 LP  0  0  0  0  0  0  0  0  0  0  0  0  # atno 17321 bound_to 7965
  140.7459  143.6415  150.8331 LP  0  0  0  0  0  0  0  0  0  0  0  0  # atno 17342 bound_to 10162
  140.0044  143.5709  152.2863 LP  0  0  0  0  0  0  0  0  0  0  0  0  # atno 17343 bound_to 10162
  157.3104  131.0662  151.2005 LP  0  0  0  0  0  0  0  0  0  0  0  0  # atno 17370 bound_to 10713
  157.2953  130.6816  149.6135 LP  0  0  0  0  0  0  0  0  0  0  0  0  # atno 17371 bound_to 10713
  140.1521  134.9223  157.2606 LP  0  0  0  0  0  0  0  0  0  0  0  0  # atno 17394 bound_to 11000
  140.2711  134.3460  155.7373 LP  0  0  0  0  0  0  0  0  0  0  0  0  # atno 17395 bound_to 11000

$$$$
