AV-unprocessed.smi:3068|AV-procd|sdf|11702|dock2
  -GOLD-   2272017103D 1   1.00000     0.00000
 Structure written by MMmdl.
 40 42  0  0  0  0  0  0  0  0  2 V2000
  151.6785  132.7540  157.5791 N   0  0  0  0  0  0  0  0  0  0  0  0
  151.1991  132.0677  156.7801 C   0  0  0  0  0  0  0  0  0  0  0  0
  150.5948  131.2016  155.7758 C   0  0  0  0  0  0  0  0  0  0  0  0
  151.3468  130.1688  155.3297 N   0  0  0  0  0  0  0  0  0  0  0  0
  150.7985  129.3627  154.3956 C   0  0  0  0  0  0  0  0  0  0  0  0
  149.4975  129.5828  153.9032 C   0  0  0  0  0  0  0  0  0  0  0  0
  148.7398  130.6099  154.3430 N   0  0  0  0  0  0  0  0  0  0  0  0
  149.2799  131.4288  155.2802 C   0  0  0  0  0  0  0  0  0  0  0  0
  148.5002  132.5019  155.7471 N   0  0  0  0  0  0  0  0  0  0  0  0
  147.2413  132.8378  155.0968 C   0  0  0  0  0  0  0  0  0  0  0  0
  147.4611  133.3482  153.6664 C   0  0  2  0  0  0  0  0  0  0  0  0
  146.3974  134.3886  153.2702 C   0  0  0  0  0  0  0  0  0  0  0  0
  146.5652  134.7963  151.8531 N   0  3  2  0  0  0  0  0  0  0  0  0
  145.6040  135.8397  151.4096 C   0  0  0  0  0  0  0  0  0  0  0  0
  144.1901  135.2705  151.1830 C   0  0  0  0  0  0  0  0  0  0  0  0
  144.2225  134.0809  150.2136 C   0  0  0  0  0  0  0  0  0  0  0  0
  145.2173  133.0187  150.7024 C   0  0  0  0  0  0  0  0  0  0  0  0
  146.6176  133.6310  150.9277 C   0  0  2  0  0  0  0  0  0  0  0  0
  147.6435  132.5979  151.4322 C   0  0  0  0  0  0  0  0  0  0  0  0
  147.3587  132.2396  152.7787 O   0  0  0  0  0  0  0  0  0  0  0  0
  151.4000  128.5393  154.0401 H   0  0  0  0  0  0  0  0  0  0  0  0
  149.0638  128.9351  153.1555 H   0  0  0  0  0  0  0  0  0  0  0  0
  148.9221  133.1839  156.3615 H   0  0  0  0  0  0  0  0  0  0  0  0
  146.5866  131.9650  155.0875 H   0  0  0  0  0  0  0  0  0  0  0  0
  146.7435  133.6091  155.6862 H   0  0  0  0  0  0  0  0  0  0  0  0
  148.4549  133.7947  153.5921 H   0  0  0  0  0  0  0  0  0  0  0  0
  145.4005  133.9781  153.4329 H   0  0  0  0  0  0  0  0  0  0  0  0
  146.4838  135.2676  153.9099 H   0  0  0  0  0  0  0  0  0  0  0  0
  145.5773  136.6545  152.1340 H   0  0  0  0  0  0  0  0  0  0  0  0
  145.9739  136.2698  150.4779 H   0  0  0  0  0  0  0  0  0  0  0  0
  143.7516  134.9610  152.1322 H   0  0  0  0  0  0  0  0  0  0  0  0
  143.5373  136.0500  150.7891 H   0  0  0  0  0  0  0  0  0  0  0  0
  143.2268  133.6477  150.1162 H   0  0  0  0  0  0  0  0  0  0  0  0
  144.5115  134.4251  149.2197 H   0  0  0  0  0  0  0  0  0  0  0  0
  144.8473  132.5650  151.6224 H   0  0  0  0  0  0  0  0  0  0  0  0
  145.2776  132.2125  149.9706 H   0  0  0  0  0  0  0  0  0  0  0  0
  146.9715  134.0012  149.9644 H   0  0  0  0  0  0  0  0  0  0  0  0
  147.6199  131.7018  150.8115 H   0  0  0  0  0  0  0  0  0  0  0  0
  148.6568  132.9971  151.3645 H   0  0  0  0  0  0  0  0  0  0  0  0
  147.4786  135.2254  151.8094 H   0  0  0  0  0  0  0  0  0  0  0  0
  1  2  3  0  0  0  0
  2  3  1  0  0  0  0
  3  8  1  0  0  0  0
  3  4  2  0  0  0  0
  4  5  1  0  0  0  0
  5  6  2  0  0  0  0
  5 21  1  0  0  0  0
  6  7  1  0  0  0  0
  6 22  1  0  0  0  0
  7  8  2  0  0  0  0
  8  9  1  0  0  0  0
  9 10  1  0  0  0  0
  9 23  1  0  0  0  0
 10 11  1  0  0  0  0
 10 24  1  0  0  0  0
 10 25  1  0  0  0  0
 11 20  1  0  0  0  0
 11 12  1  0  0  0  0
 11 26  1  0  0  0  0
 12 13  1  0  0  0  0
 12 27  1  0  0  0  0
 12 28  1  0  0  0  0
 13 18  1  0  0  0  0
 13 14  1  0  0  0  0
 13 40  1  0  0  0  0
 14 15  1  0  0  0  0
 14 29  1  0  0  0  0
 14 30  1  0  0  0  0
 15 16  1  0  0  0  0
 15 31  1  0  0  0  0
 15 32  1  0  0  0  0
 16 17  1  0  0  0  0
 16 33  1  0  0  0  0
 16 34  1  0  0  0  0
 17 18  1  0  0  0  0
 17 35  1  0  0  0  0
 17 36  1  0  0  0  0
 18 19  1  0  0  0  0
 18 37  1  0  0  0  0
 19 20  1  0  0  0  0
 19 38  1  0  0  0  0
 19 39  1  0  0  0  0
M  CHG  1  13   1
M  END
> <s_m_source_file>
AV-unprocessed.smi

> <i_m_source_file_index>
3068

> <i_lp_mmshare_version>
43012

> <i_f3d_flags>
0

> <s_epik_input>
TiNDYzFuW2NIXVtjSF1uYzFbTkhdW0NIMl1bQ0BIXShbQ0gyXTIpT1tDSDJdW0NAQEhdKE4yMylbQ0gyXVtDSDJdW0NIMl1bQ0gyXTM=

> <s_epik_cmdline>
J2VwaWtfcHl0aG9uJywgJy1waCcsICc3LjAnLCAnLXRuJywgJzgnLCAnLW1hJywgJzIwMCcsICctbWV0YWxfYmluZGluZycsICctaW1hZScsICc8aW5maWxlLm1hZT4nLCAnLW9tYWUnLCAnPG91dGZpbGUubWFlPic=

> <r_epik_Ionization_Penalty>
0.0804321

> <r_epik_Ionization_Penalty_Charging>
0.0803403

> <r_epik_Ionization_Penalty_Neutral>
9.17277e-05

> <r_epik_State_Penalty>
0.0711481

> <r_epik_Charging_Adjusted_Penalty>
0.151488

> <i_epik_Tot_Q>
1

> <i_epik_Tot_abs_Q>
1

> <r_epik_Metal_State_Penalty>
0.0711481

> <b_epik_Metal_Only>
0

> <s_lp_Force_Field>
OPLS_2005

> <r_lp_Energy>
39.3749

> <b_lp_Chiralities_Consistent>
1

> <s_lp_Variant>
AV-unprocessed.smi:3068-5

> <Gold.Version>
5.8.1

> <Gold.Id.Protein>
6NUR|6NUR_protein|mol2

> <Gold.PLP.Fitness>
36.7493

> <Gold.PLP.PLP>
-25.6735

> <Gold.PLP.part.hbond>
-2.0000

> <Gold.PLP.part.metal>
0.0000

> <Gold.PLP.part.buried>
-1.1582

> <Gold.PLP.part.nonpolar>
-23.5725

> <Gold.PLP.part.repulsive>
0.2490

> <Gold.PLP.ligand.clash>
0.0000

> <Gold.PLP.ligand.torsion>
0.4627

> <Gold.PLP.Chemscore.Hbond>
3.0000

> <Gold.PLP.Chemscore.CHOScore>
1.0000

> <Gold.PLP.Chemscore.Metal>
0.0000

> <Gold.Chemscore.Hbonds>
donor molecule, donor type, donor heavy atom, donor atom, acceptor molecule, acceptor atom, score
      L1  H    13    40       P1  7948  2.00
      P1  H  6896  6907       L1     1  1.00
      L1  C     5    21       P1 10737  1.00

> <Gold.PLP.Chemscore.Internal.Correction>
0.0012

> <Gold.Rescore>
     Score         DG    S(hbond)    S(metal)    S(lipo)     H(rot)  DE(clash)    DE(int)     intcor
     12.36     -16.11       1.94        0.00      64.35       1.32       1.76       2.00       ----

> <Gold.Chemscore.Fitness>
12.3579

> <Gold.Chemscore.DG>
-16.1147

> <Gold.Chemscore.ZeroCoef>
-5.4800

> <Gold.Chemscore.Hbond>
1.9411

> <Gold.Chemscore.Metal>
0.0000

> <Gold.Chemscore.Lipo>
64.3498

> <Gold.Chemscore.Internal_Hbond>
0.0000

> <Gold.Chemscore.DEClash>
1.7595

> <Gold.Chemscore.DEInternal>
1.9973

> <Gold.Chemscore.Rot>
1.3193

> <Gold.Chemscore.Internal.Correction>
   9.000000E+99

> <Gold.Chemscore.Hbonds>
donor molecule, donor type, donor heavy atom, donor atom, acceptor molecule, acceptor atom, score
      L1  H    13    40       P1  7948  0.94
      P1  H  6896  6907       L1     1  0.94

> <Gold.Chemscore.Hbond.Weighted>
-6.4832

> <Gold.Chemscore.Metal.Weighted>
-0.0000

> <Gold.Chemscore.Lipo.Weighted>
-7.5289

> <Gold.Chemscore.Internal_Hbond.Weighted>
0.0000

> <Gold.Chemscore.DEClash.Weighted>
1.7595

> <Gold.Chemscore.DEInternal.Weighted>
1.9973

> <Gold.Chemscore.Rot.Weighted>
3.3774

> <Gold.Chemscore.Internal.Correction.Weighted>
   9.000000E+99

> <Gold.Protein.RotatedTorsions>
[ 6907 6896 6895 6894 ] final -173.80 input  -60.11 | X-H torsion
[ 7974 7965 7964 7962 ] final   20.45 input  175.53 | X-H torsion
[ 8008 7997 7996 7995 ] final   81.05 input   59.86 | X-H torsion
[ 10167 10162 10161 10158 ] final  -70.56 input  -65.29 | X-H torsion
[ 10718 10713 10712 10709 ] final  -53.41 input   66.30 | X-H torsion
[ 10763 10752 10751 10750 ] final  -19.89 input  -60.55 | X-H torsion
[ 11005 11000 10999 10996 ] final  -72.69 input  -57.11 | X-H torsion

> <Gold.Protein.ActiveResidues>
 VAL166  LYS551  ARG553  GLY616  TRP617  ASP618  TYR619  PRO620  LYS621  CYS622 
 ASP623  PHE694  ASN695  SER759  ASP760  ASP761  ALA762  ILE779  LEU786  VAL792 
 PHE793  MET794  SER795  GLU796  ALA797  LYS798  CYS799  TRP800  GLU811  SER814 

> <Gold.Protein.RotatedAtoms>
  151.5620  133.3402  159.2972 H   0  0  0  0  0  0  0  0  0  0  0  0  # atno 6907 bound_to 6896
  150.8417  134.7714  159.6949 H   0  0  0  0  0  0  0  0  0  0  0  0  # atno 6908 bound_to 6896
  152.4483  134.5455  159.9903 H   0  0  0  0  0  0  0  0  0  0  0  0  # atno 6909 bound_to 6896
  146.2111  139.8168  142.8688 H   0  0  0  0  0  0  0  0  0  0  0  0  # atno 7974 bound_to 7965
  155.8918  140.3438  155.5962 H   0  0  0  0  0  0  0  0  0  0  0  0  # atno 8008 bound_to 7997
  155.7602  140.0831  157.2178 H   0  0  0  0  0  0  0  0  0  0  0  0  # atno 8009 bound_to 7997
  154.4034  140.1537  156.2811 H   0  0  0  0  0  0  0  0  0  0  0  0  # atno 8010 bound_to 7997
  140.5343  143.2319  151.7206 H   0  0  0  0  0  0  0  0  0  0  0  0  # atno 10167 bound_to 10162
  156.1538  130.4151  149.9902 H   0  0  0  0  0  0  0  0  0  0  0  0  # atno 10718 bound_to 10713
  153.6119  135.6996  153.5343 H   0  0  0  0  0  0  0  0  0  0  0  0  # atno 10763 bound_to 10752
  153.3009  135.4129  155.1251 H   0  0  0  0  0  0  0  0  0  0  0  0  # atno 10764 bound_to 10752
  154.8561  135.3648  154.5658 H   0  0  0  0  0  0  0  0  0  0  0  0  # atno 10765 bound_to 10752
  141.1612  133.6854  156.7097 H   0  0  0  0  0  0  0  0  0  0  0  0  # atno 11005 bound_to 11000
  145.3137  141.0226  143.3539 LP  0  0  0  0  0  0  0  0  0  0  0  0  # atno 17320 bound_to 7965
  144.8917  139.4766  143.6675 LP  0  0  0  0  0  0  0  0  0  0  0  0  # atno 17321 bound_to 7965
  139.4965  144.4067  152.0124 LP  0  0  0  0  0  0  0  0  0  0  0  0  # atno 17342 bound_to 10162
  140.3171  144.3471  150.6019 LP  0  0  0  0  0  0  0  0  0  0  0  0  # atno 17343 bound_to 10162
  156.7752  130.9201  151.3645 LP  0  0  0  0  0  0  0  0  0  0  0  0  # atno 17370 bound_to 10713
  157.6678  130.9023  149.9971 LP  0  0  0  0  0  0  0  0  0  0  0  0  # atno 17371 bound_to 10713
  140.2896  134.8251  157.4005 LP  0  0  0  0  0  0  0  0  0  0  0  0  # atno 17394 bound_to 11000
  140.1359  134.5035  155.8069 LP  0  0  0  0  0  0  0  0  0  0  0  0  # atno 17395 bound_to 11000

$$$$
