AV-unprocessed.smi:1157|AV-procd|sdf|4907|dock7
  -GOLD-   22720 3483D 1   1.00000     0.00000
 Structure written by MMmdl.
 55 57  0  0  0  0  0  0  0  0  2 V2000
  148.6063  133.2905  153.2120 C   0  0  0  0  0  0  0  0  0  0  0  0
  147.4143  133.9184  153.9775 C   0  0  0  0  0  0  0  0  0  0  0  0
  146.5134  132.7355  154.4125 C   0  0  0  0  0  0  0  0  0  0  0  0
  147.9167  134.6850  155.2384 C   0  0  0  0  0  0  0  0  0  0  0  0
  148.4952  135.9935  154.9337 N   0  0  0  0  0  0  0  0  0  0  0  0
  148.8511  136.9178  155.8375 C   0  0  0  0  0  0  0  0  0  0  0  0
  148.7121  136.7677  157.0511 O   0  0  0  0  0  0  0  0  0  0  0  0
  149.3445  138.0158  155.2399 N   0  0  0  0  0  0  0  0  0  0  0  0
  149.8264  139.2099  155.8409 C   0  0  0  0  0  0  0  0  0  0  0  0
  149.8642  140.4694  155.1983 C   0  0  0  0  0  0  0  0  0  0  0  0
  150.3484  141.5838  155.9096 C   0  0  0  0  0  0  0  0  0  0  0  0
  150.7735  141.4170  157.2490 C   0  0  0  0  0  0  0  0  0  0  0  0
  151.2696  142.5060  157.9924 N   0  0  0  0  0  0  0  0  0  0  0  0
  151.4661  143.8177  157.3948 C   0  0  0  0  0  0  0  0  0  0  0  0
  152.1397  144.6435  158.4896 C   0  0  0  0  0  0  0  0  0  0  0  0
  152.9728  143.6067  159.2434 C   0  0  0  0  0  0  0  0  0  0  0  0
  152.1519  142.3164  159.1358 C   0  0  0  0  0  0  0  0  0  0  0  0
  150.7300  140.2112  157.8641 N   0  0  0  0  0  0  0  0  0  0  0  0
  150.2638  139.1466  157.1789 C   0  0  0  0  0  0  0  0  0  0  0  0
  146.6488  134.8290  153.0510 N   0  3  0  0  0  0  0  0  0  0  0  0
  146.1202  134.1979  151.8083 C   0  0  0  0  0  0  0  0  0  0  0  0
  145.5281  135.2627  150.8696 C   0  0  0  0  0  0  0  0  0  0  0  0
  144.5055  135.9820  151.5433 O   0  0  0  0  0  0  0  0  0  0  0  0
  145.0086  136.6661  152.6817 C   0  0  0  0  0  0  0  0  0  0  0  0
  145.5787  135.6504  153.6857 C   0  0  0  0  0  0  0  0  0  0  0  0
  149.0568  132.4675  153.7677 H   0  0  0  0  0  0  0  0  0  0  0  0
  149.4076  134.0069  153.0319 H   0  0  0  0  0  0  0  0  0  0  0  0
  148.2927  132.8873  152.2483 H   0  0  0  0  0  0  0  0  0  0  0  0
  147.0862  131.9556  154.9159 H   0  0  0  0  0  0  0  0  0  0  0  0
  146.0266  132.2697  153.5549 H   0  0  0  0  0  0  0  0  0  0  0  0
  145.7384  133.0404  155.1154 H   0  0  0  0  0  0  0  0  0  0  0  0
  147.1185  134.8006  155.9718 H   0  0  0  0  0  0  0  0  0  0  0  0
  148.6994  134.1174  155.7405 H   0  0  0  0  0  0  0  0  0  0  0  0
  148.6407  136.2076  153.9578 H   0  0  0  0  0  0  0  0  0  0  0  0
  149.3220  138.0209  154.2308 H   0  0  0  0  0  0  0  0  0  0  0  0
  149.5230  140.6082  154.1844 H   0  0  0  0  0  0  0  0  0  0  0  0
  150.3887  142.5448  155.4190 H   0  0  0  0  0  0  0  0  0  0  0  0
  152.1175  143.7277  156.5243 H   0  0  0  0  0  0  0  0  0  0  0  0
  150.5221  144.2620  157.0773 H   0  0  0  0  0  0  0  0  0  0  0  0
  152.7359  145.4665  158.0947 H   0  0  0  0  0  0  0  0  0  0  0  0
  151.3834  145.0619  159.1553 H   0  0  0  0  0  0  0  0  0  0  0  0
  153.9298  143.4730  158.7375 H   0  0  0  0  0  0  0  0  0  0  0  0
  153.1777  143.8926  160.2755 H   0  0  0  0  0  0  0  0  0  0  0  0
  151.5441  142.1686  160.0289 H   0  0  0  0  0  0  0  0  0  0  0  0
  152.8035  141.4504  159.0155 H   0  0  0  0  0  0  0  0  0  0  0  0
  150.2446  138.2108  157.7187 H   0  0  0  0  0  0  0  0  0  0  0  0
  146.9006  133.6730  151.2610 H   0  0  0  0  0  0  0  0  0  0  0  0
  145.3500  133.4664  152.0536 H   0  0  0  0  0  0  0  0  0  0  0  0
  146.3021  135.9470  150.5183 H   0  0  0  0  0  0  0  0  0  0  0  0
  145.1005  134.7875  149.9866 H   0  0  0  0  0  0  0  0  0  0  0  0
  145.7693  137.3893  152.3830 H   0  0  0  0  0  0  0  0  0  0  0  0
  144.1964  137.2306  153.1401 H   0  0  0  0  0  0  0  0  0  0  0  0
  144.7721  135.0108  154.0441 H   0  0  0  0  0  0  0  0  0  0  0  0
  145.9536  136.2062  154.5427 H   0  0  0  0  0  0  0  0  0  0  0  0
  147.3356  135.4977  152.7323 H   0  0  0  0  0  0  0  0  0  0  0  0
  1  2  1  0  0  0  0
  1 26  1  0  0  0  0
  1 27  1  0  0  0  0
  1 28  1  0  0  0  0
  2  3  1  0  0  0  0
  2  4  1  0  0  0  0
  2 20  1  0  0  0  0
  3 29  1  0  0  0  0
  3 30  1  0  0  0  0
  3 31  1  0  0  0  0
  4  5  1  0  0  0  0
  4 32  1  0  0  0  0
  4 33  1  0  0  0  0
  5  6  1  0  0  0  0
  5 34  1  0  0  0  0
  6  7  2  0  0  0  0
  6  8  1  0  0  0  0
  8  9  1  0  0  0  0
  8 35  1  0  0  0  0
  9 19  1  0  0  0  0
  9 10  2  0  0  0  0
 10 11  1  0  0  0  0
 10 36  1  0  0  0  0
 11 12  2  0  0  0  0
 11 37  1  0  0  0  0
 12 13  1  0  0  0  0
 12 18  1  0  0  0  0
 13 17  1  0  0  0  0
 13 14  1  0  0  0  0
 14 15  1  0  0  0  0
 14 38  1  0  0  0  0
 14 39  1  0  0  0  0
 15 16  1  0  0  0  0
 15 40  1  0  0  0  0
 15 41  1  0  0  0  0
 16 17  1  0  0  0  0
 16 42  1  0  0  0  0
 16 43  1  0  0  0  0
 17 44  1  0  0  0  0
 17 45  1  0  0  0  0
 18 19  2  0  0  0  0
 19 46  1  0  0  0  0
 20 25  1  0  0  0  0
 20 21  1  0  0  0  0
 20 55  1  0  0  0  0
 21 22  1  0  0  0  0
 21 47  1  0  0  0  0
 21 48  1  0  0  0  0
 22 23  1  0  0  0  0
 22 49  1  0  0  0  0
 22 50  1  0  0  0  0
 23 24  1  0  0  0  0
 24 25  1  0  0  0  0
 24 51  1  0  0  0  0
 24 52  1  0  0  0  0
 25 53  1  0  0  0  0
 25 54  1  0  0  0  0
M  CHG  1  20   1
M  END
> <s_m_source_file>
AV-unprocessed.smi

> <i_m_source_file_index>
1157

> <i_lp_mmshare_version>
43012

> <i_f3d_flags>
0

> <s_epik_input>
W0NIMl0xW0NIMl1PW0NIMl1bQ0gyXU4xQyhbQ0gzXSkoW0NIM10pW0NIMl1bTkhdQyg9TylbTkhdYzJbY0hdW2NIXWMobltjSF0yKU4zW0NIMl1bQ0gyXVtDSDJdW0NIMl0z

> <s_epik_cmdline>
J2VwaWtfcHl0aG9uJywgJy1waCcsICc3LjAnLCAnLXRuJywgJzgnLCAnLW1hJywgJzIwMCcsICctbWV0YWxfYmluZGluZycsICctaW1hZScsICc8aW5maWxlLm1hZT4nLCAnLW9tYWUnLCAnPG91dGZpbGUubWFlPic=

> <r_lp_tautomer_probability>
1

> <r_epik_Ionization_Penalty>
0.687101

> <r_epik_Ionization_Penalty_Charging>
0.602531

> <r_epik_Ionization_Penalty_Neutral>
0.0845707

> <r_epik_State_Penalty>
0.681137

> <r_epik_Charging_Adjusted_Penalty>
1.28367

> <i_epik_Tot_Q>
1

> <i_epik_Tot_abs_Q>
1

> <r_epik_Metal_State_Penalty>
0.680046

> <b_epik_Metal_Only>
0

> <s_lp_Force_Field>
OPLS_2005

> <r_lp_Energy>
50.3969

> <b_lp_Chiralities_Consistent>
1

> <s_lp_Variant>
AV-unprocessed.smi:1157-2

> <Gold.Version>
5.8.1

> <Gold.Id.Protein>
6NUR|6NUR_protein|mol2

> <Gold.PLP.Fitness>
47.8913

> <Gold.PLP.PLP>
-39.6887

> <Gold.PLP.part.hbond>
-2.0000

> <Gold.PLP.part.metal>
0.0000

> <Gold.PLP.part.buried>
-4.1655

> <Gold.PLP.part.nonpolar>
-33.8375

> <Gold.PLP.part.repulsive>
0.2150

> <Gold.PLP.ligand.clash>
0.0000

> <Gold.PLP.ligand.torsion>
0.5388

> <Gold.PLP.Chemscore.Hbond>
3.0000

> <Gold.PLP.Chemscore.CHOScore>
0.0000

> <Gold.PLP.Chemscore.Metal>
0.0000

> <Gold.Chemscore.Hbonds>
donor molecule, donor type, donor heavy atom, donor atom, acceptor molecule, acceptor atom, score
      L1  H     5    34       P1  7948  0.81
      L1  H    20    55       P1  7948  2.00

> <Gold.PLP.Chemscore.Internal.Correction>
0.2802

> <Gold.Rescore>
     Score         DG    S(hbond)    S(metal)    S(lipo)     H(rot)  DE(clash)    DE(int)     intcor
     18.71     -21.03       1.98        0.00     107.55       1.42       0.48       1.84       ----

> <Gold.Chemscore.Fitness>
18.7124

> <Gold.Chemscore.DG>
-21.0278

> <Gold.Chemscore.ZeroCoef>
-5.4800

> <Gold.Chemscore.Hbond>
1.9792

> <Gold.Chemscore.Metal>
0.0000

> <Gold.Chemscore.Lipo>
107.5503

> <Gold.Chemscore.Internal_Hbond>
0.0000

> <Gold.Chemscore.DEClash>
0.4801

> <Gold.Chemscore.DEInternal>
1.8354

> <Gold.Chemscore.Rot>
1.4243

> <Gold.Chemscore.Internal.Correction>
   9.000000E+99

> <Gold.Chemscore.Hbonds>
donor molecule, donor type, donor heavy atom, donor atom, acceptor molecule, acceptor atom, score
      L1  H     5    34       P1  7948  0.79
      L1  H    20    55       P1  7948  0.98

> <Gold.Chemscore.Hbond.Weighted>
-6.6106

> <Gold.Chemscore.Metal.Weighted>
-0.0000

> <Gold.Chemscore.Lipo.Weighted>
-12.5834

> <Gold.Chemscore.Internal_Hbond.Weighted>
0.0000

> <Gold.Chemscore.DEClash.Weighted>
0.4801

> <Gold.Chemscore.DEInternal.Weighted>
1.8354

> <Gold.Chemscore.Rot.Weighted>
3.6462

> <Gold.Chemscore.Internal.Correction.Weighted>
   9.000000E+99

> <Gold.Protein.RotatedTorsions>
[ 6907 6896 6895 6894 ] final  104.43 input  -60.11 | X-H torsion
[ 7974 7965 7964 7962 ] final   45.28 input  175.53 | X-H torsion
[ 8008 7997 7996 7995 ] final -161.75 input   59.86 | X-H torsion
[ 10167 10162 10161 10158 ] final  -52.92 input  -65.29 | X-H torsion
[ 10718 10713 10712 10709 ] final  -25.37 input   66.30 | X-H torsion
[ 10763 10752 10751 10750 ] final   73.80 input  -60.55 | X-H torsion
[ 11005 11000 10999 10996 ] final   99.18 input  -57.11 | X-H torsion

> <Gold.Protein.ActiveResidues>
 VAL166  LYS551  ARG553  GLY616  TRP617  ASP618  TYR619  PRO620  LYS621  CYS622 
 ASP623  PHE694  ASN695  SER759  ASP760  ASP761  ALA762  ILE779  LEU786  VAL792 
 PHE793  MET794  SER795  GLU796  ALA797  LYS798  CYS799  TRP800  GLU811  SER814 

> <Gold.Protein.RotatedAtoms>
  152.5264  133.9677  159.7747 H   0  0  0  0  0  0  0  0  0  0  0  0  # atno 6907 bound_to 6896
  150.9955  133.6099  159.2709 H   0  0  0  0  0  0  0  0  0  0  0  0  # atno 6908 bound_to 6896
  151.3227  135.0828  159.9364 H   0  0  0  0  0  0  0  0  0  0  0  0  # atno 6909 bound_to 6896
  146.0494  139.4982  142.9728 H   0  0  0  0  0  0  0  0  0  0  0  0  # atno 7974 bound_to 7965
  155.7968  140.0886  157.1979 H   0  0  0  0  0  0  0  0  0  0  0  0  # atno 8008 bound_to 7997
  154.3983  140.1480  156.3286 H   0  0  0  0  0  0  0  0  0  0  0  0  # atno 8009 bound_to 7997
  155.8503  140.3435  155.5692 H   0  0  0  0  0  0  0  0  0  0  0  0  # atno 8010 bound_to 7997
  140.6512  143.2567  151.4718 H   0  0  0  0  0  0  0  0  0  0  0  0  # atno 10167 bound_to 10162
  156.4653  130.4512  149.6903 H   0  0  0  0  0  0  0  0  0  0  0  0  # atno 10718 bound_to 10713
  153.0545  135.5049  154.7947 H   0  0  0  0  0  0  0  0  0  0  0  0  # atno 10763 bound_to 10752
  154.6784  135.2964  154.9650 H   0  0  0  0  0  0  0  0  0  0  0  0  # atno 10764 bound_to 10752
  154.0444  135.6712  153.4846 H   0  0  0  0  0  0  0  0  0  0  0  0  # atno 10765 bound_to 10752
  139.8771  134.9083  156.4567 H   0  0  0  0  0  0  0  0  0  0  0  0  # atno 11005 bound_to 11000
  145.6750  141.0206  143.1637 LP  0  0  0  0  0  0  0  0  0  0  0  0  # atno 17320 bound_to 7965
  144.7115  139.8354  143.7413 LP  0  0  0  0  0  0  0  0  0  0  0  0  # atno 17321 bound_to 7965
  139.5727  144.1890  152.1860 LP  0  0  0  0  0  0  0  0  0  0  0  0  # atno 17342 bound_to 10162
  140.1191  144.5389  150.6874 LP  0  0  0  0  0  0  0  0  0  0  0  0  # atno 17343 bound_to 10162
  156.3674  130.7513  151.2492 LP  0  0  0  0  0  0  0  0  0  0  0  0  # atno 17370 bound_to 10713
  157.7495  131.0333  150.4264 LP  0  0  0  0  0  0  0  0  0  0  0  0  # atno 17371 bound_to 10713
  140.8893  133.7860  155.9554 LP  0  0  0  0  0  0  0  0  0  0  0  0  # atno 17394 bound_to 11000
  140.8770  134.2657  157.5163 LP  0  0  0  0  0  0  0  0  0  0  0  0  # atno 17395 bound_to 11000

$$$$
