AV-unprocessed.smi:1245|AV-procd|sdf|5239|dock2
  -GOLD-   22720 4343D 1   1.00000     0.00000
 Structure written by MMmdl.
 43 44  0  0  0  0  0  0  0  0  1 V2000
  150.4492  140.3530  154.2975 O   0  0  0  0  0  0  0  0  0  0  0  0
  150.6273  139.5018  155.1686 C   0  0  0  0  0  0  0  0  0  0  0  0
  150.4155  138.0208  154.8497 C   0  0  0  0  0  0  0  0  0  0  0  0
  149.3857  137.3524  155.7770 C   0  0  0  0  0  0  0  0  0  0  0  0
  150.0269  135.7672  156.4796 S   0  0  0  0  0  0  0  0  0  0  0  0
  151.2877  135.4363  155.7977 O   0  0  0  0  0  0  0  0  0  0  0  0
  150.0104  135.8711  157.9468 O   0  0  0  0  0  0  0  0  0  0  0  0
  148.7338  134.5458  155.9606 C   0  0  0  0  0  0  0  0  0  0  0  0
  149.0356  133.1549  156.5539 C   0  0  0  0  0  0  0  0  0  0  0  0
  149.2444  132.2018  155.3710 C   0  0  0  0  0  0  0  0  0  0  0  0
  149.5558  133.1017  154.1782 C   0  0  0  0  0  0  0  0  0  0  0  0
  148.7151  134.3504  154.4355 C   0  0  0  0  0  0  0  0  0  0  0  0
  151.0041  139.7940  156.4220 N   0  0  0  0  0  0  0  0  0  0  0  0
  151.2560  141.1385  156.9310 C   0  0  0  0  0  0  0  0  0  0  0  0
  151.4605  141.1703  158.4586 C   0  0  0  0  0  0  0  0  0  0  0  0
  151.7344  142.5616  159.0047 C   0  0  0  0  0  0  0  0  0  0  0  0
  151.7958  143.6766  158.1412 C   0  0  0  0  0  0  0  0  0  0  0  0
  152.0399  144.9459  158.7001 C   0  0  0  0  0  0  0  0  0  0  0  0
  152.2129  145.0512  160.0936 C   0  0  0  0  0  0  0  0  0  0  0  0
  152.1350  143.8772  160.8692 C   0  0  0  0  0  0  0  0  0  0  0  0
  151.9015  142.6553  160.3433 N   0  0  0  0  0  0  0  0  0  0  0  0
  150.1257  137.8901  153.8062 H   0  0  0  0  0  0  0  0  0  0  0  0
  151.3779  137.5212  154.9633 H   0  0  0  0  0  0  0  0  0  0  0  0
  149.1593  138.0154  156.6116 H   0  0  0  0  0  0  0  0  0  0  0  0
  148.4491  137.1583  155.2551 H   0  0  0  0  0  0  0  0  0  0  0  0
  147.7727  134.9189  156.3154 H   0  0  0  0  0  0  0  0  0  0  0  0
  149.9370  133.1831  157.1671 H   0  0  0  0  0  0  0  0  0  0  0  0
  148.2258  132.8081  157.1965 H   0  0  0  0  0  0  0  0  0  0  0  0
  150.0301  131.4691  155.5576 H   0  0  0  0  0  0  0  0  0  0  0  0
  148.3211  131.6537  155.1791 H   0  0  0  0  0  0  0  0  0  0  0  0
  150.6159  133.3577  154.1725 H   0  0  0  0  0  0  0  0  0  0  0  0
  149.3222  132.6289  153.2239 H   0  0  0  0  0  0  0  0  0  0  0  0
  147.6912  134.1643  154.1097 H   0  0  0  0  0  0  0  0  0  0  0  0
  149.0787  135.2134  153.8790 H   0  0  0  0  0  0  0  0  0  0  0  0
  151.1288  139.0304  157.0711 H   0  0  0  0  0  0  0  0  0  0  0  0
  152.1545  141.5095  156.4371 H   0  0  0  0  0  0  0  0  0  0  0  0
  150.4467  141.8102  156.6406 H   0  0  0  0  0  0  0  0  0  0  0  0
  150.5790  140.7621  158.9545 H   0  0  0  0  0  0  0  0  0  0  0  0
  152.2873  140.5134  158.7319 H   0  0  0  0  0  0  0  0  0  0  0  0
  151.6526  143.5635  157.0764 H   0  0  0  0  0  0  0  0  0  0  0  0
  152.0916  145.8225  158.0712 H   0  0  0  0  0  0  0  0  0  0  0  0
  152.4005  146.0083  160.5573 H   0  0  0  0  0  0  0  0  0  0  0  0
  152.2620  143.9205  161.9407 H   0  0  0  0  0  0  0  0  0  0  0  0
  1  2  2  0  0  0  0
  2  3  1  0  0  0  0
  2 13  1  0  0  0  0
  3  4  1  0  0  0  0
  3 22  1  0  0  0  0
  3 23  1  0  0  0  0
  4  5  1  0  0  0  0
  4 24  1  0  0  0  0
  4 25  1  0  0  0  0
  5  6  2  0  0  0  0
  5  7  2  0  0  0  0
  5  8  1  0  0  0  0
  8 12  1  0  0  0  0
  8  9  1  0  0  0  0
  8 26  1  0  0  0  0
  9 10  1  0  0  0  0
  9 27  1  0  0  0  0
  9 28  1  0  0  0  0
 10 11  1  0  0  0  0
 10 29  1  0  0  0  0
 10 30  1  0  0  0  0
 11 12  1  0  0  0  0
 11 31  1  0  0  0  0
 11 32  1  0  0  0  0
 12 33  1  0  0  0  0
 12 34  1  0  0  0  0
 13 14  1  0  0  0  0
 13 35  1  0  0  0  0
 14 15  1  0  0  0  0
 14 36  1  0  0  0  0
 14 37  1  0  0  0  0
 15 16  1  0  0  0  0
 15 38  1  0  0  0  0
 15 39  1  0  0  0  0
 16 21  1  0  0  0  0
 16 17  2  0  0  0  0
 17 18  1  0  0  0  0
 17 40  1  0  0  0  0
 18 19  2  0  0  0  0
 18 41  1  0  0  0  0
 19 20  1  0  0  0  0
 19 42  1  0  0  0  0
 20 21  2  0  0  0  0
 20 43  1  0  0  0  0
M  END
> <s_m_source_file>
AV-unprocessed.smi

> <i_m_source_file_index>
1245

> <i_lp_mmshare_version>
43012

> <i_f3d_flags>
0

> <s_epik_input>
W0NIMl0xW0NIMl1bQ0gyXVtDSDJdW0NIXTFTKD1PKSg9TylbQ0gyXVtDSDJdQyg9TylbTkhdW0NIMl1bQ0gyXWMyW2NIXVtjSF1bY0hdW2NIXW4y

> <s_epik_cmdline>
J2VwaWtfcHl0aG9uJywgJy1waCcsICc3LjAnLCAnLXRuJywgJzgnLCAnLW1hJywgJzIwMCcsICctbWV0YWxfYmluZGluZycsICctaW1hZScsICc8aW5maWxlLm1hZT4nLCAnLW9tYWUnLCAnPG91dGZpbGUubWFlPic=

> <r_epik_Ionization_Penalty>
0.0243247

> <r_epik_Ionization_Penalty_Charging>
0

> <r_epik_Ionization_Penalty_Neutral>
0.0243247

> <r_epik_State_Penalty>
0.0197389

> <r_epik_Charging_Adjusted_Penalty>
0.0197389

> <i_epik_Tot_Q>
0

> <i_epik_Tot_abs_Q>
0

> <r_epik_Metal_State_Penalty>
0.0189562

> <b_epik_Metal_Only>
0

> <s_lp_Force_Field>
OPLS_2005

> <r_lp_Energy>
12.2182

> <b_lp_Chiralities_Consistent>
1

> <s_lp_Variant>
AV-unprocessed.smi:1245-1

> <Gold.Version>
5.8.1

> <Gold.Id.Protein>
6NUR|6NUR_protein|mol2

> <Gold.PLP.Fitness>
47.2759

> <Gold.PLP.PLP>
-39.6282

> <Gold.PLP.part.hbond>
-3.2990

> <Gold.PLP.part.metal>
0.0000

> <Gold.PLP.part.buried>
-6.3622

> <Gold.PLP.part.nonpolar>
-30.6237

> <Gold.PLP.part.repulsive>
0.2626

> <Gold.PLP.ligand.clash>
0.0000

> <Gold.PLP.ligand.torsion>
0.5954

> <Gold.PLP.Chemscore.Hbond>
2.8480

> <Gold.PLP.Chemscore.CHOScore>
0.0000

> <Gold.PLP.Chemscore.Metal>
0.0000

> <Gold.Chemscore.Hbonds>
donor molecule, donor type, donor heavy atom, donor atom, acceptor molecule, acceptor atom, score
      P1  H  6896  6908       L1     7  0.64
      P1  H  7989  7998       L1     1  0.96
      P1  H 10752 10765       L1     6  0.98

> <Gold.PLP.Chemscore.Internal.Correction>
0.2945

> <Gold.Rescore>
     Score         DG    S(hbond)    S(metal)    S(lipo)     H(rot)  DE(clash)    DE(int)     intcor
     21.19     -21.89       2.84        0.00     102.95       2.00       0.00       0.71       ----

> <Gold.Chemscore.Fitness>
21.1881

> <Gold.Chemscore.DG>
-21.8945

> <Gold.Chemscore.ZeroCoef>
-5.4800

> <Gold.Chemscore.Hbond>
2.8423

> <Gold.Chemscore.Metal>
0.0000

> <Gold.Chemscore.Lipo>
102.9470

> <Gold.Chemscore.Internal_Hbond>
0.0000

> <Gold.Chemscore.DEClash>
0.0000

> <Gold.Chemscore.DEInternal>
0.7064

> <Gold.Chemscore.Rot>
2.0014

> <Gold.Chemscore.Internal.Correction>
   9.000000E+99

> <Gold.Chemscore.Hbonds>
donor molecule, donor type, donor heavy atom, donor atom, acceptor molecule, acceptor atom, score
      P1  H  6896  6908       L1     7  0.62
      P1  H  7989  7998       L1     1  0.85
      P1  H 10752 10765       L1     6  0.88

> <Gold.Chemscore.Hbond.Weighted>
-9.4933

> <Gold.Chemscore.Metal.Weighted>
-0.0000

> <Gold.Chemscore.Lipo.Weighted>
-12.0448

> <Gold.Chemscore.Internal_Hbond.Weighted>
0.0000

> <Gold.Chemscore.DEClash.Weighted>
0.0000

> <Gold.Chemscore.DEInternal.Weighted>
0.7064

> <Gold.Chemscore.Rot.Weighted>
5.1236

> <Gold.Chemscore.Internal.Correction.Weighted>
   9.000000E+99

> <Gold.Protein.RotatedTorsions>
[ 6907 6896 6895 6894 ] final  176.88 input  -60.11 | X-H torsion
[ 7974 7965 7964 7962 ] final  139.23 input  175.53 | X-H torsion
[ 8008 7997 7996 7995 ] final  -43.78 input   59.86 | X-H torsion
[ 10167 10162 10161 10158 ] final   82.33 input  -65.29 | X-H torsion
[ 10718 10713 10712 10709 ] final   39.23 input   66.30 | X-H torsion
[ 10763 10752 10751 10750 ] final -145.58 input  -60.55 | X-H torsion
[ 11005 11000 10999 10996 ] final   45.62 input  -57.11 | X-H torsion

> <Gold.Protein.ActiveResidues>
 VAL166  LYS551  ARG553  GLY616  TRP617  ASP618  TYR619  PRO620  LYS621  CYS622 
 ASP623  PHE694  ASN695  SER759  ASP760  ASP761  ALA762  ILE779  LEU786  VAL792 
 PHE793  MET794  SER795  GLU796  ALA797  LYS798  CYS799  TRP800  GLU811  SER814 

> <Gold.Protein.RotatedAtoms>
  151.7130  133.3312  159.3295 H   0  0  0  0  0  0  0  0  0  0  0  0  # atno 6907 bound_to 6896
  150.7686  134.6515  159.6300 H   0  0  0  0  0  0  0  0  0  0  0  0  # atno 6908 bound_to 6896
  152.3700  134.6751  160.0231 H   0  0  0  0  0  0  0  0  0  0  0  0  # atno 6909 bound_to 6896
  144.9298  139.5062  143.5623 H   0  0  0  0  0  0  0  0  0  0  0  0  # atno 7974 bound_to 7965
  154.3997  140.1439  156.3575 H   0  0  0  0  0  0  0  0  0  0  0  0  # atno 8008 bound_to 7997
  155.8212  140.3469  155.5494 H   0  0  0  0  0  0  0  0  0  0  0  0  # atno 8009 bound_to 7997
  155.8286  140.0909  157.1796 H   0  0  0  0  0  0  0  0  0  0  0  0  # atno 8010 bound_to 7997
  139.9299  144.6159  150.8355 H   0  0  0  0  0  0  0  0  0  0  0  0  # atno 10167 bound_to 10162
  157.3682  130.7686  149.7098 H   0  0  0  0  0  0  0  0  0  0  0  0  # atno 10718 bound_to 10713
  154.8377  135.3409  154.6526 H   0  0  0  0  0  0  0  0  0  0  0  0  # atno 10763 bound_to 10752
  153.7140  135.6962  153.5034 H   0  0  0  0  0  0  0  0  0  0  0  0  # atno 10764 bound_to 10752
  153.2431  135.4378  155.0672 H   0  0  0  0  0  0  0  0  0  0  0  0  # atno 10765 bound_to 10752
  140.1443  134.4543  155.8427 H   0  0  0  0  0  0  0  0  0  0  0  0  # atno 11005 bound_to 11000
  146.3242  139.8239  142.8921 LP  0  0  0  0  0  0  0  0  0  0  0  0  # atno 17320 bound_to 7965
  145.3161  141.0232  143.3527 LP  0  0  0  0  0  0  0  0  0  0  0  0  # atno 17321 bound_to 7965
  140.7640  143.3238  151.2563 LP  0  0  0  0  0  0  0  0  0  0  0  0  # atno 17342 bound_to 10162
  139.6791  143.9886  152.2798 LP  0  0  0  0  0  0  0  0  0  0  0  0  # atno 17343 bound_to 10162
  155.9750  130.4095  150.3880 LP  0  0  0  0  0  0  0  0  0  0  0  0  # atno 17370 bound_to 10713
  157.1967  131.0428  151.2672 LP  0  0  0  0  0  0  0  0  0  0  0  0  # atno 17371 bound_to 10713
  141.2190  133.6846  156.7305 LP  0  0  0  0  0  0  0  0  0  0  0  0  # atno 17394 bound_to 11000
  140.2683  134.8412  157.3823 LP  0  0  0  0  0  0  0  0  0  0  0  0  # atno 17395 bound_to 11000

$$$$
