AV-unprocessed.smi:2786|AV-procd|sdf|10751|dock7
  -GOLD-   2272015183D 1   1.00000     0.00000
 Structure written by MMmdl.
 28 29  0  0  0  0  0  0  0  0  3 V2000
  153.3070  142.4161  159.3525 C   0  0  0  0  0  0  0  0  0  0  0  0
  152.3321  143.4433  158.9796 N   0  0  0  0  0  0  0  0  0  0  0  0
  152.1763  144.6709  159.5708 C   0  0  0  0  0  0  0  0  0  0  0  0
  151.1502  145.2966  158.9131 C   0  0  0  0  0  0  0  0  0  0  0  0
  150.7235  144.4263  157.9474 N   0  3  0  0  0  0  0  0  0  0  0  0
  151.4465  143.2989  157.9788 C   0  0  0  0  0  0  0  0  0  0  0  0
  151.2635  142.1091  157.0803 C   0  0  1  0  0  0  0  0  0  0  0  0
  151.1762  140.7979  157.8948 C   0  0  0  0  0  0  0  0  0  0  0  0
  151.0390  139.6339  156.9947 N   0  3  0  0  0  0  0  0  0  0  0  0
  149.8842  139.7941  156.0892 C   0  0  0  0  0  0  0  0  0  0  0  0
  150.0096  141.1139  155.3074 C   0  0  0  0  0  0  0  0  0  0  0  0
  150.0745  142.2380  156.2371 N   0  0  0  0  0  0  0  0  0  0  0  0
  153.8388  142.7269  160.2527 H   0  0  0  0  0  0  0  0  0  0  0  0
  154.0211  142.2851  158.5390 H   0  0  0  0  0  0  0  0  0  0  0  0
  152.7897  141.4764  159.5485 H   0  0  0  0  0  0  0  0  0  0  0  0
  152.7901  145.0009  160.3971 H   0  0  0  0  0  0  0  0  0  0  0  0
  150.7030  146.2695  159.0569 H   0  0  0  0  0  0  0  0  0  0  0  0
  152.1387  142.0839  156.4299 H   0  0  0  0  0  0  0  0  0  0  0  0
  152.0721  140.6638  158.5014 H   0  0  0  0  0  0  0  0  0  0  0  0
  150.3283  140.8252  158.5810 H   0  0  0  0  0  0  0  0  0  0  0  0
  151.8772  139.5507  156.4372 H   0  0  0  0  0  0  0  0  0  0  0  0
  149.8496  138.9479  155.4028 H   0  0  0  0  0  0  0  0  0  0  0  0
  148.9595  139.7754  156.6681 H   0  0  0  0  0  0  0  0  0  0  0  0
  150.8944  141.1060  154.6691 H   0  0  0  0  0  0  0  0  0  0  0  0
  149.1460  141.2449  154.6548 H   0  0  0  0  0  0  0  0  0  0  0  0
  150.1188  143.1024  155.7148 H   0  0  0  0  0  0  0  0  0  0  0  0
  150.9223  138.7936  157.5431 H   0  0  0  0  0  0  0  0  0  0  0  0
  149.9712  144.6083  157.2946 H   0  0  0  0  0  0  0  0  0  0  0  0
  1  2  1  0  0  0  0
  1 13  1  0  0  0  0
  1 14  1  0  0  0  0
  1 15  1  0  0  0  0
  2  6  1  0  0  0  0
  2  3  1  0  0  0  0
  3  4  2  0  0  0  0
  3 16  1  0  0  0  0
  4  5  1  0  0  0  0
  4 17  1  0  0  0  0
  5  6  2  0  0  0  0
  5 28  1  0  0  0  0
  6  7  1  0  0  0  0
  7 12  1  0  0  0  0
  7  8  1  0  0  0  0
  7 18  1  0  0  0  0
  8  9  1  0  0  0  0
  8 19  1  0  0  0  0
  8 20  1  0  0  0  0
  9 10  1  0  0  0  0
  9 21  1  0  0  0  0
  9 27  1  0  0  0  0
 10 11  1  0  0  0  0
 10 22  1  0  0  0  0
 10 23  1  0  0  0  0
 11 12  1  0  0  0  0
 11 24  1  0  0  0  0
 11 25  1  0  0  0  0
 12 26  1  0  0  0  0
M  CHG  1   5   1
M  CHG  1   9   1
M  END
> <s_m_source_file>
AV-unprocessed.smi

> <i_m_source_file_index>
2786

> <i_lp_mmshare_version>
43012

> <i_f3d_flags>
0

> <s_epik_input>
W0NIM11uMVtjSF1bY0hdbmMxW0NAQEhdMltDSDJdW05IXVtDSDJdW0NIMl1bTkhdMg==

> <s_epik_cmdline>
J2VwaWtfcHl0aG9uJywgJy1waCcsICc3LjAnLCAnLXRuJywgJzgnLCAnLW1hJywgJzIwMCcsICctbWV0YWxfYmluZGluZycsICctaW1hZScsICc8aW5maWxlLm1hZT4nLCAnLW9tYWUnLCAnPG91dGZpbGUubWFlPic=

> <r_lp_tautomer_probability>
1

> <r_epik_Ionization_Penalty>
1.19986

> <r_epik_Ionization_Penalty_Charging>
0.069211

> <r_epik_Ionization_Penalty_Neutral>
1.13065

> <r_epik_State_Penalty>
0.776615

> <r_epik_Charging_Adjusted_Penalty>
0.845826

> <i_epik_Tot_Q>
2

> <i_epik_Tot_abs_Q>
2

> <r_epik_Metal_State_Penalty>
4.73559

> <b_epik_Metal_Only>
0

> <s_lp_Force_Field>
OPLS_2005

> <r_lp_Energy>
18.3539

> <b_lp_Chiralities_Consistent>
1

> <s_lp_Variant>
AV-unprocessed.smi:2786-4

> <Gold.Version>
5.8.1

> <Gold.Id.Protein>
6NUR|6NUR_protein|mol2

> <Gold.PLP.Fitness>
36.7832

> <Gold.PLP.PLP>
-29.1856

> <Gold.PLP.part.hbond>
-2.2266

> <Gold.PLP.part.metal>
0.0000

> <Gold.PLP.part.buried>
-3.4344

> <Gold.PLP.part.nonpolar>
-22.6740

> <Gold.PLP.part.repulsive>
0.1233

> <Gold.PLP.ligand.clash>
0.0000

> <Gold.PLP.ligand.torsion>
0.1580

> <Gold.PLP.Chemscore.Hbond>
2.6344

> <Gold.PLP.Chemscore.CHOScore>
0.0000

> <Gold.PLP.Chemscore.Metal>
0.0000

> <Gold.Chemscore.Hbonds>
donor molecule, donor type, donor heavy atom, donor atom, acceptor molecule, acceptor atom, score
      L1  H     5    28       P1  8028  1.90
      L1  H    12    26       P1  8028  0.66

> <Gold.PLP.Chemscore.Internal.Correction>
0.0103

> <Gold.Rescore>
     Score         DG    S(hbond)    S(metal)    S(lipo)     H(rot)  DE(clash)    DE(int)     intcor
     13.29     -13.33       1.01        0.00      60.12       1.00       0.01       0.03       ----

> <Gold.Chemscore.Fitness>
13.2939

> <Gold.Chemscore.DG>
-13.3335

> <Gold.Chemscore.ZeroCoef>
-5.4800

> <Gold.Chemscore.Hbond>
1.0118

> <Gold.Chemscore.Metal>
0.0000

> <Gold.Chemscore.Lipo>
60.1210

> <Gold.Chemscore.Internal_Hbond>
0.0000

> <Gold.Chemscore.DEClash>
0.0111

> <Gold.Chemscore.DEInternal>
0.0285

> <Gold.Chemscore.Rot>
1.0000

> <Gold.Chemscore.Internal.Correction>
   9.000000E+99

> <Gold.Chemscore.Hbonds>
donor molecule, donor type, donor heavy atom, donor atom, acceptor molecule, acceptor atom, score
      L1  H     5    28       P1  8028  0.21
      L1  H    12    26       P1  8028  0.62

> <Gold.Chemscore.Hbond.Weighted>
-3.3794

> <Gold.Chemscore.Metal.Weighted>
-0.0000

> <Gold.Chemscore.Lipo.Weighted>
-7.0342

> <Gold.Chemscore.Internal_Hbond.Weighted>
0.0000

> <Gold.Chemscore.DEClash.Weighted>
0.0111

> <Gold.Chemscore.DEInternal.Weighted>
0.0285

> <Gold.Chemscore.Rot.Weighted>
2.5600

> <Gold.Chemscore.Internal.Correction.Weighted>
   9.000000E+99

> <Gold.Protein.RotatedTorsions>
[ 6907 6896 6895 6894 ] final  -31.37 input  -60.11 | X-H torsion
[ 7974 7965 7964 7962 ] final -166.14 input  175.53 | X-H torsion
[ 8008 7997 7996 7995 ] final  -34.05 input   59.86 | X-H torsion
[ 10167 10162 10161 10158 ] final  149.94 input  -65.29 | X-H torsion
[ 10718 10713 10712 10709 ] final  156.23 input   66.30 | X-H torsion
[ 10763 10752 10751 10750 ] final  -10.04 input  -60.55 | X-H torsion
[ 11005 11000 10999 10996 ] final  -52.32 input  -57.11 | X-H torsion

> <Gold.Protein.ActiveResidues>
 VAL166  LYS551  ARG553  GLY616  TRP617  ASP618  TYR619  PRO620  LYS621  CYS622 
 ASP623  PHE694  ASN695  SER759  ASP760  ASP761  ALA762  ILE779  LEU786  VAL792 
 PHE793  MET794  SER795  GLU796  ALA797  LYS798  CYS799  TRP800  GLU811  SER814 

> <Gold.Protein.RotatedAtoms>
  151.0930  134.9927  159.8411 H   0  0  0  0  0  0  0  0  0  0  0  0  # atno 6907 bound_to 6896
  152.5430  134.2042  159.8734 H   0  0  0  0  0  0  0  0  0  0  0  0  # atno 6908 bound_to 6896
  151.2080  133.4528  159.2631 H   0  0  0  0  0  0  0  0  0  0  0  0  # atno 6909 bound_to 6896
  144.7252  140.2710  143.6250 H   0  0  0  0  0  0  0  0  0  0  0  0  # atno 7974 bound_to 7965
  154.4131  140.1694  156.1987 H   0  0  0  0  0  0  0  0  0  0  0  0  # atno 8008 bound_to 7997
  155.9543  140.3398  155.6411 H   0  0  0  0  0  0  0  0  0  0  0  0  # atno 8009 bound_to 7997
  155.6830  140.0725  157.2468 H   0  0  0  0  0  0  0  0  0  0  0  0  # atno 8010 bound_to 7997
  139.4855  144.5562  151.7313 H   0  0  0  0  0  0  0  0  0  0  0  0  # atno 10167 bound_to 10162
  157.2077  131.0690  151.1988 H   0  0  0  0  0  0  0  0  0  0  0  0  # atno 10718 bound_to 10713
  153.4634  135.7016  153.6037 H   0  0  0  0  0  0  0  0  0  0  0  0  # atno 10763 bound_to 10752
  153.4321  135.3800  155.2177 H   0  0  0  0  0  0  0  0  0  0  0  0  # atno 10764 bound_to 10752
  154.8727  135.3953  154.4062 H   0  0  0  0  0  0  0  0  0  0  0  0  # atno 10765 bound_to 10752
  141.0918  133.6631  156.4007 H   0  0  0  0  0  0  0  0  0  0  0  0  # atno 11005 bound_to 11000
  145.8043  139.1977  143.2030 LP  0  0  0  0  0  0  0  0  0  0  0  0  # atno 17320 bound_to 7965
  146.0650  140.7930  142.9716 LP  0  0  0  0  0  0  0  0  0  0  0  0  # atno 17321 bound_to 7965
  140.5124  144.1005  150.5999 LP  0  0  0  0  0  0  0  0  0  0  0  0  # atno 17342 bound_to 10162
  140.3935  143.2740  152.0032 LP  0  0  0  0  0  0  0  0  0  0  0  0  # atno 17343 bound_to 10162
  157.3703  130.7177  149.6560 LP  0  0  0  0  0  0  0  0  0  0  0  0  # atno 17370 bound_to 10713
  155.9694  130.4200  150.4405 LP  0  0  0  0  0  0  0  0  0  0  0  0  # atno 17371 bound_to 10713
  140.5234  134.6282  157.5326 LP  0  0  0  0  0  0  0  0  0  0  0  0  # atno 17394 bound_to 11000
  139.9745  134.7237  155.9976 LP  0  0  0  0  0  0  0  0  0  0  0  0  # atno 17395 bound_to 11000

$$$$
