AV-unprocessed.smi:651|AV-procd|sdf|3188|dock6
  -GOLD-   22720 0113D 1   1.00000     0.00000
 Structure written by MMmdl.
 39 40  0  0  0  0  0  0  0  0  2 V2000
  153.2545  143.0802  163.3417 C   0  0  0  0  0  0  0  0  0  0  0  0
  152.9112  143.2219  161.8740 C   0  0  0  0  0  0  0  0  0  0  0  0
  153.4554  142.3708  160.8885 C   0  0  0  0  0  0  0  0  0  0  0  0
  153.0847  142.5530  159.5403 C   0  0  0  0  0  0  0  0  0  0  0  0
  152.1745  143.5798  159.2038 C   0  0  0  0  0  0  0  0  0  0  0  0
  151.7368  143.7869  157.7642 C   0  0  0  0  0  0  0  0  0  0  0  0
  151.1074  142.5064  157.2145 C   0  0  0  0  0  0  0  0  0  0  0  0
  151.6944  141.4318  157.3346 O   0  0  0  0  0  0  0  0  0  0  0  0
  149.9212  142.6393  156.6011 N   0  0  0  0  0  0  0  0  0  0  0  0
  149.1773  141.5590  155.9591 C   0  0  2  0  0  0  0  0  0  0  0  0
  149.2389  141.6439  154.4232 C   0  0  0  0  0  0  0  0  0  0  0  0
  147.8664  141.1850  153.9418 C   0  0  0  0  0  0  0  0  0  0  0  0
  146.9082  141.7141  155.0054 C   0  0  0  0  0  0  0  0  0  0  0  0
  147.6738  141.6251  156.3398 C   0  0  1  0  0  0  0  0  0  0  0  0
  147.2347  140.4153  157.1816 C   0  0  0  0  0  0  0  0  0  0  0  0
  147.3682  139.2074  156.6280 N   0  0  0  0  0  0  0  0  0  0  0  0
  146.7851  140.5671  158.3162 O   0  0  0  0  0  0  0  0  0  0  0  0
  151.6665  144.4033  160.2320 C   0  0  0  0  0  0  0  0  0  0  0  0
  152.0468  144.1965  161.5117 N   0  3  0  0  0  0  0  0  0  0  0  0
  154.1580  142.4846  163.4753 H   0  0  0  0  0  0  0  0  0  0  0  0
  152.4395  142.5891  163.8740 H   0  0  0  0  0  0  0  0  0  0  0  0
  153.4231  144.0576  163.7946 H   0  0  0  0  0  0  0  0  0  0  0  0
  154.1455  141.5851  161.1600 H   0  0  0  0  0  0  0  0  0  0  0  0
  153.4895  141.9053  158.7764 H   0  0  0  0  0  0  0  0  0  0  0  0
  151.0177  144.6060  157.7143 H   0  0  0  0  0  0  0  0  0  0  0  0
  152.5877  144.0745  157.1449 H   0  0  0  0  0  0  0  0  0  0  0  0
  149.5113  143.5606  156.5560 H   0  0  0  0  0  0  0  0  0  0  0  0
  149.6101  140.6058  156.2714 H   0  0  0  0  0  0  0  0  0  0  0  0
  149.3984  142.6755  154.1050 H   0  0  0  0  0  0  0  0  0  0  0  0
  150.0478  141.0438  154.0051 H   0  0  0  0  0  0  0  0  0  0  0  0
  147.6280  141.5490  152.9420 H   0  0  0  0  0  0  0  0  0  0  0  0
  147.8289  140.0950  153.9191 H   0  0  0  0  0  0  0  0  0  0  0  0
  146.6718  142.7576  154.7941 H   0  0  0  0  0  0  0  0  0  0  0  0
  145.9635  141.1682  155.0061 H   0  0  0  0  0  0  0  0  0  0  0  0
  147.4602  142.5310  156.9111 H   0  0  0  0  0  0  0  0  0  0  0  0
  147.0907  138.3820  157.1390 H   0  0  0  0  0  0  0  0  0  0  0  0
  147.7447  139.1249  155.6946 H   0  0  0  0  0  0  0  0  0  0  0  0
  150.9646  145.2092  160.0715 H   0  0  0  0  0  0  0  0  0  0  0  0
  151.6619  144.8012  162.2379 H   0  0  0  0  0  0  0  0  0  0  0  0
  1  2  1  0  0  0  0
  1 20  1  0  0  0  0
  1 21  1  0  0  0  0
  1 22  1  0  0  0  0
  2 19  1  0  0  0  0
  2  3  2  0  0  0  0
  3  4  1  0  0  0  0
  3 23  1  0  0  0  0
  4  5  2  0  0  0  0
  4 24  1  0  0  0  0
  5  6  1  0  0  0  0
  5 18  1  0  0  0  0
  6  7  1  0  0  0  0
  6 25  1  0  0  0  0
  6 26  1  0  0  0  0
  7  8  2  0  0  0  0
  7  9  1  0  0  0  0
  9 10  1  0  0  0  0
  9 27  1  0  0  0  0
 10 14  1  0  0  0  0
 10 11  1  0  0  0  0
 10 28  1  0  0  0  0
 11 12  1  0  0  0  0
 11 29  1  0  0  0  0
 11 30  1  0  0  0  0
 12 13  1  0  0  0  0
 12 31  1  0  0  0  0
 12 32  1  0  0  0  0
 13 14  1  0  0  0  0
 13 33  1  0  0  0  0
 13 34  1  0  0  0  0
 14 15  1  0  0  0  0
 14 35  1  0  0  0  0
 15 16  1  0  0  0  0
 15 17  2  0  0  0  0
 16 36  1  0  0  0  0
 16 37  1  0  0  0  0
 18 19  2  0  0  0  0
 18 38  1  0  0  0  0
 19 39  1  0  0  0  0
M  CHG  1  19   1
M  END
> <s_m_source_file>
AV-unprocessed.smi

> <i_m_source_file_index>
651

> <i_lp_mmshare_version>
43012

> <i_f3d_flags>
0

> <s_epik_input>
W0NIM11jMVtjSF1bY0hdYyhbY0hdbjEpW0NIMl1DKD1PKVtOSF1bQ0BASF0yW0NIMl1bQ0gyXVtDSDJdW0NASF0yQyg9TylbTkgyXQ==

> <s_epik_cmdline>
J2VwaWtfcHl0aG9uJywgJy1waCcsICc3LjAnLCAnLXRuJywgJzgnLCAnLW1hJywgJzIwMCcsICctbWV0YWxfYmluZGluZycsICctaW1hZScsICc8aW5maWxlLm1hZT4nLCAnLW9tYWUnLCAnPG91dGZpbGUubWFlPic=

> <r_epik_Ionization_Penalty>
2.14971

> <r_epik_Ionization_Penalty_Charging>
2.14971

> <r_epik_Ionization_Penalty_Neutral>
1.65229e-07

> <r_epik_State_Penalty>
2.28946

> <r_epik_Charging_Adjusted_Penalty>
4.43917

> <i_epik_Tot_Q>
1

> <i_epik_Tot_abs_Q>
1

> <r_epik_Metal_State_Penalty>
2.30508

> <b_epik_Metal_Only>
0

> <s_lp_Force_Field>
OPLS_2005

> <r_lp_Energy>
20.422

> <b_lp_Chiralities_Consistent>
1

> <s_lp_Variant>
AV-unprocessed.smi:651-5

> <Gold.Version>
5.8.1

> <Gold.Id.Protein>
6NUR|6NUR_protein|mol2

> <Gold.PLP.Fitness>
46.2391

> <Gold.PLP.PLP>
-43.4590

> <Gold.PLP.part.hbond>
-2.4713

> <Gold.PLP.part.metal>
0.0000

> <Gold.PLP.part.buried>
-4.8653

> <Gold.PLP.part.nonpolar>
-36.9593

> <Gold.PLP.part.repulsive>
0.1518

> <Gold.PLP.ligand.clash>
0.0000

> <Gold.PLP.ligand.torsion>
0.2898

> <Gold.PLP.Chemscore.Hbond>
1.1170

> <Gold.PLP.Chemscore.CHOScore>
0.0000

> <Gold.PLP.Chemscore.Metal>
0.0000

> <Gold.Chemscore.Hbonds>
donor molecule, donor type, donor heavy atom, donor atom, acceptor molecule, acceptor atom, score
      L1  H     9    27       P1  8028  0.98
      P1  H  6934  6946       L1    17  0.02

> <Gold.PLP.Chemscore.Internal.Correction>
0.0087

> <Gold.Rescore>
     Score         DG    S(hbond)    S(metal)    S(lipo)     H(rot)  DE(clash)    DE(int)     intcor
     17.03     -17.59       1.34        0.00     109.84       2.04       0.03       0.52       ----

> <Gold.Chemscore.Fitness>
17.0303

> <Gold.Chemscore.DG>
-17.5855

> <Gold.Chemscore.ZeroCoef>
-5.4800

> <Gold.Chemscore.Hbond>
1.3391

> <Gold.Chemscore.Metal>
0.0000

> <Gold.Chemscore.Lipo>
109.8440

> <Gold.Chemscore.Internal_Hbond>
0.0000

> <Gold.Chemscore.DEClash>
0.0324

> <Gold.Chemscore.DEInternal>
0.5228

> <Gold.Chemscore.Rot>
2.0386

> <Gold.Chemscore.Internal.Correction>
   9.000000E+99

> <Gold.Chemscore.Hbonds>
donor molecule, donor type, donor heavy atom, donor atom, acceptor molecule, acceptor atom, score
      L1  H     9    27       P1  8028  0.91
      P1  H  6934  6946       L1    17  0.02

> <Gold.Chemscore.Hbond.Weighted>
-4.4725

> <Gold.Chemscore.Metal.Weighted>
-0.0000

> <Gold.Chemscore.Lipo.Weighted>
-12.8517

> <Gold.Chemscore.Internal_Hbond.Weighted>
0.0000

> <Gold.Chemscore.DEClash.Weighted>
0.0324

> <Gold.Chemscore.DEInternal.Weighted>
0.5228

> <Gold.Chemscore.Rot.Weighted>
5.2188

> <Gold.Chemscore.Internal.Correction.Weighted>
   9.000000E+99

> <Gold.Protein.RotatedTorsions>
[ 6907 6896 6895 6894 ] final  -31.15 input  -60.11 | X-H torsion
[ 7974 7965 7964 7962 ] final  -80.81 input  175.53 | X-H torsion
[ 8008 7997 7996 7995 ] final -143.32 input   59.86 | X-H torsion
[ 10167 10162 10161 10158 ] final  141.48 input  -65.29 | X-H torsion
[ 10718 10713 10712 10709 ] final -155.11 input   66.30 | X-H torsion
[ 10763 10752 10751 10750 ] final   -8.53 input  -60.55 | X-H torsion
[ 11005 11000 10999 10996 ] final -103.57 input  -57.11 | X-H torsion

> <Gold.Protein.ActiveResidues>
 VAL166  LYS551  ARG553  GLY616  TRP617  ASP618  TYR619  PRO620  LYS621  CYS622 
 ASP623  PHE694  ASN695  SER759  ASP760  ASP761  ALA762  ILE779  LEU786  VAL792 
 PHE793  MET794  SER795  GLU796  ALA797  LYS798  CYS799  TRP800  GLU811  SER814 

> <Gold.Protein.RotatedAtoms>
  151.0960  134.9944  159.8425 H   0  0  0  0  0  0  0  0  0  0  0  0  # atno 6907 bound_to 6896
  152.5433  134.2008  159.8721 H   0  0  0  0  0  0  0  0  0  0  0  0  # atno 6908 bound_to 6896
  151.2048  133.4546  159.2630 H   0  0  0  0  0  0  0  0  0  0  0  0  # atno 6909 bound_to 6896
  145.5550  140.9491  143.1478 H   0  0  0  0  0  0  0  0  0  0  0  0  # atno 7974 bound_to 7965
  155.5087  140.0581  157.2927 H   0  0  0  0  0  0  0  0  0  0  0  0  # atno 8008 bound_to 7997
  154.4560  140.1973  156.0328 H   0  0  0  0  0  0  0  0  0  0  0  0  # atno 8009 bound_to 7997
  156.0799  140.3248  155.7685 H   0  0  0  0  0  0  0  0  0  0  0  0  # atno 8010 bound_to 7997
  139.5019  144.6168  151.6144 H   0  0  0  0  0  0  0  0  0  0  0  0  # atno 10167 bound_to 10162
  156.5084  130.8423  151.2637 H   0  0  0  0  0  0  0  0  0  0  0  0  # atno 10718 bound_to 10713
  153.4417  135.7014  153.6164 H   0  0  0  0  0  0  0  0  0  0  0  0  # atno 10763 bound_to 10752
  153.4536  135.3752  155.2298 H   0  0  0  0  0  0  0  0  0  0  0  0  # atno 10764 bound_to 10752
  154.8727  135.4003  154.3817 H   0  0  0  0  0  0  0  0  0  0  0  0  # atno 10765 bound_to 10752
  141.1140  133.8651  157.1502 H   0  0  0  0  0  0  0  0  0  0  0  0  # atno 11005 bound_to 11000
  144.7510  139.7193  143.7273 LP  0  0  0  0  0  0  0  0  0  0  0  0  # atno 17320 bound_to 7965
  146.1890  139.5121  142.9817 LP  0  0  0  0  0  0  0  0  0  0  0  0  # atno 17321 bound_to 7965
  140.5859  143.9865  150.6295 LP  0  0  0  0  0  0  0  0  0  0  0  0  # atno 17342 bound_to 10162
  140.3030  143.3248  152.0954 LP  0  0  0  0  0  0  0  0  0  0  0  0  # atno 17343 bound_to 10162
  157.7454  130.9958  150.2757 LP  0  0  0  0  0  0  0  0  0  0  0  0  # atno 17370 bound_to 10713
  156.3264  130.3793  149.7529 LP  0  0  0  0  0  0  0  0  0  0  0  0  # atno 17371 bound_to 10713
  140.0050  135.0012  157.0273 LP  0  0  0  0  0  0  0  0  0  0  0  0  # atno 17394 bound_to 11000
  140.4698  134.1398  155.7201 LP  0  0  0  0  0  0  0  0  0  0  0  0  # atno 17395 bound_to 11000

$$$$
