AV-unprocessed.smi:1263|AV-procd|sdf|5312|dock8
  -GOLD-   22720 4433D 1   1.00000     0.00000
 Structure written by MMmdl.
 43 45  0  0  0  0  0  0  0  0  1 V2000
  146.4491  132.8759  151.8894 C   0  0  0  0  0  0  0  0  0  0  0  0
  147.4995  133.4628  152.6500 O   0  0  0  0  0  0  0  0  0  0  0  0
  148.2742  132.6421  153.4478 C   0  0  0  0  0  0  0  0  0  0  0  0
  148.0040  131.3125  153.4590 N   0  0  0  0  0  0  0  0  0  0  0  0
  148.7629  130.5085  154.2315 C   0  0  0  0  0  0  0  0  0  0  0  0
  149.8261  130.9804  155.0226 C   0  0  0  0  0  0  0  0  0  0  0  0
  150.1078  132.3589  155.0139 C   0  0  0  0  0  0  0  0  0  0  0  0
  149.3105  133.2183  154.2194 C   0  0  0  0  0  0  0  0  0  0  0  0
  149.5226  134.6212  154.1210 N   0  0  0  0  0  0  0  0  0  0  0  0
  150.3828  135.3903  154.8099 C   0  0  0  0  0  0  0  0  0  0  0  0
  151.1277  134.9954  155.7068 O   0  0  0  0  0  0  0  0  0  0  0  0
  150.3135  136.6673  154.4073 N   0  0  0  0  0  0  0  0  0  0  0  0
  151.0957  137.7784  154.9429 C   0  0  0  0  0  0  0  0  0  0  0  0
  151.1364  137.7034  156.4774 C   0  0  0  0  0  0  0  0  0  0  0  0
  151.8109  138.9510  157.0742 C   0  0  0  0  0  0  0  0  0  0  0  0
  151.1008  140.1592  156.6537 N   0  0  0  0  0  0  0  0  0  0  0  0
  151.7322  141.3138  157.2715 C   0  0  0  0  0  0  0  0  0  0  0  0
  150.9951  141.9891  158.4053 C   0  0  0  0  0  0  0  0  0  0  0  0
  151.0850  142.6630  157.0573 C   0  0  0  0  0  0  0  0  0  0  0  0
  151.1758  140.2995  155.1993 C   0  0  0  0  0  0  0  0  0  0  0  0
  150.4705  139.1153  154.5150 C   0  0  0  0  0  0  0  0  0  0  0  0
  145.9392  133.6522  151.3191 H   0  0  0  0  0  0  0  0  0  0  0  0
  145.7088  132.3986  152.5332 H   0  0  0  0  0  0  0  0  0  0  0  0
  146.8328  132.1420  151.1791 H   0  0  0  0  0  0  0  0  0  0  0  0
  148.5196  129.4564  154.2123 H   0  0  0  0  0  0  0  0  0  0  0  0
  150.4159  130.2996  155.6184 H   0  0  0  0  0  0  0  0  0  0  0  0
  150.9358  132.7245  155.6012 H   0  0  0  0  0  0  0  0  0  0  0  0
  148.9062  135.1052  153.4843 H   0  0  0  0  0  0  0  0  0  0  0  0
  149.6645  136.8919  153.6673 H   0  0  0  0  0  0  0  0  0  0  0  0
  152.1208  137.7467  154.5695 H   0  0  0  0  0  0  0  0  0  0  0  0
  150.1241  137.6155  156.8752 H   0  0  0  0  0  0  0  0  0  0  0  0
  151.6722  136.8076  156.7936 H   0  0  0  0  0  0  0  0  0  0  0  0
  151.8010  138.8826  158.1627 H   0  0  0  0  0  0  0  0  0  0  0  0
  152.8567  139.0006  156.7662 H   0  0  0  0  0  0  0  0  0  0  0  0
  152.8181  141.3299  157.3514 H   0  0  0  0  0  0  0  0  0  0  0  0
  150.0293  141.5825  158.6992 H   0  0  0  0  0  0  0  0  0  0  0  0
  151.5925  142.4021  159.2156 H   0  0  0  0  0  0  0  0  0  0  0  0
  151.7420  143.5258  156.9691 H   0  0  0  0  0  0  0  0  0  0  0  0
  150.1787  142.7045  156.4559 H   0  0  0  0  0  0  0  0  0  0  0  0
  150.6952  141.2309  154.8975 H   0  0  0  0  0  0  0  0  0  0  0  0
  152.2171  140.3582  154.8780 H   0  0  0  0  0  0  0  0  0  0  0  0
  150.5312  139.2264  153.4318 H   0  0  0  0  0  0  0  0  0  0  0  0
  149.4093  139.1315  154.7688 H   0  0  0  0  0  0  0  0  0  0  0  0
  1  2  1  0  0  0  0
  1 22  1  0  0  0  0
  1 23  1  0  0  0  0
  1 24  1  0  0  0  0
  2  3  1  0  0  0  0
  3  8  1  0  0  0  0
  3  4  2  0  0  0  0
  4  5  1  0  0  0  0
  5  6  2  0  0  0  0
  5 25  1  0  0  0  0
  6  7  1  0  0  0  0
  6 26  1  0  0  0  0
  7  8  2  0  0  0  0
  7 27  1  0  0  0  0
  8  9  1  0  0  0  0
  9 10  1  0  0  0  0
  9 28  1  0  0  0  0
 10 11  2  0  0  0  0
 10 12  1  0  0  0  0
 12 13  1  0  0  0  0
 12 29  1  0  0  0  0
 13 21  1  0  0  0  0
 13 14  1  0  0  0  0
 13 30  1  0  0  0  0
 14 15  1  0  0  0  0
 14 31  1  0  0  0  0
 14 32  1  0  0  0  0
 15 16  1  0  0  0  0
 15 33  1  0  0  0  0
 15 34  1  0  0  0  0
 16 17  1  0  0  0  0
 16 20  1  0  0  0  0
 17 19  1  0  0  0  0
 17 18  1  0  0  0  0
 17 35  1  0  0  0  0
 18 19  1  0  0  0  0
 18 36  1  0  0  0  0
 18 37  1  0  0  0  0
 19 38  1  0  0  0  0
 19 39  1  0  0  0  0
 20 21  1  0  0  0  0
 20 40  1  0  0  0  0
 20 41  1  0  0  0  0
 21 42  1  0  0  0  0
 21 43  1  0  0  0  0
M  END
> <s_m_source_file>
AV-unprocessed.smi

> <i_m_source_file_index>
1263

> <i_lp_mmshare_version>
43012

> <i_f3d_flags>
0

> <s_epik_input>
W0NIM11PYzFuW2NIXVtjSF1bY0hdYzFbTkhdQyg9TylbTkhdW0NIXTJbQ0gyXVtDSDJdTihbQ0gyXVtDSDJdMilbQ0hdM1tDSDJdW0NIMl0z

> <s_epik_cmdline>
J2VwaWtfcHl0aG9uJywgJy1waCcsICc3LjAnLCAnLXRuJywgJzgnLCAnLW1hJywgJzIwMCcsICctbWV0YWxfYmluZGluZycsICctaW1hZScsICc8aW5maWxlLm1hZT4nLCAnLW9tYWUnLCAnPG91dGZpbGUubWFlPic=

> <r_lp_tautomer_probability>
1

> <r_epik_Ionization_Penalty>
1.02543

> <r_epik_Ionization_Penalty_Charging>
0

> <r_epik_Ionization_Penalty_Neutral>
1.02543

> <r_epik_State_Penalty>
1.07599

> <r_epik_Charging_Adjusted_Penalty>
1.07599

> <i_epik_Tot_Q>
0

> <i_epik_Tot_abs_Q>
0

> <r_epik_Metal_State_Penalty>
1.07599

> <b_epik_Metal_Only>
0

> <s_lp_Force_Field>
OPLS_2005

> <r_lp_Energy>
24.353

> <b_lp_Chiralities_Consistent>
1

> <s_lp_Variant>
AV-unprocessed.smi:1263-3

> <Gold.Version>
5.8.1

> <Gold.Id.Protein>
6NUR|6NUR_protein|mol2

> <Gold.PLP.Fitness>
41.8190

> <Gold.PLP.PLP>
-34.9122

> <Gold.PLP.part.hbond>
-4.1052

> <Gold.PLP.part.metal>
0.0000

> <Gold.PLP.part.buried>
-1.9203

> <Gold.PLP.part.nonpolar>
-29.5219

> <Gold.PLP.part.repulsive>
1.0410

> <Gold.PLP.ligand.clash>
0.0000

> <Gold.PLP.ligand.torsion>
0.8856

> <Gold.PLP.Chemscore.Hbond>
2.5022

> <Gold.PLP.Chemscore.CHOScore>
0.0000

> <Gold.PLP.Chemscore.Metal>
0.0000

> <Gold.Chemscore.Hbonds>
donor molecule, donor type, donor heavy atom, donor atom, acceptor molecule, acceptor atom, score
      L1  H     9    28       P1  7948  0.80
      L1  H    12    29       P1  7948  0.83
      P1  H 10752 10763       L1    11  0.71

> <Gold.PLP.Chemscore.Internal.Correction>
1.1715

> <Gold.Rescore>
     Score         DG    S(hbond)    S(metal)    S(lipo)     H(rot)  DE(clash)    DE(int)     intcor
     11.33     -15.32       1.32        0.00      77.14       1.41       0.73       3.26       ----

> <Gold.Chemscore.Fitness>
11.3251

> <Gold.Chemscore.DG>
-15.3194

> <Gold.Chemscore.ZeroCoef>
-5.4800

> <Gold.Chemscore.Hbond>
1.3210

> <Gold.Chemscore.Metal>
0.0000

> <Gold.Chemscore.Lipo>
77.1371

> <Gold.Chemscore.Internal_Hbond>
0.0000

> <Gold.Chemscore.DEClash>
0.7336

> <Gold.Chemscore.DEInternal>
3.2607

> <Gold.Chemscore.Rot>
1.4053

> <Gold.Chemscore.Internal.Correction>
   9.000000E+99

> <Gold.Chemscore.Hbonds>
donor molecule, donor type, donor heavy atom, donor atom, acceptor molecule, acceptor atom, score
      L1  H     9    28       P1  7948  0.39
      L1  H    12    29       P1  7948  0.55
      P1  H 10752 10763       L1    11  0.24

> <Gold.Chemscore.Hbond.Weighted>
-4.4121

> <Gold.Chemscore.Metal.Weighted>
-0.0000

> <Gold.Chemscore.Lipo.Weighted>
-9.0250

> <Gold.Chemscore.Internal_Hbond.Weighted>
0.0000

> <Gold.Chemscore.DEClash.Weighted>
0.7336

> <Gold.Chemscore.DEInternal.Weighted>
3.2607

> <Gold.Chemscore.Rot.Weighted>
3.5977

> <Gold.Chemscore.Internal.Correction.Weighted>
   9.000000E+99

> <Gold.Protein.RotatedTorsions>
[ 6907 6896 6895 6894 ] final -159.07 input  -60.11 | X-H torsion
[ 7974 7965 7964 7962 ] final  126.93 input  175.53 | X-H torsion
[ 8008 7997 7996 7995 ] final  130.27 input   59.86 | X-H torsion
[ 10167 10162 10161 10158 ] final   19.64 input  -65.29 | X-H torsion
[ 10718 10713 10712 10709 ] final   47.47 input   66.30 | X-H torsion
[ 10763 10752 10751 10750 ] final   81.27 input  -60.55 | X-H torsion
[ 11005 11000 10999 10996 ] final  -40.03 input  -57.11 | X-H torsion

> <Gold.Protein.ActiveResidues>
 VAL166  LYS551  ARG553  GLY616  TRP617  ASP618  TYR619  PRO620  LYS621  CYS622 
 ASP623  PHE694  ASN695  SER759  ASP760  ASP761  ALA762  ILE779  LEU786  VAL792 
 PHE793  MET794  SER795  GLU796  ALA797  LYS798  CYS799  TRP800  GLU811  SER814 

> <Gold.Protein.RotatedAtoms>
  151.3280  133.4012  159.2659 H   0  0  0  0  0  0  0  0  0  0  0  0  # atno 6907 bound_to 6896
  150.9979  134.9299  159.7947 H   0  0  0  0  0  0  0  0  0  0  0  0  # atno 6908 bound_to 6896
  152.5266  134.3245  159.9213 H   0  0  0  0  0  0  0  0  0  0  0  0  # atno 6909 bound_to 6896
  145.0562  139.3842  143.5029 H   0  0  0  0  0  0  0  0  0  0  0  0  # atno 7974 bound_to 7965
  156.2951  140.2600  156.2735 H   0  0  0  0  0  0  0  0  0  0  0  0  # atno 8008 bound_to 7997
  154.9672  140.0391  157.2236 H   0  0  0  0  0  0  0  0  0  0  0  0  # atno 8009 bound_to 7997
  154.7892  140.2809  155.6009 H   0  0  0  0  0  0  0  0  0  0  0  0  # atno 8010 bound_to 7997
  140.5564  143.9417  150.6612 H   0  0  0  0  0  0  0  0  0  0  0  0  # atno 10167 bound_to 10162
  157.4588  130.8184  149.7865 H   0  0  0  0  0  0  0  0  0  0  0  0  # atno 10718 bound_to 10713
  153.1103  135.4771  154.9023 H   0  0  0  0  0  0  0  0  0  0  0  0  # atno 10763 bound_to 10752
  154.7473  135.3097  154.8624 H   0  0  0  0  0  0  0  0  0  0  0  0  # atno 10764 bound_to 10752
  153.9215  135.6854  153.4801 H   0  0  0  0  0  0  0  0  0  0  0  0  # atno 10765 bound_to 10752
  141.0145  133.6892  156.2266 H   0  0  0  0  0  0  0  0  0  0  0  0  # atno 11005 bound_to 11000
  146.3521  140.0238  142.8656 LP  0  0  0  0  0  0  0  0  0  0  0  0  # atno 17320 bound_to 7965
  145.1465  140.9600  143.4458 LP  0  0  0  0  0  0  0  0  0  0  0  0  # atno 17321 bound_to 7965
  140.2856  143.3359  152.1110 LP  0  0  0  0  0  0  0  0  0  0  0  0  # atno 17342 bound_to 10162
  139.5050  144.6786  151.6066 LP  0  0  0  0  0  0  0  0  0  0  0  0  # atno 17343 bound_to 10162
  156.0019  130.3875  150.2573 LP  0  0  0  0  0  0  0  0  0  0  0  0  # atno 17370 bound_to 10713
  157.0749  131.0127  151.3177 LP  0  0  0  0  0  0  0  0  0  0  0  0  # atno 17371 bound_to 10713
  140.6678  134.4899  157.5586 LP  0  0  0  0  0  0  0  0  0  0  0  0  # atno 17394 bound_to 11000
  139.9109  134.8348  156.1533 LP  0  0  0  0  0  0  0  0  0  0  0  0  # atno 17395 bound_to 11000

$$$$
