AV-unprocessed.smi:1009|AV-procd|sdf|4414|dock6
  -GOLD-   22720 2363D 1   1.00000     0.00000
 Structure written by MMmdl.
 33 33  0  0  0  0  0  0  0  0  2 V2000
  147.0318  141.1474  153.7126 C   0  0  0  0  0  0  0  0  0  0  0  0
  146.2384  139.8985  153.7164 N   0  3  0  0  0  0  0  0  0  0  0  0
  145.8881  139.4826  155.0944 C   0  0  0  0  0  0  0  0  0  0  0  0
  146.8894  138.8223  152.9288 C   0  0  0  0  0  0  0  0  0  0  0  0
  145.9084  138.1093  151.9780 C   0  0  0  0  0  0  0  0  0  0  0  0
  146.3453  136.7484  151.6946 N   0  0  0  0  0  0  0  0  0  0  0  0
  145.5273  135.6983  151.5235 C   0  0  0  0  0  0  0  0  0  0  0  0
  144.2998  135.7830  151.5588 O   0  0  0  0  0  0  0  0  0  0  0  0
  146.1961  134.3429  151.2929 C   0  0  0  0  0  0  0  0  0  0  0  0
  145.2119  133.3343  150.9441 N   0  0  0  0  0  0  0  0  0  0  0  0
  145.0011  132.1032  151.5363 C   0  0  0  0  0  0  0  0  0  0  0  0
  143.9822  131.4917  150.8620 C   0  0  0  0  0  0  0  0  0  0  0  0
  143.6408  132.4473  149.8677 C   0  0  0  0  0  0  0  0  0  0  0  0
  142.6326  132.2445  148.9293 N   0  0  0  0  0  0  0  0  0  0  0  0
  144.3685  133.5482  149.9081 N   0  0  0  0  0  0  0  0  0  0  0  0
  148.0030  140.9951  154.1858 H   0  0  0  0  0  0  0  0  0  0  0  0
  146.5090  141.9392  154.2504 H   0  0  0  0  0  0  0  0  0  0  0  0
  147.1984  141.4981  152.6933 H   0  0  0  0  0  0  0  0  0  0  0  0
  146.7794  139.2023  155.6573 H   0  0  0  0  0  0  0  0  0  0  0  0
  145.2037  138.6350  155.0952 H   0  0  0  0  0  0  0  0  0  0  0  0
  145.3938  140.2961  155.6270 H   0  0  0  0  0  0  0  0  0  0  0  0
  147.6894  139.2542  152.3254 H   0  0  0  0  0  0  0  0  0  0  0  0
  147.3658  138.1126  153.6071 H   0  0  0  0  0  0  0  0  0  0  0  0
  144.8982  138.0840  152.3875 H   0  0  0  0  0  0  0  0  0  0  0  0
  145.8471  138.6493  151.0328 H   0  0  0  0  0  0  0  0  0  0  0  0
  147.3413  136.5842  151.6513 H   0  0  0  0  0  0  0  0  0  0  0  0
  146.9244  134.4190  150.4843 H   0  0  0  0  0  0  0  0  0  0  0  0
  146.7395  134.0304  152.1862 H   0  0  0  0  0  0  0  0  0  0  0  0
  145.5903  131.7683  152.3775 H   0  0  0  0  0  0  0  0  0  0  0  0
  143.5536  130.5186  151.0506 H   0  0  0  0  0  0  0  0  0  0  0  0
  142.0893  131.3934  148.9136 H   0  0  0  0  0  0  0  0  0  0  0  0
  142.3650  132.9710  148.2812 H   0  0  0  0  0  0  0  0  0  0  0  0
  145.3720  140.1172  153.2456 H   0  0  0  0  0  0  0  0  0  0  0  0
  1  2  1  0  0  0  0
  1 16  1  0  0  0  0
  1 17  1  0  0  0  0
  1 18  1  0  0  0  0
  2  3  1  0  0  0  0
  2  4  1  0  0  0  0
  2 33  1  0  0  0  0
  3 19  1  0  0  0  0
  3 20  1  0  0  0  0
  3 21  1  0  0  0  0
  4  5  1  0  0  0  0
  4 22  1  0  0  0  0
  4 23  1  0  0  0  0
  5  6  1  0  0  0  0
  5 24  1  0  0  0  0
  5 25  1  0  0  0  0
  6  7  1  0  0  0  0
  6 26  1  0  0  0  0
  7  8  2  0  0  0  0
  7  9  1  0  0  0  0
  9 10  1  0  0  0  0
  9 27  1  0  0  0  0
  9 28  1  0  0  0  0
 10 15  1  0  0  0  0
 10 11  1  0  0  0  0
 11 12  2  0  0  0  0
 11 29  1  0  0  0  0
 12 13  1  0  0  0  0
 12 30  1  0  0  0  0
 13 14  1  0  0  0  0
 13 15  2  0  0  0  0
 14 31  1  0  0  0  0
 14 32  1  0  0  0  0
M  CHG  1   2   1
M  END
> <s_m_source_file>
AV-unprocessed.smi

> <i_m_source_file_index>
1009

> <i_lp_mmshare_version>
43012

> <i_f3d_flags>
0

> <s_epik_input>
W0NIM11OKFtDSDNdKVtDSDJdW0NIMl1bTkhdQyg9TylbQ0gyXW4xW2NIXVtjSF1jKG4xKVtOSDJd

> <s_epik_cmdline>
J2VwaWtfcHl0aG9uJywgJy1waCcsICc3LjAnLCAnLXRuJywgJzgnLCAnLW1hJywgJzIwMCcsICctbWV0YWxfYmluZGluZycsICctaW1hZScsICc8aW5maWxlLm1hZT4nLCAnLW9tYWUnLCAnPG91dGZpbGUubWFlPic=

> <r_lp_tautomer_probability>
1

> <r_epik_Ionization_Penalty>
0.00595791

> <r_epik_Ionization_Penalty_Charging>
0.00581587

> <r_epik_Ionization_Penalty_Neutral>
0.000142034

> <r_epik_State_Penalty>
0.00427192

> <r_epik_Charging_Adjusted_Penalty>
0.0100878

> <i_epik_Tot_Q>
1

> <i_epik_Tot_abs_Q>
1

> <r_epik_Metal_State_Penalty>
-0

> <b_epik_Metal_Only>
0

> <s_lp_Force_Field>
OPLS_2005

> <r_lp_Energy>
4.99311

> <b_lp_Chiralities_Consistent>
1

> <s_lp_Variant>
AV-unprocessed.smi:1009-1

> <Gold.Version>
5.8.1

> <Gold.Id.Protein>
6NUR|6NUR_protein|mol2

> <Gold.PLP.Fitness>
38.9227

> <Gold.PLP.PLP>
-28.9903

> <Gold.PLP.part.hbond>
-4.0000

> <Gold.PLP.part.metal>
0.0000

> <Gold.PLP.part.buried>
-4.6743

> <Gold.PLP.part.nonpolar>
-22.9014

> <Gold.PLP.part.repulsive>
1.9903

> <Gold.PLP.ligand.clash>
0.0000

> <Gold.PLP.ligand.torsion>
1.0353

> <Gold.PLP.Chemscore.Hbond>
3.9913

> <Gold.PLP.Chemscore.CHOScore>
0.0000

> <Gold.PLP.Chemscore.Metal>
0.0000

> <Gold.Chemscore.Hbonds>
donor molecule, donor type, donor heavy atom, donor atom, acceptor molecule, acceptor atom, score
      L1  H     2    33       P1 10175  2.00
      L1  H     6    26       P1  7948  1.00
      L1  H    14    31       P1 10952  1.00
      L1  H    14    32       P1 10186  0.03

> <Gold.PLP.Chemscore.Internal.Correction>
0.0292

> <Gold.Rescore>
     Score         DG    S(hbond)    S(metal)    S(lipo)     H(rot)  DE(clash)    DE(int)     intcor
     12.35     -15.71       3.29        0.00      47.08       2.45       0.50       2.86       ----

> <Gold.Chemscore.Fitness>
12.3549

> <Gold.Chemscore.DG>
-15.7065

> <Gold.Chemscore.ZeroCoef>
-5.4800

> <Gold.Chemscore.Hbond>
3.2902

> <Gold.Chemscore.Metal>
0.0000

> <Gold.Chemscore.Lipo>
47.0816

> <Gold.Chemscore.Internal_Hbond>
0.0000

> <Gold.Chemscore.DEClash>
0.4952

> <Gold.Chemscore.DEInternal>
2.8563

> <Gold.Chemscore.Rot>
2.4497

> <Gold.Chemscore.Internal.Correction>
   9.000000E+99

> <Gold.Chemscore.Hbonds>
donor molecule, donor type, donor heavy atom, donor atom, acceptor molecule, acceptor atom, score
      L1  H     2    33       P1 10175  1.00
      L1  H     6    26       P1  7948  1.00
      L1  H    14    31       P1 10952  0.96
      L1  H    14    32       P1 10186  0.03

> <Gold.Chemscore.Hbond.Weighted>
-10.9892

> <Gold.Chemscore.Metal.Weighted>
-0.0000

> <Gold.Chemscore.Lipo.Weighted>
-5.5085

> <Gold.Chemscore.Internal_Hbond.Weighted>
0.0000

> <Gold.Chemscore.DEClash.Weighted>
0.4952

> <Gold.Chemscore.DEInternal.Weighted>
2.8563

> <Gold.Chemscore.Rot.Weighted>
6.2713

> <Gold.Chemscore.Internal.Correction.Weighted>
   9.000000E+99

> <Gold.Protein.RotatedTorsions>
[ 6907 6896 6895 6894 ] final  -72.59 input  -60.11 | X-H torsion
[ 7974 7965 7964 7962 ] final  151.09 input  175.53 | X-H torsion
[ 8008 7997 7996 7995 ] final -132.45 input   59.86 | X-H torsion
[ 10167 10162 10161 10158 ] final   -9.11 input  -65.29 | X-H torsion
[ 10718 10713 10712 10709 ] final  176.74 input   66.30 | X-H torsion
[ 10763 10752 10751 10750 ] final  175.07 input  -60.55 | X-H torsion
[ 11005 11000 10999 10996 ] final   24.72 input  -57.11 | X-H torsion

> <Gold.Protein.ActiveResidues>
 VAL166  LYS551  ARG553  GLY616  TRP617  ASP618  TYR619  PRO620  LYS621  CYS622 
 ASP623  PHE694  ASN695  SER759  ASP760  ASP761  ALA762  ILE779  LEU786  VAL792 
 PHE793  MET794  SER795  GLU796  ALA797  LYS798  CYS799  TRP800  GLU811  SER814 

> <Gold.Protein.RotatedAtoms>
  150.7164  134.5141  159.5621 H   0  0  0  0  0  0  0  0  0  0  0  0  # atno 6907 bound_to 6896
  152.2711  134.7929  160.0423 H   0  0  0  0  0  0  0  0  0  0  0  0  # atno 6908 bound_to 6896
  151.8609  133.3421  159.3740 H   0  0  0  0  0  0  0  0  0  0  0  0  # atno 6909 bound_to 6896
  144.8317  139.6493  143.6056 H   0  0  0  0  0  0  0  0  0  0  0  0  # atno 7974 bound_to 7965
  155.3292  140.0466  157.3042 H   0  0  0  0  0  0  0  0  0  0  0  0  # atno 8008 bound_to 7997
  154.5338  140.2265  155.8724 H   0  0  0  0  0  0  0  0  0  0  0  0  # atno 8009 bound_to 7997
  156.1814  140.3073  155.9163 H   0  0  0  0  0  0  0  0  0  0  0  0  # atno 8010 bound_to 7997
  140.7078  143.5894  150.8910 H   0  0  0  0  0  0  0  0  0  0  0  0  # atno 10167 bound_to 10162
  156.9156  130.9924  151.3013 H   0  0  0  0  0  0  0  0  0  0  0  0  # atno 10718 bound_to 10713
  154.4625  135.2768  155.1702 H   0  0  0  0  0  0  0  0  0  0  0  0  # atno 10763 bound_to 10752
  154.3484  135.6155  153.5634 H   0  0  0  0  0  0  0  0  0  0  0  0  # atno 10764 bound_to 10752
  152.9856  135.5805  154.4991 H   0  0  0  0  0  0  0  0  0  0  0  0  # atno 10765 bound_to 10752
  140.3556  134.2181  155.7676 H   0  0  0  0  0  0  0  0  0  0  0  0  # atno 11005 bound_to 11000
  146.2619  139.6431  142.9356 LP  0  0  0  0  0  0  0  0  0  0  0  0  # atno 17320 bound_to 7965
  145.4881  141.0438  143.2608 LP  0  0  0  0  0  0  0  0  0  0  0  0  # atno 17321 bound_to 7965
  139.9619  143.6154  152.3000 LP  0  0  0  0  0  0  0  0  0  0  0  0  # atno 17342 bound_to 10162
  139.6710  144.7661  151.1784 LP  0  0  0  0  0  0  0  0  0  0  0  0  # atno 17343 bound_to 10162
  157.5940  130.8464  149.8701 LP  0  0  0  0  0  0  0  0  0  0  0  0  # atno 17370 bound_to 10713
  156.0515  130.3716  150.1190 LP  0  0  0  0  0  0  0  0  0  0  0  0  # atno 17371 bound_to 10713
  141.1999  133.8000  157.0514 LP  0  0  0  0  0  0  0  0  0  0  0  0  # atno 17394 bound_to 11000
  140.0667  134.9725  157.1398 LP  0  0  0  0  0  0  0  0  0  0  0  0  # atno 17395 bound_to 11000

$$$$
