AV-unprocessed.smi:2160|AV-procd|sdf|8797|dock4
  -GOLD-   2272011583D 1   1.00000     0.00000
 Structure written by MMmdl.
 43 45  0  0  0  0  0  0  0  0  1 V2000
  144.4962  143.6175  156.0570 C   0  0  0  0  0  0  0  0  0  0  0  0
  144.6510  142.2132  156.2005 O   0  0  0  0  0  0  0  0  0  0  0  0
  145.7283  141.6132  155.5843 C   0  0  0  0  0  0  0  0  0  0  0  0
  146.7211  142.3145  154.8547 C   0  0  0  0  0  0  0  0  0  0  0  0
  147.7902  141.6201  154.2555 C   0  0  0  0  0  0  0  0  0  0  0  0
  147.8901  140.2199  154.3795 C   0  0  0  0  0  0  0  0  0  0  0  0
  149.0349  139.4794  153.7133 C   0  0  0  0  0  0  0  0  0  0  0  0
  150.2856  139.7825  154.3091 O   0  0  0  0  0  0  0  0  0  0  0  0
  150.4971  139.1004  155.5338 C   0  0  0  0  0  0  0  0  0  0  0  0
  151.5778  139.8424  156.3328 C   0  0  2  0  0  0  0  0  0  0  0  0
  152.8129  139.7097  155.6573 O   0  0  0  0  0  0  0  0  0  0  0  0
  151.7122  139.3137  157.7742 C   0  0  0  0  0  0  0  0  0  0  0  0
  152.3156  140.2883  158.6642 N   0  0  0  0  0  0  0  0  0  0  0  0
  153.1675  140.0513  159.6803 C   0  0  0  0  0  0  0  0  0  0  0  0
  153.6000  141.1033  160.3706 N   0  0  0  0  0  0  0  0  0  0  0  0
  152.9536  142.1447  159.7266 C   0  0  0  0  0  0  0  0  0  0  0  0
  152.9851  143.5365  159.9712 C   0  0  0  0  0  0  0  0  0  0  0  0
  152.2302  144.4198  159.1711 C   0  0  0  0  0  0  0  0  0  0  0  0
  151.4340  143.9270  158.1167 C   0  0  0  0  0  0  0  0  0  0  0  0
  151.3866  142.5445  157.8539 C   0  0  0  0  0  0  0  0  0  0  0  0
  152.1413  141.6672  158.6545 C   0  0  0  0  0  0  0  0  0  0  0  0
  146.9000  139.5167  155.0962 C   0  0  0  0  0  0  0  0  0  0  0  0
  145.8316  140.2115  155.6948 C   0  0  0  0  0  0  0  0  0  0  0  0
  143.6068  143.9387  156.5990 H   0  0  0  0  0  0  0  0  0  0  0  0
  144.3641  143.8997  155.0115 H   0  0  0  0  0  0  0  0  0  0  0  0
  145.3478  144.1576  156.4729 H   0  0  0  0  0  0  0  0  0  0  0  0
  146.6846  143.3869  154.7381 H   0  0  0  0  0  0  0  0  0  0  0  0
  148.5356  142.1692  153.6992 H   0  0  0  0  0  0  0  0  0  0  0  0
  148.8370  138.4088  153.7851 H   0  0  0  0  0  0  0  0  0  0  0  0
  149.0636  139.7369  152.6532 H   0  0  0  0  0  0  0  0  0  0  0  0
  149.5699  139.0425  156.1067 H   0  0  0  0  0  0  0  0  0  0  0  0
  150.8198  138.0790  155.3244 H   0  0  0  0  0  0  0  0  0  0  0  0
  151.3303  140.9047  156.3551 H   0  0  0  0  0  0  0  0  0  0  0  0
  152.6413  139.4476  154.7658 H   0  0  0  0  0  0  0  0  0  0  0  0
  150.7313  139.0557  158.1753 H   0  0  0  0  0  0  0  0  0  0  0  0
  152.3069  138.3992  157.7961 H   0  0  0  0  0  0  0  0  0  0  0  0
  153.4896  139.0500  159.9260 H   0  0  0  0  0  0  0  0  0  0  0  0
  153.5914  143.9252  160.7756 H   0  0  0  0  0  0  0  0  0  0  0  0
  152.2627  145.4815  159.3676 H   0  0  0  0  0  0  0  0  0  0  0  0
  150.8594  144.6109  157.5091 H   0  0  0  0  0  0  0  0  0  0  0  0
  150.7793  142.1619  157.0471 H   0  0  0  0  0  0  0  0  0  0  0  0
  146.9537  138.4421  155.1912 H   0  0  0  0  0  0  0  0  0  0  0  0
  145.0813  139.6615  156.2437 H   0  0  0  0  0  0  0  0  0  0  0  0
  1  2  1  0  0  0  0
  1 24  1  0  0  0  0
  1 25  1  0  0  0  0
  1 26  1  0  0  0  0
  2  3  1  0  0  0  0
  3 23  1  0  0  0  0
  3  4  2  0  0  0  0
  4  5  1  0  0  0  0
  4 27  1  0  0  0  0
  5  6  2  0  0  0  0
  5 28  1  0  0  0  0
  6  7  1  0  0  0  0
  6 22  1  0  0  0  0
  7  8  1  0  0  0  0
  7 29  1  0  0  0  0
  7 30  1  0  0  0  0
  8  9  1  0  0  0  0
  9 10  1  0  0  0  0
  9 31  1  0  0  0  0
  9 32  1  0  0  0  0
 10 11  1  0  0  0  0
 10 12  1  0  0  0  0
 10 33  1  0  0  0  0
 11 34  1  0  0  0  0
 12 13  1  0  0  0  0
 12 35  1  0  0  0  0
 12 36  1  0  0  0  0
 13 21  1  0  0  0  0
 13 14  1  0  0  0  0
 14 15  2  0  0  0  0
 14 37  1  0  0  0  0
 15 16  1  0  0  0  0
 16 21  2  0  0  0  0
 16 17  1  0  0  0  0
 17 18  2  0  0  0  0
 17 38  1  0  0  0  0
 18 19  1  0  0  0  0
 18 39  1  0  0  0  0
 19 20  2  0  0  0  0
 19 40  1  0  0  0  0
 20 21  1  0  0  0  0
 20 41  1  0  0  0  0
 22 23  2  0  0  0  0
 22 42  1  0  0  0  0
 23 43  1  0  0  0  0
M  END
> <s_m_source_file>
AV-unprocessed.smi

> <i_m_source_file_index>
2160

> <i_lp_mmshare_version>
43012

> <i_f3d_flags>
0

> <s_epik_input>
W0NIM11PYzFbY0hdW2NIXWMoW2NIXVtjSF0xKVtDSDJdT1tDSDJdW0NASF0oW09IXSlbQ0gyXW4oW2NIXW4yKWMoYzIzKVtjSF1bY0hdW2NIXVtjSF0z

> <s_epik_cmdline>
J2VwaWtfcHl0aG9uJywgJy1waCcsICc3LjAnLCAnLXRuJywgJzgnLCAnLW1hJywgJzIwMCcsICctbWV0YWxfYmluZGluZycsICctaW1hZScsICc8aW5maWxlLm1hZT4nLCAnLW9tYWUnLCAnPG91dGZpbGUubWFlPic=

> <r_lp_tautomer_probability>
1

> <r_epik_Ionization_Penalty>
0.0713119

> <r_epik_Ionization_Penalty_Charging>
0

> <r_epik_Ionization_Penalty_Neutral>
0.0713119

> <r_epik_State_Penalty>
0.06259

> <r_epik_Charging_Adjusted_Penalty>
0.06259

> <i_epik_Tot_Q>
0

> <i_epik_Tot_abs_Q>
0

> <r_epik_Metal_State_Penalty>
6.60119e-05

> <b_epik_Metal_Only>
0

> <s_lp_Force_Field>
OPLS_2005

> <r_lp_Energy>
16.653

> <b_lp_Chiralities_Consistent>
1

> <s_lp_Variant>
AV-unprocessed.smi:2160-1

> <Gold.Version>
5.8.1

> <Gold.Id.Protein>
6NUR|6NUR_protein|mol2

> <Gold.PLP.Fitness>
50.3653

> <Gold.PLP.PLP>
-45.8861

> <Gold.PLP.part.hbond>
-2.0000

> <Gold.PLP.part.metal>
0.0000

> <Gold.PLP.part.buried>
-3.1381

> <Gold.PLP.part.nonpolar>
-42.2252

> <Gold.PLP.part.repulsive>
0.2945

> <Gold.PLP.ligand.clash>
0.0000

> <Gold.PLP.ligand.torsion>
0.8173

> <Gold.PLP.Chemscore.Hbond>
2.0000

> <Gold.PLP.Chemscore.CHOScore>
0.0000

> <Gold.PLP.Chemscore.Metal>
0.0000

> <Gold.Chemscore.Hbonds>
donor molecule, donor type, donor heavy atom, donor atom, acceptor molecule, acceptor atom, score
      P1  H  7989  7998       L1     8  1.00
      P1  H  7997  8010       L1    11  1.00

> <Gold.PLP.Chemscore.Internal.Correction>
0.1139

> <Gold.Rescore>
     Score         DG    S(hbond)    S(metal)    S(lipo)     H(rot)  DE(clash)    DE(int)     intcor
     18.27     -20.46       1.97        0.00     129.42       2.63       1.60       0.58       ----

> <Gold.Chemscore.Fitness>
18.2721

> <Gold.Chemscore.DG>
-20.4592

> <Gold.Chemscore.ZeroCoef>
-5.4800

> <Gold.Chemscore.Hbond>
1.9675

> <Gold.Chemscore.Metal>
0.0000

> <Gold.Chemscore.Lipo>
129.4227

> <Gold.Chemscore.Internal_Hbond>
0.0000

> <Gold.Chemscore.DEClash>
1.6026

> <Gold.Chemscore.DEInternal>
0.5846

> <Gold.Chemscore.Rot>
2.6308

> <Gold.Chemscore.Internal.Correction>
   9.000000E+99

> <Gold.Chemscore.Hbonds>
donor molecule, donor type, donor heavy atom, donor atom, acceptor molecule, acceptor atom, score
      P1  H  7989  7998       L1     8  0.98
      P1  H  7997  8010       L1    11  0.98

> <Gold.Chemscore.Hbond.Weighted>
-6.5715

> <Gold.Chemscore.Metal.Weighted>
-0.0000

> <Gold.Chemscore.Lipo.Weighted>
-15.1425

> <Gold.Chemscore.Internal_Hbond.Weighted>
0.0000

> <Gold.Chemscore.DEClash.Weighted>
1.6026

> <Gold.Chemscore.DEInternal.Weighted>
0.5846

> <Gold.Chemscore.Rot.Weighted>
6.7347

> <Gold.Chemscore.Internal.Correction.Weighted>
   9.000000E+99

> <Gold.Protein.RotatedTorsions>
[ 6907 6896 6895 6894 ] final -164.57 input  -60.11 | X-H torsion
[ 7974 7965 7964 7962 ] final   84.58 input  175.53 | X-H torsion
[ 8008 7997 7996 7995 ] final   91.03 input   59.86 | X-H torsion
[ 10167 10162 10161 10158 ] final -117.51 input  -65.29 | X-H torsion
[ 10718 10713 10712 10709 ] final  -54.24 input   66.30 | X-H torsion
[ 10763 10752 10751 10750 ] final   15.20 input  -60.55 | X-H torsion
[ 11005 11000 10999 10996 ] final -107.14 input  -57.11 | X-H torsion

> <Gold.Protein.ActiveResidues>
 VAL166  LYS551  ARG553  GLY616  TRP617  ASP618  TYR619  PRO620  LYS621  CYS622 
 ASP623  PHE694  ASN695  SER759  ASP760  ASP761  ALA762  ILE779  LEU786  VAL792 
 PHE793  MET794  SER795  GLU796  ALA797  LYS798  CYS799  TRP800  GLU811  SER814 

> <Gold.Protein.RotatedAtoms>
  151.4139  133.3719  159.2747 H   0  0  0  0  0  0  0  0  0  0  0  0  # atno 6907 bound_to 6896
  150.9342  134.8757  159.7582 H   0  0  0  0  0  0  0  0  0  0  0  0  # atno 6908 bound_to 6896
  152.5042  134.4086  159.9493 H   0  0  0  0  0  0  0  0  0  0  0  0  # atno 6909 bound_to 6896
  145.5969  139.2346  143.2268 H   0  0  0  0  0  0  0  0  0  0  0  0  # atno 7974 bound_to 7965
  156.0190  140.3342  155.7019 H   0  0  0  0  0  0  0  0  0  0  0  0  # atno 8008 bound_to 7997
  155.6049  140.0659  157.2740 H   0  0  0  0  0  0  0  0  0  0  0  0  # atno 8009 bound_to 7997
  154.4309  140.1803  156.1200 H   0  0  0  0  0  0  0  0  0  0  0  0  # atno 8010 bound_to 7997
  140.0676  143.4908  152.1997 H   0  0  0  0  0  0  0  0  0  0  0  0  # atno 10167 bound_to 10162
  156.1467  130.4152  150.0012 H   0  0  0  0  0  0  0  0  0  0  0  0  # atno 10718 bound_to 10713
  153.1548  135.6785  153.8829 H   0  0  0  0  0  0  0  0  0  0  0  0  # atno 10763 bound_to 10752
  153.8243  135.3126  155.3414 H   0  0  0  0  0  0  0  0  0  0  0  0  # atno 10764 bound_to 10752
  154.7889  135.4846  154.0096 H   0  0  0  0  0  0  0  0  0  0  0  0  # atno 10765 bound_to 10752
  141.0969  133.8955  157.1940 H   0  0  0  0  0  0  0  0  0  0  0  0  # atno 11005 bound_to 11000
  146.1605  140.6795  142.9279 LP  0  0  0  0  0  0  0  0  0  0  0  0  # atno 17320 bound_to 7965
  144.7327  140.4718  143.6926 LP  0  0  0  0  0  0  0  0  0  0  0  0  # atno 17321 bound_to 7965
  139.5855  144.7529  151.3530 LP  0  0  0  0  0  0  0  0  0  0  0  0  # atno 17342 bound_to 10162
  140.7141  143.7312  150.7622 LP  0  0  0  0  0  0  0  0  0  0  0  0  # atno 17343 bound_to 10162
  156.7881  130.9246  151.3646 LP  0  0  0  0  0  0  0  0  0  0  0  0  # atno 17370 bound_to 10713
  157.6623  130.8977  149.9856 LP  0  0  0  0  0  0  0  0  0  0  0  0  # atno 17371 bound_to 10713
  139.9808  135.0099  156.9745 LP  0  0  0  0  0  0  0  0  0  0  0  0  # atno 17394 bound_to 11000
  140.5118  134.0995  155.7272 LP  0  0  0  0  0  0  0  0  0  0  0  0  # atno 17395 bound_to 11000

$$$$
