AV-unprocessed.smi:1803|AV-procd|sdf|7292|dock10
  -GOLD-   22720 8553D 1   1.00000     0.00000
 Structure written by MMmdl.
 35 37  0  0  0  0  0  0  0  0  3 V2000
  152.7426  137.7186  158.6488 O   0  0  0  0  0  0  0  0  0  0  0  0
  151.5319  137.8335  158.8356 C   0  0  0  0  0  0  0  0  0  0  0  0
  150.7781  136.8907  159.4584 N   0  5  0  0  0  0  0  0  0  0  0  0
  149.4393  136.9856  159.5638 C   0  0  0  0  0  0  0  0  0  0  0  0
  148.8192  137.1649  160.7414 N   0  0  0  0  0  0  0  0  0  0  0  0
  147.4371  137.2271  160.6260 N   0  0  0  0  0  0  0  0  0  0  0  0
  147.0490  137.1038  159.3570 C   0  0  0  0  0  0  0  0  0  0  0  0
  148.3361  136.8930  158.1887 S   0  0  0  0  0  0  0  0  0  0  0  0
  150.9111  138.9467  158.4028 N   0  0  0  0  0  0  0  0  0  0  0  0
  151.5444  140.0681  157.7206 C   0  0  1  0  0  0  0  0  0  0  0  0
  150.8504  140.4780  156.4073 C   0  0  0  0  0  0  0  0  0  0  0  0
  150.9147  142.0178  156.3761 C   0  0  0  0  0  0  0  0  0  0  0  0
  151.6992  142.3995  157.5663 N   0  3  1  0  0  0  0  0  0  0  0  0
  151.4824  143.7567  158.1132 C   0  0  0  0  0  0  0  0  0  0  0  0
  152.4419  143.9872  159.2987 C   0  0  0  0  0  0  0  0  0  0  0  0
  152.3260  142.8702  160.3566 C   0  0  0  0  0  0  0  0  0  0  0  0
  152.4691  141.4775  159.7125 C   0  0  0  0  0  0  0  0  0  0  0  0
  151.4628  141.3413  158.5588 C   0  0  2  0  0  0  0  0  0  0  0  0
  145.9990  137.1370  159.1074 H   0  0  0  0  0  0  0  0  0  0  0  0
  149.9165  139.0124  158.5632 H   0  0  0  0  0  0  0  0  0  0  0  0
  152.5929  139.8376  157.5208 H   0  0  0  0  0  0  0  0  0  0  0  0
  151.3483  140.0317  155.5458 H   0  0  0  0  0  0  0  0  0  0  0  0
  149.8095  140.1513  156.3889 H   0  0  0  0  0  0  0  0  0  0  0  0
  151.3819  142.3967  155.4670 H   0  0  0  0  0  0  0  0  0  0  0  0
  149.9081  142.4345  156.4393 H   0  0  0  0  0  0  0  0  0  0  0  0
  151.6604  144.4984  157.3340 H   0  0  0  0  0  0  0  0  0  0  0  0
  150.4453  143.8666  158.4342 H   0  0  0  0  0  0  0  0  0  0  0  0
  153.4677  144.0251  158.9295 H   0  0  0  0  0  0  0  0  0  0  0  0
  152.2443  144.9570  159.7563 H   0  0  0  0  0  0  0  0  0  0  0  0
  153.0815  143.0053  161.1311 H   0  0  0  0  0  0  0  0  0  0  0  0
  151.3576  142.9414  160.8537 H   0  0  0  0  0  0  0  0  0  0  0  0
  153.4865  141.3423  159.3433 H   0  0  0  0  0  0  0  0  0  0  0  0
  152.2991  140.6991  160.4571 H   0  0  0  0  0  0  0  0  0  0  0  0
  150.4472  141.4503  158.9475 H   0  0  0  0  0  0  0  0  0  0  0  0
  152.6718  142.3300  157.3032 H   0  0  0  0  0  0  0  0  0  0  0  0
  1  2  2  0  0  0  0
  2  3  1  0  0  0  0
  2  9  1  0  0  0  0
  3  4  1  0  0  0  0
  4  8  1  0  0  0  0
  4  5  2  0  0  0  0
  5  6  1  0  0  0  0
  6  7  2  0  0  0  0
  7  8  1  0  0  0  0
  7 19  1  0  0  0  0
  9 10  1  0  0  0  0
  9 20  1  0  0  0  0
 10 18  1  0  0  0  0
 10 11  1  0  0  0  0
 10 21  1  0  0  0  0
 11 12  1  0  0  0  0
 11 22  1  0  0  0  0
 11 23  1  0  0  0  0
 12 13  1  0  0  0  0
 12 24  1  0  0  0  0
 12 25  1  0  0  0  0
 13 18  1  0  0  0  0
 13 14  1  0  0  0  0
 13 35  1  0  0  0  0
 14 15  1  0  0  0  0
 14 26  1  0  0  0  0
 14 27  1  0  0  0  0
 15 16  1  0  0  0  0
 15 28  1  0  0  0  0
 15 29  1  0  0  0  0
 16 17  1  0  0  0  0
 16 30  1  0  0  0  0
 16 31  1  0  0  0  0
 17 18  1  0  0  0  0
 17 32  1  0  0  0  0
 17 33  1  0  0  0  0
 18 34  1  0  0  0  0
M  CHG  1   3  -1
M  CHG  1  13   1
M  END
> <s_m_source_file>
AV-unprocessed.smi

> <i_m_source_file_index>
1803

> <i_lp_mmshare_version>
43012

> <i_f3d_flags>
0

> <s_epik_input>
czFbY0hdbm5jMVtOSF1DKD1PKVtOSF1bQ0BIXShbQ0gyXVtDSDJdMilbQ0BASF0oTjIzKVtDSDJdW0NIMl1bQ0gyXVtDSDJdMw==

> <s_epik_cmdline>
J2VwaWtfcHl0aG9uJywgJy1waCcsICc3LjAnLCAnLXRuJywgJzgnLCAnLW1hJywgJzIwMCcsICctbWV0YWxfYmluZGluZycsICctaW1hZScsICc8aW5maWxlLm1hZT4nLCAnLW9tYWUnLCAnPG91dGZpbGUubWFlPic=

> <r_lp_tautomer_probability>
1

> <r_epik_Ionization_Penalty>
3.78828

> <r_epik_Ionization_Penalty_Charging>
3.7591

> <r_epik_Ionization_Penalty_Neutral>
0.0291838

> <r_epik_State_Penalty>
3.757

> <r_epik_Charging_Adjusted_Penalty>
7.51609

> <i_epik_Tot_Q>
0

> <i_epik_Tot_abs_Q>
2

> <r_epik_Metal_State_Penalty>
0.558016

> <b_epik_Metal_Only>
1

> <s_lp_Force_Field>
OPLS_2005

> <r_lp_Energy>
28.5802

> <b_lp_Chiralities_Consistent>
1

> <s_lp_Variant>
AV-unprocessed.smi:1803-14

> <Gold.Version>
5.8.1

> <Gold.Id.Protein>
6NUR|6NUR_protein|mol2

> <Gold.PLP.Fitness>
39.4127

> <Gold.PLP.PLP>
-30.7669

> <Gold.PLP.part.hbond>
-4.1914

> <Gold.PLP.part.metal>
0.0000

> <Gold.PLP.part.buried>
-3.1016

> <Gold.PLP.part.nonpolar>
-24.2163

> <Gold.PLP.part.repulsive>
0.1569

> <Gold.PLP.ligand.clash>
1.3410

> <Gold.PLP.ligand.torsion>
0.6885

> <Gold.PLP.Chemscore.Hbond>
3.7840

> <Gold.PLP.Chemscore.CHOScore>
0.0000

> <Gold.PLP.Chemscore.Metal>
0.0000

> <Gold.Chemscore.Hbonds>
donor molecule, donor type, donor heavy atom, donor atom, acceptor molecule, acceptor atom, score
      P1  H  6896  6907       L1     3  2.00
      P1  H  6931  6943       L1     5  0.78
      P1  H  6934  6947       L1     6  0.95

> <Gold.PLP.Chemscore.Internal.Correction>
0.0117

> <Gold.Rescore>
     Score         DG    S(hbond)    S(metal)    S(lipo)     H(rot)  DE(clash)    DE(int)     intcor
     15.69     -16.40       1.62        0.00      68.99       1.00       0.00       0.71       ----

> <Gold.Chemscore.Fitness>
15.6874

> <Gold.Chemscore.DG>
-16.4024

> <Gold.Chemscore.ZeroCoef>
-5.4800

> <Gold.Chemscore.Hbond>
1.6200

> <Gold.Chemscore.Metal>
0.0000

> <Gold.Chemscore.Lipo>
68.9888

> <Gold.Chemscore.Internal_Hbond>
0.0000

> <Gold.Chemscore.DEClash>
0.0000

> <Gold.Chemscore.DEInternal>
0.7150

> <Gold.Chemscore.Rot>
1.0000

> <Gold.Chemscore.Internal.Correction>
   9.000000E+99

> <Gold.Chemscore.Hbonds>
donor molecule, donor type, donor heavy atom, donor atom, acceptor molecule, acceptor atom, score
      P1  H  6896  6907       L1     3  0.50
      P1  H  6931  6943       L1     5  0.20
      P1  H  6934  6947       L1     6  0.07

> <Gold.Chemscore.Hbond.Weighted>
-5.4107

> <Gold.Chemscore.Metal.Weighted>
-0.0000

> <Gold.Chemscore.Lipo.Weighted>
-8.0717

> <Gold.Chemscore.Internal_Hbond.Weighted>
0.0000

> <Gold.Chemscore.DEClash.Weighted>
0.0000

> <Gold.Chemscore.DEInternal.Weighted>
0.7150

> <Gold.Chemscore.Rot.Weighted>
2.5600

> <Gold.Chemscore.Internal.Correction.Weighted>
   9.000000E+99

> <Gold.Protein.RotatedTorsions>
[ 6907 6896 6895 6894 ] final  -25.75 input  -60.11 | X-H torsion
[ 7974 7965 7964 7962 ] final  125.43 input  175.53 | X-H torsion
[ 8008 7997 7996 7995 ] final  148.89 input   59.86 | X-H torsion
[ 10167 10162 10161 10158 ] final  112.76 input  -65.29 | X-H torsion
[ 10718 10713 10712 10709 ] final -151.45 input   66.30 | X-H torsion
[ 10763 10752 10751 10750 ] final -149.84 input  -60.55 | X-H torsion
[ 11005 11000 10999 10996 ] final  -86.93 input  -57.11 | X-H torsion

> <Gold.Protein.ActiveResidues>
 VAL166  LYS551  ARG553  GLY616  TRP617  ASP618  TYR619  PRO620  LYS621  CYS622 
 ASP623  PHE694  ASN695  SER759  ASP760  ASP761  ALA762  ILE779  LEU786  VAL792 
 PHE793  MET794  SER795  GLU796  ALA797  LYS798  CYS799  TRP800  GLU811  SER814 

> <Gold.Protein.RotatedAtoms>
  151.1707  135.0316  159.8750 H   0  0  0  0  0  0  0  0  0  0  0  0  # atno 6907 bound_to 6896
  152.5449  134.1174  159.8394 H   0  0  0  0  0  0  0  0  0  0  0  0  # atno 6908 bound_to 6896
  151.1279  133.5011  159.2632 H   0  0  0  0  0  0  0  0  0  0  0  0  # atno 6909 bound_to 6896
  145.0731  139.3714  143.4947 H   0  0  0  0  0  0  0  0  0  0  0  0  # atno 7974 bound_to 7965
  156.2775  140.2116  156.5770 H   0  0  0  0  0  0  0  0  0  0  0  0  # atno 8008 bound_to 7997
  154.7089  140.0514  157.0554 H   0  0  0  0  0  0  0  0  0  0  0  0  # atno 8009 bound_to 7997
  155.0632  140.3169  155.4657 H   0  0  0  0  0  0  0  0  0  0  0  0  # atno 8010 bound_to 7997
  139.6512  144.7128  151.2045 H   0  0  0  0  0  0  0  0  0  0  0  0  # atno 10167 bound_to 10162
  156.4594  130.8206  151.2437 H   0  0  0  0  0  0  0  0  0  0  0  0  # atno 10718 bound_to 10713
  154.8154  135.3299  154.7191 H   0  0  0  0  0  0  0  0  0  0  0  0  # atno 10763 bound_to 10752
  153.7833  135.6917  153.4889 H   0  0  0  0  0  0  0  0  0  0  0  0  # atno 10764 bound_to 10752
  153.1965  135.4531  155.0162 H   0  0  0  0  0  0  0  0  0  0  0  0  # atno 10765 bound_to 10752
  141.1624  133.7482  156.9233 H   0  0  0  0  0  0  0  0  0  0  0  0  # atno 11005 bound_to 11000
  146.3529  140.0486  142.8637 LP  0  0  0  0  0  0  0  0  0  0  0  0  # atno 17320 bound_to 7965
  145.1268  140.9494  143.4568 LP  0  0  0  0  0  0  0  0  0  0  0  0  # atno 17321 bound_to 7965
  140.7538  143.6148  150.8571 LP  0  0  0  0  0  0  0  0  0  0  0  0  # atno 17342 bound_to 10162
  139.9796  143.5966  152.2947 LP  0  0  0  0  0  0  0  0  0  0  0  0  # atno 17343 bound_to 10162
  157.7498  131.0112  150.3336 LP  0  0  0  0  0  0  0  0  0  0  0  0  # atno 17370 bound_to 10713
  156.3732  130.3867  149.7159 LP  0  0  0  0  0  0  0  0  0  0  0  0  # atno 17371 bound_to 10713
  140.1437  134.9277  157.2500 LP  0  0  0  0  0  0  0  0  0  0  0  0  # atno 17394 bound_to 11000
  140.2806  134.3354  155.7344 LP  0  0  0  0  0  0  0  0  0  0  0  0  # atno 17395 bound_to 11000

$$$$
