AV-unprocessed.smi:1630|AV-procd|sdf|6525|dock10
  -GOLD-   22720 7203D 1   1.00000     0.00000
 Structure written by MMmdl.
 36 37  0  0  0  0  0  0  0  0  1 V2000
  140.1090  146.4072  160.6371 C   0  0  0  0  0  0  0  0  0  0  0  0
  140.5100  144.7820  159.8753 S   0  0  0  0  0  0  0  0  0  0  0  0
  140.1311  143.7222  160.8226 O   0  0  0  0  0  0  0  0  0  0  0  0
  139.9523  144.7719  158.5138 O   0  0  0  0  0  0  0  0  0  0  0  0
  142.2955  144.7975  159.7522 C   0  0  0  0  0  0  0  0  0  0  0  0
  143.0862  144.2071  160.7585 C   0  0  0  0  0  0  0  0  0  0  0  0
  144.4849  144.2174  160.5959 C   0  0  0  0  0  0  0  0  0  0  0  0
  145.0348  144.7995  159.4269 C   0  0  0  0  0  0  0  0  0  0  0  0
  146.4258  144.8919  159.1486 N   0  0  0  0  0  0  0  0  0  0  0  0
  147.4633  144.3130  159.7854 C   0  0  0  0  0  0  0  0  0  0  0  0
  147.3625  143.5494  160.7428 O   0  0  0  0  0  0  0  0  0  0  0  0
  148.6675  144.6332  159.2771 N   0  0  0  0  0  0  0  0  0  0  0  0
  149.9890  144.1852  159.7244 C   0  0  0  0  0  0  0  0  0  0  0  0
  150.8188  145.3748  160.2434 C   0  0  0  0  0  0  0  0  0  0  0  0
  152.2071  145.2254  159.6201 C   0  0  0  0  0  0  0  0  0  0  0  0
  151.9437  144.5478  158.2800 C   0  0  0  0  0  0  0  0  0  0  0  0
  150.8084  143.5657  158.5723 C   0  0  0  0  0  0  0  0  0  0  0  0
  144.1420  145.3559  158.4857 C   0  0  0  0  0  0  0  0  0  0  0  0
  142.8002  145.3518  158.6297 N   0  0  0  0  0  0  0  0  0  0  0  0
  139.0297  146.4937  160.7597 H   0  0  0  0  0  0  0  0  0  0  0  0
  140.4672  147.2096  159.9927 H   0  0  0  0  0  0  0  0  0  0  0  0
  140.5918  146.4809  161.6114 H   0  0  0  0  0  0  0  0  0  0  0  0
  142.6404  143.7637  161.6365 H   0  0  0  0  0  0  0  0  0  0  0  0
  145.0987  143.7907  161.3729 H   0  0  0  0  0  0  0  0  0  0  0  0
  146.6658  145.4441  158.3380 H   0  0  0  0  0  0  0  0  0  0  0  0
  148.6672  145.2817  158.5028 H   0  0  0  0  0  0  0  0  0  0  0  0
  149.8796  143.4555  160.5286 H   0  0  0  0  0  0  0  0  0  0  0  0
  150.3846  146.3196  159.9114 H   0  0  0  0  0  0  0  0  0  0  0  0
  150.8607  145.4061  161.3325 H   0  0  0  0  0  0  0  0  0  0  0  0
  152.7253  146.1791  159.5148 H   0  0  0  0  0  0  0  0  0  0  0  0
  152.8235  144.5772  160.2441 H   0  0  0  0  0  0  0  0  0  0  0  0
  151.6108  145.2897  157.5531 H   0  0  0  0  0  0  0  0  0  0  0  0
  152.8293  144.0576  157.8748 H   0  0  0  0  0  0  0  0  0  0  0  0
  151.2303  142.6162  158.9043 H   0  0  0  0  0  0  0  0  0  0  0  0
  150.2172  143.3563  157.6800 H   0  0  0  0  0  0  0  0  0  0  0  0
  144.5161  145.8165  157.5830 H   0  0  0  0  0  0  0  0  0  0  0  0
  1  2  1  0  0  0  0
  1 20  1  0  0  0  0
  1 21  1  0  0  0  0
  1 22  1  0  0  0  0
  2  3  2  0  0  0  0
  2  4  2  0  0  0  0
  2  5  1  0  0  0  0
  5 19  1  0  0  0  0
  5  6  2  0  0  0  0
  6  7  1  0  0  0  0
  6 23  1  0  0  0  0
  7  8  2  0  0  0  0
  7 24  1  0  0  0  0
  8  9  1  0  0  0  0
  8 18  1  0  0  0  0
  9 10  1  0  0  0  0
  9 25  1  0  0  0  0
 10 11  2  0  0  0  0
 10 12  1  0  0  0  0
 12 13  1  0  0  0  0
 12 26  1  0  0  0  0
 13 17  1  0  0  0  0
 13 14  1  0  0  0  0
 13 27  1  0  0  0  0
 14 15  1  0  0  0  0
 14 28  1  0  0  0  0
 14 29  1  0  0  0  0
 15 16  1  0  0  0  0
 15 30  1  0  0  0  0
 15 31  1  0  0  0  0
 16 17  1  0  0  0  0
 16 32  1  0  0  0  0
 16 33  1  0  0  0  0
 17 34  1  0  0  0  0
 17 35  1  0  0  0  0
 18 19  2  0  0  0  0
 18 36  1  0  0  0  0
M  END
> <s_m_source_file>
AV-unprocessed.smi

> <i_m_source_file_index>
1630

> <i_lp_mmshare_version>
43012

> <i_f3d_flags>
0

> <s_epik_input>
W0NIM11TKD1PKSg9TyljMVtjSF1bY0hdYyhbY0hdbjEpW05IXUMoPU8pW05IXVtDSF0yW0NIMl1bQ0gyXVtDSDJdW0NIMl0y

> <s_epik_cmdline>
J2VwaWtfcHl0aG9uJywgJy1waCcsICc3LjAnLCAnLXRuJywgJzgnLCAnLW1hJywgJzIwMCcsICctbWV0YWxfYmluZGluZycsICctaW1hZScsICc8aW5maWxlLm1hZT4nLCAnLW9tYWUnLCAnPG91dGZpbGUubWFlPic=

> <r_lp_tautomer_probability>
1

> <r_epik_Ionization_Penalty>
4.04514e-05

> <r_epik_Ionization_Penalty_Charging>
0

> <r_epik_Ionization_Penalty_Neutral>
4.04514e-05

> <r_epik_State_Penalty>
-0

> <r_epik_Charging_Adjusted_Penalty>
0

> <i_epik_Tot_Q>
0

> <i_epik_Tot_abs_Q>
0

> <r_epik_Metal_State_Penalty>
-0

> <b_epik_Metal_Only>
0

> <s_lp_Force_Field>
OPLS_2005

> <r_lp_Energy>
32.1208

> <b_lp_Chiralities_Consistent>
1

> <s_lp_Variant>
AV-unprocessed.smi:1630-1

> <Gold.Version>
5.8.1

> <Gold.Id.Protein>
6NUR|6NUR_protein|mol2

> <Gold.PLP.Fitness>
39.6035

> <Gold.PLP.PLP>
-30.8189

> <Gold.PLP.part.hbond>
-3.8988

> <Gold.PLP.part.metal>
0.0000

> <Gold.PLP.part.buried>
-4.8811

> <Gold.PLP.part.nonpolar>
-23.0710

> <Gold.PLP.part.repulsive>
0.2768

> <Gold.PLP.ligand.clash>
0.0000

> <Gold.PLP.ligand.torsion>
1.0592

> <Gold.PLP.Chemscore.Hbond>
2.9600

> <Gold.PLP.Chemscore.CHOScore>
0.0000

> <Gold.PLP.Chemscore.Metal>
0.0000

> <Gold.Chemscore.Hbonds>
donor molecule, donor type, donor heavy atom, donor atom, acceptor molecule, acceptor atom, score
      L1  H     9    25       P1  8029  0.98
      L1  H    12    26       P1  8029  0.99
      P1  H  6933  6944       L1    11  1.00

> <Gold.PLP.Chemscore.Internal.Correction>
2.0231

> <Gold.Rescore>
     Score         DG    S(hbond)    S(metal)    S(lipo)     H(rot)  DE(clash)    DE(int)     intcor
     19.61     -22.09       3.12        0.00      74.78       1.00       0.05       2.42       ----

> <Gold.Chemscore.Fitness>
19.6135

> <Gold.Chemscore.DG>
-22.0911

> <Gold.Chemscore.ZeroCoef>
-5.4800

> <Gold.Chemscore.Hbond>
3.1204

> <Gold.Chemscore.Metal>
0.0000

> <Gold.Chemscore.Lipo>
74.7778

> <Gold.Chemscore.Internal_Hbond>
0.0000

> <Gold.Chemscore.DEClash>
0.0548

> <Gold.Chemscore.DEInternal>
2.4228

> <Gold.Chemscore.Rot>
1.0000

> <Gold.Chemscore.Internal.Correction>
   9.000000E+99

> <Gold.Chemscore.Hbonds>
donor molecule, donor type, donor heavy atom, donor atom, acceptor molecule, acceptor atom, score
      L1  H     9    25       P1  8029  0.93
      L1  H    12    26       P1  8029  0.92
      P1  H  6933  6944       L1    11  1.00

> <Gold.Chemscore.Hbond.Weighted>
-10.4221

> <Gold.Chemscore.Metal.Weighted>
-0.0000

> <Gold.Chemscore.Lipo.Weighted>
-8.7490

> <Gold.Chemscore.Internal_Hbond.Weighted>
0.0000

> <Gold.Chemscore.DEClash.Weighted>
0.0548

> <Gold.Chemscore.DEInternal.Weighted>
2.4228

> <Gold.Chemscore.Rot.Weighted>
2.5600

> <Gold.Chemscore.Internal.Correction.Weighted>
   9.000000E+99

> <Gold.Protein.RotatedTorsions>
[ 6907 6896 6895 6894 ] final -148.76 input  -60.11 | X-H torsion
[ 7974 7965 7964 7962 ] final  133.62 input  175.53 | X-H torsion
[ 8008 7997 7996 7995 ] final -120.68 input   59.86 | X-H torsion
[ 10167 10162 10161 10158 ] final    9.44 input  -65.29 | X-H torsion
[ 10718 10713 10712 10709 ] final   83.91 input   66.30 | X-H torsion
[ 10763 10752 10751 10750 ] final  157.52 input  -60.55 | X-H torsion
[ 11005 11000 10999 10996 ] final   -5.43 input  -57.11 | X-H torsion

> <Gold.Protein.ActiveResidues>
 VAL166  LYS551  ARG553  GLY616  TRP617  ASP618  TYR619  PRO620  LYS621  CYS622 
 ASP623  PHE694  ASN695  SER759  ASP760  ASP761  ALA762  ILE779  LEU786  VAL792 
 PHE793  MET794  SER795  GLU796  ALA797  LYS798  CYS799  TRP800  GLU811  SER814 

> <Gold.Protein.RotatedAtoms>
  151.1744  133.4764  159.2593 H   0  0  0  0  0  0  0  0  0  0  0  0  # atno 6907 bound_to 6896
  151.1323  135.0136  159.8598 H   0  0  0  0  0  0  0  0  0  0  0  0  # atno 6908 bound_to 6896
  152.5460  134.1645  159.8624 H   0  0  0  0  0  0  0  0  0  0  0  0  # atno 6909 bound_to 6896
  144.9847  139.4468  143.5369 H   0  0  0  0  0  0  0  0  0  0  0  0  # atno 7974 bound_to 7965
  155.1357  140.0401  157.2786 H   0  0  0  0  0  0  0  0  0  0  0  0  # atno 8008 bound_to 7997
  154.6510  140.2569  155.7188 H   0  0  0  0  0  0  0  0  0  0  0  0  # atno 8009 bound_to 7997
  156.2577  140.2836  156.0943 H   0  0  0  0  0  0  0  0  0  0  0  0  # atno 8010 bound_to 7997
  140.6254  143.8112  150.7227 H   0  0  0  0  0  0  0  0  0  0  0  0  # atno 10167 bound_to 10162
  157.6888  131.0111  150.2594 H   0  0  0  0  0  0  0  0  0  0  0  0  # atno 10718 bound_to 10713
  154.2015  135.2790  155.2989 H   0  0  0  0  0  0  0  0  0  0  0  0  # atno 10763 bound_to 10752
  154.5850  135.5577  153.7226 H   0  0  0  0  0  0  0  0  0  0  0  0  # atno 10764 bound_to 10752
  153.0086  135.6354  154.2154 H   0  0  0  0  0  0  0  0  0  0  0  0  # atno 10765 bound_to 10752
  140.6910  133.9071  155.8618 H   0  0  0  0  0  0  0  0  0  0  0  0  # atno 11005 bound_to 11000
  146.3417  139.9142  142.8776 LP  0  0  0  0  0  0  0  0  0  0  0  0  # atno 17320 bound_to 7965
  145.2371  140.9995  143.3957 LP  0  0  0  0  0  0  0  0  0  0  0  0  # atno 17321 bound_to 7965
  140.1711  143.4193  152.2000 LP  0  0  0  0  0  0  0  0  0  0  0  0  # atno 17342 bound_to 10162
  139.5476  144.7311  151.4536 LP  0  0  0  0  0  0  0  0  0  0  0  0  # atno 17343 bound_to 10162
  156.3176  130.3781  149.7604 LP  0  0  0  0  0  0  0  0  0  0  0  0  # atno 17370 bound_to 10713
  156.5184  130.8204  151.3195 LP  0  0  0  0  0  0  0  0  0  0  0  0  # atno 17371 bound_to 10713
  141.0241  134.0848  157.4088 LP  0  0  0  0  0  0  0  0  0  0  0  0  # atno 17394 bound_to 11000
  139.8923  135.0124  156.6840 LP  0  0  0  0  0  0  0  0  0  0  0  0  # atno 17395 bound_to 11000

$$$$
