AV-unprocessed.smi:2470|AV-procd|sdf|9736|dock2
  -GOLD-   2272013373D 1   1.00000     0.00000
 Structure written by MMmdl.
 33 34  0  0  0  0  0  0  0  0  1 V2000
  153.3565  138.4711  154.7083 C   0  0  0  0  0  0  0  0  0  0  0  0
  152.9198  139.3978  155.6960 O   0  0  0  0  0  0  0  0  0  0  0  0
  151.6963  140.0096  155.5193 C   0  0  0  0  0  0  0  0  0  0  0  0
  151.3342  141.0838  156.3575 C   0  0  0  0  0  0  0  0  0  0  0  0
  150.0735  141.6842  156.1418 C   0  0  0  0  0  0  0  0  0  0  0  0
  149.7511  142.7666  157.0026 N   0  0  0  0  0  0  0  0  0  0  0  0
  150.1941  142.9930  158.2517 C   0  0  0  0  0  0  0  0  0  0  0  0
  151.0007  142.2885  158.8593 O   0  0  0  0  0  0  0  0  0  0  0  0
  149.6444  144.1033  158.7661 N   0  0  0  0  0  0  0  0  0  0  0  0
  149.8986  144.6370  160.1009 C   0  0  1  0  0  0  0  0  0  0  0  0
  151.1076  145.5849  160.0583 C   0  0  0  0  0  0  0  0  0  0  0  0
  148.6849  145.3334  160.6864 C   0  0  0  0  0  0  0  0  0  0  0  0
  148.0983  144.8980  162.0077 C   0  0  0  0  0  0  0  0  0  0  0  0
  147.3376  144.6532  160.7237 C   0  0  0  0  0  0  0  0  0  0  0  0
  149.2627  141.2207  155.1585 N   0  0  0  0  0  0  0  0  0  0  0  0
  149.6973  140.1979  154.4201 C   0  0  0  0  0  0  0  0  0  0  0  0
  150.8659  139.5680  154.5439 N   0  0  0  0  0  0  0  0  0  0  0  0
  154.3292  138.0711  154.9941 H   0  0  0  0  0  0  0  0  0  0  0  0
  153.4687  138.9505  153.7348 H   0  0  0  0  0  0  0  0  0  0  0  0
  152.6676  137.6302  154.6160 H   0  0  0  0  0  0  0  0  0  0  0  0
  152.0024  141.4304  157.1324 H   0  0  0  0  0  0  0  0  0  0  0  0
  149.1007  143.4410  156.6279 H   0  0  0  0  0  0  0  0  0  0  0  0
  148.9926  144.6180  158.1925 H   0  0  0  0  0  0  0  0  0  0  0  0
  150.1458  143.8078  160.7671 H   0  0  0  0  0  0  0  0  0  0  0  0
  151.3322  145.9789  161.0500 H   0  0  0  0  0  0  0  0  0  0  0  0
  150.9242  146.4330  159.3979 H   0  0  0  0  0  0  0  0  0  0  0  0
  152.0013  145.0718  159.7020 H   0  0  0  0  0  0  0  0  0  0  0  0
  148.6683  146.4059  160.4999 H   0  0  0  0  0  0  0  0  0  0  0  0
  148.5414  144.0348  162.5006 H   0  0  0  0  0  0  0  0  0  0  0  0
  147.7273  145.6755  162.6724 H   0  0  0  0  0  0  0  0  0  0  0  0
  146.4599  145.2673  160.5330 H   0  0  0  0  0  0  0  0  0  0  0  0
  147.2760  143.6277  160.3645 H   0  0  0  0  0  0  0  0  0  0  0  0
  149.0359  139.8446  153.6428 H   0  0  0  0  0  0  0  0  0  0  0  0
  1  2  1  0  0  0  0
  1 18  1  0  0  0  0
  1 19  1  0  0  0  0
  1 20  1  0  0  0  0
  2  3  1  0  0  0  0
  3 17  1  0  0  0  0
  3  4  2  0  0  0  0
  4  5  1  0  0  0  0
  4 21  1  0  0  0  0
  5  6  1  0  0  0  0
  5 15  2  0  0  0  0
  6  7  1  0  0  0  0
  6 22  1  0  0  0  0
  7  8  2  0  0  0  0
  7  9  1  0  0  0  0
  9 10  1  0  0  0  0
  9 23  1  0  0  0  0
 10 11  1  0  0  0  0
 10 12  1  0  0  0  0
 10 24  1  0  0  0  0
 11 25  1  0  0  0  0
 11 26  1  0  0  0  0
 11 27  1  0  0  0  0
 12 14  1  0  0  0  0
 12 13  1  0  0  0  0
 12 28  1  0  0  0  0
 13 14  1  0  0  0  0
 13 29  1  0  0  0  0
 13 30  1  0  0  0  0
 14 31  1  0  0  0  0
 14 32  1  0  0  0  0
 15 16  1  0  0  0  0
 16 17  2  0  0  0  0
 16 33  1  0  0  0  0
M  END
> <s_m_source_file>
AV-unprocessed.smi

> <i_m_source_file_index>
2470

> <i_lp_mmshare_version>
43012

> <i_f3d_flags>
0

> <s_epik_input>
W0NIM11PYzFbY0hdYyhuW2NIXW4xKVtOSF1DKD1PKVtOSF1bQ0BIXShbQ0gzXSlbQ0hdMltDSDJdW0NIMl0y

> <s_epik_cmdline>
J2VwaWtfcHl0aG9uJywgJy1waCcsICc3LjAnLCAnLXRuJywgJzgnLCAnLW1hJywgJzIwMCcsICctbWV0YWxfYmluZGluZycsICctaW1hZScsICc8aW5maWxlLm1hZT4nLCAnLW9tYWUnLCAnPG91dGZpbGUubWFlPic=

> <r_lp_tautomer_probability>
1

> <r_epik_Ionization_Penalty>
2.81207e-05

> <r_epik_Ionization_Penalty_Charging>
0

> <r_epik_Ionization_Penalty_Neutral>
2.81207e-05

> <r_epik_State_Penalty>
-0

> <r_epik_Charging_Adjusted_Penalty>
0

> <i_epik_Tot_Q>
0

> <i_epik_Tot_abs_Q>
0

> <r_epik_Metal_State_Penalty>
-0

> <b_epik_Metal_Only>
0

> <s_lp_Force_Field>
OPLS_2005

> <r_lp_Energy>
11.1381

> <b_lp_Chiralities_Consistent>
1

> <s_lp_Variant>
AV-unprocessed.smi:2470-2

> <Gold.Version>
5.8.1

> <Gold.Id.Protein>
6NUR|6NUR_protein|mol2

> <Gold.PLP.Fitness>
44.8190

> <Gold.PLP.PLP>
-34.4170

> <Gold.PLP.part.hbond>
-4.3659

> <Gold.PLP.part.metal>
0.0000

> <Gold.PLP.part.buried>
-2.2813

> <Gold.PLP.part.nonpolar>
-28.0189

> <Gold.PLP.part.repulsive>
0.3691

> <Gold.PLP.ligand.clash>
0.0000

> <Gold.PLP.ligand.torsion>
1.3862

> <Gold.PLP.Chemscore.Hbond>
3.1200

> <Gold.PLP.Chemscore.CHOScore>
0.9141

> <Gold.PLP.Chemscore.Metal>
0.0000

> <Gold.Chemscore.Hbonds>
donor molecule, donor type, donor heavy atom, donor atom, acceptor molecule, acceptor atom, score
      L1  H     6    22       P1  8028  0.94
      L1  H     9    23       P1  8029  1.00
      P1  H  7989  7998       L1    17  0.14
      P1  H  7997  8010       L1     2  1.00
      L1  C    16    33       P1  7957  0.80

> <Gold.PLP.Chemscore.Internal.Correction>
1.0721

> <Gold.Rescore>
     Score         DG    S(hbond)    S(metal)    S(lipo)     H(rot)  DE(clash)    DE(int)     intcor
     10.81     -14.05       1.91        0.00      53.83       1.61       0.52       2.71       ----

> <Gold.Chemscore.Fitness>
10.8145

> <Gold.Chemscore.DG>
-14.0462

> <Gold.Chemscore.ZeroCoef>
-5.4800

> <Gold.Chemscore.Hbond>
1.9138

> <Gold.Chemscore.Metal>
0.0000

> <Gold.Chemscore.Lipo>
53.8306

> <Gold.Chemscore.Internal_Hbond>
0.0000

> <Gold.Chemscore.DEClash>
0.5235

> <Gold.Chemscore.DEInternal>
2.7081

> <Gold.Chemscore.Rot>
1.6109

> <Gold.Chemscore.Internal.Correction>
   9.000000E+99

> <Gold.Chemscore.Hbonds>
donor molecule, donor type, donor heavy atom, donor atom, acceptor molecule, acceptor atom, score
      L1  H     6    22       P1  8028  0.86
      L1  H     9    23       P1  8029  0.34
      P1  H  7997  8010       L1     2  0.30

> <Gold.Chemscore.Hbond.Weighted>
-6.3920

> <Gold.Chemscore.Metal.Weighted>
-0.0000

> <Gold.Chemscore.Lipo.Weighted>
-6.2982

> <Gold.Chemscore.Internal_Hbond.Weighted>
0.0000

> <Gold.Chemscore.DEClash.Weighted>
0.5235

> <Gold.Chemscore.DEInternal.Weighted>
2.7081

> <Gold.Chemscore.Rot.Weighted>
4.1240

> <Gold.Chemscore.Internal.Correction.Weighted>
   9.000000E+99

> <Gold.Protein.RotatedTorsions>
[ 6907 6896 6895 6894 ] final  135.61 input  -60.11 | X-H torsion
[ 7974 7965 7964 7962 ] final -119.77 input  175.53 | X-H torsion
[ 8008 7997 7996 7995 ] final   91.86 input   59.86 | X-H torsion
[ 10167 10162 10161 10158 ] final -130.65 input  -65.29 | X-H torsion
[ 10718 10713 10712 10709 ] final    0.82 input   66.30 | X-H torsion
[ 10763 10752 10751 10750 ] final  -17.29 input  -60.55 | X-H torsion
[ 11005 11000 10999 10996 ] final  -74.28 input  -57.11 | X-H torsion

> <Gold.Protein.ActiveResidues>
 VAL166  LYS551  ARG553  GLY616  TRP617  ASP618  TYR619  PRO620  LYS621  CYS622 
 ASP623  PHE694  ASN695  SER759  ASP760  ASP761  ALA762  ILE779  LEU786  VAL792 
 PHE793  MET794  SER795  GLU796  ALA797  LYS798  CYS799  TRP800  GLU811  SER814 

> <Gold.Protein.RotatedAtoms>
  152.2985  133.5632  159.5602 H   0  0  0  0  0  0  0  0  0  0  0  0  # atno 6907 bound_to 6896
  150.7267  134.0326  159.3747 H   0  0  0  0  0  0  0  0  0  0  0  0  # atno 6908 bound_to 6896
  151.8227  135.0647  160.0478 H   0  0  0  0  0  0  0  0  0  0  0  0  # atno 6909 bound_to 6896
  145.0588  140.8274  143.4165 H   0  0  0  0  0  0  0  0  0  0  0  0  # atno 7974 bound_to 7965
  156.0287  140.3332  155.7116 H   0  0  0  0  0  0  0  0  0  0  0  0  # atno 8008 bound_to 7997
  155.5916  140.0647  157.2774 H   0  0  0  0  0  0  0  0  0  0  0  0  # atno 8009 bound_to 7997
  154.4344  140.1826  156.1069 H   0  0  0  0  0  0  0  0  0  0  0  0  # atno 8010 bound_to 7997
  139.9271  143.6315  152.2539 H   0  0  0  0  0  0  0  0  0  0  0  0  # atno 10167 bound_to 10162
  156.8391  130.5515  149.5679 H   0  0  0  0  0  0  0  0  0  0  0  0  # atno 10718 bound_to 10713
  153.5717  135.7007  153.5502 H   0  0  0  0  0  0  0  0  0  0  0  0  # atno 10763 bound_to 10752
  153.3339  135.4040  155.1517 H   0  0  0  0  0  0  0  0  0  0  0  0  # atno 10764 bound_to 10752
  154.8632  135.3725  154.5240 H   0  0  0  0  0  0  0  0  0  0  0  0  # atno 10765 bound_to 10752
  141.1633  133.6906  156.7340 H   0  0  0  0  0  0  0  0  0  0  0  0  # atno 11005 bound_to 11000
  145.1435  139.2558  143.5478 LP  0  0  0  0  0  0  0  0  0  0  0  0  # atno 17320 bound_to 7965
  146.3523  140.1118  142.8603 LP  0  0  0  0  0  0  0  0  0  0  0  0  # atno 17321 bound_to 7965
  139.6813  144.7655  151.1604 LP  0  0  0  0  0  0  0  0  0  0  0  0  # atno 17342 bound_to 10162
  140.7647  143.5721  150.8985 LP  0  0  0  0  0  0  0  0  0  0  0  0  # atno 17343 bound_to 10162
  156.0891  130.5881  150.9700 LP  0  0  0  0  0  0  0  0  0  0  0  0  # atno 17370 bound_to 10713
  157.6365  131.0915  150.8337 LP  0  0  0  0  0  0  0  0  0  0  0  0  # atno 17371 bound_to 10713
  140.2724  134.8382  157.3859 LP  0  0  0  0  0  0  0  0  0  0  0  0  # atno 17394 bound_to 11000
  140.1509  134.4851  155.7962 LP  0  0  0  0  0  0  0  0  0  0  0  0  # atno 17395 bound_to 11000

$$$$
