AV-unprocessed.smi:788|AV-procd|sdf|3734|dock4
  -GOLD-   22720 1173D 1   1.00000     0.00000
 Structure written by MMmdl.
 35 36  0  0  0  0  0  0  0  0  1 V2000
  151.1632  145.2194  159.9286 C   0  0  0  0  0  0  0  0  0  0  0  0
  151.6374  144.6498  158.5748 C   0  0  1  0  0  0  0  0  0  0  0  0
  153.1321  144.2738  158.6023 C   0  0  0  0  0  0  0  0  0  0  0  0
  153.3945  142.9910  159.4061 C   0  0  0  0  0  0  0  0  0  0  0  0
  152.5513  141.8226  158.8760 C   0  0  0  0  0  0  0  0  0  0  0  0
  151.0465  142.1566  158.8612 C   0  0  2  0  0  0  0  0  0  0  0  0
  150.2373  140.9600  158.3284 C   0  0  0  0  0  0  0  0  0  0  0  0
  150.7879  143.4569  158.0566 C   0  0  1  0  0  0  0  0  0  0  0  0
  149.3633  143.7843  158.0598 N   0  0  0  0  0  0  0  0  0  0  0  0
  148.5619  143.8122  159.1370 C   0  0  0  0  0  0  0  0  0  0  0  0
  148.9640  143.5597  160.2712 O   0  0  0  0  0  0  0  0  0  0  0  0
  147.2701  144.1367  158.9144 N   0  0  0  0  0  0  0  0  0  0  0  0
  146.1559  144.2635  159.7954 C   0  0  0  0  0  0  0  0  0  0  0  0
  145.0062  144.8875  159.4900 N   0  0  0  0  0  0  0  0  0  0  0  0
  144.0964  144.8524  160.5381 N   0  0  0  0  0  0  0  0  0  0  0  0
  144.5914  144.2006  161.5937 C   0  0  0  0  0  0  0  0  0  0  0  0
  146.2177  143.5682  161.4094 S   0  0  0  0  0  0  0  0  0  0  0  0
  151.1904  144.4715  160.7203 H   0  0  0  0  0  0  0  0  0  0  0  0
  150.1430  145.5989  159.8695 H   0  0  0  0  0  0  0  0  0  0  0  0
  151.7940  146.0514  160.2418 H   0  0  0  0  0  0  0  0  0  0  0  0
  151.5336  145.4618  157.8536 H   0  0  0  0  0  0  0  0  0  0  0  0
  153.4820  144.1280  157.5796 H   0  0  0  0  0  0  0  0  0  0  0  0
  153.7224  145.0963  159.0079 H   0  0  0  0  0  0  0  0  0  0  0  0
  154.4527  142.7340  159.3545 H   0  0  0  0  0  0  0  0  0  0  0  0
  153.1723  143.1576  160.4604 H   0  0  0  0  0  0  0  0  0  0  0  0
  152.8804  141.5684  157.8675 H   0  0  0  0  0  0  0  0  0  0  0  0
  152.7311  140.9391  159.4893 H   0  0  0  0  0  0  0  0  0  0  0  0
  150.7320  142.3205  159.8927 H   0  0  0  0  0  0  0  0  0  0  0  0
  150.4693  140.7602  157.2819 H   0  0  0  0  0  0  0  0  0  0  0  0
  149.1633  141.1315  158.4052 H   0  0  0  0  0  0  0  0  0  0  0  0
  150.4585  140.0553  158.8953 H   0  0  0  0  0  0  0  0  0  0  0  0
  151.0862  143.2582  157.0250 H   0  0  0  0  0  0  0  0  0  0  0  0
  148.9503  144.0049  157.1646 H   0  0  0  0  0  0  0  0  0  0  0  0
  147.0565  144.3381  157.9484 H   0  0  0  0  0  0  0  0  0  0  0  0
  143.9953  144.0914  162.4876 H   0  0  0  0  0  0  0  0  0  0  0  0
  1  2  1  0  0  0  0
  1 18  1  0  0  0  0
  1 19  1  0  0  0  0
  1 20  1  0  0  0  0
  2  8  1  0  0  0  0
  2  3  1  0  0  0  0
  2 21  1  0  0  0  0
  3  4  1  0  0  0  0
  3 22  1  0  0  0  0
  3 23  1  0  0  0  0
  4  5  1  0  0  0  0
  4 24  1  0  0  0  0
  4 25  1  0  0  0  0
  5  6  1  0  0  0  0
  5 26  1  0  0  0  0
  5 27  1  0  0  0  0
  6  7  1  0  0  0  0
  6  8  1  0  0  0  0
  6 28  1  0  0  0  0
  7 29  1  0  0  0  0
  7 30  1  0  0  0  0
  7 31  1  0  0  0  0
  8  9  1  0  0  0  0
  8 32  1  0  0  0  0
  9 10  1  0  0  0  0
  9 33  1  0  0  0  0
 10 11  2  0  0  0  0
 10 12  1  0  0  0  0
 12 13  1  0  0  0  0
 12 34  1  0  0  0  0
 13 17  1  0  0  0  0
 13 14  2  0  0  0  0
 14 15  1  0  0  0  0
 15 16  2  0  0  0  0
 16 17  1  0  0  0  0
 16 35  1  0  0  0  0
M  END
> <s_m_source_file>
AV-unprocessed.smi

> <i_m_source_file_index>
788

> <i_lp_mmshare_version>
43012

> <i_f3d_flags>
0

> <s_epik_input>
W0NIM11bQ0BASF0xW0NIMl1bQ0gyXVtDSDJdW0NAQEhdKFtDSDNdKVtDQEhdMVtOSF1DKD1PKVtOSF1jMm5uW2NIXXMy

> <s_epik_cmdline>
J2VwaWtfcHl0aG9uJywgJy1waCcsICc3LjAnLCAnLXRuJywgJzgnLCAnLW1hJywgJzIwMCcsICctbWV0YWxfYmluZGluZycsICctaW1hZScsICc8aW5maWxlLm1hZT4nLCAnLW9tYWUnLCAnPG91dGZpbGUubWFlPic=

> <r_lp_tautomer_probability>
1

> <r_epik_Ionization_Penalty>
0.000304078

> <r_epik_Ionization_Penalty_Charging>
0

> <r_epik_Ionization_Penalty_Neutral>
0.000304078

> <r_epik_State_Penalty>
-0

> <r_epik_Charging_Adjusted_Penalty>
0

> <i_epik_Tot_Q>
0

> <i_epik_Tot_abs_Q>
0

> <r_epik_Metal_State_Penalty>
0.164801

> <b_epik_Metal_Only>
0

> <s_lp_Force_Field>
OPLS_2005

> <r_lp_Energy>
15.5702

> <b_lp_Chiralities_Consistent>
1

> <s_lp_Variant>
AV-unprocessed.smi:788-4

> <Gold.Version>
5.8.1

> <Gold.Id.Protein>
6NUR|6NUR_protein|mol2

> <Gold.PLP.Fitness>
35.3235

> <Gold.PLP.PLP>
-30.8386

> <Gold.PLP.part.hbond>
-3.6626

> <Gold.PLP.part.metal>
0.0000

> <Gold.PLP.part.buried>
-1.1869

> <Gold.PLP.part.nonpolar>
-26.6417

> <Gold.PLP.part.repulsive>
0.4263

> <Gold.PLP.ligand.clash>
0.0000

> <Gold.PLP.ligand.torsion>
0.2364

> <Gold.PLP.Chemscore.Hbond>
1.6478

> <Gold.PLP.Chemscore.CHOScore>
0.0000

> <Gold.PLP.Chemscore.Metal>
0.0000

> <Gold.Chemscore.Hbonds>
donor molecule, donor type, donor heavy atom, donor atom, acceptor molecule, acceptor atom, score
      L1  H     9    33       P1  8028  0.70
      L1  H    12    34       P1  8029  0.30
      P1  H  6933  6944       L1    11  0.56

> <Gold.PLP.Chemscore.Internal.Correction>
0.0145

> <Gold.Rescore>
     Score         DG    S(hbond)    S(metal)    S(lipo)     H(rot)  DE(clash)    DE(int)     intcor
     13.62     -17.95       1.17        0.00      95.05       1.00       0.32       4.01       ----

> <Gold.Chemscore.Fitness>
13.6225

> <Gold.Chemscore.DG>
-17.9539

> <Gold.Chemscore.ZeroCoef>
-5.4800

> <Gold.Chemscore.Hbond>
1.1716

> <Gold.Chemscore.Metal>
0.0000

> <Gold.Chemscore.Lipo>
95.0495

> <Gold.Chemscore.Internal_Hbond>
0.0000

> <Gold.Chemscore.DEClash>
0.3250

> <Gold.Chemscore.DEInternal>
4.0065

> <Gold.Chemscore.Rot>
1.0000

> <Gold.Chemscore.Internal.Correction>
   9.000000E+99

> <Gold.Chemscore.Hbonds>
donor molecule, donor type, donor heavy atom, donor atom, acceptor molecule, acceptor atom, score
      L1  H     9    33       P1  8028  0.07
      L1  H    12    34       P1  8029  0.09
      P1  H  6933  6944       L1    11  0.56

> <Gold.Chemscore.Hbond.Weighted>
-3.9131

> <Gold.Chemscore.Metal.Weighted>
-0.0000

> <Gold.Chemscore.Lipo.Weighted>
-11.1208

> <Gold.Chemscore.Internal_Hbond.Weighted>
0.0000

> <Gold.Chemscore.DEClash.Weighted>
0.3250

> <Gold.Chemscore.DEInternal.Weighted>
4.0065

> <Gold.Chemscore.Rot.Weighted>
2.5600

> <Gold.Chemscore.Internal.Correction.Weighted>
   9.000000E+99

> <Gold.Protein.RotatedTorsions>
[ 6907 6896 6895 6894 ] final   15.28 input  -60.11 | X-H torsion
[ 7974 7965 7964 7962 ] final  -16.73 input  175.53 | X-H torsion
[ 8008 7997 7996 7995 ] final  -89.94 input   59.86 | X-H torsion
[ 10167 10162 10161 10158 ] final   87.12 input  -65.29 | X-H torsion
[ 10718 10713 10712 10709 ] final   27.61 input   66.30 | X-H torsion
[ 10763 10752 10751 10750 ] final   74.15 input  -60.55 | X-H torsion
[ 11005 11000 10999 10996 ] final   14.38 input  -57.11 | X-H torsion

> <Gold.Protein.ActiveResidues>
 VAL166  LYS551  ARG553  GLY616  TRP617  ASP618  TYR619  PRO620  LYS621  CYS622 
 ASP623  PHE694  ASN695  SER759  ASP760  ASP761  ALA762  ILE779  LEU786  VAL792 
 PHE793  MET794  SER795  GLU796  ALA797  LYS798  CYS799  TRP800  GLU811  SER814 

> <Gold.Protein.RotatedAtoms>
  151.8157  135.0667  160.0418 H   0  0  0  0  0  0  0  0  0  0  0  0  # atno 6907 bound_to 6896
  152.2988  133.5630  159.5613 H   0  0  0  0  0  0  0  0  0  0  0  0  # atno 6908 bound_to 6896
  150.7264  134.0238  159.3752 H   0  0  0  0  0  0  0  0  0  0  0  0  # atno 6909 bound_to 6896
  146.1974  140.3679  142.8436 H   0  0  0  0  0  0  0  0  0  0  0  0  # atno 7974 bound_to 7965
  154.6926  140.0536  157.0378 H   0  0  0  0  0  0  0  0  0  0  0  0  # atno 8008 bound_to 7997
  155.0796  140.3208  155.4586 H   0  0  0  0  0  0  0  0  0  0  0  0  # atno 8009 bound_to 7997
  156.2733  140.2067  156.5924 H   0  0  0  0  0  0  0  0  0  0  0  0  # atno 8010 bound_to 7997
  139.8805  144.6442  150.8848 H   0  0  0  0  0  0  0  0  0  0  0  0  # atno 10167 bound_to 10162
  157.2225  130.6985  149.6276 H   0  0  0  0  0  0  0  0  0  0  0  0  # atno 10718 bound_to 10713
  153.0568  135.5036  154.7999 H   0  0  0  0  0  0  0  0  0  0  0  0  # atno 10763 bound_to 10752
  154.6819  135.2969  154.9603 H   0  0  0  0  0  0  0  0  0  0  0  0  # atno 10764 bound_to 10752
  154.0387  135.6720  153.4840 H   0  0  0  0  0  0  0  0  0  0  0  0  # atno 10765 bound_to 10752
  140.4701  134.1039  155.7731 H   0  0  0  0  0  0  0  0  0  0  0  0  # atno 11005 bound_to 11000
  144.8609  140.7138  143.6108 LP  0  0  0  0  0  0  0  0  0  0  0  0  # atno 17320 bound_to 7965
  145.3599  139.1684  143.4389 LP  0  0  0  0  0  0  0  0  0  0  0  0  # atno 17321 bound_to 7965
  140.7745  143.3589  151.1866 LP  0  0  0  0  0  0  0  0  0  0  0  0  # atno 17342 bound_to 10162
  139.7200  143.9239  152.2981 LP  0  0  0  0  0  0  0  0  0  0  0  0  # atno 17343 bound_to 10162
  155.9681  130.4515  150.5738 LP  0  0  0  0  0  0  0  0  0  0  0  0  # atno 17370 bound_to 10713
  157.3561  131.0742  151.1674 LP  0  0  0  0  0  0  0  0  0  0  0  0  # atno 17371 bound_to 10713
  141.1581  133.8845  157.1924 LP  0  0  0  0  0  0  0  0  0  0  0  0  # atno 17394 bound_to 11000
  139.9890  135.0071  156.9931 LP  0  0  0  0  0  0  0  0  0  0  0  0  # atno 17395 bound_to 11000

$$$$
