AV-unprocessed.smi:1920|AV-procd|sdf|7777|dock3
  -GOLD-   22720 9523D 1   1.00000     0.00000
 Structure written by MMmdl.
 37 38  0  0  0  0  0  0  0  0  2 V2000
  151.3446  139.6558  156.2817 C   0  0  0  0  0  0  0  0  0  0  0  0
  150.1669  140.5641  155.9036 C   0  0  2  0  0  0  0  0  0  0  0  0
  149.7167  140.3189  154.4468 C   0  0  0  0  0  0  0  0  0  0  0  0
  148.3481  140.7786  154.1848 N   0  0  0  0  0  0  0  0  0  0  0  0
  147.8746  142.0629  154.2658 C   0  0  0  0  0  0  0  0  0  0  0  0
  146.5490  142.0133  153.9189 C   0  0  0  0  0  0  0  0  0  0  0  0
  146.2680  140.7012  153.6472 N   0  3  0  0  0  0  0  0  0  0  0  0
  147.3621  139.9511  153.8135 C   0  0  0  0  0  0  0  0  0  0  0  0
  150.5620  141.9579  156.1038 N   0  0  0  0  0  0  0  0  0  0  0  0
  150.9716  142.4978  157.2629 C   0  0  0  0  0  0  0  0  0  0  0  0
  151.0874  141.8547  158.3059 O   0  0  0  0  0  0  0  0  0  0  0  0
  151.2859  143.9956  157.2431 C   0  0  0  0  0  0  0  0  0  0  0  0
  152.0330  144.4595  158.5106 C   0  0  2  0  0  0  0  0  0  0  0  0
  153.1847  143.5537  158.8625 C   0  0  0  0  0  0  0  0  0  0  0  0
  153.1847  143.1953  160.1446 C   0  0  0  0  0  0  0  0  0  0  0  0
  152.0319  143.7877  160.9059 C   0  0  0  0  0  0  0  0  0  0  0  0
  151.1845  144.4708  159.8107 C   0  0  0  0  0  0  0  0  0  0  0  0
  151.0776  138.6037  156.1789 H   0  0  0  0  0  0  0  0  0  0  0  0
  151.6491  139.8166  157.3166 H   0  0  0  0  0  0  0  0  0  0  0  0
  152.2112  139.8420  155.6464 H   0  0  0  0  0  0  0  0  0  0  0  0
  149.3418  140.3162  156.5740 H   0  0  0  0  0  0  0  0  0  0  0  0
  150.3916  140.8076  153.7420 H   0  0  0  0  0  0  0  0  0  0  0  0
  149.7426  139.2525  154.2190 H   0  0  0  0  0  0  0  0  0  0  0  0
  148.5018  142.8959  154.5483 H   0  0  0  0  0  0  0  0  0  0  0  0
  145.8051  142.7931  153.8458 H   0  0  0  0  0  0  0  0  0  0  0  0
  147.4364  138.8887  153.6639 H   0  0  0  0  0  0  0  0  0  0  0  0
  150.5079  142.5637  155.2975 H   0  0  0  0  0  0  0  0  0  0  0  0
  151.8791  144.2169  156.3548 H   0  0  0  0  0  0  0  0  0  0  0  0
  150.3565  144.5571  157.1353 H   0  0  0  0  0  0  0  0  0  0  0  0
  152.4546  145.4514  158.3410 H   0  0  0  0  0  0  0  0  0  0  0  0
  153.9277  143.2582  158.1364 H   0  0  0  0  0  0  0  0  0  0  0  0
  153.9255  142.5667  160.6166 H   0  0  0  0  0  0  0  0  0  0  0  0
  151.4717  143.0138  161.4314 H   0  0  0  0  0  0  0  0  0  0  0  0
  152.4056  144.5068  161.6352 H   0  0  0  0  0  0  0  0  0  0  0  0
  150.8918  145.4817  160.0948 H   0  0  0  0  0  0  0  0  0  0  0  0
  150.2662  143.8988  159.6731 H   0  0  0  0  0  0  0  0  0  0  0  0
  145.3642  140.3476  153.3590 H   0  0  0  0  0  0  0  0  0  0  0  0
  1  2  1  0  0  0  0
  1 18  1  0  0  0  0
  1 19  1  0  0  0  0
  1 20  1  0  0  0  0
  2  3  1  0  0  0  0
  2  9  1  0  0  0  0
  2 21  1  0  0  0  0
  3  4  1  0  0  0  0
  3 22  1  0  0  0  0
  3 23  1  0  0  0  0
  4  8  1  0  0  0  0
  4  5  1  0  0  0  0
  5  6  2  0  0  0  0
  5 24  1  0  0  0  0
  6  7  1  0  0  0  0
  6 25  1  0  0  0  0
  7  8  2  0  0  0  0
  7 37  1  0  0  0  0
  8 26  1  0  0  0  0
  9 10  1  0  0  0  0
  9 27  1  0  0  0  0
 10 11  2  0  0  0  0
 10 12  1  0  0  0  0
 12 13  1  0  0  0  0
 12 28  1  0  0  0  0
 12 29  1  0  0  0  0
 13 17  1  0  0  0  0
 13 14  1  0  0  0  0
 13 30  1  0  0  0  0
 14 15  2  0  0  0  0
 14 31  1  0  0  0  0
 15 16  1  0  0  0  0
 15 32  1  0  0  0  0
 16 17  1  0  0  0  0
 16 33  1  0  0  0  0
 16 34  1  0  0  0  0
 17 35  1  0  0  0  0
 17 36  1  0  0  0  0
M  CHG  1   7   1
M  END
> <s_m_source_file>
AV-unprocessed.smi

> <i_m_source_file_index>
1920

> <i_lp_mmshare_version>
43012

> <i_f3d_flags>
0

> <s_epik_input>
W2NIXTFuW2NIXVtjSF1uMVtDSDJdW0NAQEhdKFtDSDNdKVtOSF1DKD1PKVtDSDJdW0NAQEhdMltDSF09W0NIXVtDSDJdW0NIMl0y

> <s_epik_cmdline>
J2VwaWtfcHl0aG9uJywgJy1waCcsICc3LjAnLCAnLXRuJywgJzgnLCAnLW1hJywgJzIwMCcsICctbWV0YWxfYmluZGluZycsICctaW1hZScsICc8aW5maWxlLm1hZT4nLCAnLW9tYWUnLCAnPG91dGZpbGUubWFlPic=

> <r_lp_tautomer_probability>
1

> <r_epik_Ionization_Penalty>
0.24816

> <r_epik_Ionization_Penalty_Charging>
0

> <r_epik_Ionization_Penalty_Neutral>
0.24816

> <r_epik_State_Penalty>
0.2394

> <r_epik_Charging_Adjusted_Penalty>
0.2394

> <i_epik_Tot_Q>
1

> <i_epik_Tot_abs_Q>
1

> <r_epik_Metal_State_Penalty>
0.531457

> <b_epik_Metal_Only>
0

> <s_lp_Force_Field>
OPLS_2005

> <r_lp_Energy>
18.7284

> <b_lp_Chiralities_Consistent>
1

> <s_lp_Variant>
AV-unprocessed.smi:1920-1

> <Gold.Version>
5.8.1

> <Gold.Id.Protein>
6NUR|6NUR_protein|mol2

> <Gold.PLP.Fitness>
50.5561

> <Gold.PLP.PLP>
-42.3266

> <Gold.PLP.part.hbond>
-1.1559

> <Gold.PLP.part.metal>
0.0000

> <Gold.PLP.part.buried>
0.0111

> <Gold.PLP.part.nonpolar>
-40.7561

> <Gold.PLP.part.repulsive>
0.1543

> <Gold.PLP.ligand.clash>
0.0000

> <Gold.PLP.ligand.torsion>
0.4058

> <Gold.PLP.Chemscore.Hbond>
2.0000

> <Gold.PLP.Chemscore.CHOScore>
1.0000

> <Gold.PLP.Chemscore.Metal>
0.0000

> <Gold.Chemscore.Hbonds>
donor molecule, donor type, donor heavy atom, donor atom, acceptor molecule, acceptor atom, score
      L1  H     7    37       P1 10175  2.00
      L1  C     5    24       P1  8028  1.00

> <Gold.PLP.Chemscore.Internal.Correction>
0.0412

> <Gold.Rescore>
     Score         DG    S(hbond)    S(metal)    S(lipo)     H(rot)  DE(clash)    DE(int)     intcor
     11.79     -15.72       0.91        0.00     105.47       2.01       0.33       3.60       ----

> <Gold.Chemscore.Fitness>
11.7851

> <Gold.Chemscore.DG>
-15.7219

> <Gold.Chemscore.ZeroCoef>
-5.4800

> <Gold.Chemscore.Hbond>
0.9147

> <Gold.Chemscore.Metal>
0.0000

> <Gold.Chemscore.Lipo>
105.4712

> <Gold.Chemscore.Internal_Hbond>
0.0000

> <Gold.Chemscore.DEClash>
0.3347

> <Gold.Chemscore.DEInternal>
3.6020

> <Gold.Chemscore.Rot>
2.0130

> <Gold.Chemscore.Internal.Correction>
   9.000000E+99

> <Gold.Chemscore.Hbonds>
donor molecule, donor type, donor heavy atom, donor atom, acceptor molecule, acceptor atom, score
      L1  H     7    37       P1 10175  0.96

> <Gold.Chemscore.Hbond.Weighted>
-3.0550

> <Gold.Chemscore.Metal.Weighted>
-0.0000

> <Gold.Chemscore.Lipo.Weighted>
-12.3401

> <Gold.Chemscore.Internal_Hbond.Weighted>
0.0000

> <Gold.Chemscore.DEClash.Weighted>
0.3347

> <Gold.Chemscore.DEInternal.Weighted>
3.6020

> <Gold.Chemscore.Rot.Weighted>
5.1533

> <Gold.Chemscore.Internal.Correction.Weighted>
   9.000000E+99

> <Gold.Protein.RotatedTorsions>
[ 6907 6896 6895 6894 ] final   21.55 input  -60.11 | X-H torsion
[ 7974 7965 7964 7962 ] final  -56.91 input  175.53 | X-H torsion
[ 8008 7997 7996 7995 ] final  152.67 input   59.86 | X-H torsion
[ 10167 10162 10161 10158 ] final   41.56 input  -65.29 | X-H torsion
[ 10718 10713 10712 10709 ] final -110.86 input   66.30 | X-H torsion
[ 10763 10752 10751 10750 ] final   63.40 input  -60.55 | X-H torsion
[ 11005 11000 10999 10996 ] final  179.47 input  -57.11 | X-H torsion

> <Gold.Protein.ActiveResidues>
 VAL166  LYS551  ARG553  GLY616  TRP617  ASP618  TYR619  PRO620  LYS621  CYS622 
 ASP623  PHE694  ASN695  SER759  ASP760  ASP761  ALA762  ILE779  LEU786  VAL792 
 PHE793  MET794  SER795  GLU796  ALA797  LYS798  CYS799  TRP800  GLU811  SER814 

> <Gold.Protein.RotatedAtoms>
  151.9136  135.0328  160.0516 H   0  0  0  0  0  0  0  0  0  0  0  0  # atno 6907 bound_to 6896
  152.2259  133.5015  159.5197 H   0  0  0  0  0  0  0  0  0  0  0  0  # atno 6908 bound_to 6896
  150.7012  134.1197  159.4073 H   0  0  0  0  0  0  0  0  0  0  0  0  # atno 6909 bound_to 6896
  145.8572  140.8311  142.9955 H   0  0  0  0  0  0  0  0  0  0  0  0  # atno 7974 bound_to 7965
  156.2618  140.2014  156.6370 H   0  0  0  0  0  0  0  0  0  0  0  0  # atno 8008 bound_to 7997
  154.6639  140.0557  157.0117 H   0  0  0  0  0  0  0  0  0  0  0  0  # atno 8009 bound_to 7997
  155.1236  140.3227  155.4494 H   0  0  0  0  0  0  0  0  0  0  0  0  # atno 8010 bound_to 7997
  140.3631  144.2203  150.6137 H   0  0  0  0  0  0  0  0  0  0  0  0  # atno 10167 bound_to 10162
  156.0614  130.5837  150.8295 H   0  0  0  0  0  0  0  0  0  0  0  0  # atno 10718 bound_to 10713
  153.0016  135.5430  154.6346 H   0  0  0  0  0  0  0  0  0  0  0  0  # atno 10763 bound_to 10752
  154.5615  135.2834  155.0916 H   0  0  0  0  0  0  0  0  0  0  0  0  # atno 10764 bound_to 10752
  154.2117  135.6466  153.5170 H   0  0  0  0  0  0  0  0  0  0  0  0  # atno 10765 bound_to 10752
  140.4065  134.6730  157.4591 H   0  0  0  0  0  0  0  0  0  0  0  0  # atno 11005 bound_to 11000
  144.6727  140.1041  143.7459 LP  0  0  0  0  0  0  0  0  0  0  0  0  # atno 17320 bound_to 7965
  145.9290  139.2594  143.1336 LP  0  0  0  0  0  0  0  0  0  0  0  0  # atno 17321 bound_to 7965
  140.5107  143.2291  151.8539 LP  0  0  0  0  0  0  0  0  0  0  0  0  # atno 17342 bound_to 10162
  139.4812  144.4952  151.9132 LP  0  0  0  0  0  0  0  0  0  0  0  0  # atno 17343 bound_to 10162
  157.5626  131.0946  150.9537 LP  0  0  0  0  0  0  0  0  0  0  0  0  # atno 17370 bound_to 10713
  156.9771  130.5513  149.5294 LP  0  0  0  0  0  0  0  0  0  0  0  0  # atno 17371 bound_to 10713
  140.0298  134.6423  155.9122 LP  0  0  0  0  0  0  0  0  0  0  0  0  # atno 17394 bound_to 11000
  141.1837  133.6551  156.5128 LP  0  0  0  0  0  0  0  0  0  0  0  0  # atno 17395 bound_to 11000

$$$$
