AV-unprocessed.smi:1319|AV-procd|sdf|5459|dock4
  -GOLD-   22720 5 23D 1   1.00000     0.00000
 Structure written by MMmdl.
 28 29  0  0  0  0  0  0  0  0  1 V2000
  149.8352  138.6880  153.2494 N   0  0  0  0  0  0  0  0  0  0  0  0
  150.0635  138.9974  154.5684 C   0  0  0  0  0  0  0  0  0  0  0  0
  149.9392  137.9911  155.4431 N   0  0  0  0  0  0  0  0  0  0  0  0
  150.1767  138.3734  156.7044 C   0  0  0  0  0  0  0  0  0  0  0  0
  150.0694  137.3982  157.6660 N   0  0  0  0  0  0  0  0  0  0  0  0
  150.5071  139.5953  157.1371 N   0  0  0  0  0  0  0  0  0  0  0  0
  150.5884  140.4778  156.1350 C   0  0  0  0  0  0  0  0  0  0  0  0
  151.0293  142.1327  156.5964 S   0  0  0  0  0  0  0  0  0  0  0  0
  151.2329  141.8922  158.3826 C   0  0  0  0  0  0  0  0  0  0  0  0
  152.0078  143.0466  159.0323 C   0  0  1  0  0  0  0  0  0  0  0  0
  151.6522  144.4369  158.4938 C   0  0  0  0  0  0  0  0  0  0  0  0
  151.7889  145.3549  159.7015 C   0  0  0  0  0  0  0  0  0  0  0  0
  152.1399  144.4114  160.8519 C   0  0  0  0  0  0  0  0  0  0  0  0
  151.6827  143.1432  160.4101 O   0  0  0  0  0  0  0  0  0  0  0  0
  150.3846  140.2694  154.8295 N   0  0  0  0  0  0  0  0  0  0  0  0
  149.9120  139.3991  152.5370 H   0  0  0  0  0  0  0  0  0  0  0  0
  149.6259  137.7387  152.9768 H   0  0  0  0  0  0  0  0  0  0  0  0
  149.8237  136.4530  157.4095 H   0  0  0  0  0  0  0  0  0  0  0  0
  150.2665  137.6104  158.6332 H   0  0  0  0  0  0  0  0  0  0  0  0
  150.2510  141.7838  158.8445 H   0  0  0  0  0  0  0  0  0  0  0  0
  151.7637  140.9533  158.5432 H   0  0  0  0  0  0  0  0  0  0  0  0
  153.0828  142.8757  158.9454 H   0  0  0  0  0  0  0  0  0  0  0  0
  152.3029  144.7301  157.6694 H   0  0  0  0  0  0  0  0  0  0  0  0
  150.6242  144.4625  158.1301 H   0  0  0  0  0  0  0  0  0  0  0  0
  152.5542  146.1189  159.5614 H   0  0  0  0  0  0  0  0  0  0  0  0
  150.8418  145.8601  159.8949 H   0  0  0  0  0  0  0  0  0  0  0  0
  153.2196  144.3730  161.0047 H   0  0  0  0  0  0  0  0  0  0  0  0
  151.6727  144.7023  161.7929 H   0  0  0  0  0  0  0  0  0  0  0  0
  1  2  1  0  0  0  0
  1 16  1  0  0  0  0
  1 17  1  0  0  0  0
  2 15  1  0  0  0  0
  2  3  2  0  0  0  0
  3  4  1  0  0  0  0
  4  5  1  0  0  0  0
  4  6  2  0  0  0  0
  5 18  1  0  0  0  0
  5 19  1  0  0  0  0
  6  7  1  0  0  0  0
  7  8  1  0  0  0  0
  7 15  2  0  0  0  0
  8  9  1  0  0  0  0
  9 10  1  0  0  0  0
  9 20  1  0  0  0  0
  9 21  1  0  0  0  0
 10 14  1  0  0  0  0
 10 11  1  0  0  0  0
 10 22  1  0  0  0  0
 11 12  1  0  0  0  0
 11 23  1  0  0  0  0
 11 24  1  0  0  0  0
 12 13  1  0  0  0  0
 12 25  1  0  0  0  0
 12 26  1  0  0  0  0
 13 14  1  0  0  0  0
 13 27  1  0  0  0  0
 13 28  1  0  0  0  0
M  END
> <s_m_source_file>
AV-unprocessed.smi

> <i_m_source_file_index>
1319

> <i_lp_mmshare_version>
43012

> <i_f3d_flags>
0

> <s_epik_input>
W05IMl1jMW5jKFtOSDJdKW5jKG4xKVNbQ0gyXVtDQEBIXTJbQ0gyXVtDSDJdW0NIMl1PMg==

> <s_epik_cmdline>
J2VwaWtfcHl0aG9uJywgJy1waCcsICc3LjAnLCAnLXRuJywgJzgnLCAnLW1hJywgJzIwMCcsICctbWV0YWxfYmluZGluZycsICctaW1hZScsICc8aW5maWxlLm1hZT4nLCAnLW9tYWUnLCAnPG91dGZpbGUubWFlPic=

> <r_lp_tautomer_probability>
1

> <r_epik_Ionization_Penalty>
0.000877611

> <r_epik_Ionization_Penalty_Charging>
0

> <r_epik_Ionization_Penalty_Neutral>
0.000877611

> <r_epik_State_Penalty>
-0

> <r_epik_Charging_Adjusted_Penalty>
0

> <i_epik_Tot_Q>
0

> <i_epik_Tot_abs_Q>
0

> <r_epik_Metal_State_Penalty>
-0

> <b_epik_Metal_Only>
0

> <s_lp_Force_Field>
OPLS_2005

> <r_lp_Energy>
7.48637

> <b_lp_Chiralities_Consistent>
1

> <s_lp_Variant>
AV-unprocessed.smi:1319-2

> <Gold.Version>
5.8.1

> <Gold.Id.Protein>
6NUR|6NUR_protein|mol2

> <Gold.PLP.Fitness>
38.5926

> <Gold.PLP.PLP>
-30.1811

> <Gold.PLP.part.hbond>
-3.0243

> <Gold.PLP.part.metal>
0.0000

> <Gold.PLP.part.buried>
-4.4646

> <Gold.PLP.part.nonpolar>
-22.2594

> <Gold.PLP.part.repulsive>
0.3731

> <Gold.PLP.ligand.clash>
0.0000

> <Gold.PLP.ligand.torsion>
0.2970

> <Gold.PLP.Chemscore.Hbond>
3.0000

> <Gold.PLP.Chemscore.CHOScore>
0.0000

> <Gold.PLP.Chemscore.Metal>
0.0000

> <Gold.Chemscore.Hbonds>
donor molecule, donor type, donor heavy atom, donor atom, acceptor molecule, acceptor atom, score
      L1  H     1    16       P1  7957  1.00
      L1  H     1    17       P1  7948  1.00
      P1  H  7989  7998       L1    15  1.00

> <Gold.PLP.Chemscore.Internal.Correction>
0.0055

> <Gold.Rescore>
     Score         DG    S(hbond)    S(metal)    S(lipo)     H(rot)  DE(clash)    DE(int)     intcor
     16.81     -17.05       2.70        0.00      64.66       1.96       0.00       0.24       ----

> <Gold.Chemscore.Fitness>
16.8091

> <Gold.Chemscore.DG>
-17.0505

> <Gold.Chemscore.ZeroCoef>
-5.4800

> <Gold.Chemscore.Hbond>
2.7027

> <Gold.Chemscore.Metal>
0.0000

> <Gold.Chemscore.Lipo>
64.6641

> <Gold.Chemscore.Internal_Hbond>
0.0000

> <Gold.Chemscore.DEClash>
0.0000

> <Gold.Chemscore.DEInternal>
0.2414

> <Gold.Chemscore.Rot>
1.9619

> <Gold.Chemscore.Internal.Correction>
   9.000000E+99

> <Gold.Chemscore.Hbonds>
donor molecule, donor type, donor heavy atom, donor atom, acceptor molecule, acceptor atom, score
      L1  H     1    16       P1  7957  0.86
      L1  H     1    17       P1  7948  0.69
      P1  H  7989  7998       L1    15  0.68

> <Gold.Chemscore.Hbond.Weighted>
-9.0272

> <Gold.Chemscore.Metal.Weighted>
-0.0000

> <Gold.Chemscore.Lipo.Weighted>
-7.5657

> <Gold.Chemscore.Internal_Hbond.Weighted>
0.0000

> <Gold.Chemscore.DEClash.Weighted>
0.0000

> <Gold.Chemscore.DEInternal.Weighted>
0.2414

> <Gold.Chemscore.Rot.Weighted>
5.0224

> <Gold.Chemscore.Internal.Correction.Weighted>
   9.000000E+99

> <Gold.Protein.RotatedTorsions>
[ 6907 6896 6895 6894 ] final  178.12 input  -60.11 | X-H torsion
[ 7974 7965 7964 7962 ] final  -28.49 input  175.53 | X-H torsion
[ 8008 7997 7996 7995 ] final -176.59 input   59.86 | X-H torsion
[ 10167 10162 10161 10158 ] final  100.37 input  -65.29 | X-H torsion
[ 10718 10713 10712 10709 ] final -125.30 input   66.30 | X-H torsion
[ 10763 10752 10751 10750 ] final  152.79 input  -60.55 | X-H torsion
[ 11005 11000 10999 10996 ] final -129.12 input  -57.11 | X-H torsion

> <Gold.Protein.ActiveResidues>
 VAL166  LYS551  ARG553  GLY616  TRP617  ASP618  TYR619  PRO620  LYS621  CYS622 
 ASP623  PHE694  ASN695  SER759  ASP760  ASP761  ALA762  ILE779  LEU786  VAL792 
 PHE793  MET794  SER795  GLU796  ALA797  LYS798  CYS799  TRP800  GLU811  SER814 

> <Gold.Protein.RotatedAtoms>
  151.6930  133.3311  159.3247 H   0  0  0  0  0  0  0  0  0  0  0  0  # atno 6907 bound_to 6896
  150.7770  134.6682  159.6386 H   0  0  0  0  0  0  0  0  0  0  0  0  # atno 6908 bound_to 6896
  152.3815  134.6585  160.0193 H   0  0  0  0  0  0  0  0  0  0  0  0  # atno 6909 bound_to 6896
  146.1284  140.5289  142.8704 H   0  0  0  0  0  0  0  0  0  0  0  0  # atno 7974 bound_to 7965
  155.9967  140.1212  157.0587 H   0  0  0  0  0  0  0  0  0  0  0  0  # atno 8008 bound_to 7997
  154.4229  140.1115  156.5708 H   0  0  0  0  0  0  0  0  0  0  0  0  # atno 8009 bound_to 7997
  155.6269  140.3472  155.4672 H   0  0  0  0  0  0  0  0  0  0  0  0  # atno 8010 bound_to 7997
  139.7533  144.6977  151.0400 H   0  0  0  0  0  0  0  0  0  0  0  0  # atno 10167 bound_to 10162
  156.1663  130.6637  151.0119 H   0  0  0  0  0  0  0  0  0  0  0  0  # atno 10718 bound_to 10713
  154.1257  135.2830  155.3197 H   0  0  0  0  0  0  0  0  0  0  0  0  # atno 10763 bound_to 10752
  154.6392  135.5408  153.7772 H   0  0  0  0  0  0  0  0  0  0  0  0  # atno 10764 bound_to 10752
  153.0298  135.6482  154.1409 H   0  0  0  0  0  0  0  0  0  0  0  0  # atno 10765 bound_to 10752
  140.9459  134.1131  157.4108 H   0  0  0  0  0  0  0  0  0  0  0  0  # atno 11005 bound_to 11000
  144.7666  140.5544  143.6699 LP  0  0  0  0  0  0  0  0  0  0  0  0  # atno 17320 bound_to 7965
  145.5314  139.1475  143.3497 LP  0  0  0  0  0  0  0  0  0  0  0  0  # atno 17321 bound_to 7965
  140.7800  143.4783  151.0053 LP  0  0  0  0  0  0  0  0  0  0  0  0  # atno 17342 bound_to 10162
  139.8470  143.7488  152.3179 LP  0  0  0  0  0  0  0  0  0  0  0  0  # atno 17343 bound_to 10162
  157.6770  131.0848  150.7468 LP  0  0  0  0  0  0  0  0  0  0  0  0  # atno 17370 bound_to 10713
  156.7529  130.4774  149.5453 LP  0  0  0  0  0  0  0  0  0  0  0  0  # atno 17371 bound_to 10713
  139.8833  135.0051  156.6291 LP  0  0  0  0  0  0  0  0  0  0  0  0  # atno 17394 bound_to 11000
  140.7670  133.8770  155.8462 LP  0  0  0  0  0  0  0  0  0  0  0  0  # atno 17395 bound_to 11000

$$$$
