AV-unprocessed.smi:2488|AV-procd|sdf|9793|dock7
  -GOLD-   2272013433D 1   1.00000     0.00000
 Structure written by MMmdl.
 33 34  0  0  0  0  0  0  0  0  1 V2000
  147.3900  136.3059  161.5909 C   0  0  0  0  0  0  0  0  0  0  0  0
  148.3773  135.8195  160.5240 C   0  0  0  0  0  0  0  0  0  0  0  0
  148.1069  136.4384  159.1652 C   0  0  0  0  0  0  0  0  0  0  0  0
  146.8793  136.2334  158.6380 N   0  0  0  0  0  0  0  0  0  0  0  0
  146.6432  136.7696  157.4386 C   0  0  0  0  0  0  0  0  0  0  0  0
  147.4951  137.4869  156.7025 N   0  0  0  0  0  0  0  0  0  0  0  0
  148.7360  137.6932  157.2096 C   0  0  0  0  0  0  0  0  0  0  0  0
  149.6635  138.4553  156.4705 N   0  0  0  0  0  0  0  0  0  0  0  0
  149.2814  139.8650  156.4482 C   0  0  0  0  0  0  0  0  0  0  0  0
  150.3872  140.7167  155.8084 C   0  0  0  0  0  0  0  0  0  0  0  0
  150.6682  140.2150  154.5088 O   0  0  0  0  0  0  0  0  0  0  0  0
  151.1615  138.8817  154.5592 C   0  0  0  0  0  0  0  0  0  0  0  0
  150.1018  137.9324  155.1667 C   0  0  1  0  0  0  0  0  0  0  0  0
  150.6946  136.5117  155.2090 C   0  0  0  0  0  0  0  0  0  0  0  0
  150.1611  135.6073  154.3841 N   0  0  0  0  0  0  0  0  0  0  0  0
  151.6263  136.2376  155.9639 O   0  0  0  0  0  0  0  0  0  0  0  0
  149.0929  137.1782  158.4772 C   0  0  0  0  0  0  0  0  0  0  0  0
  150.3272  137.3750  159.0022 F   0  0  0  0  0  0  0  0  0  0  0  0
  147.6040  135.8473  162.5562 H   0  0  0  0  0  0  0  0  0  0  0  0
  146.3646  136.0515  161.3208 H   0  0  0  0  0  0  0  0  0  0  0  0
  147.4455  137.3876  161.7163 H   0  0  0  0  0  0  0  0  0  0  0  0
  149.3965  136.0611  160.8279 H   0  0  0  0  0  0  0  0  0  0  0  0
  148.3327  134.7329  160.4469 H   0  0  0  0  0  0  0  0  0  0  0  0
  145.6606  136.6083  157.0210 H   0  0  0  0  0  0  0  0  0  0  0  0
  148.3538  139.9784  155.8847 H   0  0  0  0  0  0  0  0  0  0  0  0
  149.0867  140.2293  157.4578 H   0  0  0  0  0  0  0  0  0  0  0  0
  150.0630  141.7543  155.7259 H   0  0  0  0  0  0  0  0  0  0  0  0
  151.2904  140.7118  156.4210 H   0  0  0  0  0  0  0  0  0  0  0  0
  151.4113  138.5735  153.5432 H   0  0  0  0  0  0  0  0  0  0  0  0
  152.0910  138.8576  155.1321 H   0  0  0  0  0  0  0  0  0  0  0  0
  149.2369  137.9276  154.5002 H   0  0  0  0  0  0  0  0  0  0  0  0
  150.5180  134.6630  154.3718 H   0  0  0  0  0  0  0  0  0  0  0  0
  149.4037  135.8736  153.7719 H   0  0  0  0  0  0  0  0  0  0  0  0
  1  2  1  0  0  0  0
  1 19  1  0  0  0  0
  1 20  1  0  0  0  0
  1 21  1  0  0  0  0
  2  3  1  0  0  0  0
  2 22  1  0  0  0  0
  2 23  1  0  0  0  0
  3 17  1  0  0  0  0
  3  4  2  0  0  0  0
  4  5  1  0  0  0  0
  5  6  2  0  0  0  0
  5 24  1  0  0  0  0
  6  7  1  0  0  0  0
  7  8  1  0  0  0  0
  7 17  2  0  0  0  0
  8 13  1  0  0  0  0
  8  9  1  0  0  0  0
  9 10  1  0  0  0  0
  9 25  1  0  0  0  0
  9 26  1  0  0  0  0
 10 11  1  0  0  0  0
 10 27  1  0  0  0  0
 10 28  1  0  0  0  0
 11 12  1  0  0  0  0
 12 13  1  0  0  0  0
 12 29  1  0  0  0  0
 12 30  1  0  0  0  0
 13 14  1  0  0  0  0
 13 31  1  0  0  0  0
 14 15  1  0  0  0  0
 14 16  2  0  0  0  0
 15 32  1  0  0  0  0
 15 33  1  0  0  0  0
 17 18  1  0  0  0  0
M  END
> <s_m_source_file>
AV-unprocessed.smi

> <i_m_source_file_index>
2488

> <i_lp_mmshare_version>
43012

> <i_f3d_flags>
0

> <s_epik_input>
W0NIM11bQ0gyXWMxbltjSF1uYyhjMUYpTjJbQ0gyXVtDSDJdT1tDSDJdW0NASF0yQyg9TylbTkgyXQ==

> <s_epik_cmdline>
J2VwaWtfcHl0aG9uJywgJy1waCcsICc3LjAnLCAnLXRuJywgJzgnLCAnLW1hJywgJzIwMCcsICctbWV0YWxfYmluZGluZycsICctaW1hZScsICc8aW5maWxlLm1hZT4nLCAnLW9tYWUnLCAnPG91dGZpbGUubWFlPic=

> <r_lp_tautomer_probability>
1

> <r_epik_Ionization_Penalty>
2.73136e-05

> <r_epik_Ionization_Penalty_Charging>
0

> <r_epik_Ionization_Penalty_Neutral>
2.73136e-05

> <r_epik_State_Penalty>
-0

> <r_epik_Charging_Adjusted_Penalty>
0

> <i_epik_Tot_Q>
0

> <i_epik_Tot_abs_Q>
0

> <r_epik_Metal_State_Penalty>
-0

> <b_epik_Metal_Only>
0

> <s_lp_Force_Field>
OPLS_2005

> <r_lp_Energy>
12.1778

> <b_lp_Chiralities_Consistent>
1

> <s_lp_Variant>
AV-unprocessed.smi:2488-1

> <Gold.Version>
5.8.1

> <Gold.Id.Protein>
6NUR|6NUR_protein|mol2

> <Gold.PLP.Fitness>
30.7644

> <Gold.PLP.PLP>
-22.7482

> <Gold.PLP.part.hbond>
-3.4232

> <Gold.PLP.part.metal>
0.0000

> <Gold.PLP.part.buried>
-3.8526

> <Gold.PLP.part.nonpolar>
-16.2966

> <Gold.PLP.part.repulsive>
0.1891

> <Gold.PLP.ligand.clash>
0.0000

> <Gold.PLP.ligand.torsion>
0.2343

> <Gold.PLP.Chemscore.Hbond>
2.7593

> <Gold.PLP.Chemscore.CHOScore>
0.0000

> <Gold.PLP.Chemscore.Metal>
0.0000

> <Gold.Chemscore.Hbonds>
donor molecule, donor type, donor heavy atom, donor atom, acceptor molecule, acceptor atom, score
      L1  H    15    33       P1  7948  0.83
      P1  H  7989  7998       L1    11  1.00
      P1  H 10752 10765       L1    16  1.00

> <Gold.PLP.Chemscore.Internal.Correction>
0.2071

> <Gold.Rescore>
     Score         DG    S(hbond)    S(metal)    S(lipo)     H(rot)  DE(clash)    DE(int)     intcor
     12.90     -13.03       2.22        0.00      41.90       1.86       0.02       0.12       ----

> <Gold.Chemscore.Fitness>
12.8971

> <Gold.Chemscore.DG>
-13.0321

> <Gold.Chemscore.ZeroCoef>
-5.4800

> <Gold.Chemscore.Hbond>
2.2175

> <Gold.Chemscore.Metal>
0.0000

> <Gold.Chemscore.Lipo>
41.9036

> <Gold.Chemscore.Internal_Hbond>
0.0000

> <Gold.Chemscore.DEClash>
0.0191

> <Gold.Chemscore.DEInternal>
0.1159

> <Gold.Chemscore.Rot>
1.8582

> <Gold.Chemscore.Internal.Correction>
   9.000000E+99

> <Gold.Chemscore.Hbonds>
donor molecule, donor type, donor heavy atom, donor atom, acceptor molecule, acceptor atom, score
      L1  H    15    33       P1  7948  0.48
      P1  H  7989  7998       L1    11  0.33
      P1  H 10752 10765       L1    16  0.44

> <Gold.Chemscore.Hbond.Weighted>
-7.4064

> <Gold.Chemscore.Metal.Weighted>
-0.0000

> <Gold.Chemscore.Lipo.Weighted>
-4.9027

> <Gold.Chemscore.Internal_Hbond.Weighted>
0.0000

> <Gold.Chemscore.DEClash.Weighted>
0.0191

> <Gold.Chemscore.DEInternal.Weighted>
0.1159

> <Gold.Chemscore.Rot.Weighted>
4.7570

> <Gold.Chemscore.Internal.Correction.Weighted>
   9.000000E+99

> <Gold.Protein.RotatedTorsions>
[ 6907 6896 6895 6894 ] final   86.07 input  -60.11 | X-H torsion
[ 7974 7965 7964 7962 ] final  161.38 input  175.53 | X-H torsion
[ 8008 7997 7996 7995 ] final   25.45 input   59.86 | X-H torsion
[ 10167 10162 10161 10158 ] final -136.42 input  -65.29 | X-H torsion
[ 10718 10713 10712 10709 ] final  143.76 input   66.30 | X-H torsion
[ 10763 10752 10751 10750 ] final -170.14 input  -60.55 | X-H torsion
[ 11005 11000 10999 10996 ] final   97.10 input  -57.11 | X-H torsion

> <Gold.Protein.ActiveResidues>
 VAL166  LYS551  ARG553  GLY616  TRP617  ASP618  TYR619  PRO620  LYS621  CYS622 
 ASP623  PHE694  ASN695  SER759  ASP760  ASP761  ALA762  ILE779  LEU786  VAL792 
 PHE793  MET794  SER795  GLU796  ALA797  LYS798  CYS799  TRP800  GLU811  SER814 

> <Gold.Protein.RotatedAtoms>
  152.5387  134.2488  159.8890 H   0  0  0  0  0  0  0  0  0  0  0  0  # atno 6907 bound_to 6896
  151.2452  133.4372  159.2616 H   0  0  0  0  0  0  0  0  0  0  0  0  # atno 6908 bound_to 6896
  151.0589  134.9737  159.8306 H   0  0  0  0  0  0  0  0  0  0  0  0  # atno 6909 bound_to 6896
  144.7688  139.7891  143.6305 H   0  0  0  0  0  0  0  0  0  0  0  0  # atno 7974 bound_to 7965
  155.0119  140.3137  155.4826 H   0  0  0  0  0  0  0  0  0  0  0  0  # atno 8008 bound_to 7997
  156.2907  140.2213  156.5175 H   0  0  0  0  0  0  0  0  0  0  0  0  # atno 8009 bound_to 7997
  154.7527  140.0465  157.0895 H   0  0  0  0  0  0  0  0  0  0  0  0  # atno 8010 bound_to 7997
  139.8679  143.6994  152.2643 H   0  0  0  0  0  0  0  0  0  0  0  0  # atno 10167 bound_to 10162
  157.3652  131.0971  151.0879 H   0  0  0  0  0  0  0  0  0  0  0  0  # atno 10718 bound_to 10713
  154.6448  135.2903  155.0060 H   0  0  0  0  0  0  0  0  0  0  0  0  # atno 10763 bound_to 10752
  154.1174  135.6553  153.4900 H   0  0  0  0  0  0  0  0  0  0  0  0  # atno 10764 bound_to 10752
  153.0345  135.5279  154.7330 H   0  0  0  0  0  0  0  0  0  0  0  0  # atno 10765 bound_to 10752
  139.8777  134.8984  156.4257 H   0  0  0  0  0  0  0  0  0  0  0  0  # atno 11005 bound_to 11000
  146.1818  139.5015  142.9861 LP  0  0  0  0  0  0  0  0  0  0  0  0  # atno 17320 bound_to 7965
  145.6386  141.0289  143.1824 LP  0  0  0  0  0  0  0  0  0  0  0  0  # atno 17321 bound_to 7965
  139.7311  144.7582  151.0800 LP  0  0  0  0  0  0  0  0  0  0  0  0  # atno 17342 bound_to 10162
  140.7765  143.5087  150.9680 LP  0  0  0  0  0  0  0  0  0  0  0  0  # atno 17343 bound_to 10162
  157.2004  130.6392  149.5736 LP  0  0  0  0  0  0  0  0  0  0  0  0  # atno 17370 bound_to 10713
  155.9745  130.4693  150.6389 LP  0  0  0  0  0  0  0  0  0  0  0  0  # atno 17371 bound_to 10713
  140.9102  133.7717  155.9782 LP  0  0  0  0  0  0  0  0  0  0  0  0  # atno 17394 bound_to 11000
  140.8555  134.2903  157.5257 LP  0  0  0  0  0  0  0  0  0  0  0  0  # atno 17395 bound_to 11000

$$$$
