AV-unprocessed.smi:859|AV-procd|sdf|3963|dock10
  -GOLD-   22720 1433D 1   1.00000     0.00000
 Structure written by MMmdl.
 36 37  0  0  0  0  0  0  0  0  2 V2000
  152.3827  140.1349  157.5374 O   0  0  0  0  0  0  0  0  0  0  0  0
  151.3796  140.8491  157.5603 C   0  0  0  0  0  0  0  0  0  0  0  0
  150.2650  140.5744  156.8641 N   0  0  0  0  0  0  0  0  0  0  0  0
  150.0863  139.4329  155.9712 C   0  0  0  0  0  0  0  0  0  0  0  0
  149.7267  139.8687  154.5380 C   0  0  0  0  0  0  0  0  0  0  0  0
  148.3914  140.4680  154.4442 N   0  0  0  0  0  0  0  0  0  0  0  0
  147.9323  141.5793  155.1036 C   0  0  0  0  0  0  0  0  0  0  0  0
  146.6268  141.7491  154.7206 C   0  0  0  0  0  0  0  0  0  0  0  0
  146.3458  140.7383  153.8410 N   0  3  0  0  0  0  0  0  0  0  0  0
  147.4215  139.9633  153.6702 C   0  0  0  0  0  0  0  0  0  0  0  0
  151.3691  142.1404  158.3875 C   0  0  0  0  0  0  0  0  0  0  0  0
  151.2583  143.3773  157.4702 C   0  0  0  0  0  0  0  0  0  0  0  0
  151.2495  144.6790  158.2879 C   0  0  0  0  0  0  0  0  0  0  0  0
  152.4905  144.7788  159.1891 C   0  0  0  0  0  0  0  0  0  0  0  0
  152.6215  143.5453  160.0969 C   0  0  0  0  0  0  0  0  0  0  0  0
  152.6271  142.2455  159.2755 C   0  0  0  0  0  0  0  0  0  0  0  0
  149.4868  141.2129  156.9478 H   0  0  0  0  0  0  0  0  0  0  0  0
  150.9694  138.7917  155.9706 H   0  0  0  0  0  0  0  0  0  0  0  0
  149.2741  138.8278  156.3740 H   0  0  0  0  0  0  0  0  0  0  0  0
  150.4405  140.6136  154.1848 H   0  0  0  0  0  0  0  0  0  0  0  0
  149.7835  139.0247  153.8488 H   0  0  0  0  0  0  0  0  0  0  0  0
  148.5499  142.1463  155.7852 H   0  0  0  0  0  0  0  0  0  0  0  0
  145.8947  142.4922  155.0024 H   0  0  0  0  0  0  0  0  0  0  0  0
  147.4876  139.0929  153.0419 H   0  0  0  0  0  0  0  0  0  0  0  0
  150.4943  142.1222  159.0405 H   0  0  0  0  0  0  0  0  0  0  0  0
  152.0936  143.4012  156.7683 H   0  0  0  0  0  0  0  0  0  0  0  0
  150.3509  143.3193  156.8674 H   0  0  0  0  0  0  0  0  0  0  0  0
  151.2068  145.5387  157.6184 H   0  0  0  0  0  0  0  0  0  0  0  0
  150.3481  144.7193  158.9007 H   0  0  0  0  0  0  0  0  0  0  0  0
  153.3842  144.8731  158.5708 H   0  0  0  0  0  0  0  0  0  0  0  0
  152.4376  145.6831  159.7959 H   0  0  0  0  0  0  0  0  0  0  0  0
  153.5348  143.6148  160.6887 H   0  0  0  0  0  0  0  0  0  0  0  0
  151.7944  143.5248  160.8076 H   0  0  0  0  0  0  0  0  0  0  0  0
  152.6853  141.3898  159.9494 H   0  0  0  0  0  0  0  0  0  0  0  0
  153.5275  142.2148  158.6597 H   0  0  0  0  0  0  0  0  0  0  0  0
  145.4526  140.5937  153.3872 H   0  0  0  0  0  0  0  0  0  0  0  0
  1  2  2  0  0  0  0
  2  3  1  0  0  0  0
  2 11  1  0  0  0  0
  3  4  1  0  0  0  0
  3 17  1  0  0  0  0
  4  5  1  0  0  0  0
  4 18  1  0  0  0  0
  4 19  1  0  0  0  0
  5  6  1  0  0  0  0
  5 20  1  0  0  0  0
  5 21  1  0  0  0  0
  6 10  1  0  0  0  0
  6  7  1  0  0  0  0
  7  8  2  0  0  0  0
  7 22  1  0  0  0  0
  8  9  1  0  0  0  0
  8 23  1  0  0  0  0
  9 10  2  0  0  0  0
  9 36  1  0  0  0  0
 10 24  1  0  0  0  0
 11 16  1  0  0  0  0
 11 12  1  0  0  0  0
 11 25  1  0  0  0  0
 12 13  1  0  0  0  0
 12 26  1  0  0  0  0
 12 27  1  0  0  0  0
 13 14  1  0  0  0  0
 13 28  1  0  0  0  0
 13 29  1  0  0  0  0
 14 15  1  0  0  0  0
 14 30  1  0  0  0  0
 14 31  1  0  0  0  0
 15 16  1  0  0  0  0
 15 32  1  0  0  0  0
 15 33  1  0  0  0  0
 16 34  1  0  0  0  0
 16 35  1  0  0  0  0
M  CHG  1   9   1
M  END
> <s_m_source_file>
AV-unprocessed.smi

> <i_m_source_file_index>
859

> <i_lp_mmshare_version>
43012

> <i_f3d_flags>
0

> <s_epik_input>
W0NIMl0xW0NIMl1bQ0gyXVtDSDJdW0NIMl1bQ0hdMUMoPU8pW05IXVtDSDJdW0NIMl1uMltjSF1bY0hdbltjSF0y

> <s_epik_cmdline>
J2VwaWtfcHl0aG9uJywgJy1waCcsICc3LjAnLCAnLXRuJywgJzgnLCAnLW1hJywgJzIwMCcsICctbWV0YWxfYmluZGluZycsICctaW1hZScsICc8aW5maWxlLm1hZT4nLCAnLW9tYWUnLCAnPG91dGZpbGUubWFlPic=

> <r_lp_tautomer_probability>
1

> <r_epik_Ionization_Penalty>
0.267085

> <r_epik_Ionization_Penalty_Charging>
0

> <r_epik_Ionization_Penalty_Neutral>
0.267085

> <r_epik_State_Penalty>
0.259064

> <r_epik_Charging_Adjusted_Penalty>
0.259064

> <i_epik_Tot_Q>
1

> <i_epik_Tot_abs_Q>
1

> <r_epik_Metal_State_Penalty>
0.54496

> <b_epik_Metal_Only>
0

> <s_lp_Force_Field>
OPLS_2005

> <r_lp_Energy>
13.141

> <b_lp_Chiralities_Consistent>
1

> <s_lp_Variant>
AV-unprocessed.smi:859-1

> <Gold.Version>
5.8.1

> <Gold.Id.Protein>
6NUR|6NUR_protein|mol2

> <Gold.PLP.Fitness>
48.8001

> <Gold.PLP.PLP>
-36.0132

> <Gold.PLP.part.hbond>
-2.0000

> <Gold.PLP.part.metal>
0.0000

> <Gold.PLP.part.buried>
1.8055

> <Gold.PLP.part.nonpolar>
-34.8223

> <Gold.PLP.part.repulsive>
0.0649

> <Gold.PLP.ligand.clash>
0.0000

> <Gold.PLP.ligand.torsion>
0.1098

> <Gold.PLP.Chemscore.Hbond>
3.0000

> <Gold.PLP.Chemscore.CHOScore>
1.3280

> <Gold.PLP.Chemscore.Metal>
0.0000

> <Gold.Chemscore.Hbonds>
donor molecule, donor type, donor heavy atom, donor atom, acceptor molecule, acceptor atom, score
      L1  H     9    36       P1 10175  2.00
      P1  H  7997  8010       L1     1  0.63
      L1  C     7    22       P1  8028  0.74

> <Gold.PLP.Chemscore.Internal.Correction>
0.0227

> <Gold.Rescore>
     Score         DG    S(hbond)    S(metal)    S(lipo)     H(rot)  DE(clash)    DE(int)     intcor
     18.09     -18.19       1.95        0.00      93.68       1.86       0.03       0.06       ----

> <Gold.Chemscore.Fitness>
18.0932

> <Gold.Chemscore.DG>
-18.1919

> <Gold.Chemscore.ZeroCoef>
-5.4800

> <Gold.Chemscore.Hbond>
1.9475

> <Gold.Chemscore.Metal>
0.0000

> <Gold.Chemscore.Lipo>
93.6795

> <Gold.Chemscore.Internal_Hbond>
0.0000

> <Gold.Chemscore.DEClash>
0.0342

> <Gold.Chemscore.DEInternal>
0.0645

> <Gold.Chemscore.Rot>
1.8567

> <Gold.Chemscore.Internal.Correction>
   9.000000E+99

> <Gold.Chemscore.Hbonds>
donor molecule, donor type, donor heavy atom, donor atom, acceptor molecule, acceptor atom, score
      L1  H     9    36       P1 10175  0.90
      P1  H  7997  8010       L1     1  0.61

> <Gold.Chemscore.Hbond.Weighted>
-6.5045

> <Gold.Chemscore.Metal.Weighted>
-0.0000

> <Gold.Chemscore.Lipo.Weighted>
-10.9605

> <Gold.Chemscore.Internal_Hbond.Weighted>
0.0000

> <Gold.Chemscore.DEClash.Weighted>
0.0342

> <Gold.Chemscore.DEInternal.Weighted>
0.0645

> <Gold.Chemscore.Rot.Weighted>
4.7531

> <Gold.Chemscore.Internal.Correction.Weighted>
   9.000000E+99

> <Gold.Protein.RotatedTorsions>
[ 6907 6896 6895 6894 ] final   40.50 input  -60.11 | X-H torsion
[ 7974 7965 7964 7962 ] final  -64.83 input  175.53 | X-H torsion
[ 8008 7997 7996 7995 ] final   58.89 input   59.86 | X-H torsion
[ 10167 10162 10161 10158 ] final   80.28 input  -65.29 | X-H torsion
[ 10718 10713 10712 10709 ] final  -78.41 input   66.30 | X-H torsion
[ 10763 10752 10751 10750 ] final  134.35 input  -60.55 | X-H torsion
[ 11005 11000 10999 10996 ] final   12.74 input  -57.11 | X-H torsion

> <Gold.Protein.ActiveResidues>
 VAL166  LYS551  ARG553  GLY616  TRP617  ASP618  TYR619  PRO620  LYS621  CYS622 
 ASP623  PHE694  ASN695  SER759  ASP760  ASP761  ALA762  ILE779  LEU786  VAL792 
 PHE793  MET794  SER795  GLU796  ALA797  LYS798  CYS799  TRP800  GLU811  SER814 

> <Gold.Protein.RotatedAtoms>
  152.1833  134.8735  160.0524 H   0  0  0  0  0  0  0  0  0  0  0  0  # atno 6907 bound_to 6896
  151.9652  133.3703  159.4058 H   0  0  0  0  0  0  0  0  0  0  0  0  # atno 6908 bound_to 6896
  150.6921  134.4122  159.5211 H   0  0  0  0  0  0  0  0  0  0  0  0  # atno 6909 bound_to 6896
  145.7619  140.8857  143.0426 H   0  0  0  0  0  0  0  0  0  0  0  0  # atno 7974 bound_to 7965
  155.5573  140.3487  155.4483 H   0  0  0  0  0  0  0  0  0  0  0  0  # atno 8008 bound_to 7997
  156.0540  140.1324  157.0044 H   0  0  0  0  0  0  0  0  0  0  0  0  # atno 8009 bound_to 7997
  154.4447  140.0999  156.6403 H   0  0  0  0  0  0  0  0  0  0  0  0  # atno 8010 bound_to 7997
  139.9514  144.6023  150.8157 H   0  0  0  0  0  0  0  0  0  0  0  0  # atno 10167 bound_to 10162
  156.0118  130.4517  150.3492 H   0  0  0  0  0  0  0  0  0  0  0  0  # atno 10718 bound_to 10713
  153.8221  135.3115  155.3411 H   0  0  0  0  0  0  0  0  0  0  0  0  # atno 10763 bound_to 10752
  154.8008  135.4728  154.0274 H   0  0  0  0  0  0  0  0  0  0  0  0  # atno 10764 bound_to 10752
  153.1687  135.6874  153.8729 H   0  0  0  0  0  0  0  0  0  0  0  0  # atno 10765 bound_to 10752
  140.4886  134.0863  155.7766 H   0  0  0  0  0  0  0  0  0  0  0  0  # atno 11005 bound_to 11000
  144.6829  139.9734  143.7482 LP  0  0  0  0  0  0  0  0  0  0  0  0  # atno 17320 bound_to 7965
  146.0256  139.3289  143.0786 LP  0  0  0  0  0  0  0  0  0  0  0  0  # atno 17321 bound_to 7965
  140.7581  143.3101  151.2866 LP  0  0  0  0  0  0  0  0  0  0  0  0  # atno 17342 bound_to 10162
  139.6625  144.0163  152.2702 LP  0  0  0  0  0  0  0  0  0  0  0  0  # atno 17343 bound_to 10162
  157.1585  131.0339  151.2852 LP  0  0  0  0  0  0  0  0  0  0  0  0  # atno 17370 bound_to 10713
  157.4331  130.7502  149.7007 LP  0  0  0  0  0  0  0  0  0  0  0  0  # atno 17371 bound_to 10713
  141.1495  133.8994  157.2133 LP  0  0  0  0  0  0  0  0  0  0  0  0  # atno 17394 bound_to 11000
  139.9783  135.0107  156.9685 LP  0  0  0  0  0  0  0  0  0  0  0  0  # atno 17395 bound_to 11000

$$$$
