AV-unprocessed.smi:1096|AV-procd|sdf|4749|dock3
  -GOLD-   22720 3283D 1   1.00000     0.00000
 Structure written by MMmdl.
 48 50  0  0  0  0  0  0  0  0  1 V2000
  150.8554  140.7244  156.5320 O   0  0  0  0  0  0  0  0  0  0  0  0
  150.1995  141.7636  156.4534 C   0  0  0  0  0  0  0  0  0  0  0  0
  150.2966  142.8109  157.2914 N   0  0  0  0  0  0  0  0  0  0  0  0
  151.1267  142.9461  158.4359 C   0  0  0  0  0  0  0  0  0  0  0  0
  150.9795  144.1619  159.1417 C   0  0  0  0  0  0  0  0  0  0  0  0
  151.7554  144.3923  160.2941 C   0  0  0  0  0  0  0  0  0  0  0  0
  152.6592  143.3995  160.7125 C   0  0  0  0  0  0  0  0  0  0  0  0
  152.7442  142.2178  159.9534 C   0  0  0  0  0  0  0  0  0  0  0  0
  152.0020  141.9950  158.8483 N   0  0  0  0  0  0  0  0  0  0  0  0
  149.2851  141.9907  155.4988 N   0  0  0  0  0  0  0  0  0  0  0  0
  148.9416  141.0669  154.4218 C   0  0  2  0  0  0  0  0  0  0  0  0
  147.7258  141.6100  153.6483 C   0  0  0  0  0  0  0  0  0  0  0  0
  147.2824  140.6383  152.5430 C   0  0  0  0  0  0  0  0  0  0  0  0
  146.9641  139.2408  153.1209 C   0  0  1  0  0  0  0  0  0  0  0  0
  146.5053  138.2535  152.0258 C   0  0  0  0  0  0  0  0  0  0  0  0
  146.8166  138.4917  150.8576 O   0  0  0  0  0  0  0  0  0  0  0  0
  145.7474  137.1778  152.3583 N   0  0  0  0  0  0  0  0  0  0  0  0
  145.5318  136.7722  153.7526 C   0  0  0  0  0  0  0  0  0  0  0  0
  146.4610  135.5890  154.0751 C   0  0  0  0  0  0  0  0  0  0  0  0
  146.0823  134.1481  153.0269 S   0  0  0  0  0  0  0  0  0  0  0  0
  146.0528  134.9506  151.3928 C   0  0  0  0  0  0  0  0  0  0  0  0
  145.1700  136.2086  151.4190 C   0  0  0  0  0  0  0  0  0  0  0  0
  148.1983  138.6954  153.8686 C   0  0  0  0  0  0  0  0  0  0  0  0
  148.6494  139.6582  154.9789 C   0  0  0  0  0  0  0  0  0  0  0  0
  149.7036  143.6023  157.0900 H   0  0  0  0  0  0  0  0  0  0  0  0
  150.2799  144.9140  158.8067 H   0  0  0  0  0  0  0  0  0  0  0  0
  151.6578  145.3151  160.8469 H   0  0  0  0  0  0  0  0  0  0  0  0
  153.2710  143.5396  161.5914 H   0  0  0  0  0  0  0  0  0  0  0  0
  153.4249  141.4302  160.2409 H   0  0  0  0  0  0  0  0  0  0  0  0
  148.7936  142.8723  155.5123 H   0  0  0  0  0  0  0  0  0  0  0  0
  149.7831  141.0043  153.7290 H   0  0  0  0  0  0  0  0  0  0  0  0
  146.8945  141.7792  154.3345 H   0  0  0  0  0  0  0  0  0  0  0  0
  147.9656  142.5790  153.2087 H   0  0  0  0  0  0  0  0  0  0  0  0
  146.4069  141.0423  152.0328 H   0  0  0  0  0  0  0  0  0  0  0  0
  148.0741  140.5717  151.7948 H   0  0  0  0  0  0  0  0  0  0  0  0
  146.1531  139.3947  153.8316 H   0  0  0  0  0  0  0  0  0  0  0  0
  145.7150  137.5863  154.4551 H   0  0  0  0  0  0  0  0  0  0  0  0
  144.4902  136.4874  153.9075 H   0  0  0  0  0  0  0  0  0  0  0  0
  147.5032  135.8732  153.9239 H   0  0  0  0  0  0  0  0  0  0  0  0
  146.3579  135.2980  155.1207 H   0  0  0  0  0  0  0  0  0  0  0  0
  147.0723  135.2050  151.1007 H   0  0  0  0  0  0  0  0  0  0  0  0
  145.6779  134.2371  150.6588 H   0  0  0  0  0  0  0  0  0  0  0  0
  144.1598  135.9432  151.7341 H   0  0  0  0  0  0  0  0  0  0  0  0
  145.0434  136.6135  150.4162 H   0  0  0  0  0  0  0  0  0  0  0  0
  147.9803  137.7197  154.3043 H   0  0  0  0  0  0  0  0  0  0  0  0
  149.0204  138.5405  153.1680 H   0  0  0  0  0  0  0  0  0  0  0  0
  149.5351  139.2548  155.4707 H   0  0  0  0  0  0  0  0  0  0  0  0
  147.8727  139.7162  155.7429 H   0  0  0  0  0  0  0  0  0  0  0  0
  1  2  2  0  0  0  0
  2  3  1  0  0  0  0
  2 10  1  0  0  0  0
  3  4  1  0  0  0  0
  3 25  1  0  0  0  0
  4  9  1  0  0  0  0
  4  5  2  0  0  0  0
  5  6  1  0  0  0  0
  5 26  1  0  0  0  0
  6  7  2  0  0  0  0
  6 27  1  0  0  0  0
  7  8  1  0  0  0  0
  7 28  1  0  0  0  0
  8  9  2  0  0  0  0
  8 29  1  0  0  0  0
 10 11  1  0  0  0  0
 10 30  1  0  0  0  0
 11 24  1  0  0  0  0
 11 12  1  0  0  0  0
 11 31  1  0  0  0  0
 12 13  1  0  0  0  0
 12 32  1  0  0  0  0
 12 33  1  0  0  0  0
 13 14  1  0  0  0  0
 13 34  1  0  0  0  0
 13 35  1  0  0  0  0
 14 15  1  0  0  0  0
 14 23  1  0  0  0  0
 14 36  1  0  0  0  0
 15 16  2  0  0  0  0
 15 17  1  0  0  0  0
 17 22  1  0  0  0  0
 17 18  1  0  0  0  0
 18 19  1  0  0  0  0
 18 37  1  0  0  0  0
 18 38  1  0  0  0  0
 19 20  1  0  0  0  0
 19 39  1  0  0  0  0
 19 40  1  0  0  0  0
 20 21  1  0  0  0  0
 21 22  1  0  0  0  0
 21 41  1  0  0  0  0
 21 42  1  0  0  0  0
 22 43  1  0  0  0  0
 22 44  1  0  0  0  0
 23 24  1  0  0  0  0
 23 45  1  0  0  0  0
 23 46  1  0  0  0  0
 24 47  1  0  0  0  0
 24 48  1  0  0  0  0
M  END
> <s_m_source_file>
AV-unprocessed.smi

> <i_m_source_file_index>
1096

> <i_lp_mmshare_version>
43012

> <i_f3d_flags>
0

> <s_epik_input>
bjFbY0hdW2NIXVtjSF1bY0hdYzFbTkhdQyg9TylbTkhdW0NAQEhdMltDSDJdW0NIMl1bQ0BIXShbQ0gyXVtDSDJdMilDKD1PKU4zW0NIMl1bQ0gyXVNbQ0gyXVtDSDJdMw==

> <s_epik_cmdline>
J2VwaWtfcHl0aG9uJywgJy1waCcsICc3LjAnLCAnLXRuJywgJzgnLCAnLW1hJywgJzIwMCcsICctbWV0YWxfYmluZGluZycsICctaW1hZScsICc8aW5maWxlLm1hZT4nLCAnLW9tYWUnLCAnPG91dGZpbGUubWFlPic=

> <r_lp_tautomer_probability>
1

> <r_epik_Ionization_Penalty>
5.08504e-05

> <r_epik_Ionization_Penalty_Charging>
0

> <r_epik_Ionization_Penalty_Neutral>
5.08504e-05

> <r_epik_State_Penalty>
-0

> <r_epik_Charging_Adjusted_Penalty>
0

> <i_epik_Tot_Q>
0

> <i_epik_Tot_abs_Q>
0

> <r_epik_Metal_State_Penalty>
-0

> <b_epik_Metal_Only>
0

> <s_lp_Force_Field>
OPLS_2005

> <r_lp_Energy>
29.3602

> <b_lp_Chiralities_Consistent>
1

> <s_lp_Variant>
AV-unprocessed.smi:1096-1

> <Gold.Version>
5.8.1

> <Gold.Id.Protein>
6NUR|6NUR_protein|mol2

> <Gold.PLP.Fitness>
51.4032

> <Gold.PLP.PLP>
-43.8036

> <Gold.PLP.part.hbond>
-3.0000

> <Gold.PLP.part.metal>
0.0000

> <Gold.PLP.part.buried>
-2.9372

> <Gold.PLP.part.nonpolar>
-38.7795

> <Gold.PLP.part.repulsive>
0.7725

> <Gold.PLP.ligand.clash>
0.0000

> <Gold.PLP.ligand.torsion>
0.6978

> <Gold.PLP.Chemscore.Hbond>
2.9760

> <Gold.PLP.Chemscore.CHOScore>
0.0000

> <Gold.PLP.Chemscore.Metal>
0.0000

> <Gold.Chemscore.Hbonds>
donor molecule, donor type, donor heavy atom, donor atom, acceptor molecule, acceptor atom, score
      L1  H     3    25       P1  8028  0.93
      L1  H    10    30       P1  8028  0.98
      P1  H  7954  7966       L1    16  0.99

> <Gold.PLP.Chemscore.Internal.Correction>
0.0671

> <Gold.Rescore>
     Score         DG    S(hbond)    S(metal)    S(lipo)     H(rot)  DE(clash)    DE(int)     intcor
     18.53     -23.55       2.88        0.00      99.70       1.26       1.75       3.27       ----

> <Gold.Chemscore.Fitness>
18.5273

> <Gold.Chemscore.DG>
-23.5482

> <Gold.Chemscore.ZeroCoef>
-5.4800

> <Gold.Chemscore.Hbond>
2.8811

> <Gold.Chemscore.Metal>
0.0000

> <Gold.Chemscore.Lipo>
99.7032

> <Gold.Chemscore.Internal_Hbond>
0.0000

> <Gold.Chemscore.DEClash>
1.7463

> <Gold.Chemscore.DEInternal>
3.2746

> <Gold.Chemscore.Rot>
1.2578

> <Gold.Chemscore.Internal.Correction>
   9.000000E+99

> <Gold.Chemscore.Hbonds>
donor molecule, donor type, donor heavy atom, donor atom, acceptor molecule, acceptor atom, score
      L1  H     3    25       P1  8028  0.84
      L1  H    10    30       P1  8028  0.93
      P1  H  7954  7966       L1    16  0.94

> <Gold.Chemscore.Hbond.Weighted>
-9.6230

> <Gold.Chemscore.Metal.Weighted>
-0.0000

> <Gold.Chemscore.Lipo.Weighted>
-11.6653

> <Gold.Chemscore.Internal_Hbond.Weighted>
0.0000

> <Gold.Chemscore.DEClash.Weighted>
1.7463

> <Gold.Chemscore.DEInternal.Weighted>
3.2746

> <Gold.Chemscore.Rot.Weighted>
3.2200

> <Gold.Chemscore.Internal.Correction.Weighted>
   9.000000E+99

> <Gold.Protein.RotatedTorsions>
[ 6907 6896 6895 6894 ] final   39.01 input  -60.11 | X-H torsion
[ 7974 7965 7964 7962 ] final  -11.91 input  175.53 | X-H torsion
[ 8008 7997 7996 7995 ] final -112.60 input   59.86 | X-H torsion
[ 10167 10162 10161 10158 ] final  -80.96 input  -65.29 | X-H torsion
[ 10718 10713 10712 10709 ] final  -69.34 input   66.30 | X-H torsion
[ 10763 10752 10751 10750 ] final   79.81 input  -60.55 | X-H torsion
[ 11005 11000 10999 10996 ] final   -4.60 input  -57.11 | X-H torsion

> <Gold.Protein.ActiveResidues>
 VAL166  LYS551  ARG553  GLY616  TRP617  ASP618  TYR619  PRO620  LYS621  CYS622 
 ASP623  PHE694  ASN695  SER759  ASP760  ASP761  ALA762  ILE779  LEU786  VAL792 
 PHE793  MET794  SER795  GLU796  ALA797  LYS798  CYS799  TRP800  GLU811  SER814 

> <Gold.Protein.RotatedAtoms>
  152.1639  134.8889  160.0539 H   0  0  0  0  0  0  0  0  0  0  0  0  # atno 6907 bound_to 6896
  151.9875  133.3774  159.4139 H   0  0  0  0  0  0  0  0  0  0  0  0  # atno 6908 bound_to 6896
  150.6892  134.3895  159.5114 H   0  0  0  0  0  0  0  0  0  0  0  0  # atno 6909 bound_to 6896
  146.2171  140.2981  142.8373 H   0  0  0  0  0  0  0  0  0  0  0  0  # atno 7974 bound_to 7965
  155.0077  140.0394  157.2386 H   0  0  0  0  0  0  0  0  0  0  0  0  # atno 8008 bound_to 7997
  154.7488  140.2763  155.6287 H   0  0  0  0  0  0  0  0  0  0  0  0  # atno 8009 bound_to 7997
  156.2880  140.2651  156.2235 H   0  0  0  0  0  0  0  0  0  0  0  0  # atno 8010 bound_to 7997
  140.4456  143.2500  151.8563 H   0  0  0  0  0  0  0  0  0  0  0  0  # atno 10167 bound_to 10162
  156.0460  130.4311  150.2134 H   0  0  0  0  0  0  0  0  0  0  0  0  # atno 10718 bound_to 10713
  153.0983  135.4826  154.8819 H   0  0  0  0  0  0  0  0  0  0  0  0  # atno 10763 bound_to 10752
  154.7349  135.3069  154.8830 H   0  0  0  0  0  0  0  0  0  0  0  0  # atno 10764 bound_to 10752
  153.9455  135.6829  153.4797 H   0  0  0  0  0  0  0  0  0  0  0  0  # atno 10765 bound_to 10752
  140.6820  133.9145  155.8561 H   0  0  0  0  0  0  0  0  0  0  0  0  # atno 11005 bound_to 11000
  144.9078  140.7720  143.5827 LP  0  0  0  0  0  0  0  0  0  0  0  0  # atno 17320 bound_to 7965
  145.2910  139.1884  143.4740 LP  0  0  0  0  0  0  0  0  0  0  0  0  # atno 17321 bound_to 7965
  139.4792  144.5179  151.8842 LP  0  0  0  0  0  0  0  0  0  0  0  0  # atno 17342 bound_to 10162
  140.4268  144.2170  150.5887 LP  0  0  0  0  0  0  0  0  0  0  0  0  # atno 17343 bound_to 10162
  157.0223  130.9983  151.3336 LP  0  0  0  0  0  0  0  0  0  0  0  0  # atno 17370 bound_to 10713
  157.5335  130.8074  149.7945 LP  0  0  0  0  0  0  0  0  0  0  0  0  # atno 17371 bound_to 10713
  141.0310  134.0756  157.4014 LP  0  0  0  0  0  0  0  0  0  0  0  0  # atno 17394 bound_to 11000
  139.8949  135.0138  156.6974 LP  0  0  0  0  0  0  0  0  0  0  0  0  # atno 17395 bound_to 11000

$$$$
