AV-unprocessed.smi:718|AV-procd|sdf|3491|dock1
  -GOLD-   22720 0483D 1   1.00000     0.00000
 Structure written by MMmdl.
 27 28  0  0  0  0  0  0  0  0  1 V2000
  151.1763  140.4665  155.2943 O   0  0  0  0  0  0  0  0  0  0  0  0
  151.4398  139.7203  156.2380 C   0  0  0  0  0  0  0  0  0  0  0  0
  151.6843  140.1437  157.4933 N   0  0  0  0  0  0  0  0  0  0  0  0
  151.6687  141.4710  157.9973 C   0  0  0  0  0  0  0  0  0  0  0  0
  152.2500  141.6322  159.2749 C   0  0  0  0  0  0  0  0  0  0  0  0
  152.2850  142.9104  159.8662 C   0  0  0  0  0  0  0  0  0  0  0  0
  152.9939  143.1176  161.4280 Cl  0  0  0  0  0  0  0  0  0  0  0  0
  151.7350  143.9990  159.1598 C   0  0  0  0  0  0  0  0  0  0  0  0
  151.7369  145.5984  159.8122 Cl  0  0  0  0  0  0  0  0  0  0  0  0
  151.1760  143.7502  157.8926 C   0  0  0  0  0  0  0  0  0  0  0  0
  151.1423  142.5256  157.3261 N   0  0  0  0  0  0  0  0  0  0  0  0
  151.5343  138.2033  156.0126 C   0  0  2  0  0  0  0  0  0  0  0  0
  151.3685  137.8051  154.5274 C   0  0  0  0  0  0  0  0  0  0  0  0
  151.4310  136.3897  154.4094 O   0  0  0  0  0  0  0  0  0  0  0  0
  150.4079  135.7603  155.1678 C   0  0  0  0  0  0  0  0  0  0  0  0
  150.5776  136.1428  156.6469 C   0  0  0  0  0  0  0  0  0  0  0  0
  150.5121  137.5573  156.7691 O   0  0  0  0  0  0  0  0  0  0  0  0
  151.8945  139.4231  158.1684 H   0  0  0  0  0  0  0  0  0  0  0  0
  152.6666  140.7852  159.8007 H   0  0  0  0  0  0  0  0  0  0  0  0
  150.7439  144.5547  157.3158 H   0  0  0  0  0  0  0  0  0  0  0  0
  152.5106  137.8767  156.3751 H   0  0  0  0  0  0  0  0  0  0  0  0
  150.4239  138.1719  154.1220 H   0  0  0  0  0  0  0  0  0  0  0  0
  152.1668  138.2332  153.9203 H   0  0  0  0  0  0  0  0  0  0  0  0
  149.4254  136.0578  154.7982 H   0  0  0  0  0  0  0  0  0  0  0  0
  150.4853  134.6803  155.0435 H   0  0  0  0  0  0  0  0  0  0  0  0
  149.7845  135.6964  157.2470 H   0  0  0  0  0  0  0  0  0  0  0  0
  151.5262  135.7732  157.0396 H   0  0  0  0  0  0  0  0  0  0  0  0
  1  2  2  0  0  0  0
  2  3  1  0  0  0  0
  2 12  1  0  0  0  0
  3  4  1  0  0  0  0
  3 18  1  0  0  0  0
  4 11  1  0  0  0  0
  4  5  2  0  0  0  0
  5  6  1  0  0  0  0
  5 19  1  0  0  0  0
  6  7  1  0  0  0  0
  6  8  2  0  0  0  0
  8  9  1  0  0  0  0
  8 10  1  0  0  0  0
 10 11  2  0  0  0  0
 10 20  1  0  0  0  0
 12 17  1  0  0  0  0
 12 13  1  0  0  0  0
 12 21  1  0  0  0  0
 13 14  1  0  0  0  0
 13 22  1  0  0  0  0
 13 23  1  0  0  0  0
 14 15  1  0  0  0  0
 15 16  1  0  0  0  0
 15 24  1  0  0  0  0
 15 25  1  0  0  0  0
 16 17  1  0  0  0  0
 16 26  1  0  0  0  0
 16 27  1  0  0  0  0
M  END
> <s_m_source_file>
AV-unprocessed.smi

> <i_m_source_file_index>
718

> <i_lp_mmshare_version>
43012

> <i_f3d_flags>
0

> <s_epik_input>
TzFbQ0gyXVtDSDJdT1tDSDJdW0NASF0xQyg9TylbTkhdYzJbY0hdYyhDbCljKENsKVtjSF1uMg==

> <s_epik_cmdline>
J2VwaWtfcHl0aG9uJywgJy1waCcsICc3LjAnLCAnLXRuJywgJzgnLCAnLW1hJywgJzIwMCcsICctbWV0YWxfYmluZGluZycsICctaW1hZScsICc8aW5maWxlLm1hZT4nLCAnLW9tYWUnLCAnPG91dGZpbGUubWFlPic=

> <r_lp_tautomer_probability>
1

> <r_epik_Ionization_Penalty>
4.81693e-06

> <r_epik_Ionization_Penalty_Charging>
0

> <r_epik_Ionization_Penalty_Neutral>
4.81693e-06

> <r_epik_State_Penalty>
-0

> <r_epik_Charging_Adjusted_Penalty>
0

> <i_epik_Tot_Q>
0

> <i_epik_Tot_abs_Q>
0

> <r_epik_Metal_State_Penalty>
-0

> <b_epik_Metal_Only>
0

> <s_lp_Force_Field>
OPLS_2005

> <r_lp_Energy>
11.6855

> <b_lp_Chiralities_Consistent>
1

> <s_lp_Variant>
AV-unprocessed.smi:718-1

> <Gold.Version>
5.8.1

> <Gold.Id.Protein>
6NUR|6NUR_protein|mol2

> <Gold.PLP.Fitness>
43.0963

> <Gold.PLP.PLP>
-34.4660

> <Gold.PLP.part.hbond>
-2.0000

> <Gold.PLP.part.metal>
0.0000

> <Gold.PLP.part.buried>
-5.4484

> <Gold.PLP.part.nonpolar>
-28.8991

> <Gold.PLP.part.repulsive>
1.4411

> <Gold.PLP.ligand.clash>
0.0000

> <Gold.PLP.ligand.torsion>
0.0777

> <Gold.PLP.Chemscore.Hbond>
1.9280

> <Gold.PLP.Chemscore.CHOScore>
1.0000

> <Gold.PLP.Chemscore.Metal>
0.0000

> <Gold.Chemscore.Hbonds>
donor molecule, donor type, donor heavy atom, donor atom, acceptor molecule, acceptor atom, score
      P1  H  7989  7998       L1     1  0.96
      P1  H 10752 10763       L1    14  1.00
      L1  C    10    20       P1  8028  1.00

> <Gold.PLP.Chemscore.Internal.Correction>
0.0018

> <Gold.Rescore>
     Score         DG    S(hbond)    S(metal)    S(lipo)     H(rot)  DE(clash)    DE(int)     intcor
     17.77     -19.33       1.83        0.00      87.92       1.00       0.08       1.49       ----

> <Gold.Chemscore.Fitness>
17.7688

> <Gold.Chemscore.DG>
-19.3319

> <Gold.Chemscore.ZeroCoef>
-5.4800

> <Gold.Chemscore.Hbond>
1.8340

> <Gold.Chemscore.Metal>
0.0000

> <Gold.Chemscore.Lipo>
87.9172

> <Gold.Chemscore.Internal_Hbond>
0.0000

> <Gold.Chemscore.DEClash>
0.0754

> <Gold.Chemscore.DEInternal>
1.4877

> <Gold.Chemscore.Rot>
1.0000

> <Gold.Chemscore.Internal.Correction>
   9.000000E+99

> <Gold.Chemscore.Hbonds>
donor molecule, donor type, donor heavy atom, donor atom, acceptor molecule, acceptor atom, score
      P1  H  7989  7998       L1     1  0.92
      P1  H 10752 10763       L1    14  0.89

> <Gold.Chemscore.Hbond.Weighted>
-6.1256

> <Gold.Chemscore.Metal.Weighted>
-0.0000

> <Gold.Chemscore.Lipo.Weighted>
-10.2863

> <Gold.Chemscore.Internal_Hbond.Weighted>
0.0000

> <Gold.Chemscore.DEClash.Weighted>
0.0754

> <Gold.Chemscore.DEInternal.Weighted>
1.4877

> <Gold.Chemscore.Rot.Weighted>
2.5600

> <Gold.Chemscore.Internal.Correction.Weighted>
   9.000000E+99

> <Gold.Protein.RotatedTorsions>
[ 6907 6896 6895 6894 ] final -106.28 input  -60.11 | X-H torsion
[ 7974 7965 7964 7962 ] final   11.69 input  175.53 | X-H torsion
[ 8008 7997 7996 7995 ] final  100.32 input   59.86 | X-H torsion
[ 10167 10162 10161 10158 ] final   25.27 input  -65.29 | X-H torsion
[ 10718 10713 10712 10709 ] final   78.60 input   66.30 | X-H torsion
[ 10763 10752 10751 10750 ] final   50.97 input  -60.55 | X-H torsion
[ 11005 11000 10999 10996 ] final  -70.65 input  -57.11 | X-H torsion

> <Gold.Protein.ActiveResidues>
 VAL166  LYS551  ARG553  GLY616  TRP617  ASP618  TYR619  PRO620  LYS621  CYS622 
 ASP623  PHE694  ASN695  SER759  ASP760  ASP761  ALA762  ILE779  LEU786  VAL792 
 PHE793  MET794  SER795  GLU796  ALA797  LYS798  CYS799  TRP800  GLU811  SER814 

> <Gold.Protein.RotatedAtoms>
  150.7381  133.9999  159.3634 H   0  0  0  0  0  0  0  0  0  0  0  0  # atno 6907 bound_to 6896
  151.7953  135.0722  160.0402 H   0  0  0  0  0  0  0  0  0  0  0  0  # atno 6908 bound_to 6896
  152.3179  133.5786  159.5761 H   0  0  0  0  0  0  0  0  0  0  0  0  # atno 6909 bound_to 6896
  146.2366  139.9448  142.8478 H   0  0  0  0  0  0  0  0  0  0  0  0  # atno 7974 bound_to 7965
  156.1191  140.3215  155.8182 H   0  0  0  0  0  0  0  0  0  0  0  0  # atno 8008 bound_to 7997
  155.4536  140.0534  157.3015 H   0  0  0  0  0  0  0  0  0  0  0  0  # atno 8009 bound_to 7997
  154.4814  140.2055  155.9768 H   0  0  0  0  0  0  0  0  0  0  0  0  # atno 8010 bound_to 7997
  140.5120  144.0145  150.6377 H   0  0  0  0  0  0  0  0  0  0  0  0  # atno 10167 bound_to 10162
  157.6750  130.9875  150.1810 H   0  0  0  0  0  0  0  0  0  0  0  0  # atno 10718 bound_to 10713
  152.9785  135.5861  154.4339 H   0  0  0  0  0  0  0  0  0  0  0  0  # atno 10763 bound_to 10752
  154.3949  135.2768  155.2134 H   0  0  0  0  0  0  0  0  0  0  0  0  # atno 10764 bound_to 10752
  154.3990  135.6108  153.5941 H   0  0  0  0  0  0  0  0  0  0  0  0  # atno 10765 bound_to 10752
  141.1578  133.6796  156.6786 H   0  0  0  0  0  0  0  0  0  0  0  0  # atno 11005 bound_to 11000
  145.1918  140.9815  143.4207 LP  0  0  0  0  0  0  0  0  0  0  0  0  # atno 17320 bound_to 7965
  144.9851  139.3745  143.6243 LP  0  0  0  0  0  0  0  0  0  0  0  0  # atno 17321 bound_to 7965
  140.3470  143.2985  152.0527 LP  0  0  0  0  0  0  0  0  0  0  0  0  # atno 17342 bound_to 10162
  139.4898  144.6401  151.6894 LP  0  0  0  0  0  0  0  0  0  0  0  0  # atno 17343 bound_to 10162
  156.2542  130.3704  149.8199 LP  0  0  0  0  0  0  0  0  0  0  0  0  # atno 17370 bound_to 10713
  156.5963  130.8528  151.3421 LP  0  0  0  0  0  0  0  0  0  0  0  0  # atno 17371 bound_to 10713
  140.3120  134.8078  157.4184 LP  0  0  0  0  0  0  0  0  0  0  0  0  # atno 17394 bound_to 11000
  140.1170  134.5269  155.8216 LP  0  0  0  0  0  0  0  0  0  0  0  0  # atno 17395 bound_to 11000

$$$$
