AV-unprocessed.smi:1466|AV-procd|sdf|5954|dock3
  -GOLD-   22720 6 43D 1   1.00000     0.00000
 Structure written by MMmdl.
 48 49  0  0  0  0  0  0  0  0  1 V2000
  147.4543  127.8469  153.3083 C   0  0  0  0  0  0  0  0  0  0  0  0
  146.8338  129.0675  152.8085 N   0  0  0  0  0  0  0  0  0  0  0  0
  145.5852  128.9940  152.0566 C   0  0  0  0  0  0  0  0  0  0  0  0
  147.4189  130.3258  153.0792 C   0  0  0  0  0  0  0  0  0  0  0  0
  148.5544  130.4493  153.9177 C   0  0  0  0  0  0  0  0  0  0  0  0
  149.1019  131.7247  154.1573 C   0  0  0  0  0  0  0  0  0  0  0  0
  148.4983  132.8542  153.5584 C   0  0  0  0  0  0  0  0  0  0  0  0
  148.9640  134.1892  153.7028 N   0  0  0  0  0  0  0  0  0  0  0  0
  149.6482  134.7365  154.7220 C   0  0  0  0  0  0  0  0  0  0  0  0
  149.9730  134.1557  155.7573 O   0  0  0  0  0  0  0  0  0  0  0  0
  149.9238  136.0261  154.4803 N   0  0  0  0  0  0  0  0  0  0  0  0
  150.6417  136.9128  155.3880 C   0  0  0  0  0  0  0  0  0  0  0  0
  151.3623  138.0393  154.6244 C   0  0  0  0  0  0  0  0  0  0  0  0
  150.8729  139.3618  155.0304 N   0  0  0  0  0  0  0  0  0  0  0  0
  149.5845  139.7794  154.4550 C   0  0  0  0  0  0  0  0  0  0  0  0
  148.4255  139.8088  155.4780 C   0  0  0  0  0  0  0  0  0  0  0  0
  148.8120  140.1296  156.9354 C   0  0  0  0  0  0  0  0  0  0  0  0
  149.6595  141.4057  157.1218 C   0  0  0  0  0  0  0  0  0  0  0  0
  150.9620  141.5004  156.2911 C   0  0  0  0  0  0  0  0  0  0  0  0
  151.5655  140.1426  155.8957 C   0  0  0  0  0  0  0  0  0  0  0  0
  152.6500  139.8131  156.3763 O   0  0  0  0  0  0  0  0  0  0  0  0
  147.3811  132.6319  152.7305 C   0  0  0  0  0  0  0  0  0  0  0  0
  146.8532  131.4124  152.4991 N   0  0  0  0  0  0  0  0  0  0  0  0
  147.5225  127.8691  154.3963 H   0  0  0  0  0  0  0  0  0  0  0  0
  148.4576  127.7301  152.8970 H   0  0  0  0  0  0  0  0  0  0  0  0
  146.8772  126.9651  153.0298 H   0  0  0  0  0  0  0  0  0  0  0  0
  144.7930  129.5352  152.5749 H   0  0  0  0  0  0  0  0  0  0  0  0
  145.2567  127.9625  151.9299 H   0  0  0  0  0  0  0  0  0  0  0  0
  145.7102  129.4280  151.0640 H   0  0  0  0  0  0  0  0  0  0  0  0
  149.0209  129.5922  154.3788 H   0  0  0  0  0  0  0  0  0  0  0  0
  149.9781  131.8041  154.7809 H   0  0  0  0  0  0  0  0  0  0  0  0
  148.7035  134.8183  152.9574 H   0  0  0  0  0  0  0  0  0  0  0  0
  149.6153  136.4233  153.6049 H   0  0  0  0  0  0  0  0  0  0  0  0
  149.9556  137.3217  156.1317 H   0  0  0  0  0  0  0  0  0  0  0  0
  151.3691  136.3126  155.9352 H   0  0  0  0  0  0  0  0  0  0  0  0
  152.4385  137.9702  154.7889 H   0  0  0  0  0  0  0  0  0  0  0  0
  151.2308  137.9101  153.5484 H   0  0  0  0  0  0  0  0  0  0  0  0
  149.6991  140.7638  154.0012 H   0  0  0  0  0  0  0  0  0  0  0  0
  149.3061  139.1385  153.6175 H   0  0  0  0  0  0  0  0  0  0  0  0
  147.6718  140.5181  155.1346 H   0  0  0  0  0  0  0  0  0  0  0  0
  147.9350  138.8349  155.4731 H   0  0  0  0  0  0  0  0  0  0  0  0
  147.9010  140.2234  157.5271 H   0  0  0  0  0  0  0  0  0  0  0  0
  149.3401  139.2771  157.3653 H   0  0  0  0  0  0  0  0  0  0  0  0
  149.0420  142.2759  156.8967 H   0  0  0  0  0  0  0  0  0  0  0  0
  149.9121  141.4938  158.1790 H   0  0  0  0  0  0  0  0  0  0  0  0
  150.7880  142.0853  155.3881 H   0  0  0  0  0  0  0  0  0  0  0  0
  151.7029  142.0713  156.8524 H   0  0  0  0  0  0  0  0  0  0  0  0
  146.8903  133.4588  152.2382 H   0  0  0  0  0  0  0  0  0  0  0  0
  1  2  1  0  0  0  0
  1 24  1  0  0  0  0
  1 25  1  0  0  0  0
  1 26  1  0  0  0  0
  2  3  1  0  0  0  0
  2  4  1  0  0  0  0
  3 27  1  0  0  0  0
  3 28  1  0  0  0  0
  3 29  1  0  0  0  0
  4 23  1  0  0  0  0
  4  5  2  0  0  0  0
  5  6  1  0  0  0  0
  5 30  1  0  0  0  0
  6  7  2  0  0  0  0
  6 31  1  0  0  0  0
  7  8  1  0  0  0  0
  7 22  1  0  0  0  0
  8  9  1  0  0  0  0
  8 32  1  0  0  0  0
  9 10  2  0  0  0  0
  9 11  1  0  0  0  0
 11 12  1  0  0  0  0
 11 33  1  0  0  0  0
 12 13  1  0  0  0  0
 12 34  1  0  0  0  0
 12 35  1  0  0  0  0
 13 14  1  0  0  0  0
 13 36  1  0  0  0  0
 13 37  1  0  0  0  0
 14 20  1  0  0  0  0
 14 15  1  0  0  0  0
 15 16  1  0  0  0  0
 15 38  1  0  0  0  0
 15 39  1  0  0  0  0
 16 17  1  0  0  0  0
 16 40  1  0  0  0  0
 16 41  1  0  0  0  0
 17 18  1  0  0  0  0
 17 42  1  0  0  0  0
 17 43  1  0  0  0  0
 18 19  1  0  0  0  0
 18 44  1  0  0  0  0
 18 45  1  0  0  0  0
 19 20  1  0  0  0  0
 19 46  1  0  0  0  0
 19 47  1  0  0  0  0
 20 21  2  0  0  0  0
 22 23  2  0  0  0  0
 22 48  1  0  0  0  0
M  END
> <s_m_source_file>
AV-unprocessed.smi

> <i_m_source_file_index>
1466

> <i_lp_mmshare_version>
43012

> <i_f3d_flags>
0

> <s_epik_input>
W0NIM11OKFtDSDNdKWMxW2NIXVtjSF1jKFtjSF1uMSlbTkhdQyg9TylbTkhdW0NIMl1bQ0gyXU4yW0NIMl1bQ0gyXVtDSDJdW0NIMl1bQ0gyXUMyPU8=

> <s_epik_cmdline>
J2VwaWtfcHl0aG9uJywgJy1waCcsICc3LjAnLCAnLXRuJywgJzgnLCAnLW1hJywgJzIwMCcsICctbWV0YWxfYmluZGluZycsICctaW1hZScsICc8aW5maWxlLm1hZT4nLCAnLW9tYWUnLCAnPG91dGZpbGUubWFlPic=

> <r_lp_tautomer_probability>
1

> <r_epik_Ionization_Penalty>
0.597116

> <r_epik_Ionization_Penalty_Charging>
0

> <r_epik_Ionization_Penalty_Neutral>
0.597116

> <r_epik_State_Penalty>
0.610079

> <r_epik_Charging_Adjusted_Penalty>
0.610079

> <i_epik_Tot_Q>
0

> <i_epik_Tot_abs_Q>
0

> <r_epik_Metal_State_Penalty>
0.299962

> <b_epik_Metal_Only>
0

> <s_lp_Force_Field>
OPLS_2005

> <r_lp_Energy>
26.5805

> <b_lp_Chiralities_Consistent>
1

> <s_lp_Variant>
AV-unprocessed.smi:1466-2

> <Gold.Version>
5.8.1

> <Gold.Id.Protein>
6NUR|6NUR_protein|mol2

> <Gold.PLP.Fitness>
48.5914

> <Gold.PLP.PLP>
-41.5326

> <Gold.PLP.part.hbond>
-3.4273

> <Gold.PLP.part.metal>
0.0000

> <Gold.PLP.part.buried>
-2.5508

> <Gold.PLP.part.nonpolar>
-35.0741

> <Gold.PLP.part.repulsive>
0.3302

> <Gold.PLP.ligand.clash>
0.0000

> <Gold.PLP.ligand.torsion>
0.9813

> <Gold.PLP.Chemscore.Hbond>
3.0000

> <Gold.PLP.Chemscore.CHOScore>
0.0000

> <Gold.PLP.Chemscore.Metal>
0.0000

> <Gold.Chemscore.Hbonds>
donor molecule, donor type, donor heavy atom, donor atom, acceptor molecule, acceptor atom, score
      L1  H     8    32       P1  7948  1.00
      L1  H    11    33       P1  7948  1.00
      P1  H  7997  8009       L1    21  1.00

> <Gold.PLP.Chemscore.Internal.Correction>
0.0214

> <Gold.Rescore>
     Score         DG    S(hbond)    S(metal)    S(lipo)     H(rot)  DE(clash)    DE(int)     intcor
     16.50     -18.35       2.53        0.00      70.26       1.48       0.02       1.82       ----

> <Gold.Chemscore.Fitness>
16.5004

> <Gold.Chemscore.DG>
-18.3453

> <Gold.Chemscore.ZeroCoef>
-5.4800

> <Gold.Chemscore.Hbond>
2.5257

> <Gold.Chemscore.Metal>
0.0000

> <Gold.Chemscore.Lipo>
70.2619

> <Gold.Chemscore.Internal_Hbond>
0.0000

> <Gold.Chemscore.DEClash>
0.0207

> <Gold.Chemscore.DEInternal>
1.8242

> <Gold.Chemscore.Rot>
1.4810

> <Gold.Chemscore.Internal.Correction>
   9.000000E+99

> <Gold.Chemscore.Hbonds>
donor molecule, donor type, donor heavy atom, donor atom, acceptor molecule, acceptor atom, score
      L1  H     8    32       P1  7948  0.25
      L1  H    11    33       P1  7948  0.53
      P1  H  7997  8009       L1    21  0.98

> <Gold.Chemscore.Hbond.Weighted>
-8.4359

> <Gold.Chemscore.Metal.Weighted>
-0.0000

> <Gold.Chemscore.Lipo.Weighted>
-8.2206

> <Gold.Chemscore.Internal_Hbond.Weighted>
0.0000

> <Gold.Chemscore.DEClash.Weighted>
0.0207

> <Gold.Chemscore.DEInternal.Weighted>
1.8242

> <Gold.Chemscore.Rot.Weighted>
3.7912

> <Gold.Chemscore.Internal.Correction.Weighted>
   9.000000E+99

> <Gold.Protein.RotatedTorsions>
[ 6907 6896 6895 6894 ] final   -9.00 input  -60.11 | X-H torsion
[ 7974 7965 7964 7962 ] final  120.88 input  175.53 | X-H torsion
[ 8008 7997 7996 7995 ] final  179.42 input   59.86 | X-H torsion
[ 10167 10162 10161 10158 ] final -158.27 input  -65.29 | X-H torsion
[ 10718 10713 10712 10709 ] final  -55.03 input   66.30 | X-H torsion
[ 10763 10752 10751 10750 ] final   -8.70 input  -60.55 | X-H torsion
[ 11005 11000 10999 10996 ] final   67.87 input  -57.11 | X-H torsion

> <Gold.Protein.ActiveResidues>
 VAL166  LYS551  ARG553  GLY616  TRP617  ASP618  TYR619  PRO620  LYS621  CYS622 
 ASP623  PHE694  ASN695  SER759  ASP760  ASP761  ALA762  ILE779  LEU786  VAL792 
 PHE793  MET794  SER795  GLU796  ALA797  LYS798  CYS799  TRP800  GLU811  SER814 

> <Gold.Protein.RotatedAtoms>
  151.4247  135.1002  159.9623 H   0  0  0  0  0  0  0  0  0  0  0  0  # atno 6907 bound_to 6896
  152.4977  133.8674  159.7291 H   0  0  0  0  0  0  0  0  0  0  0  0  # atno 6908 bound_to 6896
  150.9198  133.6836  159.2862 H   0  0  0  0  0  0  0  0  0  0  0  0  # atno 6909 bound_to 6896
  145.1259  139.3359  143.4690 H   0  0  0  0  0  0  0  0  0  0  0  0  # atno 7974 bound_to 7965
  156.0436  140.1309  157.0129 H   0  0  0  0  0  0  0  0  0  0  0  0  # atno 8008 bound_to 7997
  154.4402  140.1025  156.6343 H   0  0  0  0  0  0  0  0  0  0  0  0  # atno 8009 bound_to 7997
  155.5630  140.3465  155.4498 H   0  0  0  0  0  0  0  0  0  0  0  0  # atno 8010 bound_to 7997
  139.6705  143.9753  152.2281 H   0  0  0  0  0  0  0  0  0  0  0  0  # atno 10167 bound_to 10162
  156.1402  130.4155  150.0117 H   0  0  0  0  0  0  0  0  0  0  0  0  # atno 10718 bound_to 10713
  153.4443  135.7014  153.6149 H   0  0  0  0  0  0  0  0  0  0  0  0  # atno 10763 bound_to 10752
  153.4511  135.3758  155.2284 H   0  0  0  0  0  0  0  0  0  0  0  0  # atno 10764 bound_to 10752
  154.8728  135.3997  154.3846 H   0  0  0  0  0  0  0  0  0  0  0  0  # atno 10765 bound_to 10752
  139.9745  134.6845  156.0381 H   0  0  0  0  0  0  0  0  0  0  0  0  # atno 11005 bound_to 11000
  146.3517  140.1237  142.8599 LP  0  0  0  0  0  0  0  0  0  0  0  0  # atno 17320 bound_to 7965
  145.0689  140.9141  143.4894 LP  0  0  0  0  0  0  0  0  0  0  0  0  # atno 17321 bound_to 7965
  139.9516  144.6616  150.8166 LP  0  0  0  0  0  0  0  0  0  0  0  0  # atno 17342 bound_to 10162
  140.7616  143.3178  151.2691 LP  0  0  0  0  0  0  0  0  0  0  0  0  # atno 17343 bound_to 10162
  156.8005  130.9288  151.3646 LP  0  0  0  0  0  0  0  0  0  0  0  0  # atno 17370 bound_to 10713
  157.6568  130.8931  149.9746 LP  0  0  0  0  0  0  0  0  0  0  0  0  # atno 17371 bound_to 10713
  141.1423  133.6562  156.3765 LP  0  0  0  0  0  0  0  0  0  0  0  0  # atno 17394 bound_to 11000
  140.5224  134.6291  157.5322 LP  0  0  0  0  0  0  0  0  0  0  0  0  # atno 17395 bound_to 11000

$$$$
