AV-unprocessed.smi:2139|AV-procd|sdf|8712|dock3
  -GOLD-   2272011473D 1   1.00000     0.00000
 Structure written by MMmdl.
 40 41  0  0  0  0  0  0  0  0  1 V2000
  152.7742  143.0399  160.3358 C   0  0  0  0  0  0  0  0  0  0  0  0
  151.7094  142.5878  159.3259 C   0  0  0  0  0  0  0  0  0  0  0  0
  151.5448  143.5446  158.1301 C   0  0  2  0  0  0  0  0  0  0  0  0
  150.9909  144.9097  158.5683 C   0  0  0  0  0  0  0  0  0  0  0  0
  150.6659  142.9516  157.1252 N   0  0  0  0  0  0  0  0  0  0  0  0
  150.7082  141.6746  156.7117 C   0  0  0  0  0  0  0  0  0  0  0  0
  151.5098  140.8454  157.1431 O   0  0  0  0  0  0  0  0  0  0  0  0
  149.7241  141.3234  155.6266 C   0  0  0  0  0  0  0  0  0  0  0  0
  148.8141  142.3063  155.1727 C   0  0  0  0  0  0  0  0  0  0  0  0
  147.8618  141.9726  154.1937 C   0  0  0  0  0  0  0  0  0  0  0  0
  147.8460  140.6558  153.7037 C   0  0  0  0  0  0  0  0  0  0  0  0
  148.7027  139.7036  154.1238 N   0  0  0  0  0  0  0  0  0  0  0  0
  149.6289  140.0151  155.0647 C   0  0  0  0  0  0  0  0  0  0  0  0
  150.5252  138.9894  155.4282 N   0  0  0  0  0  0  0  0  0  0  0  0
  151.8916  139.2050  154.9685 C   0  0  0  0  0  0  0  0  0  0  0  0
  152.8369  138.2077  155.6589 C   0  0  0  0  0  0  0  0  0  0  0  0
  152.3852  136.8771  155.4211 O   0  0  0  0  0  0  0  0  0  0  0  0
  151.0759  136.6538  155.9385 C   0  0  0  0  0  0  0  0  0  0  0  0
  150.0804  137.6099  155.2590 C   0  0  0  0  0  0  0  0  0  0  0  0
  152.8144  142.3580  161.1854 H   0  0  0  0  0  0  0  0  0  0  0  0
  152.5536  144.0360  160.7204 H   0  0  0  0  0  0  0  0  0  0  0  0
  153.7679  143.0653  159.8879 H   0  0  0  0  0  0  0  0  0  0  0  0
  151.9538  141.5866  158.9687 H   0  0  0  0  0  0  0  0  0  0  0  0
  150.7545  142.4986  159.8452 H   0  0  0  0  0  0  0  0  0  0  0  0
  152.5328  143.7029  157.6934 H   0  0  0  0  0  0  0  0  0  0  0  0
  151.6451  145.3802  159.3027 H   0  0  0  0  0  0  0  0  0  0  0  0
  150.0023  144.8113  159.0178 H   0  0  0  0  0  0  0  0  0  0  0  0
  150.9053  145.5924  157.7220 H   0  0  0  0  0  0  0  0  0  0  0  0
  149.9826  143.5628  156.7022 H   0  0  0  0  0  0  0  0  0  0  0  0
  148.8317  143.3091  155.5751 H   0  0  0  0  0  0  0  0  0  0  0  0
  147.1559  142.7060  153.8330 H   0  0  0  0  0  0  0  0  0  0  0  0
  147.1277  140.3589  152.9538 H   0  0  0  0  0  0  0  0  0  0  0  0
  151.9296  139.0691  153.8869 H   0  0  0  0  0  0  0  0  0  0  0  0
  152.2161  140.2256  155.1722 H   0  0  0  0  0  0  0  0  0  0  0  0
  153.8483  138.3161  155.2679 H   0  0  0  0  0  0  0  0  0  0  0  0
  152.8869  138.4010  156.7320 H   0  0  0  0  0  0  0  0  0  0  0  0
  150.7910  135.6186  155.7505 H   0  0  0  0  0  0  0  0  0  0  0  0
  151.0729  136.7944  157.0206 H   0  0  0  0  0  0  0  0  0  0  0  0
  149.0865  137.4842  155.6901 H   0  0  0  0  0  0  0  0  0  0  0  0
  150.0089  137.3731  154.1965 H   0  0  0  0  0  0  0  0  0  0  0  0
  1  2  1  0  0  0  0
  1 20  1  0  0  0  0
  1 21  1  0  0  0  0
  1 22  1  0  0  0  0
  2  3  1  0  0  0  0
  2 23  1  0  0  0  0
  2 24  1  0  0  0  0
  3  4  1  0  0  0  0
  3  5  1  0  0  0  0
  3 25  1  0  0  0  0
  4 26  1  0  0  0  0
  4 27  1  0  0  0  0
  4 28  1  0  0  0  0
  5  6  1  0  0  0  0
  5 29  1  0  0  0  0
  6  7  2  0  0  0  0
  6  8  1  0  0  0  0
  8 13  1  0  0  0  0
  8  9  2  0  0  0  0
  9 10  1  0  0  0  0
  9 30  1  0  0  0  0
 10 11  2  0  0  0  0
 10 31  1  0  0  0  0
 11 12  1  0  0  0  0
 11 32  1  0  0  0  0
 12 13  2  0  0  0  0
 13 14  1  0  0  0  0
 14 19  1  0  0  0  0
 14 15  1  0  0  0  0
 15 16  1  0  0  0  0
 15 33  1  0  0  0  0
 15 34  1  0  0  0  0
 16 17  1  0  0  0  0
 16 35  1  0  0  0  0
 16 36  1  0  0  0  0
 17 18  1  0  0  0  0
 18 19  1  0  0  0  0
 18 37  1  0  0  0  0
 18 38  1  0  0  0  0
 19 39  1  0  0  0  0
 19 40  1  0  0  0  0
M  END
> <s_m_source_file>
AV-unprocessed.smi

> <i_m_source_file_index>
2139

> <i_lp_mmshare_version>
43012

> <i_f3d_flags>
0

> <s_epik_input>
W0NIM11bQ0gyXVtDQEhdKFtDSDNdKVtOSF1DKD1PKWMxW2NIXVtjSF1bY0hdbmMxTjJbQ0gyXVtDSDJdT1tDSDJdW0NIMl0y

> <s_epik_cmdline>
J2VwaWtfcHl0aG9uJywgJy1waCcsICc3LjAnLCAnLXRuJywgJzgnLCAnLW1hJywgJzIwMCcsICctbWV0YWxfYmluZGluZycsICctaW1hZScsICc8aW5maWxlLm1hZT4nLCAnLW9tYWUnLCAnPG91dGZpbGUubWFlPic=

> <r_lp_tautomer_probability>
1

> <r_epik_Ionization_Penalty>
1.73125e-05

> <r_epik_Ionization_Penalty_Charging>
0

> <r_epik_Ionization_Penalty_Neutral>
1.73125e-05

> <r_epik_State_Penalty>
-0

> <r_epik_Charging_Adjusted_Penalty>
0

> <i_epik_Tot_Q>
0

> <i_epik_Tot_abs_Q>
0

> <r_epik_Metal_State_Penalty>
-0

> <b_epik_Metal_Only>
0

> <s_lp_Force_Field>
OPLS_2005

> <r_lp_Energy>
24.9987

> <b_lp_Chiralities_Consistent>
1

> <s_lp_Variant>
AV-unprocessed.smi:2139-1

> <Gold.Version>
5.8.1

> <Gold.Id.Protein>
6NUR|6NUR_protein|mol2

> <Gold.PLP.Fitness>
40.1593

> <Gold.PLP.PLP>
-35.3597

> <Gold.PLP.part.hbond>
-1.7866

> <Gold.PLP.part.metal>
0.0000

> <Gold.PLP.part.buried>
1.2116

> <Gold.PLP.part.nonpolar>
-34.6693

> <Gold.PLP.part.repulsive>
0.2476

> <Gold.PLP.ligand.clash>
0.0000

> <Gold.PLP.ligand.torsion>
0.6475

> <Gold.PLP.Chemscore.Hbond>
1.9440

> <Gold.PLP.Chemscore.CHOScore>
0.0000

> <Gold.PLP.Chemscore.Metal>
0.0000

> <Gold.Chemscore.Hbonds>
donor molecule, donor type, donor heavy atom, donor atom, acceptor molecule, acceptor atom, score
      L1  H     5    29       P1  8028  1.00
      P1  H 10752 10765       L1    17  0.85

> <Gold.PLP.Chemscore.Internal.Correction>
0.2625

> <Gold.Rescore>
     Score         DG    S(hbond)    S(metal)    S(lipo)     H(rot)  DE(clash)    DE(int)     intcor
     14.51     -19.75       1.87        0.00      97.09       1.30       1.78       3.45       ----

> <Gold.Chemscore.Fitness>
14.5149

> <Gold.Chemscore.DG>
-19.7493

> <Gold.Chemscore.ZeroCoef>
-5.4800

> <Gold.Chemscore.Hbond>
1.8709

> <Gold.Chemscore.Metal>
0.0000

> <Gold.Chemscore.Lipo>
97.0859

> <Gold.Chemscore.Internal_Hbond>
0.0000

> <Gold.Chemscore.DEClash>
1.7831

> <Gold.Chemscore.DEInternal>
3.4513

> <Gold.Chemscore.Rot>
1.3041

> <Gold.Chemscore.Internal.Correction>
   9.000000E+99

> <Gold.Chemscore.Hbonds>
donor molecule, donor type, donor heavy atom, donor atom, acceptor molecule, acceptor atom, score
      L1  H     5    29       P1  8028  1.00
      P1  H 10752 10765       L1    17  0.69

> <Gold.Chemscore.Hbond.Weighted>
-6.2488

> <Gold.Chemscore.Metal.Weighted>
-0.0000

> <Gold.Chemscore.Lipo.Weighted>
-11.3590

> <Gold.Chemscore.Internal_Hbond.Weighted>
0.0000

> <Gold.Chemscore.DEClash.Weighted>
1.7831

> <Gold.Chemscore.DEInternal.Weighted>
3.4513

> <Gold.Chemscore.Rot.Weighted>
3.3385

> <Gold.Chemscore.Internal.Correction.Weighted>
   9.000000E+99

> <Gold.Protein.RotatedTorsions>
[ 6907 6896 6895 6894 ] final -108.56 input  -60.11 | X-H torsion
[ 7974 7965 7964 7962 ] final   30.43 input  175.53 | X-H torsion
[ 8008 7997 7996 7995 ] final  179.99 input   59.86 | X-H torsion
[ 10167 10162 10161 10158 ] final   16.32 input  -65.29 | X-H torsion
[ 10718 10713 10712 10709 ] final   79.96 input   66.30 | X-H torsion
[ 10763 10752 10751 10750 ] final -162.00 input  -60.55 | X-H torsion
[ 11005 11000 10999 10996 ] final  -10.84 input  -57.11 | X-H torsion

> <Gold.Protein.ActiveResidues>
 VAL166  LYS551  ARG553  GLY616  TRP617  ASP618  TYR619  PRO620  LYS621  CYS622 
 ASP623  PHE694  ASN695  SER759  ASP760  ASP761  ALA762  ILE779  LEU786  VAL792 
 PHE793  MET794  SER795  GLU796  ALA797  LYS798  CYS799  TRP800  GLU811  SER814 

> <Gold.Protein.RotatedAtoms>
  150.7509  133.9659  159.3530 H   0  0  0  0  0  0  0  0  0  0  0  0  # atno 6907 bound_to 6896
  151.7589  135.0813  160.0352 H   0  0  0  0  0  0  0  0  0  0  0  0  # atno 6908 bound_to 6896
  152.3416  133.6037  159.5917 H   0  0  0  0  0  0  0  0  0  0  0  0  # atno 6909 bound_to 6896
  146.1612  139.6789  142.9032 H   0  0  0  0  0  0  0  0  0  0  0  0  # atno 7974 bound_to 7965
  156.0370  140.1295  157.0196 H   0  0  0  0  0  0  0  0  0  0  0  0  # atno 8008 bound_to 7997
  154.4374  140.1038  156.6253 H   0  0  0  0  0  0  0  0  0  0  0  0  # atno 8009 bound_to 7997
  155.5722  140.3466  155.4520 H   0  0  0  0  0  0  0  0  0  0  0  0  # atno 8010 bound_to 7997
  140.5805  143.8989  150.6786 H   0  0  0  0  0  0  0  0  0  0  0  0  # atno 10167 bound_to 10162
  157.6792  130.9938  150.2009 H   0  0  0  0  0  0  0  0  0  0  0  0  # atno 10718 bound_to 10713
  154.7254  135.3034  154.8980 H   0  0  0  0  0  0  0  0  0  0  0  0  # atno 10763 bound_to 10752
  153.9839  135.6727  153.4755 H   0  0  0  0  0  0  0  0  0  0  0  0  # atno 10764 bound_to 10752
  153.0870  135.4979  154.8535 H   0  0  0  0  0  0  0  0  0  0  0  0  # atno 10765 bound_to 10752
  140.7490  133.8607  155.9029 H   0  0  0  0  0  0  0  0  0  0  0  0  # atno 11005 bound_to 11000
  145.4584  141.0432  143.2765 LP  0  0  0  0  0  0  0  0  0  0  0  0  # atno 17320 bound_to 7965
  144.8029  139.6106  143.7063 LP  0  0  0  0  0  0  0  0  0  0  0  0  # atno 17321 bound_to 7965
  140.2487  143.3609  152.1424 LP  0  0  0  0  0  0  0  0  0  0  0  0  # atno 17342 bound_to 10162
  139.5167  144.6981  151.5571 LP  0  0  0  0  0  0  0  0  0  0  0  0  # atno 17343 bound_to 10162
  156.2700  130.3720  149.8041 LP  0  0  0  0  0  0  0  0  0  0  0  0  # atno 17370 bound_to 10713
  156.5761  130.8445  151.3370 LP  0  0  0  0  0  0  0  0  0  0  0  0  # atno 17371 bound_to 10713
  140.9768  134.1459  157.4529 LP  0  0  0  0  0  0  0  0  0  0  0  0  # atno 17394 bound_to 11000
  139.8791  134.9997  156.5969 LP  0  0  0  0  0  0  0  0  0  0  0  0  # atno 17395 bound_to 11000

$$$$
