AV-unprocessed.smi:642|AV-procd|sdf|3152|dock3
  -GOLD-   22720 0 73D 1   1.00000     0.00000
 Structure written by MMmdl.
 49 51  0  0  0  0  0  0  0  0  1 V2000
  151.9429  141.7705  156.5927 O   0  0  0  0  0  0  0  0  0  0  0  0
  150.9254  142.4620  156.6412 C   0  0  0  0  0  0  0  0  0  0  0  0
  149.7617  142.1632  156.0418 N   0  0  0  0  0  0  0  0  0  0  0  0
  149.4540  141.0041  155.2766 C   0  0  0  0  0  0  0  0  0  0  0  0
  150.3523  139.9153  155.1728 C   0  0  0  0  0  0  0  0  0  0  0  0
  150.0112  138.8204  154.3590 C   0  0  0  0  0  0  0  0  0  0  0  0
  148.7877  138.8587  153.6674 C   0  0  0  0  0  0  0  0  0  0  0  0
  147.9270  139.8938  153.7466 N   0  0  0  0  0  0  0  0  0  0  0  0
  148.2449  140.9519  154.5324 C   0  0  0  0  0  0  0  0  0  0  0  0
  147.3095  142.0026  154.6174 N   0  0  0  0  0  0  0  0  0  0  0  0
  146.4487  141.9206  155.7924 C   0  0  0  0  0  0  0  0  0  0  0  0
  145.6440  143.2224  155.9474 C   0  0  0  0  0  0  0  0  0  0  0  0
  144.9139  143.4809  154.7513 O   0  0  0  0  0  0  0  0  0  0  0  0
  145.7698  143.6351  153.6227 C   0  0  0  0  0  0  0  0  0  0  0  0
  146.5730  142.3414  153.4034 C   0  0  0  0  0  0  0  0  0  0  0  0
  150.8331  143.6072  157.3326 N   0  0  0  0  0  0  0  0  0  0  0  0
  151.8904  144.1961  158.1520 C   0  0  0  0  0  0  0  0  0  0  0  0
  152.6746  143.0894  158.8931 C   0  0  0  0  0  0  0  0  0  0  0  0
  152.0782  142.6386  160.2375 C   0  0  0  0  0  0  0  0  0  0  0  0
  152.5615  143.4988  161.4190 C   0  0  0  0  0  0  0  0  0  0  0  0
  151.9590  144.9114  161.4835 C   0  0  0  0  0  0  0  0  0  0  0  0
  152.1550  145.7604  160.2147 C   0  0  0  0  0  0  0  0  0  0  0  0
  151.2724  145.2903  159.0469 C   0  0  0  0  0  0  0  0  0  0  0  0
  148.9795  142.7652  156.2544 H   0  0  0  0  0  0  0  0  0  0  0  0
  151.3006  139.9135  155.6890 H   0  0  0  0  0  0  0  0  0  0  0  0
  150.6762  137.9752  154.2607 H   0  0  0  0  0  0  0  0  0  0  0  0
  148.4933  138.0381  153.0301 H   0  0  0  0  0  0  0  0  0  0  0  0
  145.7704  141.0740  155.6777 H   0  0  0  0  0  0  0  0  0  0  0  0
  147.0339  141.7380  156.6938 H   0  0  0  0  0  0  0  0  0  0  0  0
  144.9443  143.1346  156.7788 H   0  0  0  0  0  0  0  0  0  0  0  0
  146.3040  144.0617  156.1730 H   0  0  0  0  0  0  0  0  0  0  0  0
  145.1635  143.8544  152.7438 H   0  0  0  0  0  0  0  0  0  0  0  0
  146.4359  144.4864  153.7721 H   0  0  0  0  0  0  0  0  0  0  0  0
  147.2664  142.4670  152.5707 H   0  0  0  0  0  0  0  0  0  0  0  0
  145.8946  141.5275  153.1437 H   0  0  0  0  0  0  0  0  0  0  0  0
  149.9535  144.1020  157.3100 H   0  0  0  0  0  0  0  0  0  0  0  0
  152.6008  144.6944  157.4896 H   0  0  0  0  0  0  0  0  0  0  0  0
  152.7698  142.2214  158.2392 H   0  0  0  0  0  0  0  0  0  0  0  0
  153.7003  143.4236  159.0534 H   0  0  0  0  0  0  0  0  0  0  0  0
  150.9891  142.6011  160.1936 H   0  0  0  0  0  0  0  0  0  0  0  0
  152.4029  141.6140  160.4222 H   0  0  0  0  0  0  0  0  0  0  0  0
  152.3153  142.9830  162.3477 H   0  0  0  0  0  0  0  0  0  0  0  0
  153.6499  143.5664  161.4023 H   0  0  0  0  0  0  0  0  0  0  0  0
  150.8961  144.8446  161.7195 H   0  0  0  0  0  0  0  0  0  0  0  0
  152.4130  145.4350  162.3253 H   0  0  0  0  0  0  0  0  0  0  0  0
  151.8740  146.7858  160.4575 H   0  0  0  0  0  0  0  0  0  0  0  0
  153.2052  145.8010  159.9238 H   0  0  0  0  0  0  0  0  0  0  0  0
  151.0453  146.1492  158.4139 H   0  0  0  0  0  0  0  0  0  0  0  0
  150.3082  144.9620  159.4379 H   0  0  0  0  0  0  0  0  0  0  0  0
  1  2  2  0  0  0  0
  2  3  1  0  0  0  0
  2 16  1  0  0  0  0
  3  4  1  0  0  0  0
  3 24  1  0  0  0  0
  4  9  1  0  0  0  0
  4  5  2  0  0  0  0
  5  6  1  0  0  0  0
  5 25  1  0  0  0  0
  6  7  2  0  0  0  0
  6 26  1  0  0  0  0
  7  8  1  0  0  0  0
  7 27  1  0  0  0  0
  8  9  2  0  0  0  0
  9 10  1  0  0  0  0
 10 15  1  0  0  0  0
 10 11  1  0  0  0  0
 11 12  1  0  0  0  0
 11 28  1  0  0  0  0
 11 29  1  0  0  0  0
 12 13  1  0  0  0  0
 12 30  1  0  0  0  0
 12 31  1  0  0  0  0
 13 14  1  0  0  0  0
 14 15  1  0  0  0  0
 14 32  1  0  0  0  0
 14 33  1  0  0  0  0
 15 34  1  0  0  0  0
 15 35  1  0  0  0  0
 16 17  1  0  0  0  0
 16 36  1  0  0  0  0
 17 23  1  0  0  0  0
 17 18  1  0  0  0  0
 17 37  1  0  0  0  0
 18 19  1  0  0  0  0
 18 38  1  0  0  0  0
 18 39  1  0  0  0  0
 19 20  1  0  0  0  0
 19 40  1  0  0  0  0
 19 41  1  0  0  0  0
 20 21  1  0  0  0  0
 20 42  1  0  0  0  0
 20 43  1  0  0  0  0
 21 22  1  0  0  0  0
 21 44  1  0  0  0  0
 21 45  1  0  0  0  0
 22 23  1  0  0  0  0
 22 46  1  0  0  0  0
 22 47  1  0  0  0  0
 23 48  1  0  0  0  0
 23 49  1  0  0  0  0
M  END
> <s_m_source_file>
AV-unprocessed.smi

> <i_m_source_file_index>
642

> <i_lp_mmshare_version>
43012

> <i_f3d_flags>
0

> <s_epik_input>
W0NIMl0xW0NIMl1bQ0gyXVtDSDJdW0NIMl1bQ0gyXVtDSF0xW05IXUMoPU8pW05IXWMyW2NIXVtjSF1bY0hdbmMyTjNbQ0gyXVtDSDJdT1tDSDJdW0NIMl0z

> <s_epik_cmdline>
J2VwaWtfcHl0aG9uJywgJy1waCcsICc3LjAnLCAnLXRuJywgJzgnLCAnLW1hJywgJzIwMCcsICctbWV0YWxfYmluZGluZycsICctaW1hZScsICc8aW5maWxlLm1hZT4nLCAnLW9tYWUnLCAnPG91dGZpbGUubWFlPic=

> <r_lp_tautomer_probability>
1

> <r_epik_Ionization_Penalty>
0.00218327

> <r_epik_Ionization_Penalty_Charging>
0

> <r_epik_Ionization_Penalty_Neutral>
0.00218327

> <r_epik_State_Penalty>
0.00146969

> <r_epik_Charging_Adjusted_Penalty>
0.00146969

> <i_epik_Tot_Q>
0

> <i_epik_Tot_abs_Q>
0

> <r_epik_Metal_State_Penalty>
-0

> <b_epik_Metal_Only>
0

> <s_lp_Force_Field>
OPLS_2005

> <r_lp_Energy>
33.5624

> <b_lp_Chiralities_Consistent>
1

> <s_lp_Variant>
AV-unprocessed.smi:642-1

> <Gold.Version>
5.8.1

> <Gold.Id.Protein>
6NUR|6NUR_protein|mol2

> <Gold.PLP.Fitness>
47.6557

> <Gold.PLP.PLP>
-43.3873

> <Gold.PLP.part.hbond>
-2.0000

> <Gold.PLP.part.metal>
0.0000

> <Gold.PLP.part.buried>
1.5970

> <Gold.PLP.part.nonpolar>
-42.0568

> <Gold.PLP.part.repulsive>
0.6336

> <Gold.PLP.ligand.clash>
0.0000

> <Gold.PLP.ligand.torsion>
0.9120

> <Gold.PLP.Chemscore.Hbond>
0.9537

> <Gold.PLP.Chemscore.CHOScore>
1.0000

> <Gold.PLP.Chemscore.Metal>
0.0000

> <Gold.Chemscore.Hbonds>
donor molecule, donor type, donor heavy atom, donor atom, acceptor molecule, acceptor atom, score
      L1  H     3    24       P1  8028  0.45
      L1  H    16    36       P1  8028  0.57
      L1  C     7    27       P1  7948  1.00

> <Gold.PLP.Chemscore.Internal.Correction>
0.2313

> <Gold.Rescore>
     Score         DG    S(hbond)    S(metal)    S(lipo)     H(rot)  DE(clash)    DE(int)     intcor
     13.88     -19.19       0.56        0.00     127.00       1.18       1.57       3.74       ----

> <Gold.Chemscore.Fitness>
13.8788

> <Gold.Chemscore.DG>
-19.1918

> <Gold.Chemscore.ZeroCoef>
-5.4800

> <Gold.Chemscore.Hbond>
0.5601

> <Gold.Chemscore.Metal>
0.0000

> <Gold.Chemscore.Lipo>
127.0030

> <Gold.Chemscore.Internal_Hbond>
0.0000

> <Gold.Chemscore.DEClash>
1.5689

> <Gold.Chemscore.DEInternal>
3.7441

> <Gold.Chemscore.Rot>
1.1791

> <Gold.Chemscore.Internal.Correction>
   9.000000E+99

> <Gold.Chemscore.Hbonds>
donor molecule, donor type, donor heavy atom, donor atom, acceptor molecule, acceptor atom, score
      L1  H     3    24       P1  8028  0.42
      L1  H    16    36       P1  8028  0.35

> <Gold.Chemscore.Hbond.Weighted>
-1.8709

> <Gold.Chemscore.Metal.Weighted>
-0.0000

> <Gold.Chemscore.Lipo.Weighted>
-14.8594

> <Gold.Chemscore.Internal_Hbond.Weighted>
0.0000

> <Gold.Chemscore.DEClash.Weighted>
1.5689

> <Gold.Chemscore.DEInternal.Weighted>
3.7441

> <Gold.Chemscore.Rot.Weighted>
3.0184

> <Gold.Chemscore.Internal.Correction.Weighted>
   9.000000E+99

> <Gold.Protein.RotatedTorsions>
[ 6907 6896 6895 6894 ] final  -54.58 input  -60.11 | X-H torsion
[ 7974 7965 7964 7962 ] final  113.99 input  175.53 | X-H torsion
[ 8008 7997 7996 7995 ] final   96.04 input   59.86 | X-H torsion
[ 10167 10162 10161 10158 ] final  -42.21 input  -65.29 | X-H torsion
[ 10718 10713 10712 10709 ] final -136.17 input   66.30 | X-H torsion
[ 10763 10752 10751 10750 ] final  173.95 input  -60.55 | X-H torsion
[ 11005 11000 10999 10996 ] final  131.73 input  -57.11 | X-H torsion

> <Gold.Protein.ActiveResidues>
 VAL166  LYS551  ARG553  GLY616  TRP617  ASP618  TYR619  PRO620  LYS621  CYS622 
 ASP623  PHE694  ASN695  SER759  ASP760  ASP761  ALA762  ILE779  LEU786  VAL792 
 PHE793  MET794  SER795  GLU796  ALA797  LYS798  CYS799  TRP800  GLU811  SER814 

> <Gold.Protein.RotatedAtoms>
  150.8326  134.7585  159.6865 H   0  0  0  0  0  0  0  0  0  0  0  0  # atno 6907 bound_to 6896
  152.4428  134.5553  159.9888 H   0  0  0  0  0  0  0  0  0  0  0  0  # atno 6908 bound_to 6896
  151.5711  133.3352  159.3025 H   0  0  0  0  0  0  0  0  0  0  0  0  # atno 6909 bound_to 6896
  145.2100  139.2911  143.4273 H   0  0  0  0  0  0  0  0  0  0  0  0  # atno 7974 bound_to 7965
  156.0753  140.3278  155.7627 H   0  0  0  0  0  0  0  0  0  0  0  0  # atno 8008 bound_to 7997
  155.5239  140.0587  157.2919 H   0  0  0  0  0  0  0  0  0  0  0  0  # atno 8009 bound_to 7997
  154.4552  140.1939  156.0417 H   0  0  0  0  0  0  0  0  0  0  0  0  # atno 8010 bound_to 7997
  140.6977  143.3050  151.3177 H   0  0  0  0  0  0  0  0  0  0  0  0  # atno 10167 bound_to 10162
  156.2741  130.7282  151.1259 H   0  0  0  0  0  0  0  0  0  0  0  0  # atno 10718 bound_to 10713
  154.4472  135.2763  155.1806 H   0  0  0  0  0  0  0  0  0  0  0  0  # atno 10763 bound_to 10752
  154.3648  135.6121  153.5713 H   0  0  0  0  0  0  0  0  0  0  0  0  # atno 10764 bound_to 10752
  152.9844  135.5843  154.4810 H   0  0  0  0  0  0  0  0  0  0  0  0  # atno 10765 bound_to 10752
  139.9748  134.9567  156.9481 H   0  0  0  0  0  0  0  0  0  0  0  0  # atno 11005 bound_to 11000
  146.3399  140.2373  142.8595 LP  0  0  0  0  0  0  0  0  0  0  0  0  # atno 17320 bound_to 7965
  144.9865  140.8508  143.5365 LP  0  0  0  0  0  0  0  0  0  0  0  0  # atno 17321 bound_to 7965
  139.6453  144.0463  152.2586 LP  0  0  0  0  0  0  0  0  0  0  0  0  # atno 17342 bound_to 10162
  139.9982  144.6312  150.7753 LP  0  0  0  0  0  0  0  0  0  0  0  0  # atno 17343 bound_to 10162
  157.7293  131.0625  150.5778 LP  0  0  0  0  0  0  0  0  0  0  0  0  # atno 17370 bound_to 10713
  156.5878  130.4321  149.5950 LP  0  0  0  0  0  0  0  0  0  0  0  0  # atno 17371 bound_to 10713
  140.5218  134.0900  155.7294 LP  0  0  0  0  0  0  0  0  0  0  0  0  # atno 17394 bound_to 11000
  141.1425  133.9112  157.2292 LP  0  0  0  0  0  0  0  0  0  0  0  0  # atno 17395 bound_to 11000

$$$$
