AV-unprocessed.smi:3282|AV-procd|sdf|12560|dock10
  -GOLD-   2272018483D 1   1.00000     0.00000
 Structure written by MMmdl.
 34 35  0  0  0  0  0  0  0  0  1 V2000
  150.9442  142.9914  157.5207 C   0  0  0  0  0  0  0  0  0  0  0  0
  151.7441  144.2353  157.9402 C   0  0  0  0  0  0  0  0  0  0  0  0
  152.0383  144.3036  159.4483 C   0  0  0  0  0  0  0  0  0  0  0  0
  151.6794  145.2857  160.0997 O   0  0  0  0  0  0  0  0  0  0  0  0
  152.6897  143.2682  160.0180 N   0  0  0  0  0  0  0  0  0  0  0  0
  153.1631  142.0724  159.3238 C   0  0  0  0  0  0  0  0  0  0  0  0
  154.0066  141.3023  160.3400 C   0  0  0  0  0  0  0  0  0  0  0  0
  153.5002  141.7748  161.7022 C   0  0  1  0  0  0  0  0  0  0  0  0
  154.5390  141.7507  162.7268 N   0  0  0  0  0  0  0  0  0  0  0  0
  154.4902  142.4308  163.8811 C   0  0  0  0  0  0  0  0  0  0  0  0
  153.5445  143.1497  164.2061 O   0  0  0  0  0  0  0  0  0  0  0  0
  155.5934  142.2217  164.6190 N   0  0  0  0  0  0  0  0  0  0  0  0
  155.9057  142.7843  165.8823 C   0  0  0  0  0  0  0  0  0  0  0  0
  157.1257  143.0059  166.3742 N   0  0  0  0  0  0  0  0  0  0  0  0
  156.9023  143.5562  167.6280 C   0  0  0  0  0  0  0  0  0  0  0  0
  155.5476  143.6372  167.8245 C   0  0  0  0  0  0  0  0  0  0  0  0
  154.9003  143.1487  166.7214 O   0  0  0  0  0  0  0  0  0  0  0  0
  153.0060  143.2019  161.4427 C   0  0  0  0  0  0  0  0  0  0  0  0
  150.7706  142.9913  156.4445 H   0  0  0  0  0  0  0  0  0  0  0  0
  149.9700  142.9596  158.0099 H   0  0  0  0  0  0  0  0  0  0  0  0
  151.4771  142.0724  157.7674 H   0  0  0  0  0  0  0  0  0  0  0  0
  152.6870  144.2493  157.3927 H   0  0  0  0  0  0  0  0  0  0  0  0
  151.1929  145.1300  157.6493 H   0  0  0  0  0  0  0  0  0  0  0  0
  152.3038  141.4752  159.0159 H   0  0  0  0  0  0  0  0  0  0  0  0
  153.7472  142.3140  158.4348 H   0  0  0  0  0  0  0  0  0  0  0  0
  153.9315  140.2216  160.2155 H   0  0  0  0  0  0  0  0  0  0  0  0
  155.0550  141.5769  160.2130 H   0  0  0  0  0  0  0  0  0  0  0  0
  152.6507  141.1594  162.0052 H   0  0  0  0  0  0  0  0  0  0  0  0
  155.3526  141.1833  162.5387 H   0  0  0  0  0  0  0  0  0  0  0  0
  156.2890  141.6002  164.2334 H   0  0  0  0  0  0  0  0  0  0  0  0
  157.7164  143.8434  168.2769 H   0  0  0  0  0  0  0  0  0  0  0  0
  154.9273  143.9899  168.6351 H   0  0  0  0  0  0  0  0  0  0  0  0
  153.7838  143.9371  161.6565 H   0  0  0  0  0  0  0  0  0  0  0  0
  152.1407  143.4374  162.0645 H   0  0  0  0  0  0  0  0  0  0  0  0
  1  2  1  0  0  0  0
  1 19  1  0  0  0  0
  1 20  1  0  0  0  0
  1 21  1  0  0  0  0
  2  3  1  0  0  0  0
  2 22  1  0  0  0  0
  2 23  1  0  0  0  0
  3  4  2  0  0  0  0
  3  5  1  0  0  0  0
  5 18  1  0  0  0  0
  5  6  1  0  0  0  0
  6  7  1  0  0  0  0
  6 24  1  0  0  0  0
  6 25  1  0  0  0  0
  7  8  1  0  0  0  0
  7 26  1  0  0  0  0
  7 27  1  0  0  0  0
  8  9  1  0  0  0  0
  8 18  1  0  0  0  0
  8 28  1  0  0  0  0
  9 10  1  0  0  0  0
  9 29  1  0  0  0  0
 10 11  2  0  0  0  0
 10 12  1  0  0  0  0
 12 13  1  0  0  0  0
 12 30  1  0  0  0  0
 13 17  1  0  0  0  0
 13 14  2  0  0  0  0
 14 15  1  0  0  0  0
 15 16  2  0  0  0  0
 15 31  1  0  0  0  0
 16 17  1  0  0  0  0
 16 32  1  0  0  0  0
 18 33  1  0  0  0  0
 18 34  1  0  0  0  0
M  END
> <s_m_source_file>
AV-unprocessed.smi

> <i_m_source_file_index>
3282

> <i_lp_mmshare_version>
43012

> <i_f3d_flags>
0

> <s_epik_input>
W0NIM11bQ0gyXUMoPU8pTjFbQ0gyXVtDSDJdW0NASF0oW0NIMl0xKVtOSF1DKD1PKVtOSF1jMm5bY0hdW2NIXW8y

> <s_epik_cmdline>
J2VwaWtfcHl0aG9uJywgJy1waCcsICc3LjAnLCAnLXRuJywgJzgnLCAnLW1hJywgJzIwMCcsICctbWV0YWxfYmluZGluZycsICctaW1hZScsICc8aW5maWxlLm1hZT4nLCAnLW9tYWUnLCAnPG91dGZpbGUubWFlPic=

> <r_lp_tautomer_probability>
0.785861

> <r_epik_Ionization_Penalty>
4.35681e-05

> <r_epik_Ionization_Penalty_Charging>
0

> <r_epik_Ionization_Penalty_Neutral>
4.35681e-05

> <r_epik_State_Penalty>
0.0212547

> <r_epik_Charging_Adjusted_Penalty>
0.0212547

> <i_epik_Tot_Q>
0

> <i_epik_Tot_abs_Q>
0

> <r_epik_Metal_State_Penalty>
0.00779955

> <b_epik_Metal_Only>
0

> <s_lp_Force_Field>
OPLS_2005

> <r_lp_Energy>
25.4051

> <b_lp_Chiralities_Consistent>
1

> <s_lp_Variant>
AV-unprocessed.smi:3282-1

> <Gold.Version>
5.8.1

> <Gold.Id.Protein>
6NUR|6NUR_protein|mol2

> <Gold.PLP.Fitness>
42.9710

> <Gold.PLP.PLP>
-43.7721

> <Gold.PLP.part.hbond>
-3.8142

> <Gold.PLP.part.metal>
0.0000

> <Gold.PLP.part.buried>
-5.4966

> <Gold.PLP.part.nonpolar>
-35.5448

> <Gold.PLP.part.repulsive>
0.3702

> <Gold.PLP.ligand.clash>
0.0000

> <Gold.PLP.ligand.torsion>
0.4043

> <Gold.PLP.Chemscore.Hbond>
0.0000

> <Gold.PLP.Chemscore.CHOScore>
0.0000

> <Gold.PLP.Chemscore.Metal>
0.0000

> <Gold.PLP.Chemscore.Internal.Correction>
0.0075

> <Gold.Rescore>
     Score         DG    S(hbond)    S(metal)    S(lipo)     H(rot)  DE(clash)    DE(int)     intcor
      6.85     -10.86       0.00        0.00      74.89       1.32       0.97       3.04       ----

> <Gold.Chemscore.Fitness>
6.8516

> <Gold.Chemscore.DG>
-10.8629

> <Gold.Chemscore.ZeroCoef>
-5.4800

> <Gold.Chemscore.Hbond>
0.0000

> <Gold.Chemscore.Metal>
0.0000

> <Gold.Chemscore.Lipo>
74.8876

> <Gold.Chemscore.Internal_Hbond>
0.0000

> <Gold.Chemscore.DEClash>
0.9728

> <Gold.Chemscore.DEInternal>
3.0386

> <Gold.Chemscore.Rot>
1.3199

> <Gold.Chemscore.Internal.Correction>
   9.000000E+99

> <Gold.Chemscore.Hbond.Weighted>
-0.0000

> <Gold.Chemscore.Metal.Weighted>
-0.0000

> <Gold.Chemscore.Lipo.Weighted>
-8.7618

> <Gold.Chemscore.Internal_Hbond.Weighted>
0.0000

> <Gold.Chemscore.DEClash.Weighted>
0.9728

> <Gold.Chemscore.DEInternal.Weighted>
3.0386

> <Gold.Chemscore.Rot.Weighted>
3.3789

> <Gold.Chemscore.Internal.Correction.Weighted>
   9.000000E+99

> <Gold.Protein.RotatedTorsions>
[ 6907 6896 6895 6894 ] final  -43.62 input  -60.11 | X-H torsion
[ 7974 7965 7964 7962 ] final   88.73 input  175.53 | X-H torsion
[ 8008 7997 7996 7995 ] final   53.41 input   59.86 | X-H torsion
[ 10167 10162 10161 10158 ] final   63.74 input  -65.29 | X-H torsion
[ 10718 10713 10712 10709 ] final   73.27 input   66.30 | X-H torsion
[ 10763 10752 10751 10750 ] final  122.32 input  -60.55 | X-H torsion
[ 11005 11000 10999 10996 ] final -130.10 input  -57.11 | X-H torsion

> <Gold.Protein.ActiveResidues>
 VAL166  LYS551  ARG553  GLY616  TRP617  ASP618  TYR619  PRO620  LYS621  CYS622 
 ASP623  PHE694  ASN695  SER759  ASP760  ASP761  ALA762  ILE779  LEU786  VAL792 
 PHE793  MET794  SER795  GLU796  ALA797  LYS798  CYS799  TRP800  GLU811  SER814 

> <Gold.Protein.RotatedAtoms>
  150.9418  134.8827  159.7616 H   0  0  0  0  0  0  0  0  0  0  0  0  # atno 6907 bound_to 6896
  152.5083  134.3930  159.9400 H   0  0  0  0  0  0  0  0  0  0  0  0  # atno 6908 bound_to 6896
  151.3951  133.3736  159.2760 H   0  0  0  0  0  0  0  0  0  0  0  0  # atno 6909 bound_to 6896
  145.5417  139.2289  143.2562 H   0  0  0  0  0  0  0  0  0  0  0  0  # atno 7974 bound_to 7965
  155.4679  140.3464  155.4321 H   0  0  0  0  0  0  0  0  0  0  0  0  # atno 8008 bound_to 7997
  156.1119  140.1463  156.9355 H   0  0  0  0  0  0  0  0  0  0  0  0  # atno 8009 bound_to 7997
  154.4762  140.0884  156.7247 H   0  0  0  0  0  0  0  0  0  0  0  0  # atno 8010 bound_to 7997
  140.1298  144.4654  150.6871 H   0  0  0  0  0  0  0  0  0  0  0  0  # atno 10167 bound_to 10162
  157.6540  130.9620  150.1046 H   0  0  0  0  0  0  0  0  0  0  0  0  # atno 10718 bound_to 10713
  153.6279  135.3401  155.3032 H   0  0  0  0  0  0  0  0  0  0  0  0  # atno 10763 bound_to 10752
  154.8586  135.4288  154.2137 H   0  0  0  0  0  0  0  0  0  0  0  0  # atno 10764 bound_to 10752
  153.3026  135.7025  153.7262 H   0  0  0  0  0  0  0  0  0  0  0  0  # atno 10765 bound_to 10752
  140.9375  134.1237  157.4180 H   0  0  0  0  0  0  0  0  0  0  0  0  # atno 11005 bound_to 11000
  146.1976  140.6238  142.9117 LP  0  0  0  0  0  0  0  0  0  0  0  0  # atno 17320 bound_to 7965
  144.7573  140.5339  143.6760 LP  0  0  0  0  0  0  0  0  0  0  0  0  # atno 17321 bound_to 7965
  140.6824  143.2333  151.5350 LP  0  0  0  0  0  0  0  0  0  0  0  0  # atno 17342 bound_to 10162
  139.5525  144.2358  152.1556 LP  0  0  0  0  0  0  0  0  0  0  0  0  # atno 17343 bound_to 10162
  156.1959  130.3657  149.8849 LP  0  0  0  0  0  0  0  0  0  0  0  0  # atno 17370 bound_to 10713
  156.6766  130.8841  151.3570 LP  0  0  0  0  0  0  0  0  0  0  0  0  # atno 17371 bound_to 10713
  139.8811  135.0026  156.6134 LP  0  0  0  0  0  0  0  0  0  0  0  0  # atno 17394 bound_to 11000
  140.7779  133.8684  155.8544 LP  0  0  0  0  0  0  0  0  0  0  0  0  # atno 17395 bound_to 11000

$$$$
