AV-unprocessed.smi:3017|AV-procd|sdf|11477|dock8
  -GOLD-   2272016413D 1   1.00000     0.00000
 Structure written by MMmdl.
 37 38  0  0  0  0  0  0  0  0  1 V2000
  154.3620  140.7381  161.2501 C   0  0  0  0  0  0  0  0  0  0  0  0
  153.6732  142.0463  160.8361 C   0  0  2  0  0  0  0  0  0  0  0  0
  152.9999  142.7330  162.0400 C   0  0  0  0  0  0  0  0  0  0  0  0
  152.3052  144.0397  161.6266 C   0  0  0  0  0  0  0  0  0  0  0  0
  151.2910  143.7948  160.4994 C   0  0  0  0  0  0  0  0  0  0  0  0
  151.9546  143.1240  159.2853 C   0  0  2  0  0  0  0  0  0  0  0  0
  150.9303  142.8709  158.3333 O   0  0  0  0  0  0  0  0  0  0  0  0
  151.3814  142.7883  156.9870 C   0  0  0  0  0  0  0  0  0  0  0  0
  150.6331  141.6617  156.2743 C   0  0  0  0  0  0  0  0  0  0  0  0
  150.9747  140.4949  156.4674 O   0  0  0  0  0  0  0  0  0  0  0  0
  149.6389  142.0412  155.4496 N   0  0  0  0  0  0  0  0  0  0  0  0
  148.7746  141.2204  154.6793 C   0  0  0  0  0  0  0  0  0  0  0  0
  147.5807  141.8349  154.2330 C   0  0  0  0  0  0  0  0  0  0  0  0
  146.6568  141.1823  153.4932 N   0  0  0  0  0  0  0  0  0  0  0  0
  146.9251  139.8942  153.1915 C   0  0  0  0  0  0  0  0  0  0  0  0
  148.1091  139.2659  153.6266 C   0  0  0  0  0  0  0  0  0  0  0  0
  149.0286  139.9240  154.3657 N   0  0  0  0  0  0  0  0  0  0  0  0
  152.6517  141.8127  159.7051 C   0  0  0  0  0  0  0  0  0  0  0  0
  153.6422  140.0158  161.6363 H   0  0  0  0  0  0  0  0  0  0  0  0
  155.1056  140.9153  162.0276 H   0  0  0  0  0  0  0  0  0  0  0  0
  154.8737  140.2788  160.4040 H   0  0  0  0  0  0  0  0  0  0  0  0
  154.4456  142.7171  160.4569 H   0  0  0  0  0  0  0  0  0  0  0  0
  152.2685  142.0587  162.4879 H   0  0  0  0  0  0  0  0  0  0  0  0
  153.7399  142.9421  162.8132 H   0  0  0  0  0  0  0  0  0  0  0  0
  151.8038  144.4826  162.4876 H   0  0  0  0  0  0  0  0  0  0  0  0
  153.0517  144.7634  161.2968 H   0  0  0  0  0  0  0  0  0  0  0  0
  150.4806  143.1655  160.8700 H   0  0  0  0  0  0  0  0  0  0  0  0
  150.8361  144.7395  160.1995 H   0  0  0  0  0  0  0  0  0  0  0  0
  152.6881  143.8170  158.8686 H   0  0  0  0  0  0  0  0  0  0  0  0
  151.1901  143.7254  156.4622 H   0  0  0  0  0  0  0  0  0  0  0  0
  152.4532  142.5933  156.9446 H   0  0  0  0  0  0  0  0  0  0  0  0
  149.4731  143.0350  155.3821 H   0  0  0  0  0  0  0  0  0  0  0  0
  147.3609  142.8653  154.4728 H   0  0  0  0  0  0  0  0  0  0  0  0
  146.1932  139.3627  152.6014 H   0  0  0  0  0  0  0  0  0  0  0  0
  148.3186  138.2353  153.3819 H   0  0  0  0  0  0  0  0  0  0  0  0
  153.1577  141.3636  158.8507 H   0  0  0  0  0  0  0  0  0  0  0  0
  151.9011  141.0917  160.0320 H   0  0  0  0  0  0  0  0  0  0  0  0
  1  2  1  0  0  0  0
  1 19  1  0  0  0  0
  1 20  1  0  0  0  0
  1 21  1  0  0  0  0
  2 18  1  0  0  0  0
  2  3  1  0  0  0  0
  2 22  1  0  0  0  0
  3  4  1  0  0  0  0
  3 23  1  0  0  0  0
  3 24  1  0  0  0  0
  4  5  1  0  0  0  0
  4 25  1  0  0  0  0
  4 26  1  0  0  0  0
  5  6  1  0  0  0  0
  5 27  1  0  0  0  0
  5 28  1  0  0  0  0
  6  7  1  0  0  0  0
  6 18  1  0  0  0  0
  6 29  1  0  0  0  0
  7  8  1  0  0  0  0
  8  9  1  0  0  0  0
  8 30  1  0  0  0  0
  8 31  1  0  0  0  0
  9 10  2  0  0  0  0
  9 11  1  0  0  0  0
 11 12  1  0  0  0  0
 11 32  1  0  0  0  0
 12 17  1  0  0  0  0
 12 13  2  0  0  0  0
 13 14  1  0  0  0  0
 13 33  1  0  0  0  0
 14 15  2  0  0  0  0
 15 16  1  0  0  0  0
 15 34  1  0  0  0  0
 16 17  2  0  0  0  0
 16 35  1  0  0  0  0
 18 36  1  0  0  0  0
 18 37  1  0  0  0  0
M  END
> <s_m_source_file>
AV-unprocessed.smi

> <i_m_source_file_index>
3017

> <i_lp_mmshare_version>
43012

> <i_f3d_flags>
0

> <s_epik_input>
W0NIM11bQ0BASF0xW0NIMl1bQ0gyXVtDSDJdW0NASF0oW0NIMl0xKU9bQ0gyXUMoPU8pW05IXWMyW2NIXW5bY0hdW2NIXW4y

> <s_epik_cmdline>
J2VwaWtfcHl0aG9uJywgJy1waCcsICc3LjAnLCAnLXRuJywgJzgnLCAnLW1hJywgJzIwMCcsICctbWV0YWxfYmluZGluZycsICctaW1hZScsICc8aW5maWxlLm1hZT4nLCAnLW9tYWUnLCAnPG91dGZpbGUubWFlPic=

> <r_lp_tautomer_probability>
1

> <r_epik_Ionization_Penalty>
2.89243e-06

> <r_epik_Ionization_Penalty_Charging>
0

> <r_epik_Ionization_Penalty_Neutral>
2.89243e-06

> <r_epik_State_Penalty>
-0

> <r_epik_Charging_Adjusted_Penalty>
0

> <i_epik_Tot_Q>
0

> <i_epik_Tot_abs_Q>
0

> <r_epik_Metal_State_Penalty>
-0

> <b_epik_Metal_Only>
0

> <s_lp_Force_Field>
OPLS_2005

> <r_lp_Energy>
19.9912

> <b_lp_Chiralities_Consistent>
1

> <s_lp_Variant>
AV-unprocessed.smi:3017-3

> <Gold.Version>
5.8.1

> <Gold.Id.Protein>
6NUR|6NUR_protein|mol2

> <Gold.PLP.Fitness>
47.5189

> <Gold.PLP.PLP>
-39.7815

> <Gold.PLP.part.hbond>
-1.0000

> <Gold.PLP.part.metal>
0.0000

> <Gold.PLP.part.buried>
-4.8843

> <Gold.PLP.part.nonpolar>
-35.3916

> <Gold.PLP.part.repulsive>
0.6107

> <Gold.PLP.ligand.clash>
0.0000

> <Gold.PLP.ligand.torsion>
0.8733

> <Gold.PLP.Chemscore.Hbond>
1.0000

> <Gold.PLP.Chemscore.CHOScore>
2.1595

> <Gold.PLP.Chemscore.Metal>
0.0000

> <Gold.Chemscore.Hbonds>
donor molecule, donor type, donor heavy atom, donor atom, acceptor molecule, acceptor atom, score
      L1  H    11    32       P1  8028  1.00
      L1  C    13    33       P1  8028  0.74
      L1  C    15    34       P1 10175  0.34
      L1  C    16    35       P1  7948  0.88

> <Gold.PLP.Chemscore.Internal.Correction>
0.0054

> <Gold.Rescore>
     Score         DG    S(hbond)    S(metal)    S(lipo)     H(rot)  DE(clash)    DE(int)     intcor
     15.40     -17.50       0.99        0.00     107.56       1.51       0.15       1.94       ----

> <Gold.Chemscore.Fitness>
15.4017

> <Gold.Chemscore.DG>
-17.4960

> <Gold.Chemscore.ZeroCoef>
-5.4800

> <Gold.Chemscore.Hbond>
0.9886

> <Gold.Chemscore.Metal>
0.0000

> <Gold.Chemscore.Lipo>
107.5618

> <Gold.Chemscore.Internal_Hbond>
0.0000

> <Gold.Chemscore.DEClash>
0.1505

> <Gold.Chemscore.DEInternal>
1.9438

> <Gold.Chemscore.Rot>
1.5119

> <Gold.Chemscore.Internal.Correction>
   9.000000E+99

> <Gold.Chemscore.Hbonds>
donor molecule, donor type, donor heavy atom, donor atom, acceptor molecule, acceptor atom, score
      L1  H    11    32       P1  8028  1.00

> <Gold.Chemscore.Hbond.Weighted>
-3.3019

> <Gold.Chemscore.Metal.Weighted>
-0.0000

> <Gold.Chemscore.Lipo.Weighted>
-12.5847

> <Gold.Chemscore.Internal_Hbond.Weighted>
0.0000

> <Gold.Chemscore.DEClash.Weighted>
0.1505

> <Gold.Chemscore.DEInternal.Weighted>
1.9438

> <Gold.Chemscore.Rot.Weighted>
3.8706

> <Gold.Chemscore.Internal.Correction.Weighted>
   9.000000E+99

> <Gold.Protein.RotatedTorsions>
[ 6907 6896 6895 6894 ] final  123.67 input  -60.11 | X-H torsion
[ 7974 7965 7964 7962 ] final  124.09 input  175.53 | X-H torsion
[ 8008 7997 7996 7995 ] final  -67.54 input   59.86 | X-H torsion
[ 10167 10162 10161 10158 ] final -158.40 input  -65.29 | X-H torsion
[ 10718 10713 10712 10709 ] final  139.78 input   66.30 | X-H torsion
[ 10763 10752 10751 10750 ] final  -75.80 input  -60.55 | X-H torsion
[ 11005 11000 10999 10996 ] final -101.70 input  -57.11 | X-H torsion

> <Gold.Protein.ActiveResidues>
 VAL166  LYS551  ARG553  GLY616  TRP617  ASP618  TYR619  PRO620  LYS621  CYS622 
 ASP623  PHE694  ASN695  SER759  ASP760  ASP761  ALA762  ILE779  LEU786  VAL792 
 PHE793  MET794  SER795  GLU796  ALA797  LYS798  CYS799  TRP800  GLU811  SER814 

> <Gold.Protein.RotatedAtoms>
  152.4142  133.7012  159.6424 H   0  0  0  0  0  0  0  0  0  0  0  0  # atno 6907 bound_to 6896
  150.8020  133.8569  159.3230 H   0  0  0  0  0  0  0  0  0  0  0  0  # atno 6908 bound_to 6896
  151.6303  135.1025  160.0172 H   0  0  0  0  0  0  0  0  0  0  0  0  # atno 6909 bound_to 6896
  145.0884  139.3605  143.4873 H   0  0  0  0  0  0  0  0  0  0  0  0  # atno 7974 bound_to 7965
  154.4806  140.0891  156.7369 H   0  0  0  0  0  0  0  0  0  0  0  0  # atno 8008 bound_to 7997
  155.4479  140.3456  155.4279 H   0  0  0  0  0  0  0  0  0  0  0  0  # atno 8009 bound_to 7997
  156.1186  140.1467  156.9225 H   0  0  0  0  0  0  0  0  0  0  0  0  # atno 8010 bound_to 7997
  139.6695  143.9770  152.2275 H   0  0  0  0  0  0  0  0  0  0  0  0  # atno 10167 bound_to 10162
  157.4106  131.1027  151.0458 H   0  0  0  0  0  0  0  0  0  0  0  0  # atno 10718 bound_to 10713
  154.4914  135.5819  153.6462 H   0  0  0  0  0  0  0  0  0  0  0  0  # atno 10763 bound_to 10752
  152.9863  135.6113  154.3120 H   0  0  0  0  0  0  0  0  0  0  0  0  # atno 10764 bound_to 10752
  154.3020  135.2846  155.2586 H   0  0  0  0  0  0  0  0  0  0  0  0  # atno 10765 bound_to 10752
  141.1220  133.8499  157.1265 H   0  0  0  0  0  0  0  0  0  0  0  0  # atno 11005 bound_to 11000
  146.3531  140.0707  142.8623 LP  0  0  0  0  0  0  0  0  0  0  0  0  # atno 17320 bound_to 7965
  145.1095  140.9396  143.4665 LP  0  0  0  0  0  0  0  0  0  0  0  0  # atno 17321 bound_to 7965
  139.9531  144.6607  150.8152 LP  0  0  0  0  0  0  0  0  0  0  0  0  # atno 17342 bound_to 10162
  140.7612  143.3169  151.2711 LP  0  0  0  0  0  0  0  0  0  0  0  0  # atno 17343 bound_to 10162
  157.1424  130.6148  149.5559 LP  0  0  0  0  0  0  0  0  0  0  0  0  # atno 17370 bound_to 10713
  155.9849  130.4877  150.7008 LP  0  0  0  0  0  0  0  0  0  0  0  0  # atno 17371 bound_to 10713
  140.0185  134.9956  157.0543 LP  0  0  0  0  0  0  0  0  0  0  0  0  # atno 17394 bound_to 11000
  140.4479  134.1613  155.7179 LP  0  0  0  0  0  0  0  0  0  0  0  0  # atno 17395 bound_to 11000

$$$$
