AV-unprocessed.smi:2121|AV-procd|sdf|8642|dock2
  -GOLD-   2272011393D 1   1.00000     0.00000
 Structure written by MMmdl.
 49 50  0  0  0  0  0  0  0  0  1 V2000
  151.8758  143.8093  161.1637 C   0  0  0  0  0  0  0  0  0  0  0  0
  152.7240  143.6730  159.8866 C   0  0  2  0  0  0  0  0  0  0  0  0
  151.8826  143.5151  158.6055 C   0  0  0  0  0  0  0  0  0  0  0  0
  151.3162  142.1715  158.5141 N   0  0  0  0  0  0  0  0  0  0  0  0
  150.3062  141.9407  157.5562 C   0  0  0  0  0  0  0  0  0  0  0  0
  150.6514  141.5307  156.2472 C   0  0  0  0  0  0  0  0  0  0  0  0
  149.6293  141.3024  155.3065 C   0  0  0  0  0  0  0  0  0  0  0  0
  148.2849  141.4941  155.6937 C   0  0  0  0  0  0  0  0  0  0  0  0
  147.1130  141.2635  154.7472 C   0  0  0  0  0  0  0  0  0  0  0  0
  146.2593  142.4266  154.5291 N   0  0  0  0  0  0  0  0  0  0  0  0
  144.9492  142.4843  154.8116 C   0  0  0  0  0  0  0  0  0  0  0  0
  144.3122  141.5304  155.2614 O   0  0  0  0  0  0  0  0  0  0  0  0
  144.2575  143.8295  154.5397 C   0  0  1  0  0  0  0  0  0  0  0  0
  144.5547  144.2451  153.0896 C   0  0  0  0  0  0  0  0  0  0  0  0
  142.8085  143.7029  154.6905 N   0  0  0  0  0  0  0  0  0  0  0  0
  142.0291  144.5474  155.3823 C   0  0  0  0  0  0  0  0  0  0  0  0
  140.7468  144.1825  155.3657 N   0  0  0  0  0  0  0  0  0  0  0  0
  142.4348  145.5478  155.9714 O   0  0  0  0  0  0  0  0  0  0  0  0
  148.0387  141.8965  157.0215 C   0  0  0  0  0  0  0  0  0  0  0  0
  149.0141  142.1127  157.9286 N   0  0  0  0  0  0  0  0  0  0  0  0
  152.3150  141.1163  158.6447 C   0  0  0  0  0  0  0  0  0  0  0  0
  153.1214  141.2998  159.9431 C   0  0  1  0  0  0  0  0  0  0  0  0
  154.2735  140.2950  160.0467 C   0  0  0  0  0  0  0  0  0  0  0  0
  153.6787  142.6134  159.9822 O   0  0  0  0  0  0  0  0  0  0  0  0
  151.2544  144.7042  161.1194 H   0  0  0  0  0  0  0  0  0  0  0  0
  152.5113  143.8925  162.0454 H   0  0  0  0  0  0  0  0  0  0  0  0
  151.2079  142.9608  161.3099 H   0  0  0  0  0  0  0  0  0  0  0  0
  153.3003  144.5936  159.7923 H   0  0  0  0  0  0  0  0  0  0  0  0
  151.0920  144.2665  158.5902 H   0  0  0  0  0  0  0  0  0  0  0  0
  152.5108  143.6903  157.7310 H   0  0  0  0  0  0  0  0  0  0  0  0
  151.6808  141.3742  155.9606 H   0  0  0  0  0  0  0  0  0  0  0  0
  149.8872  140.9807  154.3085 H   0  0  0  0  0  0  0  0  0  0  0  0
  147.5131  140.9553  153.7812 H   0  0  0  0  0  0  0  0  0  0  0  0
  146.5125  140.4279  155.1115 H   0  0  0  0  0  0  0  0  0  0  0  0
  146.7017  143.2549  154.1579 H   0  0  0  0  0  0  0  0  0  0  0  0
  144.6336  144.5935  155.2234 H   0  0  0  0  0  0  0  0  0  0  0  0
  145.6272  144.3492  152.9187 H   0  0  0  0  0  0  0  0  0  0  0  0
  144.0957  145.2072  152.8595 H   0  0  0  0  0  0  0  0  0  0  0  0
  144.1725  143.5176  152.3716 H   0  0  0  0  0  0  0  0  0  0  0  0
  142.3752  142.9052  154.2494 H   0  0  0  0  0  0  0  0  0  0  0  0
  140.0544  144.7368  155.8471 H   0  0  0  0  0  0  0  0  0  0  0  0
  140.4729  143.3494  154.8652 H   0  0  0  0  0  0  0  0  0  0  0  0
  147.0274  142.0481  157.3696 H   0  0  0  0  0  0  0  0  0  0  0  0
  151.8583  140.1274  158.6434 H   0  0  0  0  0  0  0  0  0  0  0  0
  152.9796  141.1577  157.7806 H   0  0  0  0  0  0  0  0  0  0  0  0
  152.4679  141.1522  160.8031 H   0  0  0  0  0  0  0  0  0  0  0  0
  153.9030  139.2698  160.0338 H   0  0  0  0  0  0  0  0  0  0  0  0
  154.8303  140.4354  160.9735 H   0  0  0  0  0  0  0  0  0  0  0  0
  154.9724  140.4095  159.2174 H   0  0  0  0  0  0  0  0  0  0  0  0
  1  2  1  0  0  0  0
  1 25  1  0  0  0  0
  1 26  1  0  0  0  0
  1 27  1  0  0  0  0
  2 24  1  0  0  0  0
  2  3  1  0  0  0  0
  2 28  1  0  0  0  0
  3  4  1  0  0  0  0
  3 29  1  0  0  0  0
  3 30  1  0  0  0  0
  4  5  1  0  0  0  0
  4 21  1  0  0  0  0
  5 20  1  0  0  0  0
  5  6  2  0  0  0  0
  6  7  1  0  0  0  0
  6 31  1  0  0  0  0
  7  8  2  0  0  0  0
  7 32  1  0  0  0  0
  8  9  1  0  0  0  0
  8 19  1  0  0  0  0
  9 10  1  0  0  0  0
  9 33  1  0  0  0  0
  9 34  1  0  0  0  0
 10 11  1  0  0  0  0
 10 35  1  0  0  0  0
 11 12  2  0  0  0  0
 11 13  1  0  0  0  0
 13 14  1  0  0  0  0
 13 15  1  0  0  0  0
 13 36  1  0  0  0  0
 14 37  1  0  0  0  0
 14 38  1  0  0  0  0
 14 39  1  0  0  0  0
 15 16  1  0  0  0  0
 15 40  1  0  0  0  0
 16 17  1  0  0  0  0
 16 18  2  0  0  0  0
 17 41  1  0  0  0  0
 17 42  1  0  0  0  0
 19 20  2  0  0  0  0
 19 43  1  0  0  0  0
 21 22  1  0  0  0  0
 21 44  1  0  0  0  0
 21 45  1  0  0  0  0
 22 23  1  0  0  0  0
 22 24  1  0  0  0  0
 22 46  1  0  0  0  0
 23 47  1  0  0  0  0
 23 48  1  0  0  0  0
 23 49  1  0  0  0  0
M  END
> <s_m_source_file>
AV-unprocessed.smi

> <i_m_source_file_index>
2121

> <i_lp_mmshare_version>
43012

> <i_f3d_flags>
0

> <s_epik_input>
W0NIM11bQ0BASF0xW0NIMl1OKFtDSDJdW0NASF0oTzEpW0NIM10pYzJbY0hdW2NIXWMoW2NIXW4yKVtDSDJdW05IXUMoPU8pW0NASF0oW0NIM10pW05IXUMoPU8pW05IMl0=

> <s_epik_cmdline>
J2VwaWtfcHl0aG9uJywgJy1waCcsICc3LjAnLCAnLXRuJywgJzgnLCAnLW1hJywgJzIwMCcsICctbWV0YWxfYmluZGluZycsICctaW1hZScsICc8aW5maWxlLm1hZT4nLCAnLW9tYWUnLCAnPG91dGZpbGUubWFlPic=

> <r_lp_tautomer_probability>
1

> <r_epik_Ionization_Penalty>
0.0063713

> <r_epik_Ionization_Penalty_Charging>
0

> <r_epik_Ionization_Penalty_Neutral>
0.0063713

> <r_epik_State_Penalty>
0.00467069

> <r_epik_Charging_Adjusted_Penalty>
0.00467069

> <i_epik_Tot_Q>
0

> <i_epik_Tot_abs_Q>
0

> <r_epik_Metal_State_Penalty>
-0

> <b_epik_Metal_Only>
0

> <s_lp_Force_Field>
OPLS_2005

> <r_lp_Energy>
11.3306

> <b_lp_Chiralities_Consistent>
1

> <s_lp_Variant>
AV-unprocessed.smi:2121-3

> <Gold.Version>
5.8.1

> <Gold.Id.Protein>
6NUR|6NUR_protein|mol2

> <Gold.PLP.Fitness>
44.5212

> <Gold.PLP.PLP>
-42.8655

> <Gold.PLP.part.hbond>
-2.0622

> <Gold.PLP.part.metal>
0.0000

> <Gold.PLP.part.buried>
-4.8419

> <Gold.PLP.part.nonpolar>
-38.2325

> <Gold.PLP.part.repulsive>
1.1653

> <Gold.PLP.ligand.clash>
0.0000

> <Gold.PLP.ligand.torsion>
0.7331

> <Gold.PLP.Chemscore.Hbond>
0.9204

> <Gold.PLP.Chemscore.CHOScore>
0.0000

> <Gold.PLP.Chemscore.Metal>
0.0000

> <Gold.Chemscore.Hbonds>
donor molecule, donor type, donor heavy atom, donor atom, acceptor molecule, acceptor atom, score
      L1  H    15    40       P1 10174  0.29

> <Gold.PLP.Chemscore.Internal.Correction>
0.3607

> <Gold.Rescore>
     Score         DG    S(hbond)    S(metal)    S(lipo)     H(rot)  DE(clash)    DE(int)     intcor
     12.73     -14.57       0.92        0.00     107.99       2.58       1.19       0.66       ----

> <Gold.Chemscore.Fitness>
12.7264

> <Gold.Chemscore.DG>
-14.5728

> <Gold.Chemscore.ZeroCoef>
-5.4800

> <Gold.Chemscore.Hbond>
0.9198

> <Gold.Chemscore.Metal>
0.0000

> <Gold.Chemscore.Lipo>
107.9932

> <Gold.Chemscore.Internal_Hbond>
0.0000

> <Gold.Chemscore.DEClash>
1.1907

> <Gold.Chemscore.DEInternal>
0.6557

> <Gold.Chemscore.Rot>
2.5838

> <Gold.Chemscore.Internal.Correction>
   9.000000E+99

> <Gold.Chemscore.Hbonds>
donor molecule, donor type, donor heavy atom, donor atom, acceptor molecule, acceptor atom, score
      L1  H    15    40       P1 10174  0.29

> <Gold.Chemscore.Hbond.Weighted>
-3.0721

> <Gold.Chemscore.Metal.Weighted>
-0.0000

> <Gold.Chemscore.Lipo.Weighted>
-12.6352

> <Gold.Chemscore.Internal_Hbond.Weighted>
0.0000

> <Gold.Chemscore.DEClash.Weighted>
1.1907

> <Gold.Chemscore.DEInternal.Weighted>
0.6557

> <Gold.Chemscore.Rot.Weighted>
6.6145

> <Gold.Chemscore.Internal.Correction.Weighted>
   9.000000E+99

> <Gold.Protein.RotatedTorsions>
[ 6907 6896 6895 6894 ] final   44.98 input  -60.11 | X-H torsion
[ 7974 7965 7964 7962 ] final -106.25 input  175.53 | X-H torsion
[ 8008 7997 7996 7995 ] final   36.52 input   59.86 | X-H torsion
[ 10167 10162 10161 10158 ] final   11.47 input  -65.29 | X-H torsion
[ 10718 10713 10712 10709 ] final  -60.10 input   66.30 | X-H torsion
[ 10763 10752 10751 10750 ] final   79.37 input  -60.55 | X-H torsion
[ 11005 11000 10999 10996 ] final   39.44 input  -57.11 | X-H torsion

> <Gold.Protein.ActiveResidues>
 VAL166  LYS551  ARG553  GLY616  TRP617  ASP618  TYR619  PRO620  LYS621  CYS622 
 ASP623  PHE694  ASN695  SER759  ASP760  ASP761  ALA762  ILE779  LEU786  VAL792 
 PHE793  MET794  SER795  GLU796  ALA797  LYS798  CYS799  TRP800  GLU811  SER814 

> <Gold.Protein.RotatedAtoms>
  152.2391  134.8246  160.0462 H   0  0  0  0  0  0  0  0  0  0  0  0  # atno 6907 bound_to 6896
  151.8967  133.3523  159.3825 H   0  0  0  0  0  0  0  0  0  0  0  0  # atno 6908 bound_to 6896
  150.7048  134.4795  159.5507 H   0  0  0  0  0  0  0  0  0  0  0  0  # atno 6909 bound_to 6896
  145.2202  140.9131  143.3264 H   0  0  0  0  0  0  0  0  0  0  0  0  # atno 7974 bound_to 7965
  155.1887  140.3306  155.4362 H   0  0  0  0  0  0  0  0  0  0  0  0  # atno 8008 bound_to 7997
  156.2450  140.1914  156.6932 H   0  0  0  0  0  0  0  0  0  0  0  0  # atno 8009 bound_to 7997
  154.6220  140.0594  156.9613 H   0  0  0  0  0  0  0  0  0  0  0  0  # atno 8010 bound_to 7997
  140.6129  143.8369  150.7086 H   0  0  0  0  0  0  0  0  0  0  0  0  # atno 10167 bound_to 10162
  156.1014  130.4186  150.0807 H   0  0  0  0  0  0  0  0  0  0  0  0  # atno 10718 bound_to 10713
  153.0947  135.4842  154.8756 H   0  0  0  0  0  0  0  0  0  0  0  0  # atno 10763 bound_to 10752
  154.7311  135.3060  154.8892 H   0  0  0  0  0  0  0  0  0  0  0  0  # atno 10764 bound_to 10752
  153.9528  135.6821  153.4797 H   0  0  0  0  0  0  0  0  0  0  0  0  # atno 10765 bound_to 10752
  140.2027  134.3850  155.8088 H   0  0  0  0  0  0  0  0  0  0  0  0  # atno 11005 bound_to 11000
  144.9773  139.3819  143.6279 LP  0  0  0  0  0  0  0  0  0  0  0  0  # atno 17320 bound_to 7965
  146.3378  139.8897  142.8811 LP  0  0  0  0  0  0  0  0  0  0  0  0  # atno 17321 bound_to 7965
  140.1941  143.4012  152.1841 LP  0  0  0  0  0  0  0  0  0  0  0  0  # atno 17342 bound_to 10162
  139.5376  144.7225  151.4842 LP  0  0  0  0  0  0  0  0  0  0  0  0  # atno 17343 bound_to 10162
  156.8794  130.9551  151.3601 LP  0  0  0  0  0  0  0  0  0  0  0  0  # atno 17370 bound_to 10713
  157.6185  130.8637  149.9068 LP  0  0  0  0  0  0  0  0  0  0  0  0  # atno 17371 bound_to 10713
  141.2227  133.7102  156.8285 LP  0  0  0  0  0  0  0  0  0  0  0  0  # atno 17394 bound_to 11000
  140.2036  134.8879  157.3197 LP  0  0  0  0  0  0  0  0  0  0  0  0  # atno 17395 bound_to 11000

$$$$
