AV-unprocessed.smi:2099|AV-procd|sdf|8571|dock3
  -GOLD-   2272011303D 1   1.00000     0.00000
 Structure written by MMmdl.
 31 32  0  0  0  0  0  0  0  0  2 V2000
  152.7691  143.2498  161.8021 C   0  0  0  0  0  0  0  0  0  0  0  0
  151.9380  143.1751  160.5134 C   0  0  2  0  0  0  0  0  0  0  0  0
  152.0451  141.7875  159.8525 C   0  0  0  0  0  0  0  0  0  0  0  0
  151.2170  141.7093  158.5597 C   0  0  0  0  0  0  0  0  0  0  0  0
  151.6209  142.8150  157.5636 C   0  0  1  0  0  0  0  0  0  0  0  0
  150.7755  142.7735  156.3731 N   0  0  0  0  0  0  0  0  0  0  0  0
  150.4884  141.6850  155.6442 C   0  0  0  0  0  0  0  0  0  0  0  0
  150.9516  140.5881  155.9657 O   0  0  0  0  0  0  0  0  0  0  0  0
  149.6823  141.9348  154.5872 N   0  5  0  0  0  0  0  0  0  0  0  0
  148.7512  141.0366  154.2256 C   0  0  0  0  0  0  0  0  0  0  0  0
  148.9207  139.7164  154.4017 N   0  0  0  0  0  0  0  0  0  0  0  0
  147.8391  138.9638  153.9642 N   0  0  0  0  0  0  0  0  0  0  0  0
  146.8727  139.7406  153.4759 C   0  0  0  0  0  0  0  0  0  0  0  0
  147.1943  141.4616  153.5087 S   0  0  0  0  0  0  0  0  0  0  0  0
  151.5151  144.2021  158.2230 C   0  0  0  0  0  0  0  0  0  0  0  0
  152.3442  144.2762  159.5154 C   0  0  0  0  0  0  0  0  0  0  0  0
  153.8297  143.0986  161.5990 H   0  0  0  0  0  0  0  0  0  0  0  0
  152.4548  142.4884  162.5164 H   0  0  0  0  0  0  0  0  0  0  0  0
  152.6575  144.2207  162.2852 H   0  0  0  0  0  0  0  0  0  0  0  0
  150.8942  143.3374  160.7862 H   0  0  0  0  0  0  0  0  0  0  0  0
  153.0891  141.5656  159.6266 H   0  0  0  0  0  0  0  0  0  0  0  0
  151.7092  141.0163  160.5465 H   0  0  0  0  0  0  0  0  0  0  0  0
  151.3453  140.7266  158.1048 H   0  0  0  0  0  0  0  0  0  0  0  0
  150.1572  141.8001  158.8024 H   0  0  0  0  0  0  0  0  0  0  0  0
  152.6602  142.6617  157.2662 H   0  0  0  0  0  0  0  0  0  0  0  0
  150.3717  143.6483  156.0723 H   0  0  0  0  0  0  0  0  0  0  0  0
  145.9636  139.2980  153.0974 H   0  0  0  0  0  0  0  0  0  0  0  0
  151.8509  144.9725  157.5279 H   0  0  0  0  0  0  0  0  0  0  0  0
  150.4715  144.4251  158.4502 H   0  0  0  0  0  0  0  0  0  0  0  0
  152.2194  145.2586  159.9721 H   0  0  0  0  0  0  0  0  0  0  0  0
  153.4033  144.1816  159.2718 H   0  0  0  0  0  0  0  0  0  0  0  0
  1  2  1  0  0  0  0
  1 17  1  0  0  0  0
  1 18  1  0  0  0  0
  1 19  1  0  0  0  0
  2 16  1  0  0  0  0
  2  3  1  0  0  0  0
  2 20  1  0  0  0  0
  3  4  1  0  0  0  0
  3 21  1  0  0  0  0
  3 22  1  0  0  0  0
  4  5  1  0  0  0  0
  4 23  1  0  0  0  0
  4 24  1  0  0  0  0
  5  6  1  0  0  0  0
  5 15  1  0  0  0  0
  5 25  1  0  0  0  0
  6  7  1  0  0  0  0
  6 26  1  0  0  0  0
  7  8  2  0  0  0  0
  7  9  1  0  0  0  0
  9 10  1  0  0  0  0
 10 14  1  0  0  0  0
 10 11  2  0  0  0  0
 11 12  1  0  0  0  0
 12 13  2  0  0  0  0
 13 14  1  0  0  0  0
 13 27  1  0  0  0  0
 15 16  1  0  0  0  0
 15 28  1  0  0  0  0
 15 29  1  0  0  0  0
 16 30  1  0  0  0  0
 16 31  1  0  0  0  0
M  CHG  1   9  -1
M  END
> <s_m_source_file>
AV-unprocessed.smi

> <i_m_source_file_index>
2099

> <i_lp_mmshare_version>
43012

> <i_f3d_flags>
0

> <s_epik_input>
W0NIM11bQ0BASF0xW0NIMl1bQ0gyXVtDQEhdKFtDSDJdW0NIMl0xKVtOSF1DKD1PKVtOSF1jMm5uW2NIXXMy

> <s_epik_cmdline>
J2VwaWtfcHl0aG9uJywgJy1waCcsICc3LjAnLCAnLXRuJywgJzgnLCAnLW1hJywgJzIwMCcsICctbWV0YWxfYmluZGluZycsICctaW1hZScsICc8aW5maWxlLm1hZT4nLCAnLW9tYWUnLCAnPG91dGZpbGUubWFlPic=

> <r_lp_tautomer_probability>
1

> <r_epik_Ionization_Penalty>
4.54895

> <r_epik_Ionization_Penalty_Charging>
4.4996

> <r_epik_Ionization_Penalty_Neutral>
0.0493438

> <r_epik_State_Penalty>
4.4993

> <r_epik_Charging_Adjusted_Penalty>
8.99891

> <i_epik_Tot_Q>
-1

> <i_epik_Tot_abs_Q>
1

> <r_epik_Metal_State_Penalty>
0.819079

> <b_epik_Metal_Only>
1

> <s_lp_Force_Field>
OPLS_2005

> <r_lp_Energy>
6.68644

> <b_lp_Chiralities_Consistent>
1

> <s_lp_Variant>
AV-unprocessed.smi:2099-3

> <Gold.Version>
5.8.1

> <Gold.Id.Protein>
6NUR|6NUR_protein|mol2

> <Gold.PLP.Fitness>
38.0406

> <Gold.PLP.PLP>
-33.1006

> <Gold.PLP.part.hbond>
-2.9899

> <Gold.PLP.part.metal>
0.0000

> <Gold.PLP.part.buried>
-4.1481

> <Gold.PLP.part.nonpolar>
-26.4667

> <Gold.PLP.part.repulsive>
1.3425

> <Gold.PLP.ligand.clash>
0.0000

> <Gold.PLP.ligand.torsion>
0.5666

> <Gold.PLP.Chemscore.Hbond>
1.0273

> <Gold.PLP.Chemscore.CHOScore>
0.9958

> <Gold.PLP.Chemscore.Metal>
0.0000

> <Gold.Chemscore.Hbonds>
donor molecule, donor type, donor heavy atom, donor atom, acceptor molecule, acceptor atom, score
      L1  H     6    26       P1  8028  1.00
      P1  H  8011  8017       L1     9  0.03
      L1  C    13    27       P1 10175  0.71

> <Gold.PLP.Chemscore.Internal.Correction>
0.0039

> <Gold.Rescore>
     Score         DG    S(hbond)    S(metal)    S(lipo)     H(rot)  DE(clash)    DE(int)     intcor
     13.27     -16.67       1.02        0.00      88.38       1.00       0.09       3.31       ----

> <Gold.Chemscore.Fitness>
13.2724

> <Gold.Chemscore.DG>
-16.6665

> <Gold.Chemscore.ZeroCoef>
-5.4800

> <Gold.Chemscore.Hbond>
1.0196

> <Gold.Chemscore.Metal>
0.0000

> <Gold.Chemscore.Lipo>
88.3837

> <Gold.Chemscore.Internal_Hbond>
0.0000

> <Gold.Chemscore.DEClash>
0.0866

> <Gold.Chemscore.DEInternal>
3.3076

> <Gold.Chemscore.Rot>
1.0000

> <Gold.Chemscore.Internal.Correction>
   9.000000E+99

> <Gold.Chemscore.Hbonds>
donor molecule, donor type, donor heavy atom, donor atom, acceptor molecule, acceptor atom, score
      L1  H     6    26       P1  8028  0.96

> <Gold.Chemscore.Hbond.Weighted>
-3.4056

> <Gold.Chemscore.Metal.Weighted>
-0.0000

> <Gold.Chemscore.Lipo.Weighted>
-10.3409

> <Gold.Chemscore.Internal_Hbond.Weighted>
0.0000

> <Gold.Chemscore.DEClash.Weighted>
0.0866

> <Gold.Chemscore.DEInternal.Weighted>
3.3076

> <Gold.Chemscore.Rot.Weighted>
2.5600

> <Gold.Chemscore.Internal.Correction.Weighted>
   9.000000E+99

> <Gold.Protein.RotatedTorsions>
[ 6907 6896 6895 6894 ] final  168.37 input  -60.11 | X-H torsion
[ 7974 7965 7964 7962 ] final -160.30 input  175.53 | X-H torsion
[ 8008 7997 7996 7995 ] final  171.36 input   59.86 | X-H torsion
[ 10167 10162 10161 10158 ] final  -44.38 input  -65.29 | X-H torsion
[ 10718 10713 10712 10709 ] final   74.81 input   66.30 | X-H torsion
[ 10763 10752 10751 10750 ] final  121.37 input  -60.55 | X-H torsion
[ 11005 11000 10999 10996 ] final   27.54 input  -57.11 | X-H torsion

> <Gold.Protein.ActiveResidues>
 VAL166  LYS551  ARG553  GLY616  TRP617  ASP618  TYR619  PRO620  LYS621  CYS622 
 ASP623  PHE694  ASN695  SER759  ASP760  ASP761  ALA762  ILE779  LEU786  VAL792 
 PHE793  MET794  SER795  GLU796  ALA797  LYS798  CYS799  TRP800  GLU811  SER814 

> <Gold.Protein.RotatedAtoms>
  151.8488  133.3436  159.3666 H   0  0  0  0  0  0  0  0  0  0  0  0  # atno 6907 bound_to 6896
  150.7213  134.5320  159.5714 H   0  0  0  0  0  0  0  0  0  0  0  0  # atno 6908 bound_to 6896
  152.2809  134.7830  160.0448 H   0  0  0  0  0  0  0  0  0  0  0  0  # atno 6909 bound_to 6896
  144.7432  140.3561  143.6106 H   0  0  0  0  0  0  0  0  0  0  0  0  # atno 7974 bound_to 7965
  156.1278  140.1514  156.9110 H   0  0  0  0  0  0  0  0  0  0  0  0  # atno 8008 bound_to 7997
  154.4885  140.0858  156.7582 H   0  0  0  0  0  0  0  0  0  0  0  0  # atno 8009 bound_to 7997
  155.4311  140.3427  155.4282 H   0  0  0  0  0  0  0  0  0  0  0  0  # atno 8010 bound_to 7997
  140.6899  143.2933  151.3487 H   0  0  0  0  0  0  0  0  0  0  0  0  # atno 10167 bound_to 10162
  157.6608  130.9696  150.1264 H   0  0  0  0  0  0  0  0  0  0  0  0  # atno 10718 bound_to 10713
  153.6131  135.3427  155.2985 H   0  0  0  0  0  0  0  0  0  0  0  0  # atno 10763 bound_to 10752
  154.8615  135.4255  154.2289 H   0  0  0  0  0  0  0  0  0  0  0  0  # atno 10764 bound_to 10752
  153.3144  135.7034  153.7159 H   0  0  0  0  0  0  0  0  0  0  0  0  # atno 10765 bound_to 10752
  140.3251  134.2500  155.7711 H   0  0  0  0  0  0  0  0  0  0  0  0  # atno 11005 bound_to 11000
  145.7226  139.1714  143.2476 LP  0  0  0  0  0  0  0  0  0  0  0  0  # atno 17320 bound_to 7965
  146.1266  140.7240  142.9432 LP  0  0  0  0  0  0  0  0  0  0  0  0  # atno 17321 bound_to 7965
  139.6291  144.0755  152.2461 LP  0  0  0  0  0  0  0  0  0  0  0  0  # atno 17342 bound_to 10162
  140.0224  144.6143  150.7555 LP  0  0  0  0  0  0  0  0  0  0  0  0  # atno 17343 bound_to 10162
  156.2122  130.3667  149.8657 LP  0  0  0  0  0  0  0  0  0  0  0  0  # atno 17370 bound_to 10713
  156.6532  130.8752  151.3535 LP  0  0  0  0  0  0  0  0  0  0  0  0  # atno 17371 bound_to 10713
  141.2077  133.7798  157.0103 LP  0  0  0  0  0  0  0  0  0  0  0  0  # atno 17394 bound_to 11000
  140.0908  134.9593  157.1773 LP  0  0  0  0  0  0  0  0  0  0  0  0  # atno 17395 bound_to 11000

$$$$
