AV-unprocessed.smi:120|AV-procd|sdf|1137|dock6
  -GOLD-   2262018263D 1   1.00000     0.00000
 Structure written by MMmdl.
 45 48  0  0  0  0  0  0  0  0  1 V2000
  147.7340  131.3621  158.5508 C   0  0  0  0  0  0  0  0  0  0  0  0
  147.0431  131.6561  159.7564 O   0  0  0  0  0  0  0  0  0  0  0  0
  147.1168  132.9406  160.2518 C   0  0  0  0  0  0  0  0  0  0  0  0
  146.5337  133.1745  161.5120 C   0  0  0  0  0  0  0  0  0  0  0  0
  146.5715  134.4556  162.0896 C   0  0  0  0  0  0  0  0  0  0  0  0
  147.1944  135.5170  161.4086 C   0  0  0  0  0  0  0  0  0  0  0  0
  147.7862  135.3182  160.1400 C   0  0  0  0  0  0  0  0  0  0  0  0
  148.4402  136.4328  159.4203 C   0  0  0  0  0  0  0  0  0  0  0  0
  147.9171  137.6521  159.3929 N   0  0  0  0  0  0  0  0  0  0  0  0
  148.8498  138.3738  158.6326 O   0  0  0  0  0  0  0  0  0  0  0  0
  149.8225  137.4901  158.2942 C   0  0  0  0  0  0  0  0  0  0  0  0
  150.9763  137.9755  157.4685 C   0  0  0  0  0  0  0  0  0  0  0  0
  151.5670  139.1733  158.0451 N   0  0  0  0  0  0  0  0  0  0  0  0
  152.8011  139.0304  158.7251 C   0  0  0  0  0  0  0  0  0  0  0  0
  153.3495  137.9354  158.8607 O   0  0  0  0  0  0  0  0  0  0  0  0
  153.3647  140.2791  159.2267 C   0  0  0  0  0  0  0  0  0  0  0  0
  154.5359  140.2621  159.8853 F   0  0  0  0  0  0  0  0  0  0  0  0
  152.7332  141.4570  159.0328 C   0  0  0  0  0  0  0  0  0  0  0  0
  151.5274  141.5663  158.3602 N   0  0  0  0  0  0  0  0  0  0  0  0
  150.8663  142.9093  158.1404 C   0  0  2  0  0  0  0  0  0  0  0  0
  151.8098  143.8440  157.3742 C   0  0  0  0  0  0  0  0  0  0  0  0
  152.4822  144.5980  158.5004 C   0  0  0  0  0  0  0  0  0  0  0  0
  151.3489  144.7086  159.5135 C   0  0  0  0  0  0  0  0  0  0  0  0
  150.6046  143.5001  159.3812 O   0  0  0  0  0  0  0  0  0  0  0  0
  150.9137  140.4104  157.8303 C   0  0  0  0  0  0  0  0  0  0  0  0
  149.8617  140.4914  157.1919 O   0  0  0  0  0  0  0  0  0  0  0  0
  149.6145  136.2575  158.7565 N   0  0  0  0  0  0  0  0  0  0  0  0
  147.7372  134.0210  159.5753 C   0  0  0  0  0  0  0  0  0  0  0  0
  147.5923  130.3104  158.3022 H   0  0  0  0  0  0  0  0  0  0  0  0
  148.8064  131.5343  158.6537 H   0  0  0  0  0  0  0  0  0  0  0  0
  147.3514  131.9522  157.7169 H   0  0  0  0  0  0  0  0  0  0  0  0
  146.0549  132.3638  162.0414 H   0  0  0  0  0  0  0  0  0  0  0  0
  146.1217  134.6249  163.0568 H   0  0  0  0  0  0  0  0  0  0  0  0
  147.2084  136.4932  161.8707 H   0  0  0  0  0  0  0  0  0  0  0  0
  151.7406  137.2027  157.3800 H   0  0  0  0  0  0  0  0  0  0  0  0
  150.6615  138.2105  156.4503 H   0  0  0  0  0  0  0  0  0  0  0  0
  153.2065  142.3473  159.4195 H   0  0  0  0  0  0  0  0  0  0  0  0
  149.9265  142.7056  157.6247 H   0  0  0  0  0  0  0  0  0  0  0  0
  152.4998  143.3026  156.7258 H   0  0  0  0  0  0  0  0  0  0  0  0
  151.2100  144.5217  156.7653 H   0  0  0  0  0  0  0  0  0  0  0  0
  153.3029  144.0091  158.9119 H   0  0  0  0  0  0  0  0  0  0  0  0
  152.8759  145.5671  158.1932 H   0  0  0  0  0  0  0  0  0  0  0  0
  151.7082  144.8487  160.5333 H   0  0  0  0  0  0  0  0  0  0  0  0
  150.6986  145.5480  159.2636 H   0  0  0  0  0  0  0  0  0  0  0  0
  148.1926  133.8668  158.6092 H   0  0  0  0  0  0  0  0  0  0  0  0
  1  2  1  0  0  0  0
  1 29  1  0  0  0  0
  1 30  1  0  0  0  0
  1 31  1  0  0  0  0
  2  3  1  0  0  0  0
  3 28  1  0  0  0  0
  3  4  2  0  0  0  0
  4  5  1  0  0  0  0
  4 32  1  0  0  0  0
  5  6  2  0  0  0  0
  5 33  1  0  0  0  0
  6  7  1  0  0  0  0
  6 34  1  0  0  0  0
  7  8  1  0  0  0  0
  7 28  2  0  0  0  0
  8 27  1  0  0  0  0
  8  9  2  0  0  0  0
  9 10  1  0  0  0  0
 10 11  1  0  0  0  0
 11 12  1  0  0  0  0
 11 27  2  0  0  0  0
 12 13  1  0  0  0  0
 12 35  1  0  0  0  0
 12 36  1  0  0  0  0
 13 25  1  0  0  0  0
 13 14  1  0  0  0  0
 14 15  2  0  0  0  0
 14 16  1  0  0  0  0
 16 17  1  0  0  0  0
 16 18  2  0  0  0  0
 18 19  1  0  0  0  0
 18 37  1  0  0  0  0
 19 20  1  0  0  0  0
 19 25  1  0  0  0  0
 20 24  1  0  0  0  0
 20 21  1  0  0  0  0
 20 38  1  0  0  0  0
 21 22  1  0  0  0  0
 21 39  1  0  0  0  0
 21 40  1  0  0  0  0
 22 23  1  0  0  0  0
 22 41  1  0  0  0  0
 22 42  1  0  0  0  0
 23 24  1  0  0  0  0
 23 43  1  0  0  0  0
 23 44  1  0  0  0  0
 25 26  2  0  0  0  0
 28 45  1  0  0  0  0
M  END
> <s_m_source_file>
AV-unprocessed.smi

> <i_m_source_file_index>
120

> <i_lp_mmshare_version>
43012

> <i_f3d_flags>
0

> <s_epik_input>
W0NIM11PYzFbY0hdW2NIXVtjSF1jKFtjSF0xKS1jMm5vYyhuMilbQ0gyXW4zYyg9TyljKEYpW2NIXW4oYzM9TylbQ0BASF00W0NIMl1bQ0gyXVtDSDJdTzQ=

> <s_epik_cmdline>
J2VwaWtfcHl0aG9uJywgJy1waCcsICc3LjAnLCAnLXRuJywgJzgnLCAnLW1hJywgJzIwMCcsICctbWV0YWxfYmluZGluZycsICctaW1hZScsICc8aW5maWxlLm1hZT4nLCAnLW9tYWUnLCAnPG91dGZpbGUubWFlPic=

> <r_lp_tautomer_probability>
1

> <r_epik_Ionization_Penalty>
4.93314e-09

> <r_epik_Ionization_Penalty_Charging>
4.92654e-09

> <r_epik_Ionization_Penalty_Neutral>
6.60436e-12

> <r_epik_State_Penalty>
-0

> <r_epik_Charging_Adjusted_Penalty>
4.92654e-09

> <i_epik_Tot_Q>
0

> <i_epik_Tot_abs_Q>
0

> <r_epik_Metal_State_Penalty>
-0

> <b_epik_Metal_Only>
0

> <s_epik_Chemistry_Notes>
This compound contains an acetal/aminal-like group ( X-CH(R)-Y where X, Y are N, S, or O) that may be acid/base labile, releasing an aldehyde.

> <s_lp_Force_Field>
OPLS_2005

> <r_lp_Energy>
37.1389

> <b_lp_Chiralities_Consistent>
1

> <s_lp_Variant>
AV-unprocessed.smi:120-1

> <Gold.Version>
5.8.1

> <Gold.Id.Protein>
6NUR|6NUR_protein|mol2

> <Gold.PLP.Fitness>
56.4568

> <Gold.PLP.PLP>
-53.6920

> <Gold.PLP.part.hbond>
-5.4164

> <Gold.PLP.part.metal>
0.0000

> <Gold.PLP.part.buried>
-6.4472

> <Gold.PLP.part.nonpolar>
-43.4377

> <Gold.PLP.part.repulsive>
0.1069

> <Gold.PLP.ligand.clash>
0.0000

> <Gold.PLP.ligand.torsion>
0.9993

> <Gold.PLP.Chemscore.Hbond>
1.5584

> <Gold.PLP.Chemscore.CHOScore>
0.0000

> <Gold.PLP.Chemscore.Metal>
0.0000

> <Gold.Chemscore.Hbonds>
donor molecule, donor type, donor heavy atom, donor atom, acceptor molecule, acceptor atom, score
      P1  H  6896  6907       L1    27  0.78
      P1  H  6934  6947       L1     9  0.35

> <Gold.PLP.Chemscore.Internal.Correction>
0.0882

> <Gold.Rescore>
     Score         DG    S(hbond)    S(metal)    S(lipo)     H(rot)  DE(clash)    DE(int)     intcor
     14.56     -17.39       1.21        0.00     110.63       1.99       1.82       1.01       ----

> <Gold.Chemscore.Fitness>
14.5564

> <Gold.Chemscore.DG>
-17.3890

> <Gold.Chemscore.ZeroCoef>
-5.4800

> <Gold.Chemscore.Hbond>
1.2138

> <Gold.Chemscore.Metal>
0.0000

> <Gold.Chemscore.Lipo>
110.6303

> <Gold.Chemscore.Internal_Hbond>
0.0000

> <Gold.Chemscore.DEClash>
1.8225

> <Gold.Chemscore.DEInternal>
1.0101

> <Gold.Chemscore.Rot>
1.9879

> <Gold.Chemscore.Internal.Correction>
   9.000000E+99

> <Gold.Chemscore.Hbonds>
donor molecule, donor type, donor heavy atom, donor atom, acceptor molecule, acceptor atom, score
      P1  H  6896  6907       L1    27  0.59
      P1  H  6934  6947       L1     9  0.17

> <Gold.Chemscore.Hbond.Weighted>
-4.0542

> <Gold.Chemscore.Metal.Weighted>
-0.0000

> <Gold.Chemscore.Lipo.Weighted>
-12.9437

> <Gold.Chemscore.Internal_Hbond.Weighted>
0.0000

> <Gold.Chemscore.DEClash.Weighted>
1.8225

> <Gold.Chemscore.DEInternal.Weighted>
1.0101

> <Gold.Chemscore.Rot.Weighted>
5.0890

> <Gold.Chemscore.Internal.Correction.Weighted>
   9.000000E+99

> <Gold.Protein.RotatedTorsions>
[ 6907 6896 6895 6894 ] final  -68.35 input  -60.11 | X-H torsion
[ 7974 7965 7964 7962 ] final  -64.85 input  175.53 | X-H torsion
[ 8008 7997 7996 7995 ] final  140.78 input   59.86 | X-H torsion
[ 10167 10162 10161 10158 ] final  -57.44 input  -65.29 | X-H torsion
[ 10718 10713 10712 10709 ] final   -0.72 input   66.30 | X-H torsion
[ 10763 10752 10751 10750 ] final  -54.41 input  -60.55 | X-H torsion
[ 11005 11000 10999 10996 ] final  153.39 input  -57.11 | X-H torsion

> <Gold.Protein.ActiveResidues>
 VAL166  LYS551  ARG553  GLY616  TRP617  ASP618  TYR619  PRO620  LYS621  CYS622 
 ASP623  PHE694  ASN695  SER759  ASP760  ASP761  ALA762  ILE779  LEU786  VAL792 
 PHE793  MET794  SER795  GLU796  ALA797  LYS798  CYS799  TRP800  GLU811  SER814 

> <Gold.Protein.RotatedAtoms>
  150.7361  134.5752  159.5910 H   0  0  0  0  0  0  0  0  0  0  0  0  # atno 6907 bound_to 6896
  152.3180  134.7412  160.0329 H   0  0  0  0  0  0  0  0  0  0  0  0  # atno 6908 bound_to 6896
  151.7938  133.3326  159.3543 H   0  0  0  0  0  0  0  0  0  0  0  0  # atno 6909 bound_to 6896
  145.7616  140.8858  143.0427 H   0  0  0  0  0  0  0  0  0  0  0  0  # atno 7974 bound_to 7965
  156.2975  140.2332  156.4457 H   0  0  0  0  0  0  0  0  0  0  0  0  # atno 8008 bound_to 7997
  154.8147  140.0441  157.1388 H   0  0  0  0  0  0  0  0  0  0  0  0  # atno 8009 bound_to 7997
  154.9384  140.3026  155.5136 H   0  0  0  0  0  0  0  0  0  0  0  0  # atno 8010 bound_to 7997
  140.6258  143.2437  151.5368 H   0  0  0  0  0  0  0  0  0  0  0  0  # atno 10167 bound_to 10162
  156.8163  130.5441  149.5702 H   0  0  0  0  0  0  0  0  0  0  0  0  # atno 10718 bound_to 10713
  154.1744  135.6453  153.5018 H   0  0  0  0  0  0  0  0  0  0  0  0  # atno 10763 bound_to 10752
  153.0075  135.5391  154.6579 H   0  0  0  0  0  0  0  0  0  0  0  0  # atno 10764 bound_to 10752
  154.5927  135.2936  155.0591 H   0  0  0  0  0  0  0  0  0  0  0  0  # atno 10765 bound_to 10752
  140.1394  134.8749  157.2310 H   0  0  0  0  0  0  0  0  0  0  0  0  # atno 11005 bound_to 11000
  144.6829  139.9731  143.7482 LP  0  0  0  0  0  0  0  0  0  0  0  0  # atno 17320 bound_to 7965
  146.0258  139.3291  143.0785 LP  0  0  0  0  0  0  0  0  0  0  0  0  # atno 17321 bound_to 7965
  139.5478  144.2474  152.1475 LP  0  0  0  0  0  0  0  0  0  0  0  0  # atno 17342 bound_to 10162
  140.1705  144.4940  150.6582 LP  0  0  0  0  0  0  0  0  0  0  0  0  # atno 17343 bound_to 10162
  156.1015  130.5972  150.9901 LP  0  0  0  0  0  0  0  0  0  0  0  0  # atno 17370 bound_to 10713
  157.6480  131.0901  150.8112 LP  0  0  0  0  0  0  0  0  0  0  0  0  # atno 17371 bound_to 10713
  140.2741  134.3425  155.7364 LP  0  0  0  0  0  0  0  0  0  0  0  0  # atno 17394 bound_to 11000
  141.2183  133.7440  156.9267 LP  0  0  0  0  0  0  0  0  0  0  0  0  # atno 17395 bound_to 11000

$$$$
