AV-unprocessed.smi:2671|AV-procd|sdf|10348|dock7
  -GOLD-   2272014373D 1   1.00000     0.00000
 Structure written by MMmdl.
 29 30  0  0  0  0  0  0  0  0  1 V2000
  149.2082  133.8268  158.5423 O   0  0  0  0  0  0  0  0  0  0  0  0
  148.6896  134.8277  159.0316 C   0  0  0  0  0  0  0  0  0  0  0  0
  148.0296  134.8543  160.3361 C   0  0  0  0  0  0  0  0  0  0  0  0
  147.4841  136.0020  160.8077 C   0  0  0  0  0  0  0  0  0  0  0  0
  146.7895  136.0479  162.1592 C   0  0  0  0  0  0  0  0  0  0  0  0
  147.4769  136.8139  163.0062 F   0  0  0  0  0  0  0  0  0  0  0  0
  145.5677  136.5649  162.0307 F   0  0  0  0  0  0  0  0  0  0  0  0
  146.6746  134.8315  162.6948 F   0  0  0  0  0  0  0  0  0  0  0  0
  147.5384  137.1826  160.0516 N   0  0  0  0  0  0  0  0  0  0  0  0
  148.1168  137.1835  158.8911 C   0  0  0  0  0  0  0  0  0  0  0  0
  148.3300  138.5515  157.7165 S   0  0  0  0  0  0  0  0  0  0  0  0
  150.1403  138.6595  157.6220 C   0  0  0  0  0  0  0  0  0  0  0  0
  150.6885  138.0051  156.3465 C   0  0  2  0  0  0  0  0  0  0  0  0
  152.0661  138.5094  155.9148 C   0  0  0  0  0  0  0  0  0  0  0  0
  152.0451  138.2156  154.4327 C   0  0  0  0  0  0  0  0  0  0  0  0
  150.6018  138.5515  154.0714 C   0  0  0  0  0  0  0  0  0  0  0  0
  149.8322  138.2887  155.2425 O   0  0  0  0  0  0  0  0  0  0  0  0
  148.6907  136.0137  158.3810 N   0  0  0  0  0  0  0  0  0  0  0  0
  149.1331  136.0496  157.4743 H   0  0  0  0  0  0  0  0  0  0  0  0
  147.9783  133.9503  160.9253 H   0  0  0  0  0  0  0  0  0  0  0  0
  150.5775  138.1925  158.5053 H   0  0  0  0  0  0  0  0  0  0  0  0
  150.4244  139.7121  157.6439 H   0  0  0  0  0  0  0  0  0  0  0  0
  150.7195  136.9208  156.4646 H   0  0  0  0  0  0  0  0  0  0  0  0
  152.1544  139.5842  156.0806 H   0  0  0  0  0  0  0  0  0  0  0  0
  152.8851  138.0136  156.4366 H   0  0  0  0  0  0  0  0  0  0  0  0
  152.7739  138.7970  153.8673 H   0  0  0  0  0  0  0  0  0  0  0  0
  152.2409  137.1567  154.2587 H   0  0  0  0  0  0  0  0  0  0  0  0
  150.5069  139.6101  153.8268 H   0  0  0  0  0  0  0  0  0  0  0  0
  150.2421  137.9741  153.2195 H   0  0  0  0  0  0  0  0  0  0  0  0
  1  2  2  0  0  0  0
  2 18  1  0  0  0  0
  2  3  1  0  0  0  0
  3 20  1  0  0  0  0
  3  4  2  0  0  0  0
  4  5  1  0  0  0  0
  4  9  1  0  0  0  0
  5  6  1  0  0  0  0
  5  7  1  0  0  0  0
  5  8  1  0  0  0  0
  9 10  2  0  0  0  0
 10 11  1  0  0  0  0
 10 18  1  0  0  0  0
 11 12  1  0  0  0  0
 12 13  1  0  0  0  0
 12 21  1  0  0  0  0
 12 22  1  0  0  0  0
 13 17  1  0  0  0  0
 13 14  1  0  0  0  0
 13 23  1  0  0  0  0
 14 15  1  0  0  0  0
 14 24  1  0  0  0  0
 14 25  1  0  0  0  0
 15 16  1  0  0  0  0
 15 26  1  0  0  0  0
 15 27  1  0  0  0  0
 16 17  1  0  0  0  0
 16 28  1  0  0  0  0
 16 29  1  0  0  0  0
 18 19  1  0  0  0  0
M  END
> <s_m_source_file>
AV-unprocessed.smi

> <i_m_source_file_index>
2671

> <i_lp_mmshare_version>
43012

> <i_f3d_flags>
0

> <s_epik_input>
W09IXWMxW2NIXWMoQyhGKShGKUYpbmMobjEpU1tDSDJdW0NAQEhdMltDSDJdW0NIMl1bQ0gyXU8y

> <s_epik_cmdline>
J2VwaWtfcHl0aG9uJywgJy1waCcsICc3LjAnLCAnLXRuJywgJzgnLCAnLW1hJywgJzIwMCcsICctbWV0YWxfYmluZGluZycsICctaW1hZScsICc8aW5maWxlLm1hZT4nLCAnLW9tYWUnLCAnPG91dGZpbGUubWFlPic=

> <r_lp_tautomer_probability>
0.660323

> <r_epik_Ionization_Penalty>
0.14469

> <r_epik_Ionization_Penalty_Charging>
0.14469

> <r_epik_Ionization_Penalty_Neutral>
3.1007e-10

> <r_epik_State_Penalty>
0.804349

> <r_epik_Charging_Adjusted_Penalty>
0.949039

> <i_epik_Tot_Q>
0

> <i_epik_Tot_abs_Q>
0

> <r_epik_Metal_State_Penalty>
1.52783

> <b_epik_Metal_Only>
0

> <s_lp_Force_Field>
OPLS_2005

> <r_lp_Energy>
21.2239

> <b_lp_Chiralities_Consistent>
1

> <s_lp_Variant>
AV-unprocessed.smi:2671-3

> <Gold.Version>
5.8.1

> <Gold.Id.Protein>
6NUR|6NUR_protein|mol2

> <Gold.PLP.Fitness>
34.9537

> <Gold.PLP.PLP>
-31.4939

> <Gold.PLP.part.hbond>
-2.7118

> <Gold.PLP.part.metal>
0.0000

> <Gold.PLP.part.buried>
-3.1743

> <Gold.PLP.part.nonpolar>
-26.1378

> <Gold.PLP.part.repulsive>
0.1599

> <Gold.PLP.ligand.clash>
1.0744

> <Gold.PLP.ligand.torsion>
0.6688

> <Gold.PLP.Chemscore.Hbond>
1.9553

> <Gold.PLP.Chemscore.CHOScore>
0.0000

> <Gold.PLP.Chemscore.Metal>
0.0000

> <Gold.Chemscore.Hbonds>
donor molecule, donor type, donor heavy atom, donor atom, acceptor molecule, acceptor atom, score
      P1  H  6896  6908       L1     1  1.00
      P1  H  6934  6947       L1     9  0.87

> <Gold.PLP.Chemscore.Internal.Correction>
0.0059

> <Gold.Rescore>
     Score         DG    S(hbond)    S(metal)    S(lipo)     H(rot)  DE(clash)    DE(int)     intcor
     12.46     -12.99       1.74        0.00      51.55       1.69       0.07       0.46       ----

> <Gold.Chemscore.Fitness>
12.4557

> <Gold.Chemscore.DG>
-12.9898

> <Gold.Chemscore.ZeroCoef>
-5.4800

> <Gold.Chemscore.Hbond>
1.7399

> <Gold.Chemscore.Metal>
0.0000

> <Gold.Chemscore.Lipo>
51.5456

> <Gold.Chemscore.Internal_Hbond>
0.0000

> <Gold.Chemscore.DEClash>
0.0730

> <Gold.Chemscore.DEInternal>
0.4610

> <Gold.Chemscore.Rot>
1.6924

> <Gold.Chemscore.Internal.Correction>
   9.000000E+99

> <Gold.Chemscore.Hbonds>
donor molecule, donor type, donor heavy atom, donor atom, acceptor molecule, acceptor atom, score
      P1  H  6896  6908       L1     1  0.39
      P1  H  6934  6947       L1     9  0.74

> <Gold.Chemscore.Hbond.Weighted>
-5.8114

> <Gold.Chemscore.Metal.Weighted>
-0.0000

> <Gold.Chemscore.Lipo.Weighted>
-6.0308

> <Gold.Chemscore.Internal_Hbond.Weighted>
0.0000

> <Gold.Chemscore.DEClash.Weighted>
0.0730

> <Gold.Chemscore.DEInternal.Weighted>
0.4610

> <Gold.Chemscore.Rot.Weighted>
4.3324

> <Gold.Chemscore.Internal.Correction.Weighted>
   9.000000E+99

> <Gold.Protein.RotatedTorsions>
[ 6907 6896 6895 6894 ] final  119.24 input  -60.11 | X-H torsion
[ 7974 7965 7964 7962 ] final -114.11 input  175.53 | X-H torsion
[ 8008 7997 7996 7995 ] final   84.29 input   59.86 | X-H torsion
[ 10167 10162 10161 10158 ] final  131.76 input  -65.29 | X-H torsion
[ 10718 10713 10712 10709 ] final   34.86 input   66.30 | X-H torsion
[ 10763 10752 10751 10750 ] final  -17.29 input  -60.55 | X-H torsion
[ 11005 11000 10999 10996 ] final -137.02 input  -57.11 | X-H torsion

> <Gold.Protein.ActiveResidues>
 VAL166  LYS551  ARG553  GLY616  TRP617  ASP618  TYR619  PRO620  LYS621  CYS622 
 ASP623  PHE694  ASN695  SER759  ASP760  ASP761  ALA762  ILE779  LEU786  VAL792 
 PHE793  MET794  SER795  GLU796  ALA797  LYS798  CYS799  TRP800  GLU811  SER814 

> <Gold.Protein.RotatedAtoms>
  152.4486  133.7584  159.6732 H   0  0  0  0  0  0  0  0  0  0  0  0  # atno 6907 bound_to 6896
  150.8392  133.7954  159.3074 H   0  0  0  0  0  0  0  0  0  0  0  0  # atno 6908 bound_to 6896
  151.5584  135.1068  160.0018 H   0  0  0  0  0  0  0  0  0  0  0  0  # atno 6909 bound_to 6896
  145.1241  140.8686  143.3797 H   0  0  0  0  0  0  0  0  0  0  0  0  # atno 7974 bound_to 7965
  155.9351  140.3412  155.6281 H   0  0  0  0  0  0  0  0  0  0  0  0  # atno 8008 bound_to 7997
  155.7109  140.0771  157.2390 H   0  0  0  0  0  0  0  0  0  0  0  0  # atno 8009 bound_to 7997
  154.4092  140.1623  156.2283 H   0  0  0  0  0  0  0  0  0  0  0  0  # atno 8010 bound_to 7997
  139.5369  144.6692  151.4754 H   0  0  0  0  0  0  0  0  0  0  0  0  # atno 10167 bound_to 10162
  157.3156  130.7422  149.6752 H   0  0  0  0  0  0  0  0  0  0  0  0  # atno 10718 bound_to 10713
  153.5716  135.7007  153.5502 H   0  0  0  0  0  0  0  0  0  0  0  0  # atno 10763 bound_to 10752
  153.3339  135.4039  155.1517 H   0  0  0  0  0  0  0  0  0  0  0  0  # atno 10764 bound_to 10752
  154.8632  135.3725  154.5239 H   0  0  0  0  0  0  0  0  0  0  0  0  # atno 10765 bound_to 10752
  140.8750  134.2003  157.4627 H   0  0  0  0  0  0  0  0  0  0  0  0  # atno 11005 bound_to 11000
  145.0708  139.3033  143.5833 LP  0  0  0  0  0  0  0  0  0  0  0  0  # atno 17320 bound_to 7965
  146.3519  140.0182  142.8661 LP  0  0  0  0  0  0  0  0  0  0  0  0  # atno 17321 bound_to 7965
  140.6580  143.8558  150.6857 LP  0  0  0  0  0  0  0  0  0  0  0  0  # atno 17342 bound_to 10162
  140.1943  143.4011  152.1839 LP  0  0  0  0  0  0  0  0  0  0  0  0  # atno 17343 bound_to 10162
  155.9681  130.4238  150.4580 LP  0  0  0  0  0  0  0  0  0  0  0  0  # atno 17370 bound_to 10713
  157.2586  131.0562  151.2334 LP  0  0  0  0  0  0  0  0  0  0  0  0  # atno 17371 bound_to 10713
  139.8715  134.9792  156.5026 LP  0  0  0  0  0  0  0  0  0  0  0  0  # atno 17394 bound_to 11000
  140.8528  133.8119  155.9186 LP  0  0  0  0  0  0  0  0  0  0  0  0  # atno 17395 bound_to 11000

$$$$
