AV-unprocessed.smi:3024|AV-procd|sdf|11503|dock3
  -GOLD-   2272016443D 1   1.00000     0.00000
 Structure written by MMmdl.
 31 32  0  0  0  0  0  0  0  0  1 V2000
  150.3653  140.4899  156.3300 O   0  0  0  0  0  0  0  0  0  0  0  0
  150.0397  141.6669  156.1778 C   0  0  0  0  0  0  0  0  0  0  0  0
  149.2007  142.0857  155.2199 N   0  0  0  0  0  0  0  0  0  0  0  0
  148.5728  141.2282  154.2208 C   0  0  0  0  0  0  0  0  0  0  0  0
  147.0569  141.4723  154.1407 C   0  0  2  0  0  0  0  0  0  0  0  0
  146.6830  142.9107  153.7877 C   0  0  0  0  0  0  0  0  0  0  0  0
  145.2913  143.0758  154.3795 C   0  0  0  0  0  0  0  0  0  0  0  0
  145.1411  141.8792  155.3236 C   0  0  0  0  0  0  0  0  0  0  0  0
  146.4391  141.3087  155.4073 O   0  0  0  0  0  0  0  0  0  0  0  0
  150.4483  142.6915  156.9458 N   0  0  0  0  0  0  0  0  0  0  0  0
  151.3388  142.6640  158.0528 C   0  0  0  0  0  0  0  0  0  0  0  0
  151.8932  143.8857  158.4870 C   0  0  0  0  0  0  0  0  0  0  0  0
  152.7920  143.8853  159.5705 C   0  0  0  0  0  0  0  0  0  0  0  0
  153.1111  142.6540  160.1749 C   0  0  0  0  0  0  0  0  0  0  0  0
  152.6029  141.4737  159.7623 N   0  0  0  0  0  0  0  0  0  0  0  0
  151.7395  141.4816  158.7235 C   0  0  0  0  0  0  0  0  0  0  0  0
  148.9851  143.0706  155.1729 H   0  0  0  0  0  0  0  0  0  0  0  0
  149.0398  141.3599  153.2432 H   0  0  0  0  0  0  0  0  0  0  0  0
  148.7586  140.1947  154.5133 H   0  0  0  0  0  0  0  0  0  0  0  0
  146.5965  140.7863  153.4267 H   0  0  0  0  0  0  0  0  0  0  0  0
  147.3679  143.6081  154.2720 H   0  0  0  0  0  0  0  0  0  0  0  0
  146.7137  143.1011  152.7146 H   0  0  0  0  0  0  0  0  0  0  0  0
  145.2068  144.0229  154.9135 H   0  0  0  0  0  0  0  0  0  0  0  0
  144.5218  143.0561  153.6070 H   0  0  0  0  0  0  0  0  0  0  0  0
  144.7737  142.1653  156.3095 H   0  0  0  0  0  0  0  0  0  0  0  0
  144.4533  141.1440  154.9038 H   0  0  0  0  0  0  0  0  0  0  0  0
  150.0281  143.5880  156.7499 H   0  0  0  0  0  0  0  0  0  0  0  0
  151.6314  144.8139  158.0004 H   0  0  0  0  0  0  0  0  0  0  0  0
  153.2276  144.8061  159.9292 H   0  0  0  0  0  0  0  0  0  0  0  0
  153.7978  142.6158  161.0076 H   0  0  0  0  0  0  0  0  0  0  0  0
  151.3887  140.5068  158.4228 H   0  0  0  0  0  0  0  0  0  0  0  0
  1  2  2  0  0  0  0
  2  3  1  0  0  0  0
  2 10  1  0  0  0  0
  3  4  1  0  0  0  0
  3 17  1  0  0  0  0
  4  5  1  0  0  0  0
  4 18  1  0  0  0  0
  4 19  1  0  0  0  0
  5  9  1  0  0  0  0
  5  6  1  0  0  0  0
  5 20  1  0  0  0  0
  6  7  1  0  0  0  0
  6 21  1  0  0  0  0
  6 22  1  0  0  0  0
  7  8  1  0  0  0  0
  7 23  1  0  0  0  0
  7 24  1  0  0  0  0
  8  9  1  0  0  0  0
  8 25  1  0  0  0  0
  8 26  1  0  0  0  0
 10 11  1  0  0  0  0
 10 27  1  0  0  0  0
 11 16  1  0  0  0  0
 11 12  2  0  0  0  0
 12 13  1  0  0  0  0
 12 28  1  0  0  0  0
 13 14  2  0  0  0  0
 13 29  1  0  0  0  0
 14 15  1  0  0  0  0
 14 30  1  0  0  0  0
 15 16  2  0  0  0  0
 16 31  1  0  0  0  0
M  END
> <s_m_source_file>
AV-unprocessed.smi

> <i_m_source_file_index>
3024

> <i_lp_mmshare_version>
43012

> <i_f3d_flags>
0

> <s_epik_input>
W2NIXTFuW2NIXVtjSF1bY0hdYzFbTkhdQyg9TylbTkhdW0NIMl1bQ0BASF0yW0NIMl1bQ0gyXVtDSDJdTzI=

> <s_epik_cmdline>
J2VwaWtfcHl0aG9uJywgJy1waCcsICc3LjAnLCAnLXRuJywgJzgnLCAnLW1hJywgJzIwMCcsICctbWV0YWxfYmluZGluZycsICctaW1hZScsICc8aW5maWxlLm1hZT4nLCAnLW9tYWUnLCAnPG91dGZpbGUubWFlPic=

> <r_epik_Ionization_Penalty>
0.00471982

> <r_epik_Ionization_Penalty_Charging>
0

> <r_epik_Ionization_Penalty_Neutral>
0.00471982

> <r_epik_State_Penalty>
0.00339234

> <r_epik_Charging_Adjusted_Penalty>
0.00339234

> <i_epik_Tot_Q>
0

> <i_epik_Tot_abs_Q>
0

> <r_epik_Metal_State_Penalty>
-0

> <b_epik_Metal_Only>
0

> <s_lp_Force_Field>
OPLS_2005

> <r_lp_Energy>
19.771

> <b_lp_Chiralities_Consistent>
1

> <s_lp_Variant>
AV-unprocessed.smi:3024-1

> <Gold.Version>
5.8.1

> <Gold.Id.Protein>
6NUR|6NUR_protein|mol2

> <Gold.PLP.Fitness>
40.8421

> <Gold.PLP.PLP>
-35.0484

> <Gold.PLP.part.hbond>
-2.0000

> <Gold.PLP.part.metal>
0.0000

> <Gold.PLP.part.buried>
-6.1028

> <Gold.PLP.part.nonpolar>
-27.9880

> <Gold.PLP.part.repulsive>
0.3257

> <Gold.PLP.ligand.clash>
0.0000

> <Gold.PLP.ligand.torsion>
0.1072

> <Gold.PLP.Chemscore.Hbond>
2.0000

> <Gold.PLP.Chemscore.CHOScore>
0.0000

> <Gold.PLP.Chemscore.Metal>
0.0000

> <Gold.Chemscore.Hbonds>
donor molecule, donor type, donor heavy atom, donor atom, acceptor molecule, acceptor atom, score
      L1  H     3    17       P1  8028  1.00
      L1  H    10    27       P1  8028  1.00

> <Gold.PLP.Chemscore.Internal.Correction>
0.0082

> <Gold.Rescore>
     Score         DG    S(hbond)    S(metal)    S(lipo)     H(rot)  DE(clash)    DE(int)     intcor
     17.47     -18.93       1.95        0.00      86.43       1.24       0.03       1.43       ----

> <Gold.Chemscore.Fitness>
17.4731

> <Gold.Chemscore.DG>
-18.9292

> <Gold.Chemscore.ZeroCoef>
-5.4800

> <Gold.Chemscore.Hbond>
1.9487

> <Gold.Chemscore.Metal>
0.0000

> <Gold.Chemscore.Lipo>
86.4289

> <Gold.Chemscore.Internal_Hbond>
0.0000

> <Gold.Chemscore.DEClash>
0.0261

> <Gold.Chemscore.DEInternal>
1.4300

> <Gold.Chemscore.Rot>
1.2390

> <Gold.Chemscore.Internal.Correction>
   9.000000E+99

> <Gold.Chemscore.Hbonds>
donor molecule, donor type, donor heavy atom, donor atom, acceptor molecule, acceptor atom, score
      L1  H     3    17       P1  8028  1.00
      L1  H    10    27       P1  8028  0.96

> <Gold.Chemscore.Hbond.Weighted>
-6.5088

> <Gold.Chemscore.Metal.Weighted>
-0.0000

> <Gold.Chemscore.Lipo.Weighted>
-10.1122

> <Gold.Chemscore.Internal_Hbond.Weighted>
0.0000

> <Gold.Chemscore.DEClash.Weighted>
0.0261

> <Gold.Chemscore.DEInternal.Weighted>
1.4300

> <Gold.Chemscore.Rot.Weighted>
3.1718

> <Gold.Chemscore.Internal.Correction.Weighted>
   9.000000E+99

> <Gold.Protein.RotatedTorsions>
[ 6907 6896 6895 6894 ] final -160.04 input  -60.11 | X-H torsion
[ 7974 7965 7964 7962 ] final   -5.84 input  175.53 | X-H torsion
[ 8008 7997 7996 7995 ] final  -58.48 input   59.86 | X-H torsion
[ 10167 10162 10161 10158 ] final  -49.60 input  -65.29 | X-H torsion
[ 10718 10713 10712 10709 ] final  -66.48 input   66.30 | X-H torsion
[ 10763 10752 10751 10750 ] final -166.78 input  -60.55 | X-H torsion
[ 11005 11000 10999 10996 ] final   61.27 input  -57.11 | X-H torsion

> <Gold.Protein.ActiveResidues>
 VAL166  LYS551  ARG553  GLY616  TRP617  ASP618  TYR619  PRO620  LYS621  CYS622 
 ASP623  PHE694  ASN695  SER759  ASP760  ASP761  ALA762  ILE779  LEU786  VAL792 
 PHE793  MET794  SER795  GLU796  ALA797  LYS798  CYS799  TRP800  GLU811  SER814 

> <Gold.Protein.RotatedAtoms>
  151.3429  133.3955  159.2672 H   0  0  0  0  0  0  0  0  0  0  0  0  # atno 6907 bound_to 6896
  150.9863  134.9209  159.7884 H   0  0  0  0  0  0  0  0  0  0  0  0  # atno 6908 bound_to 6896
  152.5233  134.3393  159.9263 H   0  0  0  0  0  0  0  0  0  0  0  0  # atno 6909 bound_to 6896
  146.2344  140.2081  142.8335 H   0  0  0  0  0  0  0  0  0  0  0  0  # atno 7974 bound_to 7965
  154.4311  140.1083  156.5964 H   0  0  0  0  0  0  0  0  0  0  0  0  # atno 8008 bound_to 7997
  155.5958  140.3492  155.4560 H   0  0  0  0  0  0  0  0  0  0  0  0  # atno 8009 bound_to 7997
  156.0211  140.1240  157.0345 H   0  0  0  0  0  0  0  0  0  0  0  0  # atno 8010 bound_to 7997
  140.6677  143.2691  151.4239 H   0  0  0  0  0  0  0  0  0  0  0  0  # atno 10167 bound_to 10162
  156.0610  130.4263  150.1715 H   0  0  0  0  0  0  0  0  0  0  0  0  # atno 10718 bound_to 10713
  154.6798  135.2953  154.9628 H   0  0  0  0  0  0  0  0  0  0  0  0  # atno 10763 bound_to 10752
  154.0627  135.6629  153.4818 H   0  0  0  0  0  0  0  0  0  0  0  0  # atno 10764 bound_to 10752
  153.0540  135.5156  154.7836 H   0  0  0  0  0  0  0  0  0  0  0  0  # atno 10765 bound_to 10752
  140.0173  134.6206  155.9691 H   0  0  0  0  0  0  0  0  0  0  0  0  # atno 11005 bound_to 11000
  144.9728  140.8385  143.5444 LP  0  0  0  0  0  0  0  0  0  0  0  0  # atno 17320 bound_to 7965
  145.2065  139.2226  143.5166 LP  0  0  0  0  0  0  0  0  0  0  0  0  # atno 17321 bound_to 7965
  139.5932  144.1453  152.2113 LP  0  0  0  0  0  0  0  0  0  0  0  0  # atno 17342 bound_to 10162
  140.0814  144.5697  150.7120 LP  0  0  0  0  0  0  0  0  0  0  0  0  # atno 17343 bound_to 10162
  156.9783  130.9856  151.3443 LP  0  0  0  0  0  0  0  0  0  0  0  0  # atno 17370 bound_to 10713
  157.5618  130.8251  149.8276 LP  0  0  0  0  0  0  0  0  0  0  0  0  # atno 17371 bound_to 10713
  141.1751  133.6540  156.4797 LP  0  0  0  0  0  0  0  0  0  0  0  0  # atno 17394 bound_to 11000
  140.4449  134.6982  157.5010 LP  0  0  0  0  0  0  0  0  0  0  0  0  # atno 17395 bound_to 11000

$$$$
