AV-unprocessed.smi:240|AV-procd|sdf|1825|dock1
  -GOLD-   2262020423D 1   1.00000     0.00000
 Structure written by MMmdl.
 55 59  0  0  0  0  0  0  0  0  1 V2000
  146.1732  137.4417  157.6516 O   0  0  0  0  0  0  0  0  0  0  0  0
  146.7399  137.3226  158.9406 C   0  0  1  0  0  0  0  0  0  0  0  0
  146.1745  136.1510  159.7406 C   0  0  0  0  0  0  0  0  0  0  0  0
  147.1835  135.9849  160.8752 C   0  0  0  0  0  0  0  0  0  0  0  0
  148.5474  136.3423  160.2678 C   0  0  0  0  0  0  0  0  0  0  0  0
  148.2745  137.1478  158.9751 C   0  0  1  0  0  0  0  0  0  0  0  0
  148.9401  136.5354  157.6968 C   0  0  2  0  0  0  0  0  0  0  0  0
  148.4309  135.1094  157.3533 C   0  0  0  0  0  0  0  0  0  0  0  0
  149.0791  134.6132  156.1878 O   0  0  0  0  0  0  0  0  0  0  0  0
  150.4837  134.5042  156.3693 C   0  0  0  0  0  0  0  0  0  0  0  0
  151.0562  135.9036  156.6243 C   0  0  0  0  0  0  0  0  0  0  0  0
  150.4083  136.5131  157.7806 N   0  0  0  0  0  0  0  0  0  0  0  0
  151.0055  137.6806  158.1105 C   0  0  0  0  0  0  0  0  0  0  0  0
  151.8299  137.7450  159.1894 N   0  0  0  0  0  0  0  0  0  0  0  0
  152.4326  138.8975  159.4971 C   0  0  0  0  0  0  0  0  0  0  0  0
  152.3536  140.0750  158.8720 N   0  0  0  0  0  0  0  0  0  0  0  0
  151.5208  140.0100  157.7930 C   0  0  0  0  0  0  0  0  0  0  0  0
  150.8114  138.8608  157.3476 C   0  0  0  0  0  0  0  0  0  0  0  0
  150.0704  139.1647  156.2134 N   0  0  0  0  0  0  0  0  0  0  0  0
  150.3296  140.4256  155.9974 C   0  0  0  0  0  0  0  0  0  0  0  0
  151.1865  141.0148  156.9012 N   0  0  0  0  0  0  0  0  0  0  0  0
  151.6508  142.3938  156.8956 C   0  0  0  0  0  0  0  0  0  0  0  0
  151.1296  143.2352  158.0865 C   0  0  1  0  0  0  0  0  0  0  0  0
  149.7165  143.3040  158.0216 O   0  0  0  0  0  0  0  0  0  0  0  0
  151.5394  142.6421  159.4359 C   0  0  0  0  0  0  0  0  0  0  0  0
  152.6420  143.5777  159.9148 C   0  0  0  0  0  0  0  0  0  0  0  0
  152.1900  144.8403  159.4609 O   0  0  0  0  0  0  0  0  0  0  0  0
  151.7107  144.6639  158.1349 C   0  0  0  0  0  0  0  0  0  0  0  0
  145.2317  137.4399  157.7354 H   0  0  0  0  0  0  0  0  0  0  0  0
  146.4916  138.2384  159.4798 H   0  0  0  0  0  0  0  0  0  0  0  0
  145.1642  136.3403  160.1043 H   0  0  0  0  0  0  0  0  0  0  0  0
  146.1446  135.2447  159.1355 H   0  0  0  0  0  0  0  0  0  0  0  0
  146.9471  136.6867  161.6760 H   0  0  0  0  0  0  0  0  0  0  0  0
  147.1673  134.9820  161.3022 H   0  0  0  0  0  0  0  0  0  0  0  0
  149.1423  136.9230  160.9737 H   0  0  0  0  0  0  0  0  0  0  0  0
  149.1161  135.4353  160.0650 H   0  0  0  0  0  0  0  0  0  0  0  0
  148.6761  138.1526  159.1097 H   0  0  0  0  0  0  0  0  0  0  0  0
  148.6860  137.1773  156.8519 H   0  0  0  0  0  0  0  0  0  0  0  0
  148.5882  134.4117  158.1760 H   0  0  0  0  0  0  0  0  0  0  0  0
  147.3618  135.1143  157.1487 H   0  0  0  0  0  0  0  0  0  0  0  0
  150.7107  133.8294  157.1966 H   0  0  0  0  0  0  0  0  0  0  0  0
  150.9271  134.0731  155.4717 H   0  0  0  0  0  0  0  0  0  0  0  0
  152.1322  135.8370  156.7920 H   0  0  0  0  0  0  0  0  0  0  0  0
  150.9044  136.5293  155.7433 H   0  0  0  0  0  0  0  0  0  0  0  0
  153.0709  138.8725  160.3679 H   0  0  0  0  0  0  0  0  0  0  0  0
  149.8998  140.9625  155.1642 H   0  0  0  0  0  0  0  0  0  0  0  0
  152.7417  142.3843  156.8901 H   0  0  0  0  0  0  0  0  0  0  0  0
  151.3474  142.8510  155.9528 H   0  0  0  0  0  0  0  0  0  0  0  0
  149.4757  143.9807  157.4073 H   0  0  0  0  0  0  0  0  0  0  0  0
  150.7125  142.6816  160.1473 H   0  0  0  0  0  0  0  0  0  0  0  0
  151.8694  141.6046  159.3754 H   0  0  0  0  0  0  0  0  0  0  0  0
  152.7727  143.5598  160.9969 H   0  0  0  0  0  0  0  0  0  0  0  0
  153.5965  143.3350  159.4445 H   0  0  0  0  0  0  0  0  0  0  0  0
  152.5633  144.7667  157.4638 H   0  0  0  0  0  0  0  0  0  0  0  0
  150.9893  145.4381  157.8705 H   0  0  0  0  0  0  0  0  0  0  0  0
  1  2  1  0  0  0  0
  1 29  1  0  0  0  0
  2  6  1  0  0  0  0
  2  3  1  0  0  0  0
  2 30  1  0  0  0  0
  3  4  1  0  0  0  0
  3 31  1  0  0  0  0
  3 32  1  0  0  0  0
  4  5  1  0  0  0  0
  4 33  1  0  0  0  0
  4 34  1  0  0  0  0
  5  6  1  0  0  0  0
  5 35  1  0  0  0  0
  5 36  1  0  0  0  0
  6  7  1  0  0  0  0
  6 37  1  0  0  0  0
  7 12  1  0  0  0  0
  7  8  1  0  0  0  0
  7 38  1  0  0  0  0
  8  9  1  0  0  0  0
  8 39  1  0  0  0  0
  8 40  1  0  0  0  0
  9 10  1  0  0  0  0
 10 11  1  0  0  0  0
 10 41  1  0  0  0  0
 10 42  1  0  0  0  0
 11 12  1  0  0  0  0
 11 43  1  0  0  0  0
 11 44  1  0  0  0  0
 12 13  1  0  0  0  0
 13 18  1  0  0  0  0
 13 14  2  0  0  0  0
 14 15  1  0  0  0  0
 15 16  2  0  0  0  0
 15 45  1  0  0  0  0
 16 17  1  0  0  0  0
 17 21  1  0  0  0  0
 17 18  2  0  0  0  0
 18 19  1  0  0  0  0
 19 20  2  0  0  0  0
 20 21  1  0  0  0  0
 20 46  1  0  0  0  0
 21 22  1  0  0  0  0
 22 23  1  0  0  0  0
 22 47  1  0  0  0  0
 22 48  1  0  0  0  0
 23 28  1  0  0  0  0
 23 24  1  0  0  0  0
 23 25  1  0  0  0  0
 24 49  1  0  0  0  0
 25 26  1  0  0  0  0
 25 50  1  0  0  0  0
 25 51  1  0  0  0  0
 26 27  1  0  0  0  0
 26 52  1  0  0  0  0
 26 53  1  0  0  0  0
 27 28  1  0  0  0  0
 28 54  1  0  0  0  0
 28 55  1  0  0  0  0
M  END
> <s_m_source_file>
AV-unprocessed.smi

> <i_m_source_file_index>
240

> <i_lp_mmshare_version>
43012

> <i_f3d_flags>
0

> <s_epik_input>
W09IXVtDQEBIXTFbQ0gyXVtDSDJdW0NIMl1bQ0BIXTFbQ0BASF0yW0NIMl1PW0NIMl1bQ0gyXU4yYyhuW2NIXW4zKWMoYzM0KW5bY0hdbjRbQ0gyXVtDQEBdNShbT0hdKVtDSDJdW0NIMl1PW0NIMl01

> <s_epik_cmdline>
J2VwaWtfcHl0aG9uJywgJy1waCcsICc3LjAnLCAnLXRuJywgJzgnLCAnLW1hJywgJzIwMCcsICctbWV0YWxfYmluZGluZycsICctaW1hZScsICc8aW5maWxlLm1hZT4nLCAnLW9tYWUnLCAnPG91dGZpbGUubWFlPic=

> <r_lp_tautomer_probability>
1

> <r_epik_Ionization_Penalty>
0.000130618

> <r_epik_Ionization_Penalty_Charging>
0

> <r_epik_Ionization_Penalty_Neutral>
0.000130618

> <r_epik_State_Penalty>
-0

> <r_epik_Charging_Adjusted_Penalty>
0

> <i_epik_Tot_Q>
0

> <i_epik_Tot_abs_Q>
0

> <r_epik_Metal_State_Penalty>
-0

> <b_epik_Metal_Only>
0

> <s_lp_Force_Field>
OPLS_2005

> <r_lp_Energy>
64.9026

> <b_lp_Chiralities_Consistent>
1

> <s_lp_Variant>
AV-unprocessed.smi:240-2

> <Gold.Version>
5.8.1

> <Gold.Id.Protein>
6NUR|6NUR_protein|mol2

> <Gold.PLP.Fitness>
37.7897

> <Gold.PLP.PLP>
-35.1091

> <Gold.PLP.part.hbond>
-1.3674

> <Gold.PLP.part.metal>
0.0000

> <Gold.PLP.part.buried>
-7.6099

> <Gold.PLP.part.nonpolar>
-26.0495

> <Gold.PLP.part.repulsive>
0.0477

> <Gold.PLP.ligand.clash>
0.0000

> <Gold.PLP.ligand.torsion>
0.2790

> <Gold.PLP.Chemscore.Hbond>
1.0000

> <Gold.PLP.Chemscore.CHOScore>
0.0000

> <Gold.PLP.Chemscore.Metal>
0.0000

> <Gold.Chemscore.Hbonds>
donor molecule, donor type, donor heavy atom, donor atom, acceptor molecule, acceptor atom, score
      L1  H    24    49       P1  8028  1.00

> <Gold.PLP.Chemscore.Internal.Correction>
0.2386

> <Gold.Rescore>
     Score         DG    S(hbond)    S(metal)    S(lipo)     H(rot)  DE(clash)    DE(int)     intcor
      8.58     -12.21       0.95        0.00      96.12       3.00       1.95       1.69       ----

> <Gold.Chemscore.Fitness>
8.5770

> <Gold.Chemscore.DG>
-12.2103

> <Gold.Chemscore.ZeroCoef>
-5.4800

> <Gold.Chemscore.Hbond>
0.9505

> <Gold.Chemscore.Metal>
0.0000

> <Gold.Chemscore.Lipo>
96.1162

> <Gold.Chemscore.Internal_Hbond>
0.0000

> <Gold.Chemscore.DEClash>
1.9476

> <Gold.Chemscore.DEInternal>
1.6858

> <Gold.Chemscore.Rot>
3.0039

> <Gold.Chemscore.Internal.Correction>
   9.000000E+99

> <Gold.Chemscore.Hbonds>
donor molecule, donor type, donor heavy atom, donor atom, acceptor molecule, acceptor atom, score
      L1  H    24    49       P1  8028  0.34

> <Gold.Chemscore.Hbond.Weighted>
-3.1746

> <Gold.Chemscore.Metal.Weighted>
-0.0000

> <Gold.Chemscore.Lipo.Weighted>
-11.2456

> <Gold.Chemscore.Internal_Hbond.Weighted>
0.0000

> <Gold.Chemscore.DEClash.Weighted>
1.9476

> <Gold.Chemscore.DEInternal.Weighted>
1.6858

> <Gold.Chemscore.Rot.Weighted>
7.6899

> <Gold.Chemscore.Internal.Correction.Weighted>
   9.000000E+99

> <Gold.Protein.RotatedTorsions>
[ 6907 6896 6895 6894 ] final -101.11 input  -60.11 | X-H torsion
[ 7974 7965 7964 7962 ] final -144.82 input  175.53 | X-H torsion
[ 8008 7997 7996 7995 ] final  -84.91 input   59.86 | X-H torsion
[ 10167 10162 10161 10158 ] final   50.46 input  -65.29 | X-H torsion
[ 10718 10713 10712 10709 ] final  179.33 input   66.30 | X-H torsion
[ 10763 10752 10751 10750 ] final  125.06 input  -60.55 | X-H torsion
[ 11005 11000 10999 10996 ] final  -75.13 input  -57.11 | X-H torsion

> <Gold.Protein.ActiveResidues>
 VAL166  LYS551  ARG553  GLY616  TRP617  ASP618  TYR619  PRO620  LYS621  CYS622 
 ASP623  PHE694  ASN695  SER759  ASP760  ASP761  ALA762  ILE779  LEU786  VAL792 
 PHE793  MET794  SER795  GLU796  ALA797  LYS798  CYS799  TRP800  GLU811  SER814 

> <Gold.Protein.RotatedAtoms>
  150.7142  134.0784  159.3888 H   0  0  0  0  0  0  0  0  0  0  0  0  # atno 6907 bound_to 6896
  151.8767  135.0467  160.0494 H   0  0  0  0  0  0  0  0  0  0  0  0  # atno 6908 bound_to 6896
  152.2600  133.5253  159.5412 H   0  0  0  0  0  0  0  0  0  0  0  0  # atno 6909 bound_to 6896
  144.8271  140.5662  143.5540 H   0  0  0  0  0  0  0  0  0  0  0  0  # atno 7974 bound_to 7965
  154.6349  140.0598  156.9777 H   0  0  0  0  0  0  0  0  0  0  0  0  # atno 8008 bound_to 7997
  155.1607  140.3282  155.4393 H   0  0  0  0  0  0  0  0  0  0  0  0  # atno 8009 bound_to 7997
  156.2502  140.1931  156.6714 H   0  0  0  0  0  0  0  0  0  0  0  0  # atno 8010 bound_to 7997
  140.2722  144.3252  150.6287 H   0  0  0  0  0  0  0  0  0  0  0  0  # atno 10167 bound_to 10162
  156.8774  130.9804  151.3066 H   0  0  0  0  0  0  0  0  0  0  0  0  # atno 10718 bound_to 10713
  153.6713  135.3330  155.3154 H   0  0  0  0  0  0  0  0  0  0  0  0  # atno 10763 bound_to 10752
  154.8490  135.4387  154.1702 H   0  0  0  0  0  0  0  0  0  0  0  0  # atno 10764 bound_to 10752
  153.2694  135.6999  153.7572 H   0  0  0  0  0  0  0  0  0  0  0  0  # atno 10765 bound_to 10752
  141.1642  133.6935  156.7469 H   0  0  0  0  0  0  0  0  0  0  0  0  # atno 11005 bound_to 11000
  145.4977  139.1485  143.3674 LP  0  0  0  0  0  0  0  0  0  0  0  0  # atno 17320 bound_to 7965
  146.2575  140.5117  142.8867 LP  0  0  0  0  0  0  0  0  0  0  0  0  # atno 17321 bound_to 7965
  140.5880  143.2169  151.7306 LP  0  0  0  0  0  0  0  0  0  0  0  0  # atno 17342 bound_to 10162
  139.4985  144.3982  152.0209 LP  0  0  0  0  0  0  0  0  0  0  0  0  # atno 17343 bound_to 10162
  157.6160  130.8619  149.9030 LP  0  0  0  0  0  0  0  0  0  0  0  0  # atno 17370 bound_to 10713
  156.0695  130.3687  150.0806 LP  0  0  0  0  0  0  0  0  0  0  0  0  # atno 17371 bound_to 10713
  140.2633  134.8450  157.3779 LP  0  0  0  0  0  0  0  0  0  0  0  0  # atno 17394 bound_to 11000
  140.1591  134.4752  155.7907 LP  0  0  0  0  0  0  0  0  0  0  0  0  # atno 17395 bound_to 11000

$$$$
