AV-unprocessed.smi:2186|AV-procd|sdf|8876|dock2
  -GOLD-   2272012 73D 1   1.00000     0.00000
 Structure written by MMmdl.
 43 44  0  0  0  0  0  0  0  0  1 V2000
  146.9571  137.0014  162.9847 C   0  0  0  0  0  0  0  0  0  0  0  0
  146.7207  135.9404  161.8999 C   0  0  0  0  0  0  0  0  0  0  0  0
  146.8366  134.5029  162.4273 C   0  0  0  0  0  0  0  0  0  0  0  0
  147.5779  136.1698  160.6952 C   0  0  0  0  0  0  0  0  0  0  0  0
  148.5098  137.1248  160.6198 N   0  0  0  0  0  0  0  0  0  0  0  0
  149.1658  137.1459  159.3845 C   0  0  0  0  0  0  0  0  0  0  0  0
  150.2343  138.1665  159.1200 C   0  0  0  0  0  0  0  0  0  0  0  0
  149.6790  139.2904  158.2440 C   0  0  0  0  0  0  0  0  0  0  0  0
  148.4662  139.3834  158.0557 O   0  0  0  0  0  0  0  0  0  0  0  0
  150.5767  140.1402  157.7209 N   0  0  0  0  0  0  0  0  0  0  0  0
  150.2530  141.3007  156.9019 C   0  0  0  0  0  0  0  0  0  0  0  0
  151.2120  142.4686  157.1978 C   0  0  0  0  0  0  0  0  0  0  0  0
  150.9821  143.1475  158.4715 N   0  0  0  0  0  0  0  0  0  0  0  0
  151.2663  144.5743  158.3612 C   0  0  0  0  0  0  0  0  0  0  0  0
  151.0283  145.3121  159.6898 C   0  0  0  0  0  0  0  0  0  0  0  0
  151.8265  144.7214  160.7100 O   0  0  0  0  0  0  0  0  0  0  0  0
  151.5543  143.3348  160.8846 C   0  0  0  0  0  0  0  0  0  0  0  0
  151.7836  142.5883  159.5584 C   0  0  0  0  0  0  0  0  0  0  0  0
  148.7218  136.1749  158.5214 C   0  0  0  0  0  0  0  0  0  0  0  0
  147.4557  135.2080  159.2258 S   0  0  0  0  0  0  0  0  0  0  0  0
  146.7848  138.0052  162.5948 H   0  0  0  0  0  0  0  0  0  0  0  0
  147.9792  136.9618  163.3628 H   0  0  0  0  0  0  0  0  0  0  0  0
  146.2849  136.8551  163.8303 H   0  0  0  0  0  0  0  0  0  0  0  0
  145.6886  136.0638  161.5698 H   0  0  0  0  0  0  0  0  0  0  0  0
  146.5789  133.7795  161.6533 H   0  0  0  0  0  0  0  0  0  0  0  0
  146.1649  134.3382  163.2699 H   0  0  0  0  0  0  0  0  0  0  0  0
  147.8505  134.2841  162.7638 H   0  0  0  0  0  0  0  0  0  0  0  0
  150.6135  138.5865  160.0527 H   0  0  0  0  0  0  0  0  0  0  0  0
  151.0878  137.7074  158.6198 H   0  0  0  0  0  0  0  0  0  0  0  0
  151.5522  139.9891  157.9342 H   0  0  0  0  0  0  0  0  0  0  0  0
  150.3353  141.0094  155.8545 H   0  0  0  0  0  0  0  0  0  0  0  0
  149.2130  141.5838  157.0675 H   0  0  0  0  0  0  0  0  0  0  0  0
  152.2448  142.1200  157.1495 H   0  0  0  0  0  0  0  0  0  0  0  0
  151.1041  143.1946  156.3903 H   0  0  0  0  0  0  0  0  0  0  0  0
  152.3011  144.7223  158.0483 H   0  0  0  0  0  0  0  0  0  0  0  0
  150.6401  145.0184  157.5868 H   0  0  0  0  0  0  0  0  0  0  0  0
  151.2935  146.3651  159.5925 H   0  0  0  0  0  0  0  0  0  0  0  0
  149.9752  145.2708  159.9719 H   0  0  0  0  0  0  0  0  0  0  0  0
  152.2083  142.9381  161.6612 H   0  0  0  0  0  0  0  0  0  0  0  0
  150.5282  143.1999  161.2303 H   0  0  0  0  0  0  0  0  0  0  0  0
  151.5421  141.5363  159.7068 H   0  0  0  0  0  0  0  0  0  0  0  0
  152.8425  142.6331  159.2984 H   0  0  0  0  0  0  0  0  0  0  0  0
  149.0585  135.9750  157.5148 H   0  0  0  0  0  0  0  0  0  0  0  0
  1  2  1  0  0  0  0
  1 21  1  0  0  0  0
  1 22  1  0  0  0  0
  1 23  1  0  0  0  0
  2  3  1  0  0  0  0
  2  4  1  0  0  0  0
  2 24  1  0  0  0  0
  3 25  1  0  0  0  0
  3 26  1  0  0  0  0
  3 27  1  0  0  0  0
  4 20  1  0  0  0  0
  4  5  2  0  0  0  0
  5  6  1  0  0  0  0
  6  7  1  0  0  0  0
  6 19  2  0  0  0  0
  7  8  1  0  0  0  0
  7 28  1  0  0  0  0
  7 29  1  0  0  0  0
  8  9  2  0  0  0  0
  8 10  1  0  0  0  0
 10 11  1  0  0  0  0
 10 30  1  0  0  0  0
 11 12  1  0  0  0  0
 11 31  1  0  0  0  0
 11 32  1  0  0  0  0
 12 13  1  0  0  0  0
 12 33  1  0  0  0  0
 12 34  1  0  0  0  0
 13 18  1  0  0  0  0
 13 14  1  0  0  0  0
 14 15  1  0  0  0  0
 14 35  1  0  0  0  0
 14 36  1  0  0  0  0
 15 16  1  0  0  0  0
 15 37  1  0  0  0  0
 15 38  1  0  0  0  0
 16 17  1  0  0  0  0
 17 18  1  0  0  0  0
 17 39  1  0  0  0  0
 17 40  1  0  0  0  0
 18 41  1  0  0  0  0
 18 42  1  0  0  0  0
 19 20  1  0  0  0  0
 19 43  1  0  0  0  0
M  END
> <s_m_source_file>
AV-unprocessed.smi

> <i_m_source_file_index>
2186

> <i_lp_mmshare_version>
43012

> <i_f3d_flags>
0

> <s_epik_input>
W0NIM11bQ0hdKFtDSDNdKWMxbmMoW2NIXXMxKVtDSDJdQyg9TylbTkhdW0NIMl1bQ0gyXU4yW0NIMl1bQ0gyXU9bQ0gyXVtDSDJdMg==

> <s_epik_cmdline>
J2VwaWtfcHl0aG9uJywgJy1waCcsICc3LjAnLCAnLXRuJywgJzgnLCAnLW1hJywgJzIwMCcsICctbWV0YWxfYmluZGluZycsICctaW1hZScsICc8aW5maWxlLm1hZT4nLCAnLW9tYWUnLCAnPG91dGZpbGUubWFlPic=

> <r_epik_Ionization_Penalty>
0.226788

> <r_epik_Ionization_Penalty_Charging>
0

> <r_epik_Ionization_Penalty_Neutral>
0.226788

> <r_epik_State_Penalty>
0.21727

> <r_epik_Charging_Adjusted_Penalty>
0.21727

> <i_epik_Tot_Q>
0

> <i_epik_Tot_abs_Q>
0

> <r_epik_Metal_State_Penalty>
0.217263

> <b_epik_Metal_Only>
0

> <s_lp_Force_Field>
OPLS_2005

> <r_lp_Energy>
12.6153

> <b_lp_Chiralities_Consistent>
1

> <s_lp_Variant>
AV-unprocessed.smi:2186-1

> <Gold.Version>
5.8.1

> <Gold.Id.Protein>
6NUR|6NUR_protein|mol2

> <Gold.PLP.Fitness>
42.6000

> <Gold.PLP.PLP>
-42.2608

> <Gold.PLP.part.hbond>
-1.7676

> <Gold.PLP.part.metal>
0.0000

> <Gold.PLP.part.buried>
-4.2265

> <Gold.PLP.part.nonpolar>
-35.3672

> <Gold.PLP.part.repulsive>
0.2136

> <Gold.PLP.ligand.clash>
0.0000

> <Gold.PLP.ligand.torsion>
1.0617

> <Gold.PLP.Chemscore.Hbond>
0.7680

> <Gold.PLP.Chemscore.CHOScore>
0.0000

> <Gold.PLP.Chemscore.Metal>
0.0000

> <Gold.Chemscore.Hbonds>
donor molecule, donor type, donor heavy atom, donor atom, acceptor molecule, acceptor atom, score
      P1  H  6931  6943       L1     5  0.80
      P1  H  6934  6947       L1     5  0.14

> <Gold.PLP.Chemscore.Internal.Correction>
0.1586

> <Gold.Rescore>
     Score         DG    S(hbond)    S(metal)    S(lipo)     H(rot)  DE(clash)    DE(int)     intcor
     15.68     -17.26       0.82        0.00     114.97       1.73       0.10       1.48       ----

> <Gold.Chemscore.Fitness>
15.6766

> <Gold.Chemscore.DG>
-17.2581

> <Gold.Chemscore.ZeroCoef>
-5.4800

> <Gold.Chemscore.Hbond>
0.8220

> <Gold.Chemscore.Metal>
0.0000

> <Gold.Chemscore.Lipo>
114.9653

> <Gold.Chemscore.Internal_Hbond>
0.0000

> <Gold.Chemscore.DEClash>
0.0997

> <Gold.Chemscore.DEInternal>
1.4818

> <Gold.Chemscore.Rot>
1.7259

> <Gold.Chemscore.Internal.Correction>
   9.000000E+99

> <Gold.Chemscore.Hbonds>
donor molecule, donor type, donor heavy atom, donor atom, acceptor molecule, acceptor atom, score
      P1  H  6931  6943       L1     5  0.76
      P1  H  6934  6947       L1     5  0.03

> <Gold.Chemscore.Hbond.Weighted>
-2.7454

> <Gold.Chemscore.Metal.Weighted>
-0.0000

> <Gold.Chemscore.Lipo.Weighted>
-13.4509

> <Gold.Chemscore.Internal_Hbond.Weighted>
0.0000

> <Gold.Chemscore.DEClash.Weighted>
0.0997

> <Gold.Chemscore.DEInternal.Weighted>
1.4818

> <Gold.Chemscore.Rot.Weighted>
4.4182

> <Gold.Chemscore.Internal.Correction.Weighted>
   9.000000E+99

> <Gold.Protein.RotatedTorsions>
[ 6907 6896 6895 6894 ] final  -68.03 input  -60.11 | X-H torsion
[ 7974 7965 7964 7962 ] final  -96.34 input  175.53 | X-H torsion
[ 8008 7997 7996 7995 ] final -163.31 input   59.86 | X-H torsion
[ 10167 10162 10161 10158 ] final  108.91 input  -65.29 | X-H torsion
[ 10718 10713 10712 10709 ] final   -9.38 input   66.30 | X-H torsion
[ 10763 10752 10751 10750 ] final  114.80 input  -60.55 | X-H torsion
[ 11005 11000 10999 10996 ] final  179.72 input  -57.11 | X-H torsion

> <Gold.Protein.ActiveResidues>
 VAL166  LYS551  ARG553  GLY616  TRP617  ASP618  TYR619  PRO620  LYS621  CYS622 
 ASP623  PHE694  ASN695  SER759  ASP760  ASP761  ALA762  ILE779  LEU786  VAL792 
 PHE793  MET794  SER795  GLU796  ALA797  LYS798  CYS799  TRP800  GLU811  SER814 

> <Gold.Protein.RotatedAtoms>
  150.7377  134.5796  159.5931 H   0  0  0  0  0  0  0  0  0  0  0  0  # atno 6907 bound_to 6896
  152.3214  134.7373  160.0322 H   0  0  0  0  0  0  0  0  0  0  0  0  # atno 6908 bound_to 6896
  151.7887  133.3321  159.3529 H   0  0  0  0  0  0  0  0  0  0  0  0  # atno 6909 bound_to 6896
  145.3481  140.9472  143.2569 H   0  0  0  0  0  0  0  0  0  0  0  0  # atno 7974 bound_to 7965
  155.8195  140.0917  157.1857 H   0  0  0  0  0  0  0  0  0  0  0  0  # atno 8008 bound_to 7997
  154.3979  140.1439  156.3542 H   0  0  0  0  0  0  0  0  0  0  0  0  # atno 8009 bound_to 7997
  155.8281  140.3443  155.5558 H   0  0  0  0  0  0  0  0  0  0  0  0  # atno 8010 bound_to 7997
  139.6808  144.7118  151.1519 H   0  0  0  0  0  0  0  0  0  0  0  0  # atno 10167 bound_to 10162
  156.6888  130.5059  149.5949 H   0  0  0  0  0  0  0  0  0  0  0  0  # atno 10718 bound_to 10713
  153.5127  135.3614  155.2594 H   0  0  0  0  0  0  0  0  0  0  0  0  # atno 10763 bound_to 10752
  154.8741  135.4026  154.3351 H   0  0  0  0  0  0  0  0  0  0  0  0  # atno 10764 bound_to 10752
  153.4006  135.7075  153.6495 H   0  0  0  0  0  0  0  0  0  0  0  0  # atno 10765 bound_to 10752
  140.4093  134.6706  157.4605 H   0  0  0  0  0  0  0  0  0  0  0  0  # atno 11005 bound_to 11000
  144.8738  139.5000  143.6755 LP  0  0  0  0  0  0  0  0  0  0  0  0  # atno 17320 bound_to 7965
  146.2979  139.7335  142.9113 LP  0  0  0  0  0  0  0  0  0  0  0  0  # atno 17321 bound_to 7965
  140.7651  143.5702  150.9004 LP  0  0  0  0  0  0  0  0  0  0  0  0  # atno 17342 bound_to 10162
  139.9374  143.6422  152.3062 LP  0  0  0  0  0  0  0  0  0  0  0  0  # atno 17343 bound_to 10162
  156.1813  130.6500  151.0954 LP  0  0  0  0  0  0  0  0  0  0  0  0  # atno 17370 bound_to 10713
  157.7016  131.0773  150.6801 LP  0  0  0  0  0  0  0  0  0  0  0  0  # atno 17371 bound_to 10713
  140.0279  134.6450  155.9147 LP  0  0  0  0  0  0  0  0  0  0  0  0  # atno 17394 bound_to 11000
  141.1827  133.6549  156.5087 LP  0  0  0  0  0  0  0  0  0  0  0  0  # atno 17395 bound_to 11000

$$$$
