AV-unprocessed.smi:2002|AV-procd|sdf|8116|dock4
  -GOLD-   2272010343D 1   1.00000     0.00000
 Structure written by MMmdl.
 39 40  0  0  0  0  0  0  0  0  2 V2000
  144.9780  143.8717  156.1946 C   0  0  0  0  0  0  0  0  0  0  0  0
  144.4141  143.1131  154.9856 C   0  0  0  0  0  0  0  0  0  0  0  0
  145.2341  141.9296  154.6332 N   0  3  2  0  0  0  0  0  0  0  0  0
  145.4673  140.9942  155.7593 C   0  0  0  0  0  0  0  0  0  0  0  0
  146.9670  140.6808  155.7718 C   0  0  0  0  0  0  0  0  0  0  0  0
  147.4385  141.0377  154.3622 C   0  0  2  0  0  0  0  0  0  0  0  0
  148.9463  141.3239  154.2260 C   0  0  0  0  0  0  0  0  0  0  0  0
  149.4343  142.1997  155.2874 N   0  0  0  0  0  0  0  0  0  0  0  0
  150.3504  141.8694  156.2098 C   0  0  0  0  0  0  0  0  0  0  0  0
  150.8966  140.7673  156.2576 O   0  0  0  0  0  0  0  0  0  0  0  0
  150.5886  142.8932  157.0467 N   0  0  0  0  0  0  0  0  0  0  0  0
  151.4689  142.9364  158.1587 C   0  0  0  0  0  0  0  0  0  0  0  0
  152.1555  141.8284  158.7357 C   0  0  0  0  0  0  0  0  0  0  0  0
  152.8467  142.3996  159.7666 C   0  0  0  0  0  0  0  0  0  0  0  0
  153.7686  141.8465  160.7983 C   0  0  0  0  0  0  0  0  0  0  0  0
  152.6065  143.7376  159.8146 O   0  0  0  0  0  0  0  0  0  0  0  0
  151.7214  144.0722  158.7829 N   0  0  0  0  0  0  0  0  0  0  0  0
  146.5503  142.2372  154.0304 C   0  0  0  0  0  0  0  0  0  0  0  0
  144.3843  144.7629  156.4000 H   0  0  0  0  0  0  0  0  0  0  0  0
  146.0046  144.1926  156.0154 H   0  0  0  0  0  0  0  0  0  0  0  0
  144.9689  143.2586  157.0959 H   0  0  0  0  0  0  0  0  0  0  0  0
  143.3828  142.8100  155.1722 H   0  0  0  0  0  0  0  0  0  0  0  0
  144.3921  143.7897  154.1300 H   0  0  0  0  0  0  0  0  0  0  0  0
  145.1496  141.4051  156.7188 H   0  0  0  0  0  0  0  0  0  0  0  0
  144.8865  140.0892  155.5797 H   0  0  0  0  0  0  0  0  0  0  0  0
  147.4640  141.3204  156.5025 H   0  0  0  0  0  0  0  0  0  0  0  0
  147.1760  139.6448  156.0401 H   0  0  0  0  0  0  0  0  0  0  0  0
  147.1701  140.2191  153.6918 H   0  0  0  0  0  0  0  0  0  0  0  0
  149.5010  140.3875  154.2913 H   0  0  0  0  0  0  0  0  0  0  0  0
  149.1729  141.7418  153.2435 H   0  0  0  0  0  0  0  0  0  0  0  0
  149.0376  143.1275  155.3270 H   0  0  0  0  0  0  0  0  0  0  0  0
  150.0801  143.7466  156.8686 H   0  0  0  0  0  0  0  0  0  0  0  0
  152.1506  140.7853  158.4579 H   0  0  0  0  0  0  0  0  0  0  0  0
  153.7559  140.7564  160.7867 H   0  0  0  0  0  0  0  0  0  0  0  0
  153.4767  142.1763  161.7955 H   0  0  0  0  0  0  0  0  0  0  0  0
  154.7921  142.1751  160.6180 H   0  0  0  0  0  0  0  0  0  0  0  0
  146.4684  142.4080  152.9565 H   0  0  0  0  0  0  0  0  0  0  0  0
  146.9621  143.1406  154.4843 H   0  0  0  0  0  0  0  0  0  0  0  0
  144.7171  141.4036  153.9427 H   0  0  0  0  0  0  0  0  0  0  0  0
  1  2  1  0  0  0  0
  1 19  1  0  0  0  0
  1 20  1  0  0  0  0
  1 21  1  0  0  0  0
  2  3  1  0  0  0  0
  2 22  1  0  0  0  0
  2 23  1  0  0  0  0
  3 18  1  0  0  0  0
  3  4  1  0  0  0  0
  3 39  1  0  0  0  0
  4  5  1  0  0  0  0
  4 24  1  0  0  0  0
  4 25  1  0  0  0  0
  5  6  1  0  0  0  0
  5 26  1  0  0  0  0
  5 27  1  0  0  0  0
  6  7  1  0  0  0  0
  6 18  1  0  0  0  0
  6 28  1  0  0  0  0
  7  8  1  0  0  0  0
  7 29  1  0  0  0  0
  7 30  1  0  0  0  0
  8  9  1  0  0  0  0
  8 31  1  0  0  0  0
  9 10  2  0  0  0  0
  9 11  1  0  0  0  0
 11 12  1  0  0  0  0
 11 32  1  0  0  0  0
 12 17  2  0  0  0  0
 12 13  1  0  0  0  0
 13 14  2  0  0  0  0
 13 33  1  0  0  0  0
 14 15  1  0  0  0  0
 14 16  1  0  0  0  0
 15 34  1  0  0  0  0
 15 35  1  0  0  0  0
 15 36  1  0  0  0  0
 16 17  1  0  0  0  0
 18 37  1  0  0  0  0
 18 38  1  0  0  0  0
M  CHG  1   3   1
M  END
> <s_m_source_file>
AV-unprocessed.smi

> <i_m_source_file_index>
2002

> <i_lp_mmshare_version>
43012

> <i_f3d_flags>
0

> <s_epik_input>
W0NIM11bQ0gyXU4xW0NIMl1bQ0gyXVtDQEhdKFtDSDJdMSlbQ0gyXVtOSF1DKD1PKVtOSF1jMltjSF1jKFtDSDNdKW9uMg==

> <s_epik_cmdline>
J2VwaWtfcHl0aG9uJywgJy1waCcsICc3LjAnLCAnLXRuJywgJzgnLCAnLW1hJywgJzIwMCcsICctbWV0YWxfYmluZGluZycsICctaW1hZScsICc8aW5maWxlLm1hZT4nLCAnLW9tYWUnLCAnPG91dGZpbGUubWFlPic=

> <r_epik_Ionization_Penalty>
0.000632871

> <r_epik_Ionization_Penalty_Charging>
0.000610951

> <r_epik_Ionization_Penalty_Neutral>
2.19198e-05

> <r_epik_State_Penalty>
0.000385263

> <r_epik_Charging_Adjusted_Penalty>
0.000996214

> <i_epik_Tot_Q>
1

> <i_epik_Tot_abs_Q>
1

> <r_epik_Metal_State_Penalty>
-0

> <b_epik_Metal_Only>
0

> <s_lp_Force_Field>
OPLS_2005

> <r_lp_Energy>
28.1542

> <b_lp_Chiralities_Consistent>
1

> <s_lp_Variant>
AV-unprocessed.smi:2002-4

> <Gold.Version>
5.8.1

> <Gold.Id.Protein>
6NUR|6NUR_protein|mol2

> <Gold.PLP.Fitness>
44.6964

> <Gold.PLP.PLP>
-33.1337

> <Gold.PLP.part.hbond>
-2.9761

> <Gold.PLP.part.metal>
0.0000

> <Gold.PLP.part.buried>
-6.3932

> <Gold.PLP.part.nonpolar>
-25.0700

> <Gold.PLP.part.repulsive>
0.3093

> <Gold.PLP.ligand.clash>
0.0000

> <Gold.PLP.ligand.torsion>
0.1498

> <Gold.PLP.Chemscore.Hbond>
3.9440

> <Gold.PLP.Chemscore.CHOScore>
0.0000

> <Gold.PLP.Chemscore.Metal>
0.0000

> <Gold.Chemscore.Hbonds>
donor molecule, donor type, donor heavy atom, donor atom, acceptor molecule, acceptor atom, score
      L1  H     3    39       P1 10175  2.00
      L1  H     8    31       P1  8028  1.00
      L1  H    11    32       P1  8028  0.96

> <Gold.PLP.Chemscore.Internal.Correction>
0.0304

> <Gold.Rescore>
     Score         DG    S(hbond)    S(metal)    S(lipo)     H(rot)  DE(clash)    DE(int)     intcor
     17.21     -18.53       2.85        0.00      63.34       1.52       0.01       1.31       ----

> <Gold.Chemscore.Fitness>
17.2105

> <Gold.Chemscore.DG>
-18.5289

> <Gold.Chemscore.ZeroCoef>
-5.4800

> <Gold.Chemscore.Hbond>
2.8547

> <Gold.Chemscore.Metal>
0.0000

> <Gold.Chemscore.Lipo>
63.3439

> <Gold.Chemscore.Internal_Hbond>
0.0000

> <Gold.Chemscore.DEClash>
0.0127

> <Gold.Chemscore.DEInternal>
1.3057

> <Gold.Chemscore.Rot>
1.5223

> <Gold.Chemscore.Internal.Correction>
   9.000000E+99

> <Gold.Chemscore.Hbonds>
donor molecule, donor type, donor heavy atom, donor atom, acceptor molecule, acceptor atom, score
      L1  H     3    39       P1 10175  0.34
      L1  H     8    31       P1  8028  0.99
      L1  H    11    32       P1  8028  0.91

> <Gold.Chemscore.Hbond.Weighted>
-9.5347

> <Gold.Chemscore.Metal.Weighted>
-0.0000

> <Gold.Chemscore.Lipo.Weighted>
-7.4112

> <Gold.Chemscore.Internal_Hbond.Weighted>
0.0000

> <Gold.Chemscore.DEClash.Weighted>
0.0127

> <Gold.Chemscore.DEInternal.Weighted>
1.3057

> <Gold.Chemscore.Rot.Weighted>
3.8971

> <Gold.Chemscore.Internal.Correction.Weighted>
   9.000000E+99

> <Gold.Protein.RotatedTorsions>
[ 6907 6896 6895 6894 ] final  -53.13 input  -60.11 | X-H torsion
[ 7974 7965 7964 7962 ] final  106.30 input  175.53 | X-H torsion
[ 8008 7997 7996 7995 ] final  -52.73 input   59.86 | X-H torsion
[ 10167 10162 10161 10158 ] final   30.64 input  -65.29 | X-H torsion
[ 10718 10713 10712 10709 ] final -178.33 input   66.30 | X-H torsion
[ 10763 10752 10751 10750 ] final -154.41 input  -60.55 | X-H torsion
[ 11005 11000 10999 10996 ] final  -76.53 input  -57.11 | X-H torsion

> <Gold.Protein.ActiveResidues>
 VAL166  LYS551  ARG553  GLY616  TRP617  ASP618  TYR619  PRO620  LYS621  CYS622 
 ASP623  PHE694  ASN695  SER759  ASP760  ASP761  ALA762  ILE779  LEU786  VAL792 
 PHE793  MET794  SER795  GLU796  ALA797  LYS798  CYS799  TRP800  GLU811  SER814 

> <Gold.Protein.RotatedAtoms>
  150.8454  134.7761  159.6965 H   0  0  0  0  0  0  0  0  0  0  0  0  # atno 6907 bound_to 6896
  152.4532  134.5345  159.9830 H   0  0  0  0  0  0  0  0  0  0  0  0  # atno 6908 bound_to 6896
  151.5476  133.3384  159.2983 H   0  0  0  0  0  0  0  0  0  0  0  0  # atno 6909 bound_to 6896
  145.3084  139.2548  143.3776 H   0  0  0  0  0  0  0  0  0  0  0  0  # atno 7974 bound_to 7965
  154.4114  140.1217  156.5038 H   0  0  0  0  0  0  0  0  0  0  0  0  # atno 8008 bound_to 7997
  155.6868  140.3495  155.4858 H   0  0  0  0  0  0  0  0  0  0  0  0  # atno 8009 bound_to 7997
  155.9504  140.1103  157.0972 H   0  0  0  0  0  0  0  0  0  0  0  0  # atno 8010 bound_to 7997
  140.4660  144.0835  150.6224 H   0  0  0  0  0  0  0  0  0  0  0  0  # atno 10167 bound_to 10162
  156.8428  130.9692  151.3098 H   0  0  0  0  0  0  0  0  0  0  0  0  # atno 10718 bound_to 10713
  154.7861  135.3191  154.7883 H   0  0  0  0  0  0  0  0  0  0  0  0  # atno 10763 bound_to 10752
  153.8583  135.6856  153.4789 H   0  0  0  0  0  0  0  0  0  0  0  0  # atno 10764 bound_to 10752
  153.1513  135.4698  154.9579 H   0  0  0  0  0  0  0  0  0  0  0  0  # atno 10765 bound_to 10752
  141.1654  133.6987  156.7683 H   0  0  0  0  0  0  0  0  0  0  0  0  # atno 11005 bound_to 11000
  146.3127  140.3614  142.8665 LP  0  0  0  0  0  0  0  0  0  0  0  0  # atno 17320 bound_to 7965
  144.9036  140.7673  143.5851 LP  0  0  0  0  0  0  0  0  0  0  0  0  # atno 17321 bound_to 7965
  140.4035  143.2692  151.9918 LP  0  0  0  0  0  0  0  0  0  0  0  0  # atno 17342 bound_to 10162
  139.4812  144.5977  151.7662 LP  0  0  0  0  0  0  0  0  0  0  0  0  # atno 17343 bound_to 10162
  157.6346  130.8757  149.9336 LP  0  0  0  0  0  0  0  0  0  0  0  0  # atno 17370 bound_to 10713
  156.0871  130.3667  150.0466 LP  0  0  0  0  0  0  0  0  0  0  0  0  # atno 17371 bound_to 10713
  140.2483  134.8560  157.3642 LP  0  0  0  0  0  0  0  0  0  0  0  0  # atno 17394 bound_to 11000
  140.1728  134.4587  155.7821 LP  0  0  0  0  0  0  0  0  0  0  0  0  # atno 17395 bound_to 11000

$$$$
