AV-unprocessed.smi:1240|AV-procd|sdf|5198|dock7
  -GOLD-   22720 4283D 1   1.00000     0.00000
 Structure written by MMmdl.
 47 49  0  0  0  0  0  0  0  0  1 V2000
  144.4222  136.4274  152.0159 O   0  0  0  0  0  0  0  0  0  0  0  0
  145.6456  136.2983  151.9766 C   0  0  0  0  0  0  0  0  0  0  0  0
  146.4987  137.2060  152.4720 N   0  0  0  0  0  0  0  0  0  0  0  0
  146.1085  138.4373  153.1520 C   0  0  0  0  0  0  0  0  0  0  0  0
  146.5728  138.4779  154.6364 C   0  0  1  0  0  0  0  0  0  0  0  0
  146.3580  137.1181  155.3682 C   0  0  1  0  0  0  0  0  0  0  0  0
  146.6221  137.0604  156.8749 C   0  0  0  0  0  0  0  0  0  0  0  0
  145.4548  136.2368  157.4237 C   0  0  0  0  0  0  0  0  0  0  0  0
  144.9357  135.5537  156.2928 O   0  0  0  0  0  0  0  0  0  0  0  0
  144.9790  136.4675  155.2095 C   0  0  0  0  0  0  0  0  0  0  0  0
  147.8912  139.1032  154.8585 N   0  0  0  0  0  0  0  0  0  0  0  0
  149.0433  138.3223  154.4132 C   0  0  0  0  0  0  0  0  0  0  0  0
  150.3724  139.0117  154.7697 C   0  0  0  0  0  0  0  0  0  0  0  0
  150.3941  140.3320  154.2378 O   0  0  0  0  0  0  0  0  0  0  0  0
  149.3152  141.1309  154.7116 C   0  0  0  0  0  0  0  0  0  0  0  0
  147.9832  140.4635  154.3329 C   0  0  0  0  0  0  0  0  0  0  0  0
  146.3031  135.2414  151.4691 N   0  0  0  0  0  0  0  0  0  0  0  0
  145.7669  134.0567  150.8961 C   0  0  0  0  0  0  0  0  0  0  0  0
  144.3668  133.9735  150.7493 C   0  0  0  0  0  0  0  0  0  0  0  0
  143.8106  132.8032  150.1957 C   0  0  0  0  0  0  0  0  0  0  0  0
  144.5500  131.7441  149.8045 N   0  0  0  0  0  0  0  0  0  0  0  0
  145.8887  131.8192  149.9604 C   0  0  0  0  0  0  0  0  0  0  0  0
  146.5457  132.9424  150.5015 C   0  0  0  0  0  0  0  0  0  0  0  0
  147.4885  137.0218  152.3981 H   0  0  0  0  0  0  0  0  0  0  0  0
  146.5330  139.2695  152.5914 H   0  0  0  0  0  0  0  0  0  0  0  0
  145.0267  138.5429  153.0717 H   0  0  0  0  0  0  0  0  0  0  0  0
  145.8654  139.1405  155.1371 H   0  0  0  0  0  0  0  0  0  0  0  0
  147.0586  136.4092  154.9238 H   0  0  0  0  0  0  0  0  0  0  0  0
  147.5701  136.5558  157.0652 H   0  0  0  0  0  0  0  0  0  0  0  0
  146.6780  138.0345  157.3578 H   0  0  0  0  0  0  0  0  0  0  0  0
  145.7612  135.5420  158.2059 H   0  0  0  0  0  0  0  0  0  0  0  0
  144.6824  136.8903  157.8318 H   0  0  0  0  0  0  0  0  0  0  0  0
  144.1618  137.1810  155.3216 H   0  0  0  0  0  0  0  0  0  0  0  0
  144.8616  135.9607  154.2515 H   0  0  0  0  0  0  0  0  0  0  0  0
  149.0414  137.3419  154.8834 H   0  0  0  0  0  0  0  0  0  0  0  0
  148.9979  138.1644  153.3355 H   0  0  0  0  0  0  0  0  0  0  0  0
  150.5068  139.0489  155.8518 H   0  0  0  0  0  0  0  0  0  0  0  0
  151.2121  138.4488  154.3627 H   0  0  0  0  0  0  0  0  0  0  0  0
  149.3919  141.2589  155.7925 H   0  0  0  0  0  0  0  0  0  0  0  0
  149.3829  142.1230  154.2653 H   0  0  0  0  0  0  0  0  0  0  0  0
  147.8987  140.4566  153.2466 H   0  0  0  0  0  0  0  0  0  0  0  0
  147.1567  141.0666  154.7104 H   0  0  0  0  0  0  0  0  0  0  0  0
  147.3064  135.2512  151.5787 H   0  0  0  0  0  0  0  0  0  0  0  0
  143.7270  134.7913  151.0472 H   0  0  0  0  0  0  0  0  0  0  0  0
  142.7420  132.7153  150.0654 H   0  0  0  0  0  0  0  0  0  0  0  0
  146.4553  130.9538  149.6500 H   0  0  0  0  0  0  0  0  0  0  0  0
  147.6189  132.9210  150.6117 H   0  0  0  0  0  0  0  0  0  0  0  0
  1  2  2  0  0  0  0
  2  3  1  0  0  0  0
  2 17  1  0  0  0  0
  3  4  1  0  0  0  0
  3 24  1  0  0  0  0
  4  5  1  0  0  0  0
  4 25  1  0  0  0  0
  4 26  1  0  0  0  0
  5  6  1  0  0  0  0
  5 11  1  0  0  0  0
  5 27  1  0  0  0  0
  6 10  1  0  0  0  0
  6  7  1  0  0  0  0
  6 28  1  0  0  0  0
  7  8  1  0  0  0  0
  7 29  1  0  0  0  0
  7 30  1  0  0  0  0
  8  9  1  0  0  0  0
  8 31  1  0  0  0  0
  8 32  1  0  0  0  0
  9 10  1  0  0  0  0
 10 33  1  0  0  0  0
 10 34  1  0  0  0  0
 11 16  1  0  0  0  0
 11 12  1  0  0  0  0
 12 13  1  0  0  0  0
 12 35  1  0  0  0  0
 12 36  1  0  0  0  0
 13 14  1  0  0  0  0
 13 37  1  0  0  0  0
 13 38  1  0  0  0  0
 14 15  1  0  0  0  0
 15 16  1  0  0  0  0
 15 39  1  0  0  0  0
 15 40  1  0  0  0  0
 16 41  1  0  0  0  0
 16 42  1  0  0  0  0
 17 18  1  0  0  0  0
 17 43  1  0  0  0  0
 18 23  1  0  0  0  0
 18 19  2  0  0  0  0
 19 20  1  0  0  0  0
 19 44  1  0  0  0  0
 20 21  2  0  0  0  0
 20 45  1  0  0  0  0
 21 22  1  0  0  0  0
 22 23  2  0  0  0  0
 22 46  1  0  0  0  0
 23 47  1  0  0  0  0
M  END
> <s_m_source_file>
AV-unprocessed.smi

> <i_m_source_file_index>
1240

> <i_lp_mmshare_version>
43012

> <i_f3d_flags>
0

> <s_epik_input>
W2NIXTFbY0hdbltjSF1bY0hdYzFbTkhdQyg9TylbTkhdW0NIMl1bQ0BIXShbQ0BASF0yW0NIMl1bQ0gyXU9bQ0gyXTIpTjNbQ0gyXVtDSDJdT1tDSDJdW0NIMl0z

> <s_epik_cmdline>
J2VwaWtfcHl0aG9uJywgJy1waCcsICc3LjAnLCAnLXRuJywgJzgnLCAnLW1hJywgJzIwMCcsICctbWV0YWxfYmluZGluZycsICctaW1hZScsICc8aW5maWxlLm1hZT4nLCAnLW9tYWUnLCAnPG91dGZpbGUubWFlPic=

> <r_epik_Ionization_Penalty>
0.238664

> <r_epik_Ionization_Penalty_Charging>
0

> <r_epik_Ionization_Penalty_Neutral>
0.238664

> <r_epik_State_Penalty>
0.217087

> <r_epik_Charging_Adjusted_Penalty>
0.217087

> <i_epik_Tot_Q>
0

> <i_epik_Tot_abs_Q>
0

> <r_epik_Metal_State_Penalty>
0.199194

> <b_epik_Metal_Only>
0

> <s_lp_Force_Field>
OPLS_2005

> <r_lp_Energy>
57.1619

> <b_lp_Chiralities_Consistent>
1

> <s_lp_Variant>
AV-unprocessed.smi:1240-4

> <Gold.Version>
5.8.1

> <Gold.Id.Protein>
6NUR|6NUR_protein|mol2

> <Gold.PLP.Fitness>
44.5258

> <Gold.PLP.PLP>
-30.5703

> <Gold.PLP.part.hbond>
-3.7482

> <Gold.PLP.part.metal>
0.0000

> <Gold.PLP.part.buried>
-4.4340

> <Gold.PLP.part.nonpolar>
-24.4996

> <Gold.PLP.part.repulsive>
0.6736

> <Gold.PLP.ligand.clash>
0.0000

> <Gold.PLP.ligand.torsion>
0.4136

> <Gold.PLP.Chemscore.Hbond>
3.1041

> <Gold.PLP.Chemscore.CHOScore>
1.7090

> <Gold.PLP.Chemscore.Metal>
0.0000

> <Gold.Chemscore.Hbonds>
donor molecule, donor type, donor heavy atom, donor atom, acceptor molecule, acceptor atom, score
      L1  H     3    24       P1  7948  1.00
      L1  H    17    43       P1  7948  1.00
      P1  H  7989  7998       L1    14  1.00
      P1  H 10785 10796       L1    21  0.11
      L1  C    20    45       P1 10186  1.00
      L1  C    22    46       P1 10747  0.69

> <Gold.PLP.Chemscore.Internal.Correction>
0.3434

> <Gold.Rescore>
     Score         DG    S(hbond)    S(metal)    S(lipo)     H(rot)  DE(clash)    DE(int)     intcor
     18.16     -20.11       3.02        0.00      74.92       1.65       0.08       1.87       ----

> <Gold.Chemscore.Fitness>
18.1641

> <Gold.Chemscore.DG>
-20.1112

> <Gold.Chemscore.ZeroCoef>
-5.4800

> <Gold.Chemscore.Hbond>
3.0216

> <Gold.Chemscore.Metal>
0.0000

> <Gold.Chemscore.Lipo>
74.9177

> <Gold.Chemscore.Internal_Hbond>
0.0000

> <Gold.Chemscore.DEClash>
0.0812

> <Gold.Chemscore.DEInternal>
1.8659

> <Gold.Chemscore.Rot>
1.6508

> <Gold.Chemscore.Internal.Correction>
   9.000000E+99

> <Gold.Chemscore.Hbonds>
donor molecule, donor type, donor heavy atom, donor atom, acceptor molecule, acceptor atom, score
      L1  H     3    24       P1  7948  0.99
      L1  H    17    43       P1  7948  0.86
      P1  H  7989  7998       L1    14  0.88
      P1  H 10785 10796       L1    21  0.09

> <Gold.Chemscore.Hbond.Weighted>
-10.0920

> <Gold.Chemscore.Metal.Weighted>
-0.0000

> <Gold.Chemscore.Lipo.Weighted>
-8.7654

> <Gold.Chemscore.Internal_Hbond.Weighted>
0.0000

> <Gold.Chemscore.DEClash.Weighted>
0.0812

> <Gold.Chemscore.DEInternal.Weighted>
1.8659

> <Gold.Chemscore.Rot.Weighted>
4.2262

> <Gold.Chemscore.Internal.Correction.Weighted>
   9.000000E+99

> <Gold.Protein.RotatedTorsions>
[ 6907 6896 6895 6894 ] final   17.40 input  -60.11 | X-H torsion
[ 7974 7965 7964 7962 ] final  -18.88 input  175.53 | X-H torsion
[ 8008 7997 7996 7995 ] final   19.13 input   59.86 | X-H torsion
[ 10167 10162 10161 10158 ] final  -22.02 input  -65.29 | X-H torsion
[ 10718 10713 10712 10709 ] final  -59.48 input   66.30 | X-H torsion
[ 10763 10752 10751 10750 ] final  170.50 input  -60.55 | X-H torsion
[ 11005 11000 10999 10996 ] final   94.07 input  -57.11 | X-H torsion

> <Gold.Protein.ActiveResidues>
 VAL166  LYS551  ARG553  GLY616  TRP617  ASP618  TYR619  PRO620  LYS621  CYS622 
 ASP623  PHE694  ASN695  SER759  ASP760  ASP761  ALA762  ILE779  LEU786  VAL792 
 PHE793  MET794  SER795  GLU796  ALA797  LYS798  CYS799  TRP800  GLU811  SER814 

> <Gold.Protein.RotatedAtoms>
  151.8490  135.0564  160.0456 H   0  0  0  0  0  0  0  0  0  0  0  0  # atno 6907 bound_to 6896
  152.2751  133.5413  159.5471 H   0  0  0  0  0  0  0  0  0  0  0  0  # atno 6908 bound_to 6896
  150.7167  134.0559  159.3857 H   0  0  0  0  0  0  0  0  0  0  0  0  # atno 6909 bound_to 6896
  146.1870  140.3983  142.8472 H   0  0  0  0  0  0  0  0  0  0  0  0  # atno 7974 bound_to 7965
  154.9162  140.3021  155.5240 H   0  0  0  0  0  0  0  0  0  0  0  0  # atno 8008 bound_to 7997
  156.3012  140.2380  156.4143 H   0  0  0  0  0  0  0  0  0  0  0  0  # atno 8009 bound_to 7997
  154.8376  140.0415  157.1508 H   0  0  0  0  0  0  0  0  0  0  0  0  # atno 8010 bound_to 7997
  140.7284  143.4573  151.0430 H   0  0  0  0  0  0  0  0  0  0  0  0  # atno 10167 bound_to 10162
  156.1058  130.4180  150.0721 H   0  0  0  0  0  0  0  0  0  0  0  0  # atno 10718 bound_to 10713
  154.3985  135.2754  155.2111 H   0  0  0  0  0  0  0  0  0  0  0  0  # atno 10763 bound_to 10752
  154.4147  135.6014  153.5977 H   0  0  0  0  0  0  0  0  0  0  0  0  # atno 10764 bound_to 10752
  152.9831  135.5958  154.4249 H   0  0  0  0  0  0  0  0  0  0  0  0  # atno 10765 bound_to 10752
  139.8802  134.8825  156.3810 H   0  0  0  0  0  0  0  0  0  0  0  0  # atno 11005 bound_to 11000
  144.8415  140.6864  143.6226 LP  0  0  0  0  0  0  0  0  0  0  0  0  # atno 17320 bound_to 7965
  145.3909  139.1617  143.4229 LP  0  0  0  0  0  0  0  0  0  0  0  0  # atno 17321 bound_to 7965
  139.8255  143.7762  152.3178 LP  0  0  0  0  0  0  0  0  0  0  0  0  # atno 17342 bound_to 10162
  139.7860  144.7428  151.0022 LP  0  0  0  0  0  0  0  0  0  0  0  0  # atno 17343 bound_to 10162
  156.8697  130.9520  151.3610 LP  0  0  0  0  0  0  0  0  0  0  0  0  # atno 17370 bound_to 10713
  157.6235  130.8673  149.9149 LP  0  0  0  0  0  0  0  0  0  0  0  0  # atno 17371 bound_to 10713
  140.9399  133.7522  156.0133 LP  0  0  0  0  0  0  0  0  0  0  0  0  # atno 17394 bound_to 11000
  140.8232  134.3265  157.5374 LP  0  0  0  0  0  0  0  0  0  0  0  0  # atno 17395 bound_to 11000

$$$$
