AV-unprocessed.smi:1033|AV-procd|sdf|4497|dock2
  -GOLD-   22720 2483D 1   1.00000     0.00000
 Structure written by MMmdl.
 56 58  0  0  0  0  0  0  0  0  2 V2000
  153.5780  142.4866  162.1862 C   0  0  0  0  0  0  0  0  0  0  0  0
  152.9840  142.2364  160.8112 C   0  0  0  0  0  0  0  0  0  0  0  0
  153.2817  141.0268  160.1433 C   0  0  0  0  0  0  0  0  0  0  0  0
  152.7479  140.7552  158.8643 C   0  0  0  0  0  0  0  0  0  0  0  0
  152.9029  139.6542  158.0391 N   0  0  0  0  0  0  0  0  0  0  0  0
  152.1592  139.9976  156.9909 C   0  0  0  0  0  0  0  0  0  0  0  0
  151.5404  141.1930  157.0400 N   0  0  0  0  0  0  0  0  0  0  0  0
  150.6833  141.7864  156.0305 C   0  0  0  0  0  0  0  0  0  0  0  0
  149.2007  141.4156  156.2351 C   0  0  1  0  0  0  0  0  0  0  0  0
  148.4216  142.0583  155.2467 O   0  0  0  0  0  0  0  0  0  0  0  0
  148.9403  139.8995  156.1351 C   0  0  0  0  0  0  0  0  0  0  0  0
  148.7511  139.3809  154.7748 N   0  0  0  0  0  0  0  0  0  0  0  0
  149.9904  139.0734  154.0550 C   0  0  0  0  0  0  0  0  0  0  0  0
  150.7216  137.8306  154.6005 C   0  0  0  0  0  0  0  0  0  0  0  0
  149.8192  136.6489  154.5610 N   0  3  0  0  0  0  0  0  0  0  0  0
  150.4641  135.3863  155.0033 C   0  0  0  0  0  0  0  0  0  0  0  0
  149.4551  134.2329  155.1706 C   0  0  1  0  0  0  0  0  0  0  0  0
  149.1917  133.4988  153.8496 C   0  0  0  0  0  0  0  0  0  0  0  0
  149.9664  133.2967  156.0981 O   0  0  0  0  0  0  0  0  0  0  0  0
  148.5573  136.9317  155.2922 C   0  0  0  0  0  0  0  0  0  0  0  0
  147.8853  138.2029  154.7326 C   0  0  0  0  0  0  0  0  0  0  0  0
  151.9008  141.7344  158.2684 C   0  0  0  0  0  0  0  0  0  0  0  0
  151.5969  142.9413  158.9223 C   0  0  0  0  0  0  0  0  0  0  0  0
  152.1400  143.1974  160.1986 C   0  0  0  0  0  0  0  0  0  0  0  0
  151.8066  144.5043  160.8964 C   0  0  0  0  0  0  0  0  0  0  0  0
  154.1809  141.6415  162.5196 H   0  0  0  0  0  0  0  0  0  0  0  0
  152.7883  142.6433  162.9213 H   0  0  0  0  0  0  0  0  0  0  0  0
  154.2182  143.3688  162.1712 H   0  0  0  0  0  0  0  0  0  0  0  0
  153.9245  140.2946  160.6092 H   0  0  0  0  0  0  0  0  0  0  0  0
  152.0598  139.3436  156.1367 H   0  0  0  0  0  0  0  0  0  0  0  0
  150.8174  142.8691  156.0420 H   0  0  0  0  0  0  0  0  0  0  0  0
  151.0316  141.4413  155.0564 H   0  0  0  0  0  0  0  0  0  0  0  0
  148.8547  141.7921  157.1972 H   0  0  0  0  0  0  0  0  0  0  0  0
  148.5051  142.9932  155.3570 H   0  0  0  0  0  0  0  0  0  0  0  0
  149.7552  139.3684  156.6268 H   0  0  0  0  0  0  0  0  0  0  0  0
  148.0489  139.6747  156.7224 H   0  0  0  0  0  0  0  0  0  0  0  0
  149.7510  138.9003  153.0049 H   0  0  0  0  0  0  0  0  0  0  0  0
  150.6605  139.9318  154.0547 H   0  0  0  0  0  0  0  0  0  0  0  0
  151.6068  137.6505  153.9920 H   0  0  0  0  0  0  0  0  0  0  0  0
  151.0734  138.0011  155.6187 H   0  0  0  0  0  0  0  0  0  0  0  0
  151.2451  135.1135  154.2917 H   0  0  0  0  0  0  0  0  0  0  0  0
  150.9666  135.5474  155.9588 H   0  0  0  0  0  0  0  0  0  0  0  0
  148.5039  134.6058  155.5492 H   0  0  0  0  0  0  0  0  0  0  0  0
  148.7769  134.1754  153.1019 H   0  0  0  0  0  0  0  0  0  0  0  0
  148.4783  132.6855  153.9874 H   0  0  0  0  0  0  0  0  0  0  0  0
  150.1079  133.0719  153.4397 H   0  0  0  0  0  0  0  0  0  0  0  0
  150.8451  133.0616  155.8404 H   0  0  0  0  0  0  0  0  0  0  0  0
  147.8744  136.0887  155.1810 H   0  0  0  0  0  0  0  0  0  0  0  0
  148.7596  137.0324  156.3595 H   0  0  0  0  0  0  0  0  0  0  0  0
  146.9594  138.4026  155.2734 H   0  0  0  0  0  0  0  0  0  0  0  0
  147.5895  138.0180  153.6989 H   0  0  0  0  0  0  0  0  0  0  0  0
  150.9504  143.6625  158.4447 H   0  0  0  0  0  0  0  0  0  0  0  0
  151.1750  145.1386  160.2740 H   0  0  0  0  0  0  0  0  0  0  0  0
  152.7165  145.0601  161.1234 H   0  0  0  0  0  0  0  0  0  0  0  0
  151.2746  144.3137  161.8288 H   0  0  0  0  0  0  0  0  0  0  0  0
  149.5580  136.5102  153.5949 H   0  0  0  0  0  0  0  0  0  0  0  0
  1  2  1  0  0  0  0
  1 26  1  0  0  0  0
  1 27  1  0  0  0  0
  1 28  1  0  0  0  0
  2 24  1  0  0  0  0
  2  3  2  0  0  0  0
  3  4  1  0  0  0  0
  3 29  1  0  0  0  0
  4 22  2  0  0  0  0
  4  5  1  0  0  0  0
  5  6  2  0  0  0  0
  6  7  1  0  0  0  0
  6 30  1  0  0  0  0
  7  8  1  0  0  0  0
  7 22  1  0  0  0  0
  8  9  1  0  0  0  0
  8 31  1  0  0  0  0
  8 32  1  0  0  0  0
  9 10  1  0  0  0  0
  9 11  1  0  0  0  0
  9 33  1  0  0  0  0
 10 34  1  0  0  0  0
 11 12  1  0  0  0  0
 11 35  1  0  0  0  0
 11 36  1  0  0  0  0
 12 21  1  0  0  0  0
 12 13  1  0  0  0  0
 13 14  1  0  0  0  0
 13 37  1  0  0  0  0
 13 38  1  0  0  0  0
 14 15  1  0  0  0  0
 14 39  1  0  0  0  0
 14 40  1  0  0  0  0
 15 16  1  0  0  0  0
 15 20  1  0  0  0  0
 15 56  1  0  0  0  0
 16 17  1  0  0  0  0
 16 41  1  0  0  0  0
 16 42  1  0  0  0  0
 17 18  1  0  0  0  0
 17 19  1  0  0  0  0
 17 43  1  0  0  0  0
 18 44  1  0  0  0  0
 18 45  1  0  0  0  0
 18 46  1  0  0  0  0
 19 47  1  0  0  0  0
 20 21  1  0  0  0  0
 20 48  1  0  0  0  0
 20 49  1  0  0  0  0
 21 50  1  0  0  0  0
 21 51  1  0  0  0  0
 22 23  1  0  0  0  0
 23 24  2  0  0  0  0
 23 52  1  0  0  0  0
 24 25  1  0  0  0  0
 25 53  1  0  0  0  0
 25 54  1  0  0  0  0
 25 55  1  0  0  0  0
M  CHG  1  15   1
M  END
> <s_m_source_file>
AV-unprocessed.smi

> <i_m_source_file_index>
1033

> <i_lp_mmshare_version>
43012

> <i_f3d_flags>
0

> <s_epik_input>
W0NIM11jKFtjSF0xKWMoW0NIM10pW2NIXWMoYzEyKW4oW2NIXW4yKVtDSDJdW0NASF0oW09IXSlbQ0gyXU4zW0NIMl1bQ0gyXU4oW0NIMl1bQ0gyXTMpW0NIMl1bQ0BIXShbQ0gzXSlbT0hd

> <s_epik_cmdline>
J2VwaWtfcHl0aG9uJywgJy1waCcsICc3LjAnLCAnLXRuJywgJzgnLCAnLW1hJywgJzIwMCcsICctbWV0YWxfYmluZGluZycsICctaW1hZScsICc8aW5maWxlLm1hZT4nLCAnLW9tYWUnLCAnPG91dGZpbGUubWFlPic=

> <r_epik_Ionization_Penalty>
0.129152

> <r_epik_Ionization_Penalty_Charging>
0.00083231

> <r_epik_Ionization_Penalty_Neutral>
0.128319

> <r_epik_State_Penalty>
0.556973

> <r_epik_Charging_Adjusted_Penalty>
0.557805

> <i_epik_Tot_Q>
1

> <i_epik_Tot_abs_Q>
1

> <r_epik_Metal_State_Penalty>
0.490047

> <b_epik_Metal_Only>
0

> <s_lp_Force_Field>
OPLS_2005

> <r_lp_Energy>
33.0878

> <b_lp_Chiralities_Consistent>
1

> <s_lp_Variant>
AV-unprocessed.smi:1033-8

> <Gold.Version>
5.8.1

> <Gold.Id.Protein>
6NUR|6NUR_protein|mol2

> <Gold.PLP.Fitness>
57.7461

> <Gold.PLP.PLP>
-48.3938

> <Gold.PLP.part.hbond>
-3.0068

> <Gold.PLP.part.metal>
0.0000

> <Gold.PLP.part.buried>
-4.2510

> <Gold.PLP.part.nonpolar>
-39.5284

> <Gold.PLP.part.repulsive>
0.1396

> <Gold.PLP.ligand.clash>
0.0000

> <Gold.PLP.ligand.torsion>
1.3071

> <Gold.PLP.Chemscore.Hbond>
3.9000

> <Gold.PLP.Chemscore.CHOScore>
0.0000

> <Gold.PLP.Chemscore.Metal>
0.0000

> <Gold.Chemscore.Hbonds>
donor molecule, donor type, donor heavy atom, donor atom, acceptor molecule, acceptor atom, score
      L1  H    10    34       P1  8028  1.00
      L1  H    15    56       P1  7948  2.00
      P1  H  7997  8009       L1     5  0.74

> <Gold.PLP.Chemscore.Internal.Correction>
0.2665

> <Gold.Rescore>
     Score         DG    S(hbond)    S(metal)    S(lipo)     H(rot)  DE(clash)    DE(int)     intcor
     18.17     -19.55       1.90        0.00     133.01       3.07       0.03       1.35       ----

> <Gold.Chemscore.Fitness>
18.1719

> <Gold.Chemscore.DG>
-19.5474

> <Gold.Chemscore.ZeroCoef>
-5.4800

> <Gold.Chemscore.Hbond>
1.9016

> <Gold.Chemscore.Metal>
0.0000

> <Gold.Chemscore.Lipo>
133.0123

> <Gold.Chemscore.Internal_Hbond>
0.0000

> <Gold.Chemscore.DEClash>
0.0297

> <Gold.Chemscore.DEInternal>
1.3457

> <Gold.Chemscore.Rot>
3.0650

> <Gold.Chemscore.Internal.Correction>
   9.000000E+99

> <Gold.Chemscore.Hbonds>
donor molecule, donor type, donor heavy atom, donor atom, acceptor molecule, acceptor atom, score
      L1  H    10    34       P1  8028  1.00
      L1  H    15    56       P1  7948  0.65
      P1  H  7997  8009       L1     5  0.03

> <Gold.Chemscore.Hbond.Weighted>
-6.3514

> <Gold.Chemscore.Metal.Weighted>
-0.0000

> <Gold.Chemscore.Lipo.Weighted>
-15.5624

> <Gold.Chemscore.Internal_Hbond.Weighted>
0.0000

> <Gold.Chemscore.DEClash.Weighted>
0.0297

> <Gold.Chemscore.DEInternal.Weighted>
1.3457

> <Gold.Chemscore.Rot.Weighted>
7.8465

> <Gold.Chemscore.Internal.Correction.Weighted>
   9.000000E+99

> <Gold.Protein.RotatedTorsions>
[ 6907 6896 6895 6894 ] final  101.83 input  -60.11 | X-H torsion
[ 7974 7965 7964 7962 ] final  -31.80 input  175.53 | X-H torsion
[ 8008 7997 7996 7995 ] final  142.92 input   59.86 | X-H torsion
[ 10167 10162 10161 10158 ] final   29.29 input  -65.29 | X-H torsion
[ 10718 10713 10712 10709 ] final  -56.12 input   66.30 | X-H torsion
[ 10763 10752 10751 10750 ] final  -10.36 input  -60.55 | X-H torsion
[ 11005 11000 10999 10996 ] final   63.63 input  -57.11 | X-H torsion

> <Gold.Protein.ActiveResidues>
 VAL166  LYS551  ARG553  GLY616  TRP617  ASP618  TYR619  PRO620  LYS621  CYS622 
 ASP623  PHE694  ASN695  SER759  ASP760  ASP761  ALA762  ILE779  LEU786  VAL792 
 PHE793  MET794  SER795  GLU796  ALA797  LYS798  CYS799  TRP800  GLU811  SER814 

> <Gold.Protein.RotatedAtoms>
  152.5339  134.0067  159.7919 H   0  0  0  0  0  0  0  0  0  0  0  0  # atno 6907 bound_to 6896
  151.0277  133.5811  159.2671 H   0  0  0  0  0  0  0  0  0  0  0  0  # atno 6908 bound_to 6896
  151.2827  135.0726  159.9229 H   0  0  0  0  0  0  0  0  0  0  0  0  # atno 6909 bound_to 6896
  146.1039  140.5713  142.8808 H   0  0  0  0  0  0  0  0  0  0  0  0  # atno 7974 bound_to 7965
  156.2940  140.2276  156.4806 H   0  0  0  0  0  0  0  0  0  0  0  0  # atno 8008 bound_to 7997
  154.7856  140.0457  157.1183 H   0  0  0  0  0  0  0  0  0  0  0  0  # atno 8009 bound_to 7997
  154.9706  140.3066  155.4993 H   0  0  0  0  0  0  0  0  0  0  0  0  # atno 8010 bound_to 7997
  140.4778  144.0663  150.6256 H   0  0  0  0  0  0  0  0  0  0  0  0  # atno 10167 bound_to 10162
  156.1314  130.4159  150.0263 H   0  0  0  0  0  0  0  0  0  0  0  0  # atno 10718 bound_to 10713
  153.4681  135.7016  153.6010 H   0  0  0  0  0  0  0  0  0  0  0  0  # atno 10763 bound_to 10752
  153.4275  135.3810  155.2150 H   0  0  0  0  0  0  0  0  0  0  0  0  # atno 10764 bound_to 10752
  154.8726  135.3943  154.4116 H   0  0  0  0  0  0  0  0  0  0  0  0  # atno 10765 bound_to 10752
  140.0011  134.6440  155.9928 H   0  0  0  0  0  0  0  0  0  0  0  0  # atno 11005 bound_to 11000
  144.7455  140.5056  143.6839 LP  0  0  0  0  0  0  0  0  0  0  0  0  # atno 17320 bound_to 7965
  145.5799  139.1488  143.3241 LP  0  0  0  0  0  0  0  0  0  0  0  0  # atno 17321 bound_to 7965
  140.3896  143.2759  152.0076 LP  0  0  0  0  0  0  0  0  0  0  0  0  # atno 17342 bound_to 10162
  139.4828  144.6088  151.7471 LP  0  0  0  0  0  0  0  0  0  0  0  0  # atno 17343 bound_to 10162
  156.8174  130.9346  151.3642 LP  0  0  0  0  0  0  0  0  0  0  0  0  # atno 17370 bound_to 10713
  157.6491  130.8869  149.9597 LP  0  0  0  0  0  0  0  0  0  0  0  0  # atno 17371 bound_to 10713
  141.1643  133.6537  156.4424 LP  0  0  0  0  0  0  0  0  0  0  0  0  # atno 17394 bound_to 11000
  140.4725  134.6740  157.5135 LP  0  0  0  0  0  0  0  0  0  0  0  0  # atno 17395 bound_to 11000

$$$$
