AV-unprocessed.smi:528|AV-procd|sdf|2837|dock6
  -GOLD-   2262023323D 1   1.00000     0.00000
 Structure written by MMmdl.
 45 47  0  0  0  0  0  0  0  0  1 V2000
  151.6017  140.7429  157.5494 C   0  0  0  0  0  0  0  0  0  0  0  0
  152.3220  141.5002  158.6754 C   0  0  2  0  0  0  0  0  0  0  0  0
  152.7808  140.5313  159.6702 N   0  0  0  0  0  0  0  0  0  0  0  0
  153.5341  139.4463  159.4315 C   0  0  0  0  0  0  0  0  0  0  0  0
  153.9133  139.1187  158.3062 O   0  0  0  0  0  0  0  0  0  0  0  0
  153.9120  138.6147  160.6655 C   0  0  0  0  0  0  0  0  0  0  0  0
  155.1649  139.0563  161.2997 N   0  0  0  0  0  0  0  0  0  0  0  0
  155.0897  139.4345  162.6546 C   0  0  0  0  0  0  0  0  0  0  0  0
  156.1510  139.8845  163.3505 C   0  0  0  0  0  0  0  0  0  0  0  0
  156.0444  140.2455  164.8238 C   0  0  0  0  0  0  0  0  0  0  0  0
  157.2355  140.5691  165.3277 F   0  0  0  0  0  0  0  0  0  0  0  0
  155.2312  141.2899  164.9763 F   0  0  0  0  0  0  0  0  0  0  0  0
  155.5513  139.2294  165.5331 F   0  0  0  0  0  0  0  0  0  0  0  0
  157.4150  139.9293  162.6417 C   0  0  0  0  0  0  0  0  0  0  0  0
  157.5050  139.5671  161.3468 C   0  0  0  0  0  0  0  0  0  0  0  0
  156.3344  139.1099  160.5945 C   0  0  0  0  0  0  0  0  0  0  0  0
  156.4015  138.7953  159.4061 O   0  0  0  0  0  0  0  0  0  0  0  0
  151.4128  142.5550  159.3540 C   0  0  1  0  0  0  0  0  0  0  0  0
  152.1178  143.4683  160.3848 C   0  0  0  0  0  0  0  0  0  0  0  0
  151.6685  144.8797  159.9648 C   0  0  1  0  0  0  0  0  0  0  0  0
  152.4172  145.2820  158.6812 C   0  0  0  0  0  0  0  0  0  0  0  0
  151.7441  144.4048  157.6101 C   0  0  0  0  0  0  0  0  0  0  0  0
  150.7225  143.5872  158.4276 C   0  0  2  0  0  0  0  0  0  0  0  0
  150.2590  144.6281  159.4423 C   0  0  0  0  0  0  0  0  0  0  0  0
  151.3082  141.4153  156.7432 H   0  0  0  0  0  0  0  0  0  0  0  0
  150.7018  140.2470  157.9148 H   0  0  0  0  0  0  0  0  0  0  0  0
  152.2488  139.9805  157.1143 H   0  0  0  0  0  0  0  0  0  0  0  0
  153.1857  141.9989  158.2354 H   0  0  0  0  0  0  0  0  0  0  0  0
  152.5143  140.7123  160.6272 H   0  0  0  0  0  0  0  0  0  0  0  0
  153.0979  138.6680  161.3905 H   0  0  0  0  0  0  0  0  0  0  0  0
  153.9636  137.5640  160.3755 H   0  0  0  0  0  0  0  0  0  0  0  0
  154.1055  139.3427  163.0910 H   0  0  0  0  0  0  0  0  0  0  0  0
  158.3045  140.2630  163.1555 H   0  0  0  0  0  0  0  0  0  0  0  0
  158.4628  139.6159  160.8496 H   0  0  0  0  0  0  0  0  0  0  0  0
  150.6216  142.0140  159.8770 H   0  0  0  0  0  0  0  0  0  0  0  0
  151.7834  143.2325  161.3958 H   0  0  0  0  0  0  0  0  0  0  0  0
  153.2041  143.3781  160.3685 H   0  0  0  0  0  0  0  0  0  0  0  0
  151.7424  145.6181  160.7635 H   0  0  0  0  0  0  0  0  0  0  0  0
  152.2703  146.3395  158.4582 H   0  0  0  0  0  0  0  0  0  0  0  0
  153.4903  145.1008  158.7532 H   0  0  0  0  0  0  0  0  0  0  0  0
  151.2292  145.0319  156.8811 H   0  0  0  0  0  0  0  0  0  0  0  0
  152.4539  143.7899  157.0585 H   0  0  0  0  0  0  0  0  0  0  0  0
  149.9200  143.1632  157.8231 H   0  0  0  0  0  0  0  0  0  0  0  0
  149.5815  144.2284  160.1988 H   0  0  0  0  0  0  0  0  0  0  0  0
  149.8038  145.5084  158.9849 H   0  0  0  0  0  0  0  0  0  0  0  0
  1  2  1  0  0  0  0
  1 25  1  0  0  0  0
  1 26  1  0  0  0  0
  1 27  1  0  0  0  0
  2  3  1  0  0  0  0
  2 18  1  0  0  0  0
  2 28  1  0  0  0  0
  3  4  1  0  0  0  0
  3 29  1  0  0  0  0
  4  5  2  0  0  0  0
  4  6  1  0  0  0  0
  6  7  1  0  0  0  0
  6 30  1  0  0  0  0
  6 31  1  0  0  0  0
  7 16  1  0  0  0  0
  7  8  1  0  0  0  0
  8  9  2  0  0  0  0
  8 32  1  0  0  0  0
  9 10  1  0  0  0  0
  9 14  1  0  0  0  0
 10 11  1  0  0  0  0
 10 12  1  0  0  0  0
 10 13  1  0  0  0  0
 14 15  2  0  0  0  0
 14 33  1  0  0  0  0
 15 16  1  0  0  0  0
 15 34  1  0  0  0  0
 16 17  2  0  0  0  0
 18 23  1  0  0  0  0
 18 19  1  0  0  0  0
 18 35  1  0  0  0  0
 19 20  1  0  0  0  0
 19 36  1  0  0  0  0
 19 37  1  0  0  0  0
 20 24  1  0  0  0  0
 20 21  1  0  0  0  0
 20 38  1  0  0  0  0
 21 22  1  0  0  0  0
 21 39  1  0  0  0  0
 21 40  1  0  0  0  0
 22 23  1  0  0  0  0
 22 41  1  0  0  0  0
 22 42  1  0  0  0  0
 23 24  1  0  0  0  0
 23 43  1  0  0  0  0
 24 44  1  0  0  0  0
 24 45  1  0  0  0  0
M  END
> <s_m_source_file>
AV-unprocessed.smi

> <i_m_source_file_index>
528

> <i_lp_mmshare_version>
43012

> <i_f3d_flags>
0

> <s_epik_input>
W0NIMl0xW0NIMl1bQ0BASF0oW0NIMl0yKVtDQEBIXShbQ0gyXVtDQEhdMTIpW0NASF0oW0NIM10pW05IXUMoPU8pW0NIMl1uM1tjSF1jKEMoRikoRilGKVtjSF1bY0hdYzM9Tw==

> <s_epik_cmdline>
J2VwaWtfcHl0aG9uJywgJy1waCcsICc3LjAnLCAnLXRuJywgJzgnLCAnLW1hJywgJzIwMCcsICctbWV0YWxfYmluZGluZycsICctaW1hZScsICc8aW5maWxlLm1hZT4nLCAnLW9tYWUnLCAnPG91dGZpbGUubWFlPic=

> <r_lp_tautomer_probability>
1

> <r_epik_Ionization_Penalty>
4.09479e-08

> <r_epik_Ionization_Penalty_Charging>
1.9321e-08

> <r_epik_Ionization_Penalty_Neutral>
2.16269e-08

> <r_epik_State_Penalty>
-0

> <r_epik_Charging_Adjusted_Penalty>
1.9321e-08

> <i_epik_Tot_Q>
0

> <i_epik_Tot_abs_Q>
0

> <r_epik_Metal_State_Penalty>
-0

> <b_epik_Metal_Only>
0

> <s_lp_Force_Field>
OPLS_2005

> <r_lp_Energy>
63.2054

> <b_lp_Chiralities_Consistent>
1

> <s_lp_Variant>
AV-unprocessed.smi:528-7

> <Gold.Version>
5.8.1

> <Gold.Id.Protein>
6NUR|6NUR_protein|mol2

> <Gold.PLP.Fitness>
43.8943

> <Gold.PLP.PLP>
-41.8225

> <Gold.PLP.part.hbond>
-1.0000

> <Gold.PLP.part.metal>
0.0000

> <Gold.PLP.part.buried>
-5.8479

> <Gold.PLP.part.nonpolar>
-33.8276

> <Gold.PLP.part.repulsive>
0.1629

> <Gold.PLP.ligand.clash>
0.0000

> <Gold.PLP.ligand.torsion>
0.4870

> <Gold.PLP.Chemscore.Hbond>
1.0000

> <Gold.PLP.Chemscore.CHOScore>
0.0000

> <Gold.PLP.Chemscore.Metal>
0.0000

> <Gold.Chemscore.Hbonds>
donor molecule, donor type, donor heavy atom, donor atom, acceptor molecule, acceptor atom, score
      P1  H  7997  8010       L1     5  1.00

> <Gold.PLP.Chemscore.Internal.Correction>
0.0457

> <Gold.Rescore>
     Score         DG    S(hbond)    S(metal)    S(lipo)     H(rot)  DE(clash)    DE(int)     intcor
     16.12     -19.18       1.00        0.00     126.12       1.71       0.26       2.80       ----

> <Gold.Chemscore.Fitness>
16.1178

> <Gold.Chemscore.DG>
-19.1776

> <Gold.Chemscore.ZeroCoef>
-5.4800

> <Gold.Chemscore.Hbond>
0.9958

> <Gold.Chemscore.Metal>
0.0000

> <Gold.Chemscore.Lipo>
126.1177

> <Gold.Chemscore.Internal_Hbond>
0.0000

> <Gold.Chemscore.DEClash>
0.2594

> <Gold.Chemscore.DEInternal>
2.8004

> <Gold.Chemscore.Rot>
1.7125

> <Gold.Chemscore.Internal.Correction>
   9.000000E+99

> <Gold.Chemscore.Hbonds>
donor molecule, donor type, donor heavy atom, donor atom, acceptor molecule, acceptor atom, score
      P1  H  7997  8010       L1     5  0.99

> <Gold.Chemscore.Hbond.Weighted>
-3.3258

> <Gold.Chemscore.Metal.Weighted>
-0.0000

> <Gold.Chemscore.Lipo.Weighted>
-14.7558

> <Gold.Chemscore.Internal_Hbond.Weighted>
0.0000

> <Gold.Chemscore.DEClash.Weighted>
0.2594

> <Gold.Chemscore.DEInternal.Weighted>
2.8004

> <Gold.Chemscore.Rot.Weighted>
4.3840

> <Gold.Chemscore.Internal.Correction.Weighted>
   9.000000E+99

> <Gold.Protein.RotatedTorsions>
[ 6907 6896 6895 6894 ] final  -81.21 input  -60.11 | X-H torsion
[ 7974 7965 7964 7962 ] final   -0.13 input  175.53 | X-H torsion
[ 8008 7997 7996 7995 ] final   36.73 input   59.86 | X-H torsion
[ 10167 10162 10161 10158 ] final  -91.22 input  -65.29 | X-H torsion
[ 10718 10713 10712 10709 ] final   26.64 input   66.30 | X-H torsion
[ 10763 10752 10751 10750 ] final   75.70 input  -60.55 | X-H torsion
[ 11005 11000 10999 10996 ] final   53.11 input  -57.11 | X-H torsion

> <Gold.Protein.ActiveResidues>
 VAL166  LYS551  ARG553  GLY616  TRP617  ASP618  TYR619  PRO620  LYS621  CYS622 
 ASP623  PHE694  ASN695  SER759  ASP760  ASP761  ALA762  ILE779  LEU786  VAL792 
 PHE793  MET794  SER795  GLU796  ALA797  LYS798  CYS799  TRP800  GLU811  SER814 

> <Gold.Protein.RotatedAtoms>
  150.6916  134.3853  159.5051 H   0  0  0  0  0  0  0  0  0  0  0  0  # atno 6907 bound_to 6896
  152.1649  134.8879  160.0548 H   0  0  0  0  0  0  0  0  0  0  0  0  # atno 6908 bound_to 6896
  151.9927  133.3762  159.4187 H   0  0  0  0  0  0  0  0  0  0  0  0  # atno 6909 bound_to 6896
  146.2430  140.1223  142.8340 H   0  0  0  0  0  0  0  0  0  0  0  0  # atno 7974 bound_to 7965
  155.1921  140.3309  155.4357 H   0  0  0  0  0  0  0  0  0  0  0  0  # atno 8008 bound_to 7997
  156.2438  140.1908  156.6963 H   0  0  0  0  0  0  0  0  0  0  0  0  # atno 8009 bound_to 7997
  154.6199  140.0597  156.9587 H   0  0  0  0  0  0  0  0  0  0  0  0  # atno 8010 bound_to 7997
  140.3470  143.2911  151.9769 H   0  0  0  0  0  0  0  0  0  0  0  0  # atno 10167 bound_to 10162
  157.2096  130.6928  149.6222 H   0  0  0  0  0  0  0  0  0  0  0  0  # atno 10718 bound_to 10713
  153.0673  135.4979  154.8228 H   0  0  0  0  0  0  0  0  0  0  0  0  # atno 10763 bound_to 10752
  154.6972  135.2995  154.9396 H   0  0  0  0  0  0  0  0  0  0  0  0  # atno 10764 bound_to 10752
  154.0132  135.6751  153.4819 H   0  0  0  0  0  0  0  0  0  0  0  0  # atno 10765 bound_to 10752
  140.0794  134.5360  155.8962 H   0  0  0  0  0  0  0  0  0  0  0  0  # atno 11005 bound_to 11000
  145.0396  140.8935  143.5061 LP  0  0  0  0  0  0  0  0  0  0  0  0  # atno 17320 bound_to 7965
  145.1302  139.2637  143.5543 LP  0  0  0  0  0  0  0  0  0  0  0  0  # atno 17321 bound_to 7965
  139.4832  144.6108  151.7437 LP  0  0  0  0  0  0  0  0  0  0  0  0  # atno 17342 bound_to 10162
  140.5255  144.0813  150.6036 LP  0  0  0  0  0  0  0  0  0  0  0  0  # atno 17343 bound_to 10162
  155.9692  130.4556  150.5892 LP  0  0  0  0  0  0  0  0  0  0  0  0  # atno 17370 bound_to 10713
  157.3686  131.0762  151.1577 LP  0  0  0  0  0  0  0  0  0  0  0  0  # atno 17371 bound_to 10713
  141.2041  133.6637  156.6102 LP  0  0  0  0  0  0  0  0  0  0  0  0  # atno 17394 bound_to 11000
  140.3510  134.7768  157.4467 LP  0  0  0  0  0  0  0  0  0  0  0  0  # atno 17395 bound_to 11000

$$$$
