AV-unprocessed.smi:1610|AV-procd|sdf|6471|dock9
  -GOLD-   22720 7133D 1   1.00000     0.00000
 Structure written by MMmdl.
 45 46  0  0  0  0  0  0  0  0  2 V2000
  147.1147  134.4042  156.9214 C   0  0  0  0  0  0  0  0  0  0  0  0
  148.6525  135.2680  157.4426 S   0  0  0  0  0  0  0  0  0  0  0  0
  148.5186  136.7000  157.1341 O   0  0  0  0  0  0  0  0  0  0  0  0
  148.9887  134.8297  158.8054 O   0  0  0  0  0  0  0  0  0  0  0  0
  149.8459  134.6080  156.3851 N   0  0  0  0  0  0  0  0  0  0  0  0
  150.8937  135.4475  155.8007 C   0  0  0  0  0  0  0  0  0  0  0  0
  151.6626  136.1907  156.9135 C   0  0  0  0  0  0  0  0  0  0  0  0
  152.6381  137.2181  156.3129 C   0  0  0  0  0  0  0  0  0  0  0  0
  151.8794  138.1446  155.4551 N   0  0  0  0  0  0  0  0  0  0  0  0
  151.5725  139.4362  155.7384 C   0  0  0  0  0  0  0  0  0  0  0  0
  151.0301  140.1950  154.9338 O   0  0  0  0  0  0  0  0  0  0  0  0
  151.9049  139.8354  156.9769 N   0  0  0  0  0  0  0  0  0  0  0  0
  151.6740  141.1718  157.5068 C   0  0  0  0  0  0  0  0  0  0  0  0
  152.0786  141.2430  158.9850 C   0  0  0  0  0  0  0  0  0  0  0  0
  151.9344  142.6435  159.5482 C   0  0  0  0  0  0  0  0  0  0  0  0
  151.6945  143.7414  158.6925 C   0  0  0  0  0  0  0  0  0  0  0  0
  151.5703  145.0336  159.2443 C   0  0  0  0  0  0  0  0  0  0  0  0
  151.6895  145.1988  160.6395 C   0  0  0  0  0  0  0  0  0  0  0  0
  151.9200  144.1248  161.4264 N   0  3  0  0  0  0  0  0  0  0  0  0
  152.0454  142.8717  160.9369 C   0  0  0  0  0  0  0  0  0  0  0  0
  151.3168  137.4477  154.2910 C   0  0  0  0  0  0  0  0  0  0  0  0
  150.2743  136.4258  154.7812 C   0  0  0  0  0  0  0  0  0  0  0  0
  146.2934  134.7091  157.5693 H   0  0  0  0  0  0  0  0  0  0  0  0
  147.2556  133.3265  156.9991 H   0  0  0  0  0  0  0  0  0  0  0  0
  146.8754  134.6690  155.8919 H   0  0  0  0  0  0  0  0  0  0  0  0
  149.5179  133.8396  155.8002 H   0  0  0  0  0  0  0  0  0  0  0  0
  151.5975  134.8092  155.2647 H   0  0  0  0  0  0  0  0  0  0  0  0
  150.9606  136.7050  157.5719 H   0  0  0  0  0  0  0  0  0  0  0  0
  152.2082  135.4819  157.5363 H   0  0  0  0  0  0  0  0  0  0  0  0
  153.1992  137.7079  157.1088 H   0  0  0  0  0  0  0  0  0  0  0  0
  153.3887  136.7058  155.7090 H   0  0  0  0  0  0  0  0  0  0  0  0
  152.3462  139.1652  157.5896 H   0  0  0  0  0  0  0  0  0  0  0  0
  152.2498  141.8902  156.9216 H   0  0  0  0  0  0  0  0  0  0  0  0
  150.6203  141.4345  157.3960 H   0  0  0  0  0  0  0  0  0  0  0  0
  151.4661  140.5591  159.5744 H   0  0  0  0  0  0  0  0  0  0  0  0
  153.1116  140.9142  159.1075 H   0  0  0  0  0  0  0  0  0  0  0  0
  151.6084  143.5970  157.6251 H   0  0  0  0  0  0  0  0  0  0  0  0
  151.3872  145.8857  158.6061 H   0  0  0  0  0  0  0  0  0  0  0  0
  151.6090  146.1498  161.1461 H   0  0  0  0  0  0  0  0  0  0  0  0
  152.2308  142.0964  161.6663 H   0  0  0  0  0  0  0  0  0  0  0  0
  150.8597  138.1273  153.5705 H   0  0  0  0  0  0  0  0  0  0  0  0
  152.1161  136.9391  153.7499 H   0  0  0  0  0  0  0  0  0  0  0  0
  149.8651  135.8740  153.9340 H   0  0  0  0  0  0  0  0  0  0  0  0
  149.4380  136.9585  155.2367 H   0  0  0  0  0  0  0  0  0  0  0  0
  152.0037  144.2663  162.4335 H   0  0  0  0  0  0  0  0  0  0  0  0
  1  2  1  0  0  0  0
  1 23  1  0  0  0  0
  1 24  1  0  0  0  0
  1 25  1  0  0  0  0
  2  3  2  0  0  0  0
  2  4  2  0  0  0  0
  2  5  1  0  0  0  0
  5  6  1  0  0  0  0
  5 26  1  0  0  0  0
  6 22  1  0  0  0  0
  6  7  1  0  0  0  0
  6 27  1  0  0  0  0
  7  8  1  0  0  0  0
  7 28  1  0  0  0  0
  7 29  1  0  0  0  0
  8  9  1  0  0  0  0
  8 30  1  0  0  0  0
  8 31  1  0  0  0  0
  9 10  1  0  0  0  0
  9 21  1  0  0  0  0
 10 11  2  0  0  0  0
 10 12  1  0  0  0  0
 12 13  1  0  0  0  0
 12 32  1  0  0  0  0
 13 14  1  0  0  0  0
 13 33  1  0  0  0  0
 13 34  1  0  0  0  0
 14 15  1  0  0  0  0
 14 35  1  0  0  0  0
 14 36  1  0  0  0  0
 15 20  1  0  0  0  0
 15 16  2  0  0  0  0
 16 17  1  0  0  0  0
 16 37  1  0  0  0  0
 17 18  2  0  0  0  0
 17 38  1  0  0  0  0
 18 19  1  0  0  0  0
 18 39  1  0  0  0  0
 19 20  2  0  0  0  0
 19 45  1  0  0  0  0
 20 40  1  0  0  0  0
 21 22  1  0  0  0  0
 21 41  1  0  0  0  0
 21 42  1  0  0  0  0
 22 43  1  0  0  0  0
 22 44  1  0  0  0  0
M  CHG  1  19   1
M  END
> <s_m_source_file>
AV-unprocessed.smi

> <i_m_source_file_index>
1610

> <i_lp_mmshare_version>
43012

> <i_f3d_flags>
0

> <s_epik_input>
W0NIM11TKD1PKSg9TylbTkhdW0NIXTFbQ0gyXVtDSDJdTihbQ0gyXVtDSDJdMSlDKD1PKVtOSF1bQ0gyXVtDSDJdYzJbY0hdW2NIXVtjSF1uW2NIXTI=

> <s_epik_cmdline>
J2VwaWtfcHl0aG9uJywgJy1waCcsICc3LjAnLCAnLXRuJywgJzgnLCAnLW1hJywgJzIwMCcsICctbWV0YWxfYmluZGluZycsICctaW1hZScsICc8aW5maWxlLm1hZT4nLCAnLW9tYWUnLCAnPG91dGZpbGUubWFlPic=

> <r_epik_Ionization_Penalty>
2.20747

> <r_epik_Ionization_Penalty_Charging>
2.20741

> <r_epik_Ionization_Penalty_Neutral>
6.06433e-05

> <r_epik_State_Penalty>
2.35137

> <r_epik_Charging_Adjusted_Penalty>
4.55877

> <i_epik_Tot_Q>
1

> <i_epik_Tot_abs_Q>
1

> <r_epik_Metal_State_Penalty>
2.37242

> <b_epik_Metal_Only>
0

> <s_lp_Force_Field>
OPLS_2005

> <r_lp_Energy>
29.2562

> <b_lp_Chiralities_Consistent>
1

> <s_lp_Variant>
AV-unprocessed.smi:1610-2

> <Gold.Version>
5.8.1

> <Gold.Id.Protein>
6NUR|6NUR_protein|mol2

> <Gold.PLP.Fitness>
44.3642

> <Gold.PLP.PLP>
-38.8963

> <Gold.PLP.part.hbond>
-2.2551

> <Gold.PLP.part.metal>
0.0000

> <Gold.PLP.part.buried>
-5.6244

> <Gold.PLP.part.nonpolar>
-31.8547

> <Gold.PLP.part.repulsive>
0.2954

> <Gold.PLP.ligand.clash>
0.0000

> <Gold.PLP.ligand.torsion>
0.7935

> <Gold.PLP.Chemscore.Hbond>
2.0000

> <Gold.PLP.Chemscore.CHOScore>
0.0000

> <Gold.PLP.Chemscore.Metal>
0.0000

> <Gold.Chemscore.Hbonds>
donor molecule, donor type, donor heavy atom, donor atom, acceptor molecule, acceptor atom, score
      P1  H  6896  6909       L1     4  1.00
      P1  H  7989  7998       L1    11  1.00

> <Gold.PLP.Chemscore.Internal.Correction>
1.0548

> <Gold.Rescore>
     Score         DG    S(hbond)    S(metal)    S(lipo)     H(rot)  DE(clash)    DE(int)     intcor
     17.52     -19.51       1.95        0.00     103.90       1.81       0.12       1.88       ----

> <Gold.Chemscore.Fitness>
17.5161

> <Gold.Chemscore.DG>
-19.5139

> <Gold.Chemscore.ZeroCoef>
-5.4800

> <Gold.Chemscore.Hbond>
1.9512

> <Gold.Chemscore.Metal>
0.0000

> <Gold.Chemscore.Lipo>
103.9002

> <Gold.Chemscore.Internal_Hbond>
0.0000

> <Gold.Chemscore.DEClash>
0.1218

> <Gold.Chemscore.DEInternal>
1.8760

> <Gold.Chemscore.Rot>
1.8123

> <Gold.Chemscore.Internal.Correction>
   9.000000E+99

> <Gold.Chemscore.Hbonds>
donor molecule, donor type, donor heavy atom, donor atom, acceptor molecule, acceptor atom, score
      P1  H  6896  6909       L1     4  1.00
      P1  H  7989  7998       L1    11  1.00

> <Gold.Chemscore.Hbond.Weighted>
-6.5171

> <Gold.Chemscore.Metal.Weighted>
-0.0000

> <Gold.Chemscore.Lipo.Weighted>
-12.1563

> <Gold.Chemscore.Internal_Hbond.Weighted>
0.0000

> <Gold.Chemscore.DEClash.Weighted>
0.1218

> <Gold.Chemscore.DEInternal.Weighted>
1.8760

> <Gold.Chemscore.Rot.Weighted>
4.6395

> <Gold.Chemscore.Internal.Correction.Weighted>
   9.000000E+99

> <Gold.Protein.RotatedTorsions>
[ 6907 6896 6895 6894 ] final   32.77 input  -60.11 | X-H torsion
[ 7974 7965 7964 7962 ] final  133.51 input  175.53 | X-H torsion
[ 8008 7997 7996 7995 ] final -121.88 input   59.86 | X-H torsion
[ 10167 10162 10161 10158 ] final   36.83 input  -65.29 | X-H torsion
[ 10718 10713 10712 10709 ] final  150.40 input   66.30 | X-H torsion
[ 10763 10752 10751 10750 ] final  112.71 input  -60.55 | X-H torsion
[ 11005 11000 10999 10996 ] final   86.37 input  -57.11 | X-H torsion

> <Gold.Protein.ActiveResidues>
 VAL166  LYS551  ARG553  GLY616  TRP617  ASP618  TYR619  PRO620  LYS621  CYS622 
 ASP623  PHE694  ASN695  SER759  ASP760  ASP761  ALA762  ILE779  LEU786  VAL792 
 PHE793  MET794  SER795  GLU796  ALA797  LYS798  CYS799  TRP800  GLU811  SER814 

> <Gold.Protein.RotatedAtoms>
  152.0792  134.9482  160.0573 H   0  0  0  0  0  0  0  0  0  0  0  0  # atno 6907 bound_to 6896
  152.0778  133.4133  159.4496 H   0  0  0  0  0  0  0  0  0  0  0  0  # atno 6908 bound_to 6896
  150.6836  134.2937  159.4721 H   0  0  0  0  0  0  0  0  0  0  0  0  # atno 6909 bound_to 6896
  144.9858  139.4457  143.5364 H   0  0  0  0  0  0  0  0  0  0  0  0  # atno 7974 bound_to 7965
  155.1552  140.0404  157.2830 H   0  0  0  0  0  0  0  0  0  0  0  0  # atno 8008 bound_to 7997
  154.6375  140.2539  155.7333 H   0  0  0  0  0  0  0  0  0  0  0  0  # atno 8009 bound_to 7997
  156.2516  140.2862  156.0755 H   0  0  0  0  0  0  0  0  0  0  0  0  # atno 8010 bound_to 7997
  140.4091  144.1618  150.6138 H   0  0  0  0  0  0  0  0  0  0  0  0  # atno 10167 bound_to 10162
  157.2839  131.0840  151.1512 H   0  0  0  0  0  0  0  0  0  0  0  0  # atno 10718 bound_to 10713
  153.4818  135.3678  155.2446 H   0  0  0  0  0  0  0  0  0  0  0  0  # atno 10763 bound_to 10752
  154.8755  135.3956  154.3691 H   0  0  0  0  0  0  0  0  0  0  0  0  # atno 10764 bound_to 10752
  153.4296  135.7082  153.6304 H   0  0  0  0  0  0  0  0  0  0  0  0  # atno 10765 bound_to 10752
  139.8946  134.8351  156.2712 H   0  0  0  0  0  0  0  0  0  0  0  0  # atno 11005 bound_to 11000
  146.3419  139.9158  142.8773 LP  0  0  0  0  0  0  0  0  0  0  0  0  # atno 17320 bound_to 7965
  145.2356  140.9990  143.3965 LP  0  0  0  0  0  0  0  0  0  0  0  0  # atno 17321 bound_to 7965
  140.4658  143.2431  151.9158 LP  0  0  0  0  0  0  0  0  0  0  0  0  # atno 17342 bound_to 10162
  139.4783  144.5421  151.8512 LP  0  0  0  0  0  0  0  0  0  0  0  0  # atno 17343 bound_to 10162
  157.2935  130.6807  149.6126 LP  0  0  0  0  0  0  0  0  0  0  0  0  # atno 17370 bound_to 10713
  155.9665  130.4413  150.5337 LP  0  0  0  0  0  0  0  0  0  0  0  0  # atno 17371 bound_to 10713
  141.0100  133.7101  156.1096 LP  0  0  0  0  0  0  0  0  0  0  0  0  # atno 17394 bound_to 11000
  140.7381  134.4180  157.5558 LP  0  0  0  0  0  0  0  0  0  0  0  0  # atno 17395 bound_to 11000

$$$$
