AV-unprocessed.smi:3244|AV-procd|sdf|12398|dock6
  -GOLD-   2272018273D 1   1.00000     0.00000
 Structure written by MMmdl.
 41 42  0  0  0  0  0  0  0  0  2 V2000
  153.3348  140.3440  158.8209 C   0  0  0  0  0  0  0  0  0  0  0  0
  152.3768  141.0894  159.7647 C   0  0  0  0  0  0  0  0  0  0  0  0
  152.3591  142.5365  159.5030 N   0  0  0  0  0  0  0  0  0  0  0  0
  152.0103  143.0735  158.3061 C   0  0  0  0  0  0  0  0  0  0  0  0
  152.1908  144.2635  158.0411 O   0  0  0  0  0  0  0  0  0  0  0  0
  151.3467  142.1767  157.2471 C   0  0  0  0  0  0  0  0  0  0  0  0
  149.8745  142.3189  157.2360 N   0  3  0  0  0  0  0  0  0  0  0  0
  149.1407  141.3093  156.4389 C   0  0  2  0  0  0  0  0  0  0  0  0
  149.6091  139.8863  156.7859 C   0  0  0  0  0  0  0  0  0  0  0  0
  149.3143  141.5923  154.9337 C   0  0  0  0  0  0  0  0  0  0  0  0
  148.4667  140.7465  154.1114 N   0  0  0  0  0  0  0  0  0  0  0  0
  147.4363  141.1202  153.2748 C   0  0  0  0  0  0  0  0  0  0  0  0
  146.9407  139.9813  152.7075 C   0  0  0  0  0  0  0  0  0  0  0  0
  147.7430  138.9473  153.2659 C   0  0  0  0  0  0  0  0  0  0  0  0
  148.6566  139.4089  154.1046 N   0  0  0  0  0  0  0  0  0  0  0  0
  152.9508  143.3073  160.5659 C   0  0  0  0  0  0  0  0  0  0  0  0
  152.8891  142.7733  161.9816 C   0  0  0  0  0  0  0  0  0  0  0  0
  152.0909  143.9966  161.6116 C   0  0  0  0  0  0  0  0  0  0  0  0
  153.3325  139.2755  159.0369 H   0  0  0  0  0  0  0  0  0  0  0  0
  154.3584  140.7000  158.9408 H   0  0  0  0  0  0  0  0  0  0  0  0
  153.0635  140.4677  157.7735 H   0  0  0  0  0  0  0  0  0  0  0  0
  151.3761  140.6627  159.6972 H   0  0  0  0  0  0  0  0  0  0  0  0
  152.6862  140.9024  160.7937 H   0  0  0  0  0  0  0  0  0  0  0  0
  151.7323  142.4160  156.2580 H   0  0  0  0  0  0  0  0  0  0  0  0
  151.5995  141.1382  157.4646 H   0  0  0  0  0  0  0  0  0  0  0  0
  149.5631  142.2292  158.1936 H   0  0  0  0  0  0  0  0  0  0  0  0
  148.0779  141.3904  156.6726 H   0  0  0  0  0  0  0  0  0  0  0  0
  149.0804  139.1447  156.1864 H   0  0  0  0  0  0  0  0  0  0  0  0
  149.4236  139.6425  157.8317 H   0  0  0  0  0  0  0  0  0  0  0  0
  150.6761  139.7631  156.5980 H   0  0  0  0  0  0  0  0  0  0  0  0
  149.0996  142.6381  154.7075 H   0  0  0  0  0  0  0  0  0  0  0  0
  150.3493  141.4173  154.6362 H   0  0  0  0  0  0  0  0  0  0  0  0
  147.1448  142.1531  153.1530 H   0  0  0  0  0  0  0  0  0  0  0  0
  146.1273  139.8986  152.0016 H   0  0  0  0  0  0  0  0  0  0  0  0
  147.6896  137.8833  153.0876 H   0  0  0  0  0  0  0  0  0  0  0  0
  153.8656  143.8326  160.2981 H   0  0  0  0  0  0  0  0  0  0  0  0
  152.3358  141.8526  162.1569 H   0  0  0  0  0  0  0  0  0  0  0  0
  153.7661  142.9156  162.6097 H   0  0  0  0  0  0  0  0  0  0  0  0
  152.4371  144.9556  161.9918 H   0  0  0  0  0  0  0  0  0  0  0  0
  151.0100  143.8773  161.5718 H   0  0  0  0  0  0  0  0  0  0  0  0
  149.6297  143.2440  156.9133 H   0  0  0  0  0  0  0  0  0  0  0  0
  1  2  1  0  0  0  0
  1 19  1  0  0  0  0
  1 20  1  0  0  0  0
  1 21  1  0  0  0  0
  2  3  1  0  0  0  0
  2 22  1  0  0  0  0
  2 23  1  0  0  0  0
  3  4  1  0  0  0  0
  3 16  1  0  0  0  0
  4  5  2  0  0  0  0
  4  6  1  0  0  0  0
  6  7  1  0  0  0  0
  6 24  1  0  0  0  0
  6 25  1  0  0  0  0
  7  8  1  0  0  0  0
  7 26  1  0  0  0  0
  7 41  1  0  0  0  0
  8  9  1  0  0  0  0
  8 10  1  0  0  0  0
  8 27  1  0  0  0  0
  9 28  1  0  0  0  0
  9 29  1  0  0  0  0
  9 30  1  0  0  0  0
 10 11  1  0  0  0  0
 10 31  1  0  0  0  0
 10 32  1  0  0  0  0
 11 15  1  0  0  0  0
 11 12  1  0  0  0  0
 12 13  2  0  0  0  0
 12 33  1  0  0  0  0
 13 14  1  0  0  0  0
 13 34  1  0  0  0  0
 14 15  2  0  0  0  0
 14 35  1  0  0  0  0
 16 18  1  0  0  0  0
 16 17  1  0  0  0  0
 16 36  1  0  0  0  0
 17 18  1  0  0  0  0
 17 37  1  0  0  0  0
 17 38  1  0  0  0  0
 18 39  1  0  0  0  0
 18 40  1  0  0  0  0
M  CHG  1   7   1
M  END
> <s_m_source_file>
AV-unprocessed.smi

> <i_m_source_file_index>
3244

> <i_lp_mmshare_version>
43012

> <i_f3d_flags>
0

> <s_epik_input>
W0NIMl0xW0NIMl1bQ0hdMU4oW0NIMl1bQ0gzXSlDKD1PKVtDSDJdW05IXVtDQEhdKFtDSDNdKVtDSDJdbjJbY0hdW2NIXVtjSF1uMg==

> <s_epik_cmdline>
J2VwaWtfcHl0aG9uJywgJy1waCcsICc3LjAnLCAnLXRuJywgJzgnLCAnLW1hJywgJzIwMCcsICctbWV0YWxfYmluZGluZycsICctaW1hZScsICc8aW5maWxlLm1hZT4nLCAnLW9tYWUnLCAnPG91dGZpbGUubWFlPic=

> <r_lp_tautomer_probability>
1

> <r_epik_Ionization_Penalty>
0.115625

> <r_epik_Ionization_Penalty_Charging>
0.115622

> <r_epik_Ionization_Penalty_Neutral>
3.43793e-06

> <r_epik_State_Penalty>
0.105255

> <r_epik_Charging_Adjusted_Penalty>
0.220877

> <i_epik_Tot_Q>
1

> <i_epik_Tot_abs_Q>
1

> <r_epik_Metal_State_Penalty>
0.105264

> <b_epik_Metal_Only>
0

> <s_lp_Force_Field>
OPLS_2005

> <r_lp_Energy>
33.3923

> <b_lp_Chiralities_Consistent>
1

> <s_lp_Variant>
AV-unprocessed.smi:3244-1

> <Gold.Version>
5.8.1

> <Gold.Id.Protein>
6NUR|6NUR_protein|mol2

> <Gold.PLP.Fitness>
44.7293

> <Gold.PLP.PLP>
-37.7614

> <Gold.PLP.part.hbond>
-1.0000

> <Gold.PLP.part.metal>
0.0000

> <Gold.PLP.part.buried>
-2.3229

> <Gold.PLP.part.nonpolar>
-34.2092

> <Gold.PLP.part.repulsive>
0.2317

> <Gold.PLP.ligand.clash>
0.0000

> <Gold.PLP.ligand.torsion>
1.1752

> <Gold.PLP.Chemscore.Hbond>
2.0000

> <Gold.PLP.Chemscore.CHOScore>
1.0000

> <Gold.PLP.Chemscore.Metal>
0.0000

> <Gold.Chemscore.Hbonds>
donor molecule, donor type, donor heavy atom, donor atom, acceptor molecule, acceptor atom, score
      L1  H     7    41       P1  8028  1.82
      L1  C    14    35       P1  7948  1.00

> <Gold.PLP.Chemscore.Internal.Correction>
0.3183

> <Gold.Rescore>
     Score         DG    S(hbond)    S(metal)    S(lipo)     H(rot)  DE(clash)    DE(int)     intcor
     12.63     -15.07       0.98        0.00      98.55       2.04       0.07       2.36       ----

> <Gold.Chemscore.Fitness>
12.6323

> <Gold.Chemscore.DG>
-15.0672

> <Gold.Chemscore.ZeroCoef>
-5.4800

> <Gold.Chemscore.Hbond>
0.9847

> <Gold.Chemscore.Metal>
0.0000

> <Gold.Chemscore.Lipo>
98.5546

> <Gold.Chemscore.Internal_Hbond>
0.0000

> <Gold.Chemscore.DEClash>
0.0713

> <Gold.Chemscore.DEInternal>
2.3635

> <Gold.Chemscore.Rot>
2.0440

> <Gold.Chemscore.Internal.Correction>
   9.000000E+99

> <Gold.Chemscore.Hbonds>
donor molecule, donor type, donor heavy atom, donor atom, acceptor molecule, acceptor atom, score
      L1  H     7    41       P1  8028  0.86

> <Gold.Chemscore.Hbond.Weighted>
-3.2888

> <Gold.Chemscore.Metal.Weighted>
-0.0000

> <Gold.Chemscore.Lipo.Weighted>
-11.5309

> <Gold.Chemscore.Internal_Hbond.Weighted>
0.0000

> <Gold.Chemscore.DEClash.Weighted>
0.0713

> <Gold.Chemscore.DEInternal.Weighted>
2.3635

> <Gold.Chemscore.Rot.Weighted>
5.2325

> <Gold.Chemscore.Internal.Correction.Weighted>
   9.000000E+99

> <Gold.Protein.RotatedTorsions>
[ 6907 6896 6895 6894 ] final    7.19 input  -60.11 | X-H torsion
[ 7974 7965 7964 7962 ] final   -8.53 input  175.53 | X-H torsion
[ 8008 7997 7996 7995 ] final -167.85 input   59.86 | X-H torsion
[ 10167 10162 10161 10158 ] final  169.07 input  -65.29 | X-H torsion
[ 10718 10713 10712 10709 ] final  102.14 input   66.30 | X-H torsion
[ 10763 10752 10751 10750 ] final   71.33 input  -60.55 | X-H torsion
[ 11005 11000 10999 10996 ] final  -20.68 input  -57.11 | X-H torsion

> <Gold.Protein.ActiveResidues>
 VAL166  LYS551  ARG553  GLY616  TRP617  ASP618  TYR619  PRO620  LYS621  CYS622 
 ASP623  PHE694  ASN695  SER759  ASP760  ASP761  ALA762  ILE779  LEU786  VAL792 
 PHE793  MET794  SER795  GLU796  ALA797  LYS798  CYS799  TRP800  GLU811  SER814 

> <Gold.Protein.RotatedAtoms>
  151.6859  135.0954  160.0224 H   0  0  0  0  0  0  0  0  0  0  0  0  # atno 6907 bound_to 6896
  152.3807  133.6538  159.6167 H   0  0  0  0  0  0  0  0  0  0  0  0  # atno 6908 bound_to 6896
  150.7745  133.9035  159.3389 H   0  0  0  0  0  0  0  0  0  0  0  0  # atno 6909 bound_to 6896
  146.2277  140.2482  142.8346 H   0  0  0  0  0  0  0  0  0  0  0  0  # atno 7974 bound_to 7965
  155.8834  140.1012  157.1469 H   0  0  0  0  0  0  0  0  0  0  0  0  # atno 8008 bound_to 7997
  154.4007  140.1324  156.4288 H   0  0  0  0  0  0  0  0  0  0  0  0  # atno 8009 bound_to 7997
  155.7617  140.3463  155.5203 H   0  0  0  0  0  0  0  0  0  0  0  0  # atno 8010 bound_to 7997
  139.4983  144.3746  151.9688 H   0  0  0  0  0  0  0  0  0  0  0  0  # atno 10167 bound_to 10162
  157.6810  131.0745  150.5359 H   0  0  0  0  0  0  0  0  0  0  0  0  # atno 10718 bound_to 10713
  153.0392  135.5141  154.7576 H   0  0  0  0  0  0  0  0  0  0  0  0  # atno 10763 bound_to 10752
  154.6527  135.2927  154.9969 H   0  0  0  0  0  0  0  0  0  0  0  0  # atno 10764 bound_to 10752
  154.0847  135.6659  153.4896 H   0  0  0  0  0  0  0  0  0  0  0  0  # atno 10765 bound_to 10752
  140.8488  133.7872  155.9942 H   0  0  0  0  0  0  0  0  0  0  0  0  # atno 11005 bound_to 11000
  144.9432  140.8100  143.5618 LP  0  0  0  0  0  0  0  0  0  0  0  0  # atno 17320 bound_to 7965
  145.2436  139.2062  143.4980 LP  0  0  0  0  0  0  0  0  0  0  0  0  # atno 17321 bound_to 7965
  140.3182  144.3458  150.6016 LP  0  0  0  0  0  0  0  0  0  0  0  0  # atno 17342 bound_to 10162
  140.5744  143.2178  151.7542 LP  0  0  0  0  0  0  0  0  0  0  0  0  # atno 17343 bound_to 10162
  156.5668  130.4269  149.6038 LP  0  0  0  0  0  0  0  0  0  0  0  0  # atno 17370 bound_to 10713
  156.2775  130.7052  151.1866 LP  0  0  0  0  0  0  0  0  0  0  0  0  # atno 17371 bound_to 10713
  140.8813  134.2607  157.5142 LP  0  0  0  0  0  0  0  0  0  0  0  0  # atno 17394 bound_to 11000
  139.8704  134.9616  156.4403 LP  0  0  0  0  0  0  0  0  0  0  0  0  # atno 17395 bound_to 11000

$$$$
