AV-unprocessed.smi:30|AV-procd|sdf|193|dock2
  -GOLD-   2262015463D 1   1.00000     0.00000
 Structure written by MMmdl.
 54 57  0  0  0  0  0  0  0  0  1 V2000
  149.6294  136.8068  156.2798 O   0  0  0  0  0  0  0  0  0  0  0  0
  150.2262  137.4955  157.1086 C   0  0  0  0  0  0  0  0  0  0  0  0
  151.2828  138.5170  156.6586 C   0  0  0  0  0  0  0  0  0  0  0  0
  151.7582  139.3974  157.7488 N   0  0  0  0  0  0  0  0  0  0  0  0
  152.6779  138.8705  158.6886 C   0  0  0  0  0  0  0  0  0  0  0  0
  153.1025  137.7181  158.5901 O   0  0  0  0  0  0  0  0  0  0  0  0
  153.0578  139.7723  159.7687 C   0  0  0  0  0  0  0  0  0  0  0  0
  153.8868  139.3414  160.7347 F   0  0  0  0  0  0  0  0  0  0  0  0
  152.5748  141.0303  159.8255 C   0  0  0  0  0  0  0  0  0  0  0  0
  151.7205  141.5542  158.8709 N   0  0  0  0  0  0  0  0  0  0  0  0
  151.1157  142.9360  159.0166 C   0  0  2  0  0  0  0  0  0  0  0  0
  151.4382  143.8913  157.8541 C   0  0  0  0  0  0  0  0  0  0  0  0
  152.4739  144.8119  158.4694 C   0  0  0  0  0  0  0  0  0  0  0  0
  152.0373  144.8323  159.9290 C   0  0  0  0  0  0  0  0  0  0  0  0
  151.6274  143.4962  160.1888 O   0  0  0  0  0  0  0  0  0  0  0  0
  151.2457  140.7142  157.8375 C   0  0  0  0  0  0  0  0  0  0  0  0
  150.4036  141.1171  157.0320 O   0  0  0  0  0  0  0  0  0  0  0  0
  150.0493  137.4070  158.4396 N   0  0  0  0  0  0  0  0  0  0  0  0
  149.1365  136.5902  159.1598 C   0  0  0  0  0  0  0  0  0  0  0  0
  148.5025  135.5484  158.4543 C   0  0  0  0  0  0  0  0  0  0  0  0
  147.6041  134.6857  159.1102 C   0  0  0  0  0  0  0  0  0  0  0  0
  147.3302  134.8366  160.4841 C   0  0  0  0  0  0  0  0  0  0  0  0
  146.4406  133.9464  161.0469 O   0  0  0  0  0  0  0  0  0  0  0  0
  146.1352  134.0815  162.4284 C   0  0  0  0  0  0  0  0  0  0  0  0
  144.7627  134.6917  162.6308 C   0  0  0  0  0  0  0  0  0  0  0  0
  143.7011  133.8910  163.1018 C   0  0  0  0  0  0  0  0  0  0  0  0
  142.4212  134.4493  163.2869 C   0  0  0  0  0  0  0  0  0  0  0  0
  142.1981  135.8100  163.0004 C   0  0  0  0  0  0  0  0  0  0  0  0
  143.2552  136.6121  162.5284 C   0  0  0  0  0  0  0  0  0  0  0  0
  144.5352  136.0542  162.3425 C   0  0  0  0  0  0  0  0  0  0  0  0
  147.9800  135.8745  161.1973 C   0  0  0  0  0  0  0  0  0  0  0  0
  148.8781  136.7396  160.5427 C   0  0  0  0  0  0  0  0  0  0  0  0
  152.1203  137.9805  156.2092 H   0  0  0  0  0  0  0  0  0  0  0  0
  150.8686  139.0965  155.8322 H   0  0  0  0  0  0  0  0  0  0  0  0
  152.8750  141.6343  160.6666 H   0  0  0  0  0  0  0  0  0  0  0  0
  150.0373  142.7896  159.0943 H   0  0  0  0  0  0  0  0  0  0  0  0
  151.7563  143.3803  156.9456 H   0  0  0  0  0  0  0  0  0  0  0  0
  150.5353  144.4569  157.6207 H   0  0  0  0  0  0  0  0  0  0  0  0
  153.4728  144.3840  158.3842 H   0  0  0  0  0  0  0  0  0  0  0  0
  152.4881  145.8028  158.0156 H   0  0  0  0  0  0  0  0  0  0  0  0
  152.8333  145.1465  160.6042 H   0  0  0  0  0  0  0  0  0  0  0  0
  151.1863  145.5015  160.0657 H   0  0  0  0  0  0  0  0  0  0  0  0
  150.6810  137.9540  159.0062 H   0  0  0  0  0  0  0  0  0  0  0  0
  148.6990  135.4082  157.4012 H   0  0  0  0  0  0  0  0  0  0  0  0
  147.1220  133.8963  158.5522 H   0  0  0  0  0  0  0  0  0  0  0  0
  146.1746  133.1067  162.9177 H   0  0  0  0  0  0  0  0  0  0  0  0
  146.8676  134.7282  162.9140 H   0  0  0  0  0  0  0  0  0  0  0  0
  143.8676  132.8467  163.3223 H   0  0  0  0  0  0  0  0  0  0  0  0
  141.6108  133.8337  163.6486 H   0  0  0  0  0  0  0  0  0  0  0  0
  141.2167  136.2381  163.1424 H   0  0  0  0  0  0  0  0  0  0  0  0
  143.0847  137.6557  162.3090 H   0  0  0  0  0  0  0  0  0  0  0  0
  145.3400  136.6768  161.9797 H   0  0  0  0  0  0  0  0  0  0  0  0
  147.8113  136.0259  162.2524 H   0  0  0  0  0  0  0  0  0  0  0  0
  149.3701  137.5018  161.1271 H   0  0  0  0  0  0  0  0  0  0  0  0
  1  2  2  0  0  0  0
  2  3  1  0  0  0  0
  2 18  1  0  0  0  0
  3  4  1  0  0  0  0
  3 33  1  0  0  0  0
  3 34  1  0  0  0  0
  4 16  1  0  0  0  0
  4  5  1  0  0  0  0
  5  6  2  0  0  0  0
  5  7  1  0  0  0  0
  7  8  1  0  0  0  0
  7  9  2  0  0  0  0
  9 10  1  0  0  0  0
  9 35  1  0  0  0  0
 10 11  1  0  0  0  0
 10 16  1  0  0  0  0
 11 15  1  0  0  0  0
 11 12  1  0  0  0  0
 11 36  1  0  0  0  0
 12 13  1  0  0  0  0
 12 37  1  0  0  0  0
 12 38  1  0  0  0  0
 13 14  1  0  0  0  0
 13 39  1  0  0  0  0
 13 40  1  0  0  0  0
 14 15  1  0  0  0  0
 14 41  1  0  0  0  0
 14 42  1  0  0  0  0
 16 17  2  0  0  0  0
 18 19  1  0  0  0  0
 18 43  1  0  0  0  0
 19 32  1  0  0  0  0
 19 20  2  0  0  0  0
 20 21  1  0  0  0  0
 20 44  1  0  0  0  0
 21 22  2  0  0  0  0
 21 45  1  0  0  0  0
 22 23  1  0  0  0  0
 22 31  1  0  0  0  0
 23 24  1  0  0  0  0
 24 25  1  0  0  0  0
 24 46  1  0  0  0  0
 24 47  1  0  0  0  0
 25 30  1  0  0  0  0
 25 26  2  0  0  0  0
 26 27  1  0  0  0  0
 26 48  1  0  0  0  0
 27 28  2  0  0  0  0
 27 49  1  0  0  0  0
 28 29  1  0  0  0  0
 28 50  1  0  0  0  0
 29 30  2  0  0  0  0
 29 51  1  0  0  0  0
 30 52  1  0  0  0  0
 31 32  2  0  0  0  0
 31 53  1  0  0  0  0
 32 54  1  0  0  0  0
M  END
> <s_m_source_file>
AV-unprocessed.smi

> <i_m_source_file_index>
30

> <i_lp_mmshare_version>
43012

> <i_f3d_flags>
0

> <s_epik_input>
TzFbQ0gyXVtDSDJdW0NIMl1bQ0BIXTFuKGMyPU8pW2NIXWMoRiljKD1PKW4yW0NIMl1DKD1PKVtOSF1jM1tjSF1bY0hdYyhbY0hdW2NIXTMpT1tDSDJdYzRbY0hdW2NIXVtjSF1bY0hdW2NIXTQ=

> <s_epik_cmdline>
J2VwaWtfcHl0aG9uJywgJy1waCcsICc3LjAnLCAnLXRuJywgJzgnLCAnLW1hJywgJzIwMCcsICctbWV0YWxfYmluZGluZycsICctaW1hZScsICc8aW5maWxlLm1hZT4nLCAnLW9tYWUnLCAnPG91dGZpbGUubWFlPic=

> <r_lp_tautomer_probability>
1

> <r_epik_Ionization_Penalty>
1.04818e-05

> <r_epik_Ionization_Penalty_Charging>
3.88729e-08

> <r_epik_Ionization_Penalty_Neutral>
1.04429e-05

> <r_epik_State_Penalty>
-0

> <r_epik_Charging_Adjusted_Penalty>
3.88729e-08

> <i_epik_Tot_Q>
0

> <i_epik_Tot_abs_Q>
0

> <r_epik_Metal_State_Penalty>
-0

> <b_epik_Metal_Only>
0

> <s_epik_Chemistry_Notes>
This compound contains an acetal/aminal-like group ( X-CH(R)-Y where X, Y are N, S, or O) that may be acid/base labile, releasing an aldehyde.

> <s_lp_Force_Field>
OPLS_2005

> <r_lp_Energy>
43.3432

> <b_lp_Chiralities_Consistent>
1

> <s_lp_Variant>
AV-unprocessed.smi:30-1

> <Gold.Version>
5.8.1

> <Gold.Id.Protein>
6NUR|6NUR_protein|mol2

> <Gold.PLP.Fitness>
52.9683

> <Gold.PLP.PLP>
-54.2818

> <Gold.PLP.part.hbond>
0.0000

> <Gold.PLP.part.metal>
0.0000

> <Gold.PLP.part.buried>
-6.1828

> <Gold.PLP.part.nonpolar>
-48.1768

> <Gold.PLP.part.repulsive>
0.2183

> <Gold.PLP.ligand.clash>
0.0000

> <Gold.PLP.ligand.torsion>
0.8530

> <Gold.PLP.Chemscore.Hbond>
0.0000

> <Gold.PLP.Chemscore.CHOScore>
0.0000

> <Gold.PLP.Chemscore.Metal>
0.0000

> <Gold.PLP.Chemscore.Internal.Correction>
0.3926

> <Gold.Rescore>
     Score         DG    S(hbond)    S(metal)    S(lipo)     H(rot)  DE(clash)    DE(int)     intcor
     12.53     -16.13       0.00        0.00     139.06       2.20       1.24       2.36       ----

> <Gold.Chemscore.Fitness>
12.5295

> <Gold.Chemscore.DG>
-16.1303

> <Gold.Chemscore.ZeroCoef>
-5.4800

> <Gold.Chemscore.Hbond>
0.0000

> <Gold.Chemscore.Metal>
0.0000

> <Gold.Chemscore.Lipo>
139.0594

> <Gold.Chemscore.Internal_Hbond>
0.0000

> <Gold.Chemscore.DEClash>
1.2405

> <Gold.Chemscore.DEInternal>
2.3603

> <Gold.Chemscore.Rot>
2.1952

> <Gold.Chemscore.Internal.Correction>
   9.000000E+99

> <Gold.Chemscore.Hbond.Weighted>
-0.0000

> <Gold.Chemscore.Metal.Weighted>
-0.0000

> <Gold.Chemscore.Lipo.Weighted>
-16.2700

> <Gold.Chemscore.Internal_Hbond.Weighted>
0.0000

> <Gold.Chemscore.DEClash.Weighted>
1.2405

> <Gold.Chemscore.DEInternal.Weighted>
2.3603

> <Gold.Chemscore.Rot.Weighted>
5.6196

> <Gold.Chemscore.Internal.Correction.Weighted>
   9.000000E+99

> <Gold.Protein.RotatedTorsions>
[ 6907 6896 6895 6894 ] final  -54.09 input  -60.11 | X-H torsion
[ 7974 7965 7964 7962 ] final  -32.02 input  175.53 | X-H torsion
[ 8008 7997 7996 7995 ] final  164.83 input   59.86 | X-H torsion
[ 10167 10162 10161 10158 ] final  167.91 input  -65.29 | X-H torsion
[ 10718 10713 10712 10709 ] final   47.06 input   66.30 | X-H torsion
[ 10763 10752 10751 10750 ] final  -28.48 input  -60.55 | X-H torsion
[ 11005 11000 10999 10996 ] final -110.57 input  -57.11 | X-H torsion

> <Gold.Protein.ActiveResidues>
 VAL166  LYS551  ARG553  GLY616  TRP617  ASP618  TYR619  PRO620  LYS621  CYS622 
 ASP623  PHE694  ASN695  SER759  ASP760  ASP761  ALA762  ILE779  LEU786  VAL792 
 PHE793  MET794  SER795  GLU796  ALA797  LYS798  CYS799  TRP800  GLU811  SER814 

> <Gold.Protein.RotatedAtoms>
  150.8369  134.7646  159.6899 H   0  0  0  0  0  0  0  0  0  0  0  0  # atno 6907 bound_to 6896
  152.4464  134.5482  159.9869 H   0  0  0  0  0  0  0  0  0  0  0  0  # atno 6908 bound_to 6896
  151.5631  133.3362  159.3010 H   0  0  0  0  0  0  0  0  0  0  0  0  # atno 6909 bound_to 6896
  146.1022  140.5740  142.8815 H   0  0  0  0  0  0  0  0  0  0  0  0  # atno 7974 bound_to 7965
  156.1849  140.1686  156.8204 H   0  0  0  0  0  0  0  0  0  0  0  0  # atno 8008 bound_to 7997
  154.5402  140.0738  156.8530 H   0  0  0  0  0  0  0  0  0  0  0  0  # atno 8009 bound_to 7997
  155.3230  140.3374  155.4243 H   0  0  0  0  0  0  0  0  0  0  0  0  # atno 8010 bound_to 7997
  139.4956  144.3871  151.9558 H   0  0  0  0  0  0  0  0  0  0  0  0  # atno 10167 bound_to 10162
  157.4546  130.8159  149.7823 H   0  0  0  0  0  0  0  0  0  0  0  0  # atno 10718 bound_to 10713
  153.7491  135.6927  153.4949 H   0  0  0  0  0  0  0  0  0  0  0  0  # atno 10763 bound_to 10752
  153.2016  135.4434  155.0271 H   0  0  0  0  0  0  0  0  0  0  0  0  # atno 10764 bound_to 10752
  154.8193  135.3414  154.7013 H   0  0  0  0  0  0  0  0  0  0  0  0  # atno 10765 bound_to 10752
  141.0784  133.9262  157.2341 H   0  0  0  0  0  0  0  0  0  0  0  0  # atno 11005 bound_to 11000
  144.7442  140.5024  143.6847 LP  0  0  0  0  0  0  0  0  0  0  0  0  # atno 17320 bound_to 7965
  145.5831  139.1490  143.3224 LP  0  0  0  0  0  0  0  0  0  0  0  0  # atno 17321 bound_to 7965
  140.3309  144.3318  150.5988 LP  0  0  0  0  0  0  0  0  0  0  0  0  # atno 17342 bound_to 10162
  140.5646  143.2188  151.7706 LP  0  0  0  0  0  0  0  0  0  0  0  0  # atno 17343 bound_to 10162
  156.0002  130.3885  150.2637 LP  0  0  0  0  0  0  0  0  0  0  0  0  # atno 17370 bound_to 10713
  157.0811  131.0143  151.3156 LP  0  0  0  0  0  0  0  0  0  0  0  0  # atno 17371 bound_to 10713
  139.9597  135.0157  156.9226 LP  0  0  0  0  0  0  0  0  0  0  0  0  # atno 17394 bound_to 11000
  140.5523  134.0615  155.7373 LP  0  0  0  0  0  0  0  0  0  0  0  0  # atno 17395 bound_to 11000

$$$$
