AV-unprocessed.smi:1544|AV-procd|sdf|6213|dock1
  -GOLD-   22720 6383D 1   1.00000     0.00000
 Structure written by MMmdl.
 41 42  0  0  0  0  0  0  0  0  1 V2000
  146.1934  138.9080  154.1369 O   0  0  0  0  0  0  0  0  0  0  0  0
  147.0570  138.3126  153.4924 C   0  0  0  0  0  0  0  0  0  0  0  0
  148.3820  138.5059  153.6090 N   0  0  0  0  0  0  0  0  0  0  0  0
  149.0630  139.4377  154.4378 C   0  0  0  0  0  0  0  0  0  0  0  0
  148.4237  140.4833  155.1451 C   0  0  0  0  0  0  0  0  0  0  0  0
  149.2074  141.3579  155.9215 C   0  0  0  0  0  0  0  0  0  0  0  0
  150.6026  141.1677  155.9636 C   0  0  0  0  0  0  0  0  0  0  0  0
  151.3610  142.0263  156.7319 O   0  0  0  0  0  0  0  0  0  0  0  0
  150.6981  142.8551  157.6827 C   0  0  0  0  0  0  0  0  0  0  0  0
  151.7335  143.7385  158.3882 C   0  0  0  0  0  0  0  0  0  0  0  0
  151.1410  144.4092  159.3754 F   0  0  0  0  0  0  0  0  0  0  0  0
  152.7053  142.9865  158.9047 F   0  0  0  0  0  0  0  0  0  0  0  0
  152.2544  144.6142  157.5290 F   0  0  0  0  0  0  0  0  0  0  0  0
  151.2241  140.1777  155.2762 N   0  0  0  0  0  0  0  0  0  0  0  0
  150.4670  139.3443  154.5316 C   0  0  0  0  0  0  0  0  0  0  0  0
  146.7821  137.3607  152.5890 N   0  0  0  0  0  0  0  0  0  0  0  0
  145.4443  136.8906  152.2410 C   0  0  2  0  0  0  0  0  0  0  0  0
  144.6946  136.4735  153.5195 C   0  0  0  0  0  0  0  0  0  0  0  0
  143.2898  135.9323  153.2006 C   0  0  0  0  0  0  0  0  0  0  0  0
  143.3252  134.7820  152.1765 C   0  0  2  0  0  0  0  0  0  0  0  0
  143.8905  133.6271  152.7645 O   0  0  0  0  0  0  0  0  0  0  0  0
  144.1159  135.1714  150.9132 C   0  0  0  0  0  0  0  0  0  0  0  0
  145.5166  135.7143  151.2460 C   0  0  0  0  0  0  0  0  0  0  0  0
  148.9730  137.8756  153.0866 H   0  0  0  0  0  0  0  0  0  0  0  0
  147.3571  140.6400  155.0965 H   0  0  0  0  0  0  0  0  0  0  0  0
  148.7457  142.1633  156.4734 H   0  0  0  0  0  0  0  0  0  0  0  0
  149.9584  143.4842  157.1843 H   0  0  0  0  0  0  0  0  0  0  0  0
  150.1748  142.2433  158.4195 H   0  0  0  0  0  0  0  0  0  0  0  0
  151.0021  138.5726  153.9973 H   0  0  0  0  0  0  0  0  0  0  0  0
  147.5549  136.9223  152.1099 H   0  0  0  0  0  0  0  0  0  0  0  0
  144.8938  137.7119  151.7776 H   0  0  0  0  0  0  0  0  0  0  0  0
  145.2654  135.7109  154.0512 H   0  0  0  0  0  0  0  0  0  0  0  0
  144.6116  137.3235  154.1980 H   0  0  0  0  0  0  0  0  0  0  0  0
  142.7961  135.6080  154.1176 H   0  0  0  0  0  0  0  0  0  0  0  0
  142.6818  136.7446  152.8003 H   0  0  0  0  0  0  0  0  0  0  0  0
  142.3036  134.5260  151.8936 H   0  0  0  0  0  0  0  0  0  0  0  0
  143.3370  133.3530  153.4797 H   0  0  0  0  0  0  0  0  0  0  0  0
  144.1949  134.3196  150.2367 H   0  0  0  0  0  0  0  0  0  0  0  0
  143.5617  135.9382  150.3704 H   0  0  0  0  0  0  0  0  0  0  0  0
  146.0096  136.0281  150.3251 H   0  0  0  0  0  0  0  0  0  0  0  0
  146.1288  134.9140  151.6636 H   0  0  0  0  0  0  0  0  0  0  0  0
  1  2  2  0  0  0  0
  2  3  1  0  0  0  0
  2 16  1  0  0  0  0
  3  4  1  0  0  0  0
  3 24  1  0  0  0  0
  4 15  1  0  0  0  0
  4  5  2  0  0  0  0
  5  6  1  0  0  0  0
  5 25  1  0  0  0  0
  6  7  2  0  0  0  0
  6 26  1  0  0  0  0
  7  8  1  0  0  0  0
  7 14  1  0  0  0  0
  8  9  1  0  0  0  0
  9 10  1  0  0  0  0
  9 27  1  0  0  0  0
  9 28  1  0  0  0  0
 10 11  1  0  0  0  0
 10 12  1  0  0  0  0
 10 13  1  0  0  0  0
 14 15  2  0  0  0  0
 15 29  1  0  0  0  0
 16 17  1  0  0  0  0
 16 30  1  0  0  0  0
 17 23  1  0  0  0  0
 17 18  1  0  0  0  0
 17 31  1  0  0  0  0
 18 19  1  0  0  0  0
 18 32  1  0  0  0  0
 18 33  1  0  0  0  0
 19 20  1  0  0  0  0
 19 34  1  0  0  0  0
 19 35  1  0  0  0  0
 20 21  1  0  0  0  0
 20 22  1  0  0  0  0
 20 36  1  0  0  0  0
 21 37  1  0  0  0  0
 22 23  1  0  0  0  0
 22 38  1  0  0  0  0
 22 39  1  0  0  0  0
 23 40  1  0  0  0  0
 23 41  1  0  0  0  0
M  END
> <s_m_source_file>
AV-unprocessed.smi

> <i_m_source_file_index>
1544

> <i_lp_mmshare_version>
43012

> <i_f3d_flags>
0

> <s_epik_input>
W0NIMl0xW0NIMl1bQ0BIXShbT0hdKVtDSDJdW0NIMl1bQ0BIXTFbTkhdQyg9TylbTkhdYzJbY0hdW2NIXWMobltjSF0yKU9bQ0gyXUMoRikoRilG

> <s_epik_cmdline>
J2VwaWtfcHl0aG9uJywgJy1waCcsICc3LjAnLCAnLXRuJywgJzgnLCAnLW1hJywgJzIwMCcsICctbWV0YWxfYmluZGluZycsICctaW1hZScsICc8aW5maWxlLm1hZT4nLCAnLW9tYWUnLCAnPG91dGZpbGUubWFlPic=

> <r_lp_tautomer_probability>
1

> <r_epik_Ionization_Penalty>
4.43219e-05

> <r_epik_Ionization_Penalty_Charging>
0

> <r_epik_Ionization_Penalty_Neutral>
4.43219e-05

> <r_epik_State_Penalty>
-0

> <r_epik_Charging_Adjusted_Penalty>
0

> <i_epik_Tot_Q>
0

> <i_epik_Tot_abs_Q>
0

> <r_epik_Metal_State_Penalty>
-0

> <b_epik_Metal_Only>
0

> <s_lp_Force_Field>
OPLS_2005

> <r_lp_Energy>
11.0247

> <b_lp_Chiralities_Consistent>
1

> <s_lp_Variant>
AV-unprocessed.smi:1544-2

> <Gold.Version>
5.8.1

> <Gold.Id.Protein>
6NUR|6NUR_protein|mol2

> <Gold.PLP.Fitness>
50.8752

> <Gold.PLP.PLP>
-43.4432

> <Gold.PLP.part.hbond>
-4.7226

> <Gold.PLP.part.metal>
0.0000

> <Gold.PLP.part.buried>
-5.7674

> <Gold.PLP.part.nonpolar>
-34.8172

> <Gold.PLP.part.repulsive>
0.2980

> <Gold.PLP.ligand.clash>
0.0000

> <Gold.PLP.ligand.torsion>
0.2626

> <Gold.PLP.Chemscore.Hbond>
2.6285

> <Gold.PLP.Chemscore.CHOScore>
0.0000

> <Gold.PLP.Chemscore.Metal>
0.0000

> <Gold.Chemscore.Hbonds>
donor molecule, donor type, donor heavy atom, donor atom, acceptor molecule, acceptor atom, score
      L1  H     3    24       P1  7948  0.90
      L1  H    16    30       P1  7948  1.00
      L1  H    21    37       P1 10957  0.66
      P1  H  7989  7998       L1    14  0.05

> <Gold.PLP.Chemscore.Internal.Correction>
0.0717

> <Gold.Rescore>
     Score         DG    S(hbond)    S(metal)    S(lipo)     H(rot)  DE(clash)    DE(int)     intcor
     14.34     -17.07       2.80        0.00      69.57       2.31       0.01       2.71       ----

> <Gold.Chemscore.Fitness>
14.3440

> <Gold.Chemscore.DG>
-17.0708

> <Gold.Chemscore.ZeroCoef>
-5.4800

> <Gold.Chemscore.Hbond>
2.8046

> <Gold.Chemscore.Metal>
0.0000

> <Gold.Chemscore.Lipo>
69.5659

> <Gold.Chemscore.Internal_Hbond>
0.0000

> <Gold.Chemscore.DEClash>
0.0132

> <Gold.Chemscore.DEInternal>
2.7136

> <Gold.Chemscore.Rot>
2.3109

> <Gold.Chemscore.Internal.Correction>
   9.000000E+99

> <Gold.Chemscore.Hbonds>
donor molecule, donor type, donor heavy atom, donor atom, acceptor molecule, acceptor atom, score
      L1  H     3    24       P1  7948  0.82
      L1  H    16    30       P1  7948  0.96
      L1  H    21    37       P1 10957  0.62

> <Gold.Chemscore.Hbond.Weighted>
-9.3674

> <Gold.Chemscore.Metal.Weighted>
-0.0000

> <Gold.Chemscore.Lipo.Weighted>
-8.1392

> <Gold.Chemscore.Internal_Hbond.Weighted>
0.0000

> <Gold.Chemscore.DEClash.Weighted>
0.0132

> <Gold.Chemscore.DEInternal.Weighted>
2.7136

> <Gold.Chemscore.Rot.Weighted>
5.9158

> <Gold.Chemscore.Internal.Correction.Weighted>
   9.000000E+99

> <Gold.Protein.RotatedTorsions>
[ 6907 6896 6895 6894 ] final  -41.43 input  -60.11 | X-H torsion
[ 7974 7965 7964 7962 ] final  -38.73 input  175.53 | X-H torsion
[ 8008 7997 7996 7995 ] final  -32.68 input   59.86 | X-H torsion
[ 10167 10162 10161 10158 ] final   -0.11 input  -65.29 | X-H torsion
[ 10718 10713 10712 10709 ] final -139.66 input   66.30 | X-H torsion
[ 10763 10752 10751 10750 ] final   29.93 input  -60.55 | X-H torsion
[ 11005 11000 10999 10996 ] final  -65.40 input  -57.11 | X-H torsion

> <Gold.Protein.ActiveResidues>
 VAL166  LYS551  ARG553  GLY616  TRP617  ASP618  TYR619  PRO620  LYS621  CYS622 
 ASP623  PHE694  ASN695  SER759  ASP760  ASP761  ALA762  ILE779  LEU786  VAL792 
 PHE793  MET794  SER795  GLU796  ALA797  LYS798  CYS799  TRP800  GLU811  SER814 

> <Gold.Protein.RotatedAtoms>
  150.9669  134.9048  159.7764 H   0  0  0  0  0  0  0  0  0  0  0  0  # atno 6907 bound_to 6896
  152.5176  134.3595  159.9289 H   0  0  0  0  0  0  0  0  0  0  0  0  # atno 6908 bound_to 6896
  151.3605  133.3850  159.2724 H   0  0  0  0  0  0  0  0  0  0  0  0  # atno 6909 bound_to 6896
  146.0460  140.6545  142.9064 H   0  0  0  0  0  0  0  0  0  0  0  0  # atno 7974 bound_to 7965
  154.4172  140.1731  156.1766 H   0  0  0  0  0  0  0  0  0  0  0  0  # atno 8008 bound_to 7997
  155.9717  140.3385  155.6557 H   0  0  0  0  0  0  0  0  0  0  0  0  # atno 8009 bound_to 7997
  155.6617  140.0701  157.2542 H   0  0  0  0  0  0  0  0  0  0  0  0  # atno 8010 bound_to 7997
  140.6753  143.6934  150.8009 H   0  0  0  0  0  0  0  0  0  0  0  0  # atno 10167 bound_to 10162
  156.3133  130.7494  151.1575 H   0  0  0  0  0  0  0  0  0  0  0  0  # atno 10718 bound_to 10713
  153.0401  135.6477  154.0966 H   0  0  0  0  0  0  0  0  0  0  0  0  # atno 10763 bound_to 10752
  154.0674  135.2883  155.3316 H   0  0  0  0  0  0  0  0  0  0  0  0  # atno 10764 bound_to 10752
  154.6617  135.5389  153.8091 H   0  0  0  0  0  0  0  0  0  0  0  0  # atno 10765 bound_to 10752
  141.1453  133.6681  156.5980 H   0  0  0  0  0  0  0  0  0  0  0  0  # atno 11005 bound_to 11000
  144.7098  140.3995  143.7089 LP  0  0  0  0  0  0  0  0  0  0  0  0  # atno 17320 bound_to 7965
  145.6804  139.1617  143.2704 LP  0  0  0  0  0  0  0  0  0  0  0  0  # atno 17321 bound_to 7965
  140.0626  143.5140  152.2620 LP  0  0  0  0  0  0  0  0  0  0  0  0  # atno 17342 bound_to 10162
  139.6042  144.7591  151.3101 LP  0  0  0  0  0  0  0  0  0  0  0  0  # atno 17343 bound_to 10162
  157.7396  131.0527  150.5221 LP  0  0  0  0  0  0  0  0  0  0  0  0  # atno 17370 bound_to 10713
  156.5364  130.4197  149.6176 LP  0  0  0  0  0  0  0  0  0  0  0  0  # atno 17371 bound_to 10713
  140.3711  134.7605  157.4599 LP  0  0  0  0  0  0  0  0  0  0  0  0  # atno 17394 bound_to 11000
  140.0710  134.5862  155.8642 LP  0  0  0  0  0  0  0  0  0  0  0  0  # atno 17395 bound_to 11000

$$$$
