AV-unprocessed.smi:3126|AV-procd|sdf|11913|dock3
  -GOLD-   2272017293D 1   1.00000     0.00000
 Structure written by MMmdl.
 42 43  0  0  0  0  0  0  0  0  2 V2000
  147.9866  141.7164  154.9930 C   0  0  0  0  0  0  0  0  0  0  0  0
  148.4571  140.4150  154.3293 C   0  0  0  0  0  0  0  0  0  0  0  0
  149.6385  139.7318  155.0478 C   0  0  1  0  0  0  0  0  0  0  0  0
  150.3848  138.7335  154.1372 C   0  0  0  0  0  0  0  0  0  0  0  0
  151.5731  138.0805  154.8603 C   0  0  0  0  0  0  0  0  0  0  0  0
  152.5481  139.1355  155.4080 C   0  0  0  0  0  0  0  0  0  0  0  0
  151.8413  140.1655  156.3085 C   0  0  2  0  0  0  0  0  0  0  0  0
  151.4393  139.5552  157.5961 N   0  3  0  0  0  0  0  0  0  0  0  0
  151.2774  140.5074  158.7123 C   0  0  0  0  0  0  0  0  0  0  0  0
  152.5605  141.3182  158.9338 C   0  0  0  0  0  0  0  0  0  0  0  0
  152.2872  142.6354  159.6324 C   0  0  0  0  0  0  0  0  0  0  0  0
  152.1892  143.8361  158.8992 C   0  0  0  0  0  0  0  0  0  0  0  0
  151.9397  145.0360  159.5921 C   0  0  0  0  0  0  0  0  0  0  0  0
  151.7991  144.9845  160.9933 C   0  0  0  0  0  0  0  0  0  0  0  0
  151.8924  143.8409  161.7057 N   0  0  0  0  0  0  0  0  0  0  0  0
  152.1302  142.6944  161.0337 C   0  0  0  0  0  0  0  0  0  0  0  0
  150.6251  140.7871  155.5943 C   0  0  0  0  0  0  0  0  0  0  0  0
  147.2019  142.1870  154.4003 H   0  0  0  0  0  0  0  0  0  0  0  0
  148.8045  142.4315  155.0840 H   0  0  0  0  0  0  0  0  0  0  0  0
  147.5795  141.5389  155.9880 H   0  0  0  0  0  0  0  0  0  0  0  0
  147.6186  139.7219  154.2494 H   0  0  0  0  0  0  0  0  0  0  0  0
  148.7505  140.6493  153.3053 H   0  0  0  0  0  0  0  0  0  0  0  0
  149.2338  139.1801  155.8978 H   0  0  0  0  0  0  0  0  0  0  0  0
  149.7090  137.9504  153.7950 H   0  0  0  0  0  0  0  0  0  0  0  0
  150.7407  139.2456  153.2420 H   0  0  0  0  0  0  0  0  0  0  0  0
  151.2068  137.4558  155.6758 H   0  0  0  0  0  0  0  0  0  0  0  0
  152.0988  137.4133  154.1766 H   0  0  0  0  0  0  0  0  0  0  0  0
  153.3619  138.6516  155.9498 H   0  0  0  0  0  0  0  0  0  0  0  0
  153.0113  139.6560  154.5687 H   0  0  0  0  0  0  0  0  0  0  0  0
  152.5489  140.9707  156.5128 H   0  0  0  0  0  0  0  0  0  0  0  0
  150.5592  139.0794  157.4573 H   0  0  0  0  0  0  0  0  0  0  0  0
  150.4433  141.1770  158.4967 H   0  0  0  0  0  0  0  0  0  0  0  0
  151.0253  139.9539  159.6181 H   0  0  0  0  0  0  0  0  0  0  0  0
  153.2703  140.7421  159.5294 H   0  0  0  0  0  0  0  0  0  0  0  0
  153.0490  141.5172  157.9787 H   0  0  0  0  0  0  0  0  0  0  0  0
  152.3043  143.8396  157.8252 H   0  0  0  0  0  0  0  0  0  0  0  0
  151.8576  145.9741  159.0632 H   0  0  0  0  0  0  0  0  0  0  0  0
  151.6072  145.8860  161.5563 H   0  0  0  0  0  0  0  0  0  0  0  0
  152.2003  141.7986  161.6329 H   0  0  0  0  0  0  0  0  0  0  0  0
  150.9801  141.4025  154.7662 H   0  0  0  0  0  0  0  0  0  0  0  0
  150.1104  141.4684  156.2734 H   0  0  0  0  0  0  0  0  0  0  0  0
  152.1349  138.8694  157.8538 H   0  0  0  0  0  0  0  0  0  0  0  0
  1  2  1  0  0  0  0
  1 18  1  0  0  0  0
  1 19  1  0  0  0  0
  1 20  1  0  0  0  0
  2  3  1  0  0  0  0
  2 21  1  0  0  0  0
  2 22  1  0  0  0  0
  3 17  1  0  0  0  0
  3  4  1  0  0  0  0
  3 23  1  0  0  0  0
  4  5  1  0  0  0  0
  4 24  1  0  0  0  0
  4 25  1  0  0  0  0
  5  6  1  0  0  0  0
  5 26  1  0  0  0  0
  5 27  1  0  0  0  0
  6  7  1  0  0  0  0
  6 28  1  0  0  0  0
  6 29  1  0  0  0  0
  7  8  1  0  0  0  0
  7 17  1  0  0  0  0
  7 30  1  0  0  0  0
  8  9  1  0  0  0  0
  8 31  1  0  0  0  0
  8 42  1  0  0  0  0
  9 10  1  0  0  0  0
  9 32  1  0  0  0  0
  9 33  1  0  0  0  0
 10 11  1  0  0  0  0
 10 34  1  0  0  0  0
 10 35  1  0  0  0  0
 11 16  1  0  0  0  0
 11 12  2  0  0  0  0
 12 13  1  0  0  0  0
 12 36  1  0  0  0  0
 13 14  2  0  0  0  0
 13 37  1  0  0  0  0
 14 15  1  0  0  0  0
 14 38  1  0  0  0  0
 15 16  2  0  0  0  0
 16 39  1  0  0  0  0
 17 40  1  0  0  0  0
 17 41  1  0  0  0  0
M  CHG  1   8   1
M  END
> <s_m_source_file>
AV-unprocessed.smi

> <i_m_source_file_index>
3126

> <i_lp_mmshare_version>
43012

> <i_f3d_flags>
0

> <s_epik_input>
W0NIM11bQ0gyXVtDQEBIXTFbQ0gyXVtDSDJdW0NIMl1bQ0BIXShbQ0gyXTEpW05IXVtDSDJdW0NIMl1jMltjSF1bY0hdW2NIXW5bY0hdMg==

> <s_epik_cmdline>
J2VwaWtfcHl0aG9uJywgJy1waCcsICc3LjAnLCAnLXRuJywgJzgnLCAnLW1hJywgJzIwMCcsICctbWV0YWxfYmluZGluZycsICctaW1hZScsICc8aW5maWxlLm1hZT4nLCAnLW9tYWUnLCAnPG91dGZpbGUubWFlPic=

> <r_lp_tautomer_probability>
1

> <r_epik_Ionization_Penalty>
0.000947364

> <r_epik_Ionization_Penalty_Charging>
0.000286103

> <r_epik_Ionization_Penalty_Neutral>
0.000661261

> <r_epik_State_Penalty>
-0

> <r_epik_Charging_Adjusted_Penalty>
0.000286103

> <i_epik_Tot_Q>
1

> <i_epik_Tot_abs_Q>
1

> <r_epik_Metal_State_Penalty>
-0

> <b_epik_Metal_Only>
0

> <s_lp_Force_Field>
OPLS_2005

> <r_lp_Energy>
19.3892

> <b_lp_Chiralities_Consistent>
1

> <s_lp_Variant>
AV-unprocessed.smi:3126-4

> <Gold.Version>
5.8.1

> <Gold.Id.Protein>
6NUR|6NUR_protein|mol2

> <Gold.PLP.Fitness>
43.7183

> <Gold.PLP.PLP>
-45.3958

> <Gold.PLP.part.hbond>
0.0000

> <Gold.PLP.part.metal>
0.0000

> <Gold.PLP.part.buried>
-4.1775

> <Gold.PLP.part.nonpolar>
-41.6140

> <Gold.PLP.part.repulsive>
0.1991

> <Gold.PLP.ligand.clash>
0.0000

> <Gold.PLP.ligand.torsion>
0.8598

> <Gold.PLP.Chemscore.Hbond>
0.0000

> <Gold.PLP.Chemscore.CHOScore>
0.0000

> <Gold.PLP.Chemscore.Metal>
0.0000

> <Gold.PLP.Chemscore.Internal.Correction>
0.0421

> <Gold.Rescore>
     Score         DG    S(hbond)    S(metal)    S(lipo)     H(rot)  DE(clash)    DE(int)     intcor
     16.33     -17.11       0.00        0.00     128.93       1.35       0.11       0.67       ----

> <Gold.Chemscore.Fitness>
16.3294

> <Gold.Chemscore.DG>
-17.1071

> <Gold.Chemscore.ZeroCoef>
-5.4800

> <Gold.Chemscore.Hbond>
0.0000

> <Gold.Chemscore.Metal>
0.0000

> <Gold.Chemscore.Lipo>
128.9313

> <Gold.Chemscore.Internal_Hbond>
0.0000

> <Gold.Chemscore.DEClash>
0.1053

> <Gold.Chemscore.DEInternal>
0.6724

> <Gold.Chemscore.Rot>
1.3507

> <Gold.Chemscore.Internal.Correction>
   9.000000E+99

> <Gold.Chemscore.Hbond.Weighted>
-0.0000

> <Gold.Chemscore.Metal.Weighted>
-0.0000

> <Gold.Chemscore.Lipo.Weighted>
-15.0850

> <Gold.Chemscore.Internal_Hbond.Weighted>
0.0000

> <Gold.Chemscore.DEClash.Weighted>
0.1053

> <Gold.Chemscore.DEInternal.Weighted>
0.6724

> <Gold.Chemscore.Rot.Weighted>
3.4579

> <Gold.Chemscore.Internal.Correction.Weighted>
   9.000000E+99

> <Gold.Protein.RotatedTorsions>
[ 6907 6896 6895 6894 ] final  161.25 input  -60.11 | X-H torsion
[ 7974 7965 7964 7962 ] final   29.02 input  175.53 | X-H torsion
[ 8008 7997 7996 7995 ] final  -29.18 input   59.86 | X-H torsion
[ 10167 10162 10161 10158 ] final  171.78 input  -65.29 | X-H torsion
[ 10718 10713 10712 10709 ] final -142.37 input   66.30 | X-H torsion
[ 10763 10752 10751 10750 ] final -149.65 input  -60.55 | X-H torsion
[ 11005 11000 10999 10996 ] final    1.55 input  -57.11 | X-H torsion

> <Gold.Protein.ActiveResidues>
 VAL166  LYS551  ARG553  GLY616  TRP617  ASP618  TYR619  PRO620  LYS621  CYS622 
 ASP623  PHE694  ASN695  SER759  ASP760  ASP761  ALA762  ILE779  LEU786  VAL792 
 PHE793  MET794  SER795  GLU796  ALA797  LYS798  CYS799  TRP800  GLU811  SER814 

> <Gold.Protein.RotatedAtoms>
  151.9584  133.3687  159.4025 H   0  0  0  0  0  0  0  0  0  0  0  0  # atno 6907 bound_to 6896
  150.6968  134.4266  159.5238 H   0  0  0  0  0  0  0  0  0  0  0  0  # atno 6908 bound_to 6896
  152.1951  134.8638  160.0564 H   0  0  0  0  0  0  0  0  0  0  0  0  # atno 6909 bound_to 6896
  146.1695  139.6977  142.8977 H   0  0  0  0  0  0  0  0  0  0  0  0  # atno 7974 bound_to 7965
  154.4301  140.1825  156.1206 H   0  0  0  0  0  0  0  0  0  0  0  0  # atno 8008 bound_to 7997
  156.0146  140.3347  155.6950 H   0  0  0  0  0  0  0  0  0  0  0  0  # atno 8009 bound_to 7997
  155.6063  140.0645  157.2709 H   0  0  0  0  0  0  0  0  0  0  0  0  # atno 8010 bound_to 7997
  139.5057  144.3447  151.9983 H   0  0  0  0  0  0  0  0  0  0  0  0  # atno 10167 bound_to 10162
  156.3451  130.7658  151.1801 H   0  0  0  0  0  0  0  0  0  0  0  0  # atno 10718 bound_to 10713
  154.8165  135.3304  154.7162 H   0  0  0  0  0  0  0  0  0  0  0  0  # atno 10763 bound_to 10752
  153.7802  135.6919  153.4894 H   0  0  0  0  0  0  0  0  0  0  0  0  # atno 10764 bound_to 10752
  153.1986  135.4524  155.0186 H   0  0  0  0  0  0  0  0  0  0  0  0  # atno 10765 bound_to 10752
  140.6142  133.9720  155.8192 H   0  0  0  0  0  0  0  0  0  0  0  0  # atno 11005 bound_to 11000
  145.4377  141.0420  143.2875 LP  0  0  0  0  0  0  0  0  0  0  0  0  # atno 17320 bound_to 7965
  144.8142  139.5906  143.7016 LP  0  0  0  0  0  0  0  0  0  0  0  0  # atno 17321 bound_to 7965
  140.2885  144.3781  150.6096 LP  0  0  0  0  0  0  0  0  0  0  0  0  # atno 17342 bound_to 10162
  140.5965  143.2167  151.7155 LP  0  0  0  0  0  0  0  0  0  0  0  0  # atno 17343 bound_to 10162
  157.7453  131.0443  150.4788 LP  0  0  0  0  0  0  0  0  0  0  0  0  # atno 17370 bound_to 10713
  156.4974  130.4109  149.6372 LP  0  0  0  0  0  0  0  0  0  0  0  0  # atno 17371 bound_to 10713
  141.0787  134.0096  157.3419 LP  0  0  0  0  0  0  0  0  0  0  0  0  # atno 17394 bound_to 11000
  139.9179  135.0198  156.7954 LP  0  0  0  0  0  0  0  0  0  0  0  0  # atno 17395 bound_to 11000

$$$$
