AV-unprocessed.smi:3090|AV-procd|sdf|11776|dock4
  -GOLD-   2272017153D 1   1.00000     0.00000
 Structure written by MMmdl.
 21 21  0  0  0  0  0  0  0  0  1 V2000
  151.4201  142.7117  158.4500 C   0  0  0  0  0  0  0  0  0  0  0  0
  151.2857  141.6938  157.4302 N   0  0  0  0  0  0  0  0  0  0  0  0
  150.5679  141.7427  156.2548 C   0  0  0  0  0  0  0  0  0  0  0  0
  150.7441  140.5477  155.6136 C   0  0  0  0  0  0  0  0  0  0  0  0
  150.1810  140.0829  154.2937 C   0  0  2  0  0  0  0  0  0  0  0  0
  149.4301  141.0983  153.6618 O   0  0  0  0  0  0  0  0  0  0  0  0
  149.2643  138.8575  154.4557 C   0  0  0  0  0  0  0  0  0  0  0  0
  148.5943  138.4669  153.2053 N   0  0  0  0  0  0  0  0  0  0  0  0
  151.5960  139.8255  156.4982 C   0  0  0  0  0  0  0  0  0  0  0  0
  151.9195  140.5132  157.5813 N   0  0  0  0  0  0  0  0  0  0  0  0
  150.8844  143.6135  158.1520 H   0  0  0  0  0  0  0  0  0  0  0  0
  152.4733  142.9560  158.5908 H   0  0  0  0  0  0  0  0  0  0  0  0
  151.0068  142.3482  159.3912 H   0  0  0  0  0  0  0  0  0  0  0  0
  149.9970  142.6147  155.9717 H   0  0  0  0  0  0  0  0  0  0  0  0
  150.9906  139.8237  153.6104 H   0  0  0  0  0  0  0  0  0  0  0  0
  149.4926  140.9782  152.7265 H   0  0  0  0  0  0  0  0  0  0  0  0
  149.8414  138.0155  154.8399 H   0  0  0  0  0  0  0  0  0  0  0  0
  148.5074  139.0748  155.2103 H   0  0  0  0  0  0  0  0  0  0  0  0
  148.9209  139.0447  152.4320 H   0  0  0  0  0  0  0  0  0  0  0  0
  148.8171  137.5010  152.9692 H   0  0  0  0  0  0  0  0  0  0  0  0
  151.9864  138.8250  156.3838 H   0  0  0  0  0  0  0  0  0  0  0  0
  1  2  1  0  0  0  0
  1 11  1  0  0  0  0
  1 12  1  0  0  0  0
  1 13  1  0  0  0  0
  2 10  1  0  0  0  0
  2  3  1  0  0  0  0
  3  4  2  0  0  0  0
  3 14  1  0  0  0  0
  4  5  1  0  0  0  0
  4  9  1  0  0  0  0
  5  6  1  0  0  0  0
  5  7  1  0  0  0  0
  5 15  1  0  0  0  0
  6 16  1  0  0  0  0
  7  8  1  0  0  0  0
  7 17  1  0  0  0  0
  7 18  1  0  0  0  0
  8 19  1  0  0  0  0
  8 20  1  0  0  0  0
  9 10  2  0  0  0  0
  9 21  1  0  0  0  0
M  END
> <s_m_source_file>
AV-unprocessed.smi

> <i_m_source_file_index>
3090

> <i_lp_mmshare_version>
43012

> <i_f3d_flags>
0

> <s_epik_input>
W0NIM11uMVtjSF1jKFtjSF1uMSlbQ0BIXShbT0hdKVtDSDJdW05IMl0=

> <s_epik_cmdline>
J2VwaWtfcHl0aG9uJywgJy1waCcsICc3LjAnLCAnLXRuJywgJzgnLCAnLW1hJywgJzIwMCcsICctbWV0YWxfYmluZGluZycsICctaW1hZScsICc8aW5maWxlLm1hZT4nLCAnLW9tYWUnLCAnPG91dGZpbGUubWFlPic=

> <r_lp_tautomer_probability>
1

> <r_epik_Ionization_Penalty>
2.22426

> <r_epik_Ionization_Penalty_Charging>
0

> <r_epik_Ionization_Penalty_Neutral>
2.22426

> <r_epik_State_Penalty>
2.36938

> <r_epik_Charging_Adjusted_Penalty>
2.36938

> <i_epik_Tot_Q>
0

> <i_epik_Tot_abs_Q>
0

> <r_epik_Metal_State_Penalty>
2.36934

> <b_epik_Metal_Only>
0

> <s_lp_Force_Field>
OPLS_2005

> <r_lp_Energy>
2.27674

> <b_lp_Chiralities_Consistent>
1

> <s_lp_Variant>
AV-unprocessed.smi:3090-3

> <Gold.Version>
5.8.1

> <Gold.Id.Protein>
6NUR|6NUR_protein|mol2

> <Gold.PLP.Fitness>
33.0638

> <Gold.PLP.PLP>
-21.1504

> <Gold.PLP.part.hbond>
-5.0000

> <Gold.PLP.part.metal>
0.0000

> <Gold.PLP.part.buried>
1.6011

> <Gold.PLP.part.nonpolar>
-16.4082

> <Gold.PLP.part.repulsive>
0.0000

> <Gold.PLP.ligand.clash>
0.0000

> <Gold.PLP.ligand.torsion>
0.0450

> <Gold.PLP.Chemscore.Hbond>
3.0000

> <Gold.PLP.Chemscore.CHOScore>
1.0000

> <Gold.PLP.Chemscore.Metal>
0.0000

> <Gold.Chemscore.Hbonds>
donor molecule, donor type, donor heavy atom, donor atom, acceptor molecule, acceptor atom, score
      L1  H     6    16       P1  7957  1.00
      L1  H     8    19       P1  7957  1.00
      L1  H     8    20       P1  7948  1.00
      L1  C     3    14       P1  8028  1.00

> <Gold.PLP.Chemscore.Internal.Correction>
0.0034

> <Gold.Rescore>
     Score         DG    S(hbond)    S(metal)    S(lipo)     H(rot)  DE(clash)    DE(int)     intcor
     14.75     -15.65       2.96        0.00      43.96       1.90       0.85       0.04       ----

> <Gold.Chemscore.Fitness>
14.7539

> <Gold.Chemscore.DG>
-15.6451

> <Gold.Chemscore.ZeroCoef>
-5.4800

> <Gold.Chemscore.Hbond>
2.9628

> <Gold.Chemscore.Metal>
0.0000

> <Gold.Chemscore.Lipo>
43.9593

> <Gold.Chemscore.Internal_Hbond>
0.0000

> <Gold.Chemscore.DEClash>
0.8474

> <Gold.Chemscore.DEInternal>
0.0438

> <Gold.Chemscore.Rot>
1.9039

> <Gold.Chemscore.Internal.Correction>
   9.000000E+99

> <Gold.Chemscore.Hbonds>
donor molecule, donor type, donor heavy atom, donor atom, acceptor molecule, acceptor atom, score
      L1  H     6    16       P1  7957  0.99
      L1  H     8    19       P1  7957  0.99
      L1  H     8    20       P1  7948  0.95

> <Gold.Chemscore.Hbond.Weighted>
-9.8958

> <Gold.Chemscore.Metal.Weighted>
-0.0000

> <Gold.Chemscore.Lipo.Weighted>
-5.1432

> <Gold.Chemscore.Internal_Hbond.Weighted>
0.0000

> <Gold.Chemscore.DEClash.Weighted>
0.8474

> <Gold.Chemscore.DEInternal.Weighted>
0.0438

> <Gold.Chemscore.Rot.Weighted>
4.8739

> <Gold.Chemscore.Internal.Correction.Weighted>
   9.000000E+99

> <Gold.Protein.RotatedTorsions>
[ 6907 6896 6895 6894 ] final   86.69 input  -60.11 | X-H torsion
[ 7974 7965 7964 7962 ] final   50.48 input  175.53 | X-H torsion
[ 8008 7997 7996 7995 ] final   50.17 input   59.86 | X-H torsion
[ 10167 10162 10161 10158 ] final   95.13 input  -65.29 | X-H torsion
[ 10718 10713 10712 10709 ] final  -22.35 input   66.30 | X-H torsion
[ 10763 10752 10751 10750 ] final -133.21 input  -60.55 | X-H torsion
[ 11005 11000 10999 10996 ] final   29.99 input  -57.11 | X-H torsion

> <Gold.Protein.ActiveResidues>
 VAL166  LYS551  ARG553  GLY616  TRP617  ASP618  TYR619  PRO620  LYS621  CYS622 
 ASP623  PHE694  ASN695  SER759  ASP760  ASP761  ALA762  ILE779  LEU786  VAL792 
 PHE793  MET794  SER795  GLU796  ALA797  LYS798  CYS799  TRP800  GLU811  SER814 

> <Gold.Protein.RotatedAtoms>
  152.5399  134.2392  159.8854 H   0  0  0  0  0  0  0  0  0  0  0  0  # atno 6907 bound_to 6896
  151.2360  133.4418  159.2613 H   0  0  0  0  0  0  0  0  0  0  0  0  # atno 6908 bound_to 6896
  151.0671  134.9788  159.8346 H   0  0  0  0  0  0  0  0  0  0  0  0  # atno 6909 bound_to 6896
  146.0007  139.4436  143.0016 H   0  0  0  0  0  0  0  0  0  0  0  0  # atno 7974 bound_to 7965
  155.4143  140.3443  155.4266 H   0  0  0  0  0  0  0  0  0  0  0  0  # atno 8008 bound_to 7997
  156.1430  140.1548  156.8922 H   0  0  0  0  0  0  0  0  0  0  0  0  # atno 8009 bound_to 7997
  154.4987  140.0820  156.7732 H   0  0  0  0  0  0  0  0  0  0  0  0  # atno 8010 bound_to 7997
  139.8018  144.6810  150.9755 H   0  0  0  0  0  0  0  0  0  0  0  0  # atno 10167 bound_to 10162
  156.5057  130.4598  149.6676 H   0  0  0  0  0  0  0  0  0  0  0  0  # atno 10718 bound_to 10713
  154.8735  135.3773  154.4535 H   0  0  0  0  0  0  0  0  0  0  0  0  # atno 10763 bound_to 10752
  153.5209  135.7029  153.5737 H   0  0  0  0  0  0  0  0  0  0  0  0  # atno 10764 bound_to 10752
  153.3984  135.3954  155.1937 H   0  0  0  0  0  0  0  0  0  0  0  0  # atno 10765 bound_to 10752
  140.2991  134.2776  155.7758 H   0  0  0  0  0  0  0  0  0  0  0  0  # atno 11005 bound_to 11000
  145.7491  140.9979  143.1260 LP  0  0  0  0  0  0  0  0  0  0  0  0  # atno 17320 bound_to 7965
  144.6918  139.9193  143.7467 LP  0  0  0  0  0  0  0  0  0  0  0  0  # atno 17321 bound_to 7965
  140.7820  143.4274  151.0747 LP  0  0  0  0  0  0  0  0  0  0  0  0  # atno 17342 bound_to 10162
  139.7945  143.8171  152.3156 LP  0  0  0  0  0  0  0  0  0  0  0  0  # atno 17343 bound_to 10162
  156.3289  130.7321  151.2247 LP  0  0  0  0  0  0  0  0  0  0  0  0  # atno 17370 bound_to 10713
  157.7457  131.0435  150.4747 LP  0  0  0  0  0  0  0  0  0  0  0  0  # atno 17371 bound_to 10713
  141.2131  133.7635  156.9740 LP  0  0  0  0  0  0  0  0  0  0  0  0  # atno 17394 bound_to 11000
  140.1125  134.9468  157.2086 LP  0  0  0  0  0  0  0  0  0  0  0  0  # atno 17395 bound_to 11000

$$$$
