AV-unprocessed.smi:158|AV-procd|sdf|1329|dock8
  -GOLD-   2262019 23D 1   1.00000     0.00000
 Structure written by MMmdl.
 31 33  0  0  0  0  0  0  0  0  1 V2000
  145.8556  129.1717  151.7008 N   0  0  0  0  0  0  0  0  0  0  0  0
  146.0408  130.4896  151.8621 C   0  0  0  0  0  0  0  0  0  0  0  0
  147.0560  130.9046  152.6550 N   0  0  0  0  0  0  0  0  0  0  0  0
  147.2767  132.2118  152.8418 C   0  0  0  0  0  0  0  0  0  0  0  0
  148.5972  132.6276  153.8696 Cl  0  0  0  0  0  0  0  0  0  0  0  0
  146.5893  133.2327  152.3196 N   0  0  0  0  0  0  0  0  0  0  0  0
  145.5644  132.8188  151.5188 C   0  0  0  0  0  0  0  0  0  0  0  0
  145.2253  131.4674  151.2416 C   0  0  0  0  0  0  0  0  0  0  0  0
  144.1288  131.4185  150.3913 N   0  0  0  0  0  0  0  0  0  0  0  0
  143.8396  132.6749  150.1801 C   0  0  0  0  0  0  0  0  0  0  0  0
  144.6527  133.5849  150.8195 N   0  0  0  0  0  0  0  0  0  0  0  0
  144.5689  135.0776  150.7669 C   0  0  2  0  0  0  0  0  0  0  0  0
  145.7967  135.6256  151.1487 O   0  0  0  0  0  0  0  0  0  0  0  0
  145.5989  136.6428  152.1323 C   0  0  1  0  0  0  0  0  0  0  0  0
  146.5640  137.8069  151.8600 C   0  0  0  0  0  0  0  0  0  0  0  0
  146.4169  138.2763  150.5366 O   0  0  0  0  0  0  0  0  0  0  0  0
  144.1114  136.9958  152.0120 C   0  0  2  0  0  0  0  0  0  0  0  0
  143.5618  137.5724  153.1801 O   0  0  0  0  0  0  0  0  0  0  0  0
  143.5027  135.6404  151.7124 C   0  0  2  0  0  0  0  0  0  0  0  0
  143.4279  134.8900  152.8162 F   0  0  0  0  0  0  0  0  0  0  0  0
  144.3779  135.3163  149.7197 H   0  0  0  0  0  0  0  0  0  0  0  0
  145.8046  136.1970  153.1074 H   0  0  0  0  0  0  0  0  0  0  0  0
  143.9494  137.6665  151.1668 H   0  0  0  0  0  0  0  0  0  0  0  0
  142.5198  135.6755  151.2421 H   0  0  0  0  0  0  0  0  0  0  0  0
  145.1050  128.8378  151.1134 H   0  0  0  0  0  0  0  0  0  0  0  0
  146.4672  128.5159  152.1647 H   0  0  0  0  0  0  0  0  0  0  0  0
  143.0180  132.9750  149.5464 H   0  0  0  0  0  0  0  0  0  0  0  0
  146.3514  138.6326  152.5396 H   0  0  0  0  0  0  0  0  0  0  0  0
  147.5985  137.5076  152.0309 H   0  0  0  0  0  0  0  0  0  0  0  0
  145.6350  138.8052  150.4909 H   0  0  0  0  0  0  0  0  0  0  0  0
  143.6142  138.5131  153.1019 H   0  0  0  0  0  0  0  0  0  0  0  0
  1  2  1  0  0  0  0
  1 25  1  0  0  0  0
  1 26  1  0  0  0  0
  2  8  1  0  0  0  0
  2  3  2  0  0  0  0
  3  4  1  0  0  0  0
  4  5  1  0  0  0  0
  4  6  2  0  0  0  0
  6  7  1  0  0  0  0
  7 11  1  0  0  0  0
  7  8  2  0  0  0  0
  8  9  1  0  0  0  0
  9 10  2  0  0  0  0
 10 11  1  0  0  0  0
 10 27  1  0  0  0  0
 11 12  1  0  0  0  0
 12 21  1  0  0  0  0
 12 19  1  0  0  0  0
 12 13  1  0  0  0  0
 13 14  1  0  0  0  0
 14 22  1  0  0  0  0
 14 15  1  0  0  0  0
 14 17  1  0  0  0  0
 15 16  1  0  0  0  0
 15 28  1  0  0  0  0
 15 29  1  0  0  0  0
 16 30  1  0  0  0  0
 17 23  1  0  0  0  0
 17 18  1  0  0  0  0
 17 19  1  0  0  0  0
 18 31  1  0  0  0  0
 19 24  1  0  0  0  0
 19 20  1  0  0  0  0
M  END
> <s_m_source_file>
AV-unprocessed.smi

> <i_m_source_file_index>
158

> <i_lp_mmshare_version>
43012

> <i_f3d_flags>
0

> <s_epik_input>
Q2xjKG4xKW5jKFtOSDJdKWMoYzEyKW5bY0hdbjJbQ0BASF0zT1tDQEhdKFtDSDJdW09IXSlbQ0BASF0oW09IXSlbQ0BASF0zRg==

> <s_epik_cmdline>
J2VwaWtfcHl0aG9uJywgJy1waCcsICc3LjAnLCAnLXRuJywgJzgnLCAnLW1hJywgJzIwMCcsICctbWV0YWxfYmluZGluZycsICctaW1hZScsICc8aW5maWxlLm1hZT4nLCAnLW9tYWUnLCAnPG91dGZpbGUubWFlPic=

> <r_lp_tautomer_probability>
1

> <r_epik_Ionization_Penalty>
6.51543e-05

> <r_epik_Ionization_Penalty_Charging>
0

> <r_epik_Ionization_Penalty_Neutral>
6.51543e-05

> <r_epik_State_Penalty>
-0

> <r_epik_Charging_Adjusted_Penalty>
0

> <i_epik_Tot_Q>
0

> <i_epik_Tot_abs_Q>
0

> <r_epik_Metal_State_Penalty>
-0

> <b_epik_Metal_Only>
0

> <s_epik_Chemistry_Notes>
This compound contains an acetal/aminal-like group ( X-CH(R)-Y where X, Y are N, S, or O) that may be acid/base labile, releasing an aldehyde.

> <s_lp_Force_Field>
OPLS_2005

> <r_lp_Energy>
35.9636

> <b_lp_Chiralities_Consistent>
1

> <s_lp_Variant>
AV-unprocessed.smi:158-7

> <Gold.Version>
5.8.1

> <Gold.Id.Protein>
6NUR|6NUR_protein|mol2

> <Gold.PLP.Fitness>
43.8044

> <Gold.PLP.PLP>
-33.4376

> <Gold.PLP.part.hbond>
-4.0000

> <Gold.PLP.part.metal>
0.0000

> <Gold.PLP.part.buried>
-2.8000

> <Gold.PLP.part.nonpolar>
-28.5184

> <Gold.PLP.part.repulsive>
1.1764

> <Gold.PLP.ligand.clash>
0.0000

> <Gold.PLP.ligand.torsion>
0.5893

> <Gold.PLP.Chemscore.Hbond>
2.8470

> <Gold.PLP.Chemscore.CHOScore>
1.0000

> <Gold.PLP.Chemscore.Metal>
0.0000

> <Gold.Chemscore.Hbonds>
donor molecule, donor type, donor heavy atom, donor atom, acceptor molecule, acceptor atom, score
      L1  H    16    30       P1 10171  0.74
      L1  H    18    31       P1 10175  1.00
      P1  H  7954  7966       L1    16  0.86
      P1  H 10785 10796       L1     9  0.25
      L1  C    10    27       P1 10186  1.00

> <Gold.PLP.Chemscore.Internal.Correction>
0.0044

> <Gold.Rescore>
     Score         DG    S(hbond)    S(metal)    S(lipo)     H(rot)  DE(clash)    DE(int)     intcor
      6.08     -10.61       2.80        0.00      32.10       3.12       1.40       3.13       ----

> <Gold.Chemscore.Fitness>
6.0836

> <Gold.Chemscore.DG>
-10.6071

> <Gold.Chemscore.ZeroCoef>
-5.4800

> <Gold.Chemscore.Hbond>
2.8043

> <Gold.Chemscore.Metal>
0.0000

> <Gold.Chemscore.Lipo>
32.1008

> <Gold.Chemscore.Internal_Hbond>
0.0000

> <Gold.Chemscore.DEClash>
1.3970

> <Gold.Chemscore.DEInternal>
3.1265

> <Gold.Chemscore.Rot>
3.1230

> <Gold.Chemscore.Internal.Correction>
   9.000000E+99

> <Gold.Chemscore.Hbonds>
donor molecule, donor type, donor heavy atom, donor atom, acceptor molecule, acceptor atom, score
      L1  H    16    30       P1 10171  0.74
      L1  H    18    31       P1 10175  0.93
      P1  H  7954  7966       L1    16  0.22
      P1  H 10785 10796       L1     9  0.18

> <Gold.Chemscore.Hbond.Weighted>
-9.3663

> <Gold.Chemscore.Metal.Weighted>
-0.0000

> <Gold.Chemscore.Lipo.Weighted>
-3.7558

> <Gold.Chemscore.Internal_Hbond.Weighted>
0.0000

> <Gold.Chemscore.DEClash.Weighted>
1.3970

> <Gold.Chemscore.DEInternal.Weighted>
3.1265

> <Gold.Chemscore.Rot.Weighted>
7.9950

> <Gold.Chemscore.Internal.Correction.Weighted>
   9.000000E+99

> <Gold.Protein.RotatedTorsions>
[ 6907 6896 6895 6894 ] final -137.70 input  -60.11 | X-H torsion
[ 7974 7965 7964 7962 ] final  -72.34 input  175.53 | X-H torsion
[ 8008 7997 7996 7995 ] final  -22.95 input   59.86 | X-H torsion
[ 10167 10162 10161 10158 ] final  -55.02 input  -65.29 | X-H torsion
[ 10718 10713 10712 10709 ] final  144.97 input   66.30 | X-H torsion
[ 10763 10752 10751 10750 ] final  132.86 input  -60.55 | X-H torsion
[ 11005 11000 10999 10996 ] final   54.34 input  -57.11 | X-H torsion

> <Gold.Protein.ActiveResidues>
 VAL166  LYS551  ARG553  GLY616  TRP617  ASP618  TYR619  PRO620  LYS621  CYS622 
 ASP623  PHE694  ASN695  SER759  ASP760  ASP761  ALA762  ILE779  LEU786  VAL792 
 PHE793  MET794  SER795  GLU796  ALA797  LYS798  CYS799  TRP800  GLU811  SER814 

> <Gold.Protein.RotatedAtoms>
  151.0258  133.5835  159.2665 H   0  0  0  0  0  0  0  0  0  0  0  0  # atno 6907 bound_to 6896
  151.2935  135.0747  159.9222 H   0  0  0  0  0  0  0  0  0  0  0  0  # atno 6908 bound_to 6896
  152.5333  133.9952  159.7923 H   0  0  0  0  0  0  0  0  0  0  0  0  # atno 6909 bound_to 6896
  145.6664  140.9235  143.0906 H   0  0  0  0  0  0  0  0  0  0  0  0  # atno 7974 bound_to 7965
  154.4614  140.1994  156.0236 H   0  0  0  0  0  0  0  0  0  0  0  0  # atno 8008 bound_to 7997
  156.0846  140.3267  155.7709 H   0  0  0  0  0  0  0  0  0  0  0  0  # atno 8009 bound_to 7997
  155.5056  140.0557  157.2923 H   0  0  0  0  0  0  0  0  0  0  0  0  # atno 8010 bound_to 7997
  140.6398  143.2502  151.5019 H   0  0  0  0  0  0  0  0  0  0  0  0  # atno 10167 bound_to 10162
  157.3509  131.0950  151.1001 H   0  0  0  0  0  0  0  0  0  0  0  0  # atno 10718 bound_to 10713
  153.7976  135.3146  155.3386 H   0  0  0  0  0  0  0  0  0  0  0  0  # atno 10763 bound_to 10752
  154.8101  135.4672  154.0498 H   0  0  0  0  0  0  0  0  0  0  0  0  # atno 10764 bound_to 10752
  153.1835  135.6897  153.8533 H   0  0  0  0  0  0  0  0  0  0  0  0  # atno 10765 bound_to 10752
  140.0694  134.5490  155.9063 H   0  0  0  0  0  0  0  0  0  0  0  0  # atno 11005 bound_to 11000
  144.7071  139.8516  143.7426 LP  0  0  0  0  0  0  0  0  0  0  0  0  # atno 17320 bound_to 7965
  146.1082  139.4084  143.0304 LP  0  0  0  0  0  0  0  0  0  0  0  0  # atno 17321 bound_to 7965
  139.5608  144.2162  152.1687 LP  0  0  0  0  0  0  0  0  0  0  0  0  # atno 17342 bound_to 10162
  140.1429  144.5185  150.6733 LP  0  0  0  0  0  0  0  0  0  0  0  0  # atno 17343 bound_to 10162
  157.2177  130.6467  149.5799 LP  0  0  0  0  0  0  0  0  0  0  0  0  # atno 17370 bound_to 10713
  155.9721  130.4639  150.6199 LP  0  0  0  0  0  0  0  0  0  0  0  0  # atno 17371 bound_to 10713
  141.2006  133.6613  156.5905 LP  0  0  0  0  0  0  0  0  0  0  0  0  # atno 17394 bound_to 11000
  140.3649  134.7655  157.4559 LP  0  0  0  0  0  0  0  0  0  0  0  0  # atno 17395 bound_to 11000

$$$$
