AV-unprocessed.smi:21|AV-procd|sdf|145|dock10
  -GOLD-   2262015353D 1   1.00000     0.00000
 Structure written by MMmdl.
 62 65  0  0  0  0  0  0  0  0  2 V2000
  143.9253  132.9987  148.5575 C   0  0  0  0  0  0  0  0  0  0  0  0
  143.7109  131.7594  149.2139 O   0  0  0  0  0  0  0  0  0  0  0  0
  144.0271  131.7867  150.5979 C   0  0  1  0  0  0  0  0  0  0  0  0
  145.4746  132.1777  150.8752 C   0  0  0  0  0  0  0  0  0  0  0  0
  145.4370  132.7147  152.3129 C   0  0  1  0  0  0  0  0  0  0  0  0
  146.5956  133.6865  152.6483 C   0  0  0  0  0  0  0  0  0  0  0  0
  146.7924  133.8476  154.0917 N   0  0  0  0  0  0  0  0  0  0  0  0
  146.7871  132.6489  154.9212 C   0  0  0  0  0  0  0  0  0  0  0  0
  147.2783  135.0197  154.5924 C   0  0  0  0  0  0  0  0  0  0  0  0
  146.4720  136.1142  154.5582 N   0  0  0  0  0  0  0  0  0  0  0  0
  146.8912  137.2917  155.0271 C   0  0  0  0  0  0  0  0  0  0  0  0
  148.0682  137.5990  155.5702 N   0  0  0  0  0  0  0  0  0  0  0  0
  148.8887  136.5122  155.6149 C   0  0  0  0  0  0  0  0  0  0  0  0
  148.5824  135.1990  155.1506 C   0  0  0  0  0  0  0  0  0  0  0  0
  149.6865  134.3746  155.3470 N   0  0  0  0  0  0  0  0  0  0  0  0
  150.5798  135.1460  155.9018 C   0  0  0  0  0  0  0  0  0  0  0  0
  150.1764  136.4428  156.1175 N   0  0  0  0  0  0  0  0  0  0  0  0
  150.9651  137.5099  156.7081 C   0  0  0  0  0  0  0  0  0  0  0  0
  150.6798  138.9225  156.1323 C   0  0  2  0  0  0  0  0  0  0  0  0
  151.0716  138.9527  154.6370 C   0  0  0  0  0  0  0  0  0  0  0  0
  150.3997  139.9830  153.9408 O   0  0  0  0  0  0  0  0  0  0  0  0
  151.3197  140.0895  156.9405 C   0  0  1  0  0  0  0  0  0  0  0  0
  150.8816  141.4785  156.5019 C   0  0  0  0  0  0  0  0  0  0  0  0
  151.2684  142.3327  157.7001 C   0  0  0  0  0  0  0  0  0  0  0  0
  150.9828  141.5165  158.8255 O   0  0  0  0  0  0  0  0  0  0  0  0
  150.9611  140.1464  158.4345 C   0  0  0  0  0  0  0  0  0  0  0  0
  144.0570  133.2527  152.5037 N   0  3  1  0  0  0  0  0  0  0  0  0
  143.9182  134.6739  152.9000 C   0  0  0  0  0  0  0  0  0  0  0  0
  143.2626  132.9047  151.3027 C   0  0  0  0  0  0  0  0  0  0  0  0
  143.7931  130.8322  151.0732 H   0  0  0  0  0  0  0  0  0  0  0  0
  145.5015  131.8603  152.9883 H   0  0  0  0  0  0  0  0  0  0  0  0
  143.6952  132.8929  147.4975 H   0  0  0  0  0  0  0  0  0  0  0  0
  144.9651  133.3168  148.6442 H   0  0  0  0  0  0  0  0  0  0  0  0
  143.2839  133.7834  148.9601 H   0  0  0  0  0  0  0  0  0  0  0  0
  146.1702  131.3465  150.7559 H   0  0  0  0  0  0  0  0  0  0  0  0
  145.7743  132.9688  150.1862 H   0  0  0  0  0  0  0  0  0  0  0  0
  147.5140  133.3778  152.1495 H   0  0  0  0  0  0  0  0  0  0  0  0
  146.3683  134.6752  152.2497 H   0  0  0  0  0  0  0  0  0  0  0  0
  147.7975  132.2564  155.0385 H   0  0  0  0  0  0  0  0  0  0  0  0
  146.1755  131.8678  154.4693 H   0  0  0  0  0  0  0  0  0  0  0  0
  146.3714  132.8589  155.9073 H   0  0  0  0  0  0  0  0  0  0  0  0
  146.1818  138.1032  154.9579 H   0  0  0  0  0  0  0  0  0  0  0  0
  151.5590  134.7841  156.1802 H   0  0  0  0  0  0  0  0  0  0  0  0
  150.7998  137.5037  157.7862 H   0  0  0  0  0  0  0  0  0  0  0  0
  152.0143  137.2527  156.5589 H   0  0  0  0  0  0  0  0  0  0  0  0
  149.6002  139.0732  156.1534 H   0  0  0  0  0  0  0  0  0  0  0  0
  152.1461  139.1038  154.5289 H   0  0  0  0  0  0  0  0  0  0  0  0
  150.8522  138.0011  154.1531 H   0  0  0  0  0  0  0  0  0  0  0  0
  150.0978  139.6399  153.1138 H   0  0  0  0  0  0  0  0  0  0  0  0
  152.4058  140.0371  156.8487 H   0  0  0  0  0  0  0  0  0  0  0  0
  151.3649  141.8126  155.5836 H   0  0  0  0  0  0  0  0  0  0  0  0
  149.8010  141.5116  156.3537 H   0  0  0  0  0  0  0  0  0  0  0  0
  152.3366  142.5527  157.6840 H   0  0  0  0  0  0  0  0  0  0  0  0
  150.7244  143.2766  157.7397 H   0  0  0  0  0  0  0  0  0  0  0  0
  149.9566  139.7625  158.6154 H   0  0  0  0  0  0  0  0  0  0  0  0
  151.6576  139.5746  159.0466 H   0  0  0  0  0  0  0  0  0  0  0  0
  144.3455  135.3415  152.1510 H   0  0  0  0  0  0  0  0  0  0  0  0
  144.3989  134.8656  153.8594 H   0  0  0  0  0  0  0  0  0  0  0  0
  142.8636  134.9278  153.0116 H   0  0  0  0  0  0  0  0  0  0  0  0
  143.2032  133.7716  150.6417 H   0  0  0  0  0  0  0  0  0  0  0  0
  142.2439  132.6164  151.5632 H   0  0  0  0  0  0  0  0  0  0  0  0
  143.6661  132.7136  153.2632 H   0  0  0  0  0  0  0  0  0  0  0  0
  1  2  1  0  0  0  0
  1 32  1  0  0  0  0
  1 33  1  0  0  0  0
  1 34  1  0  0  0  0
  2  3  1  0  0  0  0
  3 30  1  0  0  0  0
  3 29  1  0  0  0  0
  3  4  1  0  0  0  0
  4  5  1  0  0  0  0
  4 35  1  0  0  0  0
  4 36  1  0  0  0  0
  5 31  1  0  0  0  0
  5  6  1  0  0  0  0
  5 27  1  0  0  0  0
  6  7  1  0  0  0  0
  6 37  1  0  0  0  0
  6 38  1  0  0  0  0
  7  8  1  0  0  0  0
  7  9  1  0  0  0  0
  8 39  1  0  0  0  0
  8 40  1  0  0  0  0
  8 41  1  0  0  0  0
  9 14  1  0  0  0  0
  9 10  2  0  0  0  0
 10 11  1  0  0  0  0
 11 12  2  0  0  0  0
 11 42  1  0  0  0  0
 12 13  1  0  0  0  0
 13 17  1  0  0  0  0
 13 14  2  0  0  0  0
 14 15  1  0  0  0  0
 15 16  2  0  0  0  0
 16 17  1  0  0  0  0
 16 43  1  0  0  0  0
 17 18  1  0  0  0  0
 18 19  1  0  0  0  0
 18 44  1  0  0  0  0
 18 45  1  0  0  0  0
 19 20  1  0  0  0  0
 19 22  1  0  0  0  0
 19 46  1  0  0  0  0
 20 21  1  0  0  0  0
 20 47  1  0  0  0  0
 20 48  1  0  0  0  0
 21 49  1  0  0  0  0
 22 26  1  0  0  0  0
 22 23  1  0  0  0  0
 22 50  1  0  0  0  0
 23 24  1  0  0  0  0
 23 51  1  0  0  0  0
 23 52  1  0  0  0  0
 24 25  1  0  0  0  0
 24 53  1  0  0  0  0
 24 54  1  0  0  0  0
 25 26  1  0  0  0  0
 26 55  1  0  0  0  0
 26 56  1  0  0  0  0
 27 28  1  0  0  0  0
 27 29  1  0  0  0  0
 27 62  1  0  0  0  0
 28 57  1  0  0  0  0
 28 58  1  0  0  0  0
 28 59  1  0  0  0  0
 29 60  1  0  0  0  0
 29 61  1  0  0  0  0
M  CHG  1  27   1
M  END
> <s_m_source_file>
AV-unprocessed.smi

> <i_m_source_file_index>
21

> <i_lp_mmshare_version>
43012

> <i_f3d_flags>
0

> <s_epik_input>
W0NIM11PW0NASF0xW0NIMl1bQ0BIXShOKFtDSDNdKVtDSDJdMSlbQ0gyXU4oW0NIM10pYyhuW2NIXW4yKWMoYzIzKW5bY0hdbjNbQ0gyXVtDQEhdKFtDSDJdW09IXSlbQ0BASF00W0NIMl1bQ0gyXU9bQ0gyXTQ=

> <s_epik_cmdline>
J2VwaWtfcHl0aG9uJywgJy1waCcsICc3LjAnLCAnLXRuJywgJzgnLCAnLW1hJywgJzIwMCcsICctbWV0YWxfYmluZGluZycsICctaW1hZScsICc8aW5maWxlLm1hZT4nLCAnLW9tYWUnLCAnPG91dGZpbGUubWFlPic=

> <r_lp_tautomer_probability>
1

> <r_epik_Ionization_Penalty>
0.0157465

> <r_epik_Ionization_Penalty_Charging>
0.015354

> <r_epik_Ionization_Penalty_Neutral>
0.000392529

> <r_epik_State_Penalty>
0.0120612

> <r_epik_Charging_Adjusted_Penalty>
0.0274152

> <i_epik_Tot_Q>
1

> <i_epik_Tot_abs_Q>
1

> <r_epik_Metal_State_Penalty>
0.0121253

> <b_epik_Metal_Only>
0

> <s_lp_Force_Field>
OPLS_2005

> <r_lp_Energy>
60.8003

> <b_lp_Chiralities_Consistent>
1

> <s_lp_Variant>
AV-unprocessed.smi:21-25

> <Gold.Version>
5.8.1

> <Gold.Id.Protein>
6NUR|6NUR_protein|mol2

> <Gold.PLP.Fitness>
49.5102

> <Gold.PLP.PLP>
-38.8573

> <Gold.PLP.part.hbond>
-3.8383

> <Gold.PLP.part.metal>
0.0000

> <Gold.PLP.part.buried>
-5.3627

> <Gold.PLP.part.nonpolar>
-30.8682

> <Gold.PLP.part.repulsive>
0.4451

> <Gold.PLP.ligand.clash>
0.0000

> <Gold.PLP.ligand.torsion>
2.1850

> <Gold.PLP.Chemscore.Hbond>
4.8400

> <Gold.PLP.Chemscore.CHOScore>
0.0000

> <Gold.PLP.Chemscore.Metal>
0.0000

> <Gold.Chemscore.Hbonds>
donor molecule, donor type, donor heavy atom, donor atom, acceptor molecule, acceptor atom, score
      L1  H    21    49       P1  7957  0.91
      L1  H    27    62       P1 10957  1.95
      P1  H  7989  7998       L1    21  1.00
      P1  H 10785 10796       L1     2  0.83

> <Gold.PLP.Chemscore.Internal.Correction>
0.5030

> <Gold.Rescore>
     Score         DG    S(hbond)    S(metal)    S(lipo)     H(rot)  DE(clash)    DE(int)     intcor
     14.21     -17.83       2.58        0.00      99.22       3.08       0.13       3.48       ----

> <Gold.Chemscore.Fitness>
14.2082

> <Gold.Chemscore.DG>
-17.8255

> <Gold.Chemscore.ZeroCoef>
-5.4800

> <Gold.Chemscore.Hbond>
2.5780

> <Gold.Chemscore.Metal>
0.0000

> <Gold.Chemscore.Lipo>
99.2227

> <Gold.Chemscore.Internal_Hbond>
0.0000

> <Gold.Chemscore.DEClash>
0.1346

> <Gold.Chemscore.DEInternal>
3.4827

> <Gold.Chemscore.Rot>
3.0758

> <Gold.Chemscore.Internal.Correction>
   9.000000E+99

> <Gold.Chemscore.Hbonds>
donor molecule, donor type, donor heavy atom, donor atom, acceptor molecule, acceptor atom, score
      L1  H    21    49       P1  7957  0.83
      L1  H    27    62       P1 10957  0.36
      P1  H  7989  7998       L1    21  0.08
      P1  H 10785 10796       L1     2  0.61

> <Gold.Chemscore.Hbond.Weighted>
-8.6106

> <Gold.Chemscore.Metal.Weighted>
-0.0000

> <Gold.Chemscore.Lipo.Weighted>
-11.6091

> <Gold.Chemscore.Internal_Hbond.Weighted>
0.0000

> <Gold.Chemscore.DEClash.Weighted>
0.1346

> <Gold.Chemscore.DEInternal.Weighted>
3.4827

> <Gold.Chemscore.Rot.Weighted>
7.8741

> <Gold.Chemscore.Internal.Correction.Weighted>
   9.000000E+99

> <Gold.Protein.RotatedTorsions>
[ 6907 6896 6895 6894 ] final   56.91 input  -60.11 | X-H torsion
[ 7974 7965 7964 7962 ] final   -7.25 input  175.53 | X-H torsion
[ 8008 7997 7996 7995 ] final   24.61 input   59.86 | X-H torsion
[ 10167 10162 10161 10158 ] final  156.03 input  -65.29 | X-H torsion
[ 10718 10713 10712 10709 ] final  -23.82 input   66.30 | X-H torsion
[ 10763 10752 10751 10750 ] final -108.80 input  -60.55 | X-H torsion
[ 11005 11000 10999 10996 ] final  -35.89 input  -57.11 | X-H torsion

> <Gold.Protein.ActiveResidues>
 VAL166  LYS551  ARG553  GLY616  TRP617  ASP618  TYR619  PRO620  LYS621  CYS622 
 ASP623  PHE694  ASN695  SER759  ASP760  ASP761  ALA762  ILE779  LEU786  VAL792 
 PHE793  MET794  SER795  GLU796  ALA797  LYS798  CYS799  TRP800  GLU811  SER814 

> <Gold.Protein.RotatedAtoms>
  152.3681  134.6774  160.0184 H   0  0  0  0  0  0  0  0  0  0  0  0  # atno 6907 bound_to 6896
  151.7076  133.3306  159.3290 H   0  0  0  0  0  0  0  0  0  0  0  0  # atno 6908 bound_to 6896
  150.7653  134.6495  159.6325 H   0  0  0  0  0  0  0  0  0  0  0  0  # atno 6909 bound_to 6896
  146.2311  140.2291  142.8339 H   0  0  0  0  0  0  0  0  0  0  0  0  # atno 7974 bound_to 7965
  154.9989  140.3123  155.4875 H   0  0  0  0  0  0  0  0  0  0  0  0  # atno 8008 bound_to 7997
  156.2928  140.2235  156.5039 H   0  0  0  0  0  0  0  0  0  0  0  0  # atno 8009 bound_to 7997
  154.7636  140.0457  157.0982 H   0  0  0  0  0  0  0  0  0  0  0  0  # atno 8010 bound_to 7997
  139.4821  144.5046  151.8118 H   0  0  0  0  0  0  0  0  0  0  0  0  # atno 10167 bound_to 10162
  156.4860  130.4555  149.6783 H   0  0  0  0  0  0  0  0  0  0  0  0  # atno 10718 bound_to 10713
  154.8157  135.4624  154.0636 H   0  0  0  0  0  0  0  0  0  0  0  0  # atno 10763 bound_to 10752
  153.2031  135.6871  153.8213 H   0  0  0  0  0  0  0  0  0  0  0  0  # atno 10764 bound_to 10752
  153.7691  135.3273  155.3326 H   0  0  0  0  0  0  0  0  0  0  0  0  # atno 10765 bound_to 10752
  140.9832  133.7045  156.1719 H   0  0  0  0  0  0  0  0  0  0  0  0  # atno 11005 bound_to 11000
  144.9572  140.8238  143.5536 LP  0  0  0  0  0  0  0  0  0  0  0  0  # atno 17320 bound_to 7965
  145.2258  139.2138  143.5069 LP  0  0  0  0  0  0  0  0  0  0  0  0  # atno 17321 bound_to 7965
  140.4542  144.1812  150.5900 LP  0  0  0  0  0  0  0  0  0  0  0  0  # atno 17342 bound_to 10162
  140.4553  143.2470  151.9293 LP  0  0  0  0  0  0  0  0  0  0  0  0  # atno 17343 bound_to 10162
  156.3474  130.7414  151.2369 LP  0  0  0  0  0  0  0  0  0  0  0  0  # atno 17370 bound_to 10713
  157.7479  131.0386  150.4513 LP  0  0  0  0  0  0  0  0  0  0  0  0  # atno 17371 bound_to 10713
  140.7155  134.4415  157.5579 LP  0  0  0  0  0  0  0  0  0  0  0  0  # atno 17394 bound_to 11000
  139.8959  134.8672  156.2111 LP  0  0  0  0  0  0  0  0  0  0  0  0  # atno 17395 bound_to 11000

$$$$
