AV-unprocessed.smi:2448|AV-procd|sdf|9659|dock1
  -GOLD-   2272013293D 1   1.00000     0.00000
 Structure written by MMmdl.
 38 39  0  0  0  0  0  0  0  0  2 V2000
  150.1384  138.8382  156.9787 O   0  0  0  0  0  0  0  0  0  0  0  0
  150.8937  139.9457  156.5195 C   0  0  1  0  0  0  0  0  0  0  0  0
  151.5519  140.6180  157.7418 C   0  0  0  0  0  0  0  0  0  0  0  0
  152.5571  139.7562  158.3676 N   0  0  0  0  0  0  0  0  0  0  0  0
  153.0125  140.1439  159.7110 C   0  0  2  0  0  0  0  0  0  0  0  0
  153.7698  141.4979  159.7285 C   0  0  0  0  0  0  0  0  0  0  0  0
  153.0515  142.6409  160.4282 C   0  0  0  0  0  0  0  0  0  0  0  0
  152.5309  143.7215  159.6809 C   0  0  0  0  0  0  0  0  0  0  0  0
  151.8729  144.7718  160.3528 C   0  0  0  0  0  0  0  0  0  0  0  0
  151.7517  144.7383  161.6978 N   0  3  0  0  0  0  0  0  0  0  0  0
  152.2421  143.7301  162.4516 C   0  0  0  0  0  0  0  0  0  0  0  0
  152.9103  142.6529  161.8346 C   0  0  0  0  0  0  0  0  0  0  0  0
  153.8846  139.0155  160.3011 C   0  0  0  0  0  0  0  0  0  0  0  0
  154.3039  139.3573  161.5202 F   0  0  0  0  0  0  0  0  0  0  0  0
  153.1926  137.8787  160.3859 F   0  0  0  0  0  0  0  0  0  0  0  0
  154.9580  138.8137  159.5366 F   0  0  0  0  0  0  0  0  0  0  0  0
  151.9456  139.4098  155.5340 C   0  0  0  0  0  0  0  0  0  0  0  0
  151.2289  139.0515  154.2280 C   0  0  0  0  0  0  0  0  0  0  0  0
  149.8739  140.2310  154.0080 S   0  0  0  0  0  0  0  0  0  0  0  0
  149.9985  140.8878  155.6933 C   0  0  0  0  0  0  0  0  0  0  0  0
  150.6635  138.3471  157.5916 H   0  0  0  0  0  0  0  0  0  0  0  0
  151.9891  141.5656  157.4338 H   0  0  0  0  0  0  0  0  0  0  0  0
  150.7776  140.8540  158.4727 H   0  0  0  0  0  0  0  0  0  0  0  0
  152.2152  138.8003  158.3922 H   0  0  0  0  0  0  0  0  0  0  0  0
  152.1444  140.2195  160.3667 H   0  0  0  0  0  0  0  0  0  0  0  0
  154.7203  141.3786  160.2485 H   0  0  0  0  0  0  0  0  0  0  0  0
  154.0287  141.7888  158.7095 H   0  0  0  0  0  0  0  0  0  0  0  0
  152.6291  143.7460  158.6051 H   0  0  0  0  0  0  0  0  0  0  0  0
  151.4446  145.6315  159.8585 H   0  0  0  0  0  0  0  0  0  0  0  0
  152.0885  143.8165  163.5174 H   0  0  0  0  0  0  0  0  0  0  0  0
  153.3083  141.8488  162.4364 H   0  0  0  0  0  0  0  0  0  0  0  0
  152.6765  140.1923  155.3248 H   0  0  0  0  0  0  0  0  0  0  0  0
  152.5000  138.5608  155.9363 H   0  0  0  0  0  0  0  0  0  0  0  0
  151.9037  139.0660  153.3718 H   0  0  0  0  0  0  0  0  0  0  0  0
  150.8009  138.0510  154.2962 H   0  0  0  0  0  0  0  0  0  0  0  0
  149.0100  141.0244  156.1336 H   0  0  0  0  0  0  0  0  0  0  0  0
  150.4614  141.8725  155.6210 H   0  0  0  0  0  0  0  0  0  0  0  0
  151.2728  145.5092  162.1643 H   0  0  0  0  0  0  0  0  0  0  0  0
  1  2  1  0  0  0  0
  1 21  1  0  0  0  0
  2 20  1  0  0  0  0
  2  3  1  0  0  0  0
  2 17  1  0  0  0  0
  3  4  1  0  0  0  0
  3 22  1  0  0  0  0
  3 23  1  0  0  0  0
  4  5  1  0  0  0  0
  4 24  1  0  0  0  0
  5  6  1  0  0  0  0
  5 13  1  0  0  0  0
  5 25  1  0  0  0  0
  6  7  1  0  0  0  0
  6 26  1  0  0  0  0
  6 27  1  0  0  0  0
  7 12  1  0  0  0  0
  7  8  2  0  0  0  0
  8  9  1  0  0  0  0
  8 28  1  0  0  0  0
  9 10  2  0  0  0  0
  9 29  1  0  0  0  0
 10 11  1  0  0  0  0
 10 38  1  0  0  0  0
 11 12  2  0  0  0  0
 11 30  1  0  0  0  0
 12 31  1  0  0  0  0
 13 14  1  0  0  0  0
 13 15  1  0  0  0  0
 13 16  1  0  0  0  0
 17 18  1  0  0  0  0
 17 32  1  0  0  0  0
 17 33  1  0  0  0  0
 18 19  1  0  0  0  0
 18 34  1  0  0  0  0
 18 35  1  0  0  0  0
 19 20  1  0  0  0  0
 20 36  1  0  0  0  0
 20 37  1  0  0  0  0
M  CHG  1  10   1
M  END
> <s_m_source_file>
AV-unprocessed.smi

> <i_m_source_file_index>
2448

> <i_lp_mmshare_version>
43012

> <i_f3d_flags>
0

> <s_epik_input>
W0NIMl0xU1tDSDJdW0NIMl1bQ0BAXTEoW09IXSlbQ0gyXVtOSF1bQ0BASF0oQyhGKShGKUYpW0NIMl1jMltjSF1bY0hdbltjSF1bY0hdMg==

> <s_epik_cmdline>
J2VwaWtfcHl0aG9uJywgJy1waCcsICc3LjAnLCAnLXRuJywgJzgnLCAnLW1hJywgJzIwMCcsICctbWV0YWxfYmluZGluZycsICctaW1hZScsICc8aW5maWxlLm1hZT4nLCAnLW9tYWUnLCAnPG91dGZpbGUubWFlPic=

> <r_epik_Ionization_Penalty>
1.11129

> <r_epik_Ionization_Penalty_Charging>
1.08366

> <r_epik_Ionization_Penalty_Neutral>
0.0276276

> <r_epik_State_Penalty>
1.93785

> <r_epik_Charging_Adjusted_Penalty>
3.02151

> <i_epik_Tot_Q>
1

> <i_epik_Tot_abs_Q>
1

> <r_epik_Metal_State_Penalty>
5.97911

> <b_epik_Metal_Only>
0

> <s_lp_Force_Field>
OPLS_2005

> <r_lp_Energy>
39.4187

> <b_lp_Chiralities_Consistent>
1

> <s_lp_Variant>
AV-unprocessed.smi:2448-9

> <Gold.Version>
5.8.1

> <Gold.Id.Protein>
6NUR|6NUR_protein|mol2

> <Gold.PLP.Fitness>
44.3190

> <Gold.PLP.PLP>
-45.6461

> <Gold.PLP.part.hbond>
-1.4495

> <Gold.PLP.part.metal>
0.0000

> <Gold.PLP.part.buried>
-2.5316

> <Gold.PLP.part.nonpolar>
-41.3314

> <Gold.PLP.part.repulsive>
0.0485

> <Gold.PLP.ligand.clash>
0.0000

> <Gold.PLP.ligand.torsion>
0.9790

> <Gold.PLP.Chemscore.Hbond>
0.0000

> <Gold.PLP.Chemscore.CHOScore>
0.0000

> <Gold.PLP.Chemscore.Metal>
0.0000

> <Gold.PLP.Chemscore.Internal.Correction>
0.6309

> <Gold.Rescore>
     Score         DG    S(hbond)    S(metal)    S(lipo)     H(rot)  DE(clash)    DE(int)     intcor
     12.43     -13.47       0.00        0.00     121.31       2.42       0.27       0.77       ----

> <Gold.Chemscore.Fitness>
12.4274

> <Gold.Chemscore.DG>
-13.4654

> <Gold.Chemscore.ZeroCoef>
-5.4800

> <Gold.Chemscore.Hbond>
0.0000

> <Gold.Chemscore.Metal>
0.0000

> <Gold.Chemscore.Lipo>
121.3051

> <Gold.Chemscore.Internal_Hbond>
0.0000

> <Gold.Chemscore.DEClash>
0.2713

> <Gold.Chemscore.DEInternal>
0.7667

> <Gold.Chemscore.Rot>
2.4247

> <Gold.Chemscore.Internal.Correction>
   9.000000E+99

> <Gold.Chemscore.Hbond.Weighted>
-0.0000

> <Gold.Chemscore.Metal.Weighted>
-0.0000

> <Gold.Chemscore.Lipo.Weighted>
-14.1927

> <Gold.Chemscore.Internal_Hbond.Weighted>
0.0000

> <Gold.Chemscore.DEClash.Weighted>
0.2713

> <Gold.Chemscore.DEInternal.Weighted>
0.7667

> <Gold.Chemscore.Rot.Weighted>
6.2072

> <Gold.Chemscore.Internal.Correction.Weighted>
   9.000000E+99

> <Gold.Protein.RotatedTorsions>
[ 6907 6896 6895 6894 ] final  -38.12 input  -60.11 | X-H torsion
[ 7974 7965 7964 7962 ] final -117.06 input  175.53 | X-H torsion
[ 8008 7997 7996 7995 ] final  124.84 input   59.86 | X-H torsion
[ 10167 10162 10161 10158 ] final  -75.83 input  -65.29 | X-H torsion
[ 10718 10713 10712 10709 ] final  154.30 input   66.30 | X-H torsion
[ 10763 10752 10751 10750 ] final   78.69 input  -60.55 | X-H torsion
[ 11005 11000 10999 10996 ] final  -51.24 input  -57.11 | X-H torsion

> <Gold.Protein.ActiveResidues>
 VAL166  LYS551  ARG553  GLY616  TRP617  ASP618  TYR619  PRO620  LYS621  CYS622 
 ASP623  PHE694  ASN695  SER759  ASP760  ASP761  ALA762  ILE779  LEU786  VAL792 
 PHE793  MET794  SER795  GLU796  ALA797  LYS798  CYS799  TRP800  GLU811  SER814 

> <Gold.Protein.RotatedAtoms>
  151.0063  134.9361  159.7981 H   0  0  0  0  0  0  0  0  0  0  0  0  # atno 6907 bound_to 6896
  152.5291  134.3088  159.9115 H   0  0  0  0  0  0  0  0  0  0  0  0  # atno 6908 bound_to 6896
  151.3093  133.4046  159.2680 H   0  0  0  0  0  0  0  0  0  0  0  0  # atno 6909 bound_to 6896
  145.0895  140.8480  143.3991 H   0  0  0  0  0  0  0  0  0  0  0  0  # atno 7974 bound_to 7965
  156.2815  140.2730  156.1853 H   0  0  0  0  0  0  0  0  0  0  0  0  # atno 8008 bound_to 7997
  155.0515  140.0386  157.2563 H   0  0  0  0  0  0  0  0  0  0  0  0  # atno 8009 bound_to 7997
  154.7191  140.2684  155.6563 H   0  0  0  0  0  0  0  0  0  0  0  0  # atno 8010 bound_to 7997
  140.4909  143.2380  151.7908 H   0  0  0  0  0  0  0  0  0  0  0  0  # atno 10167 bound_to 10162
  157.2334  131.0744  151.1838 H   0  0  0  0  0  0  0  0  0  0  0  0  # atno 10718 bound_to 10713
  153.0894  135.4867  154.8660 H   0  0  0  0  0  0  0  0  0  0  0  0  # atno 10763 bound_to 10752
  154.7250  135.3047  154.8988 H   0  0  0  0  0  0  0  0  0  0  0  0  # atno 10764 bound_to 10752
  153.9640  135.6809  153.4799 H   0  0  0  0  0  0  0  0  0  0  0  0  # atno 10765 bound_to 10752
  141.0860  133.6642  156.3848 H   0  0  0  0  0  0  0  0  0  0  0  0  # atno 11005 bound_to 11000
  145.1082  139.2775  143.5651 LP  0  0  0  0  0  0  0  0  0  0  0  0  # atno 17320 bound_to 7965
  146.3531  140.0670  142.8625 LP  0  0  0  0  0  0  0  0  0  0  0  0  # atno 17321 bound_to 7965
  139.4851  144.4650  151.9495 LP  0  0  0  0  0  0  0  0  0  0  0  0  # atno 17342 bound_to 10162
  140.3737  144.2824  150.5917 LP  0  0  0  0  0  0  0  0  0  0  0  0  # atno 17343 bound_to 10162
  157.3454  130.7054  149.6407 LP  0  0  0  0  0  0  0  0  0  0  0  0  # atno 17370 bound_to 10713
  155.9674  130.4268  150.4714 LP  0  0  0  0  0  0  0  0  0  0  0  0  # atno 17371 bound_to 10713
  140.5362  134.6165  157.5365 LP  0  0  0  0  0  0  0  0  0  0  0  0  # atno 17394 bound_to 11000
  139.9678  134.7343  156.0102 LP  0  0  0  0  0  0  0  0  0  0  0  0  # atno 17395 bound_to 11000

$$$$
