AV-unprocessed.smi:2893|AV-procd|sdf|11124|dock9
  -GOLD-   2272015593D 1   1.00000     0.00000
 Structure written by MMmdl.
 37 39  0  0  0  0  0  0  0  0  1 V2000
  149.5492  134.0807  154.2475 C   0  0  0  0  0  0  0  0  0  0  0  0
  150.0154  134.1528  155.7079 C   0  0  0  0  0  0  0  0  0  0  0  0
  150.3072  135.5228  156.1128 N   0  0  0  0  0  0  0  0  0  0  0  0
  151.4706  135.9470  156.6363 C   0  0  0  0  0  0  0  0  0  0  0  0
  152.4375  135.2062  156.8198 O   0  0  0  0  0  0  0  0  0  0  0  0
  151.5516  137.4164  156.9540 C   0  0  0  0  0  0  0  0  0  0  0  0
  150.4099  138.1050  157.4185 C   0  0  0  0  0  0  0  0  0  0  0  0
  150.5353  139.4789  157.6867 C   0  0  0  0  0  0  0  0  0  0  0  0
  151.7913  140.0767  157.4700 C   0  0  0  0  0  0  0  0  0  0  0  0
  151.9441  141.4454  157.7324 N   0  0  0  0  0  0  0  0  0  0  0  0
  151.1812  142.1055  158.7876 C   0  0  2  0  0  0  0  0  0  0  0  0
  150.3377  143.2752  158.2748 C   0  0  0  0  0  0  0  0  0  0  0  0
  150.7836  144.4161  159.2005 C   0  0  2  0  0  0  0  0  0  0  0  0
  152.1790  144.9320  158.8267 C   0  0  0  0  0  0  0  0  0  0  0  0
  153.0704  143.7869  159.3028 C   0  0  0  0  0  0  0  0  0  0  0  0
  152.0403  142.7939  159.8674 C   0  0  1  0  0  0  0  0  0  0  0  0
  151.0833  143.7013  160.3878 O   0  0  0  0  0  0  0  0  0  0  0  0
  152.8529  139.3633  157.0213 N   0  0  0  0  0  0  0  0  0  0  0  0
  152.7332  138.0567  156.7635 N   0  0  0  0  0  0  0  0  0  0  0  0
  149.2992  133.0562  153.9714 H   0  0  0  0  0  0  0  0  0  0  0  0
  150.3252  134.4264  153.5638 H   0  0  0  0  0  0  0  0  0  0  0  0
  148.6622  134.6939  154.0861 H   0  0  0  0  0  0  0  0  0  0  0  0
  149.2341  133.7650  156.3619 H   0  0  0  0  0  0  0  0  0  0  0  0
  150.8908  133.5194  155.8596 H   0  0  0  0  0  0  0  0  0  0  0  0
  149.5716  136.2043  155.9907 H   0  0  0  0  0  0  0  0  0  0  0  0
  149.4652  137.6027  157.5690 H   0  0  0  0  0  0  0  0  0  0  0  0
  149.6932  140.0521  158.0458 H   0  0  0  0  0  0  0  0  0  0  0  0
  152.7084  141.9483  157.3053 H   0  0  0  0  0  0  0  0  0  0  0  0
  150.5163  141.3804  159.2592 H   0  0  0  0  0  0  0  0  0  0  0  0
  150.5077  143.5140  157.2239 H   0  0  0  0  0  0  0  0  0  0  0  0
  149.2765  143.0604  158.4047 H   0  0  0  0  0  0  0  0  0  0  0  0
  150.0393  145.2032  159.3235 H   0  0  0  0  0  0  0  0  0  0  0  0
  152.2773  145.1310  157.7590 H   0  0  0  0  0  0  0  0  0  0  0  0
  152.4126  145.8488  159.3693 H   0  0  0  0  0  0  0  0  0  0  0  0
  153.6823  143.3636  158.5062 H   0  0  0  0  0  0  0  0  0  0  0  0
  153.7393  144.1324  160.0917 H   0  0  0  0  0  0  0  0  0  0  0  0
  152.4504  142.1100  160.6108 H   0  0  0  0  0  0  0  0  0  0  0  0
  1  2  1  0  0  0  0
  1 20  1  0  0  0  0
  1 21  1  0  0  0  0
  1 22  1  0  0  0  0
  2  3  1  0  0  0  0
  2 23  1  0  0  0  0
  2 24  1  0  0  0  0
  3  4  1  0  0  0  0
  3 25  1  0  0  0  0
  4  5  2  0  0  0  0
  4  6  1  0  0  0  0
  6 19  1  0  0  0  0
  6  7  2  0  0  0  0
  7  8  1  0  0  0  0
  7 26  1  0  0  0  0
  8  9  2  0  0  0  0
  8 27  1  0  0  0  0
  9 10  1  0  0  0  0
  9 18  1  0  0  0  0
 10 11  1  0  0  0  0
 10 28  1  0  0  0  0
 11 16  1  0  0  0  0
 11 12  1  0  0  0  0
 11 29  1  0  0  0  0
 12 13  1  0  0  0  0
 12 30  1  0  0  0  0
 12 31  1  0  0  0  0
 13 17  1  0  0  0  0
 13 14  1  0  0  0  0
 13 32  1  0  0  0  0
 14 15  1  0  0  0  0
 14 33  1  0  0  0  0
 14 34  1  0  0  0  0
 15 16  1  0  0  0  0
 15 35  1  0  0  0  0
 15 36  1  0  0  0  0
 16 17  1  0  0  0  0
 16 37  1  0  0  0  0
 18 19  2  0  0  0  0
M  END
> <s_m_source_file>
AV-unprocessed.smi

> <i_m_source_file_index>
2893

> <i_lp_mmshare_version>
43012

> <i_f3d_flags>
0

> <s_epik_input>
W0NIM11bQ0gyXVtOSF1DKD1PKWMxW2NIXVtjSF1jKG5uMSlbTkhdW0NASF0oW0NIMl1bQ0BASF0yMylbQ0BASF0oTzMpW0NIMl1bQ0gyXTI=

> <s_epik_cmdline>
J2VwaWtfcHl0aG9uJywgJy1waCcsICc3LjAnLCAnLXRuJywgJzgnLCAnLW1hJywgJzIwMCcsICctbWV0YWxfYmluZGluZycsICctaW1hZScsICc8aW5maWxlLm1hZT4nLCAnLW9tYWUnLCAnPG91dGZpbGUubWFlPic=

> <r_lp_tautomer_probability>
1

> <r_epik_Ionization_Penalty>
0.00432031

> <r_epik_Ionization_Penalty_Charging>
0

> <r_epik_Ionization_Penalty_Neutral>
0.00432031

> <r_epik_State_Penalty>
-0

> <r_epik_Charging_Adjusted_Penalty>
0

> <i_epik_Tot_Q>
0

> <i_epik_Tot_abs_Q>
0

> <r_epik_Metal_State_Penalty>
-0

> <b_epik_Metal_Only>
0

> <s_lp_Force_Field>
OPLS_2005

> <r_lp_Energy>
51.9869

> <b_lp_Chiralities_Consistent>
1

> <s_lp_Variant>
AV-unprocessed.smi:2893-3

> <Gold.Version>
5.8.1

> <Gold.Id.Protein>
6NUR|6NUR_protein|mol2

> <Gold.PLP.Fitness>
36.1206

> <Gold.PLP.PLP>
-31.5201

> <Gold.PLP.part.hbond>
-2.5549

> <Gold.PLP.part.metal>
0.0000

> <Gold.PLP.part.buried>
-4.8580

> <Gold.PLP.part.nonpolar>
-23.6898

> <Gold.PLP.part.repulsive>
0.2707

> <Gold.PLP.ligand.clash>
0.0000

> <Gold.PLP.ligand.torsion>
0.7094

> <Gold.PLP.Chemscore.Hbond>
2.0000

> <Gold.PLP.Chemscore.CHOScore>
0.0000

> <Gold.PLP.Chemscore.Metal>
0.0000

> <Gold.Chemscore.Hbonds>
donor molecule, donor type, donor heavy atom, donor atom, acceptor molecule, acceptor atom, score
      P1  H  7997  8008       L1    18  1.00
      P1  H 10752 10764       L1     5  1.00

> <Gold.PLP.Chemscore.Internal.Correction>
0.0193

> <Gold.Rescore>
     Score         DG    S(hbond)    S(metal)    S(lipo)     H(rot)  DE(clash)    DE(int)     intcor
     18.34     -18.72       1.93        0.00      84.43       1.21       0.02       0.36       ----

> <Gold.Chemscore.Fitness>
18.3385

> <Gold.Chemscore.DG>
-18.7200

> <Gold.Chemscore.ZeroCoef>
-5.4800

> <Gold.Chemscore.Hbond>
1.9310

> <Gold.Chemscore.Metal>
0.0000

> <Gold.Chemscore.Lipo>
84.4273

> <Gold.Chemscore.Internal_Hbond>
0.0000

> <Gold.Chemscore.DEClash>
0.0246

> <Gold.Chemscore.DEInternal>
0.3569

> <Gold.Chemscore.Rot>
1.2061

> <Gold.Chemscore.Internal.Correction>
   9.000000E+99

> <Gold.Chemscore.Hbonds>
donor molecule, donor type, donor heavy atom, donor atom, acceptor molecule, acceptor atom, score
      P1  H  7997  8008       L1    18  0.85
      P1  H 10752 10764       L1     5  0.25

> <Gold.Chemscore.Hbond.Weighted>
-6.4496

> <Gold.Chemscore.Metal.Weighted>
-0.0000

> <Gold.Chemscore.Lipo.Weighted>
-9.8780

> <Gold.Chemscore.Internal_Hbond.Weighted>
0.0000

> <Gold.Chemscore.DEClash.Weighted>
0.0246

> <Gold.Chemscore.DEInternal.Weighted>
0.3569

> <Gold.Chemscore.Rot.Weighted>
3.0876

> <Gold.Chemscore.Internal.Correction.Weighted>
   9.000000E+99

> <Gold.Protein.RotatedTorsions>
[ 6907 6896 6895 6894 ] final   27.65 input  -60.11 | X-H torsion
[ 7974 7965 7964 7962 ] final  -42.95 input  175.53 | X-H torsion
[ 8008 7997 7996 7995 ] final  -42.36 input   59.86 | X-H torsion
[ 10167 10162 10161 10158 ] final   60.82 input  -65.29 | X-H torsion
[ 10718 10713 10712 10709 ] final  147.98 input   66.30 | X-H torsion
[ 10763 10752 10751 10750 ] final  -16.73 input  -60.55 | X-H torsion
[ 11005 11000 10999 10996 ] final   37.01 input  -57.11 | X-H torsion

> <Gold.Protein.ActiveResidues>
 VAL166  LYS551  ARG553  GLY616  TRP617  ASP618  TYR619  PRO620  LYS621  CYS622 
 ASP623  PHE694  ASN695  SER759  ASP760  ASP761  ALA762  ILE779  LEU786  VAL792 
 PHE793  MET794  SER795  GLU796  ALA797  LYS798  CYS799  TRP800  GLU811  SER814 

> <Gold.Protein.RotatedAtoms>
  152.0054  134.9905  160.0566 H   0  0  0  0  0  0  0  0  0  0  0  0  # atno 6907 bound_to 6896
  152.1479  133.4499  159.4807 H   0  0  0  0  0  0  0  0  0  0  0  0  # atno 6908 bound_to 6896
  150.6872  134.2143  159.4414 H   0  0  0  0  0  0  0  0  0  0  0  0  # atno 6909 bound_to 6896
  146.0067  140.7012  142.9244 H   0  0  0  0  0  0  0  0  0  0  0  0  # atno 7974 bound_to 7965
  154.3999  140.1475  156.3343 H   0  0  0  0  0  0  0  0  0  0  0  0  # atno 8008 bound_to 7997
  155.8415  140.3462  155.5614 H   0  0  0  0  0  0  0  0  0  0  0  0  # atno 8009 bound_to 7997
  155.8082  140.0880  157.1909 H   0  0  0  0  0  0  0  0  0  0  0  0  # atno 8010 bound_to 7997
  140.1614  144.4366  150.6707 H   0  0  0  0  0  0  0  0  0  0  0  0  # atno 10167 bound_to 10162
  157.3142  131.0893  151.1292 H   0  0  0  0  0  0  0  0  0  0  0  0  # atno 10718 bound_to 10713
  153.5630  135.7009  153.5539 H   0  0  0  0  0  0  0  0  0  0  0  0  # atno 10763 bound_to 10752
  153.3412  135.4020  155.1573 H   0  0  0  0  0  0  0  0  0  0  0  0  # atno 10764 bound_to 10752
  154.8645  135.3742  154.5148 H   0  0  0  0  0  0  0  0  0  0  0  0  # atno 10765 bound_to 10752
  140.2268  134.3575  155.7981 H   0  0  0  0  0  0  0  0  0  0  0  0  # atno 11005 bound_to 11000
  144.6938  140.3326  143.7213 LP  0  0  0  0  0  0  0  0  0  0  0  0  # atno 17320 bound_to 7965
  145.7405  139.1763  143.2378 LP  0  0  0  0  0  0  0  0  0  0  0  0  # atno 17321 bound_to 7965
  140.6640  143.2261  151.5787 LP  0  0  0  0  0  0  0  0  0  0  0  0  # atno 17342 bound_to 10162
  139.5379  144.2729  152.1290 LP  0  0  0  0  0  0  0  0  0  0  0  0  # atno 17343 bound_to 10162
  157.2602  130.6655  149.5971 LP  0  0  0  0  0  0  0  0  0  0  0  0  # atno 17370 bound_to 10713
  155.9680  130.4511  150.5722 LP  0  0  0  0  0  0  0  0  0  0  0  0  # atno 17371 bound_to 10713
  141.2220  133.7223  156.8666 LP  0  0  0  0  0  0  0  0  0  0  0  0  # atno 17394 bound_to 11000
  140.1792  134.9045  157.2928 LP  0  0  0  0  0  0  0  0  0  0  0  0  # atno 17395 bound_to 11000

$$$$
