AV-unprocessed.smi:547|AV-procd|sdf|2889|dock6
  -GOLD-   2262023383D 1   1.00000     0.00000
 Structure written by MMmdl.
 37 38  0  0  0  0  0  0  0  0  1 V2000
  151.5478  136.7454  159.7032 O   0  0  0  0  0  0  0  0  0  0  0  0
  150.7398  137.4039  159.0479 C   0  0  0  0  0  0  0  0  0  0  0  0
  149.3372  136.8433  158.7658 C   0  0  0  0  0  0  0  0  0  0  0  0
  148.7920  135.8929  159.7629 N   0  0  0  0  0  0  0  0  0  0  0  0
  148.2569  136.4332  160.9274 N   0  0  0  0  0  0  0  0  0  0  0  0
  147.7557  135.6563  161.8238 C   0  0  0  0  0  0  0  0  0  0  0  0
  147.7313  134.2200  161.6687 C   0  0  0  0  0  0  0  0  0  0  0  0
  147.0447  133.2263  162.9051 Cl  0  0  0  0  0  0  0  0  0  0  0  0
  148.2622  133.6967  160.5356 C   0  0  0  0  0  0  0  0  0  0  0  0
  148.2734  131.9851  160.2813 Cl  0  0  0  0  0  0  0  0  0  0  0  0
  148.8431  134.5529  159.4913 C   0  0  0  0  0  0  0  0  0  0  0  0
  149.3378  134.1091  158.4541 O   0  0  0  0  0  0  0  0  0  0  0  0
  151.0068  138.6203  158.5492 N   0  0  0  0  0  0  0  0  0  0  0  0
  152.2332  139.3740  158.7864 C   0  0  0  0  0  0  0  0  0  0  0  0
  151.9572  140.8350  159.2078 C   0  0  0  0  0  0  0  0  0  0  0  0
  151.4160  141.7006  158.0471 C   0  0  0  0  0  0  0  0  0  0  0  0
  151.1541  143.1474  158.4947 C   0  0  0  0  0  0  0  0  0  0  0  0
  152.4167  143.7808  159.0976 C   0  0  0  0  0  0  0  0  0  0  0  0
  152.9607  142.9311  160.2560 C   0  0  0  0  0  0  0  0  0  0  0  0
  153.2202  141.4823  159.8109 C   0  0  0  0  0  0  0  0  0  0  0  0
  148.6541  137.6878  158.6527 H   0  0  0  0  0  0  0  0  0  0  0  0
  149.3652  136.3455  157.7952 H   0  0  0  0  0  0  0  0  0  0  0  0
  147.3233  136.0411  162.7474 H   0  0  0  0  0  0  0  0  0  0  0  0
  150.2870  139.0791  158.0100 H   0  0  0  0  0  0  0  0  0  0  0  0
  152.8323  138.8662  159.5442 H   0  0  0  0  0  0  0  0  0  0  0  0
  152.8203  139.3566  157.8678 H   0  0  0  0  0  0  0  0  0  0  0  0
  151.1964  140.8196  159.9899 H   0  0  0  0  0  0  0  0  0  0  0  0
  152.1290  141.6973  157.2214 H   0  0  0  0  0  0  0  0  0  0  0  0
  150.4890  141.2813  157.6553 H   0  0  0  0  0  0  0  0  0  0  0  0
  150.8071  143.7415  157.6489 H   0  0  0  0  0  0  0  0  0  0  0  0
  150.3499  143.1608  159.2319 H   0  0  0  0  0  0  0  0  0  0  0  0
  153.1808  143.8797  158.3257 H   0  0  0  0  0  0  0  0  0  0  0  0
  152.1970  144.7902  159.4466 H   0  0  0  0  0  0  0  0  0  0  0  0
  153.8809  143.3721  160.6400 H   0  0  0  0  0  0  0  0  0  0  0  0
  152.2473  142.9379  161.0811 H   0  0  0  0  0  0  0  0  0  0  0  0
  153.5679  140.8974  160.6634 H   0  0  0  0  0  0  0  0  0  0  0  0
  154.0279  141.4677  159.0777 H   0  0  0  0  0  0  0  0  0  0  0  0
  1  2  2  0  0  0  0
  2  3  1  0  0  0  0
  2 13  1  0  0  0  0
  3  4  1  0  0  0  0
  3 21  1  0  0  0  0
  3 22  1  0  0  0  0
  4 11  1  0  0  0  0
  4  5  1  0  0  0  0
  5  6  2  0  0  0  0
  6  7  1  0  0  0  0
  6 23  1  0  0  0  0
  7  8  1  0  0  0  0
  7  9  2  0  0  0  0
  9 10  1  0  0  0  0
  9 11  1  0  0  0  0
 11 12  2  0  0  0  0
 13 14  1  0  0  0  0
 13 24  1  0  0  0  0
 14 15  1  0  0  0  0
 14 25  1  0  0  0  0
 14 26  1  0  0  0  0
 15 20  1  0  0  0  0
 15 16  1  0  0  0  0
 15 27  1  0  0  0  0
 16 17  1  0  0  0  0
 16 28  1  0  0  0  0
 16 29  1  0  0  0  0
 17 18  1  0  0  0  0
 17 30  1  0  0  0  0
 17 31  1  0  0  0  0
 18 19  1  0  0  0  0
 18 32  1  0  0  0  0
 18 33  1  0  0  0  0
 19 20  1  0  0  0  0
 19 34  1  0  0  0  0
 19 35  1  0  0  0  0
 20 36  1  0  0  0  0
 20 37  1  0  0  0  0
M  END
> <s_m_source_file>
AV-unprocessed.smi

> <i_m_source_file_index>
547

> <i_lp_mmshare_version>
43012

> <i_f3d_flags>
0

> <s_epik_input>
W0NIMl0xW0NIMl1bQ0gyXVtDSDJdW0NIMl1bQ0hdMVtDSDJdW05IXUMoPU8pW0NIMl1uMm5bY0hdYyhDbCljKENsKWMyPU8=

> <s_epik_cmdline>
J2VwaWtfcHl0aG9uJywgJy1waCcsICc3LjAnLCAnLXRuJywgJzgnLCAnLW1hJywgJzIwMCcsICctbWV0YWxfYmluZGluZycsICctaW1hZScsICc8aW5maWxlLm1hZT4nLCAnLW9tYWUnLCAnPG91dGZpbGUubWFlPic=

> <r_lp_tautomer_probability>
1

> <r_epik_Ionization_Penalty>
1.98263e-08

> <r_epik_Ionization_Penalty_Charging>
2.84997e-11

> <r_epik_Ionization_Penalty_Neutral>
1.97978e-08

> <r_epik_State_Penalty>
-0

> <r_epik_Charging_Adjusted_Penalty>
2.84997e-11

> <i_epik_Tot_Q>
0

> <i_epik_Tot_abs_Q>
0

> <r_epik_Metal_State_Penalty>
-0

> <b_epik_Metal_Only>
0

> <s_lp_Force_Field>
OPLS_2005

> <r_lp_Energy>
30.5704

> <b_lp_Chiralities_Consistent>
1

> <s_lp_Variant>
AV-unprocessed.smi:547-1

> <Gold.Version>
5.8.1

> <Gold.Id.Protein>
6NUR|6NUR_protein|mol2

> <Gold.PLP.Fitness>
50.5656

> <Gold.PLP.PLP>
-41.0693

> <Gold.PLP.part.hbond>
-4.0000

> <Gold.PLP.part.metal>
0.0000

> <Gold.PLP.part.buried>
-3.5583

> <Gold.PLP.part.nonpolar>
-34.7458

> <Gold.PLP.part.repulsive>
0.1143

> <Gold.PLP.ligand.clash>
0.0000

> <Gold.PLP.ligand.torsion>
0.7879

> <Gold.PLP.Chemscore.Hbond>
3.6868

> <Gold.PLP.Chemscore.CHOScore>
0.0000

> <Gold.PLP.Chemscore.Metal>
0.0000

> <Gold.Chemscore.Hbonds>
donor molecule, donor type, donor heavy atom, donor atom, acceptor molecule, acceptor atom, score
      P1  H  6896  6907       L1    12  0.30
      P1  H  6896  6908       L1     1  1.00
      P1  H  6931  6943       L1     5  0.57

> <Gold.PLP.Chemscore.Internal.Correction>
0.0118

> <Gold.Rescore>
     Score         DG    S(hbond)    S(metal)    S(lipo)     H(rot)  DE(clash)    DE(int)     intcor
     20.81     -22.90       2.79        0.00     106.63       1.71       1.31       0.78       ----

> <Gold.Chemscore.Fitness>
20.8075

> <Gold.Chemscore.DG>
-22.9005

> <Gold.Chemscore.ZeroCoef>
-5.4800

> <Gold.Chemscore.Hbond>
2.7910

> <Gold.Chemscore.Metal>
0.0000

> <Gold.Chemscore.Lipo>
106.6329

> <Gold.Chemscore.Internal_Hbond>
0.0000

> <Gold.Chemscore.DEClash>
1.3098

> <Gold.Chemscore.DEInternal>
0.7832

> <Gold.Chemscore.Rot>
1.7099

> <Gold.Chemscore.Internal.Correction>
   9.000000E+99

> <Gold.Chemscore.Hbonds>
donor molecule, donor type, donor heavy atom, donor atom, acceptor molecule, acceptor atom, score
      P1  H  6896  6908       L1     1  0.98
      P1  H  6931  6943       L1     5  0.40

> <Gold.Chemscore.Hbond.Weighted>
-9.3218

> <Gold.Chemscore.Metal.Weighted>
-0.0000

> <Gold.Chemscore.Lipo.Weighted>
-12.4760

> <Gold.Chemscore.Internal_Hbond.Weighted>
0.0000

> <Gold.Chemscore.DEClash.Weighted>
1.3098

> <Gold.Chemscore.DEInternal.Weighted>
0.7832

> <Gold.Chemscore.Rot.Weighted>
4.3774

> <Gold.Chemscore.Internal.Correction.Weighted>
   9.000000E+99

> <Gold.Protein.RotatedTorsions>
[ 6907 6896 6895 6894 ] final -109.90 input  -60.11 | X-H torsion
[ 7974 7965 7964 7962 ] final   99.15 input  175.53 | X-H torsion
[ 8008 7997 7996 7995 ] final  137.78 input   59.86 | X-H torsion
[ 10167 10162 10161 10158 ] final -163.41 input  -65.29 | X-H torsion
[ 10718 10713 10712 10709 ] final  177.06 input   66.30 | X-H torsion
[ 10763 10752 10751 10750 ] final  178.95 input  -60.55 | X-H torsion
[ 11005 11000 10999 10996 ] final -142.05 input  -57.11 | X-H torsion

> <Gold.Protein.ActiveResidues>
 VAL166  LYS551  ARG553  GLY616  TRP617  ASP618  TYR619  PRO620  LYS621  CYS622 
 ASP623  PHE694  ASN695  SER759  ASP760  ASP761  ALA762  ILE779  LEU786  VAL792 
 PHE793  MET794  SER795  GLU796  ALA797  LYS798  CYS799  TRP800  GLU811  SER814 

> <Gold.Protein.RotatedAtoms>
  150.7590  133.9462  159.3471 H   0  0  0  0  0  0  0  0  0  0  0  0  # atno 6907 bound_to 6896
  151.7375  135.0859  160.0319 H   0  0  0  0  0  0  0  0  0  0  0  0  # atno 6908 bound_to 6896
  152.3550  133.6189  159.6008 H   0  0  0  0  0  0  0  0  0  0  0  0  # atno 6909 bound_to 6896
  145.4027  139.2345  143.3291 H   0  0  0  0  0  0  0  0  0  0  0  0  # atno 7974 bound_to 7965
  156.3001  140.2410  156.3965 H   0  0  0  0  0  0  0  0  0  0  0  0  # atno 8008 bound_to 7997
  154.8566  140.0422  157.1658 H   0  0  0  0  0  0  0  0  0  0  0  0  # atno 8009 bound_to 7997
  154.8942  140.2967  155.5357 H   0  0  0  0  0  0  0  0  0  0  0  0  # atno 8010 bound_to 7997
  139.6323  144.0417  152.2025 H   0  0  0  0  0  0  0  0  0  0  0  0  # atno 10167 bound_to 10162
  156.9110  130.9910  151.3020 H   0  0  0  0  0  0  0  0  0  0  0  0  # atno 10718 bound_to 10713
  154.5143  135.2790  155.1316 H   0  0  0  0  0  0  0  0  0  0  0  0  # atno 10763 bound_to 10752
  154.2899  135.6269  153.5384 H   0  0  0  0  0  0  0  0  0  0  0  0  # atno 10764 bound_to 10752
  152.9924  135.5671  154.5616 H   0  0  0  0  0  0  0  0  0  0  0  0  # atno 10765 bound_to 10752
  140.8264  134.2569  157.4877 H   0  0  0  0  0  0  0  0  0  0  0  0  # atno 11005 bound_to 11000
  146.2744  140.4727  142.8801 LP  0  0  0  0  0  0  0  0  0  0  0  0  # atno 17320 bound_to 7965
  144.8363  140.6786  143.6258 LP  0  0  0  0  0  0  0  0  0  0  0  0  # atno 17321 bound_to 7965
  140.0085  144.6241  150.7668 LP  0  0  0  0  0  0  0  0  0  0  0  0  # atno 17342 bound_to 10162
  140.7446  143.2863  151.3456 LP  0  0  0  0  0  0  0  0  0  0  0  0  # atno 17343 bound_to 10162
  157.5967  130.8483  149.8740 LP  0  0  0  0  0  0  0  0  0  0  0  0  # atno 17370 bound_to 10713
  156.0536  130.3713  150.1143 LP  0  0  0  0  0  0  0  0  0  0  0  0  # atno 17371 bound_to 10713
  139.8706  134.9563  156.4232 LP  0  0  0  0  0  0  0  0  0  0  0  0  # atno 17394 bound_to 11000
  140.9045  133.7756  155.9718 LP  0  0  0  0  0  0  0  0  0  0  0  0  # atno 17395 bound_to 11000

$$$$
