AV-unprocessed.smi:72|AV-procd|sdf|750|dock7
  -GOLD-   2262017 83D 1   1.00000     0.00000
 Structure written by MMmdl.
 29 30  0  0  0  0  0  0  0  0  1 V2000
  150.6646  133.7676  155.5592 N   0  0  0  0  0  0  0  0  0  0  0  0
  150.1941  135.0621  155.6293 C   0  0  0  0  0  0  0  0  0  0  0  0
  151.1477  136.0810  155.4952 N   0  0  0  0  0  0  0  0  0  0  0  0
  150.7095  137.2979  155.5670 C   0  0  0  0  0  0  0  0  0  0  0  0
  149.3019  137.5806  155.7842 N   0  0  0  0  0  0  0  0  0  0  0  0
  148.7915  139.0042  155.8654 C   0  0  1  0  0  0  0  0  0  0  0  0
  149.5724  139.7086  156.7789 O   0  0  0  0  0  0  0  0  0  0  0  0
  149.6107  141.0713  156.3854 C   0  0  1  0  0  0  0  0  0  0  0  0
  150.8156  141.7683  157.0349 C   0  0  0  0  0  0  0  0  0  0  0  0
  150.9654  143.0676  156.5042 O   0  0  0  0  0  0  0  0  0  0  0  0
  149.7062  140.9782  154.8583 C   0  0  2  0  0  0  0  0  0  0  0  0
  149.1800  142.1479  154.2633 O   0  0  0  0  0  0  0  0  0  0  0  0
  148.8452  139.7639  154.5196 C   0  0  1  0  0  0  0  0  0  0  0  0
  149.4141  139.0293  153.4505 O   0  0  0  0  0  0  0  0  0  0  0  0
  148.3858  136.4989  155.8905 C   0  0  0  0  0  0  0  0  0  0  0  0
  147.1831  136.7161  156.0373 O   0  0  0  0  0  0  0  0  0  0  0  0
  148.9122  135.2040  155.8109 N   0  0  0  0  0  0  0  0  0  0  0  0
  147.7817  138.9546  156.2756 H   0  0  0  0  0  0  0  0  0  0  0  0
  148.6719  141.5508  156.6719 H   0  0  0  0  0  0  0  0  0  0  0  0
  150.7426  140.8216  154.5532 H   0  0  0  0  0  0  0  0  0  0  0  0
  147.8246  140.0505  154.2609 H   0  0  0  0  0  0  0  0  0  0  0  0
  150.0711  132.9551  155.6408 H   0  0  0  0  0  0  0  0  0  0  0  0
  151.6378  133.5361  155.4221 H   0  0  0  0  0  0  0  0  0  0  0  0
  151.3526  138.1734  155.4652 H   0  0  0  0  0  0  0  0  0  0  0  0
  150.7144  141.8086  158.1198 H   0  0  0  0  0  0  0  0  0  0  0  0
  151.7308  141.2180  156.8149 H   0  0  0  0  0  0  0  0  0  0  0  0
  150.1060  143.4436  156.3885 H   0  0  0  0  0  0  0  0  0  0  0  0
  149.3030  142.8697  154.8606 H   0  0  0  0  0  0  0  0  0  0  0  0
  149.1714  139.4462  152.6379 H   0  0  0  0  0  0  0  0  0  0  0  0
  1  2  1  0  0  0  0
  1 22  1  0  0  0  0
  1 23  1  0  0  0  0
  2 17  2  0  0  0  0
  2  3  1  0  0  0  0
  3  4  2  0  0  0  0
  4  5  1  0  0  0  0
  4 24  1  0  0  0  0
  5  6  1  0  0  0  0
  5 15  1  0  0  0  0
  6 18  1  0  0  0  0
  6 13  1  0  0  0  0
  6  7  1  0  0  0  0
  7  8  1  0  0  0  0
  8 19  1  0  0  0  0
  8  9  1  0  0  0  0
  8 11  1  0  0  0  0
  9 10  1  0  0  0  0
  9 25  1  0  0  0  0
  9 26  1  0  0  0  0
 10 27  1  0  0  0  0
 11 20  1  0  0  0  0
 11 12  1  0  0  0  0
 11 13  1  0  0  0  0
 12 28  1  0  0  0  0
 13 21  1  0  0  0  0
 13 14  1  0  0  0  0
 14 29  1  0  0  0  0
 15 16  2  0  0  0  0
 15 17  1  0  0  0  0
M  END
> <s_m_source_file>
AV-unprocessed.smi

> <i_m_source_file_index>
72

> <i_lp_mmshare_version>
43012

> <i_f3d_flags>
0

> <s_epik_input>
W05IMl1jMW5bY0hdbihjKD1PKW4xKVtDQEBIXTJPW0NASF0oW0NIMl1bT0hdKVtDQEBIXShbT0hdKVtDQEhdMltPSF0=

> <s_epik_cmdline>
J2VwaWtfcHl0aG9uJywgJy1waCcsICc3LjAnLCAnLXRuJywgJzgnLCAnLW1hJywgJzIwMCcsICctbWV0YWxfYmluZGluZycsICctaW1hZScsICc8aW5maWxlLm1hZT4nLCAnLW9tYWUnLCAnPG91dGZpbGUubWFlPic=

> <r_lp_tautomer_probability>
4.77166e-05

> <r_epik_Ionization_Penalty>
1.3546

> <r_epik_Ionization_Penalty_Charging>
1.46833e-10

> <r_epik_Ionization_Penalty_Neutral>
1.3546

> <r_epik_State_Penalty>
3.51908

> <r_epik_Charging_Adjusted_Penalty>
3.51908

> <i_epik_Tot_Q>
0

> <i_epik_Tot_abs_Q>
0

> <r_epik_Metal_State_Penalty>
3.44088

> <b_epik_Metal_Only>
1

> <s_epik_Chemistry_Notes>
This compound contains an acetal/aminal-like group ( X-CH(R)-Y where X, Y are N, S, or O) that may be acid/base labile, releasing an aldehyde.

> <s_lp_Force_Field>
OPLS_2005

> <r_lp_Energy>
31.5358

> <b_lp_Chiralities_Consistent>
1

> <s_lp_Variant>
AV-unprocessed.smi:72-88

> <Gold.Version>
5.8.1

> <Gold.Id.Protein>
6NUR|6NUR_protein|mol2

> <Gold.PLP.Fitness>
31.6903

> <Gold.PLP.PLP>
-19.0119

> <Gold.PLP.part.hbond>
-5.5800

> <Gold.PLP.part.metal>
0.0000

> <Gold.PLP.part.buried>
-2.0336

> <Gold.PLP.part.nonpolar>
-10.9109

> <Gold.PLP.part.repulsive>
0.2683

> <Gold.PLP.ligand.clash>
0.0000

> <Gold.PLP.ligand.torsion>
0.2114

> <Gold.PLP.Chemscore.Hbond>
4.2877

> <Gold.PLP.Chemscore.CHOScore>
0.0000

> <Gold.PLP.Chemscore.Metal>
0.0000

> <Gold.Chemscore.Hbonds>
donor molecule, donor type, donor heavy atom, donor atom, acceptor molecule, acceptor atom, score
      L1  H    10    27       P1  8028  1.00
      L1  H    12    28       P1  8028  0.96
      L1  H    14    29       P1  7957  0.99
      P1  H  8011  8017       L1    12  0.30
      P1  H 10752 10765       L1     3  0.98

> <Gold.PLP.Chemscore.Internal.Correction>
0.2382

> <Gold.Rescore>
     Score         DG    S(hbond)    S(metal)    S(lipo)     H(rot)  DE(clash)    DE(int)     intcor
     10.05     -11.49       4.04        0.00      24.88       4.06       0.08       1.37       ----

> <Gold.Chemscore.Fitness>
10.0505

> <Gold.Chemscore.DG>
-11.4942

> <Gold.Chemscore.ZeroCoef>
-5.4800

> <Gold.Chemscore.Hbond>
4.0410

> <Gold.Chemscore.Metal>
0.0000

> <Gold.Chemscore.Lipo>
24.8775

> <Gold.Chemscore.Internal_Hbond>
0.0000

> <Gold.Chemscore.DEClash>
0.0778

> <Gold.Chemscore.DEInternal>
1.3659

> <Gold.Chemscore.Rot>
4.0600

> <Gold.Chemscore.Internal.Correction>
   9.000000E+99

> <Gold.Chemscore.Hbonds>
donor molecule, donor type, donor heavy atom, donor atom, acceptor molecule, acceptor atom, score
      L1  H    10    27       P1  8028  0.97
      L1  H    12    28       P1  8028  0.89
      L1  H    14    29       P1  7957  0.93
      P1  H  8011  8017       L1    12  0.23
      P1  H 10752 10765       L1     3  0.86

> <Gold.Chemscore.Hbond.Weighted>
-13.4971

> <Gold.Chemscore.Metal.Weighted>
-0.0000

> <Gold.Chemscore.Lipo.Weighted>
-2.9107

> <Gold.Chemscore.Internal_Hbond.Weighted>
0.0000

> <Gold.Chemscore.DEClash.Weighted>
0.0778

> <Gold.Chemscore.DEInternal.Weighted>
1.3659

> <Gold.Chemscore.Rot.Weighted>
10.3936

> <Gold.Chemscore.Internal.Correction.Weighted>
   9.000000E+99

> <Gold.Protein.RotatedTorsions>
[ 6907 6896 6895 6894 ] final   38.96 input  -60.11 | X-H torsion
[ 7974 7965 7964 7962 ] final  154.11 input  175.53 | X-H torsion
[ 8008 7997 7996 7995 ] final  -39.22 input   59.86 | X-H torsion
[ 10167 10162 10161 10158 ] final -117.42 input  -65.29 | X-H torsion
[ 10718 10713 10712 10709 ] final   10.96 input   66.30 | X-H torsion
[ 10763 10752 10751 10750 ] final -167.81 input  -60.55 | X-H torsion
[ 11005 11000 10999 10996 ] final  166.12 input  -57.11 | X-H torsion

> <Gold.Protein.ActiveResidues>
 VAL166  LYS551  ARG553  GLY616  TRP617  ASP618  TYR619  PRO620  LYS621  CYS622 
 ASP623  PHE694  ASN695  SER759  ASP760  ASP761  ALA762  ILE779  LEU786  VAL792 
 PHE793  MET794  SER795  GLU796  ALA797  LYS798  CYS799  TRP800  GLU811  SER814 

> <Gold.Protein.RotatedAtoms>
  152.1633  134.8894  160.0539 H   0  0  0  0  0  0  0  0  0  0  0  0  # atno 6907 bound_to 6896
  151.9882  133.3776  159.4142 H   0  0  0  0  0  0  0  0  0  0  0  0  # atno 6908 bound_to 6896
  150.6891  134.3888  159.5111 H   0  0  0  0  0  0  0  0  0  0  0  0  # atno 6909 bound_to 6896
  144.8110  139.6889  143.6141 H   0  0  0  0  0  0  0  0  0  0  0  0  # atno 7974 bound_to 7965
  154.4026  140.1557  156.2828 H   0  0  0  0  0  0  0  0  0  0  0  0  # atno 8008 bound_to 7997
  155.8854  140.3441  155.5896 H   0  0  0  0  0  0  0  0  0  0  0  0  # atno 8009 bound_to 7997
  155.7619  140.0818  157.2141 H   0  0  0  0  0  0  0  0  0  0  0  0  # atno 8010 bound_to 7997
  140.0685  143.4900  152.1993 H   0  0  0  0  0  0  0  0  0  0  0  0  # atno 10167 bound_to 10162
  156.9885  130.6033  149.5683 H   0  0  0  0  0  0  0  0  0  0  0  0  # atno 10718 bound_to 10713
  154.6693  135.2937  154.9763 H   0  0  0  0  0  0  0  0  0  0  0  0  # atno 10763 bound_to 10752
  154.0795  135.6606  153.4840 H   0  0  0  0  0  0  0  0  0  0  0  0  # atno 10764 bound_to 10752
  153.0477  135.5194  154.7682 H   0  0  0  0  0  0  0  0  0  0  0  0  # atno 10765 bound_to 10752
  140.2632  134.7886  157.3609 H   0  0  0  0  0  0  0  0  0  0  0  0  # atno 11005 bound_to 11000
  146.2409  139.5999  142.9492 LP  0  0  0  0  0  0  0  0  0  0  0  0  # atno 17320 bound_to 7965
  145.5323  141.0426  143.2376 LP  0  0  0  0  0  0  0  0  0  0  0  0  # atno 17321 bound_to 7965
  139.5850  144.7527  151.3542 LP  0  0  0  0  0  0  0  0  0  0  0  0  # atno 17342 bound_to 10162
  140.7137  143.7323  150.7615 LP  0  0  0  0  0  0  0  0  0  0  0  0  # atno 17343 bound_to 10162
  156.0216  130.5311  150.8292 LP  0  0  0  0  0  0  0  0  0  0  0  0  # atno 17370 bound_to 10713
  157.5475  131.0943  150.9742 LP  0  0  0  0  0  0  0  0  0  0  0  0  # atno 17371 bound_to 10713
  140.1445  134.4929  155.8007 LP  0  0  0  0  0  0  0  0  0  0  0  0  # atno 17394 bound_to 11000
  141.2187  133.6838  156.7268 LP  0  0  0  0  0  0  0  0  0  0  0  0  # atno 17395 bound_to 11000

$$$$
