AV-unprocessed.smi:1401|AV-procd|sdf|5688|dock6
  -GOLD-   22720 5313D 1   1.00000     0.00000
 Structure written by MMmdl.
 48 50  0  0  0  0  0  0  0  0  1 V2000
  148.8936  138.7931  154.8699 C   0  0  0  0  0  0  0  0  0  0  0  0
  149.5760  138.3930  156.1501 C   0  0  0  0  0  0  0  0  0  0  0  0
  148.9997  137.4733  156.8514 N   0  0  0  0  0  0  0  0  0  0  0  0
  149.5481  137.0206  158.0364 N   0  0  0  0  0  0  0  0  0  0  0  0
  148.7889  135.9245  158.6624 C   0  0  0  0  0  0  0  0  0  0  0  0
  147.9758  136.3402  159.9015 C   0  0  0  0  0  0  0  0  0  0  0  0
  147.8119  137.5360  160.1397 O   0  0  0  0  0  0  0  0  0  0  0  0
  147.4580  135.3652  160.6678 N   0  0  0  0  0  0  0  0  0  0  0  0
  146.5879  135.5401  161.8253 C   0  0  2  0  0  0  0  0  0  0  0  0
  147.3773  135.2879  163.1214 C   0  0  0  0  0  0  0  0  0  0  0  0
  145.3780  134.5870  161.6791 C   0  0  2  0  0  0  0  0  0  0  0  0
  144.5879  134.7326  160.3572 C   0  0  0  0  0  0  0  0  0  0  0  0
  143.1266  134.8151  160.8357 C   0  0  2  0  0  0  0  0  0  0  0  0
  142.8809  136.2013  161.4585 C   0  0  0  0  0  0  0  0  0  0  0  0
  143.6442  136.1117  162.7927 C   0  0  0  0  0  0  0  0  0  0  0  0
  144.2582  134.6972  162.7432 C   0  0  1  0  0  0  0  0  0  0  0  0
  143.1366  133.9150  162.0662 C   0  0  0  0  0  0  0  0  0  0  0  0
  150.7119  137.4819  158.5789 C   0  0  0  0  0  0  0  0  0  0  0  0
  151.1769  137.0352  159.6282 O   0  0  0  0  0  0  0  0  0  0  0  0
  151.3529  138.5330  157.7852 C   0  0  0  0  0  0  0  0  0  0  0  0
  152.5744  139.0448  158.3175 C   0  0  0  0  0  0  0  0  0  0  0  0
  153.5749  139.4420  158.7431 N   0  0  0  0  0  0  0  0  0  0  0  0
  150.8261  138.9819  156.6185 C   0  0  0  0  0  0  0  0  0  0  0  0
  151.4579  140.0628  155.7522 C   0  0  0  0  0  0  0  0  0  0  0  0
  148.6014  139.8429  154.8990 H   0  0  0  0  0  0  0  0  0  0  0  0
  147.9926  138.2053  154.6881 H   0  0  0  0  0  0  0  0  0  0  0  0
  149.5562  138.6483  154.0166 H   0  0  0  0  0  0  0  0  0  0  0  0
  148.1133  135.4578  157.9437 H   0  0  0  0  0  0  0  0  0  0  0  0
  149.4774  135.1323  158.9619 H   0  0  0  0  0  0  0  0  0  0  0  0
  147.6512  134.4123  160.3959 H   0  0  0  0  0  0  0  0  0  0  0  0
  146.2359  136.5719  161.8227 H   0  0  0  0  0  0  0  0  0  0  0  0
  146.7550  135.4517  164.0011 H   0  0  0  0  0  0  0  0  0  0  0  0
  148.2319  135.9601  163.2028 H   0  0  0  0  0  0  0  0  0  0  0  0
  147.7537  134.2654  163.1644 H   0  0  0  0  0  0  0  0  0  0  0  0
  145.7625  133.5659  161.7220 H   0  0  0  0  0  0  0  0  0  0  0  0
  144.8722  135.6153  159.7827 H   0  0  0  0  0  0  0  0  0  0  0  0
  144.7462  133.8613  159.7201 H   0  0  0  0  0  0  0  0  0  0  0  0
  142.3992  134.5449  160.0695 H   0  0  0  0  0  0  0  0  0  0  0  0
  143.2444  137.0110  160.8246 H   0  0  0  0  0  0  0  0  0  0  0  0
  141.8175  136.3667  161.6356 H   0  0  0  0  0  0  0  0  0  0  0  0
  144.3818  136.9037  162.9138 H   0  0  0  0  0  0  0  0  0  0  0  0
  142.9479  136.1922  163.6285 H   0  0  0  0  0  0  0  0  0  0  0  0
  144.5456  134.3121  163.7220 H   0  0  0  0  0  0  0  0  0  0  0  0
  142.1978  133.9322  162.6229 H   0  0  0  0  0  0  0  0  0  0  0  0
  143.3998  132.8795  161.8431 H   0  0  0  0  0  0  0  0  0  0  0  0
  152.3573  140.4804  156.2031 H   0  0  0  0  0  0  0  0  0  0  0  0
  150.7608  140.8863  155.5952 H   0  0  0  0  0  0  0  0  0  0  0  0
  151.7357  139.6569  154.7791 H   0  0  0  0  0  0  0  0  0  0  0  0
  1  2  1  0  0  0  0
  1 25  1  0  0  0  0
  1 26  1  0  0  0  0
  1 27  1  0  0  0  0
  2 23  1  0  0  0  0
  2  3  2  0  0  0  0
  3  4  1  0  0  0  0
  4  5  1  0  0  0  0
  4 18  1  0  0  0  0
  5  6  1  0  0  0  0
  5 28  1  0  0  0  0
  5 29  1  0  0  0  0
  6  7  2  0  0  0  0
  6  8  1  0  0  0  0
  8  9  1  0  0  0  0
  8 30  1  0  0  0  0
  9 10  1  0  0  0  0
  9 11  1  0  0  0  0
  9 31  1  0  0  0  0
 10 32  1  0  0  0  0
 10 33  1  0  0  0  0
 10 34  1  0  0  0  0
 11 16  1  0  0  0  0
 11 12  1  0  0  0  0
 11 35  1  0  0  0  0
 12 13  1  0  0  0  0
 12 36  1  0  0  0  0
 12 37  1  0  0  0  0
 13 17  1  0  0  0  0
 13 14  1  0  0  0  0
 13 38  1  0  0  0  0
 14 15  1  0  0  0  0
 14 39  1  0  0  0  0
 14 40  1  0  0  0  0
 15 16  1  0  0  0  0
 15 41  1  0  0  0  0
 15 42  1  0  0  0  0
 16 17  1  0  0  0  0
 16 43  1  0  0  0  0
 17 44  1  0  0  0  0
 17 45  1  0  0  0  0
 18 19  2  0  0  0  0
 18 20  1  0  0  0  0
 20 21  1  0  0  0  0
 20 23  2  0  0  0  0
 21 22  3  0  0  0  0
 23 24  1  0  0  0  0
 24 46  1  0  0  0  0
 24 47  1  0  0  0  0
 24 48  1  0  0  0  0
M  END
> <s_m_source_file>
AV-unprocessed.smi

> <i_m_source_file_index>
1401

> <i_lp_mmshare_version>
43012

> <i_f3d_flags>
0

> <s_epik_input>
TiNDYyhjMVtDSDNdKWMoPU8pbihuYzFbQ0gzXSlbQ0gyXUMoPU8pW05IXVtDQEhdKFtDSDNdKVtDQEhdKFtDSDJdW0NASF0yMylbQ0BIXShbQ0gyXTMpW0NIMl1bQ0gyXTI=

> <s_epik_cmdline>
J2VwaWtfcHl0aG9uJywgJy1waCcsICc3LjAnLCAnLXRuJywgJzgnLCAnLW1hJywgJzIwMCcsICctbWV0YWxfYmluZGluZycsICctaW1hZScsICc8aW5maWxlLm1hZT4nLCAnLW9tYWUnLCAnPG91dGZpbGUubWFlPic=

> <r_lp_tautomer_probability>
1

> <r_epik_Ionization_Penalty>
2.16501e-08

> <r_epik_Ionization_Penalty_Charging>
2.29436e-11

> <r_epik_Ionization_Penalty_Neutral>
2.16271e-08

> <r_epik_State_Penalty>
-0

> <r_epik_Charging_Adjusted_Penalty>
2.29436e-11

> <i_epik_Tot_Q>
0

> <i_epik_Tot_abs_Q>
0

> <r_epik_Metal_State_Penalty>
-0

> <b_epik_Metal_Only>
0

> <s_lp_Force_Field>
OPLS_2005

> <r_lp_Energy>
65.8104

> <b_lp_Chiralities_Consistent>
1

> <s_lp_Variant>
AV-unprocessed.smi:1401-1

> <Gold.Version>
5.8.1

> <Gold.Id.Protein>
6NUR|6NUR_protein|mol2

> <Gold.PLP.Fitness>
40.0336

> <Gold.PLP.PLP>
-32.2717

> <Gold.PLP.part.hbond>
-3.9963

> <Gold.PLP.part.metal>
0.0000

> <Gold.PLP.part.buried>
-4.8346

> <Gold.PLP.part.nonpolar>
-24.0350

> <Gold.PLP.part.repulsive>
0.0794

> <Gold.PLP.ligand.clash>
0.0000

> <Gold.PLP.ligand.torsion>
0.5081

> <Gold.PLP.Chemscore.Hbond>
2.9213

> <Gold.PLP.Chemscore.CHOScore>
0.0000

> <Gold.PLP.Chemscore.Metal>
0.0000

> <Gold.Chemscore.Hbonds>
donor molecule, donor type, donor heavy atom, donor atom, acceptor molecule, acceptor atom, score
      P1  H  6896  6908       L1    19  1.00
      P1  H  6931  6943       L1     7  0.23
      P1  H  6934  6947       L1     7  0.74
      P1  H  7997  8010       L1    22  0.96

> <Gold.PLP.Chemscore.Internal.Correction>
0.0143

> <Gold.Rescore>
     Score         DG    S(hbond)    S(metal)    S(lipo)     H(rot)  DE(clash)    DE(int)     intcor
     20.49     -21.18       3.17        0.00      79.21       1.63       0.10       0.60       ----

> <Gold.Chemscore.Fitness>
20.4878

> <Gold.Chemscore.DG>
-21.1825

> <Gold.Chemscore.ZeroCoef>
-5.4800

> <Gold.Chemscore.Hbond>
3.1745

> <Gold.Chemscore.Metal>
0.0000

> <Gold.Chemscore.Lipo>
79.2086

> <Gold.Chemscore.Internal_Hbond>
0.0000

> <Gold.Chemscore.DEClash>
0.0984

> <Gold.Chemscore.DEInternal>
0.5963

> <Gold.Chemscore.Rot>
1.6281

> <Gold.Chemscore.Internal.Correction>
   9.000000E+99

> <Gold.Chemscore.Hbonds>
donor molecule, donor type, donor heavy atom, donor atom, acceptor molecule, acceptor atom, score
      P1  H  6896  6908       L1    19  0.99
      P1  H  6931  6943       L1     7  0.20
      P1  H  6934  6947       L1     7  0.74
      P1  H  7997  8010       L1    22  0.63

> <Gold.Chemscore.Hbond.Weighted>
-10.6029

> <Gold.Chemscore.Metal.Weighted>
-0.0000

> <Gold.Chemscore.Lipo.Weighted>
-9.2674

> <Gold.Chemscore.Internal_Hbond.Weighted>
0.0000

> <Gold.Chemscore.DEClash.Weighted>
0.0984

> <Gold.Chemscore.DEInternal.Weighted>
0.5963

> <Gold.Chemscore.Rot.Weighted>
4.1678

> <Gold.Chemscore.Internal.Correction.Weighted>
   9.000000E+99

> <Gold.Protein.RotatedTorsions>
[ 6907 6896 6895 6894 ] final -123.43 input  -60.11 | X-H torsion
[ 7974 7965 7964 7962 ] final   26.89 input  175.53 | X-H torsion
[ 8008 7997 7996 7995 ] final   19.44 input   59.86 | X-H torsion
[ 10167 10162 10161 10158 ] final  -74.79 input  -65.29 | X-H torsion
[ 10718 10713 10712 10709 ] final  -55.15 input   66.30 | X-H torsion
[ 10763 10752 10751 10750 ] final   75.37 input  -60.55 | X-H torsion
[ 11005 11000 10999 10996 ] final   24.04 input  -57.11 | X-H torsion

> <Gold.Protein.ActiveResidues>
 VAL166  LYS551  ARG553  GLY616  TRP617  ASP618  TYR619  PRO620  LYS621  CYS622 
 ASP623  PHE694  ASN695  SER759  ASP760  ASP761  ALA762  ILE779  LEU786  VAL792 
 PHE793  MET794  SER795  GLU796  ALA797  LYS798  CYS799  TRP800  GLU811  SER814 

> <Gold.Protein.RotatedAtoms>
  150.8670  133.7560  159.2973 H   0  0  0  0  0  0  0  0  0  0  0  0  # atno 6907 bound_to 6896
  151.5184  135.1065  159.9882 H   0  0  0  0  0  0  0  0  0  0  0  0  # atno 6908 bound_to 6896
  152.4668  133.7896  159.6950 H   0  0  0  0  0  0  0  0  0  0  0  0  # atno 6909 bound_to 6896
  146.1813  139.7266  142.8898 H   0  0  0  0  0  0  0  0  0  0  0  0  # atno 7974 bound_to 7965
  154.9208  140.3027  155.5217 H   0  0  0  0  0  0  0  0  0  0  0  0  # atno 8008 bound_to 7997
  156.3010  140.2372  156.4194 H   0  0  0  0  0  0  0  0  0  0  0  0  # atno 8009 bound_to 7997
  154.8332  140.0417  157.1480 H   0  0  0  0  0  0  0  0  0  0  0  0  # atno 8010 bound_to 7997
  140.4997  143.2363  151.7772 H   0  0  0  0  0  0  0  0  0  0  0  0  # atno 10167 bound_to 10162
  156.1392  130.4155  150.0132 H   0  0  0  0  0  0  0  0  0  0  0  0  # atno 10718 bound_to 10713
  153.0650  135.4991  154.8180 H   0  0  0  0  0  0  0  0  0  0  0  0  # atno 10763 bound_to 10752
  154.6940  135.2989  154.9441 H   0  0  0  0  0  0  0  0  0  0  0  0  # atno 10764 bound_to 10752
  154.0186  135.6745  153.4823 H   0  0  0  0  0  0  0  0  0  0  0  0  # atno 10765 bound_to 10752
  140.3630  134.2105  155.7671 H   0  0  0  0  0  0  0  0  0  0  0  0  # atno 11005 bound_to 11000
  145.4067  141.0392  143.3040 LP  0  0  0  0  0  0  0  0  0  0  0  0  # atno 17320 bound_to 7965
  144.8320  139.5612  143.6939 LP  0  0  0  0  0  0  0  0  0  0  0  0  # atno 17321 bound_to 7965
  139.4869  144.4539  151.9622 LP  0  0  0  0  0  0  0  0  0  0  0  0  # atno 17342 bound_to 10162
  140.3627  144.2953  150.5931 LP  0  0  0  0  0  0  0  0  0  0  0  0  # atno 17343 bound_to 10162
  156.8023  130.9295  151.3645 LP  0  0  0  0  0  0  0  0  0  0  0  0  # atno 17370 bound_to 10713
  157.6560  130.8925  149.9730 LP  0  0  0  0  0  0  0  0  0  0  0  0  # atno 17371 bound_to 10713
  141.1978  133.8050  157.0610 LP  0  0  0  0  0  0  0  0  0  0  0  0  # atno 17394 bound_to 11000
  140.0612  134.9754  157.1307 LP  0  0  0  0  0  0  0  0  0  0  0  0  # atno 17395 bound_to 11000

$$$$
