AV-unprocessed.smi:2339|AV-procd|sdf|9339|dock1
  -GOLD-   2272012563D 1   1.00000     0.00000
 Structure written by MMmdl.
 49 52  0  0  0  0  0  0  0  0  1 V2000
  144.3274  131.9957  150.0160 C   0  0  0  0  0  0  0  0  0  0  0  0
  145.4843  132.9010  150.4534 C   0  0  0  0  0  0  0  0  0  0  0  0
  145.0216  134.0029  151.2849 N   0  0  0  0  0  0  0  0  0  0  0  0
  143.6805  134.1363  151.6274 C   0  0  0  0  0  0  0  0  0  0  0  0
  143.1876  135.1511  152.3630 C   0  0  0  0  0  0  0  0  0  0  0  0
  144.1014  136.2053  152.8465 C   0  0  0  0  0  0  0  0  0  0  0  0
  143.6846  137.1391  153.5315 O   0  0  0  0  0  0  0  0  0  0  0  0
  145.5327  136.0742  152.4642 C   0  0  0  0  0  0  0  0  0  0  0  0
  146.3907  137.0932  152.9116 N   0  0  0  0  0  0  0  0  0  0  0  0
  147.2807  137.0854  153.9253 C   0  0  0  0  0  0  0  0  0  0  0  0
  147.4783  136.1473  154.6937 O   0  0  0  0  0  0  0  0  0  0  0  0
  147.9821  138.2257  154.0412 N   0  0  0  0  0  0  0  0  0  0  0  0
  149.0179  138.5506  155.0219 C   0  0  1  0  0  0  0  0  0  0  0  0
  150.4120  138.5499  154.3934 C   0  0  2  0  0  0  0  0  0  0  0  0
  151.6135  137.6842  154.5262 C   0  0  0  0  0  0  0  0  0  0  0  0
  152.6721  138.8092  154.6702 C   0  0  0  0  0  0  0  0  0  0  0  0
  151.9250  140.0361  154.8545 O   0  0  0  0  0  0  0  0  0  0  0  0
  150.7080  139.6099  155.4329 C   0  0  1  0  0  0  0  0  0  0  0  0
  149.2594  140.0962  155.2330 C   0  0  0  0  0  0  0  0  0  0  0  0
  148.9613  141.0921  154.1011 C   0  0  0  0  0  0  0  0  0  0  0  0
  147.6170  141.7398  154.4244 C   0  0  0  0  0  0  0  0  0  0  0  0
  147.5333  141.7470  155.9494 C   0  0  0  0  0  0  0  0  0  0  0  0
  148.5922  140.7526  156.4434 C   0  0  0  0  0  0  0  0  0  0  0  0
  145.8946  134.9993  151.7173 C   0  0  0  0  0  0  0  0  0  0  0  0
  144.6903  131.1751  149.3971 H   0  0  0  0  0  0  0  0  0  0  0  0
  143.5907  132.5510  149.4346 H   0  0  0  0  0  0  0  0  0  0  0  0
  143.8182  131.5629  150.8778 H   0  0  0  0  0  0  0  0  0  0  0  0
  146.2247  132.3170  151.0014 H   0  0  0  0  0  0  0  0  0  0  0  0
  145.9969  133.2968  149.5758 H   0  0  0  0  0  0  0  0  0  0  0  0
  143.0452  133.3450  151.2564 H   0  0  0  0  0  0  0  0  0  0  0  0
  142.1373  135.2123  152.6075 H   0  0  0  0  0  0  0  0  0  0  0  0
  146.3413  137.9461  152.3732 H   0  0  0  0  0  0  0  0  0  0  0  0
  147.7734  138.9507  153.3699 H   0  0  0  0  0  0  0  0  0  0  0  0
  148.9651  137.9670  155.9456 H   0  0  0  0  0  0  0  0  0  0  0  0
  150.3716  138.9595  153.3796 H   0  0  0  0  0  0  0  0  0  0  0  0
  151.5654  137.0520  155.4141 H   0  0  0  0  0  0  0  0  0  0  0  0
  151.7840  137.0580  153.6503 H   0  0  0  0  0  0  0  0  0  0  0  0
  153.3208  138.6250  155.5273 H   0  0  0  0  0  0  0  0  0  0  0  0
  153.2989  138.8947  153.7822 H   0  0  0  0  0  0  0  0  0  0  0  0
  150.8740  139.2116  156.4405 H   0  0  0  0  0  0  0  0  0  0  0  0
  149.7347  141.8609  154.0748 H   0  0  0  0  0  0  0  0  0  0  0  0
  148.9379  140.6382  153.1106 H   0  0  0  0  0  0  0  0  0  0  0  0
  147.5215  142.7375  153.9951 H   0  0  0  0  0  0  0  0  0  0  0  0
  146.8093  141.1305  154.0179 H   0  0  0  0  0  0  0  0  0  0  0  0
  147.7484  142.7429  156.3382 H   0  0  0  0  0  0  0  0  0  0  0  0
  146.5335  141.4735  156.2891 H   0  0  0  0  0  0  0  0  0  0  0  0
  148.1474  140.0100  157.1046 H   0  0  0  0  0  0  0  0  0  0  0  0
  149.3341  141.2840  157.0409 H   0  0  0  0  0  0  0  0  0  0  0  0
  146.9066  134.8200  151.3930 H   0  0  0  0  0  0  0  0  0  0  0  0
  1  2  1  0  0  0  0
  1 25  1  0  0  0  0
  1 26  1  0  0  0  0
  1 27  1  0  0  0  0
  2  3  1  0  0  0  0
  2 28  1  0  0  0  0
  2 29  1  0  0  0  0
  3 24  1  0  0  0  0
  3  4  1  0  0  0  0
  4  5  2  0  0  0  0
  4 30  1  0  0  0  0
  5  6  1  0  0  0  0
  5 31  1  0  0  0  0
  6  7  2  0  0  0  0
  6  8  1  0  0  0  0
  8  9  1  0  0  0  0
  8 24  2  0  0  0  0
  9 10  1  0  0  0  0
  9 32  1  0  0  0  0
 10 11  2  0  0  0  0
 10 12  1  0  0  0  0
 12 13  1  0  0  0  0
 12 33  1  0  0  0  0
 13 19  1  0  0  0  0
 13 14  1  0  0  0  0
 13 34  1  0  0  0  0
 14 18  1  0  0  0  0
 14 15  1  0  0  0  0
 14 35  1  0  0  0  0
 15 16  1  0  0  0  0
 15 36  1  0  0  0  0
 15 37  1  0  0  0  0
 16 17  1  0  0  0  0
 16 38  1  0  0  0  0
 16 39  1  0  0  0  0
 17 18  1  0  0  0  0
 18 19  1  0  0  0  0
 18 40  1  0  0  0  0
 19 23  1  0  0  0  0
 19 20  1  0  0  0  0
 20 21  1  0  0  0  0
 20 41  1  0  0  0  0
 20 42  1  0  0  0  0
 21 22  1  0  0  0  0
 21 43  1  0  0  0  0
 21 44  1  0  0  0  0
 22 23  1  0  0  0  0
 22 45  1  0  0  0  0
 22 46  1  0  0  0  0
 23 47  1  0  0  0  0
 23 48  1  0  0  0  0
 24 49  1  0  0  0  0
M  END
> <s_m_source_file>
AV-unprocessed.smi

> <i_m_source_file_index>
2339

> <i_lp_mmshare_version>
43012

> <i_f3d_flags>
0

> <s_epik_input>
W0NIM11bQ0gyXW4xW2NIXVtjSF1jKD1PKWMoW2NIXTEpW05IXUMoPU8pW05IXVtDQEBIXTJbQ0BASF0oW0NIMl1bQ0gyXU8zKVtDQEBIXTNDMjRbQ0gyXVtDSDJdW0NIMl1bQ0gyXTQ=

> <s_epik_cmdline>
J2VwaWtfcHl0aG9uJywgJy1waCcsICc3LjAnLCAnLXRuJywgJzgnLCAnLW1hJywgJzIwMCcsICctbWV0YWxfYmluZGluZycsICctaW1hZScsICc8aW5maWxlLm1hZT4nLCAnLW9tYWUnLCAnPG91dGZpbGUubWFlPic=

> <r_lp_tautomer_probability>
1

> <r_epik_Ionization_Penalty>
0.00145966

> <r_epik_Ionization_Penalty_Charging>
0.00143969

> <r_epik_Ionization_Penalty_Neutral>
1.99697e-05

> <r_epik_State_Penalty>
0.000961843

> <r_epik_Charging_Adjusted_Penalty>
0.00240153

> <i_epik_Tot_Q>
0

> <i_epik_Tot_abs_Q>
0

> <r_epik_Metal_State_Penalty>
-0

> <b_epik_Metal_Only>
0

> <s_lp_Force_Field>
OPLS_2005

> <r_lp_Energy>
78.6826

> <b_lp_Chiralities_Consistent>
1

> <s_lp_Variant>
AV-unprocessed.smi:2339-4

> <Gold.Version>
5.8.1

> <Gold.Id.Protein>
6NUR|6NUR_protein|mol2

> <Gold.PLP.Fitness>
44.5426

> <Gold.PLP.PLP>
-39.1916

> <Gold.PLP.part.hbond>
-2.6431

> <Gold.PLP.part.metal>
0.0000

> <Gold.PLP.part.buried>
-3.0272

> <Gold.PLP.part.nonpolar>
-35.2646

> <Gold.PLP.part.repulsive>
0.3207

> <Gold.PLP.ligand.clash>
0.0000

> <Gold.PLP.ligand.torsion>
0.9501

> <Gold.PLP.Chemscore.Hbond>
0.9120

> <Gold.PLP.Chemscore.CHOScore>
1.4075

> <Gold.PLP.Chemscore.Metal>
0.0000

> <Gold.Chemscore.Hbonds>
donor molecule, donor type, donor heavy atom, donor atom, acceptor molecule, acceptor atom, score
      P1  H  7989  7998       L1    17  0.88
      L1  C     4    30       P1 10186  0.10
      L1  C    24    49       P1  7948  0.98

> <Gold.PLP.Chemscore.Internal.Correction>
0.2927

> <Gold.Rescore>
     Score         DG    S(hbond)    S(metal)    S(lipo)     H(rot)  DE(clash)    DE(int)     intcor
     14.21     -16.34       0.70        0.00      98.23       1.17       1.23       0.90       ----

> <Gold.Chemscore.Fitness>
14.2053

> <Gold.Chemscore.DG>
-16.3375

> <Gold.Chemscore.ZeroCoef>
-5.4800

> <Gold.Chemscore.Hbond>
0.7041

> <Gold.Chemscore.Metal>
0.0000

> <Gold.Chemscore.Lipo>
98.2335

> <Gold.Chemscore.Internal_Hbond>
0.0000

> <Gold.Chemscore.DEClash>
1.2318

> <Gold.Chemscore.DEInternal>
0.9004

> <Gold.Chemscore.Rot>
1.1670

> <Gold.Chemscore.Internal.Correction>
   9.000000E+99

> <Gold.Chemscore.Hbonds>
donor molecule, donor type, donor heavy atom, donor atom, acceptor molecule, acceptor atom, score
      P1  H  7989  7998       L1    17  0.59

> <Gold.Chemscore.Hbond.Weighted>
-2.3516

> <Gold.Chemscore.Metal.Weighted>
-0.0000

> <Gold.Chemscore.Lipo.Weighted>
-11.4933

> <Gold.Chemscore.Internal_Hbond.Weighted>
0.0000

> <Gold.Chemscore.DEClash.Weighted>
1.2318

> <Gold.Chemscore.DEInternal.Weighted>
0.9004

> <Gold.Chemscore.Rot.Weighted>
2.9874

> <Gold.Chemscore.Internal.Correction.Weighted>
   9.000000E+99

> <Gold.Protein.RotatedTorsions>
[ 6907 6896 6895 6894 ] final  -95.82 input  -60.11 | X-H torsion
[ 7974 7965 7964 7962 ] final   12.11 input  175.53 | X-H torsion
[ 8008 7997 7996 7995 ] final  141.18 input   59.86 | X-H torsion
[ 10167 10162 10161 10158 ] final -167.98 input  -65.29 | X-H torsion
[ 10718 10713 10712 10709 ] final  -19.86 input   66.30 | X-H torsion
[ 10763 10752 10751 10750 ] final    8.22 input  -60.55 | X-H torsion
[ 11005 11000 10999 10996 ] final   65.85 input  -57.11 | X-H torsion

> <Gold.Protein.ActiveResidues>
 VAL166  LYS551  ARG553  GLY616  TRP617  ASP618  TYR619  PRO620  LYS621  CYS622 
 ASP623  PHE694  ASN695  SER759  ASP760  ASP761  ALA762  ILE779  LEU786  VAL792 
 PHE793  MET794  SER795  GLU796  ALA797  LYS798  CYS799  TRP800  GLU811  SER814 

> <Gold.Protein.RotatedAtoms>
  150.6973  134.1598  159.4171 H   0  0  0  0  0  0  0  0  0  0  0  0  # atno 6907 bound_to 6896
  151.9579  135.0135  160.0555 H   0  0  0  0  0  0  0  0  0  0  0  0  # atno 6908 bound_to 6896
  152.1953  133.4767  159.5066 H   0  0  0  0  0  0  0  0  0  0  0  0  # atno 6909 bound_to 6896
  146.2358  139.9385  142.8486 H   0  0  0  0  0  0  0  0  0  0  0  0  # atno 7974 bound_to 7965
  156.2969  140.2322  156.4523 H   0  0  0  0  0  0  0  0  0  0  0  0  # atno 8008 bound_to 7997
  154.8091  140.0444  157.1350 H   0  0  0  0  0  0  0  0  0  0  0  0  # atno 8009 bound_to 7997
  154.9444  140.3034  155.5108 H   0  0  0  0  0  0  0  0  0  0  0  0  # atno 8010 bound_to 7997
  139.6014  144.1002  152.1747 H   0  0  0  0  0  0  0  0  0  0  0  0  # atno 10167 bound_to 10162
  156.5398  130.4675  149.6504 H   0  0  0  0  0  0  0  0  0  0  0  0  # atno 10718 bound_to 10713
  153.2275  135.6888  153.7928 H   0  0  0  0  0  0  0  0  0  0  0  0  # atno 10763 bound_to 10752
  153.7104  135.3283  155.3246 H   0  0  0  0  0  0  0  0  0  0  0  0  # atno 10764 bound_to 10752
  154.8299  135.4589  154.1148 H   0  0  0  0  0  0  0  0  0  0  0  0  # atno 10765 bound_to 10752
  139.9869  134.6654  156.0161 H   0  0  0  0  0  0  0  0  0  0  0  0  # atno 11005 bound_to 11000
  145.1975  140.9840  143.4175 LP  0  0  0  0  0  0  0  0  0  0  0  0  # atno 17320 bound_to 7965
  144.9802  139.3791  143.6265 LP  0  0  0  0  0  0  0  0  0  0  0  0  # atno 17321 bound_to 7965
  140.0599  144.5865  150.7271 LP  0  0  0  0  0  0  0  0  0  0  0  0  # atno 17342 bound_to 10162
  140.7253  143.2629  151.4142 LP  0  0  0  0  0  0  0  0  0  0  0  0  # atno 17343 bound_to 10162
  156.2982  130.7162  151.2027 LP  0  0  0  0  0  0  0  0  0  0  0  0  # atno 17370 bound_to 10713
  157.7407  131.0513  150.5146 LP  0  0  0  0  0  0  0  0  0  0  0  0  # atno 17371 bound_to 10713
  141.1532  133.6546  156.4078 LP  0  0  0  0  0  0  0  0  0  0  0  0  # atno 17394 bound_to 11000
  140.4985  134.6508  157.5239 LP  0  0  0  0  0  0  0  0  0  0  0  0  # atno 17395 bound_to 11000

$$$$
