AV-unprocessed.smi:2492|AV-procd|sdf|9814|dock3
  -GOLD-   2272013443D 1   1.00000     0.00000
 Structure written by MMmdl.
 33 34  0  0  0  0  0  0  0  0  1 V2000
  154.2670  141.3477  159.8055 C   0  0  0  0  0  0  0  0  0  0  0  0
  153.3851  142.3137  161.0600 S   0  0  0  0  0  0  0  0  0  0  0  0
  152.2242  143.2286  160.0054 C   0  0  1  0  0  0  0  0  0  0  0  0
  152.9155  144.1648  159.0154 C   0  0  0  0  0  0  0  0  0  0  0  0
  151.8615  144.4204  157.9360 C   0  0  0  0  0  0  0  0  0  0  0  0
  150.9567  143.1701  157.9129 C   0  0  2  0  0  0  0  0  0  0  0  0
  149.5428  143.5195  158.0248 N   0  0  0  0  0  0  0  0  0  0  0  0
  148.5581  142.6560  158.3120 C   0  0  0  0  0  0  0  0  0  0  0  0
  148.7429  141.4552  158.5120 O   0  0  0  0  0  0  0  0  0  0  0  0
  147.3648  143.2696  158.3488 N   0  0  0  0  0  0  0  0  0  0  0  0
  146.1084  142.6704  158.6057 C   0  0  0  0  0  0  0  0  0  0  0  0
  145.9792  141.5901  159.3696 N   0  0  0  0  0  0  0  0  0  0  0  0
  144.6309  141.4027  159.3167 C   0  0  0  0  0  0  0  0  0  0  0  0
  143.9417  140.2908  160.0311 C   0  0  0  0  0  0  0  0  0  0  0  0
  143.9479  142.2800  158.5896 N   0  0  0  0  0  0  0  0  0  0  0  0
  144.9414  143.1425  158.1027 O   0  0  0  0  0  0  0  0  0  0  0  0
  151.3940  142.3071  159.1095 C   0  0  0  0  0  0  0  0  0  0  0  0
  155.0476  140.7488  160.2744 H   0  0  0  0  0  0  0  0  0  0  0  0
  154.7317  142.0081  159.0731 H   0  0  0  0  0  0  0  0  0  0  0  0
  153.5836  140.6759  159.2863 H   0  0  0  0  0  0  0  0  0  0  0  0
  151.5490  143.8057  160.6389 H   0  0  0  0  0  0  0  0  0  0  0  0
  153.2650  145.0874  159.4792 H   0  0  0  0  0  0  0  0  0  0  0  0
  153.7787  143.6669  158.5714 H   0  0  0  0  0  0  0  0  0  0  0  0
  151.2873  145.3091  158.2028 H   0  0  0  0  0  0  0  0  0  0  0  0
  152.3167  144.6138  156.9640 H   0  0  0  0  0  0  0  0  0  0  0  0
  151.1147  142.6041  156.9928 H   0  0  0  0  0  0  0  0  0  0  0  0
  149.3003  144.4879  157.8740 H   0  0  0  0  0  0  0  0  0  0  0  0
  147.3508  144.2629  158.1715 H   0  0  0  0  0  0  0  0  0  0  0  0
  143.0825  139.9405  159.4584 H   0  0  0  0  0  0  0  0  0  0  0  0
  143.5942  140.6298  161.0070 H   0  0  0  0  0  0  0  0  0  0  0  0
  144.6211  139.4507  160.1776 H   0  0  0  0  0  0  0  0  0  0  0  0
  152.0200  141.4911  158.7454 H   0  0  0  0  0  0  0  0  0  0  0  0
  150.5593  141.8531  159.6454 H   0  0  0  0  0  0  0  0  0  0  0  0
  1  2  1  0  0  0  0
  1 18  1  0  0  0  0
  1 19  1  0  0  0  0
  1 20  1  0  0  0  0
  2  3  1  0  0  0  0
  3 17  1  0  0  0  0
  3  4  1  0  0  0  0
  3 21  1  0  0  0  0
  4  5  1  0  0  0  0
  4 22  1  0  0  0  0
  4 23  1  0  0  0  0
  5  6  1  0  0  0  0
  5 24  1  0  0  0  0
  5 25  1  0  0  0  0
  6  7  1  0  0  0  0
  6 17  1  0  0  0  0
  6 26  1  0  0  0  0
  7  8  1  0  0  0  0
  7 27  1  0  0  0  0
  8  9  2  0  0  0  0
  8 10  1  0  0  0  0
 10 11  1  0  0  0  0
 10 28  1  0  0  0  0
 11 16  1  0  0  0  0
 11 12  2  0  0  0  0
 12 13  1  0  0  0  0
 13 14  1  0  0  0  0
 13 15  2  0  0  0  0
 14 29  1  0  0  0  0
 14 30  1  0  0  0  0
 14 31  1  0  0  0  0
 15 16  1  0  0  0  0
 17 32  1  0  0  0  0
 17 33  1  0  0  0  0
M  END
> <s_m_source_file>
AV-unprocessed.smi

> <i_m_source_file_index>
2492

> <i_lp_mmshare_version>
43012

> <i_f3d_flags>
0

> <s_epik_input>
W0NIM11TW0NAQEhdMVtDSDJdW0NIMl1bQ0BIXShbQ0gyXTEpW05IXUMoPU8pW05IXWMybmMoW0NIM10pbm8y

> <s_epik_cmdline>
J2VwaWtfcHl0aG9uJywgJy1waCcsICc3LjAnLCAnLXRuJywgJzgnLCAnLW1hJywgJzIwMCcsICctbWV0YWxfYmluZGluZycsICctaW1hZScsICc8aW5maWxlLm1hZT4nLCAnLW9tYWUnLCAnPG91dGZpbGUubWFlPic=

> <r_lp_tautomer_probability>
1

> <r_epik_Ionization_Penalty>
3.56659e-05

> <r_epik_Ionization_Penalty_Charging>
0

> <r_epik_Ionization_Penalty_Neutral>
3.56659e-05

> <r_epik_State_Penalty>
-0

> <r_epik_Charging_Adjusted_Penalty>
0

> <i_epik_Tot_Q>
0

> <i_epik_Tot_abs_Q>
0

> <r_epik_Metal_State_Penalty>
0.0146047

> <b_epik_Metal_Only>
0

> <s_lp_Force_Field>
OPLS_2005

> <r_lp_Energy>
12.826

> <b_lp_Chiralities_Consistent>
1

> <s_lp_Variant>
AV-unprocessed.smi:2492-4

> <Gold.Version>
5.8.1

> <Gold.Id.Protein>
6NUR|6NUR_protein|mol2

> <Gold.PLP.Fitness>
37.5856

> <Gold.PLP.PLP>
-31.0379

> <Gold.PLP.part.hbond>
-4.9708

> <Gold.PLP.part.metal>
0.0000

> <Gold.PLP.part.buried>
-2.9868

> <Gold.PLP.part.nonpolar>
-23.6525

> <Gold.PLP.part.repulsive>
0.2219

> <Gold.PLP.ligand.clash>
0.0000

> <Gold.PLP.ligand.torsion>
0.3479

> <Gold.PLP.Chemscore.Hbond>
2.4122

> <Gold.PLP.Chemscore.CHOScore>
0.0000

> <Gold.PLP.Chemscore.Metal>
0.0000

> <Gold.Chemscore.Hbonds>
donor molecule, donor type, donor heavy atom, donor atom, acceptor molecule, acceptor atom, score
      L1  H     7    27       P1  8029  0.41
      L1  H    10    28       P1  8029  1.00
      P1  H  6934  6946       L1    12  0.98

> <Gold.PLP.Chemscore.Internal.Correction>
0.0070

> <Gold.Rescore>
     Score         DG    S(hbond)    S(metal)    S(lipo)     H(rot)  DE(clash)    DE(int)     intcor
     15.32     -18.01       1.92        0.00      80.20       1.28       0.05       2.64       ----

> <Gold.Chemscore.Fitness>
15.3185

> <Gold.Chemscore.DG>
-18.0071

> <Gold.Chemscore.ZeroCoef>
-5.4800

> <Gold.Chemscore.Hbond>
1.9236

> <Gold.Chemscore.Metal>
0.0000

> <Gold.Chemscore.Lipo>
80.1978

> <Gold.Chemscore.Internal_Hbond>
0.0000

> <Gold.Chemscore.DEClash>
0.0515

> <Gold.Chemscore.DEInternal>
2.6371

> <Gold.Chemscore.Rot>
1.2815

> <Gold.Chemscore.Internal.Correction>
   9.000000E+99

> <Gold.Chemscore.Hbonds>
donor molecule, donor type, donor heavy atom, donor atom, acceptor molecule, acceptor atom, score
      L1  H     7    27       P1  8029  0.02
      L1  H    10    28       P1  8029  0.48
      P1  H  6934  6946       L1    12  0.90

> <Gold.Chemscore.Hbond.Weighted>
-6.4248

> <Gold.Chemscore.Metal.Weighted>
-0.0000

> <Gold.Chemscore.Lipo.Weighted>
-9.3831

> <Gold.Chemscore.Internal_Hbond.Weighted>
0.0000

> <Gold.Chemscore.DEClash.Weighted>
0.0515

> <Gold.Chemscore.DEInternal.Weighted>
2.6371

> <Gold.Chemscore.Rot.Weighted>
3.2808

> <Gold.Chemscore.Internal.Correction.Weighted>
   9.000000E+99

> <Gold.Protein.RotatedTorsions>
[ 6907 6896 6895 6894 ] final   25.94 input  -60.11 | X-H torsion
[ 7974 7965 7964 7962 ] final   11.43 input  175.53 | X-H torsion
[ 8008 7997 7996 7995 ] final  -26.08 input   59.86 | X-H torsion
[ 10167 10162 10161 10158 ] final  -65.76 input  -65.29 | X-H torsion
[ 10718 10713 10712 10709 ] final  129.29 input   66.30 | X-H torsion
[ 10763 10752 10751 10750 ] final   11.58 input  -60.55 | X-H torsion
[ 11005 11000 10999 10996 ] final -171.13 input  -57.11 | X-H torsion

> <Gold.Protein.ActiveResidues>
 VAL166  LYS551  ARG553  GLY616  TRP617  ASP618  TYR619  PRO620  LYS621  CYS622 
 ASP623  PHE694  ASN695  SER759  ASP760  ASP761  ALA762  ILE779  LEU786  VAL792 
 PHE793  MET794  SER795  GLU796  ALA797  LYS798  CYS799  TRP800  GLU811  SER814 

> <Gold.Protein.RotatedAtoms>
  151.9800  135.0033  160.0556 H   0  0  0  0  0  0  0  0  0  0  0  0  # atno 6907 bound_to 6896
  152.1705  133.4635  159.4915 H   0  0  0  0  0  0  0  0  0  0  0  0  # atno 6908 bound_to 6896
  150.6901  134.1877  159.4316 H   0  0  0  0  0  0  0  0  0  0  0  0  # atno 6909 bound_to 6896
  146.2371  139.9486  142.8473 H   0  0  0  0  0  0  0  0  0  0  0  0  # atno 7974 bound_to 7965
  154.4443  140.1909  156.0720 H   0  0  0  0  0  0  0  0  0  0  0  0  # atno 8008 bound_to 7997
  156.0504  140.3309  155.7318 H   0  0  0  0  0  0  0  0  0  0  0  0  # atno 8009 bound_to 7997
  155.5565  140.0600  157.2829 H   0  0  0  0  0  0  0  0  0  0  0  0  # atno 8010 bound_to 7997
  140.5706  143.2317  151.6546 H   0  0  0  0  0  0  0  0  0  0  0  0  # atno 10167 bound_to 10162
  157.5167  131.1097  150.9213 H   0  0  0  0  0  0  0  0  0  0  0  0  # atno 10718 bound_to 10713
  153.1912  135.6842  153.8350 H   0  0  0  0  0  0  0  0  0  0  0  0  # atno 10763 bound_to 10752
  153.7649  135.3204  155.3344 H   0  0  0  0  0  0  0  0  0  0  0  0  # atno 10764 bound_to 10752
  154.8118  135.4712  154.0635 H   0  0  0  0  0  0  0  0  0  0  0  0  # atno 10765 bound_to 10752
  140.5117  134.5795  157.5021 H   0  0  0  0  0  0  0  0  0  0  0  0  # atno 11005 bound_to 11000
  145.1883  140.9799  143.4226 LP  0  0  0  0  0  0  0  0  0  0  0  0  # atno 17320 bound_to 7965
  144.9880  139.3717  143.6229 LP  0  0  0  0  0  0  0  0  0  0  0  0  # atno 17321 bound_to 7965
  139.5115  144.3506  152.0656 LP  0  0  0  0  0  0  0  0  0  0  0  0  # atno 17342 bound_to 10162
  140.2643  144.4033  150.6174 LP  0  0  0  0  0  0  0  0  0  0  0  0  # atno 17343 bound_to 10162
  156.9836  130.5536  149.5298 LP  0  0  0  0  0  0  0  0  0  0  0  0  # atno 17370 bound_to 10713
  156.0325  130.5416  150.8571 LP  0  0  0  0  0  0  0  0  0  0  0  0  # atno 17371 bound_to 10713
  139.9655  134.7380  156.0147 LP  0  0  0  0  0  0  0  0  0  0  0  0  # atno 17394 bound_to 11000
  141.1382  133.6570  156.3653 LP  0  0  0  0  0  0  0  0  0  0  0  0  # atno 17395 bound_to 11000

$$$$
