AV-unprocessed.smi:527|AV-procd|sdf|2830|dock7
  -GOLD-   2262023313D 1   1.00000     0.00000
 Structure written by MMmdl.
 43 44  0  0  0  0  0  0  0  0  2 V2000
  148.8545  140.3315  154.5884 C   0  0  0  0  0  0  0  0  0  0  0  0
  149.3452  138.8736  154.5308 C   0  0  1  0  0  0  0  0  0  0  0  0
  150.8850  138.8376  154.6189 C   0  0  0  0  0  0  0  0  0  0  0  0
  151.4365  137.4072  154.5536 C   0  0  0  0  0  0  0  0  0  0  0  0
  150.8178  136.5297  155.6508 C   0  0  0  0  0  0  0  0  0  0  0  0
  149.2775  136.5322  155.5847 C   0  0  2  0  0  0  0  0  0  0  0  0
  148.8036  135.8193  154.3973 N   0  0  0  0  0  0  0  0  0  0  0  0
  148.0638  134.7013  154.3994 C   0  0  0  0  0  0  0  0  0  0  0  0
  147.6870  134.1382  155.4292 O   0  0  0  0  0  0  0  0  0  0  0  0
  147.7964  134.3005  153.1419 N   0  0  0  0  0  0  0  0  0  0  0  0
  147.2594  133.1266  152.7510 C   0  0  0  0  0  0  0  0  0  0  0  0
  146.9402  132.2034  153.5023 O   0  0  0  0  0  0  0  0  0  0  0  0
  147.0254  132.9734  151.2478 C   0  0  0  0  0  0  0  0  0  0  0  0
  145.6061  132.7479  150.9588 N   0  0  0  0  0  0  0  0  0  0  0  0
  144.8619  131.6356  151.2599 C   0  0  0  0  0  0  0  0  0  0  0  0
  143.5960  131.8731  150.7892 C   0  0  0  0  0  0  0  0  0  0  0  0
  143.6210  133.1183  150.2203 N   0  3  0  0  0  0  0  0  0  0  0  0
  144.8441  133.6485  150.3233 C   0  0  0  0  0  0  0  0  0  0  0  0
  148.7111  137.9754  155.6304 C   0  0  2  0  0  0  0  0  0  0  0  0
  147.1693  137.9706  155.5930 C   0  0  0  0  0  0  0  0  0  0  0  0
  149.0421  140.7755  155.5666 H   0  0  0  0  0  0  0  0  0  0  0  0
  147.7870  140.4076  154.3832 H   0  0  0  0  0  0  0  0  0  0  0  0
  149.3631  140.9445  153.8437 H   0  0  0  0  0  0  0  0  0  0  0  0
  149.0603  138.4756  153.5558 H   0  0  0  0  0  0  0  0  0  0  0  0
  151.3183  139.4268  153.8099 H   0  0  0  0  0  0  0  0  0  0  0  0
  151.2108  139.3071  155.5481 H   0  0  0  0  0  0  0  0  0  0  0  0
  151.2313  136.9775  153.5724 H   0  0  0  0  0  0  0  0  0  0  0  0
  152.5214  137.4235  154.6614 H   0  0  0  0  0  0  0  0  0  0  0  0
  151.2034  135.5121  155.5779 H   0  0  0  0  0  0  0  0  0  0  0  0
  151.1346  136.9016  156.6260 H   0  0  0  0  0  0  0  0  0  0  0  0
  148.9049  136.0045  156.4649 H   0  0  0  0  0  0  0  0  0  0  0  0
  149.0569  136.2194  153.5058 H   0  0  0  0  0  0  0  0  0  0  0  0
  148.0169  134.9584  152.4092 H   0  0  0  0  0  0  0  0  0  0  0  0
  147.3499  133.8653  150.7096 H   0  0  0  0  0  0  0  0  0  0  0  0
  147.5992  132.1305  150.8590 H   0  0  0  0  0  0  0  0  0  0  0  0
  145.2774  130.7795  151.7714 H   0  0  0  0  0  0  0  0  0  0  0  0
  142.7034  131.2646  150.8148 H   0  0  0  0  0  0  0  0  0  0  0  0
  145.1560  134.6120  149.9605 H   0  0  0  0  0  0  0  0  0  0  0  0
  148.9984  138.3942  156.5961 H   0  0  0  0  0  0  0  0  0  0  0  0
  146.7898  137.6854  154.6114 H   0  0  0  0  0  0  0  0  0  0  0  0
  146.7588  138.9501  155.8363 H   0  0  0  0  0  0  0  0  0  0  0  0
  146.7634  137.2691  156.3225 H   0  0  0  0  0  0  0  0  0  0  0  0
  142.8302  133.5742  149.7820 H   0  0  0  0  0  0  0  0  0  0  0  0
  1  2  1  0  0  0  0
  1 21  1  0  0  0  0
  1 22  1  0  0  0  0
  1 23  1  0  0  0  0
  2 19  1  0  0  0  0
  2  3  1  0  0  0  0
  2 24  1  0  0  0  0
  3  4  1  0  0  0  0
  3 25  1  0  0  0  0
  3 26  1  0  0  0  0
  4  5  1  0  0  0  0
  4 27  1  0  0  0  0
  4 28  1  0  0  0  0
  5  6  1  0  0  0  0
  5 29  1  0  0  0  0
  5 30  1  0  0  0  0
  6  7  1  0  0  0  0
  6 19  1  0  0  0  0
  6 31  1  0  0  0  0
  7  8  1  0  0  0  0
  7 32  1  0  0  0  0
  8  9  2  0  0  0  0
  8 10  1  0  0  0  0
 10 11  1  0  0  0  0
 10 33  1  0  0  0  0
 11 12  2  0  0  0  0
 11 13  1  0  0  0  0
 13 14  1  0  0  0  0
 13 34  1  0  0  0  0
 13 35  1  0  0  0  0
 14 18  1  0  0  0  0
 14 15  1  0  0  0  0
 15 16  2  0  0  0  0
 15 36  1  0  0  0  0
 16 17  1  0  0  0  0
 16 37  1  0  0  0  0
 17 18  2  0  0  0  0
 17 43  1  0  0  0  0
 18 38  1  0  0  0  0
 19 20  1  0  0  0  0
 19 39  1  0  0  0  0
 20 40  1  0  0  0  0
 20 41  1  0  0  0  0
 20 42  1  0  0  0  0
M  CHG  1  17   1
M  END
> <s_m_source_file>
AV-unprocessed.smi

> <i_m_source_file_index>
527

> <i_lp_mmshare_version>
43012

> <i_f3d_flags>
0

> <s_epik_input>
W0NIM11bQ0BASF0xW0NIMl1bQ0gyXVtDSDJdW0NASF0oW0NASF0xW0NIM10pW05IXUMoPU8pW05IXUMoPU8pW0NIMl1uMltjSF1bY0hdbltjSF0y

> <s_epik_cmdline>
J2VwaWtfcHl0aG9uJywgJy1waCcsICc3LjAnLCAnLXRuJywgJzgnLCAnLW1hJywgJzIwMCcsICctbWV0YWxfYmluZGluZycsICctaW1hZScsICc8aW5maWxlLm1hZT4nLCAnLW9tYWUnLCAnPG91dGZpbGUubWFlPic=

> <r_lp_tautomer_probability>
1

> <r_epik_Ionization_Penalty>
0.816441

> <r_epik_Ionization_Penalty_Charging>
0

> <r_epik_Ionization_Penalty_Neutral>
0.816441

> <r_epik_State_Penalty>
0.849034

> <r_epik_Charging_Adjusted_Penalty>
0.849034

> <i_epik_Tot_Q>
1

> <i_epik_Tot_abs_Q>
1

> <r_epik_Metal_State_Penalty>
0.984327

> <b_epik_Metal_Only>
0

> <s_lp_Force_Field>
OPLS_2005

> <r_lp_Energy>
15.9829

> <b_lp_Chiralities_Consistent>
1

> <s_lp_Variant>
AV-unprocessed.smi:527-16

> <Gold.Version>
5.8.1

> <Gold.Id.Protein>
6NUR|6NUR_protein|mol2

> <Gold.PLP.Fitness>
45.1124

> <Gold.PLP.PLP>
-30.7808

> <Gold.PLP.part.hbond>
-3.0000

> <Gold.PLP.part.metal>
0.0000

> <Gold.PLP.part.buried>
-3.0395

> <Gold.PLP.part.nonpolar>
-25.3999

> <Gold.PLP.part.repulsive>
0.1746

> <Gold.PLP.ligand.clash>
0.0000

> <Gold.PLP.ligand.torsion>
0.1042

> <Gold.PLP.Chemscore.Hbond>
4.0000

> <Gold.PLP.Chemscore.CHOScore>
0.8385

> <Gold.PLP.Chemscore.Metal>
0.0000

> <Gold.Chemscore.Hbonds>
donor molecule, donor type, donor heavy atom, donor atom, acceptor molecule, acceptor atom, score
      L1  H     7    32       P1  7948  1.00
      L1  H    10    33       P1  7948  0.99
      L1  H    17    43       P1 10186  2.00
      L1  C    18    38       P1  7921  0.79

> <Gold.PLP.Chemscore.Internal.Correction>
0.0245

> <Gold.Rescore>
     Score         DG    S(hbond)    S(metal)    S(lipo)     H(rot)  DE(clash)    DE(int)     intcor
     16.49     -18.07       2.87        0.00      62.89       1.71       0.01       1.58       ----

> <Gold.Chemscore.Fitness>
16.4879

> <Gold.Chemscore.DG>
-18.0749

> <Gold.Chemscore.ZeroCoef>
-5.4800

> <Gold.Chemscore.Hbond>
2.8749

> <Gold.Chemscore.Metal>
0.0000

> <Gold.Chemscore.Lipo>
62.8896

> <Gold.Chemscore.Internal_Hbond>
0.0000

> <Gold.Chemscore.DEClash>
0.0069

> <Gold.Chemscore.DEInternal>
1.5800

> <Gold.Chemscore.Rot>
1.7052

> <Gold.Chemscore.Internal.Correction>
   9.000000E+99

> <Gold.Chemscore.Hbonds>
donor molecule, donor type, donor heavy atom, donor atom, acceptor molecule, acceptor atom, score
      L1  H     7    32       P1  7948  0.92
      L1  H    10    33       P1  7948  0.74
      L1  H    17    43       P1 10186  0.93

> <Gold.Chemscore.Hbond.Weighted>
-9.6021

> <Gold.Chemscore.Metal.Weighted>
-0.0000

> <Gold.Chemscore.Lipo.Weighted>
-7.3581

> <Gold.Chemscore.Internal_Hbond.Weighted>
0.0000

> <Gold.Chemscore.DEClash.Weighted>
0.0069

> <Gold.Chemscore.DEInternal.Weighted>
1.5800

> <Gold.Chemscore.Rot.Weighted>
4.3653

> <Gold.Chemscore.Internal.Correction.Weighted>
   9.000000E+99

> <Gold.Protein.RotatedTorsions>
[ 6907 6896 6895 6894 ] final -168.13 input  -60.11 | X-H torsion
[ 7974 7965 7964 7962 ] final  -86.63 input  175.53 | X-H torsion
[ 8008 7997 7996 7995 ] final  -85.46 input   59.86 | X-H torsion
[ 10167 10162 10161 10158 ] final  103.28 input  -65.29 | X-H torsion
[ 10718 10713 10712 10709 ] final   83.60 input   66.30 | X-H torsion
[ 10763 10752 10751 10750 ] final  -96.33 input  -60.55 | X-H torsion
[ 11005 11000 10999 10996 ] final   52.19 input  -57.11 | X-H torsion

> <Gold.Protein.ActiveResidues>
 VAL166  LYS551  ARG553  GLY616  TRP617  ASP618  TYR619  PRO620  LYS621  CYS622 
 ASP623  PHE694  ASN695  SER759  ASP760  ASP761  ALA762  ILE779  LEU786  VAL792 
 PHE793  MET794  SER795  GLU796  ALA797  LYS798  CYS799  TRP800  GLU811  SER814 

> <Gold.Protein.RotatedAtoms>
  151.4706  133.3570  159.2822 H   0  0  0  0  0  0  0  0  0  0  0  0  # atno 6907 bound_to 6896
  150.8963  134.8373  159.7340 H   0  0  0  0  0  0  0  0  0  0  0  0  # atno 6908 bound_to 6896
  152.4853  134.4622  159.9660 H   0  0  0  0  0  0  0  0  0  0  0  0  # atno 6909 bound_to 6896
  145.4773  140.9558  143.1884 H   0  0  0  0  0  0  0  0  0  0  0  0  # atno 7974 bound_to 7965
  154.6410  140.0591  156.9846 H   0  0  0  0  0  0  0  0  0  0  0  0  # atno 8008 bound_to 7997
  155.1516  140.3274  155.4411 H   0  0  0  0  0  0  0  0  0  0  0  0  # atno 8009 bound_to 7997
  156.2531  140.1946  156.6628 H   0  0  0  0  0  0  0  0  0  0  0  0  # atno 8010 bound_to 7997
  139.7276  144.7044  151.0773 H   0  0  0  0  0  0  0  0  0  0  0  0  # atno 10167 bound_to 10162
  157.6882  131.0097  150.2547 H   0  0  0  0  0  0  0  0  0  0  0  0  # atno 10718 bound_to 10713
  154.7230  135.5087  153.8841 H   0  0  0  0  0  0  0  0  0  0  0  0  # atno 10763 bound_to 10752
  153.0879  135.6650  153.9921 H   0  0  0  0  0  0  0  0  0  0  0  0  # atno 10764 bound_to 10752
  153.9740  135.3035  155.3404 H   0  0  0  0  0  0  0  0  0  0  0  0  # atno 10765 bound_to 10752
  140.0870  134.5261  155.8889 H   0  0  0  0  0  0  0  0  0  0  0  0  # atno 11005 bound_to 11000
  144.7909  139.6329  143.7113 LP  0  0  0  0  0  0  0  0  0  0  0  0  # atno 17320 bound_to 7965
  146.2362  139.5909  142.9522 LP  0  0  0  0  0  0  0  0  0  0  0  0  # atno 17321 bound_to 7965
  140.7765  143.5084  150.9683 LP  0  0  0  0  0  0  0  0  0  0  0  0  # atno 17342 bound_to 10162
  139.8772  143.7117  152.3160 LP  0  0  0  0  0  0  0  0  0  0  0  0  # atno 17343 bound_to 10162
  156.3137  130.3775  149.7638 LP  0  0  0  0  0  0  0  0  0  0  0  0  # atno 17370 bound_to 10713
  156.5230  130.8223  151.3210 LP  0  0  0  0  0  0  0  0  0  0  0  0  # atno 17371 bound_to 10713
  141.2066  133.6656  156.6250 LP  0  0  0  0  0  0  0  0  0  0  0  0  # atno 17394 bound_to 11000
  140.3406  134.7852  157.4395 LP  0  0  0  0  0  0  0  0  0  0  0  0  # atno 17395 bound_to 11000

$$$$
