AV-unprocessed.smi:1871|AV-procd|sdf|7601|dock4
  -GOLD-   22720 9313D 1   1.00000     0.00000
 Structure written by MMmdl.
 41 43  0  0  0  0  0  0  0  0  2 V2000
  149.5530  141.1452  153.3754 O   0  0  0  0  0  0  0  0  0  0  0  0
  149.1366  140.6836  154.6410 C   0  0  0  0  0  0  0  0  0  0  0  0
  150.0064  141.1898  155.7455 C   0  0  0  0  0  0  0  0  0  0  0  0
  150.0705  142.4849  156.1665 N   0  3  0  0  0  0  0  0  0  0  0  0
  150.9920  142.6003  157.2076 C   0  0  0  0  0  0  0  0  0  0  0  0
  151.3965  143.7061  157.9490 C   0  0  0  0  0  0  0  0  0  0  0  0
  152.3656  143.4781  158.9481 C   0  0  0  0  0  0  0  0  0  0  0  0
  152.8941  142.1911  159.1782 C   0  0  0  0  0  0  0  0  0  0  0  0
  152.4765  141.0777  158.4194 C   0  0  0  0  0  0  0  0  0  0  0  0
  151.5177  141.3122  157.4339 C   0  0  0  0  0  0  0  0  0  0  0  0
  150.8846  140.4743  156.5090 N   0  0  0  0  0  0  0  0  0  0  0  0
  151.2372  139.0454  156.4896 C   0  0  0  0  0  0  0  0  0  0  0  0
  150.4105  138.2081  157.4864 C   0  0  2  0  0  0  0  0  0  0  0  0
  151.0198  138.2420  158.7621 O   0  0  0  0  0  0  0  0  0  0  0  0
  150.2106  136.7890  156.9790 C   0  0  0  0  0  0  0  0  0  0  0  0
  149.3930  135.8799  157.6840 C   0  0  0  0  0  0  0  0  0  0  0  0
  149.2223  134.5648  157.2106 C   0  0  0  0  0  0  0  0  0  0  0  0
  149.8592  134.1393  156.0276 C   0  0  0  0  0  0  0  0  0  0  0  0
  149.6653  132.8377  155.6242 O   0  0  0  0  0  0  0  0  0  0  0  0
  148.8180  132.5802  154.5926 C   0  0  0  0  0  0  0  0  0  0  0  0
  149.2566  133.1788  153.4581 F   0  0  0  0  0  0  0  0  0  0  0  0
  148.7725  131.2464  154.3592 F   0  0  0  0  0  0  0  0  0  0  0  0
  150.6909  135.0480  155.3305 C   0  0  0  0  0  0  0  0  0  0  0  0
  150.8621  136.3636  155.8029 C   0  0  0  0  0  0  0  0  0  0  0  0
  149.4589  140.4414  152.7517 H   0  0  0  0  0  0  0  0  0  0  0  0
  148.1111  141.0107  154.8139 H   0  0  0  0  0  0  0  0  0  0  0  0
  149.1237  139.5943  154.6407 H   0  0  0  0  0  0  0  0  0  0  0  0
  150.9938  144.6931  157.7738 H   0  0  0  0  0  0  0  0  0  0  0  0
  152.7107  144.3065  159.5498 H   0  0  0  0  0  0  0  0  0  0  0  0
  153.6352  142.0547  159.9525 H   0  0  0  0  0  0  0  0  0  0  0  0
  152.8886  140.0965  158.6022 H   0  0  0  0  0  0  0  0  0  0  0  0
  151.1068  138.6754  155.4718 H   0  0  0  0  0  0  0  0  0  0  0  0
  152.3009  138.9543  156.7082 H   0  0  0  0  0  0  0  0  0  0  0  0
  149.4276  138.6655  157.6046 H   0  0  0  0  0  0  0  0  0  0  0  0
  150.5107  137.7069  159.3518 H   0  0  0  0  0  0  0  0  0  0  0  0
  148.8966  136.1863  158.5931 H   0  0  0  0  0  0  0  0  0  0  0  0
  148.5957  133.8773  157.7596 H   0  0  0  0  0  0  0  0  0  0  0  0
  147.8035  132.9146  154.8111 H   0  0  0  0  0  0  0  0  0  0  0  0
  151.2110  134.7462  154.4338 H   0  0  0  0  0  0  0  0  0  0  0  0
  151.5012  137.0437  155.2591 H   0  0  0  0  0  0  0  0  0  0  0  0
  149.5246  143.2347  155.7624 H   0  0  0  0  0  0  0  0  0  0  0  0
  1  2  1  0  0  0  0
  1 25  1  0  0  0  0
  2  3  1  0  0  0  0
  2 26  1  0  0  0  0
  2 27  1  0  0  0  0
  3 11  1  0  0  0  0
  3  4  2  0  0  0  0
  4  5  1  0  0  0  0
  4 41  1  0  0  0  0
  5 10  2  0  0  0  0
  5  6  1  0  0  0  0
  6  7  2  0  0  0  0
  6 28  1  0  0  0  0
  7  8  1  0  0  0  0
  7 29  1  0  0  0  0
  8  9  2  0  0  0  0
  8 30  1  0  0  0  0
  9 10  1  0  0  0  0
  9 31  1  0  0  0  0
 10 11  1  0  0  0  0
 11 12  1  0  0  0  0
 12 13  1  0  0  0  0
 12 32  1  0  0  0  0
 12 33  1  0  0  0  0
 13 14  1  0  0  0  0
 13 15  1  0  0  0  0
 13 34  1  0  0  0  0
 14 35  1  0  0  0  0
 15 24  1  0  0  0  0
 15 16  2  0  0  0  0
 16 17  1  0  0  0  0
 16 36  1  0  0  0  0
 17 18  2  0  0  0  0
 17 37  1  0  0  0  0
 18 19  1  0  0  0  0
 18 23  1  0  0  0  0
 19 20  1  0  0  0  0
 20 21  1  0  0  0  0
 20 22  1  0  0  0  0
 20 38  1  0  0  0  0
 23 24  2  0  0  0  0
 23 39  1  0  0  0  0
 24 40  1  0  0  0  0
M  CHG  1   4   1
M  END
> <s_m_source_file>
AV-unprocessed.smi

> <i_m_source_file_index>
1871

> <i_lp_mmshare_version>
43012

> <i_f3d_flags>
0

> <s_epik_input>
W2NIXTFbY0hdW2NIXVtjSF1jKGMxMiluKGMobjIpW0NIMl1bT0hdKVtDSDJdW0NASF0oW09IXSljM1tjSF1bY0hdYyhPW0NIXShGKUYpW2NIXVtjSF0z

> <s_epik_cmdline>
J2VwaWtfcHl0aG9uJywgJy1waCcsICc3LjAnLCAnLXRuJywgJzgnLCAnLW1hJywgJzIwMCcsICctbWV0YWxfYmluZGluZycsICctaW1hZScsICc8aW5maWxlLm1hZT4nLCAnLW9tYWUnLCAnPG91dGZpbGUubWFlPic=

> <r_lp_tautomer_probability>
1

> <r_epik_Ionization_Penalty>
1.35642

> <r_epik_Ionization_Penalty_Charging>
1.35557

> <r_epik_Ionization_Penalty_Neutral>
0.000856035

> <r_epik_State_Penalty>
1.43401

> <r_epik_Charging_Adjusted_Penalty>
2.78958

> <i_epik_Tot_Q>
1

> <i_epik_Tot_abs_Q>
1

> <r_epik_Metal_State_Penalty>
5.47166

> <b_epik_Metal_Only>
0

> <s_lp_Force_Field>
OPLS_2005

> <r_lp_Energy>
13.1026

> <b_lp_Chiralities_Consistent>
1

> <s_lp_Variant>
AV-unprocessed.smi:1871-3

> <Gold.Version>
5.8.1

> <Gold.Id.Protein>
6NUR|6NUR_protein|mol2

> <Gold.PLP.Fitness>
52.8797

> <Gold.PLP.PLP>
-43.0607

> <Gold.PLP.part.hbond>
-3.8435

> <Gold.PLP.part.metal>
0.0000

> <Gold.PLP.part.buried>
-5.8070

> <Gold.PLP.part.nonpolar>
-34.3004

> <Gold.PLP.part.repulsive>
0.1104

> <Gold.PLP.ligand.clash>
0.0000

> <Gold.PLP.ligand.torsion>
1.0537

> <Gold.PLP.Chemscore.Hbond>
3.9410

> <Gold.PLP.Chemscore.CHOScore>
0.0000

> <Gold.PLP.Chemscore.Metal>
0.0000

> <Gold.Chemscore.Hbonds>
donor molecule, donor type, donor heavy atom, donor atom, acceptor molecule, acceptor atom, score
      L1  H     1    25       P1  7957  0.86
      L1  H     4    41       P1  8028  2.00
      P1  H  7989  7998       L1     1  0.09
      P1  H  8011  8017       L1     1  1.00

> <Gold.PLP.Chemscore.Internal.Correction>
0.1034

> <Gold.Rescore>
     Score         DG    S(hbond)    S(metal)    S(lipo)     H(rot)  DE(clash)    DE(int)     intcor
     14.88     -16.70       2.33        0.00     102.97       3.37       0.11       1.71       ----

> <Gold.Chemscore.Fitness>
14.8831

> <Gold.Chemscore.DG>
-16.7028

> <Gold.Chemscore.ZeroCoef>
-5.4800

> <Gold.Chemscore.Hbond>
2.3329

> <Gold.Chemscore.Metal>
0.0000

> <Gold.Chemscore.Lipo>
102.9696

> <Gold.Chemscore.Internal_Hbond>
0.0000

> <Gold.Chemscore.DEClash>
0.1135

> <Gold.Chemscore.DEInternal>
1.7062

> <Gold.Chemscore.Rot>
3.3659

> <Gold.Chemscore.Internal.Correction>
   9.000000E+99

> <Gold.Chemscore.Hbonds>
donor molecule, donor type, donor heavy atom, donor atom, acceptor molecule, acceptor atom, score
      L1  H     1    25       P1  7957  0.85
      L1  H     4    41       P1  8028  0.98
      P1  H  8011  8017       L1     1  0.25

> <Gold.Chemscore.Hbond.Weighted>
-7.7920

> <Gold.Chemscore.Metal.Weighted>
-0.0000

> <Gold.Chemscore.Lipo.Weighted>
-12.0474

> <Gold.Chemscore.Internal_Hbond.Weighted>
0.0000

> <Gold.Chemscore.DEClash.Weighted>
0.1135

> <Gold.Chemscore.DEInternal.Weighted>
1.7062

> <Gold.Chemscore.Rot.Weighted>
8.6167

> <Gold.Chemscore.Internal.Correction.Weighted>
   9.000000E+99

> <Gold.Protein.RotatedTorsions>
[ 6907 6896 6895 6894 ] final  149.06 input  -60.11 | X-H torsion
[ 7974 7965 7964 7962 ] final   36.92 input  175.53 | X-H torsion
[ 8008 7997 7996 7995 ] final -159.00 input   59.86 | X-H torsion
[ 10167 10162 10161 10158 ] final   88.30 input  -65.29 | X-H torsion
[ 10718 10713 10712 10709 ] final  -79.57 input   66.30 | X-H torsion
[ 10763 10752 10751 10750 ] final  -23.65 input  -60.55 | X-H torsion
[ 11005 11000 10999 10996 ] final   51.38 input  -57.11 | X-H torsion

> <Gold.Protein.ActiveResidues>
 VAL166  LYS551  ARG553  GLY616  TRP617  ASP618  TYR619  PRO620  LYS621  CYS622 
 ASP623  PHE694  ASN695  SER759  ASP760  ASP761  ALA762  ILE779  LEU786  VAL792 
 PHE793  MET794  SER795  GLU796  ALA797  LYS798  CYS799  TRP800  GLU811  SER814 

> <Gold.Protein.RotatedAtoms>
  152.1331  133.4419  159.4729 H   0  0  0  0  0  0  0  0  0  0  0  0  # atno 6907 bound_to 6896
  150.6880  134.2397  159.4476 H   0  0  0  0  0  0  0  0  0  0  0  0  # atno 6908 bound_to 6896
  152.0282  134.9783  160.0622 H   0  0  0  0  0  0  0  0  0  0  0  0  # atno 6909 bound_to 6896
  146.1176  139.5958  142.9311 H   0  0  0  0  0  0  0  0  0  0  0  0  # atno 7974 bound_to 7965
  155.7560  140.0833  157.2178 H   0  0  0  0  0  0  0  0  0  0  0  0  # atno 8008 bound_to 7997
  154.4007  140.1551  156.2835 H   0  0  0  0  0  0  0  0  0  0  0  0  # atno 8009 bound_to 7997
  155.8885  140.3416  155.5941 H   0  0  0  0  0  0  0  0  0  0  0  0  # atno 8010 bound_to 7997
  139.8687  144.6505  150.8974 H   0  0  0  0  0  0  0  0  0  0  0  0  # atno 10167 bound_to 10162
  156.0089  130.4549  150.3668 H   0  0  0  0  0  0  0  0  0  0  0  0  # atno 10718 bound_to 10713
  153.6711  135.6971  153.5147 H   0  0  0  0  0  0  0  0  0  0  0  0  # atno 10763 bound_to 10752
  153.2557  135.4261  155.0842 H   0  0  0  0  0  0  0  0  0  0  0  0  # atno 10764 bound_to 10752
  154.8426  135.3542  154.6255 H   0  0  0  0  0  0  0  0  0  0  0  0  # atno 10765 bound_to 10752
  140.0937  134.5174  155.8827 H   0  0  0  0  0  0  0  0  0  0  0  0  # atno 11005 bound_to 11000
  145.5534  141.0411  143.2266 LP  0  0  0  0  0  0  0  0  0  0  0  0  # atno 17320 bound_to 7965
  144.7567  139.7056  143.7251 LP  0  0  0  0  0  0  0  0  0  0  0  0  # atno 17321 bound_to 7965
  140.7764  143.3682  151.1698 LP  0  0  0  0  0  0  0  0  0  0  0  0  # atno 17342 bound_to 10162
  139.7305  143.9081  152.3017 LP  0  0  0  0  0  0  0  0  0  0  0  0  # atno 17343 bound_to 10162
  157.1754  131.0379  151.2775 LP  0  0  0  0  0  0  0  0  0  0  0  0  # atno 17370 bound_to 10713
  157.4192  130.7428  149.6900 LP  0  0  0  0  0  0  0  0  0  0  0  0  # atno 17371 bound_to 10713
  141.2086  133.6675  156.6380 LP  0  0  0  0  0  0  0  0  0  0  0  0  # atno 17394 bound_to 11000
  140.3316  134.7924  157.4330 LP  0  0  0  0  0  0  0  0  0  0  0  0  # atno 17395 bound_to 11000

$$$$
