AV-unprocessed.smi:2095|AV-procd|sdf|8561|dock5
  -GOLD-   2272011283D 1   1.00000     0.00000
 Structure written by MMmdl.
 42 43  0  0  0  0  0  0  0  0  2 V2000
  153.4936  142.5757  161.4675 C   0  0  0  0  0  0  0  0  0  0  0  0
  152.2132  143.2010  160.8966 C   0  0  1  0  0  0  0  0  0  0  0  0
  152.4206  144.6829  160.5384 C   0  0  0  0  0  0  0  0  0  0  0  0
  151.1347  145.2747  159.9457 C   0  0  0  0  0  0  0  0  0  0  0  0
  150.6564  144.4488  158.7418 C   0  0  0  0  0  0  0  0  0  0  0  0
  150.4547  143.0261  159.1291 N   0  3  1  0  0  0  0  0  0  0  0  0
  149.7745  142.1753  158.1095 C   0  0  1  0  0  0  0  0  0  0  0  0
  148.2731  142.5123  158.0366 C   0  0  0  0  0  0  0  0  0  0  0  0
  150.4628  142.2171  156.7212 C   0  0  0  0  0  0  0  0  0  0  0  0
  150.3729  140.9407  156.0209 N   0  0  0  0  0  0  0  0  0  0  0  0
  149.7818  140.7586  154.8294 C   0  0  0  0  0  0  0  0  0  0  0  0
  149.2474  141.6674  154.1948 O   0  0  0  0  0  0  0  0  0  0  0  0
  149.8074  139.3397  154.2590 C   0  0  0  0  0  0  0  0  0  0  0  0
  151.1433  138.7756  154.3089 N   0  0  0  0  0  0  0  0  0  0  0  0
  151.5860  137.5434  154.0501 C   0  0  0  0  0  0  0  0  0  0  0  0
  152.8940  137.4462  154.2330 N   0  0  0  0  0  0  0  0  0  0  0  0
  153.2526  138.7235  154.6309 N   0  0  0  0  0  0  0  0  0  0  0  0
  152.2181  139.5169  154.6775 N   0  0  0  0  0  0  0  0  0  0  0  0
  151.7010  142.4197  159.6695 C   0  0  0  0  0  0  0  0  0  0  0  0
  154.3040  142.5938  160.7379 H   0  0  0  0  0  0  0  0  0  0  0  0
  153.3286  141.5373  161.7566 H   0  0  0  0  0  0  0  0  0  0  0  0
  153.8316  143.1137  162.3538 H   0  0  0  0  0  0  0  0  0  0  0  0
  151.4485  143.1463  161.6730 H   0  0  0  0  0  0  0  0  0  0  0  0
  152.7153  145.2491  161.4227 H   0  0  0  0  0  0  0  0  0  0  0  0
  153.2351  144.7821  159.8192 H   0  0  0  0  0  0  0  0  0  0  0  0
  150.3548  145.2984  160.7080 H   0  0  0  0  0  0  0  0  0  0  0  0
  151.3057  146.3087  159.6446 H   0  0  0  0  0  0  0  0  0  0  0  0
  149.7288  144.8770  158.3632 H   0  0  0  0  0  0  0  0  0  0  0  0
  151.3916  144.5189  157.9393 H   0  0  0  0  0  0  0  0  0  0  0  0
  149.8260  141.1498  158.4782 H   0  0  0  0  0  0  0  0  0  0  0  0
  147.7327  141.7843  157.4310 H   0  0  0  0  0  0  0  0  0  0  0  0
  148.0952  143.4942  157.5986 H   0  0  0  0  0  0  0  0  0  0  0  0
  147.8204  142.5020  159.0285 H   0  0  0  0  0  0  0  0  0  0  0  0
  149.9909  142.9639  156.0826 H   0  0  0  0  0  0  0  0  0  0  0  0
  151.5108  142.5060  156.8098 H   0  0  0  0  0  0  0  0  0  0  0  0
  150.7846  140.1378  156.4753 H   0  0  0  0  0  0  0  0  0  0  0  0
  149.1348  138.6954  154.8268 H   0  0  0  0  0  0  0  0  0  0  0  0
  149.4533  139.3465  153.2271 H   0  0  0  0  0  0  0  0  0  0  0  0
  150.9558  136.7248  153.7349 H   0  0  0  0  0  0  0  0  0  0  0  0
  152.4671  142.3927  158.8934 H   0  0  0  0  0  0  0  0  0  0  0  0
  151.5099  141.3858  159.9605 H   0  0  0  0  0  0  0  0  0  0  0  0
  149.8177  143.0458  159.9126 H   0  0  0  0  0  0  0  0  0  0  0  0
  1  2  1  0  0  0  0
  1 20  1  0  0  0  0
  1 21  1  0  0  0  0
  1 22  1  0  0  0  0
  2 19  1  0  0  0  0
  2  3  1  0  0  0  0
  2 23  1  0  0  0  0
  3  4  1  0  0  0  0
  3 24  1  0  0  0  0
  3 25  1  0  0  0  0
  4  5  1  0  0  0  0
  4 26  1  0  0  0  0
  4 27  1  0  0  0  0
  5  6  1  0  0  0  0
  5 28  1  0  0  0  0
  5 29  1  0  0  0  0
  6  7  1  0  0  0  0
  6 19  1  0  0  0  0
  6 42  1  0  0  0  0
  7  8  1  0  0  0  0
  7  9  1  0  0  0  0
  7 30  1  0  0  0  0
  8 31  1  0  0  0  0
  8 32  1  0  0  0  0
  8 33  1  0  0  0  0
  9 10  1  0  0  0  0
  9 34  1  0  0  0  0
  9 35  1  0  0  0  0
 10 11  1  0  0  0  0
 10 36  1  0  0  0  0
 11 12  2  0  0  0  0
 11 13  1  0  0  0  0
 13 14  1  0  0  0  0
 13 37  1  0  0  0  0
 13 38  1  0  0  0  0
 14 18  1  0  0  0  0
 14 15  1  0  0  0  0
 15 16  2  0  0  0  0
 15 39  1  0  0  0  0
 16 17  1  0  0  0  0
 17 18  2  0  0  0  0
 19 40  1  0  0  0  0
 19 41  1  0  0  0  0
M  CHG  1   6   1
M  END
> <s_m_source_file>
AV-unprocessed.smi

> <i_m_source_file_index>
2095

> <i_lp_mmshare_version>
43012

> <i_f3d_flags>
0

> <s_epik_input>
W0NIM11bQ0BASF0xW0NIMl1bQ0gyXVtDSDJdTihbQ0gyXTEpW0NASF0oW0NIM10pW0NIMl1bTkhdQyg9TylbQ0gyXW4yW2NIXW5ubjI=

> <s_epik_cmdline>
J2VwaWtfcHl0aG9uJywgJy1waCcsICc3LjAnLCAnLXRuJywgJzgnLCAnLW1hJywgJzIwMCcsICctbWV0YWxfYmluZGluZycsICctaW1hZScsICc8aW5maWxlLm1hZT4nLCAnLW9tYWUnLCAnPG91dGZpbGUubWFlPic=

> <r_lp_tautomer_probability>
1

> <r_epik_Ionization_Penalty>
0.00268321

> <r_epik_Ionization_Penalty_Charging>
0.00267875

> <r_epik_Ionization_Penalty_Neutral>
4.46125e-06

> <r_epik_State_Penalty>
0.00186642

> <r_epik_Charging_Adjusted_Penalty>
0.00454517

> <i_epik_Tot_Q>
1

> <i_epik_Tot_abs_Q>
1

> <r_epik_Metal_State_Penalty>
-0

> <b_epik_Metal_Only>
0

> <s_lp_Force_Field>
OPLS_2005

> <r_lp_Energy>
22.3019

> <b_lp_Chiralities_Consistent>
1

> <s_lp_Variant>
AV-unprocessed.smi:2095-8

> <Gold.Version>
5.8.1

> <Gold.Id.Protein>
6NUR|6NUR_protein|mol2

> <Gold.PLP.Fitness>
41.4924

> <Gold.PLP.PLP>
-36.1283

> <Gold.PLP.part.hbond>
-3.6281

> <Gold.PLP.part.metal>
0.0000

> <Gold.PLP.part.buried>
-2.7781

> <Gold.PLP.part.nonpolar>
-29.1983

> <Gold.PLP.part.repulsive>
0.5562

> <Gold.PLP.ligand.clash>
0.0000

> <Gold.PLP.ligand.torsion>
0.8030

> <Gold.PLP.Chemscore.Hbond>
1.5426

> <Gold.PLP.Chemscore.CHOScore>
0.7458

> <Gold.PLP.Chemscore.Metal>
0.0000

> <Gold.Chemscore.Hbonds>
donor molecule, donor type, donor heavy atom, donor atom, acceptor molecule, acceptor atom, score
      P1  H  7989  7998       L1    18  0.39
      P1  H  7997  8009       L1    17  0.25
      P1  H  8011  8017       L1    12  0.50
      P1  H 10752 10764       L1    16  0.39
      L1  C    15    39       P1  7948  0.08
      L1  C    15    39       P1  7949  0.74

> <Gold.PLP.Chemscore.Internal.Correction>
0.1046

> <Gold.Rescore>
     Score         DG    S(hbond)    S(metal)    S(lipo)     H(rot)  DE(clash)    DE(int)     intcor
     11.15     -13.59       1.54        0.00      83.29       2.64       0.18       2.26       ----

> <Gold.Chemscore.Fitness>
11.1496

> <Gold.Chemscore.DG>
-13.5926

> <Gold.Chemscore.ZeroCoef>
-5.4800

> <Gold.Chemscore.Hbond>
1.5378

> <Gold.Chemscore.Metal>
0.0000

> <Gold.Chemscore.Lipo>
83.2893

> <Gold.Chemscore.Internal_Hbond>
0.0000

> <Gold.Chemscore.DEClash>
0.1824

> <Gold.Chemscore.DEInternal>
2.2607

> <Gold.Chemscore.Rot>
2.6439

> <Gold.Chemscore.Internal.Correction>
   9.000000E+99

> <Gold.Chemscore.Hbonds>
donor molecule, donor type, donor heavy atom, donor atom, acceptor molecule, acceptor atom, score
      P1  H  7989  7998       L1    18  0.02
      P1  H  7997  8009       L1    17  0.02
      P1  H  8011  8017       L1    12  0.48
      P1  H 10752 10764       L1    16  0.08

> <Gold.Chemscore.Hbond.Weighted>
-5.1362

> <Gold.Chemscore.Metal.Weighted>
-0.0000

> <Gold.Chemscore.Lipo.Weighted>
-9.7448

> <Gold.Chemscore.Internal_Hbond.Weighted>
0.0000

> <Gold.Chemscore.DEClash.Weighted>
0.1824

> <Gold.Chemscore.DEInternal.Weighted>
2.2607

> <Gold.Chemscore.Rot.Weighted>
6.7685

> <Gold.Chemscore.Internal.Correction.Weighted>
   9.000000E+99

> <Gold.Protein.RotatedTorsions>
[ 6907 6896 6895 6894 ] final    5.41 input  -60.11 | X-H torsion
[ 7974 7965 7964 7962 ] final   28.70 input  175.53 | X-H torsion
[ 8008 7997 7996 7995 ] final -126.77 input   59.86 | X-H torsion
[ 10167 10162 10161 10158 ] final -116.03 input  -65.29 | X-H torsion
[ 10718 10713 10712 10709 ] final   -0.22 input   66.30 | X-H torsion
[ 10763 10752 10751 10750 ] final  -84.63 input  -60.55 | X-H torsion
[ 11005 11000 10999 10996 ] final  -44.69 input  -57.11 | X-H torsion

> <Gold.Protein.ActiveResidues>
 VAL166  LYS551  ARG553  GLY616  TRP617  ASP618  TYR619  PRO620  LYS621  CYS622 
 ASP623  PHE694  ASN695  SER759  ASP760  ASP761  ALA762  ILE779  LEU786  VAL792 
 PHE793  MET794  SER795  GLU796  ALA797  LYS798  CYS799  TRP800  GLU811  SER814 

> <Gold.Protein.RotatedAtoms>
  151.6570  135.0994  160.0171 H   0  0  0  0  0  0  0  0  0  0  0  0  # atno 6907 bound_to 6896
  152.3968  133.6754  159.6291 H   0  0  0  0  0  0  0  0  0  0  0  0  # atno 6908 bound_to 6896
  150.7874  133.8777  159.3318 H   0  0  0  0  0  0  0  0  0  0  0  0  # atno 6909 bound_to 6896
  146.1714  139.7020  142.8965 H   0  0  0  0  0  0  0  0  0  0  0  0  # atno 7974 bound_to 7965
  155.2353  140.0426  157.2967 H   0  0  0  0  0  0  0  0  0  0  0  0  # atno 8008 bound_to 7997
  154.5863  140.2414  155.7953 H   0  0  0  0  0  0  0  0  0  0  0  0  # atno 8009 bound_to 7997
  156.2228  140.2964  156.0002 H   0  0  0  0  0  0  0  0  0  0  0  0  # atno 8010 bound_to 7997
  140.0836  143.4764  152.1911 H   0  0  0  0  0  0  0  0  0  0  0  0  # atno 10167 bound_to 10162
  156.8237  130.5465  149.5694 H   0  0  0  0  0  0  0  0  0  0  0  0  # atno 10718 bound_to 10713
  154.6018  135.5514  153.7382 H   0  0  0  0  0  0  0  0  0  0  0  0  # atno 10763 bound_to 10752
  153.0158  135.6368  154.1704 H   0  0  0  0  0  0  0  0  0  0  0  0  # atno 10764 bound_to 10752
  154.1644  135.2895  155.3079 H   0  0  0  0  0  0  0  0  0  0  0  0  # atno 10765 bound_to 10752
  141.0467  133.6758  156.2908 H   0  0  0  0  0  0  0  0  0  0  0  0  # atno 11005 bound_to 11000
  145.4331  141.0416  143.2900 LP  0  0  0  0  0  0  0  0  0  0  0  0  # atno 17320 bound_to 7965
  144.8168  139.5862  143.7004 LP  0  0  0  0  0  0  0  0  0  0  0  0  # atno 17321 bound_to 7965
  139.5765  144.7490  151.3751 LP  0  0  0  0  0  0  0  0  0  0  0  0  # atno 17342 bound_to 10162
  140.7065  143.7501  150.7491 LP  0  0  0  0  0  0  0  0  0  0  0  0  # atno 17343 bound_to 10162
  156.0974  130.5943  150.9836 LP  0  0  0  0  0  0  0  0  0  0  0  0  # atno 17370 bound_to 10713
  157.6443  131.0906  150.8186 LP  0  0  0  0  0  0  0  0  0  0  0  0  # atno 17371 bound_to 10713
  140.6133  134.5436  157.5537 LP  0  0  0  0  0  0  0  0  0  0  0  0  # atno 17394 bound_to 11000
  139.9317  134.7951  156.0912 LP  0  0  0  0  0  0  0  0  0  0  0  0  # atno 17395 bound_to 11000

$$$$
