AV-unprocessed.smi:3274|AV-procd|sdf|12522|dock4
  -GOLD-   2272018433D 1   1.00000     0.00000
 Structure written by MMmdl.
 43 44  0  0  0  0  0  0  0  0  2 V2000
  151.8245  144.4688  158.7436 C   0  0  0  0  0  0  0  0  0  0  0  0
  152.4027  143.5810  159.8332 C   0  0  0  0  0  0  0  0  0  0  0  0
  152.3692  143.9655  161.1246 C   0  0  0  0  0  0  0  0  0  0  0  0
  152.9613  143.1772  162.2796 C   0  0  0  0  0  0  0  0  0  0  0  0
  153.4485  141.7782  161.8684 C   0  0  0  0  0  0  0  0  0  0  0  0
  154.0829  141.7937  160.4673 C   0  0  1  0  0  0  0  0  0  0  0  0
  154.7890  140.4673  160.1378 C   0  0  0  0  0  0  0  0  0  0  0  0
  153.0571  142.2627  159.3962 C   0  0  1  0  0  0  0  0  0  0  0  0
  152.0041  141.1785  159.0488 C   0  0  0  0  0  0  0  0  0  0  0  0
  152.3499  140.4149  157.8308 N   0  3  0  0  0  0  0  0  0  0  0  0
  151.2771  140.3187  156.8165 C   0  0  2  0  0  0  0  0  0  0  0  0
  151.8449  139.6847  155.5355 C   0  0  0  0  0  0  0  0  0  0  0  0
  150.6404  141.7037  156.5539 C   0  0  0  0  0  0  0  0  0  0  0  0
  149.3327  141.6194  155.9294 N   0  0  0  0  0  0  0  0  0  0  0  0
  148.1368  142.0293  156.3559 C   0  0  0  0  0  0  0  0  0  0  0  0
  147.1490  141.7634  155.5129 N   0  0  0  0  0  0  0  0  0  0  0  0
  147.8536  141.1365  154.5242 C   0  0  0  0  0  0  0  0  0  0  0  0
  149.1659  141.0191  154.7275 N   0  0  0  0  0  0  0  0  0  0  0  0
  152.5327  144.5792  157.9221 H   0  0  0  0  0  0  0  0  0  0  0  0
  151.6056  145.4659  159.1272 H   0  0  0  0  0  0  0  0  0  0  0  0
  150.8931  144.0635  158.3516 H   0  0  0  0  0  0  0  0  0  0  0  0
  151.9207  144.9124  161.3884 H   0  0  0  0  0  0  0  0  0  0  0  0
  153.7976  143.7555  162.6736 H   0  0  0  0  0  0  0  0  0  0  0  0
  152.2272  143.0989  163.0821 H   0  0  0  0  0  0  0  0  0  0  0  0
  154.1627  141.4141  162.6079 H   0  0  0  0  0  0  0  0  0  0  0  0
  152.6130  141.0780  161.8871 H   0  0  0  0  0  0  0  0  0  0  0  0
  154.8736  142.5463  160.4902 H   0  0  0  0  0  0  0  0  0  0  0  0
  154.1202  139.6119  160.2343 H   0  0  0  0  0  0  0  0  0  0  0  0
  155.6241  140.2966  160.8177 H   0  0  0  0  0  0  0  0  0  0  0  0
  155.1899  140.4741  159.1238 H   0  0  0  0  0  0  0  0  0  0  0  0
  153.6302  142.4731  158.4919 H   0  0  0  0  0  0  0  0  0  0  0  0
  151.9146  140.4531  159.8560 H   0  0  0  0  0  0  0  0  0  0  0  0
  151.0257  141.6425  158.9306 H   0  0  0  0  0  0  0  0  0  0  0  0
  153.1666  140.8260  157.4017 H   0  0  0  0  0  0  0  0  0  0  0  0
  150.5130  139.6418  157.2021 H   0  0  0  0  0  0  0  0  0  0  0  0
  151.0661  139.5148  154.7916 H   0  0  0  0  0  0  0  0  0  0  0  0
  152.3021  138.7174  155.7468 H   0  0  0  0  0  0  0  0  0  0  0  0
  152.6060  140.3204  155.0816 H   0  0  0  0  0  0  0  0  0  0  0  0
  150.5258  142.2662  157.4803 H   0  0  0  0  0  0  0  0  0  0  0  0
  151.2898  142.2975  155.9088 H   0  0  0  0  0  0  0  0  0  0  0  0
  147.9842  142.5322  157.2996 H   0  0  0  0  0  0  0  0  0  0  0  0
  147.3855  140.7533  153.6293 H   0  0  0  0  0  0  0  0  0  0  0  0
  152.5823  139.4769  158.1246 H   0  0  0  0  0  0  0  0  0  0  0  0
  1  2  1  0  0  0  0
  1 19  1  0  0  0  0
  1 20  1  0  0  0  0
  1 21  1  0  0  0  0
  2  8  1  0  0  0  0
  2  3  2  0  0  0  0
  3  4  1  0  0  0  0
  3 22  1  0  0  0  0
  4  5  1  0  0  0  0
  4 23  1  0  0  0  0
  4 24  1  0  0  0  0
  5  6  1  0  0  0  0
  5 25  1  0  0  0  0
  5 26  1  0  0  0  0
  6  7  1  0  0  0  0
  6  8  1  0  0  0  0
  6 27  1  0  0  0  0
  7 28  1  0  0  0  0
  7 29  1  0  0  0  0
  7 30  1  0  0  0  0
  8  9  1  0  0  0  0
  8 31  1  0  0  0  0
  9 10  1  0  0  0  0
  9 32  1  0  0  0  0
  9 33  1  0  0  0  0
 10 11  1  0  0  0  0
 10 34  1  0  0  0  0
 10 43  1  0  0  0  0
 11 12  1  0  0  0  0
 11 13  1  0  0  0  0
 11 35  1  0  0  0  0
 12 36  1  0  0  0  0
 12 37  1  0  0  0  0
 12 38  1  0  0  0  0
 13 14  1  0  0  0  0
 13 39  1  0  0  0  0
 13 40  1  0  0  0  0
 14 18  1  0  0  0  0
 14 15  1  0  0  0  0
 15 16  2  0  0  0  0
 15 41  1  0  0  0  0
 16 17  1  0  0  0  0
 17 18  2  0  0  0  0
 17 42  1  0  0  0  0
M  CHG  1  10   1
M  END
> <s_m_source_file>
AV-unprocessed.smi

> <i_m_source_file_index>
3274

> <i_lp_mmshare_version>
43012

> <i_f3d_flags>
0

> <s_epik_input>
W0NIM11DMT1bQ0hdW0NIMl1bQ0gyXVtDQEBIXShbQ0gzXSlbQ0BIXTFbQ0gyXVtOSF1bQ0BIXShbQ0gzXSlbQ0gyXW4yW2NIXW5bY0hdbjI=

> <s_epik_cmdline>
J2VwaWtfcHl0aG9uJywgJy1waCcsICc3LjAnLCAnLXRuJywgJzgnLCAnLW1hJywgJzIwMCcsICctbWV0YWxfYmluZGluZycsICctaW1hZScsICc8aW5maWxlLm1hZT4nLCAnLW9tYWUnLCAnPG91dGZpbGUubWFlPic=

> <r_lp_tautomer_probability>
1

> <r_epik_Ionization_Penalty>
0.0017527

> <r_epik_Ionization_Penalty_Charging>
0.00175191

> <r_epik_Ionization_Penalty_Neutral>
7.94565e-07

> <r_epik_State_Penalty>
0.00118605

> <r_epik_Charging_Adjusted_Penalty>
0.00293796

> <i_epik_Tot_Q>
1

> <i_epik_Tot_abs_Q>
1

> <r_epik_Metal_State_Penalty>
-0

> <b_epik_Metal_Only>
0

> <s_lp_Force_Field>
OPLS_2005

> <r_lp_Energy>
17.2811

> <b_lp_Chiralities_Consistent>
1

> <s_lp_Variant>
AV-unprocessed.smi:3274-1

> <Gold.Version>
5.8.1

> <Gold.Id.Protein>
6NUR|6NUR_protein|mol2

> <Gold.PLP.Fitness>
52.1393

> <Gold.PLP.PLP>
-46.8081

> <Gold.PLP.part.hbond>
-1.0000

> <Gold.PLP.part.metal>
0.0000

> <Gold.PLP.part.buried>
-1.0872

> <Gold.PLP.part.nonpolar>
-43.4663

> <Gold.PLP.part.repulsive>
0.3396

> <Gold.PLP.ligand.clash>
0.0000

> <Gold.PLP.ligand.torsion>
1.1188

> <Gold.PLP.Chemscore.Hbond>
0.9760

> <Gold.PLP.Chemscore.CHOScore>
1.5356

> <Gold.PLP.Chemscore.Metal>
0.0000

> <Gold.PLP.Chemscore.Internal.Correction>
0.0341

> <Gold.Rescore>
     Score         DG    S(hbond)    S(metal)    S(lipo)     H(rot)  DE(clash)    DE(int)     intcor
     14.12     -15.33       0.60        0.00     118.80       2.36       0.14       1.07       ----

> <Gold.Chemscore.Fitness>
14.1221

> <Gold.Chemscore.DG>
-15.3332

> <Gold.Chemscore.ZeroCoef>
-5.4800

> <Gold.Chemscore.Hbond>
0.5984

> <Gold.Chemscore.Metal>
0.0000

> <Gold.Chemscore.Lipo>
118.8018

> <Gold.Chemscore.Internal_Hbond>
0.0000

> <Gold.Chemscore.DEClash>
0.1363

> <Gold.Chemscore.DEInternal>
1.0747

> <Gold.Chemscore.Rot>
2.3615

> <Gold.Chemscore.Internal.Correction>
   9.000000E+99

> <Gold.Chemscore.Hbond.Weighted>
-1.9988

> <Gold.Chemscore.Metal.Weighted>
-0.0000

> <Gold.Chemscore.Lipo.Weighted>
-13.8998

> <Gold.Chemscore.Internal_Hbond.Weighted>
0.0000

> <Gold.Chemscore.DEClash.Weighted>
0.1363

> <Gold.Chemscore.DEInternal.Weighted>
1.0747

> <Gold.Chemscore.Rot.Weighted>
6.0454

> <Gold.Chemscore.Internal.Correction.Weighted>
   9.000000E+99

> <Gold.Protein.RotatedTorsions>
[ 6907 6896 6895 6894 ] final  -65.29 input  -60.11 | X-H torsion
[ 7974 7965 7964 7962 ] final   -6.20 input  175.53 | X-H torsion
[ 8008 7997 7996 7995 ] final  -95.59 input   59.86 | X-H torsion
[ 10167 10162 10161 10158 ] final   67.85 input  -65.29 | X-H torsion
[ 10718 10713 10712 10709 ] final  -32.47 input   66.30 | X-H torsion
[ 10763 10752 10751 10750 ] final  -71.64 input  -60.55 | X-H torsion
[ 11005 11000 10999 10996 ] final   60.91 input  -57.11 | X-H torsion

> <Gold.Protein.ActiveResidues>
 VAL166  LYS551  ARG553  GLY616  TRP617  ASP618  TYR619  PRO620  LYS621  CYS622 
 ASP623  PHE694  ASN695  SER759  ASP760  ASP761  ALA762  ILE779  LEU786  VAL792 
 PHE793  MET794  SER795  GLU796  ALA797  LYS798  CYS799  TRP800  GLU811  SER814 

> <Gold.Protein.RotatedAtoms>
  150.7533  134.6181  159.6121 H   0  0  0  0  0  0  0  0  0  0  0  0  # atno 6907 bound_to 6896
  152.3495  134.7022  160.0249 H   0  0  0  0  0  0  0  0  0  0  0  0  # atno 6908 bound_to 6896
  151.7447  133.3288  159.3412 H   0  0  0  0  0  0  0  0  0  0  0  0  # atno 6909 bound_to 6896
  146.2336  140.2135  142.8336 H   0  0  0  0  0  0  0  0  0  0  0  0  # atno 7974 bound_to 7965
  154.7634  140.0479  157.0992 H   0  0  0  0  0  0  0  0  0  0  0  0  # atno 8008 bound_to 7997
  154.9910  140.3113  155.4887 H   0  0  0  0  0  0  0  0  0  0  0  0  # atno 8009 bound_to 7997
  156.2908  140.2218  156.5015 H   0  0  0  0  0  0  0  0  0  0  0  0  # atno 8010 bound_to 7997
  140.0850  144.5038  150.7136 H   0  0  0  0  0  0  0  0  0  0  0  0  # atno 10167 bound_to 10162
  156.3745  130.4345  149.7518 H   0  0  0  0  0  0  0  0  0  0  0  0  # atno 10718 bound_to 10713
  154.4346  135.5955  153.6090 H   0  0  0  0  0  0  0  0  0  0  0  0  # atno 10763 bound_to 10752
  152.9801  135.5983  154.3797 H   0  0  0  0  0  0  0  0  0  0  0  0  # atno 10764 bound_to 10752
  154.3639  135.2841  155.2283 H   0  0  0  0  0  0  0  0  0  0  0  0  # atno 10765 bound_to 10752
  140.0198  134.6170  155.9656 H   0  0  0  0  0  0  0  0  0  0  0  0  # atno 11005 bound_to 11000
  144.9688  140.8348  143.5468 LP  0  0  0  0  0  0  0  0  0  0  0  0  # atno 17320 bound_to 7965
  145.2114  139.2203  143.5141 LP  0  0  0  0  0  0  0  0  0  0  0  0  # atno 17321 bound_to 7965
  140.7058  143.2467  151.4730 LP  0  0  0  0  0  0  0  0  0  0  0  0  # atno 17342 bound_to 10162
  139.5757  144.1824  152.1900 LP  0  0  0  0  0  0  0  0  0  0  0  0  # atno 17343 bound_to 10162
  156.4633  130.7962  151.2981 LP  0  0  0  0  0  0  0  0  0  0  0  0  # atno 17370 bound_to 10713
  157.7487  131.0059  150.3131 LP  0  0  0  0  0  0  0  0  0  0  0  0  # atno 17371 bound_to 10713
  141.1766  133.6541  156.4854 LP  0  0  0  0  0  0  0  0  0  0  0  0  # atno 17394 bound_to 11000
  140.4407  134.7018  157.4990 LP  0  0  0  0  0  0  0  0  0  0  0  0  # atno 17395 bound_to 11000

$$$$
