AV-unprocessed.smi:3345|AV-procd|sdf|12902|dock2
  -GOLD-   2272019313D 1   1.00000     0.00000
 Structure written by MMmdl.
 40 41  0  0  0  0  0  0  0  0  1 V2000
  154.6901  140.0305  159.9517 C   0  0  0  0  0  0  0  0  0  0  0  0
  153.3344  140.7207  160.1498 C   0  0  1  0  0  0  0  0  0  0  0  0
  153.5015  142.1751  160.6408 C   0  0  0  0  0  0  0  0  0  0  0  0
  152.5563  143.1415  160.0764 N   0  0  0  0  0  0  0  0  0  0  0  0
  152.1885  144.1929  161.0215 C   0  0  0  0  0  0  0  0  0  0  0  0
  151.1952  145.1922  160.4041 C   0  0  0  0  0  0  0  0  0  0  0  0
  151.7506  145.7470  159.2162 O   0  0  0  0  0  0  0  0  0  0  0  0
  152.0855  144.7555  158.2506 C   0  0  0  0  0  0  0  0  0  0  0  0
  153.0812  143.7546  158.8623 C   0  0  0  0  0  0  0  0  0  0  0  0
  152.5953  140.7162  158.8897 N   0  0  0  0  0  0  0  0  0  0  0  0
  152.1439  139.6272  158.2468 C   0  0  0  0  0  0  0  0  0  0  0  0
  152.4575  138.4773  158.5567 O   0  0  0  0  0  0  0  0  0  0  0  0
  151.1465  139.8905  157.1090 C   0  0  1  0  0  0  0  0  0  0  0  0
  151.0838  141.3751  156.6944 C   0  0  0  0  0  0  0  0  0  0  0  0
  151.4510  139.0121  155.9845 N   0  0  0  0  0  0  0  0  0  0  0  0
  152.5333  138.2665  155.7488 C   0  0  0  0  0  0  0  0  0  0  0  0
  152.5124  137.6381  154.5820 N   0  0  0  0  0  0  0  0  0  0  0  0
  151.3102  138.0799  154.1076 C   0  0  0  0  0  0  0  0  0  0  0  0
  150.6391  138.9132  154.9022 N   0  0  0  0  0  0  0  0  0  0  0  0
  155.2591  140.0131  160.8816 H   0  0  0  0  0  0  0  0  0  0  0  0
  155.2937  140.5435  159.2020 H   0  0  0  0  0  0  0  0  0  0  0  0
  154.5604  138.9979  159.6259 H   0  0  0  0  0  0  0  0  0  0  0  0
  152.7962  140.1537  160.9103 H   0  0  0  0  0  0  0  0  0  0  0  0
  153.4456  142.2001  161.7301 H   0  0  0  0  0  0  0  0  0  0  0  0
  154.5142  142.4943  160.3892 H   0  0  0  0  0  0  0  0  0  0  0  0
  151.7365  143.7616  161.9137 H   0  0  0  0  0  0  0  0  0  0  0  0
  153.0823  144.7257  161.3493 H   0  0  0  0  0  0  0  0  0  0  0  0
  150.2472  144.7026  160.1771 H   0  0  0  0  0  0  0  0  0  0  0  0
  150.9796  145.9967  161.1073 H   0  0  0  0  0  0  0  0  0  0  0  0
  151.1815  144.2459  157.9147 H   0  0  0  0  0  0  0  0  0  0  0  0
  152.5227  145.2401  157.3777 H   0  0  0  0  0  0  0  0  0  0  0  0
  154.0195  144.2664  159.0817 H   0  0  0  0  0  0  0  0  0  0  0  0
  153.3108  142.9826  158.1270 H   0  0  0  0  0  0  0  0  0  0  0  0
  152.2922  141.6166  158.5485 H   0  0  0  0  0  0  0  0  0  0  0  0
  150.1559  139.6133  157.4735 H   0  0  0  0  0  0  0  0  0  0  0  0
  150.7951  142.0054  157.5361 H   0  0  0  0  0  0  0  0  0  0  0  0
  150.3464  141.5269  155.9057 H   0  0  0  0  0  0  0  0  0  0  0  0
  152.0429  141.7392  156.3233 H   0  0  0  0  0  0  0  0  0  0  0  0
  153.3587  138.1904  156.4413 H   0  0  0  0  0  0  0  0  0  0  0  0
  150.9224  137.7862  153.1433 H   0  0  0  0  0  0  0  0  0  0  0  0
  1  2  1  0  0  0  0
  1 20  1  0  0  0  0
  1 21  1  0  0  0  0
  1 22  1  0  0  0  0
  2  3  1  0  0  0  0
  2 10  1  0  0  0  0
  2 23  1  0  0  0  0
  3  4  1  0  0  0  0
  3 24  1  0  0  0  0
  3 25  1  0  0  0  0
  4  9  1  0  0  0  0
  4  5  1  0  0  0  0
  5  6  1  0  0  0  0
  5 26  1  0  0  0  0
  5 27  1  0  0  0  0
  6  7  1  0  0  0  0
  6 28  1  0  0  0  0
  6 29  1  0  0  0  0
  7  8  1  0  0  0  0
  8  9  1  0  0  0  0
  8 30  1  0  0  0  0
  8 31  1  0  0  0  0
  9 32  1  0  0  0  0
  9 33  1  0  0  0  0
 10 11  1  0  0  0  0
 10 34  1  0  0  0  0
 11 12  2  0  0  0  0
 11 13  1  0  0  0  0
 13 14  1  0  0  0  0
 13 15  1  0  0  0  0
 13 35  1  0  0  0  0
 14 36  1  0  0  0  0
 14 37  1  0  0  0  0
 14 38  1  0  0  0  0
 15 19  1  0  0  0  0
 15 16  1  0  0  0  0
 16 17  2  0  0  0  0
 16 39  1  0  0  0  0
 17 18  1  0  0  0  0
 18 19  2  0  0  0  0
 18 40  1  0  0  0  0
M  END
> <s_m_source_file>
AV-unprocessed.smi

> <i_m_source_file_index>
3345

> <i_lp_mmshare_version>
43012

> <i_f3d_flags>
0

> <s_epik_input>
W0NIMl0xW0NIMl1PW0NIMl1bQ0gyXU4xW0NIMl1bQ0BASF0oW0NIM10pW05IXUMoPU8pW0NASF0oW0NIM10pbjJbY0hdbltjSF1uMg==

> <s_epik_cmdline>
J2VwaWtfcHl0aG9uJywgJy1waCcsICc3LjAnLCAnLXRuJywgJzgnLCAnLW1hJywgJzIwMCcsICctbWV0YWxfYmluZGluZycsICctaW1hZScsICc8aW5maWxlLm1hZT4nLCAnLW9tYWUnLCAnPG91dGZpbGUubWFlPic=

> <r_lp_tautomer_probability>
1

> <r_epik_Ionization_Penalty>
0.211373

> <r_epik_Ionization_Penalty_Charging>
0

> <r_epik_Ionization_Penalty_Neutral>
0.211373

> <r_epik_State_Penalty>
0.201459

> <r_epik_Charging_Adjusted_Penalty>
0.201459

> <i_epik_Tot_Q>
0

> <i_epik_Tot_abs_Q>
0

> <r_epik_Metal_State_Penalty>
0.201458

> <b_epik_Metal_Only>
0

> <s_lp_Force_Field>
OPLS_2005

> <r_lp_Energy>
29.1888

> <b_lp_Chiralities_Consistent>
1

> <s_lp_Variant>
AV-unprocessed.smi:3345-4

> <Gold.Version>
5.8.1

> <Gold.Id.Protein>
6NUR|6NUR_protein|mol2

> <Gold.PLP.Fitness>
43.8685

> <Gold.PLP.PLP>
-41.7321

> <Gold.PLP.part.hbond>
-2.0000

> <Gold.PLP.part.metal>
0.0000

> <Gold.PLP.part.buried>
-7.7543

> <Gold.PLP.part.nonpolar>
-32.8290

> <Gold.PLP.part.repulsive>
0.4319

> <Gold.PLP.ligand.clash>
0.1600

> <Gold.PLP.ligand.torsion>
1.5150

> <Gold.PLP.Chemscore.Hbond>
0.5920

> <Gold.PLP.Chemscore.CHOScore>
1.0952

> <Gold.PLP.Chemscore.Metal>
0.0000

> <Gold.Chemscore.Hbonds>
donor molecule, donor type, donor heavy atom, donor atom, acceptor molecule, acceptor atom, score
      P1  H 10752 10765       L1    17  0.59
      L1  C    18    40       P1  7948  0.12
      L1  C    18    40       P1  7949  0.97

> <Gold.PLP.Chemscore.Internal.Correction>
0.2649

> <Gold.Rescore>
     Score         DG    S(hbond)    S(metal)    S(lipo)     H(rot)  DE(clash)    DE(int)     intcor
      9.43     -12.63       0.91        0.00      90.58       2.54       0.02       3.19       ----

> <Gold.Chemscore.Fitness>
9.4288

> <Gold.Chemscore.DG>
-12.6339

> <Gold.Chemscore.ZeroCoef>
-5.4800

> <Gold.Chemscore.Hbond>
0.9123

> <Gold.Chemscore.Metal>
0.0000

> <Gold.Chemscore.Lipo>
90.5761

> <Gold.Chemscore.Internal_Hbond>
0.0000

> <Gold.Chemscore.DEClash>
0.0178

> <Gold.Chemscore.DEInternal>
3.1873

> <Gold.Chemscore.Rot>
2.5353

> <Gold.Chemscore.Internal.Correction>
   9.000000E+99

> <Gold.Chemscore.Hbonds>
donor molecule, donor type, donor heavy atom, donor atom, acceptor molecule, acceptor atom, score
      P1  H 10752 10765       L1    17  0.52

> <Gold.Chemscore.Hbond.Weighted>
-3.0470

> <Gold.Chemscore.Metal.Weighted>
-0.0000

> <Gold.Chemscore.Lipo.Weighted>
-10.5974

> <Gold.Chemscore.Internal_Hbond.Weighted>
0.0000

> <Gold.Chemscore.DEClash.Weighted>
0.0178

> <Gold.Chemscore.DEInternal.Weighted>
3.1873

> <Gold.Chemscore.Rot.Weighted>
6.4905

> <Gold.Chemscore.Internal.Correction.Weighted>
   9.000000E+99

> <Gold.Protein.RotatedTorsions>
[ 6907 6896 6895 6894 ] final -149.90 input  -60.11 | X-H torsion
[ 7974 7965 7964 7962 ] final   64.06 input  175.53 | X-H torsion
[ 8008 7997 7996 7995 ] final   37.97 input   59.86 | X-H torsion
[ 10167 10162 10161 10158 ] final  120.39 input  -65.29 | X-H torsion
[ 10718 10713 10712 10709 ] final  -60.49 input   66.30 | X-H torsion
[ 10763 10752 10751 10750 ] final  164.76 input  -60.55 | X-H torsion
[ 11005 11000 10999 10996 ] final   74.29 input  -57.11 | X-H torsion

> <Gold.Protein.ActiveResidues>
 VAL166  LYS551  ARG553  GLY616  TRP617  ASP618  TYR619  PRO620  LYS621  CYS622 
 ASP623  PHE694  ASN695  SER759  ASP760  ASP761  ALA762  ILE779  LEU786  VAL792 
 PHE793  MET794  SER795  GLU796  ALA797  LYS798  CYS799  TRP800  GLU811  SER814 

> <Gold.Protein.RotatedAtoms>
  151.1908  133.4668  159.2594 H   0  0  0  0  0  0  0  0  0  0  0  0  # atno 6907 bound_to 6896
  151.1165  135.0056  159.8528 H   0  0  0  0  0  0  0  0  0  0  0  0  # atno 6908 bound_to 6896
  152.5453  134.1823  159.8693 H   0  0  0  0  0  0  0  0  0  0  0  0  # atno 6909 bound_to 6896
  145.8546  139.3275  143.0855 H   0  0  0  0  0  0  0  0  0  0  0  0  # atno 7974 bound_to 7965
  155.2124  140.3324  155.4327 H   0  0  0  0  0  0  0  0  0  0  0  0  # atno 8008 bound_to 7997
  156.2365  140.1875  156.7153 H   0  0  0  0  0  0  0  0  0  0  0  0  # atno 8009 bound_to 7997
  154.6069  140.0615  156.9428 H   0  0  0  0  0  0  0  0  0  0  0  0  # atno 8010 bound_to 7997
  139.5985  144.7049  151.3119 H   0  0  0  0  0  0  0  0  0  0  0  0  # atno 10167 bound_to 10162
  156.0987  130.4189  150.0862 H   0  0  0  0  0  0  0  0  0  0  0  0  # atno 10718 bound_to 10713
  154.3137  135.2757  155.2553 H   0  0  0  0  0  0  0  0  0  0  0  0  # atno 10763 bound_to 10752
  154.4937  135.5826  153.6482 H   0  0  0  0  0  0  0  0  0  0  0  0  # atno 10764 bound_to 10752
  152.9885  135.6141  154.3316 H   0  0  0  0  0  0  0  0  0  0  0  0  # atno 10765 bound_to 10752
  139.9398  134.7420  156.1130 H   0  0  0  0  0  0  0  0  0  0  0  0  # atno 11005 bound_to 11000
  145.9319  140.9042  143.0352 LP  0  0  0  0  0  0  0  0  0  0  0  0  # atno 17320 bound_to 7965
  144.6728  140.1429  143.7435 LP  0  0  0  0  0  0  0  0  0  0  0  0  # atno 17321 bound_to 7965
  140.7231  143.7080  150.7792 LP  0  0  0  0  0  0  0  0  0  0  0  0  # atno 17342 bound_to 10162
  140.0652  143.5115  152.2608 LP  0  0  0  0  0  0  0  0  0  0  0  0  # atno 17343 bound_to 10162
  156.8855  130.9571  151.3594 LP  0  0  0  0  0  0  0  0  0  0  0  0  # atno 17370 bound_to 10713
  157.6153  130.8613  149.9018 LP  0  0  0  0  0  0  0  0  0  0  0  0  # atno 17371 bound_to 10713
  141.1028  133.6671  156.2793 LP  0  0  0  0  0  0  0  0  0  0  0  0  # atno 17394 bound_to 11000
  140.5981  134.5583  157.5512 LP  0  0  0  0  0  0  0  0  0  0  0  0  # atno 17395 bound_to 11000

$$$$
