AV-unprocessed.smi:3018|AV-procd|sdf|11480|dock9
  -GOLD-   2272016423D 1   1.00000     0.00000
 Structure written by MMmdl.
 45 46  0  0  0  0  0  0  0  0  1 V2000
  147.9178  140.9739  155.6240 C   0  0  0  0  0  0  0  0  0  0  0  0
  149.1258  141.7027  155.0115 C   0  0  0  0  0  0  0  0  0  0  0  0
  150.4892  141.4203  155.6791 C   0  0  1  0  0  0  0  0  0  0  0  0
  150.3774  141.7404  157.0683 O   0  0  0  0  0  0  0  0  0  0  0  0
  151.4922  142.3649  157.7078 C   0  0  0  0  0  0  0  0  0  0  0  0
  151.5763  141.7790  159.1281 C   0  0  0  0  0  0  0  0  0  0  0  0
  152.7051  142.4285  159.9442 C   0  0  0  0  0  0  0  0  0  0  0  0
  152.5503  143.9563  159.9901 C   0  0  0  0  0  0  0  0  0  0  0  0
  152.4649  144.5487  158.5750 C   0  0  0  0  0  0  0  0  0  0  0  0
  151.3334  143.8986  157.7624 C   0  0  0  0  0  0  0  0  0  0  0  0
  150.9684  139.9704  155.4860 C   0  0  0  0  0  0  0  0  0  0  0  0
  151.9113  139.7186  154.7354 O   0  0  0  0  0  0  0  0  0  0  0  0
  150.2599  139.0246  156.1222 N   0  0  0  0  0  0  0  0  0  0  0  0
  150.4367  137.5825  155.9695 C   0  0  0  0  0  0  0  0  0  0  0  0
  150.6076  136.8819  157.3346 C   0  0  0  0  0  0  0  0  0  0  0  0
  151.7313  137.4205  158.2109 C   0  0  0  0  0  0  0  0  0  0  0  0
  152.1613  136.9436  159.3260 N   0  0  0  0  0  0  0  0  0  0  0  0
  153.1613  137.8119  159.6175 N   0  0  0  0  0  0  0  0  0  0  0  0
  153.3375  138.7770  158.7074 C   0  0  0  0  0  0  0  0  0  0  0  0
  154.1762  139.6745  158.7147 O   0  0  0  0  0  0  0  0  0  0  0  0
  152.4073  138.5398  157.7917 N   0  0  0  0  0  0  0  0  0  0  0  0
  153.6997  137.6787  160.4615 H   0  0  0  0  0  0  0  0  0  0  0  0
  152.2398  139.0550  156.9395 H   0  0  0  0  0  0  0  0  0  0  0  0
  146.9923  141.3063  155.1535 H   0  0  0  0  0  0  0  0  0  0  0  0
  147.8331  141.1726  156.6928 H   0  0  0  0  0  0  0  0  0  0  0  0
  147.9797  139.8951  155.4844 H   0  0  0  0  0  0  0  0  0  0  0  0
  149.1855  141.4585  153.9501 H   0  0  0  0  0  0  0  0  0  0  0  0
  148.9386  142.7760  155.0560 H   0  0  0  0  0  0  0  0  0  0  0  0
  151.2134  142.0930  155.2194 H   0  0  0  0  0  0  0  0  0  0  0  0
  152.4220  142.1208  157.1966 H   0  0  0  0  0  0  0  0  0  0  0  0
  150.6258  141.9258  159.6427 H   0  0  0  0  0  0  0  0  0  0  0  0
  151.7354  140.7016  159.0741 H   0  0  0  0  0  0  0  0  0  0  0  0
  152.7107  142.0249  160.9570 H   0  0  0  0  0  0  0  0  0  0  0  0
  153.6693  142.1713  159.5056 H   0  0  0  0  0  0  0  0  0  0  0  0
  151.6504  144.2152  160.5493 H   0  0  0  0  0  0  0  0  0  0  0  0
  153.3883  144.3988  160.5293 H   0  0  0  0  0  0  0  0  0  0  0  0
  152.3093  145.6262  158.6318 H   0  0  0  0  0  0  0  0  0  0  0  0
  153.4148  144.4013  158.0600 H   0  0  0  0  0  0  0  0  0  0  0  0
  151.3349  144.3226  156.7589 H   0  0  0  0  0  0  0  0  0  0  0  0
  150.3705  144.1525  158.2072 H   0  0  0  0  0  0  0  0  0  0  0  0
  149.4999  139.3275  156.7144 H   0  0  0  0  0  0  0  0  0  0  0  0
  149.6253  137.1288  155.3981 H   0  0  0  0  0  0  0  0  0  0  0  0
  151.3379  137.4272  155.3760 H   0  0  0  0  0  0  0  0  0  0  0  0
  149.6761  136.9517  157.8968 H   0  0  0  0  0  0  0  0  0  0  0  0
  150.7783  135.8173  157.1684 H   0  0  0  0  0  0  0  0  0  0  0  0
  1  2  1  0  0  0  0
  1 24  1  0  0  0  0
  1 25  1  0  0  0  0
  1 26  1  0  0  0  0
  2  3  1  0  0  0  0
  2 27  1  0  0  0  0
  2 28  1  0  0  0  0
  3  4  1  0  0  0  0
  3 11  1  0  0  0  0
  3 29  1  0  0  0  0
  4  5  1  0  0  0  0
  5 10  1  0  0  0  0
  5  6  1  0  0  0  0
  5 30  1  0  0  0  0
  6  7  1  0  0  0  0
  6 31  1  0  0  0  0
  6 32  1  0  0  0  0
  7  8  1  0  0  0  0
  7 33  1  0  0  0  0
  7 34  1  0  0  0  0
  8  9  1  0  0  0  0
  8 35  1  0  0  0  0
  8 36  1  0  0  0  0
  9 10  1  0  0  0  0
  9 37  1  0  0  0  0
  9 38  1  0  0  0  0
 10 39  1  0  0  0  0
 10 40  1  0  0  0  0
 11 12  2  0  0  0  0
 11 13  1  0  0  0  0
 13 14  1  0  0  0  0
 13 41  1  0  0  0  0
 14 15  1  0  0  0  0
 14 42  1  0  0  0  0
 14 43  1  0  0  0  0
 15 16  1  0  0  0  0
 15 44  1  0  0  0  0
 15 45  1  0  0  0  0
 16 21  1  0  0  0  0
 16 17  2  0  0  0  0
 17 18  1  0  0  0  0
 18 22  1  0  0  0  0
 18 19  1  0  0  0  0
 19 20  2  0  0  0  0
 19 21  1  0  0  0  0
 21 23  1  0  0  0  0
M  END
> <s_m_source_file>
AV-unprocessed.smi

> <i_m_source_file_index>
3018

> <i_lp_mmshare_version>
43012

> <i_f3d_flags>
0

> <s_epik_input>
W0NIMl0xW0NIMl1bQ0gyXVtDSDJdW0NIMl1bQ0hdMU9bQ0BASF0oW0NIMl1bQ0gzXSlDKD1PKVtOSF1bQ0gyXVtDSDJdYzJuW25IXWMoPU8pW25IXTI=

> <s_epik_cmdline>
J2VwaWtfcHl0aG9uJywgJy1waCcsICc3LjAnLCAnLXRuJywgJzgnLCAnLW1hJywgJzIwMCcsICctbWV0YWxfYmluZGluZycsICctaW1hZScsICc8aW5maWxlLm1hZT4nLCAnLW9tYWUnLCAnPG91dGZpbGUubWFlPic=

> <r_lp_tautomer_probability>
1

> <r_epik_Ionization_Penalty>
0.000773817

> <r_epik_Ionization_Penalty_Charging>
0.000773741

> <r_epik_Ionization_Penalty_Neutral>
7.58514e-08

> <r_epik_State_Penalty>
-0

> <r_epik_Charging_Adjusted_Penalty>
0.000773741

> <i_epik_Tot_Q>
0

> <i_epik_Tot_abs_Q>
0

> <r_epik_Metal_State_Penalty>
0.495152

> <b_epik_Metal_Only>
0

> <s_lp_Force_Field>
OPLS_2005

> <r_lp_Energy>
29.5576

> <b_lp_Chiralities_Consistent>
1

> <s_lp_Variant>
AV-unprocessed.smi:3018-2

> <Gold.Version>
5.8.1

> <Gold.Id.Protein>
6NUR|6NUR_protein|mol2

> <Gold.PLP.Fitness>
43.1524

> <Gold.PLP.PLP>
-36.6109

> <Gold.PLP.part.hbond>
-3.0000

> <Gold.PLP.part.metal>
0.0000

> <Gold.PLP.part.buried>
-4.4501

> <Gold.PLP.part.nonpolar>
-30.0993

> <Gold.PLP.part.repulsive>
0.2939

> <Gold.PLP.ligand.clash>
0.0000

> <Gold.PLP.ligand.torsion>
1.2578

> <Gold.PLP.Chemscore.Hbond>
2.9760

> <Gold.PLP.Chemscore.CHOScore>
0.0000

> <Gold.PLP.Chemscore.Metal>
0.0000

> <Gold.Chemscore.Hbonds>
donor molecule, donor type, donor heavy atom, donor atom, acceptor molecule, acceptor atom, score
      P1  H  6896  6908       L1    17  0.99
      P1  H  7989  7998       L1    12  0.96
      P1  H  7997  8008       L1    20  1.00

> <Gold.PLP.Chemscore.Internal.Correction>
0.1290

> <Gold.Rescore>
     Score         DG    S(hbond)    S(metal)    S(lipo)     H(rot)  DE(clash)    DE(int)     intcor
     15.34     -17.94       2.95        0.00      88.64       3.04       0.11       2.49       ----

> <Gold.Chemscore.Fitness>
15.3423

> <Gold.Chemscore.DG>
-17.9388

> <Gold.Chemscore.ZeroCoef>
-5.4800

> <Gold.Chemscore.Hbond>
2.9526

> <Gold.Chemscore.Metal>
0.0000

> <Gold.Chemscore.Lipo>
88.6431

> <Gold.Chemscore.Internal_Hbond>
0.0000

> <Gold.Chemscore.DEClash>
0.1107

> <Gold.Chemscore.DEInternal>
2.4858

> <Gold.Chemscore.Rot>
3.0367

> <Gold.Chemscore.Internal.Correction>
   9.000000E+99

> <Gold.Chemscore.Hbonds>
donor molecule, donor type, donor heavy atom, donor atom, acceptor molecule, acceptor atom, score
      P1  H  6896  6908       L1    17  0.89
      P1  H  7989  7998       L1    12  0.32
      P1  H  7997  8008       L1    20  0.95

> <Gold.Chemscore.Hbond.Weighted>
-9.8615

> <Gold.Chemscore.Metal.Weighted>
-0.0000

> <Gold.Chemscore.Lipo.Weighted>
-10.3712

> <Gold.Chemscore.Internal_Hbond.Weighted>
0.0000

> <Gold.Chemscore.DEClash.Weighted>
0.1107

> <Gold.Chemscore.DEInternal.Weighted>
2.4858

> <Gold.Chemscore.Rot.Weighted>
7.7739

> <Gold.Chemscore.Internal.Correction.Weighted>
   9.000000E+99

> <Gold.Protein.RotatedTorsions>
[ 6907 6896 6895 6894 ] final -125.65 input  -60.11 | X-H torsion
[ 7974 7965 7964 7962 ] final -177.82 input  175.53 | X-H torsion
[ 8008 7997 7996 7995 ] final -122.95 input   59.86 | X-H torsion
[ 10167 10162 10161 10158 ] final   27.85 input  -65.29 | X-H torsion
[ 10718 10713 10712 10709 ] final  -13.07 input   66.30 | X-H torsion
[ 10763 10752 10751 10750 ] final  -57.19 input  -60.55 | X-H torsion
[ 11005 11000 10999 10996 ] final  -71.51 input  -57.11 | X-H torsion

> <Gold.Protein.ActiveResidues>
 VAL166  LYS551  ARG553  GLY616  TRP617  ASP618  TYR619  PRO620  LYS621  CYS622 
 ASP623  PHE694  ASN695  SER759  ASP760  ASP761  ALA762  ILE779  LEU786  VAL792 
 PHE793  MET794  SER795  GLU796  ALA797  LYS798  CYS799  TRP800  GLU811  SER814 

> <Gold.Protein.RotatedAtoms>
  150.8889  133.7270  159.2910 H   0  0  0  0  0  0  0  0  0  0  0  0  # atno 6907 bound_to 6896
  151.4827  135.1051  159.9791 H   0  0  0  0  0  0  0  0  0  0  0  0  # atno 6908 bound_to 6896
  152.4807  133.8202  159.7105 H   0  0  0  0  0  0  0  0  0  0  0  0  # atno 6909 bound_to 6896
  144.7129  140.0962  143.6419 H   0  0  0  0  0  0  0  0  0  0  0  0  # atno 7974 bound_to 7965
  155.1725  140.0408  157.2866 H   0  0  0  0  0  0  0  0  0  0  0  0  # atno 8008 bound_to 7997
  154.6259  140.2512  155.7465 H   0  0  0  0  0  0  0  0  0  0  0  0  # atno 8009 bound_to 7997
  156.2459  140.2885  156.0589 H   0  0  0  0  0  0  0  0  0  0  0  0  # atno 8010 bound_to 7997
  140.4903  144.0477  150.6295 H   0  0  0  0  0  0  0  0  0  0  0  0  # atno 10167 bound_to 10162
  156.6355  130.4913  149.6113 H   0  0  0  0  0  0  0  0  0  0  0  0  # atno 10718 bound_to 10713
  154.2185  135.6382  153.5137 H   0  0  0  0  0  0  0  0  0  0  0  0  # atno 10763 bound_to 10752
  152.9974  135.5491  154.6140 H   0  0  0  0  0  0  0  0  0  0  0  0  # atno 10764 bound_to 10752
  154.5594  135.2908  155.0907 H   0  0  0  0  0  0  0  0  0  0  0  0  # atno 10765 bound_to 10752
  141.1593  133.6820  156.6917 H   0  0  0  0  0  0  0  0  0  0  0  0  # atno 11005 bound_to 11000
  145.9577  139.2778  143.1174 LP  0  0  0  0  0  0  0  0  0  0  0  0  # atno 17320 bound_to 7965
  145.9254  140.9086  143.0383 LP  0  0  0  0  0  0  0  0  0  0  0  0  # atno 17321 bound_to 7965
  140.3744  143.2836  152.0241 LP  0  0  0  0  0  0  0  0  0  0  0  0  # atno 17342 bound_to 10162
  139.4850  144.6204  151.7266 LP  0  0  0  0  0  0  0  0  0  0  0  0  # atno 17343 bound_to 10162
  156.2200  130.6731  151.1359 LP  0  0  0  0  0  0  0  0  0  0  0  0  # atno 17370 bound_to 10713
  157.7187  131.0695  150.6224 LP  0  0  0  0  0  0  0  0  0  0  0  0  # atno 17371 bound_to 10713
  140.3025  134.8152  157.4109 LP  0  0  0  0  0  0  0  0  0  0  0  0  # atno 17394 bound_to 11000
  140.1249  134.5171  155.8153 LP  0  0  0  0  0  0  0  0  0  0  0  0  # atno 17395 bound_to 11000

$$$$
