AV-unprocessed.smi:227|AV-procd|sdf|1734|dock2
  -GOLD-   2262020233D 1   1.00000     0.00000
 Structure written by MMmdl.
 54 58  0  0  0  0  0  0  0  0  1 V2000
  152.4078  135.4540  156.8069 O   0  0  0  0  0  0  0  0  0  0  0  0
  151.9266  136.7787  156.7097 C   0  0  0  0  0  0  0  0  0  0  0  0
  150.7659  136.8906  155.6875 C   0  0  1  0  0  0  0  0  0  0  0  0
  149.3850  136.7153  156.3869 C   0  0  0  0  0  0  0  0  0  0  0  0
  148.3536  136.1356  155.5378 N   0  0  0  0  0  0  0  0  0  0  0  0
  147.1692  136.7271  155.1640 C   0  0  0  0  0  0  0  0  0  0  0  0
  146.4072  136.0047  154.3906 N   0  0  0  0  0  0  0  0  0  0  0  0
  147.1069  134.8148  154.2244 C   0  0  0  0  0  0  0  0  0  0  0  0
  146.8690  133.6012  153.5112 C   0  0  0  0  0  0  0  0  0  0  0  0
  145.7688  133.3486  152.7478 N   0  0  0  0  0  0  0  0  0  0  0  0
  144.6967  134.3247  152.6133 C   0  0  1  0  0  0  0  0  0  0  0  0
  145.2963  135.4117  151.6998 C   0  0  0  0  0  0  0  0  0  0  0  0
  146.1849  134.5654  150.7753 C   0  0  0  0  0  0  0  0  0  0  0  0
  145.9140  133.1404  151.3122 C   0  0  2  0  0  0  0  0  0  0  0  0
  144.5005  132.6440  150.9321 C   0  0  2  0  0  0  0  0  0  0  0  0
  144.1211  132.6529  149.4389 C   0  0  0  0  0  0  0  0  0  0  0  0
  142.8770  132.0152  149.2433 O   0  0  0  0  0  0  0  0  0  0  0  0
  143.6289  133.5463  151.8230 C   0  0  0  0  0  0  0  0  0  0  0  0
  147.8051  132.6221  153.6269 N   0  0  0  0  0  0  0  0  0  0  0  0
  148.9036  132.8125  154.3609 C   0  0  0  0  0  0  0  0  0  0  0  0
  149.2620  133.8907  155.0572 N   0  0  0  0  0  0  0  0  0  0  0  0
  148.3267  134.8774  154.9599 C   0  0  0  0  0  0  0  0  0  0  0  0
  150.8533  138.2073  154.8523 C   0  0  2  0  0  0  0  0  0  0  0  0
  151.9748  138.2159  153.8168 C   0  0  0  0  0  0  0  0  0  0  0  0
  153.1973  138.6969  154.5989 C   0  0  0  0  0  0  0  0  0  0  0  0
  152.6887  139.3723  155.7431 O   0  0  0  0  0  0  0  0  0  0  0  0
  151.2748  139.4550  155.6423 C   0  0  0  0  0  0  0  0  0  0  0  0
  152.3203  135.1677  157.7035 H   0  0  0  0  0  0  0  0  0  0  0  0
  151.6207  137.1274  157.6958 H   0  0  0  0  0  0  0  0  0  0  0  0
  152.7814  137.3831  156.4155 H   0  0  0  0  0  0  0  0  0  0  0  0
  150.8757  136.0553  154.9946 H   0  0  0  0  0  0  0  0  0  0  0  0
  149.4728  136.1058  157.2844 H   0  0  0  0  0  0  0  0  0  0  0  0
  149.0177  137.6761  156.7479 H   0  0  0  0  0  0  0  0  0  0  0  0
  146.8890  137.7217  155.4795 H   0  0  0  0  0  0  0  0  0  0  0  0
  144.2923  134.7164  153.5446 H   0  0  0  0  0  0  0  0  0  0  0  0
  144.5348  135.9748  151.1593 H   0  0  0  0  0  0  0  0  0  0  0  0
  145.8983  136.1190  152.2717 H   0  0  0  0  0  0  0  0  0  0  0  0
  145.9558  134.6925  149.7187 H   0  0  0  0  0  0  0  0  0  0  0  0
  147.2330  134.8351  150.9116 H   0  0  0  0  0  0  0  0  0  0  0  0
  146.6866  132.4239  151.0317 H   0  0  0  0  0  0  0  0  0  0  0  0
  144.4015  131.6187  151.2938 H   0  0  0  0  0  0  0  0  0  0  0  0
  144.0381  133.6810  149.0855 H   0  0  0  0  0  0  0  0  0  0  0  0
  144.8787  132.1745  148.8195 H   0  0  0  0  0  0  0  0  0  0  0  0
  142.2113  132.6785  149.1442 H   0  0  0  0  0  0  0  0  0  0  0  0
  143.0105  132.9425  152.4885 H   0  0  0  0  0  0  0  0  0  0  0  0
  142.9683  134.2054  151.2585 H   0  0  0  0  0  0  0  0  0  0  0  0
  149.5942  131.9828  154.3943 H   0  0  0  0  0  0  0  0  0  0  0  0
  149.8899  138.3879  154.3744 H   0  0  0  0  0  0  0  0  0  0  0  0
  152.1544  137.2686  153.3131 H   0  0  0  0  0  0  0  0  0  0  0  0
  151.7361  138.9441  153.0402 H   0  0  0  0  0  0  0  0  0  0  0  0
  153.8072  137.8557  154.9299 H   0  0  0  0  0  0  0  0  0  0  0  0
  153.8253  139.3567  153.9998 H   0  0  0  0  0  0  0  0  0  0  0  0
  151.0276  140.3519  155.0717 H   0  0  0  0  0  0  0  0  0  0  0  0
  150.8101  139.5720  156.6182 H   0  0  0  0  0  0  0  0  0  0  0  0
  1  2  1  0  0  0  0
  1 28  1  0  0  0  0
  2  3  1  0  0  0  0
  2 29  1  0  0  0  0
  2 30  1  0  0  0  0
  3  4  1  0  0  0  0
  3 23  1  0  0  0  0
  3 31  1  0  0  0  0
  4  5  1  0  0  0  0
  4 32  1  0  0  0  0
  4 33  1  0  0  0  0
  5 22  1  0  0  0  0
  5  6  1  0  0  0  0
  6  7  2  0  0  0  0
  6 34  1  0  0  0  0
  7  8  1  0  0  0  0
  8 22  2  0  0  0  0
  8  9  1  0  0  0  0
  9 10  1  0  0  0  0
  9 19  2  0  0  0  0
 10 14  1  0  0  0  0
 10 11  1  0  0  0  0
 11 18  1  0  0  0  0
 11 12  1  0  0  0  0
 11 35  1  0  0  0  0
 12 13  1  0  0  0  0
 12 36  1  0  0  0  0
 12 37  1  0  0  0  0
 13 14  1  0  0  0  0
 13 38  1  0  0  0  0
 13 39  1  0  0  0  0
 14 15  1  0  0  0  0
 14 40  1  0  0  0  0
 15 16  1  0  0  0  0
 15 18  1  0  0  0  0
 15 41  1  0  0  0  0
 16 17  1  0  0  0  0
 16 42  1  0  0  0  0
 16 43  1  0  0  0  0
 17 44  1  0  0  0  0
 18 45  1  0  0  0  0
 18 46  1  0  0  0  0
 19 20  1  0  0  0  0
 20 21  2  0  0  0  0
 20 47  1  0  0  0  0
 21 22  1  0  0  0  0
 23 27  1  0  0  0  0
 23 24  1  0  0  0  0
 23 48  1  0  0  0  0
 24 25  1  0  0  0  0
 24 49  1  0  0  0  0
 24 50  1  0  0  0  0
 25 26  1  0  0  0  0
 25 51  1  0  0  0  0
 25 52  1  0  0  0  0
 26 27  1  0  0  0  0
 27 53  1  0  0  0  0
 27 54  1  0  0  0  0
M  END
> <s_m_source_file>
AV-unprocessed.smi

> <i_m_source_file_index>
227

> <i_lp_mmshare_version>
43012

> <i_f3d_flags>
0

> <s_epik_input>
W0NIMl0xT1tDSDJdW0NIMl1bQ0BIXTFbQ0BIXShbQ0gyXVtPSF0pW0NIMl1uKFtjSF1uMiljKGMyMyluW2NIXW5jM04oW0NASF00NSlbQ0BASF0oW0NIMl1bQ0gyXTQpW0NASF0oW0NIMl01KVtDSDJdW09IXQ==

> <s_epik_cmdline>
J2VwaWtfcHl0aG9uJywgJy1waCcsICc3LjAnLCAnLXRuJywgJzgnLCAnLW1hJywgJzIwMCcsICctbWV0YWxfYmluZGluZycsICctaW1hZScsICc8aW5maWxlLm1hZT4nLCAnLW9tYWUnLCAnPG91dGZpbGUubWFlPic=

> <r_lp_tautomer_probability>
1

> <r_epik_Ionization_Penalty>
0.0055791

> <r_epik_Ionization_Penalty_Charging>
0

> <r_epik_Ionization_Penalty_Neutral>
0.0055791

> <r_epik_State_Penalty>
0.00401299

> <r_epik_Charging_Adjusted_Penalty>
0.00401299

> <i_epik_Tot_Q>
0

> <i_epik_Tot_abs_Q>
0

> <r_epik_Metal_State_Penalty>
-0

> <b_epik_Metal_Only>
0

> <s_lp_Force_Field>
OPLS_2005

> <r_lp_Energy>
91.5897

> <b_lp_Chiralities_Consistent>
1

> <s_lp_Variant>
AV-unprocessed.smi:227-8

> <Gold.Version>
5.8.1

> <Gold.Id.Protein>
6NUR|6NUR_protein|mol2

> <Gold.PLP.Fitness>
49.2799

> <Gold.PLP.PLP>
-39.7619

> <Gold.PLP.part.hbond>
-5.0000

> <Gold.PLP.part.metal>
0.0000

> <Gold.PLP.part.buried>
-8.4999

> <Gold.PLP.part.nonpolar>
-26.1995

> <Gold.PLP.part.repulsive>
0.3281

> <Gold.PLP.ligand.clash>
0.0000

> <Gold.PLP.ligand.torsion>
1.2215

> <Gold.PLP.Chemscore.Hbond>
3.8770

> <Gold.PLP.Chemscore.CHOScore>
0.0000

> <Gold.PLP.Chemscore.Metal>
0.0000

> <Gold.Chemscore.Hbonds>
donor molecule, donor type, donor heavy atom, donor atom, acceptor molecule, acceptor atom, score
      L1  H    17    44       P1 10186  0.71
      P1  H  7997  8008       L1    26  0.93
      P1  H 10752 10764       L1     1  1.00
      P1  H 10785 10796       L1    17  1.00

> <Gold.PLP.Chemscore.Internal.Correction>
0.3298

> <Gold.Rescore>
     Score         DG    S(hbond)    S(metal)    S(lipo)     H(rot)  DE(clash)    DE(int)     intcor
     11.57     -16.95       3.02        0.00      90.66       3.61       1.41       3.96       ----

> <Gold.Chemscore.Fitness>
11.5730

> <Gold.Chemscore.DG>
-16.9475

> <Gold.Chemscore.ZeroCoef>
-5.4800

> <Gold.Chemscore.Hbond>
3.0224

> <Gold.Chemscore.Metal>
0.0000

> <Gold.Chemscore.Lipo>
90.6567

> <Gold.Chemscore.Internal_Hbond>
0.0000

> <Gold.Chemscore.DEClash>
1.4098

> <Gold.Chemscore.DEInternal>
3.9647

> <Gold.Chemscore.Rot>
3.6071

> <Gold.Chemscore.Internal.Correction>
   9.000000E+99

> <Gold.Chemscore.Hbonds>
donor molecule, donor type, donor heavy atom, donor atom, acceptor molecule, acceptor atom, score
      L1  H    17    44       P1 10186  0.71
      P1  H  7997  8008       L1    26  0.26
      P1  H 10752 10764       L1     1  0.38
      P1  H 10785 10796       L1    17  0.69

> <Gold.Chemscore.Hbond.Weighted>
-10.0948

> <Gold.Chemscore.Metal.Weighted>
-0.0000

> <Gold.Chemscore.Lipo.Weighted>
-10.6068

> <Gold.Chemscore.Internal_Hbond.Weighted>
0.0000

> <Gold.Chemscore.DEClash.Weighted>
1.4098

> <Gold.Chemscore.DEInternal.Weighted>
3.9647

> <Gold.Chemscore.Rot.Weighted>
9.2342

> <Gold.Chemscore.Internal.Correction.Weighted>
   9.000000E+99

> <Gold.Protein.RotatedTorsions>
[ 6907 6896 6895 6894 ] final  -86.68 input  -60.11 | X-H torsion
[ 7974 7965 7964 7962 ] final  118.37 input  175.53 | X-H torsion
[ 8008 7997 7996 7995 ] final  -57.81 input   59.86 | X-H torsion
[ 10167 10162 10161 10158 ] final -174.26 input  -65.29 | X-H torsion
[ 10718 10713 10712 10709 ] final  139.60 input   66.30 | X-H torsion
[ 10763 10752 10751 10750 ] final    6.87 input  -60.55 | X-H torsion
[ 11005 11000 10999 10996 ] final -115.57 input  -57.11 | X-H torsion

> <Gold.Protein.ActiveResidues>
 VAL166  LYS551  ARG553  GLY616  TRP617  ASP618  TYR619  PRO620  LYS621  CYS622 
 ASP623  PHE694  ASN695  SER759  ASP760  ASP761  ALA762  ILE779  LEU786  VAL792 
 PHE793  MET794  SER795  GLU796  ALA797  LYS798  CYS799  TRP800  GLU811  SER814 

> <Gold.Protein.RotatedAtoms>
  150.6866  134.3013  159.4707 H   0  0  0  0  0  0  0  0  0  0  0  0  # atno 6907 bound_to 6896
  152.0909  134.9405  160.0581 H   0  0  0  0  0  0  0  0  0  0  0  0  # atno 6908 bound_to 6896
  152.0722  133.4077  159.4501 H   0  0  0  0  0  0  0  0  0  0  0  0  # atno 6909 bound_to 6896
  145.1561  139.3182  143.4541 H   0  0  0  0  0  0  0  0  0  0  0  0  # atno 7974 bound_to 7965
  154.4283  140.1098  156.5857 H   0  0  0  0  0  0  0  0  0  0  0  0  # atno 8008 bound_to 7997
  155.6065  140.3494  155.4590 H   0  0  0  0  0  0  0  0  0  0  0  0  # atno 8009 bound_to 7997
  156.0133  140.1224  157.0422 H   0  0  0  0  0  0  0  0  0  0  0  0  # atno 8010 bound_to 7997
  139.5643  144.1792  152.1289 H   0  0  0  0  0  0  0  0  0  0  0  0  # atno 10167 bound_to 10162
  157.4126  131.1030  151.0438 H   0  0  0  0  0  0  0  0  0  0  0  0  # atno 10718 bound_to 10713
  153.2428  135.6905  153.7765 H   0  0  0  0  0  0  0  0  0  0  0  0  # atno 10763 bound_to 10752
  153.6888  135.3316  155.3198 H   0  0  0  0  0  0  0  0  0  0  0  0  # atno 10764 bound_to 10752
  154.8362  135.4540  154.1356 H   0  0  0  0  0  0  0  0  0  0  0  0  # atno 10765 bound_to 10752
  141.0479  133.9733  157.2886 H   0  0  0  0  0  0  0  0  0  0  0  0  # atno 11005 bound_to 11000
  146.3488  140.1653  142.8590 LP  0  0  0  0  0  0  0  0  0  0  0  0  # atno 17320 bound_to 7965
  145.0380  140.8923  143.5069 LP  0  0  0  0  0  0  0  0  0  0  0  0  # atno 17321 bound_to 7965
  140.1312  144.5286  150.6801 LP  0  0  0  0  0  0  0  0  0  0  0  0  # atno 17342 bound_to 10162
  140.6926  143.2385  151.5089 LP  0  0  0  0  0  0  0  0  0  0  0  0  # atno 17343 bound_to 10162
  157.1397  130.6138  149.5552 LP  0  0  0  0  0  0  0  0  0  0  0  0  # atno 17370 bound_to 10713
  155.9855  130.4885  150.7036 LP  0  0  0  0  0  0  0  0  0  0  0  0  # atno 17371 bound_to 10713
  139.9327  135.0199  156.8452 LP  0  0  0  0  0  0  0  0  0  0  0  0  # atno 17394 bound_to 11000
  140.6111  134.0081  155.7577 LP  0  0  0  0  0  0  0  0  0  0  0  0  # atno 17395 bound_to 11000

$$$$
