AV-unprocessed.smi:1269|AV-procd|sdf|5328|dock6
  -GOLD-   22720 4453D 1   1.00000     0.00000
 Structure written by MMmdl.
 43 44  0  0  0  0  0  0  0  0  1 V2000
  151.1755  141.5794  158.0615 C   0  0  0  0  0  0  0  0  0  0  0  0
  150.9321  141.5301  156.6599 O   0  0  0  0  0  0  0  0  0  0  0  0
  150.5617  140.3238  156.1015 C   0  0  0  0  0  0  0  0  0  0  0  0
  150.1201  139.2933  156.9547 C   0  0  0  0  0  0  0  0  0  0  0  0
  149.7407  138.0612  156.3897 C   0  0  0  0  0  0  0  0  0  0  0  0
  149.8044  137.8960  154.9915 C   0  0  0  0  0  0  0  0  0  0  0  0
  149.4310  136.6350  154.4526 N   0  0  0  0  0  0  0  0  0  0  0  0
  149.2084  135.4787  155.1010 C   0  0  0  0  0  0  0  0  0  0  0  0
  149.3240  135.3084  156.3143 O   0  0  0  0  0  0  0  0  0  0  0  0
  148.8600  134.5053  154.2466 N   0  0  0  0  0  0  0  0  0  0  0  0
  148.5486  133.1249  154.6118 C   0  0  1  0  0  0  0  0  0  0  0  0
  147.3135  133.1515  155.5259 C   0  0  0  0  0  0  0  0  0  0  0  0
  148.3910  132.2838  153.3202 C   0  0  0  0  0  0  0  0  0  0  0  0
  147.1325  132.4441  152.5858 N   0  0  0  0  0  0  0  0  0  0  0  0
  146.5692  131.1443  152.2288 C   0  0  0  0  0  0  0  0  0  0  0  0
  145.2426  131.2790  151.4613 C   0  0  0  0  0  0  0  0  0  0  0  0
  145.4457  132.0661  150.2930 O   0  0  0  0  0  0  0  0  0  0  0  0
  145.9619  133.3592  150.5886 C   0  0  0  0  0  0  0  0  0  0  0  0
  147.2882  133.2227  151.3567 C   0  0  0  0  0  0  0  0  0  0  0  0
  150.2736  138.9877  154.2204 C   0  0  0  0  0  0  0  0  0  0  0  0
  150.6404  140.1713  154.7566 N   0  0  0  0  0  0  0  0  0  0  0  0
  151.4549  142.5946  158.3434 H   0  0  0  0  0  0  0  0  0  0  0  0
  151.9955  140.9190  158.3472 H   0  0  0  0  0  0  0  0  0  0  0  0
  150.2847  141.3116  158.6316 H   0  0  0  0  0  0  0  0  0  0  0  0
  150.0740  139.4451  158.0229 H   0  0  0  0  0  0  0  0  0  0  0  0
  149.4020  137.2558  157.0251 H   0  0  0  0  0  0  0  0  0  0  0  0
  149.3744  136.5958  153.4456 H   0  0  0  0  0  0  0  0  0  0  0  0
  148.7987  134.7367  153.2659 H   0  0  0  0  0  0  0  0  0  0  0  0
  149.3831  132.7268  155.1921 H   0  0  0  0  0  0  0  0  0  0  0  0
  147.1928  132.2113  156.0614 H   0  0  0  0  0  0  0  0  0  0  0  0
  146.4012  133.3519  154.9634 H   0  0  0  0  0  0  0  0  0  0  0  0
  147.4085  133.9241  156.2898 H   0  0  0  0  0  0  0  0  0  0  0  0
  149.2399  132.4458  152.6541 H   0  0  0  0  0  0  0  0  0  0  0  0
  148.4696  131.2393  153.6259 H   0  0  0  0  0  0  0  0  0  0  0  0
  147.2828  130.5843  151.6220 H   0  0  0  0  0  0  0  0  0  0  0  0
  146.3971  130.5551  153.1304 H   0  0  0  0  0  0  0  0  0  0  0  0
  144.8714  130.2966  151.1692 H   0  0  0  0  0  0  0  0  0  0  0  0
  144.4778  131.7378  152.0897 H   0  0  0  0  0  0  0  0  0  0  0  0
  146.1183  133.9013  149.6561 H   0  0  0  0  0  0  0  0  0  0  0  0
  145.2343  133.9258  151.1716 H   0  0  0  0  0  0  0  0  0  0  0  0
  147.6645  134.2188  151.5680 H   0  0  0  0  0  0  0  0  0  0  0  0
  148.0265  132.7473  150.7090 H   0  0  0  0  0  0  0  0  0  0  0  0
  150.3863  138.9266  153.1496 H   0  0  0  0  0  0  0  0  0  0  0  0
  1  2  1  0  0  0  0
  1 22  1  0  0  0  0
  1 23  1  0  0  0  0
  1 24  1  0  0  0  0
  2  3  1  0  0  0  0
  3 21  1  0  0  0  0
  3  4  2  0  0  0  0
  4  5  1  0  0  0  0
  4 25  1  0  0  0  0
  5  6  2  0  0  0  0
  5 26  1  0  0  0  0
  6  7  1  0  0  0  0
  6 20  1  0  0  0  0
  7  8  1  0  0  0  0
  7 27  1  0  0  0  0
  8  9  2  0  0  0  0
  8 10  1  0  0  0  0
 10 11  1  0  0  0  0
 10 28  1  0  0  0  0
 11 12  1  0  0  0  0
 11 13  1  0  0  0  0
 11 29  1  0  0  0  0
 12 30  1  0  0  0  0
 12 31  1  0  0  0  0
 12 32  1  0  0  0  0
 13 14  1  0  0  0  0
 13 33  1  0  0  0  0
 13 34  1  0  0  0  0
 14 19  1  0  0  0  0
 14 15  1  0  0  0  0
 15 16  1  0  0  0  0
 15 35  1  0  0  0  0
 15 36  1  0  0  0  0
 16 17  1  0  0  0  0
 16 37  1  0  0  0  0
 16 38  1  0  0  0  0
 17 18  1  0  0  0  0
 18 19  1  0  0  0  0
 18 39  1  0  0  0  0
 18 40  1  0  0  0  0
 19 41  1  0  0  0  0
 19 42  1  0  0  0  0
 20 21  2  0  0  0  0
 20 43  1  0  0  0  0
M  END
> <s_m_source_file>
AV-unprocessed.smi

> <i_m_source_file_index>
1269

> <i_lp_mmshare_version>
43012

> <i_f3d_flags>
0

> <s_epik_input>
W0NIM11PYzFbY0hdW2NIXWMoW2NIXW4xKVtOSF1DKD1PKVtOSF1bQ0BIXShbQ0gzXSlbQ0gyXU4yW0NIMl1bQ0gyXU9bQ0gyXVtDSDJdMg==

> <s_epik_cmdline>
J2VwaWtfcHl0aG9uJywgJy1waCcsICc3LjAnLCAnLXRuJywgJzgnLCAnLW1hJywgJzIwMCcsICctbWV0YWxfYmluZGluZycsICctaW1hZScsICc8aW5maWxlLm1hZT4nLCAnLW9tYWUnLCAnPG91dGZpbGUubWFlPic=

> <r_lp_tautomer_probability>
1

> <r_epik_Ionization_Penalty>
0.266086

> <r_epik_Ionization_Penalty_Charging>
0

> <r_epik_Ionization_Penalty_Neutral>
0.266086

> <r_epik_State_Penalty>
0.257924

> <r_epik_Charging_Adjusted_Penalty>
0.257924

> <i_epik_Tot_Q>
0

> <i_epik_Tot_abs_Q>
0

> <r_epik_Metal_State_Penalty>
0.25792

> <b_epik_Metal_Only>
0

> <s_lp_Force_Field>
OPLS_2005

> <r_lp_Energy>
29.6845

> <b_lp_Chiralities_Consistent>
1

> <s_lp_Variant>
AV-unprocessed.smi:1269-2

> <Gold.Version>
5.8.1

> <Gold.Id.Protein>
6NUR|6NUR_protein|mol2

> <Gold.PLP.Fitness>
39.7757

> <Gold.PLP.PLP>
-30.0682

> <Gold.PLP.part.hbond>
-3.0000

> <Gold.PLP.part.metal>
0.0000

> <Gold.PLP.part.buried>
-4.1430

> <Gold.PLP.part.nonpolar>
-21.8771

> <Gold.PLP.part.repulsive>
0.4082

> <Gold.PLP.ligand.clash>
0.0000

> <Gold.PLP.ligand.torsion>
1.0622

> <Gold.PLP.Chemscore.Hbond>
2.9280

> <Gold.PLP.Chemscore.CHOScore>
1.0000

> <Gold.PLP.Chemscore.Metal>
0.0000

> <Gold.Chemscore.Hbonds>
donor molecule, donor type, donor heavy atom, donor atom, acceptor molecule, acceptor atom, score
      L1  H     7    27       P1  7948  1.00
      L1  H    10    28       P1  7948  0.93
      P1  H  7989  7998       L1    21  1.00
      L1  C    20    43       P1  7957  1.00

> <Gold.PLP.Chemscore.Internal.Correction>
0.0481

> <Gold.Rescore>
     Score         DG    S(hbond)    S(metal)    S(lipo)     H(rot)  DE(clash)    DE(int)     intcor
     13.32     -15.86       2.00        0.00      69.21       1.72       0.07       2.47       ----

> <Gold.Chemscore.Fitness>
13.3225

> <Gold.Chemscore.DG>
-15.8569

> <Gold.Chemscore.ZeroCoef>
-5.4800

> <Gold.Chemscore.Hbond>
2.0001

> <Gold.Chemscore.Metal>
0.0000

> <Gold.Chemscore.Lipo>
69.2064

> <Gold.Chemscore.Internal_Hbond>
0.0000

> <Gold.Chemscore.DEClash>
0.0670

> <Gold.Chemscore.DEInternal>
2.4675

> <Gold.Chemscore.Rot>
1.7189

> <Gold.Chemscore.Internal.Correction>
   9.000000E+99

> <Gold.Chemscore.Hbonds>
donor molecule, donor type, donor heavy atom, donor atom, acceptor molecule, acceptor atom, score
      L1  H     7    27       P1  7948  0.88
      L1  H    10    28       P1  7948  0.22
      P1  H  7989  7998       L1    21  0.40

> <Gold.Chemscore.Hbond.Weighted>
-6.6802

> <Gold.Chemscore.Metal.Weighted>
-0.0000

> <Gold.Chemscore.Lipo.Weighted>
-8.0971

> <Gold.Chemscore.Internal_Hbond.Weighted>
0.0000

> <Gold.Chemscore.DEClash.Weighted>
0.0670

> <Gold.Chemscore.DEInternal.Weighted>
2.4675

> <Gold.Chemscore.Rot.Weighted>
4.4004

> <Gold.Chemscore.Internal.Correction.Weighted>
   9.000000E+99

> <Gold.Protein.RotatedTorsions>
[ 6907 6896 6895 6894 ] final -130.74 input  -60.11 | X-H torsion
[ 7974 7965 7964 7962 ] final  -74.13 input  175.53 | X-H torsion
[ 8008 7997 7996 7995 ] final   79.11 input   59.86 | X-H torsion
[ 10167 10162 10161 10158 ] final   34.43 input  -65.29 | X-H torsion
[ 10718 10713 10712 10709 ] final   29.36 input   66.30 | X-H torsion
[ 10763 10752 10751 10750 ] final -143.67 input  -60.55 | X-H torsion
[ 11005 11000 10999 10996 ] final -145.83 input  -57.11 | X-H torsion

> <Gold.Protein.ActiveResidues>
 VAL166  LYS551  ARG553  GLY616  TRP617  ASP618  TYR619  PRO620  LYS621  CYS622 
 ASP623  PHE694  ASN695  SER759  ASP760  ASP761  ALA762  ILE779  LEU786  VAL792 
 PHE793  MET794  SER795  GLU796  ALA797  LYS798  CYS799  TRP800  GLU811  SER814 

> <Gold.Protein.RotatedAtoms>
  150.9431  133.6633  159.2786 H   0  0  0  0  0  0  0  0  0  0  0  0  # atno 6907 bound_to 6896
  151.4016  135.0970  159.9567 H   0  0  0  0  0  0  0  0  0  0  0  0  # atno 6908 bound_to 6896
  152.5078  133.8924  159.7455 H   0  0  0  0  0  0  0  0  0  0  0  0  # atno 6909 bound_to 6896
  145.6432  140.9305  143.1025 H   0  0  0  0  0  0  0  0  0  0  0  0  # atno 7974 bound_to 7965
  155.8651  140.3452  155.5782 H   0  0  0  0  0  0  0  0  0  0  0  0  # atno 8008 bound_to 7997
  155.7890  140.0869  157.2038 H   0  0  0  0  0  0  0  0  0  0  0  0  # atno 8009 bound_to 7997
  154.4014  140.1486  156.3128 H   0  0  0  0  0  0  0  0  0  0  0  0  # atno 8010 bound_to 7997
  140.4316  144.1317  150.6160 H   0  0  0  0  0  0  0  0  0  0  0  0  # atno 10167 bound_to 10162
  157.2455  130.7090  149.6379 H   0  0  0  0  0  0  0  0  0  0  0  0  # atno 10718 bound_to 10713
  154.8460  135.3461  154.6224 H   0  0  0  0  0  0  0  0  0  0  0  0  # atno 10763 bound_to 10752
  153.6833  135.6979  153.5116 H   0  0  0  0  0  0  0  0  0  0  0  0  # atno 10764 bound_to 10752
  153.2651  135.4310  155.0889 H   0  0  0  0  0  0  0  0  0  0  0  0  # atno 10765 bound_to 10752
  140.7883  134.2999  157.5022 H   0  0  0  0  0  0  0  0  0  0  0  0  # atno 11005 bound_to 11000
  144.7150  139.8231  143.7402 LP  0  0  0  0  0  0  0  0  0  0  0  0  # atno 17320 bound_to 7965
  146.1264  139.4291  143.0196 LP  0  0  0  0  0  0  0  0  0  0  0  0  # atno 17321 bound_to 7965
  140.4421  143.2522  151.9459 LP  0  0  0  0  0  0  0  0  0  0  0  0  # atno 17342 bound_to 10162
  139.4785  144.5644  151.8188 LP  0  0  0  0  0  0  0  0  0  0  0  0  # atno 17343 bound_to 10162
  155.9668  130.4444  150.5460 LP  0  0  0  0  0  0  0  0  0  0  0  0  # atno 17370 bound_to 10713
  157.3333  131.0703  151.1844 LP  0  0  0  0  0  0  0  0  0  0  0  0  # atno 17371 bound_to 10713
  139.8734  134.9359  156.3646 LP  0  0  0  0  0  0  0  0  0  0  0  0  # atno 17394 bound_to 11000
  140.9415  133.7511  156.0153 LP  0  0  0  0  0  0  0  0  0  0  0  0  # atno 17395 bound_to 11000

$$$$
