AV-unprocessed.smi:283|AV-procd|sdf|2125|dock2
  -GOLD-   2262021433D 1   1.00000     0.00000
 Structure written by MMmdl.
 48 51  0  0  0  0  0  0  0  0  1 V2000
  152.4723  139.0831  157.1511 C   0  0  0  0  0  0  0  0  0  0  0  0
  151.6387  140.2716  157.6644 C   0  0  2  0  0  0  0  0  0  0  0  0
  151.3123  141.1966  156.5794 N   0  0  0  0  0  0  0  0  0  0  0  0
  150.1612  141.0933  155.8783 C   0  0  0  0  0  0  0  0  0  0  0  0
  150.1143  140.4405  154.6878 N   0  0  0  0  0  0  0  0  0  0  0  0
  148.9620  140.3554  154.0168 C   0  0  0  0  0  0  0  0  0  0  0  0
  147.7648  140.8420  154.3503 N   0  0  0  0  0  0  0  0  0  0  0  0
  147.8038  141.4940  155.5486 C   0  0  0  0  0  0  0  0  0  0  0  0
  148.9555  141.6586  156.3681 C   0  0  0  0  0  0  0  0  0  0  0  0
  148.6211  142.3710  157.5123 N   0  0  0  0  0  0  0  0  0  0  0  0
  147.3452  142.6126  157.3721 C   0  0  0  0  0  0  0  0  0  0  0  0
  146.7746  142.1265  156.2165 N   0  0  0  0  0  0  0  0  0  0  0  0
  145.3506  142.2552  155.7818 C   0  0  2  0  0  0  0  0  0  0  0  0
  145.3143  143.0484  154.6352 O   0  0  0  0  0  0  0  0  0  0  0  0
  144.2140  143.9477  154.7116 C   0  0  2  0  0  0  0  0  0  0  0  0
  144.4748  145.1672  153.8142 C   0  0  0  0  0  0  0  0  0  0  0  0
  144.5001  144.7757  152.4583 O   0  0  0  0  0  0  0  0  0  0  0  0
  144.1725  144.2836  156.2031 C   0  0  1  0  0  0  0  0  0  0  0  0
  142.9307  144.8237  156.6179 O   0  0  0  0  0  0  0  0  0  0  0  0
  144.5068  142.9483  156.8642 C   0  0  1  0  0  0  0  0  0  0  0  0
  143.3472  142.1892  157.1564 O   0  0  0  0  0  0  0  0  0  0  0  0
  152.3680  140.9554  158.8201 C   0  0  0  0  0  0  0  0  0  0  0  0
  153.0146  140.1751  159.8078 C   0  0  0  0  0  0  0  0  0  0  0  0
  153.6807  140.7879  160.8857 C   0  0  0  0  0  0  0  0  0  0  0  0
  153.7027  142.1897  160.9928 C   0  0  0  0  0  0  0  0  0  0  0  0
  153.0536  142.9761  160.0236 C   0  0  0  0  0  0  0  0  0  0  0  0
  152.3844  142.3684  158.9422 C   0  0  0  0  0  0  0  0  0  0  0  0
  151.5873  143.3867  157.7939 Cl  0  0  0  0  0  0  0  0  0  0  0  0
  145.0315  141.2356  155.5598 H   0  0  0  0  0  0  0  0  0  0  0  0
  143.2978  143.4276  154.4246 H   0  0  0  0  0  0  0  0  0  0  0  0
  144.9550  145.0062  156.4349 H   0  0  0  0  0  0  0  0  0  0  0  0
  145.0767  143.0870  157.7842 H   0  0  0  0  0  0  0  0  0  0  0  0
  152.6740  138.3728  157.9533 H   0  0  0  0  0  0  0  0  0  0  0  0
  153.4324  139.4158  156.7553 H   0  0  0  0  0  0  0  0  0  0  0  0
  151.9607  138.5374  156.3588 H   0  0  0  0  0  0  0  0  0  0  0  0
  150.6927  139.8944  158.0509 H   0  0  0  0  0  0  0  0  0  0  0  0
  152.0422  141.8492  156.3322 H   0  0  0  0  0  0  0  0  0  0  0  0
  149.0055  139.8227  153.0785 H   0  0  0  0  0  0  0  0  0  0  0  0
  146.7815  143.1621  158.1121 H   0  0  0  0  0  0  0  0  0  0  0  0
  143.6721  145.8962  153.9279 H   0  0  0  0  0  0  0  0  0  0  0  0
  145.4058  145.6667  154.0844 H   0  0  0  0  0  0  0  0  0  0  0  0
  144.0061  143.9752  152.3677 H   0  0  0  0  0  0  0  0  0  0  0  0
  142.3258  144.7757  155.8934 H   0  0  0  0  0  0  0  0  0  0  0  0
  143.5291  141.2813  156.9678 H   0  0  0  0  0  0  0  0  0  0  0  0
  153.0006  139.0967  159.7509 H   0  0  0  0  0  0  0  0  0  0  0  0
  154.1720  140.1816  161.6323 H   0  0  0  0  0  0  0  0  0  0  0  0
  154.2122  142.6614  161.8201 H   0  0  0  0  0  0  0  0  0  0  0  0
  153.0663  144.0524  160.1132 H   0  0  0  0  0  0  0  0  0  0  0  0
  1  2  1  0  0  0  0
  1 33  1  0  0  0  0
  1 34  1  0  0  0  0
  1 35  1  0  0  0  0
  2  3  1  0  0  0  0
  2 22  1  0  0  0  0
  2 36  1  0  0  0  0
  3  4  1  0  0  0  0
  3 37  1  0  0  0  0
  4  9  1  0  0  0  0
  4  5  2  0  0  0  0
  5  6  1  0  0  0  0
  6  7  2  0  0  0  0
  6 38  1  0  0  0  0
  7  8  1  0  0  0  0
  8 12  1  0  0  0  0
  8  9  2  0  0  0  0
  9 10  1  0  0  0  0
 10 11  2  0  0  0  0
 11 12  1  0  0  0  0
 11 39  1  0  0  0  0
 12 13  1  0  0  0  0
 13 29  1  0  0  0  0
 13 20  1  0  0  0  0
 13 14  1  0  0  0  0
 14 15  1  0  0  0  0
 15 30  1  0  0  0  0
 15 16  1  0  0  0  0
 15 18  1  0  0  0  0
 16 17  1  0  0  0  0
 16 40  1  0  0  0  0
 16 41  1  0  0  0  0
 17 42  1  0  0  0  0
 18 31  1  0  0  0  0
 18 19  1  0  0  0  0
 18 20  1  0  0  0  0
 19 43  1  0  0  0  0
 20 32  1  0  0  0  0
 20 21  1  0  0  0  0
 21 44  1  0  0  0  0
 22 27  1  0  0  0  0
 22 23  2  0  0  0  0
 23 24  1  0  0  0  0
 23 45  1  0  0  0  0
 24 25  2  0  0  0  0
 24 46  1  0  0  0  0
 25 26  1  0  0  0  0
 25 47  1  0  0  0  0
 26 27  2  0  0  0  0
 26 48  1  0  0  0  0
 27 28  1  0  0  0  0
M  END
> <s_m_source_file>
AV-unprocessed.smi

> <i_m_source_file_index>
283

> <i_lp_mmshare_version>
43012

> <i_f3d_flags>
0

> <s_epik_input>
Q2xjMVtjSF1bY0hdW2NIXVtjSF1jMVtDQEhdKFtDSDNdKVtOSF1jKG5bY0hdbjIpYyhjMjMpbltjSF1uM1tDQEBIXTRPW0NASF0oW0NIMl1bT0hdKVtDQEBIXShbT0hdKVtDQEhdNFtPSF0=

> <s_epik_cmdline>
J2VwaWtfcHl0aG9uJywgJy1waCcsICc3LjAnLCAnLXRuJywgJzgnLCAnLW1hJywgJzIwMCcsICctbWV0YWxfYmluZGluZycsICctaW1hZScsICc8aW5maWxlLm1hZT4nLCAnLW9tYWUnLCAnPG91dGZpbGUubWFlPic=

> <r_lp_tautomer_probability>
1

> <r_epik_Ionization_Penalty>
0.000266407

> <r_epik_Ionization_Penalty_Charging>
0

> <r_epik_Ionization_Penalty_Neutral>
0.000266407

> <r_epik_State_Penalty>
-0

> <r_epik_Charging_Adjusted_Penalty>
0

> <i_epik_Tot_Q>
0

> <i_epik_Tot_abs_Q>
0

> <r_epik_Metal_State_Penalty>
-0

> <b_epik_Metal_Only>
0

> <s_epik_Chemistry_Notes>
This compound contains an acetal/aminal-like group ( X-CH(R)-Y where X, Y are N, S, or O) that may be acid/base labile, releasing an aldehyde.

> <s_lp_Force_Field>
OPLS_2005

> <r_lp_Energy>
47.4388

> <b_lp_Chiralities_Consistent>
1

> <s_lp_Variant>
AV-unprocessed.smi:283-1

> <Gold.Version>
5.8.1

> <Gold.Id.Protein>
6NUR|6NUR_protein|mol2

> <Gold.PLP.Fitness>
49.0168

> <Gold.PLP.PLP>
-43.1892

> <Gold.PLP.part.hbond>
-3.0000

> <Gold.PLP.part.metal>
0.0000

> <Gold.PLP.part.buried>
-4.4528

> <Gold.PLP.part.nonpolar>
-35.8001

> <Gold.PLP.part.repulsive>
1.3307

> <Gold.PLP.ligand.clash>
0.0000

> <Gold.PLP.ligand.torsion>
1.5939

> <Gold.PLP.Chemscore.Hbond>
1.9600

> <Gold.PLP.Chemscore.CHOScore>
0.9978

> <Gold.PLP.Chemscore.Metal>
0.0000

> <Gold.Chemscore.Hbonds>
donor molecule, donor type, donor heavy atom, donor atom, acceptor molecule, acceptor atom, score
      L1  H    17    42       P1 10174  1.00
      P1  H  7989  7998       L1     5  0.96
      L1  C     6    38       P1  7957  0.98

> <Gold.PLP.Chemscore.Internal.Correction>
0.1419

> <Gold.Rescore>
     Score         DG    S(hbond)    S(metal)    S(lipo)     H(rot)  DE(clash)    DE(int)     intcor
      7.76     -11.08       1.39        0.00      97.79       4.10       0.08       3.24       ----

> <Gold.Chemscore.Fitness>
7.7633

> <Gold.Chemscore.DG>
-11.0779

> <Gold.Chemscore.ZeroCoef>
-5.4800

> <Gold.Chemscore.Hbond>
1.3904

> <Gold.Chemscore.Metal>
0.0000

> <Gold.Chemscore.Lipo>
97.7933

> <Gold.Chemscore.Internal_Hbond>
0.0000

> <Gold.Chemscore.DEClash>
0.0786

> <Gold.Chemscore.DEInternal>
3.2360

> <Gold.Chemscore.Rot>
4.0968

> <Gold.Chemscore.Internal.Correction>
   9.000000E+99

> <Gold.Chemscore.Hbonds>
donor molecule, donor type, donor heavy atom, donor atom, acceptor molecule, acceptor atom, score
      L1  H    17    42       P1 10174  0.49
      P1  H  7989  7998       L1     5  0.61

> <Gold.Chemscore.Hbond.Weighted>
-4.6440

> <Gold.Chemscore.Metal.Weighted>
-0.0000

> <Gold.Chemscore.Lipo.Weighted>
-11.4418

> <Gold.Chemscore.Internal_Hbond.Weighted>
0.0000

> <Gold.Chemscore.DEClash.Weighted>
0.0786

> <Gold.Chemscore.DEInternal.Weighted>
3.2360

> <Gold.Chemscore.Rot.Weighted>
10.4879

> <Gold.Chemscore.Internal.Correction.Weighted>
   9.000000E+99

> <Gold.Protein.RotatedTorsions>
[ 6907 6896 6895 6894 ] final   14.73 input  -60.11 | X-H torsion
[ 7974 7965 7964 7962 ] final  113.86 input  175.53 | X-H torsion
[ 8008 7997 7996 7995 ] final   91.95 input   59.86 | X-H torsion
[ 10167 10162 10161 10158 ] final -168.68 input  -65.29 | X-H torsion
[ 10718 10713 10712 10709 ] final -154.39 input   66.30 | X-H torsion
[ 10763 10752 10751 10750 ] final  158.57 input  -60.55 | X-H torsion
[ 11005 11000 10999 10996 ] final   67.28 input  -57.11 | X-H torsion

> <Gold.Protein.ActiveResidues>
 VAL166  LYS551  ARG553  GLY616  TRP617  ASP618  TYR619  PRO620  LYS621  CYS622 
 ASP623  PHE694  ASN695  SER759  ASP760  ASP761  ALA762  ILE779  LEU786  VAL792 
 PHE793  MET794  SER795  GLU796  ALA797  LYS798  CYS799  TRP800  GLU811  SER814 

> <Gold.Protein.RotatedAtoms>
  151.8068  135.0692  160.0407 H   0  0  0  0  0  0  0  0  0  0  0  0  # atno 6907 bound_to 6896
  152.3049  133.5688  159.5651 H   0  0  0  0  0  0  0  0  0  0  0  0  # atno 6908 bound_to 6896
  150.7291  134.0153  159.3725 H   0  0  0  0  0  0  0  0  0  0  0  0  # atno 6909 bound_to 6896
  145.2117  139.2903  143.4265 H   0  0  0  0  0  0  0  0  0  0  0  0  # atno 7974 bound_to 7965
  156.0297  140.3331  155.7126 H   0  0  0  0  0  0  0  0  0  0  0  0  # atno 8008 bound_to 7997
  155.5903  140.0645  157.2778 H   0  0  0  0  0  0  0  0  0  0  0  0  # atno 8009 bound_to 7997
  154.4348  140.1828  156.1055 H   0  0  0  0  0  0  0  0  0  0  0  0  # atno 8010 bound_to 7997
  139.5970  144.1091  152.1700 H   0  0  0  0  0  0  0  0  0  0  0  0  # atno 10167 bound_to 10162
  156.4987  130.8381  151.2600 H   0  0  0  0  0  0  0  0  0  0  0  0  # atno 10718 bound_to 10713
  154.2181  135.2783  155.2934 H   0  0  0  0  0  0  0  0  0  0  0  0  # atno 10763 bound_to 10752
  154.5724  135.5614  153.7111 H   0  0  0  0  0  0  0  0  0  0  0  0  # atno 10764 bound_to 10752
  153.0048  135.6324  154.2320 H   0  0  0  0  0  0  0  0  0  0  0  0  # atno 10765 bound_to 10752
  139.9780  134.6790  156.0317 H   0  0  0  0  0  0  0  0  0  0  0  0  # atno 11005 bound_to 11000
  146.3396  140.2394  142.8595 LP  0  0  0  0  0  0  0  0  0  0  0  0  # atno 17320 bound_to 7965
  144.9850  140.8494  143.5374 LP  0  0  0  0  0  0  0  0  0  0  0  0  # atno 17321 bound_to 7965
  140.0678  144.5804  150.7214 LP  0  0  0  0  0  0  0  0  0  0  0  0  # atno 17342 bound_to 10162
  140.7220  143.2598  151.4247 LP  0  0  0  0  0  0  0  0  0  0  0  0  # atno 17343 bound_to 10162
  157.7465  130.9989  150.2869 LP  0  0  0  0  0  0  0  0  0  0  0  0  # atno 17370 bound_to 10713
  156.3354  130.3807  149.7455 LP  0  0  0  0  0  0  0  0  0  0  0  0  # atno 17371 bound_to 10713
  141.1455  133.6557  156.3855 LP  0  0  0  0  0  0  0  0  0  0  0  0  # atno 17394 bound_to 11000
  140.5155  134.6354  157.5299 LP  0  0  0  0  0  0  0  0  0  0  0  0  # atno 17395 bound_to 11000

$$$$
