AV-unprocessed.smi:69|AV-procd|sdf|658|dock4
  -GOLD-   2262016563D 1   1.00000     0.00000
 Structure written by MMmdl.
 32 34  0  0  0  0  0  0  0  0  1 V2000
  149.8793  138.2843  153.4969 N   0  0  0  0  0  0  0  0  0  0  0  0
  149.8830  138.5587  154.8087 C   0  0  0  0  0  0  0  0  0  0  0  0
  149.7005  137.5383  155.6793 N   0  0  0  0  0  0  0  0  0  0  0  0
  149.6982  137.7862  156.9932 C   0  0  0  0  0  0  0  0  0  0  0  0
  149.8585  138.9528  157.6235 N   0  0  0  0  0  0  0  0  0  0  0  0
  150.0437  139.9808  156.7441 C   0  0  0  0  0  0  0  0  0  0  0  0
  150.0681  139.8657  155.3265 C   0  0  0  0  0  0  0  0  0  0  0  0
  150.2757  141.1132  154.7541 N   0  0  0  0  0  0  0  0  0  0  0  0
  150.3674  141.9175  155.7793 C   0  0  0  0  0  0  0  0  0  0  0  0
  150.2433  141.3196  157.0148 N   0  0  0  0  0  0  0  0  0  0  0  0
  150.3013  141.9752  158.3574 C   0  0  1  0  0  0  0  0  0  0  0  0
  151.3854  141.4392  159.0509 O   0  0  0  0  0  0  0  0  0  0  0  0
  152.0714  142.4741  159.7446 C   0  0  1  0  0  0  0  0  0  0  0  0
  153.5264  142.0510  159.9983 C   0  0  0  0  0  0  0  0  0  0  0  0
  153.5701  140.7175  160.4595 O   0  0  0  0  0  0  0  0  0  0  0  0
  151.9373  143.6599  158.7876 C   0  0  2  0  0  0  0  0  0  0  0  0
  152.1434  144.9061  159.4275 O   0  0  0  0  0  0  0  0  0  0  0  0
  150.5278  143.4914  158.2219 C   0  0  2  0  0  0  0  0  0  0  0  0
  149.5632  144.2165  158.9638 O   0  0  0  0  0  0  0  0  0  0  0  0
  149.3610  141.7081  158.8432 H   0  0  0  0  0  0  0  0  0  0  0  0
  151.5493  142.6924  160.6786 H   0  0  0  0  0  0  0  0  0  0  0  0
  152.6625  143.5631  157.9795 H   0  0  0  0  0  0  0  0  0  0  0  0
  150.4729  143.8067  157.1789 H   0  0  0  0  0  0  0  0  0  0  0  0
  150.0128  139.0286  152.8273 H   0  0  0  0  0  0  0  0  0  0  0  0
  149.7402  137.3357  153.1806 H   0  0  0  0  0  0  0  0  0  0  0  0
  149.5473  136.9277  157.6307 H   0  0  0  0  0  0  0  0  0  0  0  0
  150.5321  142.9787  155.6603 H   0  0  0  0  0  0  0  0  0  0  0  0
  154.1349  142.1648  159.1002 H   0  0  0  0  0  0  0  0  0  0  0  0
  153.9705  142.6782  160.7716 H   0  0  0  0  0  0  0  0  0  0  0  0
  154.3105  140.2859  160.0614 H   0  0  0  0  0  0  0  0  0  0  0  0
  153.0299  144.9312  159.7545 H   0  0  0  0  0  0  0  0  0  0  0  0
  149.2346  144.9172  158.4212 H   0  0  0  0  0  0  0  0  0  0  0  0
  1  2  1  0  0  0  0
  1 24  1  0  0  0  0
  1 25  1  0  0  0  0
  2  7  1  0  0  0  0
  2  3  2  0  0  0  0
  3  4  1  0  0  0  0
  4  5  2  0  0  0  0
  4 26  1  0  0  0  0
  5  6  1  0  0  0  0
  6 10  1  0  0  0  0
  6  7  2  0  0  0  0
  7  8  1  0  0  0  0
  8  9  2  0  0  0  0
  9 10  1  0  0  0  0
  9 27  1  0  0  0  0
 10 11  1  0  0  0  0
 11 20  1  0  0  0  0
 11 18  1  0  0  0  0
 11 12  1  0  0  0  0
 12 13  1  0  0  0  0
 13 21  1  0  0  0  0
 13 14  1  0  0  0  0
 13 16  1  0  0  0  0
 14 15  1  0  0  0  0
 14 28  1  0  0  0  0
 14 29  1  0  0  0  0
 15 30  1  0  0  0  0
 16 22  1  0  0  0  0
 16 17  1  0  0  0  0
 16 18  1  0  0  0  0
 17 31  1  0  0  0  0
 18 23  1  0  0  0  0
 18 19  1  0  0  0  0
 19 32  1  0  0  0  0
M  END
> <s_m_source_file>
AV-unprocessed.smi

> <i_m_source_file_index>
69

> <i_lp_mmshare_version>
43012

> <i_f3d_flags>
0

> <s_epik_input>
bjFbY0hdbmMoW05IMl0pYyhjMTIpbltjSF1uMltDQEBIXTNPW0NASF0oW0NIMl1bT0hdKVtDQEBIXShbT0hdKVtDQEhdM1tPSF0=

> <s_epik_cmdline>
J2VwaWtfcHl0aG9uJywgJy1waCcsICc3LjAnLCAnLXRuJywgJzgnLCAnLW1hJywgJzIwMCcsICctbWV0YWxfYmluZGluZycsICctaW1hZScsICc8aW5maWxlLm1hZT4nLCAnLW9tYWUnLCAnPG91dGZpbGUubWFlPic=

> <r_lp_tautomer_probability>
1

> <r_epik_Ionization_Penalty>
0.000428445

> <r_epik_Ionization_Penalty_Charging>
0

> <r_epik_Ionization_Penalty_Neutral>
0.000428445

> <r_epik_State_Penalty>
-0

> <r_epik_Charging_Adjusted_Penalty>
0

> <i_epik_Tot_Q>
0

> <i_epik_Tot_abs_Q>
0

> <r_epik_Metal_State_Penalty>
-0

> <b_epik_Metal_Only>
0

> <s_epik_Chemistry_Notes>
This compound contains an acetal/aminal-like group ( X-CH(R)-Y where X, Y are N, S, or O) that may be acid/base labile, releasing an aldehyde.

> <s_lp_Force_Field>
OPLS_2005

> <r_lp_Energy>
38.6546

> <b_lp_Chiralities_Consistent>
1

> <s_lp_Variant>
AV-unprocessed.smi:69-16

> <Gold.Version>
5.8.1

> <Gold.Id.Protein>
6NUR|6NUR_protein|mol2

> <Gold.PLP.Fitness>
40.7791

> <Gold.PLP.PLP>
-27.4454

> <Gold.PLP.part.hbond>
-4.0000

> <Gold.PLP.part.metal>
0.0000

> <Gold.PLP.part.buried>
-4.2544

> <Gold.PLP.part.nonpolar>
-20.1080

> <Gold.PLP.part.repulsive>
0.2609

> <Gold.PLP.ligand.clash>
0.0000

> <Gold.PLP.ligand.torsion>
0.1664

> <Gold.PLP.Chemscore.Hbond>
3.5520

> <Gold.PLP.Chemscore.CHOScore>
0.9992

> <Gold.PLP.Chemscore.Metal>
0.0000

> <Gold.Chemscore.Hbonds>
donor molecule, donor type, donor heavy atom, donor atom, acceptor molecule, acceptor atom, score
      L1  H     1    24       P1  7957  1.00
      L1  H     1    25       P1  7948  0.91
      L1  H    19    32       P1  8029  0.99
      P1  H  7989  7998       L1     8  0.62
      L1  C     9    27       P1  8028  0.96

> <Gold.PLP.Chemscore.Internal.Correction>
0.0131

> <Gold.Rescore>
     Score         DG    S(hbond)    S(metal)    S(lipo)     H(rot)  DE(clash)    DE(int)     intcor
     10.38     -10.63       3.06        0.00      44.65       4.03       0.01       0.24       ----

> <Gold.Chemscore.Fitness>
10.3841

> <Gold.Chemscore.DG>
-10.6292

> <Gold.Chemscore.ZeroCoef>
-5.4800

> <Gold.Chemscore.Hbond>
3.0647

> <Gold.Chemscore.Metal>
0.0000

> <Gold.Chemscore.Lipo>
44.6496

> <Gold.Chemscore.Internal_Hbond>
0.0000

> <Gold.Chemscore.DEClash>
0.0092

> <Gold.Chemscore.DEInternal>
0.2359

> <Gold.Chemscore.Rot>
4.0277

> <Gold.Chemscore.Internal.Correction>
   9.000000E+99

> <Gold.Chemscore.Hbonds>
donor molecule, donor type, donor heavy atom, donor atom, acceptor molecule, acceptor atom, score
      L1  H     1    24       P1  7957  0.78
      L1  H     1    25       P1  7948  0.49
      L1  H    19    32       P1  8029  0.60
      P1  H  7989  7998       L1     8  0.37

> <Gold.Chemscore.Hbond.Weighted>
-10.2362

> <Gold.Chemscore.Metal.Weighted>
-0.0000

> <Gold.Chemscore.Lipo.Weighted>
-5.2240

> <Gold.Chemscore.Internal_Hbond.Weighted>
0.0000

> <Gold.Chemscore.DEClash.Weighted>
0.0092

> <Gold.Chemscore.DEInternal.Weighted>
0.2359

> <Gold.Chemscore.Rot.Weighted>
10.3110

> <Gold.Chemscore.Internal.Correction.Weighted>
   9.000000E+99

> <Gold.Protein.RotatedTorsions>
[ 6907 6896 6895 6894 ] final  -41.55 input  -60.11 | X-H torsion
[ 7974 7965 7964 7962 ] final -108.71 input  175.53 | X-H torsion
[ 8008 7997 7996 7995 ] final  -32.36 input   59.86 | X-H torsion
[ 10167 10162 10161 10158 ] final  -59.06 input  -65.29 | X-H torsion
[ 10718 10713 10712 10709 ] final  -31.08 input   66.30 | X-H torsion
[ 10763 10752 10751 10750 ] final  143.09 input  -60.55 | X-H torsion
[ 11005 11000 10999 10996 ] final  -65.91 input  -57.11 | X-H torsion

> <Gold.Protein.ActiveResidues>
 VAL166  LYS551  ARG553  GLY616  TRP617  ASP618  TYR619  PRO620  LYS621  CYS622 
 ASP623  PHE694  ASN695  SER759  ASP760  ASP761  ALA762  ILE779  LEU786  VAL792 
 PHE793  MET794  SER795  GLU796  ALA797  LYS798  CYS799  TRP800  GLU811  SER814 

> <Gold.Protein.RotatedAtoms>
  150.9655  134.9036  159.7755 H   0  0  0  0  0  0  0  0  0  0  0  0  # atno 6907 bound_to 6896
  152.5171  134.3614  159.9296 H   0  0  0  0  0  0  0  0  0  0  0  0  # atno 6908 bound_to 6896
  151.3624  133.3844  159.2726 H   0  0  0  0  0  0  0  0  0  0  0  0  # atno 6909 bound_to 6896
  145.1894  140.9008  143.3433 H   0  0  0  0  0  0  0  0  0  0  0  0  # atno 7974 bound_to 7965
  154.4182  140.1739  156.1715 H   0  0  0  0  0  0  0  0  0  0  0  0  # atno 8008 bound_to 7997
  155.9757  140.3382  155.6592 H   0  0  0  0  0  0  0  0  0  0  0  0  # atno 8009 bound_to 7997
  155.6567  140.0696  157.2559 H   0  0  0  0  0  0  0  0  0  0  0  0  # atno 8010 bound_to 7997
  140.6159  143.2402  151.5599 H   0  0  0  0  0  0  0  0  0  0  0  0  # atno 10167 bound_to 10162
  156.3917  130.4374  149.7389 H   0  0  0  0  0  0  0  0  0  0  0  0  # atno 10718 bound_to 10713
  153.9665  135.2955  155.3430 H   0  0  0  0  0  0  0  0  0  0  0  0  # atno 10763 bound_to 10752
  154.7346  135.5052  153.9023 H   0  0  0  0  0  0  0  0  0  0  0  0  # atno 10764 bound_to 10752
  153.0921  135.6710  153.9946 H   0  0  0  0  0  0  0  0  0  0  0  0  # atno 10765 bound_to 10752
  141.1468  133.6690  156.6059 H   0  0  0  0  0  0  0  0  0  0  0  0  # atno 11005 bound_to 11000
  145.0056  139.3557  143.6146 LP  0  0  0  0  0  0  0  0  0  0  0  0  # atno 17320 bound_to 7965
  146.3439  139.9297  142.8755 LP  0  0  0  0  0  0  0  0  0  0  0  0  # atno 17321 bound_to 7965
  139.5398  144.2680  152.1327 LP  0  0  0  0  0  0  0  0  0  0  0  0  # atno 17342 bound_to 10162
  140.1889  144.4771  150.6489 LP  0  0  0  0  0  0  0  0  0  0  0  0  # atno 17343 bound_to 10162
  156.4440  130.7875  151.2896 LP  0  0  0  0  0  0  0  0  0  0  0  0  # atno 17370 bound_to 10713
  157.7499  131.0116  150.3351 LP  0  0  0  0  0  0  0  0  0  0  0  0  # atno 17371 bound_to 10713
  140.3652  134.7653  157.4561 LP  0  0  0  0  0  0  0  0  0  0  0  0  # atno 17394 bound_to 11000
  140.0754  134.5805  155.8597 LP  0  0  0  0  0  0  0  0  0  0  0  0  # atno 17395 bound_to 11000

$$$$
