AV-unprocessed.smi:2494|AV-procd|sdf|9821|dock7
  -GOLD-   2272013453D 1   1.00000     0.00000
 Structure written by MMmdl.
 30 31  0  0  0  0  0  0  0  0  1 V2000
  148.6861  142.8635  154.0807 O   0  0  0  0  0  0  0  0  0  0  0  0
  147.9964  141.6683  154.3767 C   0  0  0  0  0  0  0  0  0  0  0  0
  148.7422  140.8974  155.4784 C   0  0  0  0  0  0  0  0  0  0  0  0
  150.0541  140.2186  155.0009 C   0  0  2  0  0  0  0  0  0  0  0  0
  149.7444  138.8551  154.3336 C   0  0  0  0  0  0  0  0  0  0  0  0
  150.9397  138.1869  153.9529 O   0  0  0  0  0  0  0  0  0  0  0  0
  151.7566  137.9032  155.0778 C   0  0  0  0  0  0  0  0  0  0  0  0
  152.1792  139.2283  155.7222 C   0  0  0  0  0  0  0  0  0  0  0  0
  151.0149  140.0249  156.0991 N   0  0  0  0  0  0  0  0  0  0  0  0
  151.3443  141.0826  156.9373 C   0  0  0  0  0  0  0  0  0  0  0  0
  150.9674  142.3148  156.5693 N   0  0  0  0  0  0  0  0  0  0  0  0
  151.3219  143.3349  157.3805 C   0  0  0  0  0  0  0  0  0  0  0  0
  152.0642  143.1168  158.5579 C   0  0  0  0  0  0  0  0  0  0  0  0
  152.5214  144.4161  159.5964 Cl  0  0  0  0  0  0  0  0  0  0  0  0
  152.4160  141.7821  158.8411 C   0  0  0  0  0  0  0  0  0  0  0  0
  152.0576  140.7678  158.0242 N   0  0  0  0  0  0  0  0  0  0  0  0
  149.6006  142.6601  153.9552 H   0  0  0  0  0  0  0  0  0  0  0  0
  146.9841  141.9270  154.6853 H   0  0  0  0  0  0  0  0  0  0  0  0
  147.9228  141.0678  153.4696 H   0  0  0  0  0  0  0  0  0  0  0  0
  148.9511  141.6061  156.2790 H   0  0  0  0  0  0  0  0  0  0  0  0
  148.0796  140.1471  155.9125 H   0  0  0  0  0  0  0  0  0  0  0  0
  150.5315  140.8626  154.2609 H   0  0  0  0  0  0  0  0  0  0  0  0
  149.1623  138.2164  155.0005 H   0  0  0  0  0  0  0  0  0  0  0  0
  149.1502  138.9931  153.4313 H   0  0  0  0  0  0  0  0  0  0  0  0
  151.2242  137.2697  155.7892 H   0  0  0  0  0  0  0  0  0  0  0  0
  152.6351  137.3482  154.7487 H   0  0  0  0  0  0  0  0  0  0  0  0
  152.7970  139.0249  156.5978 H   0  0  0  0  0  0  0  0  0  0  0  0
  152.7930  139.8021  155.0263 H   0  0  0  0  0  0  0  0  0  0  0  0
  151.0140  144.3274  157.0861 H   0  0  0  0  0  0  0  0  0  0  0  0
  152.9870  141.5265  159.7213 H   0  0  0  0  0  0  0  0  0  0  0  0
  1  2  1  0  0  0  0
  1 17  1  0  0  0  0
  2  3  1  0  0  0  0
  2 18  1  0  0  0  0
  2 19  1  0  0  0  0
  3  4  1  0  0  0  0
  3 20  1  0  0  0  0
  3 21  1  0  0  0  0
  4  9  1  0  0  0  0
  4  5  1  0  0  0  0
  4 22  1  0  0  0  0
  5  6  1  0  0  0  0
  5 23  1  0  0  0  0
  5 24  1  0  0  0  0
  6  7  1  0  0  0  0
  7  8  1  0  0  0  0
  7 25  1  0  0  0  0
  7 26  1  0  0  0  0
  8  9  1  0  0  0  0
  8 27  1  0  0  0  0
  8 28  1  0  0  0  0
  9 10  1  0  0  0  0
 10 16  1  0  0  0  0
 10 11  2  0  0  0  0
 11 12  1  0  0  0  0
 12 13  2  0  0  0  0
 12 29  1  0  0  0  0
 13 14  1  0  0  0  0
 13 15  1  0  0  0  0
 15 16  2  0  0  0  0
 15 30  1  0  0  0  0
M  END
> <s_m_source_file>
AV-unprocessed.smi

> <i_m_source_file_index>
2494

> <i_lp_mmshare_version>
43012

> <i_f3d_flags>
0

> <s_epik_input>
W09IXVtDSDJdW0NIMl1bQ0BASF0xW0NIMl1PW0NIMl1bQ0gyXU4xYzJuW2NIXWMoQ2wpW2NIXW4y

> <s_epik_cmdline>
J2VwaWtfcHl0aG9uJywgJy1waCcsICc3LjAnLCAnLXRuJywgJzgnLCAnLW1hJywgJzIwMCcsICctbWV0YWxfYmluZGluZycsICctaW1hZScsICc8aW5maWxlLm1hZT4nLCAnLW9tYWUnLCAnPG91dGZpbGUubWFlPic=

> <r_lp_tautomer_probability>
1

> <r_epik_Ionization_Penalty>
3.66811e-07

> <r_epik_Ionization_Penalty_Charging>
0

> <r_epik_Ionization_Penalty_Neutral>
3.66811e-07

> <r_epik_State_Penalty>
-0

> <r_epik_Charging_Adjusted_Penalty>
0

> <i_epik_Tot_Q>
0

> <i_epik_Tot_abs_Q>
0

> <r_epik_Metal_State_Penalty>
-0

> <b_epik_Metal_Only>
0

> <s_lp_Force_Field>
OPLS_2005

> <r_lp_Energy>
15.3646

> <b_lp_Chiralities_Consistent>
1

> <s_lp_Variant>
AV-unprocessed.smi:2494-1

> <Gold.Version>
5.8.1

> <Gold.Id.Protein>
6NUR|6NUR_protein|mol2

> <Gold.PLP.Fitness>
37.2070

> <Gold.PLP.PLP>
-32.1793

> <Gold.PLP.part.hbond>
-2.5686

> <Gold.PLP.part.metal>
0.0000

> <Gold.PLP.part.buried>
-1.7553

> <Gold.PLP.part.nonpolar>
-26.3925

> <Gold.PLP.part.repulsive>
0.3498

> <Gold.PLP.ligand.clash>
0.0000

> <Gold.PLP.ligand.torsion>
0.4665

> <Gold.PLP.Chemscore.Hbond>
1.0000

> <Gold.PLP.Chemscore.CHOScore>
0.8819

> <Gold.PLP.Chemscore.Metal>
0.0000

> <Gold.Chemscore.Hbonds>
donor molecule, donor type, donor heavy atom, donor atom, acceptor molecule, acceptor atom, score
      P1  H  8022  8030       L1     1  1.00
      L1  C    12    29       P1  8028  0.79

> <Gold.PLP.Chemscore.Internal.Correction>
0.3150

> <Gold.Rescore>
     Score         DG    S(hbond)    S(metal)    S(lipo)     H(rot)  DE(clash)    DE(int)     intcor
     11.23     -13.25       0.91        0.00      85.15       2.04       0.20       1.82       ----

> <Gold.Chemscore.Fitness>
11.2307

> <Gold.Chemscore.DG>
-13.2499

> <Gold.Chemscore.ZeroCoef>
-5.4800

> <Gold.Chemscore.Hbond>
0.9091

> <Gold.Chemscore.Metal>
0.0000

> <Gold.Chemscore.Lipo>
85.1460

> <Gold.Chemscore.Internal_Hbond>
0.0000

> <Gold.Chemscore.DEClash>
0.2009

> <Gold.Chemscore.DEInternal>
1.8183

> <Gold.Chemscore.Rot>
2.0424

> <Gold.Chemscore.Internal.Correction>
   9.000000E+99

> <Gold.Chemscore.Hbonds>
donor molecule, donor type, donor heavy atom, donor atom, acceptor molecule, acceptor atom, score
      P1  H  8022  8030       L1     1  0.39

> <Gold.Chemscore.Hbond.Weighted>
-3.0363

> <Gold.Chemscore.Metal.Weighted>
-0.0000

> <Gold.Chemscore.Lipo.Weighted>
-9.9621

> <Gold.Chemscore.Internal_Hbond.Weighted>
0.0000

> <Gold.Chemscore.DEClash.Weighted>
0.2009

> <Gold.Chemscore.DEInternal.Weighted>
1.8183

> <Gold.Chemscore.Rot.Weighted>
5.2285

> <Gold.Chemscore.Internal.Correction.Weighted>
   9.000000E+99

> <Gold.Protein.RotatedTorsions>
[ 6907 6896 6895 6894 ] final -149.72 input  -60.11 | X-H torsion
[ 7974 7965 7964 7962 ] final -121.28 input  175.53 | X-H torsion
[ 8008 7997 7996 7995 ] final   66.03 input   59.86 | X-H torsion
[ 10167 10162 10161 10158 ] final -175.60 input  -65.29 | X-H torsion
[ 10718 10713 10712 10709 ] final  169.82 input   66.30 | X-H torsion
[ 10763 10752 10751 10750 ] final  166.01 input  -60.55 | X-H torsion
[ 11005 11000 10999 10996 ] final   42.48 input  -57.11 | X-H torsion

> <Gold.Protein.ActiveResidues>
 VAL166  LYS551  ARG553  GLY616  TRP617  ASP618  TYR619  PRO620  LYS621  CYS622 
 ASP623  PHE694  ASN695  SER759  ASP760  ASP761  ALA762  ILE779  LEU786  VAL792 
 PHE793  MET794  SER795  GLU796  ALA797  LYS798  CYS799  TRP800  GLU811  SER814 

> <Gold.Protein.RotatedAtoms>
  151.1883  133.4683  159.2594 H   0  0  0  0  0  0  0  0  0  0  0  0  # atno 6907 bound_to 6896
  151.1190  135.0068  159.8539 H   0  0  0  0  0  0  0  0  0  0  0  0  # atno 6908 bound_to 6896
  152.5455  134.1795  159.8683 H   0  0  0  0  0  0  0  0  0  0  0  0  # atno 6909 bound_to 6896
  145.0421  140.8153  143.4260 H   0  0  0  0  0  0  0  0  0  0  0  0  # atno 7974 bound_to 7965
  155.6709  140.3497  155.4818 H   0  0  0  0  0  0  0  0  0  0  0  0  # atno 8008 bound_to 7997
  155.9688  140.1152  157.0853 H   0  0  0  0  0  0  0  0  0  0  0  0  # atno 8009 bound_to 7997
  154.4161  140.1161  156.5265 H   0  0  0  0  0  0  0  0  0  0  0  0  # atno 8010 bound_to 7997
  139.5572  144.1959  152.1179 H   0  0  0  0  0  0  0  0  0  0  0  0  # atno 10167 bound_to 10162
  157.0171  131.0221  151.2786 H   0  0  0  0  0  0  0  0  0  0  0  0  # atno 10718 bound_to 10713
  154.3325  135.2754  155.2464 H   0  0  0  0  0  0  0  0  0  0  0  0  # atno 10763 bound_to 10752
  154.4770  135.5868  153.6365 H   0  0  0  0  0  0  0  0  0  0  0  0  # atno 10764 bound_to 10752
  152.9865  135.6102  154.3519 H   0  0  0  0  0  0  0  0  0  0  0  0  # atno 10765 bound_to 10752
  140.1735  134.4193  155.8243 H   0  0  0  0  0  0  0  0  0  0  0  0  # atno 11005 bound_to 11000
  145.1634  139.2445  143.5379 LP  0  0  0  0  0  0  0  0  0  0  0  0  # atno 17320 bound_to 7965
  146.3510  140.1367  142.8595 LP  0  0  0  0  0  0  0  0  0  0  0  0  # atno 17321 bound_to 7965
  140.1465  144.5154  150.6712 LP  0  0  0  0  0  0  0  0  0  0  0  0  # atno 17342 bound_to 10162
  140.6847  143.2344  151.5292 LP  0  0  0  0  0  0  0  0  0  0  0  0  # atno 17343 bound_to 10162
  157.5277  130.8038  149.7881 LP  0  0  0  0  0  0  0  0  0  0  0  0  # atno 17370 bound_to 10713
  156.0115  130.3831  150.2249 LP  0  0  0  0  0  0  0  0  0  0  0  0  # atno 17371 bound_to 10713
  141.2219  133.6967  156.7805 LP  0  0  0  0  0  0  0  0  0  0  0  0  # atno 17394 bound_to 11000
  140.2350  134.8657  157.3515 LP  0  0  0  0  0  0  0  0  0  0  0  0  # atno 17395 bound_to 11000

$$$$
