AV-unprocessed.smi:837|AV-procd|sdf|3892|dock2
  -GOLD-   22720 1353D 1   1.00000     0.00000
 Structure written by MMmdl.
 49 51  0  0  0  0  0  0  0  0  1 V2000
  150.4298  132.8082  155.2889 C   0  0  0  0  0  0  0  0  0  0  0  0
  149.0092  133.4060  155.3840 C   0  0  2  0  0  0  0  0  0  0  0  0
  148.1943  133.0354  154.1257 C   0  0  0  0  0  0  0  0  0  0  0  0
  146.7502  133.5555  154.1990 C   0  0  0  0  0  0  0  0  0  0  0  0
  146.7148  135.0731  154.4265 C   0  0  0  0  0  0  0  0  0  0  0  0
  147.5051  135.4568  155.6873 C   0  0  0  0  0  0  0  0  0  0  0  0
  148.9650  134.9460  155.6346 C   0  0  2  0  0  0  0  0  0  0  0  0
  149.7423  135.6856  154.6539 N   0  0  0  0  0  0  0  0  0  0  0  0
  150.7484  136.3799  155.2007 C   0  0  0  0  0  0  0  0  0  0  0  0
  151.5536  137.0698  154.5776 O   0  0  0  0  0  0  0  0  0  0  0  0
  150.7242  136.1821  156.5312 N   0  0  0  0  0  0  0  0  0  0  0  0
  151.7031  136.7351  157.4748 C   0  0  0  0  0  0  0  0  0  0  0  0
  151.1184  137.8705  158.3256 C   0  0  0  0  0  0  0  0  0  0  0  0
  150.1645  137.6649  159.0770 O   0  0  0  0  0  0  0  0  0  0  0  0
  151.7112  139.0672  158.2015 N   0  0  0  0  0  0  0  0  0  0  0  0
  151.3048  140.2849  158.8971 C   0  0  0  0  0  0  0  0  0  0  0  0
  151.5157  141.5615  158.0576 C   0  0  0  0  0  0  0  0  0  0  0  0
  151.3227  142.8470  158.8439 C   0  0  0  0  0  0  0  0  0  0  0  0
  151.7992  142.9661  160.1660 C   0  0  0  0  0  0  0  0  0  0  0  0
  151.5875  144.1738  160.8576 C   0  0  0  0  0  0  0  0  0  0  0  0
  150.9072  145.2149  160.1954 C   0  0  0  0  0  0  0  0  0  0  0  0
  150.4490  145.1136  158.9288 N   0  0  0  0  0  0  0  0  0  0  0  0
  150.6565  143.9515  158.2726 C   0  0  0  0  0  0  0  0  0  0  0  0
  149.7231  135.3656  156.8870 C   0  0  0  0  0  0  0  0  0  0  0  0
  149.4404  134.9880  158.0242 O   0  0  0  0  0  0  0  0  0  0  0  0
  150.9823  133.2173  154.4428 H   0  0  0  0  0  0  0  0  0  0  0  0
  150.3873  131.7267  155.1576 H   0  0  0  0  0  0  0  0  0  0  0  0
  151.0145  132.9960  156.1888 H   0  0  0  0  0  0  0  0  0  0  0  0
  148.5221  132.9235  156.2333 H   0  0  0  0  0  0  0  0  0  0  0  0
  148.6803  133.4397  153.2367 H   0  0  0  0  0  0  0  0  0  0  0  0
  148.1793  131.9524  153.9985 H   0  0  0  0  0  0  0  0  0  0  0  0
  146.2190  133.3063  153.2799 H   0  0  0  0  0  0  0  0  0  0  0  0
  146.2206  133.0516  155.0086 H   0  0  0  0  0  0  0  0  0  0  0  0
  147.1285  135.5863  153.5575 H   0  0  0  0  0  0  0  0  0  0  0  0
  145.6820  135.4096  154.5200 H   0  0  0  0  0  0  0  0  0  0  0  0
  147.4805  136.5401  155.8178 H   0  0  0  0  0  0  0  0  0  0  0  0
  147.0004  135.0362  156.5587 H   0  0  0  0  0  0  0  0  0  0  0  0
  149.5422  135.6575  153.6646 H   0  0  0  0  0  0  0  0  0  0  0  0
  152.0703  135.9557  158.1442 H   0  0  0  0  0  0  0  0  0  0  0  0
  152.5772  137.0938  156.9277 H   0  0  0  0  0  0  0  0  0  0  0  0
  152.4892  139.1464  157.5625 H   0  0  0  0  0  0  0  0  0  0  0  0
  150.2647  140.2065  159.2170 H   0  0  0  0  0  0  0  0  0  0  0  0
  151.9020  140.3491  159.8068 H   0  0  0  0  0  0  0  0  0  0  0  0
  152.5183  141.5581  157.6280 H   0  0  0  0  0  0  0  0  0  0  0  0
  150.8289  141.5607  157.2107 H   0  0  0  0  0  0  0  0  0  0  0  0
  152.3104  142.1452  160.6466 H   0  0  0  0  0  0  0  0  0  0  0  0
  151.9339  144.2962  161.8730 H   0  0  0  0  0  0  0  0  0  0  0  0
  150.7258  146.1541  160.6965 H   0  0  0  0  0  0  0  0  0  0  0  0
  150.2758  143.9002  157.2631 H   0  0  0  0  0  0  0  0  0  0  0  0
  1  2  1  0  0  0  0
  1 26  1  0  0  0  0
  1 27  1  0  0  0  0
  1 28  1  0  0  0  0
  2  7  1  0  0  0  0
  2  3  1  0  0  0  0
  2 29  1  0  0  0  0
  3  4  1  0  0  0  0
  3 30  1  0  0  0  0
  3 31  1  0  0  0  0
  4  5  1  0  0  0  0
  4 32  1  0  0  0  0
  4 33  1  0  0  0  0
  5  6  1  0  0  0  0
  5 34  1  0  0  0  0
  5 35  1  0  0  0  0
  6  7  1  0  0  0  0
  6 36  1  0  0  0  0
  6 37  1  0  0  0  0
  7 24  1  0  0  0  0
  7  8  1  0  0  0  0
  8  9  1  0  0  0  0
  8 38  1  0  0  0  0
  9 10  2  0  0  0  0
  9 11  1  0  0  0  0
 11 12  1  0  0  0  0
 11 24  1  0  0  0  0
 12 13  1  0  0  0  0
 12 39  1  0  0  0  0
 12 40  1  0  0  0  0
 13 14  2  0  0  0  0
 13 15  1  0  0  0  0
 15 16  1  0  0  0  0
 15 41  1  0  0  0  0
 16 17  1  0  0  0  0
 16 42  1  0  0  0  0
 16 43  1  0  0  0  0
 17 18  1  0  0  0  0
 17 44  1  0  0  0  0
 17 45  1  0  0  0  0
 18 23  1  0  0  0  0
 18 19  2  0  0  0  0
 19 20  1  0  0  0  0
 19 46  1  0  0  0  0
 20 21  2  0  0  0  0
 20 47  1  0  0  0  0
 21 22  1  0  0  0  0
 21 48  1  0  0  0  0
 22 23  2  0  0  0  0
 23 49  1  0  0  0  0
 24 25  2  0  0  0  0
M  END
> <s_m_source_file>
AV-unprocessed.smi

> <i_m_source_file_index>
837

> <i_lp_mmshare_version>
43012

> <i_f3d_flags>
0

> <s_epik_input>
W0NIMl0xW0NIMl1bQ0gyXVtDSDJdW0NAQEhdKFtDSDNdKVtDQEBdMTJbTkhdQyg9TylOKEMyPU8pW0NIMl1DKD1PKVtOSF1bQ0gyXVtDSDJdYzNbY0hdW2NIXVtjSF1uW2NIXTM=

> <s_epik_cmdline>
J2VwaWtfcHl0aG9uJywgJy1waCcsICc3LjAnLCAnLXRuJywgJzgnLCAnLW1hJywgJzIwMCcsICctbWV0YWxfYmluZGluZycsICctaW1hZScsICc8aW5maWxlLm1hZT4nLCAnLW9tYWUnLCAnPG91dGZpbGUubWFlPic=

> <r_lp_tautomer_probability>
1

> <r_epik_Ionization_Penalty>
0.0127837

> <r_epik_Ionization_Penalty_Charging>
0

> <r_epik_Ionization_Penalty_Neutral>
0.0127837

> <r_epik_State_Penalty>
0.00987657

> <r_epik_Charging_Adjusted_Penalty>
0.00987657

> <i_epik_Tot_Q>
0

> <i_epik_Tot_abs_Q>
0

> <r_epik_Metal_State_Penalty>
0.0309865

> <b_epik_Metal_Only>
0

> <s_lp_Force_Field>
OPLS_2005

> <r_lp_Energy>
21.3574

> <b_lp_Chiralities_Consistent>
1

> <s_lp_Variant>
AV-unprocessed.smi:837-1

> <Gold.Version>
5.8.1

> <Gold.Id.Protein>
6NUR|6NUR_protein|mol2

> <Gold.PLP.Fitness>
47.7610

> <Gold.PLP.PLP>
-37.1946

> <Gold.PLP.part.hbond>
-3.0000

> <Gold.PLP.part.metal>
0.0000

> <Gold.PLP.part.buried>
-7.9801

> <Gold.PLP.part.nonpolar>
-28.3046

> <Gold.PLP.part.repulsive>
0.4238

> <Gold.PLP.ligand.clash>
0.0000

> <Gold.PLP.ligand.torsion>
0.6491

> <Gold.PLP.Chemscore.Hbond>
2.9440

> <Gold.PLP.Chemscore.CHOScore>
0.9981

> <Gold.PLP.Chemscore.Metal>
0.0000

> <Gold.Chemscore.Hbonds>
donor molecule, donor type, donor heavy atom, donor atom, acceptor molecule, acceptor atom, score
      L1  H     8    38       P1  7948  1.00
      P1  H  6896  6909       L1    25  0.99
      P1  H 10752 10764       L1    10  0.90
      L1  C    23    49       P1  8028  1.00

> <Gold.PLP.Chemscore.Internal.Correction>
0.0382

> <Gold.Rescore>
     Score         DG    S(hbond)    S(metal)    S(lipo)     H(rot)  DE(clash)    DE(int)     intcor
     18.42     -20.25       2.67        0.00      90.46       1.86       0.01       1.82       ----

> <Gold.Chemscore.Fitness>
18.4154

> <Gold.Chemscore.DG>
-20.2475

> <Gold.Chemscore.ZeroCoef>
-5.4800

> <Gold.Chemscore.Hbond>
2.6746

> <Gold.Chemscore.Metal>
0.0000

> <Gold.Chemscore.Lipo>
90.4610

> <Gold.Chemscore.Internal_Hbond>
0.0000

> <Gold.Chemscore.DEClash>
0.0103

> <Gold.Chemscore.DEInternal>
1.8217

> <Gold.Chemscore.Rot>
1.8553

> <Gold.Chemscore.Internal.Correction>
   9.000000E+99

> <Gold.Chemscore.Hbonds>
donor molecule, donor type, donor heavy atom, donor atom, acceptor molecule, acceptor atom, score
      L1  H     8    38       P1  7948  0.25
      P1  H  6896  6909       L1    25  0.90
      P1  H 10752 10764       L1    10  0.17

> <Gold.Chemscore.Hbond.Weighted>
-8.9333

> <Gold.Chemscore.Metal.Weighted>
-0.0000

> <Gold.Chemscore.Lipo.Weighted>
-10.5839

> <Gold.Chemscore.Internal_Hbond.Weighted>
0.0000

> <Gold.Chemscore.DEClash.Weighted>
0.0103

> <Gold.Chemscore.DEInternal.Weighted>
1.8217

> <Gold.Chemscore.Rot.Weighted>
4.7497

> <Gold.Chemscore.Internal.Correction.Weighted>
   9.000000E+99

> <Gold.Protein.RotatedTorsions>
[ 6907 6896 6895 6894 ] final   17.96 input  -60.11 | X-H torsion
[ 7974 7965 7964 7962 ] final -178.50 input  175.53 | X-H torsion
[ 8008 7997 7996 7995 ] final  -86.07 input   59.86 | X-H torsion
[ 10167 10162 10161 10158 ] final   -4.70 input  -65.29 | X-H torsion
[ 10718 10713 10712 10709 ] final  174.05 input   66.30 | X-H torsion
[ 10763 10752 10751 10750 ] final  -77.59 input  -60.55 | X-H torsion
[ 11005 11000 10999 10996 ] final  -39.63 input  -57.11 | X-H torsion

> <Gold.Protein.ActiveResidues>
 VAL166  LYS551  ARG553  GLY616  TRP617  ASP618  TYR619  PRO620  LYS621  CYS622 
 ASP623  PHE694  ASN695  SER759  ASP760  ASP761  ALA762  ILE779  LEU786  VAL792 
 PHE793  MET794  SER795  GLU796  ALA797  LYS798  CYS799  TRP800  GLU811  SER814 

> <Gold.Protein.RotatedAtoms>
  151.8578  135.0535  160.0465 H   0  0  0  0  0  0  0  0  0  0  0  0  # atno 6907 bound_to 6896
  152.2686  133.5358  159.5434 H   0  0  0  0  0  0  0  0  0  0  0  0  # atno 6908 bound_to 6896
  150.7143  134.0645  159.3885 H   0  0  0  0  0  0  0  0  0  0  0  0  # atno 6909 bound_to 6896
  144.7131  140.0859  143.6423 H   0  0  0  0  0  0  0  0  0  0  0  0  # atno 7974 bound_to 7965
  154.6478  140.0583  156.9921 H   0  0  0  0  0  0  0  0  0  0  0  0  # atno 8008 bound_to 7997
  155.1417  140.3266  155.4432 H   0  0  0  0  0  0  0  0  0  0  0  0  # atno 8009 bound_to 7997
  156.2562  140.1963  156.6533 H   0  0  0  0  0  0  0  0  0  0  0  0  # atno 8010 bound_to 7997
  140.6937  143.6394  150.8450 H   0  0  0  0  0  0  0  0  0  0  0  0  # atno 10167 bound_to 10162
  156.9552  131.0043  151.2940 H   0  0  0  0  0  0  0  0  0  0  0  0  # atno 10718 bound_to 10713
  154.5149  135.5759  153.6634 H   0  0  0  0  0  0  0  0  0  0  0  0  # atno 10763 bound_to 10752
  152.9905  135.6168  154.2830 H   0  0  0  0  0  0  0  0  0  0  0  0  # atno 10764 bound_to 10752
  154.2747  135.2852  155.2702 H   0  0  0  0  0  0  0  0  0  0  0  0  # atno 10765 bound_to 10752
  141.0116  133.6905  156.2212 H   0  0  0  0  0  0  0  0  0  0  0  0  # atno 11005 bound_to 11000
  145.9662  139.2836  143.1126 LP  0  0  0  0  0  0  0  0  0  0  0  0  # atno 17320 bound_to 7965
  145.9166  140.9144  143.0426 LP  0  0  0  0  0  0  0  0  0  0  0  0  # atno 17321 bound_to 7965
  140.0109  143.5643  152.2839 LP  0  0  0  0  0  0  0  0  0  0  0  0  # atno 17342 bound_to 10162
  139.6367  144.7650  151.2423 LP  0  0  0  0  0  0  0  0  0  0  0  0  # atno 17343 bound_to 10162
  157.5695  130.8300  149.8372 LP  0  0  0  0  0  0  0  0  0  0  0  0  # atno 17370 bound_to 10713
  156.0345  130.3755  150.1596 LP  0  0  0  0  0  0  0  0  0  0  0  0  # atno 17371 bound_to 10713
  140.6725  134.4853  157.5587 LP  0  0  0  0  0  0  0  0  0  0  0  0  # atno 17394 bound_to 11000
  139.9093  134.8380  156.1588 LP  0  0  0  0  0  0  0  0  0  0  0  0  # atno 17395 bound_to 11000

$$$$
