AV-unprocessed.smi:1990|AV-procd|sdf|8064|dock7
  -GOLD-   2272010273D 1   1.00000     0.00000
 Structure written by MMmdl.
 46 47  0  0  0  0  0  0  0  0  1 V2000
  153.4198  142.2963  162.2100 C   0  0  0  0  0  0  0  0  0  0  0  0
  153.3062  142.4404  160.6888 C   0  0  1  0  0  0  0  0  0  0  0  0
  152.5647  141.2519  160.0483 C   0  0  0  0  0  0  0  0  0  0  0  0
  152.3639  141.4785  158.6196 N   0  0  0  0  0  0  0  0  0  0  0  0
  151.9797  140.3893  157.8037 C   0  0  0  0  0  0  0  0  0  0  0  0
  151.7628  140.5271  156.4090 C   0  0  0  0  0  0  0  0  0  0  0  0
  151.3743  139.4029  155.6549 C   0  0  0  0  0  0  0  0  0  0  0  0
  151.2146  138.1591  156.3082 C   0  0  0  0  0  0  0  0  0  0  0  0
  150.8130  136.9534  155.6718 N   0  0  0  0  0  0  0  0  0  0  0  0
  150.7985  135.6985  156.1591 C   0  0  0  0  0  0  0  0  0  0  0  0
  151.1518  135.3857  157.2957 O   0  0  0  0  0  0  0  0  0  0  0  0
  150.2825  134.6204  155.1960 C   0  0  1  0  0  0  0  0  0  0  0  0
  150.7700  133.2180  155.5948 C   0  0  0  0  0  0  0  0  0  0  0  0
  148.4291  134.6517  155.1380 S   0  0  0  0  0  0  0  0  0  0  0  0
  148.0317  133.4532  153.7960 C   0  0  0  0  0  0  0  0  0  0  0  0
  147.9262  134.1030  156.4066 O   0  0  0  0  0  0  0  0  0  0  0  0
  147.9856  135.9855  154.7043 O   0  0  0  0  0  0  0  0  0  0  0  0
  151.4384  138.1227  157.6980 C   0  0  0  0  0  0  0  0  0  0  0  0
  151.8114  139.1964  158.4235 N   0  0  0  0  0  0  0  0  0  0  0  0
  151.7692  142.7775  158.3050 C   0  0  0  0  0  0  0  0  0  0  0  0
  152.5349  143.9139  159.0079 C   0  0  1  0  0  0  0  0  0  0  0  0
  151.8534  145.2721  158.8104 C   0  0  0  0  0  0  0  0  0  0  0  0
  152.5993  143.6437  160.4048 O   0  0  0  0  0  0  0  0  0  0  0  0
  153.9625  141.3898  162.4790 H   0  0  0  0  0  0  0  0  0  0  0  0
  152.4355  142.2489  162.6765 H   0  0  0  0  0  0  0  0  0  0  0  0
  153.9532  143.1433  162.6421 H   0  0  0  0  0  0  0  0  0  0  0  0
  154.3131  142.5104  160.2733 H   0  0  0  0  0  0  0  0  0  0  0  0
  153.1535  140.3483  160.2087 H   0  0  0  0  0  0  0  0  0  0  0  0
  151.5955  141.1055  160.5270 H   0  0  0  0  0  0  0  0  0  0  0  0
  151.8905  141.4683  155.8965 H   0  0  0  0  0  0  0  0  0  0  0  0
  151.1985  139.5260  154.5980 H   0  0  0  0  0  0  0  0  0  0  0  0
  150.4377  137.0666  154.7412 H   0  0  0  0  0  0  0  0  0  0  0  0
  150.6375  134.8364  154.1876 H   0  0  0  0  0  0  0  0  0  0  0  0
  151.8577  133.1809  155.6632 H   0  0  0  0  0  0  0  0  0  0  0  0
  150.4631  132.4765  154.8570 H   0  0  0  0  0  0  0  0  0  0  0  0
  150.3617  132.9100  156.5583 H   0  0  0  0  0  0  0  0  0  0  0  0
  146.9507  133.3271  153.7368 H   0  0  0  0  0  0  0  0  0  0  0  0
  148.4947  132.4912  154.0136 H   0  0  0  0  0  0  0  0  0  0  0  0
  148.3970  133.8291  152.8407 H   0  0  0  0  0  0  0  0  0  0  0  0
  151.3183  137.2011  158.2488 H   0  0  0  0  0  0  0  0  0  0  0  0
  151.7701  142.9715  157.2324 H   0  0  0  0  0  0  0  0  0  0  0  0
  150.7269  142.7694  158.6263 H   0  0  0  0  0  0  0  0  0  0  0  0
  153.5484  143.9751  158.6075 H   0  0  0  0  0  0  0  0  0  0  0  0
  151.7926  145.5298  157.7528 H   0  0  0  0  0  0  0  0  0  0  0  0
  152.4088  146.0639  159.3137 H   0  0  0  0  0  0  0  0  0  0  0  0
  150.8402  145.2678  159.2133 H   0  0  0  0  0  0  0  0  0  0  0  0
  1  2  1  0  0  0  0
  1 24  1  0  0  0  0
  1 25  1  0  0  0  0
  1 26  1  0  0  0  0
  2 23  1  0  0  0  0
  2  3  1  0  0  0  0
  2 27  1  0  0  0  0
  3  4  1  0  0  0  0
  3 28  1  0  0  0  0
  3 29  1  0  0  0  0
  4  5  1  0  0  0  0
  4 20  1  0  0  0  0
  5 19  1  0  0  0  0
  5  6  2  0  0  0  0
  6  7  1  0  0  0  0
  6 30  1  0  0  0  0
  7  8  2  0  0  0  0
  7 31  1  0  0  0  0
  8  9  1  0  0  0  0
  8 18  1  0  0  0  0
  9 10  1  0  0  0  0
  9 32  1  0  0  0  0
 10 11  2  0  0  0  0
 10 12  1  0  0  0  0
 12 13  1  0  0  0  0
 12 14  1  0  0  0  0
 12 33  1  0  0  0  0
 13 34  1  0  0  0  0
 13 35  1  0  0  0  0
 13 36  1  0  0  0  0
 14 15  1  0  0  0  0
 14 16  2  0  0  0  0
 14 17  2  0  0  0  0
 15 37  1  0  0  0  0
 15 38  1  0  0  0  0
 15 39  1  0  0  0  0
 18 19  2  0  0  0  0
 18 40  1  0  0  0  0
 20 21  1  0  0  0  0
 20 41  1  0  0  0  0
 20 42  1  0  0  0  0
 21 22  1  0  0  0  0
 21 23  1  0  0  0  0
 21 43  1  0  0  0  0
 22 44  1  0  0  0  0
 22 45  1  0  0  0  0
 22 46  1  0  0  0  0
M  END
> <s_m_source_file>
AV-unprocessed.smi

> <i_m_source_file_index>
1990

> <i_lp_mmshare_version>
43012

> <i_f3d_flags>
0

> <s_epik_input>
W0NIM11bQ0BASF0xW0NIMl1OKFtDSDJdW0NASF0oTzEpW0NIM10pYzJbY0hdW2NIXWMoW2NIXW4yKVtOSF1DKD1PKVtDQEhdKFtDSDNdKVMoPU8pKD1PKVtDSDNd

> <s_epik_cmdline>
J2VwaWtfcHl0aG9uJywgJy1waCcsICc3LjAnLCAnLXRuJywgJzgnLCAnLW1hJywgJzIwMCcsICctbWV0YWxfYmluZGluZycsICctaW1hZScsICc8aW5maWxlLm1hZT4nLCAnLW9tYWUnLCAnPG91dGZpbGUubWFlPic=

> <r_lp_tautomer_probability>
1

> <r_epik_Ionization_Penalty>
0.000334888

> <r_epik_Ionization_Penalty_Charging>
0

> <r_epik_Ionization_Penalty_Neutral>
0.000334888

> <r_epik_State_Penalty>
0.000200905

> <r_epik_Charging_Adjusted_Penalty>
0.000200905

> <i_epik_Tot_Q>
0

> <i_epik_Tot_abs_Q>
0

> <r_epik_Metal_State_Penalty>
-0

> <b_epik_Metal_Only>
0

> <s_lp_Force_Field>
OPLS_2005

> <r_lp_Energy>
18.0691

> <b_lp_Chiralities_Consistent>
1

> <s_lp_Variant>
AV-unprocessed.smi:1990-4

> <Gold.Version>
5.8.1

> <Gold.Id.Protein>
6NUR|6NUR_protein|mol2

> <Gold.PLP.Fitness>
38.1979

> <Gold.PLP.PLP>
-39.5891

> <Gold.PLP.part.hbond>
-1.0000

> <Gold.PLP.part.metal>
0.0000

> <Gold.PLP.part.buried>
-6.9218

> <Gold.PLP.part.nonpolar>
-32.1318

> <Gold.PLP.part.repulsive>
0.9769

> <Gold.PLP.ligand.clash>
0.0000

> <Gold.PLP.ligand.torsion>
1.0517

> <Gold.PLP.Chemscore.Hbond>
0.0333

> <Gold.PLP.Chemscore.CHOScore>
0.0000

> <Gold.PLP.Chemscore.Metal>
0.0000

> <Gold.Chemscore.Hbonds>
donor molecule, donor type, donor heavy atom, donor atom, acceptor molecule, acceptor atom, score
      P1  H  6896  6907       L1    11  0.02

> <Gold.PLP.Chemscore.Internal.Correction>
0.6123

> <Gold.Rescore>
     Score         DG    S(hbond)    S(metal)    S(lipo)     H(rot)  DE(clash)    DE(int)     intcor
     13.04     -15.50       0.65        0.00     100.24       1.52       0.02       2.44       ----

> <Gold.Chemscore.Fitness>
13.0410

> <Gold.Chemscore.DG>
-15.5033

> <Gold.Chemscore.ZeroCoef>
-5.4800

> <Gold.Chemscore.Hbond>
0.6530

> <Gold.Chemscore.Metal>
0.0000

> <Gold.Chemscore.Lipo>
100.2352

> <Gold.Chemscore.Internal_Hbond>
0.0000

> <Gold.Chemscore.DEClash>
0.0180

> <Gold.Chemscore.DEInternal>
2.4443

> <Gold.Chemscore.Rot>
1.5177

> <Gold.Chemscore.Internal.Correction>
   9.000000E+99

> <Gold.Chemscore.Hbonds>
donor molecule, donor type, donor heavy atom, donor atom, acceptor molecule, acceptor atom, score
      P1  H  6896  6907       L1    11  0.03

> <Gold.Chemscore.Hbond.Weighted>
-2.1810

> <Gold.Chemscore.Metal.Weighted>
-0.0000

> <Gold.Chemscore.Lipo.Weighted>
-11.7275

> <Gold.Chemscore.Internal_Hbond.Weighted>
0.0000

> <Gold.Chemscore.DEClash.Weighted>
0.0180

> <Gold.Chemscore.DEInternal.Weighted>
2.4443

> <Gold.Chemscore.Rot.Weighted>
3.8853

> <Gold.Chemscore.Internal.Correction.Weighted>
   9.000000E+99

> <Gold.Protein.RotatedTorsions>
[ 6907 6896 6895 6894 ] final  -82.92 input  -60.11 | X-H torsion
[ 7974 7965 7964 7962 ] final -120.00 input  175.53 | X-H torsion
[ 8008 7997 7996 7995 ] final  101.78 input   59.86 | X-H torsion
[ 10167 10162 10161 10158 ] final  -60.62 input  -65.29 | X-H torsion
[ 10718 10713 10712 10709 ] final   37.17 input   66.30 | X-H torsion
[ 10763 10752 10751 10750 ] final  113.60 input  -60.55 | X-H torsion
[ 11005 11000 10999 10996 ] final    9.98 input  -57.11 | X-H torsion

> <Gold.Protein.ActiveResidues>
 VAL166  LYS551  ARG553  GLY616  TRP617  ASP618  TYR619  PRO620  LYS621  CYS622 
 ASP623  PHE694  ASN695  SER759  ASP760  ASP761  ALA762  ILE779  LEU786  VAL792 
 PHE793  MET794  SER795  GLU796  ALA797  LYS798  CYS799  TRP800  GLU811  SER814 

> <Gold.Protein.RotatedAtoms>
  150.6891  134.3592  159.4942 H   0  0  0  0  0  0  0  0  0  0  0  0  # atno 6907 bound_to 6896
  152.1423  134.9050  160.0562 H   0  0  0  0  0  0  0  0  0  0  0  0  # atno 6908 bound_to 6896
  152.0179  133.3852  159.4283 H   0  0  0  0  0  0  0  0  0  0  0  0  # atno 6909 bound_to 6896
  145.0562  140.8256  143.4180 H   0  0  0  0  0  0  0  0  0  0  0  0  # atno 7974 bound_to 7965
  156.1331  140.3192  155.8379 H   0  0  0  0  0  0  0  0  0  0  0  0  # atno 8008 bound_to 7997
  155.4295  140.0518  157.3037 H   0  0  0  0  0  0  0  0  0  0  0  0  # atno 8009 bound_to 7997
  154.4915  140.2094  155.9551 H   0  0  0  0  0  0  0  0  0  0  0  0  # atno 8010 bound_to 7997
  140.6059  143.2373  151.5821 H   0  0  0  0  0  0  0  0  0  0  0  0  # atno 10167 bound_to 10162
  157.3437  130.7561  149.6930 H   0  0  0  0  0  0  0  0  0  0  0  0  # atno 10718 bound_to 10713
  153.4949  135.3650  155.2510 H   0  0  0  0  0  0  0  0  0  0  0  0  # atno 10763 bound_to 10752
  154.8750  135.3986  154.3546 H   0  0  0  0  0  0  0  0  0  0  0  0  # atno 10764 bound_to 10752
  153.4172  135.7079  153.6385 H   0  0  0  0  0  0  0  0  0  0  0  0  # atno 10765 bound_to 10752
  140.5197  134.0571  155.7841 H   0  0  0  0  0  0  0  0  0  0  0  0  # atno 11005 bound_to 11000
  145.1465  139.2540  143.5463 LP  0  0  0  0  0  0  0  0  0  0  0  0  # atno 17320 bound_to 7965
  146.3521  140.1157  142.8602 LP  0  0  0  0  0  0  0  0  0  0  0  0  # atno 17321 bound_to 7965
  139.5325  144.2876  152.1179 LP  0  0  0  0  0  0  0  0  0  0  0  0  # atno 17342 bound_to 10162
  140.2065  144.4605  150.6406 LP  0  0  0  0  0  0  0  0  0  0  0  0  # atno 17343 bound_to 10162
  155.9711  130.4160  150.4210 LP  0  0  0  0  0  0  0  0  0  0  0  0  # atno 17370 bound_to 10713
  157.2262  131.0494  151.2518 LP  0  0  0  0  0  0  0  0  0  0  0  0  # atno 17371 bound_to 10713
  141.1341  133.9252  157.2472 LP  0  0  0  0  0  0  0  0  0  0  0  0  # atno 17394 bound_to 11000
  139.9613  135.0153  156.9268 LP  0  0  0  0  0  0  0  0  0  0  0  0  # atno 17395 bound_to 11000

$$$$
