AV-unprocessed.smi:2976|AV-procd|sdf|11362|dock2
  -GOLD-   2272016283D 1   1.00000     0.00000
 Structure written by MMmdl.
 40 41  0  0  0  0  0  0  0  0  1 V2000
  150.0513  137.2306  155.2947 C   0  0  0  0  0  0  0  0  0  0  0  0
  150.2269  138.5220  154.4696 C   0  0  1  0  0  0  0  0  0  0  0  0
  148.8677  139.1164  154.0477 C   0  0  0  0  0  0  0  0  0  0  0  0
  148.1278  139.7686  155.2261 C   0  0  0  0  0  0  0  0  0  0  0  0
  148.9974  140.8374  155.9022 C   0  0  0  0  0  0  0  0  0  0  0  0
  150.3595  140.2719  156.3482 C   0  0  2  0  0  0  0  0  0  0  0  0
  151.1547  141.3605  156.9145 N   0  0  0  0  0  0  0  0  0  0  0  0
  150.8100  142.1276  157.9605 C   0  0  0  0  0  0  0  0  0  0  0  0
  149.7406  142.0177  158.5615 O   0  0  0  0  0  0  0  0  0  0  0  0
  151.8356  143.1892  158.3823 C   0  0  0  0  0  0  0  0  0  0  0  0
  152.3325  142.9986  159.7531 N   0  0  0  0  0  0  0  0  0  0  0  0
  151.9983  144.0216  160.6229 N   0  0  0  0  0  0  0  0  0  0  0  0
  152.3756  143.9566  161.8532 C   0  0  0  0  0  0  0  0  0  0  0  0
  153.1461  142.8451  162.3653 C   0  0  0  0  0  0  0  0  0  0  0  0
  153.6244  142.8132  164.0258 Cl  0  0  0  0  0  0  0  0  0  0  0  0
  153.4717  141.8493  161.5033 C   0  0  0  0  0  0  0  0  0  0  0  0
  154.3920  140.4866  162.0421 Cl  0  0  0  0  0  0  0  0  0  0  0  0
  153.0606  141.8902  160.0932 C   0  0  0  0  0  0  0  0  0  0  0  0
  153.3419  141.0103  159.2785 O   0  0  0  0  0  0  0  0  0  0  0  0
  151.1021  139.6027  155.1599 C   0  0  1  0  0  0  0  0  0  0  0  0
  152.5000  139.0706  155.5353 C   0  0  0  0  0  0  0  0  0  0  0  0
  149.5933  137.4200  156.2650 H   0  0  0  0  0  0  0  0  0  0  0  0
  151.0055  136.7349  155.4712 H   0  0  0  0  0  0  0  0  0  0  0  0
  149.4174  136.5171  154.7676 H   0  0  0  0  0  0  0  0  0  0  0  0
  150.7382  138.2282  153.5517 H   0  0  0  0  0  0  0  0  0  0  0  0
  149.0300  139.8665  153.2726 H   0  0  0  0  0  0  0  0  0  0  0  0
  148.2420  138.3469  153.5942 H   0  0  0  0  0  0  0  0  0  0  0  0
  147.1986  140.2179  154.8750 H   0  0  0  0  0  0  0  0  0  0  0  0
  147.8426  139.0100  155.9553 H   0  0  0  0  0  0  0  0  0  0  0  0
  149.1508  141.6646  155.2076 H   0  0  0  0  0  0  0  0  0  0  0  0
  148.4659  141.2512  156.7599 H   0  0  0  0  0  0  0  0  0  0  0  0
  150.1717  139.5176  157.1136 H   0  0  0  0  0  0  0  0  0  0  0  0
  152.0531  141.5303  156.4862 H   0  0  0  0  0  0  0  0  0  0  0  0
  152.6751  143.1926  157.6844 H   0  0  0  0  0  0  0  0  0  0  0  0
  151.3657  144.1689  158.2798 H   0  0  0  0  0  0  0  0  0  0  0  0
  152.1343  144.7373  162.5745 H   0  0  0  0  0  0  0  0  0  0  0  0
  151.2688  140.3809  154.4132 H   0  0  0  0  0  0  0  0  0  0  0  0
  152.4547  138.3845  156.3814 H   0  0  0  0  0  0  0  0  0  0  0  0
  153.1759  139.8809  155.8086 H   0  0  0  0  0  0  0  0  0  0  0  0
  152.9576  138.5420  154.6988 H   0  0  0  0  0  0  0  0  0  0  0  0
  1  2  1  0  0  0  0
  1 22  1  0  0  0  0
  1 23  1  0  0  0  0
  1 24  1  0  0  0  0
  2 20  1  0  0  0  0
  2  3  1  0  0  0  0
  2 25  1  0  0  0  0
  3  4  1  0  0  0  0
  3 26  1  0  0  0  0
  3 27  1  0  0  0  0
  4  5  1  0  0  0  0
  4 28  1  0  0  0  0
  4 29  1  0  0  0  0
  5  6  1  0  0  0  0
  5 30  1  0  0  0  0
  5 31  1  0  0  0  0
  6  7  1  0  0  0  0
  6 20  1  0  0  0  0
  6 32  1  0  0  0  0
  7  8  1  0  0  0  0
  7 33  1  0  0  0  0
  8  9  2  0  0  0  0
  8 10  1  0  0  0  0
 10 11  1  0  0  0  0
 10 34  1  0  0  0  0
 10 35  1  0  0  0  0
 11 18  1  0  0  0  0
 11 12  1  0  0  0  0
 12 13  2  0  0  0  0
 13 14  1  0  0  0  0
 13 36  1  0  0  0  0
 14 15  1  0  0  0  0
 14 16  2  0  0  0  0
 16 17  1  0  0  0  0
 16 18  1  0  0  0  0
 18 19  2  0  0  0  0
 20 21  1  0  0  0  0
 20 37  1  0  0  0  0
 21 38  1  0  0  0  0
 21 39  1  0  0  0  0
 21 40  1  0  0  0  0
M  END
> <s_m_source_file>
AV-unprocessed.smi

> <i_m_source_file_index>
2976

> <i_lp_mmshare_version>
43012

> <i_f3d_flags>
0

> <s_epik_input>
W0NIM11bQ0BASF0xW0NIMl1bQ0gyXVtDSDJdW0NASF0oW0NASF0xW0NIM10pW05IXUMoPU8pW0NIMl1uMm5bY0hdYyhDbCljKENsKWMyPU8=

> <s_epik_cmdline>
J2VwaWtfcHl0aG9uJywgJy1waCcsICc3LjAnLCAnLXRuJywgJzgnLCAnLW1hJywgJzIwMCcsICctbWV0YWxfYmluZGluZycsICctaW1hZScsICc8aW5maWxlLm1hZT4nLCAnLW9tYWUnLCAnPG91dGZpbGUubWFlPic=

> <r_lp_tautomer_probability>
1

> <r_epik_Ionization_Penalty>
1.90777e-08

> <r_epik_Ionization_Penalty_Charging>
3.07942e-11

> <r_epik_Ionization_Penalty_Neutral>
1.90469e-08

> <r_epik_State_Penalty>
-0

> <r_epik_Charging_Adjusted_Penalty>
3.07942e-11

> <i_epik_Tot_Q>
0

> <i_epik_Tot_abs_Q>
0

> <r_epik_Metal_State_Penalty>
-0

> <b_epik_Metal_Only>
0

> <s_lp_Force_Field>
OPLS_2005

> <r_lp_Energy>
28.0936

> <b_lp_Chiralities_Consistent>
1

> <s_lp_Variant>
AV-unprocessed.smi:2976-4

> <Gold.Version>
5.8.1

> <Gold.Id.Protein>
6NUR|6NUR_protein|mol2

> <Gold.PLP.Fitness>
45.4175

> <Gold.PLP.PLP>
-45.4617

> <Gold.PLP.part.hbond>
-0.3658

> <Gold.PLP.part.metal>
0.0000

> <Gold.PLP.part.buried>
-3.9344

> <Gold.PLP.part.nonpolar>
-39.9543

> <Gold.PLP.part.repulsive>
0.2383

> <Gold.PLP.ligand.clash>
0.0000

> <Gold.PLP.ligand.torsion>
0.0247

> <Gold.PLP.Chemscore.Hbond>
0.0000

> <Gold.PLP.Chemscore.CHOScore>
0.0000

> <Gold.PLP.Chemscore.Metal>
0.0000

> <Gold.PLP.Chemscore.Internal.Correction>
0.0051

> <Gold.Rescore>
     Score         DG    S(hbond)    S(metal)    S(lipo)     H(rot)  DE(clash)    DE(int)     intcor
     14.30     -14.64       0.00        0.00     110.81       1.49       0.20       0.14       ----

> <Gold.Chemscore.Fitness>
14.3046

> <Gold.Chemscore.DG>
-14.6437

> <Gold.Chemscore.ZeroCoef>
-5.4800

> <Gold.Chemscore.Hbond>
0.0013

> <Gold.Chemscore.Metal>
0.0000

> <Gold.Chemscore.Lipo>
110.8113

> <Gold.Chemscore.Internal_Hbond>
0.0000

> <Gold.Chemscore.DEClash>
0.1966

> <Gold.Chemscore.DEInternal>
0.1425

> <Gold.Chemscore.Rot>
1.4866

> <Gold.Chemscore.Internal.Correction>
   9.000000E+99

> <Gold.Chemscore.Hbond.Weighted>
-0.0044

> <Gold.Chemscore.Metal.Weighted>
-0.0000

> <Gold.Chemscore.Lipo.Weighted>
-12.9649

> <Gold.Chemscore.Internal_Hbond.Weighted>
0.0000

> <Gold.Chemscore.DEClash.Weighted>
0.1966

> <Gold.Chemscore.DEInternal.Weighted>
0.1425

> <Gold.Chemscore.Rot.Weighted>
3.8057

> <Gold.Chemscore.Internal.Correction.Weighted>
   9.000000E+99

> <Gold.Protein.RotatedTorsions>
[ 6907 6896 6895 6894 ] final  146.23 input  -60.11 | X-H torsion
[ 7974 7965 7964 7962 ] final -112.08 input  175.53 | X-H torsion
[ 8008 7997 7996 7995 ] final  155.75 input   59.86 | X-H torsion
[ 10167 10162 10161 10158 ] final   46.28 input  -65.29 | X-H torsion
[ 10718 10713 10712 10709 ] final    0.83 input   66.30 | X-H torsion
[ 10763 10752 10751 10750 ] final  -22.82 input  -60.55 | X-H torsion
[ 11005 11000 10999 10996 ] final -110.91 input  -57.11 | X-H torsion

> <Gold.Protein.ActiveResidues>
 VAL166  LYS551  ARG553  GLY616  TRP617  ASP618  TYR619  PRO620  LYS621  CYS622 
 ASP623  PHE694  ASN695  SER759  ASP760  ASP761  ALA762  ILE779  LEU786  VAL792 
 PHE793  MET794  SER795  GLU796  ALA797  LYS798  CYS799  TRP800  GLU811  SER814 

> <Gold.Protein.RotatedAtoms>
  152.1706  133.4641  159.4906 H   0  0  0  0  0  0  0  0  0  0  0  0  # atno 6907 bound_to 6896
  150.6919  134.1958  159.4312 H   0  0  0  0  0  0  0  0  0  0  0  0  # atno 6908 bound_to 6896
  151.9865  135.0001  160.0610 H   0  0  0  0  0  0  0  0  0  0  0  0  # atno 6909 bound_to 6896
  145.1483  140.8815  143.3661 H   0  0  0  0  0  0  0  0  0  0  0  0  # atno 7974 bound_to 7965
  156.2461  140.1931  156.6849 H   0  0  0  0  0  0  0  0  0  0  0  0  # atno 8008 bound_to 7997
  154.6294  140.0598  156.9740 H   0  0  0  0  0  0  0  0  0  0  0  0  # atno 8009 bound_to 7997
  155.1734  140.3270  155.4391 H   0  0  0  0  0  0  0  0  0  0  0  0  # atno 8010 bound_to 7997
  140.3156  144.2768  150.6192 H   0  0  0  0  0  0  0  0  0  0  0  0  # atno 10167 bound_to 10162
  156.8392  130.5515  149.5679 H   0  0  0  0  0  0  0  0  0  0  0  0  # atno 10718 bound_to 10713
  153.6580  135.6978  153.5186 H   0  0  0  0  0  0  0  0  0  0  0  0  # atno 10763 bound_to 10752
  153.2654  135.4231  155.0934 H   0  0  0  0  0  0  0  0  0  0  0  0  # atno 10764 bound_to 10752
  154.8459  135.3565  154.6125 H   0  0  0  0  0  0  0  0  0  0  0  0  # atno 10765 bound_to 10752
  141.0765  133.9293  157.2379 H   0  0  0  0  0  0  0  0  0  0  0  0  # atno 11005 bound_to 11000
  145.0457  139.3222  143.5954 LP  0  0  0  0  0  0  0  0  0  0  0  0  # atno 17320 bound_to 7965
  146.3497  139.9847  142.8692 LP  0  0  0  0  0  0  0  0  0  0  0  0  # atno 17321 bound_to 7965
  140.5530  143.2203  151.7895 LP  0  0  0  0  0  0  0  0  0  0  0  0  # atno 17342 bound_to 10162
  139.4885  144.4451  151.9719 LP  0  0  0  0  0  0  0  0  0  0  0  0  # atno 17343 bound_to 10162
  156.0890  130.5881  150.9699 LP  0  0  0  0  0  0  0  0  0  0  0  0  # atno 17370 bound_to 10713
  157.6365  131.0915  150.8338 LP  0  0  0  0  0  0  0  0  0  0  0  0  # atno 17371 bound_to 10713
  139.9577  135.0162  156.9174 LP  0  0  0  0  0  0  0  0  0  0  0  0  # atno 17394 bound_to 11000
  140.5563  134.0578  155.7384 LP  0  0  0  0  0  0  0  0  0  0  0  0  # atno 17395 bound_to 11000

$$$$
