AV-unprocessed.smi:2774|AV-procd|sdf|10687|dock1
  -GOLD-   2272015133D 1   1.00000     0.00000
 Structure written by MMmdl.
 34 35  0  0  0  0  0  0  0  0  1 V2000
  149.5312  141.0906  153.3421 O   0  0  0  0  0  0  0  0  0  0  0  0
  149.0853  140.7418  154.6383 C   0  0  1  0  0  0  0  0  0  0  0  0
  150.2364  140.9379  155.6442 C   0  0  0  0  0  0  0  0  0  0  0  0
  150.0795  142.1655  156.4284 N   0  0  0  0  0  0  0  0  0  0  0  0
  151.2722  142.6251  157.1447 C   0  0  1  0  0  0  0  0  0  0  0  0
  151.1324  144.0932  157.6126 C   0  0  0  0  0  0  0  0  0  0  0  0
  152.3864  144.6131  158.3350 C   0  0  0  0  0  0  0  0  0  0  0  0
  152.7167  143.8087  159.5987 C   0  0  0  0  0  0  0  0  0  0  0  0
  153.0758  142.0808  159.1913 S   0  0  0  0  0  0  0  0  0  0  0  0
  151.5252  141.6858  158.3386 C   0  0  0  0  0  0  0  0  0  0  0  0
  147.7911  141.4331  155.0512 C   0  0  0  0  0  0  0  0  0  0  0  0
  147.2152  141.2287  156.3250 C   0  0  0  0  0  0  0  0  0  0  0  0
  146.0130  141.8941  156.6366 C   0  0  0  0  0  0  0  0  0  0  0  0
  145.3800  142.7232  155.7794 N   0  0  0  0  0  0  0  0  0  0  0  0
  145.9335  142.9141  154.5630 C   0  0  0  0  0  0  0  0  0  0  0  0
  147.1311  142.2960  154.1512 C   0  0  0  0  0  0  0  0  0  0  0  0
  149.3258  140.3790  152.7554 H   0  0  0  0  0  0  0  0  0  0  0  0
  148.8726  139.6730  154.5891 H   0  0  0  0  0  0  0  0  0  0  0  0
  150.2626  140.0830  156.3208 H   0  0  0  0  0  0  0  0  0  0  0  0
  151.1824  140.9336  155.1040 H   0  0  0  0  0  0  0  0  0  0  0  0
  149.7343  142.9062  155.8259 H   0  0  0  0  0  0  0  0  0  0  0  0
  152.1305  142.5541  156.4749 H   0  0  0  0  0  0  0  0  0  0  0  0
  150.9486  144.7490  156.7627 H   0  0  0  0  0  0  0  0  0  0  0  0
  150.2657  144.1928  158.2678 H   0  0  0  0  0  0  0  0  0  0  0  0
  153.2379  144.5940  157.6539 H   0  0  0  0  0  0  0  0  0  0  0  0
  152.2360  145.6586  158.6057 H   0  0  0  0  0  0  0  0  0  0  0  0
  153.5830  144.2363  160.1035 H   0  0  0  0  0  0  0  0  0  0  0  0
  151.8845  143.8445  160.3025 H   0  0  0  0  0  0  0  0  0  0  0  0
  150.7042  141.7421  159.0546 H   0  0  0  0  0  0  0  0  0  0  0  0
  151.5820  140.6501  158.0008 H   0  0  0  0  0  0  0  0  0  0  0  0
  147.6746  140.5712  157.0481 H   0  0  0  0  0  0  0  0  0  0  0  0
  145.5468  141.7551  157.6008 H   0  0  0  0  0  0  0  0  0  0  0  0
  145.4058  143.5798  153.8960 H   0  0  0  0  0  0  0  0  0  0  0  0
  147.5302  142.4804  153.1645 H   0  0  0  0  0  0  0  0  0  0  0  0
  1  2  1  0  0  0  0
  1 17  1  0  0  0  0
  2  3  1  0  0  0  0
  2 11  1  0  0  0  0
  2 18  1  0  0  0  0
  3  4  1  0  0  0  0
  3 19  1  0  0  0  0
  3 20  1  0  0  0  0
  4  5  1  0  0  0  0
  4 21  1  0  0  0  0
  5 10  1  0  0  0  0
  5  6  1  0  0  0  0
  5 22  1  0  0  0  0
  6  7  1  0  0  0  0
  6 23  1  0  0  0  0
  6 24  1  0  0  0  0
  7  8  1  0  0  0  0
  7 25  1  0  0  0  0
  7 26  1  0  0  0  0
  8  9  1  0  0  0  0
  8 27  1  0  0  0  0
  8 28  1  0  0  0  0
  9 10  1  0  0  0  0
 10 29  1  0  0  0  0
 10 30  1  0  0  0  0
 11 16  1  0  0  0  0
 11 12  2  0  0  0  0
 12 13  1  0  0  0  0
 12 31  1  0  0  0  0
 13 14  2  0  0  0  0
 13 32  1  0  0  0  0
 14 15  1  0  0  0  0
 15 16  2  0  0  0  0
 15 33  1  0  0  0  0
 16 34  1  0  0  0  0
M  END
> <s_m_source_file>
AV-unprocessed.smi

> <i_m_source_file_index>
2774

> <i_lp_mmshare_version>
43012

> <i_f3d_flags>
0

> <s_epik_input>
W2NIXTFbY0hdbltjSF1bY0hdYzFbQ0BIXShbT0hdKVtDSDJdW05IXVtDQEBIXTJbQ0gyXVtDSDJdW0NIMl1TW0NIMl0y

> <s_epik_cmdline>
J2VwaWtfcHl0aG9uJywgJy1waCcsICc3LjAnLCAnLXRuJywgJzgnLCAnLW1hJywgJzIwMCcsICctbWV0YWxfYmluZGluZycsICctaW1hZScsICc8aW5maWxlLm1hZT4nLCAnLW9tYWUnLCAnPG91dGZpbGUubWFlPic=

> <r_epik_Ionization_Penalty>
2.08116

> <r_epik_Ionization_Penalty_Charging>
0

> <r_epik_Ionization_Penalty_Neutral>
2.08116

> <r_epik_State_Penalty>
2.1944

> <r_epik_Charging_Adjusted_Penalty>
2.1944

> <i_epik_Tot_Q>
0

> <i_epik_Tot_abs_Q>
0

> <r_epik_Metal_State_Penalty>
2.1769

> <b_epik_Metal_Only>
0

> <s_lp_Force_Field>
OPLS_2005

> <r_lp_Energy>
17.4731

> <b_lp_Chiralities_Consistent>
1

> <s_lp_Variant>
AV-unprocessed.smi:2774-8

> <Gold.Version>
5.8.1

> <Gold.Id.Protein>
6NUR|6NUR_protein|mol2

> <Gold.PLP.Fitness>
46.3130

> <Gold.PLP.PLP>
-39.2741

> <Gold.PLP.part.hbond>
-3.6467

> <Gold.PLP.part.metal>
0.0000

> <Gold.PLP.part.buried>
-3.1024

> <Gold.PLP.part.nonpolar>
-33.1368

> <Gold.PLP.part.repulsive>
0.1544

> <Gold.PLP.ligand.clash>
0.0000

> <Gold.PLP.ligand.torsion>
0.7519

> <Gold.PLP.Chemscore.Hbond>
2.8213

> <Gold.PLP.Chemscore.CHOScore>
0.0000

> <Gold.PLP.Chemscore.Metal>
0.0000

> <Gold.Chemscore.Hbonds>
donor molecule, donor type, donor heavy atom, donor atom, acceptor molecule, acceptor atom, score
      L1  H     1    17       P1  7957  0.70
      L1  H     4    21       P1  8028  0.98
      P1  H  7989  7998       L1     1  0.16
      P1  H  8011  8017       L1     1  1.00

> <Gold.PLP.Chemscore.Internal.Correction>
0.0787

> <Gold.Rescore>
     Score         DG    S(hbond)    S(metal)    S(lipo)     H(rot)  DE(clash)    DE(int)     intcor
     18.96     -19.89       2.18        0.00     102.25       1.89       0.26       0.66       ----

> <Gold.Chemscore.Fitness>
18.9609

> <Gold.Chemscore.DG>
-19.8850

> <Gold.Chemscore.ZeroCoef>
-5.4800

> <Gold.Chemscore.Hbond>
2.1818

> <Gold.Chemscore.Metal>
0.0000

> <Gold.Chemscore.Lipo>
102.2510

> <Gold.Chemscore.Internal_Hbond>
0.0000

> <Gold.Chemscore.DEClash>
0.2649

> <Gold.Chemscore.DEInternal>
0.6593

> <Gold.Chemscore.Rot>
1.8928

> <Gold.Chemscore.Internal.Correction>
   9.000000E+99

> <Gold.Chemscore.Hbonds>
donor molecule, donor type, donor heavy atom, donor atom, acceptor molecule, acceptor atom, score
      L1  H     1    17       P1  7957  0.70
      L1  H     4    21       P1  8028  0.89
      P1  H  7989  7998       L1     1  0.02
      P1  H  8011  8017       L1     1  0.44

> <Gold.Chemscore.Hbond.Weighted>
-7.2872

> <Gold.Chemscore.Metal.Weighted>
-0.0000

> <Gold.Chemscore.Lipo.Weighted>
-11.9634

> <Gold.Chemscore.Internal_Hbond.Weighted>
0.0000

> <Gold.Chemscore.DEClash.Weighted>
0.2649

> <Gold.Chemscore.DEInternal.Weighted>
0.6593

> <Gold.Chemscore.Rot.Weighted>
4.8455

> <Gold.Chemscore.Internal.Correction.Weighted>
   9.000000E+99

> <Gold.Protein.RotatedTorsions>
[ 6907 6896 6895 6894 ] final   75.81 input  -60.11 | X-H torsion
[ 7974 7965 7964 7962 ] final   69.37 input  175.53 | X-H torsion
[ 8008 7997 7996 7995 ] final   30.28 input   59.86 | X-H torsion
[ 10167 10162 10161 10158 ] final -176.46 input  -65.29 | X-H torsion
[ 10718 10713 10712 10709 ] final   23.37 input   66.30 | X-H torsion
[ 10763 10752 10751 10750 ] final   74.57 input  -60.55 | X-H torsion
[ 11005 11000 10999 10996 ] final   85.33 input  -57.11 | X-H torsion

> <Gold.Protein.ActiveResidues>
 VAL166  LYS551  ARG553  GLY616  TRP617  ASP618  TYR619  PRO620  LYS621  CYS622 
 ASP623  PHE694  ASN695  SER759  ASP760  ASP761  ALA762  ILE779  LEU786  VAL792 
 PHE793  MET794  SER795  GLU796  ALA797  LYS798  CYS799  TRP800  GLU811  SER814 

> <Gold.Protein.RotatedAtoms>
  152.5043  134.4064  159.9433 H   0  0  0  0  0  0  0  0  0  0  0  0  # atno 6907 bound_to 6896
  151.4030  133.3745  159.2742 H   0  0  0  0  0  0  0  0  0  0  0  0  # atno 6908 bound_to 6896
  150.9347  134.8782  159.7633 H   0  0  0  0  0  0  0  0  0  0  0  0  # atno 6909 bound_to 6896
  145.7912  139.2935  143.1209 H   0  0  0  0  0  0  0  0  0  0  0  0  # atno 7974 bound_to 7965
  155.0879  140.3217  155.4582 H   0  0  0  0  0  0  0  0  0  0  0  0  # atno 8008 bound_to 7997
  156.2750  140.2083  156.5952 H   0  0  0  0  0  0  0  0  0  0  0  0  # atno 8009 bound_to 7997
  154.6927  140.0515  157.0367 H   0  0  0  0  0  0  0  0  0  0  0  0  # atno 8010 bound_to 7997
  139.5528  144.2064  152.1108 H   0  0  0  0  0  0  0  0  0  0  0  0  # atno 10167 bound_to 10162
  157.1652  130.6735  149.6058 H   0  0  0  0  0  0  0  0  0  0  0  0  # atno 10718 bound_to 10713
  153.0596  135.5021  154.8061 H   0  0  0  0  0  0  0  0  0  0  0  0  # atno 10763 bound_to 10752
  154.6861  135.2976  154.9548 H   0  0  0  0  0  0  0  0  0  0  0  0  # atno 10764 bound_to 10752
  154.0318  135.6728  153.4834 H   0  0  0  0  0  0  0  0  0  0  0  0  # atno 10765 bound_to 10752
  139.8974  134.8279  156.2568 H   0  0  0  0  0  0  0  0  0  0  0  0  # atno 11005 bound_to 11000
  145.9974  140.8550  143.0035 LP  0  0  0  0  0  0  0  0  0  0  0  0  # atno 17320 bound_to 7965
  144.6781  140.2303  143.7356 LP  0  0  0  0  0  0  0  0  0  0  0  0  # atno 17321 bound_to 7965
  140.1563  144.5068  150.6658 LP  0  0  0  0  0  0  0  0  0  0  0  0  # atno 17342 bound_to 10162
  140.6795  143.2320  151.5421 LP  0  0  0  0  0  0  0  0  0  0  0  0  # atno 17343 bound_to 10162
  155.9747  130.4698  150.6407 LP  0  0  0  0  0  0  0  0  0  0  0  0  # atno 17370 bound_to 10713
  157.4095  131.0821  151.1234 LP  0  0  0  0  0  0  0  0  0  0  0  0  # atno 17371 bound_to 10713
  141.0188  133.7053  156.1234 LP  0  0  0  0  0  0  0  0  0  0  0  0  # atno 17394 bound_to 11000
  140.7263  134.4303  157.5570 LP  0  0  0  0  0  0  0  0  0  0  0  0  # atno 17395 bound_to 11000

$$$$
