AV-unprocessed.smi:2532|AV-procd|sdf|9971|dock1
  -GOLD-   2272014 13D 1   1.00000     0.00000
 Structure written by MMmdl.
 37 39  0  0  0  0  0  0  0  0  2 V2000
  153.0980  138.4236  157.5567 O   0  0  0  0  0  0  0  0  0  0  0  0
  151.9322  139.1634  157.8615 C   0  0  1  0  0  0  0  0  0  0  0  0
  150.9058  138.2082  158.4895 C   0  0  0  0  0  0  0  0  0  0  0  0
  150.5356  137.2392  157.5235 O   0  0  0  0  0  0  0  0  0  0  0  0
  149.1380  137.2033  157.2849 C   0  0  0  0  0  0  0  0  0  0  0  0
  148.7587  138.4990  156.6431 C   0  0  0  0  0  0  0  0  0  0  0  0
  149.1372  138.9521  155.4048 C   0  0  0  0  0  0  0  0  0  0  0  0
  148.5872  140.2266  155.0784 C   0  0  0  0  0  0  0  0  0  0  0  0
  147.7851  140.7281  156.0685 C   0  0  0  0  0  0  0  0  0  0  0  0
  147.6907  139.6408  157.4264 S   0  0  0  0  0  0  0  0  0  0  0  0
  152.2973  140.3235  158.8087 C   0  0  0  0  0  0  0  0  0  0  0  0
  151.6199  141.5803  158.4570 N   0  0  0  0  0  0  0  0  0  0  0  0
  150.8287  141.8684  157.3882 C   0  0  0  0  0  0  0  0  0  0  0  0
  150.4384  143.1681  157.5026 N   0  3  0  0  0  0  0  0  0  0  0  0
  150.9888  143.7199  158.6613 C   0  0  0  0  0  0  0  0  0  0  0  0
  150.8804  144.9980  159.2008 C   0  0  0  0  0  0  0  0  0  0  0  0
  151.5756  145.2379  160.4043 C   0  0  0  0  0  0  0  0  0  0  0  0
  152.3407  144.2288  161.0242 C   0  0  0  0  0  0  0  0  0  0  0  0
  152.4430  142.9366  160.4685 C   0  0  0  0  0  0  0  0  0  0  0  0
  151.7511  142.7059  159.2796 C   0  0  0  0  0  0  0  0  0  0  0  0
  153.1126  137.6538  158.1053 H   0  0  0  0  0  0  0  0  0  0  0  0
  151.5273  139.5785  156.9373 H   0  0  0  0  0  0  0  0  0  0  0  0
  151.3003  137.7429  159.3949 H   0  0  0  0  0  0  0  0  0  0  0  0
  150.0107  138.7633  158.7749 H   0  0  0  0  0  0  0  0  0  0  0  0
  148.8860  136.3662  156.6318 H   0  0  0  0  0  0  0  0  0  0  0  0
  148.5915  137.0771  158.2205 H   0  0  0  0  0  0  0  0  0  0  0  0
  149.7870  138.4176  154.7276 H   0  0  0  0  0  0  0  0  0  0  0  0
  148.7939  140.7222  154.1414 H   0  0  0  0  0  0  0  0  0  0  0  0
  147.2441  141.6628  156.0825 H   0  0  0  0  0  0  0  0  0  0  0  0
  151.9974  140.0770  159.8278 H   0  0  0  0  0  0  0  0  0  0  0  0
  153.3746  140.4877  158.8404 H   0  0  0  0  0  0  0  0  0  0  0  0
  150.5599  141.1889  156.5923 H   0  0  0  0  0  0  0  0  0  0  0  0
  150.2962  145.7733  158.7273 H   0  0  0  0  0  0  0  0  0  0  0  0
  151.5219  146.2160  160.8599 H   0  0  0  0  0  0  0  0  0  0  0  0
  152.8612  144.4498  161.9448 H   0  0  0  0  0  0  0  0  0  0  0  0
  153.0374  142.1739  160.9489 H   0  0  0  0  0  0  0  0  0  0  0  0
  149.8416  143.6417  156.8367 H   0  0  0  0  0  0  0  0  0  0  0  0
  1  2  1  0  0  0  0
  1 21  1  0  0  0  0
  2  3  1  0  0  0  0
  2 11  1  0  0  0  0
  2 22  1  0  0  0  0
  3  4  1  0  0  0  0
  3 23  1  0  0  0  0
  3 24  1  0  0  0  0
  4  5  1  0  0  0  0
  5  6  1  0  0  0  0
  5 25  1  0  0  0  0
  5 26  1  0  0  0  0
  6 10  1  0  0  0  0
  6  7  2  0  0  0  0
  7  8  1  0  0  0  0
  7 27  1  0  0  0  0
  8  9  2  0  0  0  0
  8 28  1  0  0  0  0
  9 10  1  0  0  0  0
  9 29  1  0  0  0  0
 11 12  1  0  0  0  0
 11 30  1  0  0  0  0
 11 31  1  0  0  0  0
 12 20  1  0  0  0  0
 12 13  1  0  0  0  0
 13 14  2  0  0  0  0
 13 32  1  0  0  0  0
 14 15  1  0  0  0  0
 14 37  1  0  0  0  0
 15 20  2  0  0  0  0
 15 16  1  0  0  0  0
 16 17  2  0  0  0  0
 16 33  1  0  0  0  0
 17 18  1  0  0  0  0
 17 34  1  0  0  0  0
 18 19  2  0  0  0  0
 18 35  1  0  0  0  0
 19 20  1  0  0  0  0
 19 36  1  0  0  0  0
M  CHG  1  14   1
M  END
> <s_m_source_file>
AV-unprocessed.smi

> <i_m_source_file_index>
2532

> <i_lp_mmshare_version>
43012

> <i_f3d_flags>
0

> <s_epik_input>
W2NIXTFbY0hdW2NIXVtjSF1jKGMxMiluKFtjSF1uMilbQ0gyXVtDQEhdKFtPSF0pW0NIMl1PW0NIMl1jM1tjSF1bY0hdW2NIXXMz

> <s_epik_cmdline>
J2VwaWtfcHl0aG9uJywgJy1waCcsICc3LjAnLCAnLXRuJywgJzgnLCAnLW1hJywgJzIwMCcsICctbWV0YWxfYmluZGluZycsICctaW1hZScsICc8aW5maWxlLm1hZT4nLCAnLW9tYWUnLCAnPG91dGZpbGUubWFlPic=

> <r_epik_Ionization_Penalty>
1.31758

> <r_epik_Ionization_Penalty_Charging>
1.31758

> <r_epik_Ionization_Penalty_Neutral>
1.26231e-06

> <r_epik_State_Penalty>
1.39289

> <r_epik_Charging_Adjusted_Penalty>
2.71047

> <i_epik_Tot_Q>
1

> <i_epik_Tot_abs_Q>
1

> <r_epik_Metal_State_Penalty>
5.42637

> <b_epik_Metal_Only>
0

> <s_lp_Force_Field>
OPLS_2005

> <r_lp_Energy>
15.1458

> <b_lp_Chiralities_Consistent>
1

> <s_lp_Variant>
AV-unprocessed.smi:2532-4

> <Gold.Version>
5.8.1

> <Gold.Id.Protein>
6NUR|6NUR_protein|mol2

> <Gold.PLP.Fitness>
49.8494

> <Gold.PLP.PLP>
-39.8198

> <Gold.PLP.part.hbond>
-2.0000

> <Gold.PLP.part.metal>
0.0000

> <Gold.PLP.part.buried>
-4.6875

> <Gold.PLP.part.nonpolar>
-33.6602

> <Gold.PLP.part.repulsive>
0.0000

> <Gold.PLP.ligand.clash>
0.0000

> <Gold.PLP.ligand.torsion>
1.0454

> <Gold.PLP.Chemscore.Hbond>
2.9840

> <Gold.PLP.Chemscore.CHOScore>
0.9790

> <Gold.PLP.Chemscore.Metal>
0.0000

> <Gold.Chemscore.Hbonds>
donor molecule, donor type, donor heavy atom, donor atom, acceptor molecule, acceptor atom, score
      L1  H    14    37       P1  8028  2.00
      P1  H  7997  8008       L1     1  0.49

> <Gold.PLP.Chemscore.Internal.Correction>
0.2315

> <Gold.Rescore>
     Score         DG    S(hbond)    S(metal)    S(lipo)     H(rot)  DE(clash)    DE(int)     intcor
     17.20     -18.39       1.77        0.00     113.63       2.46       0.11       1.08       ----

> <Gold.Chemscore.Fitness>
17.2003

> <Gold.Chemscore.DG>
-18.3938

> <Gold.Chemscore.ZeroCoef>
-5.4800

> <Gold.Chemscore.Hbond>
1.7722

> <Gold.Chemscore.Metal>
0.0000

> <Gold.Chemscore.Lipo>
113.6270

> <Gold.Chemscore.Internal_Hbond>
0.0000

> <Gold.Chemscore.DEClash>
0.1135

> <Gold.Chemscore.DEInternal>
1.0801

> <Gold.Chemscore.Rot>
2.4608

> <Gold.Chemscore.Internal.Correction>
   9.000000E+99

> <Gold.Chemscore.Hbonds>
donor molecule, donor type, donor heavy atom, donor atom, acceptor molecule, acceptor atom, score
      L1  H    14    37       P1  8028  0.99
      P1  H  7997  8008       L1     1  0.17

> <Gold.Chemscore.Hbond.Weighted>
-5.9191

> <Gold.Chemscore.Metal.Weighted>
-0.0000

> <Gold.Chemscore.Lipo.Weighted>
-13.2944

> <Gold.Chemscore.Internal_Hbond.Weighted>
0.0000

> <Gold.Chemscore.DEClash.Weighted>
0.1135

> <Gold.Chemscore.DEInternal.Weighted>
1.0801

> <Gold.Chemscore.Rot.Weighted>
6.2996

> <Gold.Chemscore.Internal.Correction.Weighted>
   9.000000E+99

> <Gold.Protein.RotatedTorsions>
[ 6907 6896 6895 6894 ] final   87.24 input  -60.11 | X-H torsion
[ 7974 7965 7964 7962 ] final   84.66 input  175.53 | X-H torsion
[ 8008 7997 7996 7995 ] final  -77.28 input   59.86 | X-H torsion
[ 10167 10162 10161 10158 ] final   43.99 input  -65.29 | X-H torsion
[ 10718 10713 10712 10709 ] final -164.37 input   66.30 | X-H torsion
[ 10763 10752 10751 10750 ] final  133.62 input  -60.55 | X-H torsion
[ 11005 11000 10999 10996 ] final   65.94 input  -57.11 | X-H torsion

> <Gold.Protein.ActiveResidues>
 VAL166  LYS551  ARG553  GLY616  TRP617  ASP618  TYR619  PRO620  LYS621  CYS622 
 ASP623  PHE694  ASN695  SER759  ASP760  ASP761  ALA762  ILE779  LEU786  VAL792 
 PHE793  MET794  SER795  GLU796  ALA797  LYS798  CYS799  TRP800  GLU811  SER814 

> <Gold.Protein.RotatedAtoms>
  152.5408  134.2307  159.8823 H   0  0  0  0  0  0  0  0  0  0  0  0  # atno 6907 bound_to 6896
  151.2279  133.4459  159.2610 H   0  0  0  0  0  0  0  0  0  0  0  0  # atno 6908 bound_to 6896
  151.0743  134.9831  159.8380 H   0  0  0  0  0  0  0  0  0  0  0  0  # atno 6909 bound_to 6896
  145.5958  139.2345  143.2274 H   0  0  0  0  0  0  0  0  0  0  0  0  # atno 7974 bound_to 7965
  154.5582  140.0713  156.8777 H   0  0  0  0  0  0  0  0  0  0  0  0  # atno 8008 bound_to 7997
  155.2862  140.3375  155.4237 H   0  0  0  0  0  0  0  0  0  0  0  0  # atno 8009 bound_to 7997
  156.2020  140.1725  156.7866 H   0  0  0  0  0  0  0  0  0  0  0  0  # atno 8010 bound_to 7997
  140.3388  144.2496  150.6158 H   0  0  0  0  0  0  0  0  0  0  0  0  # atno 10167 bound_to 10162
  156.6380  130.8957  151.2990 H   0  0  0  0  0  0  0  0  0  0  0  0  # atno 10718 bound_to 10713
  153.8101  135.3130  155.3400 H   0  0  0  0  0  0  0  0  0  0  0  0  # atno 10763 bound_to 10752
  154.8055  135.4700  154.0384 H   0  0  0  0  0  0  0  0  0  0  0  0  # atno 10764 bound_to 10752
  153.1759  135.6885  153.8632 H   0  0  0  0  0  0  0  0  0  0  0  0  # atno 10765 bound_to 10752
  139.9863  134.6663  156.0171 H   0  0  0  0  0  0  0  0  0  0  0  0  # atno 11005 bound_to 11000
  146.1613  140.6783  142.9276 LP  0  0  0  0  0  0  0  0  0  0  0  0  # atno 17320 bound_to 7965
  144.7331  140.4731  143.6923 LP  0  0  0  0  0  0  0  0  0  0  0  0  # atno 17321 bound_to 7965
  140.5328  143.2239  151.8210 LP  0  0  0  0  0  0  0  0  0  0  0  0  # atno 17342 bound_to 10162
  139.4844  144.4698  151.9439 LP  0  0  0  0  0  0  0  0  0  0  0  0  # atno 17343 bound_to 10162
  157.7180  130.9521  150.1327 LP  0  0  0  0  0  0  0  0  0  0  0  0  # atno 17370 bound_to 10713
  156.2182  130.3672  149.8588 LP  0  0  0  0  0  0  0  0  0  0  0  0  # atno 17371 bound_to 10713
  141.1527  133.6546  156.4064 LP  0  0  0  0  0  0  0  0  0  0  0  0  # atno 17394 bound_to 11000
  140.4996  134.6498  157.5243 LP  0  0  0  0  0  0  0  0  0  0  0  0  # atno 17395 bound_to 11000

$$$$
