AV-unprocessed.smi:2083|AV-procd|sdf|8495|dock4
  -GOLD-   2272011203D 1   1.00000     0.00000
 Structure written by MMmdl.
 45 46  0  0  0  0  0  0  0  0  2 V2000
  150.2279  141.9128  156.1866 C   0  0  0  0  0  0  0  0  0  0  0  0
  149.9665  140.6939  155.3705 C   0  0  0  0  0  0  0  0  0  0  0  0
  148.8198  140.1117  154.9078 C   0  0  0  0  0  0  0  0  0  0  0  0
  149.3000  138.9766  154.2021 C   0  0  0  0  0  0  0  0  0  0  0  0
  148.4029  138.0847  153.5602 N   0  0  0  0  0  0  0  0  0  0  0  0
  147.0602  138.0959  153.6151 C   0  0  0  0  0  0  0  0  0  0  0  0
  146.3834  138.8922  154.2662 O   0  0  0  0  0  0  0  0  0  0  0  0
  146.5313  137.1153  152.8677 N   0  0  0  0  0  0  0  0  0  0  0  0
  145.1029  136.8713  152.6829 C   0  0  0  0  0  0  0  0  0  0  0  0
  144.6270  135.5646  153.3692 C   0  0  1  0  0  0  0  0  0  0  0  0
  143.1763  135.6351  153.8845 C   0  0  0  0  0  0  0  0  0  0  0  0
  144.8154  134.3549  152.5151 N   0  3  1  0  0  0  0  0  0  0  0  0
  143.7647  134.1304  151.4848 C   0  0  0  0  0  0  0  0  0  0  0  0
  143.9143  132.7392  150.8503 C   0  0  0  0  0  0  0  0  0  0  0  0
  145.3182  132.5554  150.2552 C   0  0  0  0  0  0  0  0  0  0  0  0
  146.4133  132.8547  151.2965 C   0  0  2  0  0  0  0  0  0  0  0  0
  146.5573  131.7379  152.3451 C   0  0  0  0  0  0  0  0  0  0  0  0
  146.1843  134.2372  151.9432 C   0  0  0  0  0  0  0  0  0  0  0  0
  150.6202  138.8758  154.2297 N   0  0  0  0  0  0  0  0  0  0  0  0
  151.0538  139.9757  154.9792 O   0  0  0  0  0  0  0  0  0  0  0  0
  149.2977  142.4284  156.4265 H   0  0  0  0  0  0  0  0  0  0  0  0
  150.8710  142.6081  155.6473 H   0  0  0  0  0  0  0  0  0  0  0  0
  150.7207  141.6520  157.1233 H   0  0  0  0  0  0  0  0  0  0  0  0
  147.8035  140.4461  155.0537 H   0  0  0  0  0  0  0  0  0  0  0  0
  148.8306  137.3693  152.9910 H   0  0  0  0  0  0  0  0  0  0  0  0
  147.1640  136.5077  152.3677 H   0  0  0  0  0  0  0  0  0  0  0  0
  144.5330  137.7304  153.0390 H   0  0  0  0  0  0  0  0  0  0  0  0
  144.9275  136.8179  151.6089 H   0  0  0  0  0  0  0  0  0  0  0  0
  145.2440  135.4183  154.2572 H   0  0  0  0  0  0  0  0  0  0  0  0
  143.0749  136.3675  154.6854 H   0  0  0  0  0  0  0  0  0  0  0  0
  142.8553  134.6751  154.2898 H   0  0  0  0  0  0  0  0  0  0  0  0
  142.4769  135.9168  153.0973 H   0  0  0  0  0  0  0  0  0  0  0  0
  142.7719  134.2144  151.9256 H   0  0  0  0  0  0  0  0  0  0  0  0
  143.8340  134.8911  150.7063 H   0  0  0  0  0  0  0  0  0  0  0  0
  143.7205  131.9694  151.5979 H   0  0  0  0  0  0  0  0  0  0  0  0
  143.1626  132.6042  150.0719 H   0  0  0  0  0  0  0  0  0  0  0  0
  145.4327  131.5466  149.8570 H   0  0  0  0  0  0  0  0  0  0  0  0
  145.4353  133.2316  149.4074 H   0  0  0  0  0  0  0  0  0  0  0  0
  147.3639  132.8976  150.7633 H   0  0  0  0  0  0  0  0  0  0  0  0
  145.6599  131.6319  152.9547 H   0  0  0  0  0  0  0  0  0  0  0  0
  147.3902  131.9398  153.0190 H   0  0  0  0  0  0  0  0  0  0  0  0
  146.7496  130.7763  151.8682 H   0  0  0  0  0  0  0  0  0  0  0  0
  146.3329  135.0169  151.1954 H   0  0  0  0  0  0  0  0  0  0  0  0
  146.9333  134.4034  152.7184 H   0  0  0  0  0  0  0  0  0  0  0  0
  144.7357  133.5773  153.1548 H   0  0  0  0  0  0  0  0  0  0  0  0
  1  2  1  0  0  0  0
  1 21  1  0  0  0  0
  1 22  1  0  0  0  0
  1 23  1  0  0  0  0
  2 20  1  0  0  0  0
  2  3  2  0  0  0  0
  3  4  1  0  0  0  0
  3 24  1  0  0  0  0
  4  5  1  0  0  0  0
  4 19  2  0  0  0  0
  5  6  1  0  0  0  0
  5 25  1  0  0  0  0
  6  7  2  0  0  0  0
  6  8  1  0  0  0  0
  8  9  1  0  0  0  0
  8 26  1  0  0  0  0
  9 10  1  0  0  0  0
  9 27  1  0  0  0  0
  9 28  1  0  0  0  0
 10 11  1  0  0  0  0
 10 12  1  0  0  0  0
 10 29  1  0  0  0  0
 11 30  1  0  0  0  0
 11 31  1  0  0  0  0
 11 32  1  0  0  0  0
 12 18  1  0  0  0  0
 12 13  1  0  0  0  0
 12 45  1  0  0  0  0
 13 14  1  0  0  0  0
 13 33  1  0  0  0  0
 13 34  1  0  0  0  0
 14 15  1  0  0  0  0
 14 35  1  0  0  0  0
 14 36  1  0  0  0  0
 15 16  1  0  0  0  0
 15 37  1  0  0  0  0
 15 38  1  0  0  0  0
 16 17  1  0  0  0  0
 16 18  1  0  0  0  0
 16 39  1  0  0  0  0
 17 40  1  0  0  0  0
 17 41  1  0  0  0  0
 17 42  1  0  0  0  0
 18 43  1  0  0  0  0
 18 44  1  0  0  0  0
 19 20  1  0  0  0  0
M  CHG  1  12   1
M  END
> <s_m_source_file>
AV-unprocessed.smi

> <i_m_source_file_index>
2083

> <i_lp_mmshare_version>
43012

> <i_f3d_flags>
0

> <s_epik_input>
W0NIM11jMVtjSF1jKG5vMSlbTkhdQyg9TylbTkhdW0NIMl1bQ0BIXShbQ0gzXSlOMltDSDJdW0NIMl1bQ0gyXVtDQEBIXShbQ0gzXSlbQ0gyXTI=

> <s_epik_cmdline>
J2VwaWtfcHl0aG9uJywgJy1waCcsICc3LjAnLCAnLXRuJywgJzgnLCAnLW1hJywgJzIwMCcsICctbWV0YWxfYmluZGluZycsICctaW1hZScsICc8aW5maWxlLm1hZT4nLCAnLW9tYWUnLCAnPG91dGZpbGUubWFlPic=

> <r_epik_Ionization_Penalty>
0.00216453

> <r_epik_Ionization_Penalty_Charging>
0.00212879

> <r_epik_Ionization_Penalty_Neutral>
3.57418e-05

> <r_epik_State_Penalty>
0.00146033

> <r_epik_Charging_Adjusted_Penalty>
0.00358912

> <i_epik_Tot_Q>
1

> <i_epik_Tot_abs_Q>
1

> <r_epik_Metal_State_Penalty>
0.0215827

> <b_epik_Metal_Only>
0

> <s_lp_Force_Field>
OPLS_2005

> <r_lp_Energy>
20.2755

> <b_lp_Chiralities_Consistent>
1

> <s_lp_Variant>
AV-unprocessed.smi:2083-6

> <Gold.Version>
5.8.1

> <Gold.Id.Protein>
6NUR|6NUR_protein|mol2

> <Gold.PLP.Fitness>
37.2822

> <Gold.PLP.PLP>
-30.2610

> <Gold.PLP.part.hbond>
-3.4429

> <Gold.PLP.part.metal>
0.0000

> <Gold.PLP.part.buried>
-3.2516

> <Gold.PLP.part.nonpolar>
-24.0718

> <Gold.PLP.part.repulsive>
0.4590

> <Gold.PLP.ligand.clash>
0.0000

> <Gold.PLP.ligand.torsion>
0.5700

> <Gold.PLP.Chemscore.Hbond>
2.6800

> <Gold.PLP.Chemscore.CHOScore>
0.0000

> <Gold.PLP.Chemscore.Metal>
0.0000

> <Gold.Chemscore.Hbonds>
donor molecule, donor type, donor heavy atom, donor atom, acceptor molecule, acceptor atom, score
      L1  H     5    25       P1  7948  1.00
      L1  H     8    26       P1  7948  0.91
      P1  H  7989  7998       L1    20  0.65

> <Gold.PLP.Chemscore.Internal.Correction>
0.1212

> <Gold.Rescore>
     Score         DG    S(hbond)    S(metal)    S(lipo)     H(rot)  DE(clash)    DE(int)     intcor
     14.54     -16.65       1.93        0.00      74.08       1.55       0.20       1.91       ----

> <Gold.Chemscore.Fitness>
14.5350

> <Gold.Chemscore.DG>
-16.6476

> <Gold.Chemscore.ZeroCoef>
-5.4800

> <Gold.Chemscore.Hbond>
1.9345

> <Gold.Chemscore.Metal>
0.0000

> <Gold.Chemscore.Lipo>
74.0827

> <Gold.Chemscore.Internal_Hbond>
0.0000

> <Gold.Chemscore.DEClash>
0.1988

> <Gold.Chemscore.DEInternal>
1.9138

> <Gold.Chemscore.Rot>
1.5474

> <Gold.Chemscore.Internal.Correction>
   9.000000E+99

> <Gold.Chemscore.Hbonds>
donor molecule, donor type, donor heavy atom, donor atom, acceptor molecule, acceptor atom, score
      L1  H     5    25       P1  7948  0.98
      L1  H     8    26       P1  7948  0.90
      P1  H  7989  7998       L1    20  0.02

> <Gold.Chemscore.Hbond.Weighted>
-6.4611

> <Gold.Chemscore.Metal.Weighted>
-0.0000

> <Gold.Chemscore.Lipo.Weighted>
-8.6677

> <Gold.Chemscore.Internal_Hbond.Weighted>
0.0000

> <Gold.Chemscore.DEClash.Weighted>
0.1988

> <Gold.Chemscore.DEInternal.Weighted>
1.9138

> <Gold.Chemscore.Rot.Weighted>
3.9612

> <Gold.Chemscore.Internal.Correction.Weighted>
   9.000000E+99

> <Gold.Protein.RotatedTorsions>
[ 6907 6896 6895 6894 ] final  -56.17 input  -60.11 | X-H torsion
[ 7974 7965 7964 7962 ] final  112.90 input  175.53 | X-H torsion
[ 8008 7997 7996 7995 ] final   61.89 input   59.86 | X-H torsion
[ 10167 10162 10161 10158 ] final -139.32 input  -65.29 | X-H torsion
[ 10718 10713 10712 10709 ] final   82.69 input   66.30 | X-H torsion
[ 10763 10752 10751 10750 ] final  -31.84 input  -60.55 | X-H torsion
[ 11005 11000 10999 10996 ] final  -97.86 input  -57.11 | X-H torsion

> <Gold.Protein.ActiveResidues>
 VAL166  LYS551  ARG553  GLY616  TRP617  ASP618  TYR619  PRO620  LYS621  CYS622 
 ASP623  PHE694  ASN695  SER759  ASP760  ASP761  ALA762  ILE779  LEU786  VAL792 
 PHE793  MET794  SER795  GLU796  ALA797  LYS798  CYS799  TRP800  GLU811  SER814 

> <Gold.Protein.RotatedAtoms>
  150.8190  134.7387  159.6754 H   0  0  0  0  0  0  0  0  0  0  0  0  # atno 6907 bound_to 6896
  152.4306  134.5781  159.9950 H   0  0  0  0  0  0  0  0  0  0  0  0  # atno 6908 bound_to 6896
  151.5970  133.3323  159.3075 H   0  0  0  0  0  0  0  0  0  0  0  0  # atno 6909 bound_to 6896
  145.2237  139.2850  143.4205 H   0  0  0  0  0  0  0  0  0  0  0  0  # atno 7974 bound_to 7965
  155.6055  140.3494  155.4606 H   0  0  0  0  0  0  0  0  0  0  0  0  # atno 8008 bound_to 7997
  156.0195  140.1250  157.0396 H   0  0  0  0  0  0  0  0  0  0  0  0  # atno 8009 bound_to 7997
  154.4310  140.1065  156.5929 H   0  0  0  0  0  0  0  0  0  0  0  0  # atno 8010 bound_to 7997
  139.8391  143.7346  152.2664 H   0  0  0  0  0  0  0  0  0  0  0  0  # atno 10167 bound_to 10162
  157.6863  131.0059  150.2413 H   0  0  0  0  0  0  0  0  0  0  0  0  # atno 10718 bound_to 10713
  153.8039  135.6888  153.4851 H   0  0  0  0  0  0  0  0  0  0  0  0  # atno 10763 bound_to 10752
  153.1671  135.4557  154.9850 H   0  0  0  0  0  0  0  0  0  0  0  0  # atno 10764 bound_to 10752
  154.7995  135.3332  154.7525 H   0  0  0  0  0  0  0  0  0  0  0  0  # atno 10765 bound_to 10752
  141.1365  133.8202  157.0762 H   0  0  0  0  0  0  0  0  0  0  0  0  # atno 11005 bound_to 11000
  146.3370  140.2550  142.8600 LP  0  0  0  0  0  0  0  0  0  0  0  0  # atno 17320 bound_to 7965
  144.9742  140.8397  143.5437 LP  0  0  0  0  0  0  0  0  0  0  0  0  # atno 17321 bound_to 7965
  139.7577  144.7516  151.0410 LP  0  0  0  0  0  0  0  0  0  0  0  0  # atno 17342 bound_to 10162
  140.7800  143.4786  151.0048 LP  0  0  0  0  0  0  0  0  0  0  0  0  # atno 17343 bound_to 10162
  156.3027  130.3760  149.7735 LP  0  0  0  0  0  0  0  0  0  0  0  0  # atno 17370 bound_to 10713
  156.5360  130.8279  151.3253 LP  0  0  0  0  0  0  0  0  0  0  0  0  # atno 17371 bound_to 10713
  140.0480  134.9820  157.1084 LP  0  0  0  0  0  0  0  0  0  0  0  0  # atno 17394 bound_to 11000
  140.4033  134.2059  155.7163 LP  0  0  0  0  0  0  0  0  0  0  0  0  # atno 17395 bound_to 11000

$$$$
