AV-unprocessed.smi:2111|AV-procd|sdf|8612|dock1
  -GOLD-   2272011353D 1   1.00000     0.00000
 Structure written by MMmdl.
 28 29  0  0  0  0  0  0  0  0  1 V2000
  147.1132  141.7712  153.8794 C   0  0  0  0  0  0  0  0  0  0  0  0
  148.2644  141.9859  154.6889 O   0  0  0  0  0  0  0  0  0  0  0  0
  149.2287  140.9971  154.7415 C   0  0  0  0  0  0  0  0  0  0  0  0
  149.0071  139.8460  154.0586 N   0  0  0  0  0  0  0  0  0  0  0  0
  149.9448  138.8785  154.1080 C   0  0  0  0  0  0  0  0  0  0  0  0
  151.1418  139.0042  154.8353 C   0  0  0  0  0  0  0  0  0  0  0  0
  151.3746  140.1968  155.5449 C   0  0  0  0  0  0  0  0  0  0  0  0
  150.4009  141.2260  155.5011 C   0  0  0  0  0  0  0  0  0  0  0  0
  150.5152  142.4759  156.1754 N   0  0  0  0  0  0  0  0  0  0  0  0
  151.2434  142.8119  157.2547 C   0  0  0  0  0  0  0  0  0  0  0  0
  151.9803  142.0568  157.8876 O   0  0  0  0  0  0  0  0  0  0  0  0
  151.0677  144.1035  157.5657 N   0  0  0  0  0  0  0  0  0  0  0  0
  151.6836  144.7840  158.6590 C   0  0  0  0  0  0  0  0  0  0  0  0
  151.6922  144.0881  160.0030 C   0  0  0  0  0  0  0  0  0  0  0  0
  150.7908  145.2707  159.7801 C   0  0  0  0  0  0  0  0  0  0  0  0
  146.4581  142.6395  153.9469 H   0  0  0  0  0  0  0  0  0  0  0  0
  146.5458  140.9020  154.2150 H   0  0  0  0  0  0  0  0  0  0  0  0
  147.3815  141.6411  152.8299 H   0  0  0  0  0  0  0  0  0  0  0  0
  149.7340  137.9768  153.5524 H   0  0  0  0  0  0  0  0  0  0  0  0
  151.8657  138.2029  154.8500 H   0  0  0  0  0  0  0  0  0  0  0  0
  152.2920  140.2837  156.1033 H   0  0  0  0  0  0  0  0  0  0  0  0
  149.9712  143.2230  155.7688 H   0  0  0  0  0  0  0  0  0  0  0  0
  150.4462  144.6487  156.9863 H   0  0  0  0  0  0  0  0  0  0  0  0
  152.5529  145.4017  158.4378 H   0  0  0  0  0  0  0  0  0  0  0  0
  151.2257  143.1070  160.0718 H   0  0  0  0  0  0  0  0  0  0  0  0
  152.5643  144.2338  160.6374 H   0  0  0  0  0  0  0  0  0  0  0  0
  151.0612  146.2070  160.2644 H   0  0  0  0  0  0  0  0  0  0  0  0
  149.7223  145.0795  159.7015 H   0  0  0  0  0  0  0  0  0  0  0  0
  1  2  1  0  0  0  0
  1 16  1  0  0  0  0
  1 17  1  0  0  0  0
  1 18  1  0  0  0  0
  2  3  1  0  0  0  0
  3  8  1  0  0  0  0
  3  4  2  0  0  0  0
  4  5  1  0  0  0  0
  5  6  2  0  0  0  0
  5 19  1  0  0  0  0
  6  7  1  0  0  0  0
  6 20  1  0  0  0  0
  7  8  2  0  0  0  0
  7 21  1  0  0  0  0
  8  9  1  0  0  0  0
  9 10  1  0  0  0  0
  9 22  1  0  0  0  0
 10 11  2  0  0  0  0
 10 12  1  0  0  0  0
 12 13  1  0  0  0  0
 12 23  1  0  0  0  0
 13 15  1  0  0  0  0
 13 14  1  0  0  0  0
 13 24  1  0  0  0  0
 14 15  1  0  0  0  0
 14 25  1  0  0  0  0
 14 26  1  0  0  0  0
 15 27  1  0  0  0  0
 15 28  1  0  0  0  0
M  END
> <s_m_source_file>
AV-unprocessed.smi

> <i_m_source_file_index>
2111

> <i_lp_mmshare_version>
43012

> <i_f3d_flags>
0

> <s_epik_input>
W0NIM11PYzFuW2NIXVtjSF1bY0hdYzFbTkhdQyg9TylbTkhdW0NIXTJbQ0gyXVtDSDJdMg==

> <s_epik_cmdline>
J2VwaWtfcHl0aG9uJywgJy1waCcsICc3LjAnLCAnLXRuJywgJzgnLCAnLW1hJywgJzIwMCcsICctbWV0YWxfYmluZGluZycsICctaW1hZScsICc8aW5maWxlLm1hZT4nLCAnLW9tYWUnLCAnPG91dGZpbGUubWFlPic=

> <r_lp_tautomer_probability>
1

> <r_epik_Ionization_Penalty>
0.000100745

> <r_epik_Ionization_Penalty_Charging>
0

> <r_epik_Ionization_Penalty_Neutral>
0.000100745

> <r_epik_State_Penalty>
-0

> <r_epik_Charging_Adjusted_Penalty>
0

> <i_epik_Tot_Q>
0

> <i_epik_Tot_abs_Q>
0

> <r_epik_Metal_State_Penalty>
-0

> <b_epik_Metal_Only>
0

> <s_lp_Force_Field>
OPLS_2005

> <r_lp_Energy>
18.5112

> <b_lp_Chiralities_Consistent>
1

> <s_lp_Variant>
AV-unprocessed.smi:2111-1

> <Gold.Version>
5.8.1

> <Gold.Id.Protein>
6NUR|6NUR_protein|mol2

> <Gold.PLP.Fitness>
43.4533

> <Gold.PLP.PLP>
-34.8786

> <Gold.PLP.part.hbond>
-2.0000

> <Gold.PLP.part.metal>
0.0000

> <Gold.PLP.part.buried>
-5.0597

> <Gold.PLP.part.nonpolar>
-28.8126

> <Gold.PLP.part.repulsive>
2.1509

> <Gold.PLP.ligand.clash>
0.0000

> <Gold.PLP.ligand.torsion>
0.2342

> <Gold.PLP.Chemscore.Hbond>
2.0000

> <Gold.PLP.Chemscore.CHOScore>
1.0000

> <Gold.PLP.Chemscore.Metal>
0.0000

> <Gold.Chemscore.Hbonds>
donor molecule, donor type, donor heavy atom, donor atom, acceptor molecule, acceptor atom, score
      L1  H     9    22       P1  8028  1.00
      L1  H    12    23       P1  8028  1.00
      L1  C     5    19       P1  7948  1.00

> <Gold.PLP.Chemscore.Internal.Correction>
0.0431

> <Gold.Rescore>
     Score         DG    S(hbond)    S(metal)    S(lipo)     H(rot)  DE(clash)    DE(int)     intcor
     14.03     -16.61       1.80        0.00      70.98       1.25       0.30       2.28       ----

> <Gold.Chemscore.Fitness>
14.0258

> <Gold.Chemscore.DG>
-16.6066

> <Gold.Chemscore.ZeroCoef>
-5.4800

> <Gold.Chemscore.Hbond>
1.8026

> <Gold.Chemscore.Metal>
0.0000

> <Gold.Chemscore.Lipo>
70.9786

> <Gold.Chemscore.Internal_Hbond>
0.0000

> <Gold.Chemscore.DEClash>
0.2960

> <Gold.Chemscore.DEInternal>
2.2848

> <Gold.Chemscore.Rot>
1.2495

> <Gold.Chemscore.Internal.Correction>
   9.000000E+99

> <Gold.Chemscore.Hbonds>
donor molecule, donor type, donor heavy atom, donor atom, acceptor molecule, acceptor atom, score
      L1  H     9    22       P1  8028  1.00
      L1  H    12    23       P1  8028  0.68

> <Gold.Chemscore.Hbond.Weighted>
-6.0207

> <Gold.Chemscore.Metal.Weighted>
-0.0000

> <Gold.Chemscore.Lipo.Weighted>
-8.3045

> <Gold.Chemscore.Internal_Hbond.Weighted>
0.0000

> <Gold.Chemscore.DEClash.Weighted>
0.2960

> <Gold.Chemscore.DEInternal.Weighted>
2.2848

> <Gold.Chemscore.Rot.Weighted>
3.1986

> <Gold.Chemscore.Internal.Correction.Weighted>
   9.000000E+99

> <Gold.Protein.RotatedTorsions>
[ 6907 6896 6895 6894 ] final  -30.80 input  -60.11 | X-H torsion
[ 7974 7965 7964 7962 ] final   12.04 input  175.53 | X-H torsion
[ 8008 7997 7996 7995 ] final  145.52 input   59.86 | X-H torsion
[ 10167 10162 10161 10158 ] final  107.68 input  -65.29 | X-H torsion
[ 10718 10713 10712 10709 ] final  145.75 input   66.30 | X-H torsion
[ 10763 10752 10751 10750 ] final -151.54 input  -60.55 | X-H torsion
[ 11005 11000 10999 10996 ] final   14.83 input  -57.11 | X-H torsion

> <Gold.Protein.ActiveResidues>
 VAL166  LYS551  ARG553  GLY616  TRP617  ASP618  TYR619  PRO620  LYS621  CYS622 
 ASP623  PHE694  ASN695  SER759  ASP760  ASP761  ALA762  ILE779  LEU786  VAL792 
 PHE793  MET794  SER795  GLU796  ALA797  LYS798  CYS799  TRP800  GLU811  SER814 

> <Gold.Protein.RotatedAtoms>
  151.1007  134.9970  159.8447 H   0  0  0  0  0  0  0  0  0  0  0  0  # atno 6907 bound_to 6896
  152.5436  134.1953  159.8700 H   0  0  0  0  0  0  0  0  0  0  0  0  # atno 6908 bound_to 6896
  151.1996  133.4574  159.2629 H   0  0  0  0  0  0  0  0  0  0  0  0  # atno 6909 bound_to 6896
  146.2359  139.9396  142.8485 H   0  0  0  0  0  0  0  0  0  0  0  0  # atno 7974 bound_to 7965
  156.2881  140.2207  156.5229 H   0  0  0  0  0  0  0  0  0  0  0  0  # atno 8008 bound_to 7997
  154.7513  140.0480  157.0918 H   0  0  0  0  0  0  0  0  0  0  0  0  # atno 8009 bound_to 7997
  155.0106  140.3112  155.4834 H   0  0  0  0  0  0  0  0  0  0  0  0  # atno 8010 bound_to 7997
  139.6907  144.7108  151.1353 H   0  0  0  0  0  0  0  0  0  0  0  0  # atno 10167 bound_to 10162
  157.3415  131.0936  151.1078 H   0  0  0  0  0  0  0  0  0  0  0  0  # atno 10718 bound_to 10713
  154.8051  135.3257  154.7451 H   0  0  0  0  0  0  0  0  0  0  0  0  # atno 10763 bound_to 10752
  153.8111  135.6895  153.4845 H   0  0  0  0  0  0  0  0  0  0  0  0  # atno 10764 bound_to 10752
  153.1792  135.4593  154.9949 H   0  0  0  0  0  0  0  0  0  0  0  0  # atno 10765 bound_to 10752
  140.4651  134.1088  155.7723 H   0  0  0  0  0  0  0  0  0  0  0  0  # atno 11005 bound_to 11000
  145.1965  140.9835  143.4180 LP  0  0  0  0  0  0  0  0  0  0  0  0  # atno 17320 bound_to 7965
  144.9811  139.3782  143.6261 LP  0  0  0  0  0  0  0  0  0  0  0  0  # atno 17321 bound_to 7965
  140.7682  143.5563  150.9148 LP  0  0  0  0  0  0  0  0  0  0  0  0  # atno 17342 bound_to 10162
  139.9241  143.6571  152.3090 LP  0  0  0  0  0  0  0  0  0  0  0  0  # atno 17343 bound_to 10162
  157.2288  130.6515  149.5841 LP  0  0  0  0  0  0  0  0  0  0  0  0  # atno 17370 bound_to 10713
  155.9708  130.4605  150.6076 LP  0  0  0  0  0  0  0  0  0  0  0  0  # atno 17371 bound_to 10713
  141.1603  133.8805  157.1865 LP  0  0  0  0  0  0  0  0  0  0  0  0  # atno 17394 bound_to 11000
  139.9921  135.0061  156.9998 LP  0  0  0  0  0  0  0  0  0  0  0  0  # atno 17395 bound_to 11000

$$$$
