AV-unprocessed.smi:2936|AV-procd|sdf|11257|dock6
  -GOLD-   2272016153D 1   1.00000     0.00000
 Structure written by MMmdl.
 23 24  0  0  0  0  0  0  0  0  2 V2000
  153.1082  138.9932  157.5808 O   0  0  0  0  0  0  0  0  0  0  0  0
  152.3363  139.8017  157.0677 C   0  0  0  0  0  0  0  0  0  0  0  0
  151.6679  139.5319  155.9048 N   0  5  0  0  0  0  0  0  0  0  0  0
  150.7688  140.5132  155.3383 N   0  0  0  0  0  0  0  0  0  0  0  0
  150.5853  141.6387  155.9071 C   0  0  0  0  0  0  0  0  0  0  0  0
  151.2681  142.0111  157.1644 C   0  0  0  0  0  0  0  0  0  0  0  0
  151.0271  143.2522  157.7343 N   0  0  0  0  0  0  0  0  0  0  0  0
  151.8985  144.4026  157.5487 C   0  0  0  0  0  0  0  0  0  0  0  0
  152.3288  144.9694  158.9134 C   0  0  0  0  0  0  0  0  0  0  0  0
  151.1729  145.2717  159.6907 O   0  0  0  0  0  0  0  0  0  0  0  0
  150.3722  144.1183  159.9365 C   0  0  0  0  0  0  0  0  0  0  0  0
  149.8901  143.5310  158.5982 C   0  0  0  0  0  0  0  0  0  0  0  0
  152.1154  141.1022  157.7123 C   0  0  0  0  0  0  0  0  0  0  0  0
  152.9610  141.4422  159.1859 Cl  0  0  0  0  0  0  0  0  0  0  0  0
  149.9099  142.3914  155.4920 H   0  0  0  0  0  0  0  0  0  0  0  0
  152.7748  144.1181  156.9649 H   0  0  0  0  0  0  0  0  0  0  0  0
  151.3648  145.1612  156.9752 H   0  0  0  0  0  0  0  0  0  0  0  0
  152.9651  144.2632  159.4482 H   0  0  0  0  0  0  0  0  0  0  0  0
  152.9117  145.8796  158.7748 H   0  0  0  0  0  0  0  0  0  0  0  0
  150.9413  143.3819  160.5051 H   0  0  0  0  0  0  0  0  0  0  0  0
  149.5184  144.4033  160.5509 H   0  0  0  0  0  0  0  0  0  0  0  0
  149.2261  144.2335  158.0934 H   0  0  0  0  0  0  0  0  0  0  0  0
  149.3185  142.6184  158.7709 H   0  0  0  0  0  0  0  0  0  0  0  0
  1  2  2  0  0  0  0
  2 13  1  0  0  0  0
  2  3  1  0  0  0  0
  3  4  1  0  0  0  0
  4  5  2  0  0  0  0
  5  6  1  0  0  0  0
  5 15  1  0  0  0  0
  6  7  1  0  0  0  0
  6 13  2  0  0  0  0
  7 12  1  0  0  0  0
  7  8  1  0  0  0  0
  8  9  1  0  0  0  0
  8 16  1  0  0  0  0
  8 17  1  0  0  0  0
  9 10  1  0  0  0  0
  9 18  1  0  0  0  0
  9 19  1  0  0  0  0
 10 11  1  0  0  0  0
 11 12  1  0  0  0  0
 11 20  1  0  0  0  0
 11 21  1  0  0  0  0
 12 22  1  0  0  0  0
 12 23  1  0  0  0  0
 13 14  1  0  0  0  0
M  CHG  1   3  -1
M  END
> <s_m_source_file>
AV-unprocessed.smi

> <i_m_source_file_index>
2936

> <i_lp_mmshare_version>
43012

> <i_f3d_flags>
0

> <s_epik_input>
Tz1jMVtuSF1uW2NIXWMoYzFDbClOMltDSDJdW0NIMl1PW0NIMl1bQ0gyXTI=

> <s_epik_cmdline>
J2VwaWtfcHl0aG9uJywgJy1waCcsICc3LjAnLCAnLXRuJywgJzgnLCAnLW1hJywgJzIwMCcsICctbWV0YWxfYmluZGluZycsICctaW1hZScsICc8aW5maWxlLm1hZT4nLCAnLW9tYWUnLCAnPG91dGZpbGUubWFlPic=

> <r_lp_tautomer_probability>
1

> <r_epik_Ionization_Penalty>
2.40826

> <r_epik_Ionization_Penalty_Charging>
0.00182709

> <r_epik_Ionization_Penalty_Neutral>
2.40643

> <r_epik_State_Penalty>
0.0371983

> <r_epik_Charging_Adjusted_Penalty>
0.0390254

> <i_epik_Tot_Q>
-1

> <i_epik_Tot_abs_Q>
1

> <r_epik_Metal_State_Penalty>
0.000698467

> <b_epik_Metal_Only>
0

> <s_lp_Force_Field>
OPLS_2005

> <r_lp_Energy>
40.7518

> <b_lp_Chiralities_Consistent>
1

> <s_lp_Variant>
AV-unprocessed.smi:2936-1

> <Gold.Version>
5.8.1

> <Gold.Id.Protein>
6NUR|6NUR_protein|mol2

> <Gold.PLP.Fitness>
34.4430

> <Gold.PLP.PLP>
-27.6910

> <Gold.PLP.part.hbond>
-2.0000

> <Gold.PLP.part.metal>
0.0000

> <Gold.PLP.part.buried>
-3.9453

> <Gold.PLP.part.nonpolar>
-20.9711

> <Gold.PLP.part.repulsive>
0.2132

> <Gold.PLP.ligand.clash>
0.0000

> <Gold.PLP.ligand.torsion>
1.4780

> <Gold.PLP.Chemscore.Hbond>
1.7016

> <Gold.PLP.Chemscore.CHOScore>
1.0000

> <Gold.PLP.Chemscore.Metal>
0.0000

> <Gold.Chemscore.Hbonds>
donor molecule, donor type, donor heavy atom, donor atom, acceptor molecule, acceptor atom, score
      P1  H  7989  7998       L1     4  0.90
      P1  H  7997  8009       L1     1  0.65
      L1  C     5    15       P1  8028  0.96

> <Gold.PLP.Chemscore.Internal.Correction>
1.6033

> <Gold.Rescore>
     Score         DG    S(hbond)    S(metal)    S(lipo)     H(rot)  DE(clash)    DE(int)     intcor
     14.32     -16.14       0.62        0.00      73.52       0.00       0.38       1.44       ----

> <Gold.Chemscore.Fitness>
14.3190

> <Gold.Chemscore.DG>
-16.1399

> <Gold.Chemscore.ZeroCoef>
-5.4800

> <Gold.Chemscore.Hbond>
0.6162

> <Gold.Chemscore.Metal>
0.0000

> <Gold.Chemscore.Lipo>
73.5188

> <Gold.Chemscore.Internal_Hbond>
0.0000

> <Gold.Chemscore.DEClash>
0.3819

> <Gold.Chemscore.DEInternal>
1.4389

> <Gold.Chemscore.Rot>
0.0000

> <Gold.Chemscore.Internal.Correction>
   9.000000E+99

> <Gold.Chemscore.Hbonds>
donor molecule, donor type, donor heavy atom, donor atom, acceptor molecule, acceptor atom, score
      P1  H  7989  7998       L1     4  0.17
      P1  H  7997  8009       L1     1  0.05

> <Gold.Chemscore.Hbond.Weighted>
-2.0582

> <Gold.Chemscore.Metal.Weighted>
-0.0000

> <Gold.Chemscore.Lipo.Weighted>
-8.6017

> <Gold.Chemscore.Internal_Hbond.Weighted>
0.0000

> <Gold.Chemscore.DEClash.Weighted>
0.3819

> <Gold.Chemscore.DEInternal.Weighted>
1.4389

> <Gold.Chemscore.Rot.Weighted>
0.0000

> <Gold.Chemscore.Internal.Correction.Weighted>
   9.000000E+99

> <Gold.Protein.RotatedTorsions>
[ 6907 6896 6895 6894 ] final   -1.35 input  -60.11 | X-H torsion
[ 7974 7965 7964 7962 ] final   89.21 input  175.53 | X-H torsion
[ 8008 7997 7996 7995 ] final  147.02 input   59.86 | X-H torsion
[ 10167 10162 10161 10158 ] final  -35.24 input  -65.29 | X-H torsion
[ 10718 10713 10712 10709 ] final -113.30 input   66.30 | X-H torsion
[ 10763 10752 10751 10750 ] final  146.85 input  -60.55 | X-H torsion
[ 11005 11000 10999 10996 ] final  -62.21 input  -57.11 | X-H torsion

> <Gold.Protein.ActiveResidues>
 VAL166  LYS551  ARG553  GLY616  TRP617  ASP618  TYR619  PRO620  LYS621  CYS622 
 ASP623  PHE694  ASN695  SER759  ASP760  ASP761  ALA762  ILE779  LEU786  VAL792 
 PHE793  MET794  SER795  GLU796  ALA797  LYS798  CYS799  TRP800  GLU811  SER814 

> <Gold.Protein.RotatedAtoms>
  151.5475  135.1068  159.9941 H   0  0  0  0  0  0  0  0  0  0  0  0  # atno 6907 bound_to 6896
  152.4507  133.7619  159.6762 H   0  0  0  0  0  0  0  0  0  0  0  0  # atno 6908 bound_to 6896
  150.8435  133.7832  159.3076 H   0  0  0  0  0  0  0  0  0  0  0  0  # atno 6909 bound_to 6896
  145.5354  139.2285  143.2595 H   0  0  0  0  0  0  0  0  0  0  0  0  # atno 7974 bound_to 7965
  156.2837  140.2166  156.5471 H   0  0  0  0  0  0  0  0  0  0  0  0  # atno 8008 bound_to 7997
  154.7322  140.0494  157.0759 H   0  0  0  0  0  0  0  0  0  0  0  0  # atno 8009 bound_to 7997
  155.0339  140.3138  155.4751 H   0  0  0  0  0  0  0  0  0  0  0  0  # atno 8010 bound_to 7997
  140.7169  143.3491  151.2193 H   0  0  0  0  0  0  0  0  0  0  0  0  # atno 10167 bound_to 10162
  156.0758  130.5966  150.8624 H   0  0  0  0  0  0  0  0  0  0  0  0  # atno 10718 bound_to 10713
  154.0286  135.2899  155.3371 H   0  0  0  0  0  0  0  0  0  0  0  0  # atno 10763 bound_to 10752
  154.7002  135.5191  153.8519 H   0  0  0  0  0  0  0  0  0  0  0  0  # atno 10764 bound_to 10752
  153.0650  135.6627  154.0501 H   0  0  0  0  0  0  0  0  0  0  0  0  # atno 10765 bound_to 10752
  141.1351  133.6637  156.5492 H   0  0  0  0  0  0  0  0  0  0  0  0  # atno 11005 bound_to 11000
  146.2017  140.6172  142.9099 LP  0  0  0  0  0  0  0  0  0  0  0  0  # atno 17320 bound_to 7965
  144.7604  140.5409  143.6739 LP  0  0  0  0  0  0  0  0  0  0  0  0  # atno 17321 bound_to 7965
  139.7017  143.9521  152.2908 LP  0  0  0  0  0  0  0  0  0  0  0  0  # atno 17342 bound_to 10162
  139.9217  144.6796  150.8455 LP  0  0  0  0  0  0  0  0  0  0  0  0  # atno 17343 bound_to 10162
  157.5852  131.0945  150.9207 LP  0  0  0  0  0  0  0  0  0  0  0  0  # atno 17370 bound_to 10713
  156.9394  130.5379  149.5280 LP  0  0  0  0  0  0  0  0  0  0  0  0  # atno 17371 bound_to 10713
  140.4077  134.7300  157.4817 LP  0  0  0  0  0  0  0  0  0  0  0  0  # atno 17394 bound_to 11000
  140.0450  134.6213  155.8933 LP  0  0  0  0  0  0  0  0  0  0  0  0  # atno 17395 bound_to 11000

$$$$
