AV-unprocessed.smi:1384|AV-procd|sdf|5626|dock3
  -GOLD-   22720 5243D 1   1.00000     0.00000
 Structure written by MMmdl.
 41 42  0  0  0  0  0  0  0  0  1 V2000
  151.4212  145.3772  160.1628 C   0  0  0  0  0  0  0  0  0  0  0  0
  151.8169  143.9211  160.4460 C   0  0  2  0  0  0  0  0  0  0  0  0
  152.6833  143.8075  161.7145 C   0  0  0  0  0  0  0  0  0  0  0  0
  153.0808  142.3503  162.0003 C   0  0  0  0  0  0  0  0  0  0  0  0
  153.8027  141.7143  160.7946 C   0  0  1  0  0  0  0  0  0  0  0  0
  154.0988  140.3083  161.0522 N   0  0  0  0  0  0  0  0  0  0  0  0
  154.4280  139.3986  160.1228 C   0  0  0  0  0  0  0  0  0  0  0  0
  154.5267  139.6640  158.9239 O   0  0  0  0  0  0  0  0  0  0  0  0
  154.6996  137.9807  160.6466 C   0  0  0  0  0  0  0  0  0  0  0  0
  154.8985  137.9152  162.1049 N   0  0  0  0  0  0  0  0  0  0  0  0
  153.9874  137.1313  162.8350 C   0  0  0  0  0  0  0  0  0  0  0  0
  154.0777  136.9996  164.1652 C   0  0  0  0  0  0  0  0  0  0  0  0
  155.1478  137.6853  164.8472 C   0  0  0  0  0  0  0  0  0  0  0  0
  156.0351  138.4530  164.1731 C   0  0  0  0  0  0  0  0  0  0  0  0
  157.1804  139.1753  164.8790 C   0  0  0  0  0  0  0  0  0  0  0  0
  158.3591  138.6985  164.4765 F   0  0  0  0  0  0  0  0  0  0  0  0
  157.1446  140.4804  164.6091 F   0  0  0  0  0  0  0  0  0  0  0  0
  157.1155  139.0302  166.2034 F   0  0  0  0  0  0  0  0  0  0  0  0
  155.9210  138.5982  162.7073 C   0  0  0  0  0  0  0  0  0  0  0  0
  156.6979  139.2937  162.0508 O   0  0  0  0  0  0  0  0  0  0  0  0
  152.9417  141.8323  159.5237 C   0  0  0  0  0  0  0  0  0  0  0  0
  152.5439  143.2904  159.2431 C   0  0  0  0  0  0  0  0  0  0  0  0
  152.2985  146.0004  159.9869 H   0  0  0  0  0  0  0  0  0  0  0  0
  150.8716  145.8046  161.0021 H   0  0  0  0  0  0  0  0  0  0  0  0
  150.7820  145.4456  159.2822 H   0  0  0  0  0  0  0  0  0  0  0  0
  150.8975  143.3587  160.6157 H   0  0  0  0  0  0  0  0  0  0  0  0
  153.5835  144.4131  161.6024 H   0  0  0  0  0  0  0  0  0  0  0  0
  152.1448  144.2126  162.5721 H   0  0  0  0  0  0  0  0  0  0  0  0
  153.7183  142.3153  162.8844 H   0  0  0  0  0  0  0  0  0  0  0  0
  152.1869  141.7733  162.2420 H   0  0  0  0  0  0  0  0  0  0  0  0
  154.7397  142.2474  160.6211 H   0  0  0  0  0  0  0  0  0  0  0  0
  154.0448  140.0026  162.0131 H   0  0  0  0  0  0  0  0  0  0  0  0
  153.8655  137.3435  160.3486 H   0  0  0  0  0  0  0  0  0  0  0  0
  155.5682  137.5698  160.1284 H   0  0  0  0  0  0  0  0  0  0  0  0
  153.2139  136.6558  162.2494 H   0  0  0  0  0  0  0  0  0  0  0  0
  153.3673  136.3973  164.7123 H   0  0  0  0  0  0  0  0  0  0  0  0
  155.2289  137.5714  165.9176 H   0  0  0  0  0  0  0  0  0  0  0  0
  153.4830  141.4294  158.6667 H   0  0  0  0  0  0  0  0  0  0  0  0
  152.0396  141.2281  159.6309 H   0  0  0  0  0  0  0  0  0  0  0  0
  151.9057  143.3297  158.3596 H   0  0  0  0  0  0  0  0  0  0  0  0
  153.4364  143.8706  159.0046 H   0  0  0  0  0  0  0  0  0  0  0  0
  1  2  1  0  0  0  0
  1 23  1  0  0  0  0
  1 24  1  0  0  0  0
  1 25  1  0  0  0  0
  2 22  1  0  0  0  0
  2  3  1  0  0  0  0
  2 26  1  0  0  0  0
  3  4  1  0  0  0  0
  3 27  1  0  0  0  0
  3 28  1  0  0  0  0
  4  5  1  0  0  0  0
  4 29  1  0  0  0  0
  4 30  1  0  0  0  0
  5  6  1  0  0  0  0
  5 21  1  0  0  0  0
  5 31  1  0  0  0  0
  6  7  1  0  0  0  0
  6 32  1  0  0  0  0
  7  8  2  0  0  0  0
  7  9  1  0  0  0  0
  9 10  1  0  0  0  0
  9 33  1  0  0  0  0
  9 34  1  0  0  0  0
 10 19  1  0  0  0  0
 10 11  1  0  0  0  0
 11 12  2  0  0  0  0
 11 35  1  0  0  0  0
 12 13  1  0  0  0  0
 12 36  1  0  0  0  0
 13 14  2  0  0  0  0
 13 37  1  0  0  0  0
 14 15  1  0  0  0  0
 14 19  1  0  0  0  0
 15 16  1  0  0  0  0
 15 17  1  0  0  0  0
 15 18  1  0  0  0  0
 19 20  2  0  0  0  0
 21 22  1  0  0  0  0
 21 38  1  0  0  0  0
 21 39  1  0  0  0  0
 22 40  1  0  0  0  0
 22 41  1  0  0  0  0
M  END
> <s_m_source_file>
AV-unprocessed.smi

> <i_m_source_file_index>
1384

> <i_lp_mmshare_version>
43012

> <i_f3d_flags>
0

> <s_epik_input>
W0NIM11bQ0BASF0xW0NIMl1bQ0gyXVtDQEhdKFtDSDJdW0NIMl0xKVtOSF1DKD1PKVtDSDJdbjJbY0hdW2NIXVtjSF1jKEMoRikoRilGKWMyPU8=

> <s_epik_cmdline>
J2VwaWtfcHl0aG9uJywgJy1waCcsICc3LjAnLCAnLXRuJywgJzgnLCAnLW1hJywgJzIwMCcsICctbWV0YWxfYmluZGluZycsICctaW1hZScsICc8aW5maWxlLm1hZT4nLCAnLW9tYWUnLCAnPG91dGZpbGUubWFlPic=

> <r_lp_tautomer_probability>
1

> <r_epik_Ionization_Penalty>
2.11165e-08

> <r_epik_Ionization_Penalty_Charging>
2.06965e-09

> <r_epik_Ionization_Penalty_Neutral>
1.90469e-08

> <r_epik_State_Penalty>
-0

> <r_epik_Charging_Adjusted_Penalty>
2.06965e-09

> <i_epik_Tot_Q>
0

> <i_epik_Tot_abs_Q>
0

> <r_epik_Metal_State_Penalty>
-0

> <b_epik_Metal_Only>
0

> <s_lp_Force_Field>
OPLS_2005

> <r_lp_Energy>
18.7612

> <b_lp_Chiralities_Consistent>
1

> <s_lp_Variant>
AV-unprocessed.smi:1384-1

> <Gold.Version>
5.8.1

> <Gold.Id.Protein>
6NUR|6NUR_protein|mol2

> <Gold.PLP.Fitness>
50.2092

> <Gold.PLP.PLP>
-48.2050

> <Gold.PLP.part.hbond>
-1.0000

> <Gold.PLP.part.metal>
0.0000

> <Gold.PLP.part.buried>
-5.7117

> <Gold.PLP.part.nonpolar>
-41.2219

> <Gold.PLP.part.repulsive>
0.0249

> <Gold.PLP.ligand.clash>
0.3677

> <Gold.PLP.ligand.torsion>
0.4937

> <Gold.PLP.Chemscore.Hbond>
1.0000

> <Gold.PLP.Chemscore.CHOScore>
0.0000

> <Gold.PLP.Chemscore.Metal>
0.0000

> <Gold.Chemscore.Hbonds>
donor molecule, donor type, donor heavy atom, donor atom, acceptor molecule, acceptor atom, score
      P1  H  7997  8010       L1     8  1.00

> <Gold.PLP.Chemscore.Internal.Correction>
0.3593

> <Gold.Rescore>
     Score         DG    S(hbond)    S(metal)    S(lipo)     H(rot)  DE(clash)    DE(int)     intcor
     15.18     -18.77       1.00        0.00     118.42       1.52       0.04       3.55       ----

> <Gold.Chemscore.Fitness>
15.1768

> <Gold.Chemscore.DG>
-18.7718

> <Gold.Chemscore.ZeroCoef>
-5.4800

> <Gold.Chemscore.Hbond>
0.9997

> <Gold.Chemscore.Metal>
0.0000

> <Gold.Chemscore.Lipo>
118.4166

> <Gold.Chemscore.Internal_Hbond>
0.0000

> <Gold.Chemscore.DEClash>
0.0402

> <Gold.Chemscore.DEInternal>
3.5548

> <Gold.Chemscore.Rot>
1.5242

> <Gold.Chemscore.Internal.Correction>
   9.000000E+99

> <Gold.Chemscore.Hbonds>
donor molecule, donor type, donor heavy atom, donor atom, acceptor molecule, acceptor atom, score
      P1  H  7997  8010       L1     8  1.00

> <Gold.Chemscore.Hbond.Weighted>
-3.3390

> <Gold.Chemscore.Metal.Weighted>
-0.0000

> <Gold.Chemscore.Lipo.Weighted>
-13.8547

> <Gold.Chemscore.Internal_Hbond.Weighted>
0.0000

> <Gold.Chemscore.DEClash.Weighted>
0.0402

> <Gold.Chemscore.DEInternal.Weighted>
3.5548

> <Gold.Chemscore.Rot.Weighted>
3.9019

> <Gold.Chemscore.Internal.Correction.Weighted>
   9.000000E+99

> <Gold.Protein.RotatedTorsions>
[ 6907 6896 6895 6894 ] final   61.33 input  -60.11 | X-H torsion
[ 7974 7965 7964 7962 ] final   29.75 input  175.53 | X-H torsion
[ 8008 7997 7996 7995 ] final    0.81 input   59.86 | X-H torsion
[ 10167 10162 10161 10158 ] final   81.50 input  -65.29 | X-H torsion
[ 10718 10713 10712 10709 ] final -106.71 input   66.30 | X-H torsion
[ 10763 10752 10751 10750 ] final   -5.39 input  -60.55 | X-H torsion
[ 11005 11000 10999 10996 ] final -142.06 input  -57.11 | X-H torsion

> <Gold.Protein.ActiveResidues>
 VAL166  LYS551  ARG553  GLY616  TRP617  ASP618  TYR619  PRO620  LYS621  CYS622 
 ASP623  PHE694  ASN695  SER759  ASP760  ASP761  ALA762  ILE779  LEU786  VAL792 
 PHE793  MET794  SER795  GLU796  ALA797  LYS798  CYS799  TRP800  GLU811  SER814 

> <Gold.Protein.RotatedAtoms>
  152.4080  134.6174  160.0041 H   0  0  0  0  0  0  0  0  0  0  0  0  # atno 6907 bound_to 6896
  151.6360  133.3323  159.3127 H   0  0  0  0  0  0  0  0  0  0  0  0  # atno 6908 bound_to 6896
  150.7973  134.7082  159.6634 H   0  0  0  0  0  0  0  0  0  0  0  0  # atno 6909 bound_to 6896
  146.1653  139.6880  142.9005 H   0  0  0  0  0  0  0  0  0  0  0  0  # atno 7974 bound_to 7965
  154.6724  140.2615  155.6993 H   0  0  0  0  0  0  0  0  0  0  0  0  # atno 8008 bound_to 7997
  156.2664  140.2826  156.1160 H   0  0  0  0  0  0  0  0  0  0  0  0  # atno 8009 bound_to 7997
  155.1149  140.0376  157.2724 H   0  0  0  0  0  0  0  0  0  0  0  0  # atno 8010 bound_to 7997
  139.9386  144.6105  150.8274 H   0  0  0  0  0  0  0  0  0  0  0  0  # atno 10167 bound_to 10162
  156.0402  130.5626  150.7719 H   0  0  0  0  0  0  0  0  0  0  0  0  # atno 10718 bound_to 10713
  153.3978  135.7004  153.6448 H   0  0  0  0  0  0  0  0  0  0  0  0  # atno 10763 bound_to 10752
  153.4993  135.3655  155.2532 H   0  0  0  0  0  0  0  0  0  0  0  0  # atno 10764 bound_to 10752
  154.8708  135.4108  154.3307 H   0  0  0  0  0  0  0  0  0  0  0  0  # atno 10765 bound_to 10752
  140.8262  134.2571  157.4878 H   0  0  0  0  0  0  0  0  0  0  0  0  # atno 11005 bound_to 11000
  145.4483  141.0427  143.2819 LP  0  0  0  0  0  0  0  0  0  0  0  0  # atno 17320 bound_to 7965
  144.8084  139.6008  143.7040 LP  0  0  0  0  0  0  0  0  0  0  0  0  # atno 17321 bound_to 7965
  140.7617  143.3181  151.2685 LP  0  0  0  0  0  0  0  0  0  0  0  0  # atno 17342 bound_to 10162
  139.6723  143.9998  152.2760 LP  0  0  0  0  0  0  0  0  0  0  0  0  # atno 17343 bound_to 10162
  157.5210  131.0931  151.0078 LP  0  0  0  0  0  0  0  0  0  0  0  0  # atno 17370 bound_to 10713
  157.0409  130.5748  149.5356 LP  0  0  0  0  0  0  0  0  0  0  0  0  # atno 17371 bound_to 10713
  139.8706  134.9562  156.4230 LP  0  0  0  0  0  0  0  0  0  0  0  0  # atno 17394 bound_to 11000
  140.9046  133.7755  155.9720 LP  0  0  0  0  0  0  0  0  0  0  0  0  # atno 17395 bound_to 11000

$$$$
