AV-unprocessed.smi:157|AV-procd|sdf|1304|dock10
  -GOLD-   2262018593D 1   1.00000     0.00000
 Structure written by MMmdl.
 35 37  0  0  0  0  0  0  0  0  1 V2000
  152.3805  136.4895  156.6804 O   0  0  0  0  0  0  0  0  0  0  0  0
  153.2023  137.5866  157.0181 C   0  0  0  0  0  0  0  0  0  0  0  0
  152.7616  138.1992  158.3571 C   0  0  2  0  0  0  0  0  0  0  0  0
  152.9229  139.6181  158.3033 O   0  0  0  0  0  0  0  0  0  0  0  0
  153.6853  140.0514  159.3872 C   0  0  1  0  0  0  0  0  0  0  0  0
  153.1189  141.3403  159.8936 N   0  0  0  0  0  0  0  0  0  0  0  0
  153.6357  142.1027  160.8661 C   0  0  0  0  0  0  0  0  0  0  0  0
  152.9490  143.2023  161.1253 N   0  0  0  0  0  0  0  0  0  0  0  0
  151.8854  143.1540  160.2260 C   0  0  0  0  0  0  0  0  0  0  0  0
  151.9756  142.0092  159.4468 C   0  0  0  0  0  0  0  0  0  0  0  0
  151.2400  141.4390  158.4254 N   0  0  0  0  0  0  0  0  0  0  0  0
  150.3985  142.1892  157.7864 C   0  0  0  0  0  0  0  0  0  0  0  0
  150.0230  143.5064  158.0083 N   0  0  0  0  0  0  0  0  0  0  0  0
  149.6547  144.0244  159.3148 C   0  0  0  0  0  0  0  0  0  0  0  0
  150.8539  144.2450  160.2446 C   0  0  2  0  0  0  0  0  0  0  0  0
  151.5119  145.4420  159.8825 O   0  0  0  0  0  0  0  0  0  0  0  0
  153.5779  138.9666  160.4488 C   0  0  0  0  0  0  0  0  0  0  0  0
  153.5823  137.7341  159.5719 C   0  0  1  0  0  0  0  0  0  0  0  0
  152.9896  136.6411  160.2425 O   0  0  0  0  0  0  0  0  0  0  0  0
  151.6985  138.0176  158.5247 H   0  0  0  0  0  0  0  0  0  0  0  0
  154.7070  140.2581  159.0670 H   0  0  0  0  0  0  0  0  0  0  0  0
  150.4814  144.3849  161.2597 H   0  0  0  0  0  0  0  0  0  0  0  0
  154.6054  137.4890  159.2833 H   0  0  0  0  0  0  0  0  0  0  0  0
  151.5589  136.8199  156.3507 H   0  0  0  0  0  0  0  0  0  0  0  0
  154.2449  137.2691  157.0556 H   0  0  0  0  0  0  0  0  0  0  0  0
  153.1202  138.3288  156.2237 H   0  0  0  0  0  0  0  0  0  0  0  0
  154.5393  141.8440  161.3984 H   0  0  0  0  0  0  0  0  0  0  0  0
  149.8694  141.7618  156.9333 H   0  0  0  0  0  0  0  0  0  0  0  0
  149.5411  143.9999  157.2707 H   0  0  0  0  0  0  0  0  0  0  0  0
  149.0784  144.9430  159.2004 H   0  0  0  0  0  0  0  0  0  0  0  0
  148.9825  143.2976  159.7736 H   0  0  0  0  0  0  0  0  0  0  0  0
  151.5616  145.9944  160.6479 H   0  0  0  0  0  0  0  0  0  0  0  0
  154.4057  139.0163  161.1569 H   0  0  0  0  0  0  0  0  0  0  0  0
  152.6318  139.0693  160.9838 H   0  0  0  0  0  0  0  0  0  0  0  0
  152.9020  136.8616  161.1571 H   0  0  0  0  0  0  0  0  0  0  0  0
  1  2  1  0  0  0  0
  1 24  1  0  0  0  0
  2  3  1  0  0  0  0
  2 25  1  0  0  0  0
  2 26  1  0  0  0  0
  3 20  1  0  0  0  0
  3 18  1  0  0  0  0
  3  4  1  0  0  0  0
  4  5  1  0  0  0  0
  5 21  1  0  0  0  0
  5  6  1  0  0  0  0
  5 17  1  0  0  0  0
  6 10  1  0  0  0  0
  6  7  1  0  0  0  0
  7  8  2  0  0  0  0
  7 27  1  0  0  0  0
  8  9  1  0  0  0  0
  9 15  1  0  0  0  0
  9 10  2  0  0  0  0
 10 11  1  0  0  0  0
 11 12  2  0  0  0  0
 12 13  1  0  0  0  0
 12 28  1  0  0  0  0
 13 14  1  0  0  0  0
 13 29  1  0  0  0  0
 14 15  1  0  0  0  0
 14 30  1  0  0  0  0
 14 31  1  0  0  0  0
 15 22  1  0  0  0  0
 15 16  1  0  0  0  0
 16 32  1  0  0  0  0
 17 18  1  0  0  0  0
 17 33  1  0  0  0  0
 17 34  1  0  0  0  0
 18 23  1  0  0  0  0
 18 19  1  0  0  0  0
 19 35  1  0  0  0  0
M  END
> <s_m_source_file>
AV-unprocessed.smi

> <i_m_source_file_index>
157

> <i_lp_mmshare_version>
43012

> <i_f3d_flags>
0

> <s_epik_input>
W09IXVtDSDJdW0NASF0xT1tDQEhdKFtDSDJdW0NAQEhdMVtPSF0pbihbY0hdbjIpYyhjMjMpTj1bQ0hdW05IXVtDSDJdW0NASF0zW09IXQ==

> <s_epik_cmdline>
J2VwaWtfcHl0aG9uJywgJy1waCcsICc3LjAnLCAnLXRuJywgJzgnLCAnLW1hJywgJzIwMCcsICctbWV0YWxfYmluZGluZycsICctaW1hZScsICc8aW5maWxlLm1hZT4nLCAnLW9tYWUnLCAnPG91dGZpbGUubWFlPic=

> <r_lp_tautomer_probability>
1

> <r_epik_Ionization_Penalty>
0.0357149

> <r_epik_Ionization_Penalty_Charging>
0.0355056

> <r_epik_Ionization_Penalty_Neutral>
0.000209255

> <r_epik_State_Penalty>
0.0296046

> <r_epik_Charging_Adjusted_Penalty>
0.0651102

> <i_epik_Tot_Q>
0

> <i_epik_Tot_abs_Q>
0

> <r_epik_Metal_State_Penalty>
3.03559e-05

> <b_epik_Metal_Only>
0

> <s_epik_Chemistry_Notes>
This compound has an imine and may undergo hydrolysis. This compound contains an acetal/aminal-like group ( X-CH(R)-Y where X, Y are N, S, or O) that may be acid/base labile, releasing an aldehyde.

> <s_lp_Force_Field>
OPLS_2005

> <r_lp_Energy>
43.9106

> <b_lp_Chiralities_Consistent>
1

> <s_lp_Variant>
AV-unprocessed.smi:157-14

> <Gold.Version>
5.8.1

> <Gold.Id.Protein>
6NUR|6NUR_protein|mol2

> <Gold.PLP.Fitness>
41.0093

> <Gold.PLP.PLP>
-31.3262

> <Gold.PLP.part.hbond>
-4.2603

> <Gold.PLP.part.metal>
0.0000

> <Gold.PLP.part.buried>
-3.8167

> <Gold.PLP.part.nonpolar>
-24.0798

> <Gold.PLP.part.repulsive>
0.0870

> <Gold.PLP.ligand.clash>
0.6962

> <Gold.PLP.ligand.torsion>
0.5837

> <Gold.PLP.Chemscore.Hbond>
3.8440

> <Gold.PLP.Chemscore.CHOScore>
0.0000

> <Gold.PLP.Chemscore.Metal>
0.0000

> <Gold.Chemscore.Hbonds>
donor molecule, donor type, donor heavy atom, donor atom, acceptor molecule, acceptor atom, score
      L1  H    13    29       P1  8028  1.00
      P1  H  6896  6908       L1    19  1.00
      P1  H  7997  8009       L1     4  0.09
      P1  H 10752 10765       L1     1  0.99

> <Gold.PLP.Chemscore.Internal.Correction>
0.0148

> <Gold.Rescore>
     Score         DG    S(hbond)    S(metal)    S(lipo)     H(rot)  DE(clash)    DE(int)     intcor
      7.50     -10.87       2.68        0.00      49.10       3.64       0.45       2.91       ----

> <Gold.Chemscore.Fitness>
7.5050

> <Gold.Chemscore.DG>
-10.8698

> <Gold.Chemscore.ZeroCoef>
-5.4800

> <Gold.Chemscore.Hbond>
2.6809

> <Gold.Chemscore.Metal>
0.0000

> <Gold.Chemscore.Lipo>
49.0969

> <Gold.Chemscore.Internal_Hbond>
0.0000

> <Gold.Chemscore.DEClash>
0.4538

> <Gold.Chemscore.DEInternal>
2.9110

> <Gold.Chemscore.Rot>
3.6362

> <Gold.Chemscore.Internal.Correction>
   9.000000E+99

> <Gold.Chemscore.Hbonds>
donor molecule, donor type, donor heavy atom, donor atom, acceptor molecule, acceptor atom, score
      L1  H    13    29       P1  8028  0.45
      P1  H  6896  6908       L1    19  0.45
      P1  H 10752 10765       L1     1  0.41

> <Gold.Chemscore.Hbond.Weighted>
-8.9542

> <Gold.Chemscore.Metal.Weighted>
-0.0000

> <Gold.Chemscore.Lipo.Weighted>
-5.7443

> <Gold.Chemscore.Internal_Hbond.Weighted>
0.0000

> <Gold.Chemscore.DEClash.Weighted>
0.4538

> <Gold.Chemscore.DEInternal.Weighted>
2.9110

> <Gold.Chemscore.Rot.Weighted>
9.3087

> <Gold.Chemscore.Internal.Correction.Weighted>
   9.000000E+99

> <Gold.Protein.RotatedTorsions>
[ 6907 6896 6895 6894 ] final  -95.01 input  -60.11 | X-H torsion
[ 7974 7965 7964 7962 ] final  147.00 input  175.53 | X-H torsion
[ 8008 7997 7996 7995 ] final  140.00 input   59.86 | X-H torsion
[ 10167 10162 10161 10158 ] final  -61.24 input  -65.29 | X-H torsion
[ 10718 10713 10712 10709 ] final  -66.05 input   66.30 | X-H torsion
[ 10763 10752 10751 10750 ] final -135.53 input  -60.55 | X-H torsion
[ 11005 11000 10999 10996 ] final  166.78 input  -57.11 | X-H torsion

> <Gold.Protein.ActiveResidues>
 VAL166  LYS551  ARG553  GLY616  TRP617  ASP618  TYR619  PRO620  LYS621  CYS622 
 ASP623  PHE694  ASN695  SER759  ASP760  ASP761  ALA762  ILE779  LEU786  VAL792 
 PHE793  MET794  SER795  GLU796  ALA797  LYS798  CYS799  TRP800  GLU811  SER814 

> <Gold.Protein.RotatedAtoms>
  150.6954  134.1724  159.4216 H   0  0  0  0  0  0  0  0  0  0  0  0  # atno 6907 bound_to 6896
  151.9701  135.0078  160.0561 H   0  0  0  0  0  0  0  0  0  0  0  0  # atno 6908 bound_to 6896
  152.1849  133.4698  159.5014 H   0  0  0  0  0  0  0  0  0  0  0  0  # atno 6909 bound_to 6896
  144.8626  139.5975  143.5924 H   0  0  0  0  0  0  0  0  0  0  0  0  # atno 7974 bound_to 7965
  156.2984  140.2353  156.4329 H   0  0  0  0  0  0  0  0  0  0  0  0  # atno 8008 bound_to 7997
  154.8254  140.0435  157.1460 H   0  0  0  0  0  0  0  0  0  0  0  0  # atno 8009 bound_to 7997
  154.9267  140.3011  155.5192 H   0  0  0  0  0  0  0  0  0  0  0  0  # atno 8010 bound_to 7997
  140.6019  143.2363  151.5910 H   0  0  0  0  0  0  0  0  0  0  0  0  # atno 10167 bound_to 10162
  156.0634  130.4256  150.1652 H   0  0  0  0  0  0  0  0  0  0  0  0  # atno 10718 bound_to 10713
  154.8701  135.3700  154.4913 H   0  0  0  0  0  0  0  0  0  0  0  0  # atno 10763 bound_to 10752
  153.5560  135.7024  153.5574 H   0  0  0  0  0  0  0  0  0  0  0  0  # atno 10764 bound_to 10752
  153.3672  135.4031  155.1725 H   0  0  0  0  0  0  0  0  0  0  0  0  # atno 10765 bound_to 10752
  140.2699  134.7835  157.3666 H   0  0  0  0  0  0  0  0  0  0  0  0  # atno 11005 bound_to 11000
  146.2872  139.7036  142.9187 LP  0  0  0  0  0  0  0  0  0  0  0  0  # atno 17320 bound_to 7965
  145.4283  141.0413  143.2925 LP  0  0  0  0  0  0  0  0  0  0  0  0  # atno 17321 bound_to 7965
  139.5297  144.2953  152.1118 LP  0  0  0  0  0  0  0  0  0  0  0  0  # atno 17342 bound_to 10162
  140.2135  144.4538  150.6374 LP  0  0  0  0  0  0  0  0  0  0  0  0  # atno 17343 bound_to 10162
  156.9716  130.9836  151.3457 LP  0  0  0  0  0  0  0  0  0  0  0  0  # atno 17370 bound_to 10713
  157.5660  130.8278  149.8328 LP  0  0  0  0  0  0  0  0  0  0  0  0  # atno 17371 bound_to 10713
  140.1383  134.5005  155.8051 LP  0  0  0  0  0  0  0  0  0  0  0  0  # atno 17394 bound_to 11000
  141.2179  133.6815  156.7164 LP  0  0  0  0  0  0  0  0  0  0  0  0  # atno 17395 bound_to 11000

$$$$
