AV-unprocessed.smi:1338|AV-procd|sdf|5501|dock9
  -GOLD-   22720 5 83D 1   1.00000     0.00000
 Structure written by MMmdl.
 39 40  0  0  0  0  0  0  0  0  2 V2000
  149.6985  134.7792  155.1130 C   0  0  0  0  0  0  0  0  0  0  0  0
  150.1313  136.2250  155.2328 C   0  0  0  0  0  0  0  0  0  0  0  0
  149.3363  137.0741  155.7629 N   0  0  0  0  0  0  0  0  0  0  0  0
  149.7358  138.4162  155.8809 C   0  0  0  0  0  0  0  0  0  0  0  0
  148.7281  139.3514  156.5268 C   0  0  0  0  0  0  0  0  0  0  0  0
  150.9575  138.8308  155.4374 C   0  0  0  0  0  0  0  0  0  0  0  0
  151.4415  140.2760  155.5487 C   0  0  0  0  0  0  0  0  0  0  0  0
  151.7139  140.7674  156.9713 C   0  0  0  0  0  0  0  0  0  0  0  0
  152.5234  140.1750  157.6844 O   0  0  0  0  0  0  0  0  0  0  0  0
  151.0324  141.8524  157.3712 N   0  0  0  0  0  0  0  0  0  0  0  0
  151.1487  142.4882  158.6794 C   0  0  0  0  0  0  0  0  0  0  0  0
  150.3507  143.8085  158.7160 C   0  0  0  0  0  0  0  0  0  0  0  0
  150.5256  144.5348  160.0595 C   0  0  0  0  0  0  0  0  0  0  0  0
  152.0100  144.7798  160.3718 C   0  0  0  0  0  0  0  0  0  0  0  0
  152.8060  143.4655  160.3437 C   0  0  0  0  0  0  0  0  0  0  0  0
  152.6346  142.7379  159.0003 C   0  0  0  0  0  0  0  0  0  0  0  0
  151.8418  137.8214  154.8273 C   0  0  0  0  0  0  0  0  0  0  0  0
  152.9500  138.1423  154.4000 O   0  0  0  0  0  0  0  0  0  0  0  0
  151.3838  136.5389  154.7559 N   0  5  0  0  0  0  0  0  0  0  0  0
  148.6417  134.6637  155.3575 H   0  0  0  0  0  0  0  0  0  0  0  0
  150.2782  134.1562  155.7946 H   0  0  0  0  0  0  0  0  0  0  0  0
  149.8542  134.4177  154.0960 H   0  0  0  0  0  0  0  0  0  0  0  0
  149.1501  139.8170  157.4172 H   0  0  0  0  0  0  0  0  0  0  0  0
  147.8278  138.8144  156.8276 H   0  0  0  0  0  0  0  0  0  0  0  0
  148.4312  140.1349  155.8297 H   0  0  0  0  0  0  0  0  0  0  0  0
  152.3469  140.3838  154.9511 H   0  0  0  0  0  0  0  0  0  0  0  0
  150.7298  140.9592  155.0845 H   0  0  0  0  0  0  0  0  0  0  0  0
  150.3908  142.2739  156.7155 H   0  0  0  0  0  0  0  0  0  0  0  0
  150.7487  141.8124  159.4380 H   0  0  0  0  0  0  0  0  0  0  0  0
  150.6810  144.4619  157.9072 H   0  0  0  0  0  0  0  0  0  0  0  0
  149.2915  143.6144  158.5427 H   0  0  0  0  0  0  0  0  0  0  0  0
  149.9876  145.4830  160.0417 H   0  0  0  0  0  0  0  0  0  0  0  0
  150.0774  143.9400  160.8564 H   0  0  0  0  0  0  0  0  0  0  0  0
  152.4273  145.4764  159.6434 H   0  0  0  0  0  0  0  0  0  0  0  0
  152.1113  145.2557  161.3475 H   0  0  0  0  0  0  0  0  0  0  0  0
  153.8622  143.6665  160.5252 H   0  0  0  0  0  0  0  0  0  0  0  0
  152.4707  142.8181  161.1550 H   0  0  0  0  0  0  0  0  0  0  0  0
  153.1757  141.7911  159.0243 H   0  0  0  0  0  0  0  0  0  0  0  0
  153.0898  143.3338  158.2078 H   0  0  0  0  0  0  0  0  0  0  0  0
  1  2  1  0  0  0  0
  1 20  1  0  0  0  0
  1 21  1  0  0  0  0
  1 22  1  0  0  0  0
  2 19  1  0  0  0  0
  2  3  2  0  0  0  0
  3  4  1  0  0  0  0
  4  5  1  0  0  0  0
  4  6  2  0  0  0  0
  5 23  1  0  0  0  0
  5 24  1  0  0  0  0
  5 25  1  0  0  0  0
  6  7  1  0  0  0  0
  6 17  1  0  0  0  0
  7  8  1  0  0  0  0
  7 26  1  0  0  0  0
  7 27  1  0  0  0  0
  8  9  2  0  0  0  0
  8 10  1  0  0  0  0
 10 11  1  0  0  0  0
 10 28  1  0  0  0  0
 11 16  1  0  0  0  0
 11 12  1  0  0  0  0
 11 29  1  0  0  0  0
 12 13  1  0  0  0  0
 12 30  1  0  0  0  0
 12 31  1  0  0  0  0
 13 14  1  0  0  0  0
 13 32  1  0  0  0  0
 13 33  1  0  0  0  0
 14 15  1  0  0  0  0
 14 34  1  0  0  0  0
 14 35  1  0  0  0  0
 15 16  1  0  0  0  0
 15 36  1  0  0  0  0
 15 37  1  0  0  0  0
 16 38  1  0  0  0  0
 16 39  1  0  0  0  0
 17 18  2  0  0  0  0
 17 19  1  0  0  0  0
M  CHG  1  19  -1
M  END
> <s_m_source_file>
AV-unprocessed.smi

> <i_m_source_file_index>
1338

> <i_lp_mmshare_version>
43012

> <i_f3d_flags>
0

> <s_epik_input>
W0NIM11jMW5jKFtDSDNdKWMoYyg9TylbbkhdMSlbQ0gyXUMoPU8pW05IXVtDSF0yW0NIMl1bQ0gyXVtDSDJdW0NIMl1bQ0gyXTI=

> <s_epik_cmdline>
J2VwaWtfcHl0aG9uJywgJy1waCcsICc3LjAnLCAnLXRuJywgJzgnLCAnLW1hJywgJzIwMCcsICctbWV0YWxfYmluZGluZycsICctaW1hZScsICc8aW5maWxlLm1hZT4nLCAnLW9tYWUnLCAnPG91dGZpbGUubWFlPic=

> <r_lp_tautomer_probability>
0.839158

> <r_epik_Ionization_Penalty>
6.66811

> <r_epik_Ionization_Penalty_Charging>
7.5907e-08

> <r_epik_Ionization_Penalty_Neutral>
6.66811

> <r_epik_State_Penalty>
4.51402

> <r_epik_Charging_Adjusted_Penalty>
4.51402

> <i_epik_Tot_Q>
-1

> <i_epik_Tot_abs_Q>
1

> <r_epik_Metal_State_Penalty>
0.85041

> <b_epik_Metal_Only>
1

> <s_lp_Force_Field>
OPLS_2005

> <r_lp_Energy>
13.4348

> <b_lp_Chiralities_Consistent>
1

> <s_lp_Variant>
AV-unprocessed.smi:1338-3

> <Gold.Version>
5.8.1

> <Gold.Id.Protein>
6NUR|6NUR_protein|mol2

> <Gold.PLP.Fitness>
42.4153

> <Gold.PLP.PLP>
-33.7256

> <Gold.PLP.part.hbond>
-2.9140

> <Gold.PLP.part.metal>
0.0000

> <Gold.PLP.part.buried>
-4.1949

> <Gold.PLP.part.nonpolar>
-26.7985

> <Gold.PLP.part.repulsive>
0.3042

> <Gold.PLP.ligand.clash>
0.0000

> <Gold.PLP.ligand.torsion>
0.1439

> <Gold.PLP.Chemscore.Hbond>
2.9913

> <Gold.PLP.Chemscore.CHOScore>
0.0000

> <Gold.PLP.Chemscore.Metal>
0.0000

> <Gold.Chemscore.Hbonds>
donor molecule, donor type, donor heavy atom, donor atom, acceptor molecule, acceptor atom, score
      P1  H  7997  8009       L1     9  0.81
      P1  H 10752 10764       L1    19  2.00

> <Gold.PLP.Chemscore.Internal.Correction>
0.0037

> <Gold.Rescore>
     Score         DG    S(hbond)    S(metal)    S(lipo)     H(rot)  DE(clash)    DE(int)     intcor
     16.03     -17.48       1.81        0.00      82.91       1.46       0.03       1.41       ----

> <Gold.Chemscore.Fitness>
16.0284

> <Gold.Chemscore.DG>
-17.4757

> <Gold.Chemscore.ZeroCoef>
-5.4800

> <Gold.Chemscore.Hbond>
1.8057

> <Gold.Chemscore.Metal>
0.0000

> <Gold.Chemscore.Lipo>
82.9053

> <Gold.Chemscore.Internal_Hbond>
0.0000

> <Gold.Chemscore.DEClash>
0.0324

> <Gold.Chemscore.DEInternal>
1.4149

> <Gold.Chemscore.Rot>
1.4591

> <Gold.Chemscore.Internal.Correction>
   9.000000E+99

> <Gold.Chemscore.Hbonds>
donor molecule, donor type, donor heavy atom, donor atom, acceptor molecule, acceptor atom, score
      P1  H  7997  8009       L1     9  0.64
      P1  H 10752 10764       L1    19  0.30

> <Gold.Chemscore.Hbond.Weighted>
-6.0311

> <Gold.Chemscore.Metal.Weighted>
-0.0000

> <Gold.Chemscore.Lipo.Weighted>
-9.6999

> <Gold.Chemscore.Internal_Hbond.Weighted>
0.0000

> <Gold.Chemscore.DEClash.Weighted>
0.0324

> <Gold.Chemscore.DEInternal.Weighted>
1.4149

> <Gold.Chemscore.Rot.Weighted>
3.7353

> <Gold.Chemscore.Internal.Correction.Weighted>
   9.000000E+99

> <Gold.Protein.RotatedTorsions>
[ 6907 6896 6895 6894 ] final    2.90 input  -60.11 | X-H torsion
[ 7974 7965 7964 7962 ] final  100.73 input  175.53 | X-H torsion
[ 8008 7997 7996 7995 ] final  171.38 input   59.86 | X-H torsion
[ 10167 10162 10161 10158 ] final -152.90 input  -65.29 | X-H torsion
[ 10718 10713 10712 10709 ] final  175.44 input   66.30 | X-H torsion
[ 10763 10752 10751 10750 ] final  -73.02 input  -60.55 | X-H torsion
[ 11005 11000 10999 10996 ] final  -96.79 input  -57.11 | X-H torsion

> <Gold.Protein.ActiveResidues>
 VAL166  LYS551  ARG553  GLY616  TRP617  ASP618  TYR619  PRO620  LYS621  CYS622 
 ASP623  PHE694  ASN695  SER759  ASP760  ASP761  ALA762  ILE779  LEU786  VAL792 
 PHE793  MET794  SER795  GLU796  ALA797  LYS798  CYS799  TRP800  GLU811  SER814 

> <Gold.Protein.RotatedAtoms>
  151.6163  135.1036  160.0091 H   0  0  0  0  0  0  0  0  0  0  0  0  # atno 6907 bound_to 6896
  152.4181  133.7067  159.6466 H   0  0  0  0  0  0  0  0  0  0  0  0  # atno 6908 bound_to 6896
  150.8069  133.8420  159.3222 H   0  0  0  0  0  0  0  0  0  0  0  0  # atno 6909 bound_to 6896
  145.3817  139.2378  143.3400 H   0  0  0  0  0  0  0  0  0  0  0  0  # atno 7974 bound_to 7965
  156.1277  140.1513  156.9112 H   0  0  0  0  0  0  0  0  0  0  0  0  # atno 8008 bound_to 7997
  154.4884  140.0858  156.7580 H   0  0  0  0  0  0  0  0  0  0  0  0  # atno 8009 bound_to 7997
  155.4314  140.3427  155.4282 H   0  0  0  0  0  0  0  0  0  0  0  0  # atno 8010 bound_to 7997
  139.7142  143.9060  152.2480 H   0  0  0  0  0  0  0  0  0  0  0  0  # atno 10167 bound_to 10162
  156.9348  130.9982  151.2980 H   0  0  0  0  0  0  0  0  0  0  0  0  # atno 10718 bound_to 10713
  154.4537  135.5911  153.6209 H   0  0  0  0  0  0  0  0  0  0  0  0  # atno 10763 bound_to 10752
  152.9816  135.6027  154.3572 H   0  0  0  0  0  0  0  0  0  0  0  0  # atno 10764 bound_to 10752
  154.3436  135.2841  155.2388 H   0  0  0  0  0  0  0  0  0  0  0  0  # atno 10765 bound_to 10752
  141.1400  133.8123  157.0618 H   0  0  0  0  0  0  0  0  0  0  0  0  # atno 11005 bound_to 11000
  146.2839  140.4486  142.8765 LP  0  0  0  0  0  0  0  0  0  0  0  0  # atno 17320 bound_to 7965
  144.8503  140.6991  143.6173 LP  0  0  0  0  0  0  0  0  0  0  0  0  # atno 17321 bound_to 7965
  139.8937  144.6951  150.8741 LP  0  0  0  0  0  0  0  0  0  0  0  0  # atno 17342 bound_to 10162
  140.7740  143.3566  151.1909 LP  0  0  0  0  0  0  0  0  0  0  0  0  # atno 17343 bound_to 10162
  157.5824  130.8385  149.8541 LP  0  0  0  0  0  0  0  0  0  0  0  0  # atno 17370 bound_to 10713
  156.0431  130.3734  150.1385 LP  0  0  0  0  0  0  0  0  0  0  0  0  # atno 17371 bound_to 10713
  140.0566  134.9777  157.1231 LP  0  0  0  0  0  0  0  0  0  0  0  0  # atno 17394 bound_to 11000
  140.3910  134.2184  155.7166 LP  0  0  0  0  0  0  0  0  0  0  0  0  # atno 17395 bound_to 11000

$$$$
