AV-unprocessed.smi:3156|AV-procd|sdf|12036|dock9
  -GOLD-   2272017453D 1   1.00000     0.00000
 Structure written by MMmdl.
 41 42  0  0  0  0  0  0  0  0  2 V2000
  147.5640  142.1251  154.1736 C   0  0  0  0  0  0  0  0  0  0  0  0
  148.7601  141.3792  154.7875 C   0  0  1  0  0  0  0  0  0  0  0  0
  148.9394  141.8439  156.1828 N   0  3  0  0  0  0  0  0  0  0  0  0
  150.1184  141.2894  156.8801 C   0  0  0  0  0  0  0  0  0  0  0  0
  150.7342  142.3139  157.8439 C   0  0  1  0  0  0  0  0  0  0  0  0
  151.8219  141.6934  158.7466 C   0  0  0  0  0  0  0  0  0  0  0  0
  152.4888  142.7700  159.6097 C   0  0  0  0  0  0  0  0  0  0  0  0
  152.9900  143.9086  158.7163 C   0  0  0  0  0  0  0  0  0  0  0  0
  151.8537  144.4198  157.8174 C   0  0  0  0  0  0  0  0  0  0  0  0
  151.3199  143.3440  157.0514 O   0  0  0  0  0  0  0  0  0  0  0  0
  148.5889  139.8357  154.7520 C   0  0  1  0  0  0  0  0  0  0  0  0
  147.6872  139.3474  153.6015 C   0  0  0  0  0  0  0  0  0  0  0  0
  149.8784  139.1554  154.6942 N   0  0  0  0  0  0  0  0  0  0  0  0
  150.1266  137.7988  154.6404 C   0  0  0  0  0  0  0  0  0  0  0  0
  151.4814  137.6315  154.6186 C   0  0  0  0  0  0  0  0  0  0  0  0
  151.9874  138.9603  154.6596 C   0  0  0  0  0  0  0  0  0  0  0  0
  151.0271  139.8688  154.7078 N   0  0  0  0  0  0  0  0  0  0  0  0
  147.4555  141.9087  153.1112 H   0  0  0  0  0  0  0  0  0  0  0  0
  147.6894  143.2046  154.2642 H   0  0  0  0  0  0  0  0  0  0  0  0
  146.6301  141.8564  154.6682 H   0  0  0  0  0  0  0  0  0  0  0  0
  149.6429  141.6490  154.2047 H   0  0  0  0  0  0  0  0  0  0  0  0
  149.0173  142.8509  156.1804 H   0  0  0  0  0  0  0  0  0  0  0  0
  149.8462  140.3870  157.4283 H   0  0  0  0  0  0  0  0  0  0  0  0
  150.8528  140.9952  156.1291 H   0  0  0  0  0  0  0  0  0  0  0  0
  149.9425  142.7501  158.4561 H   0  0  0  0  0  0  0  0  0  0  0  0
  151.3960  140.9201  159.3863 H   0  0  0  0  0  0  0  0  0  0  0  0
  152.5773  141.2046  158.1295 H   0  0  0  0  0  0  0  0  0  0  0  0
  151.7721  143.1588  160.3343 H   0  0  0  0  0  0  0  0  0  0  0  0
  153.3136  142.3435  160.1814 H   0  0  0  0  0  0  0  0  0  0  0  0
  153.3857  144.7217  159.3256 H   0  0  0  0  0  0  0  0  0  0  0  0
  153.8134  143.5531  158.0954 H   0  0  0  0  0  0  0  0  0  0  0  0
  151.0654  144.8837  158.4121 H   0  0  0  0  0  0  0  0  0  0  0  0
  152.2302  145.1834  157.1366 H   0  0  0  0  0  0  0  0  0  0  0  0
  148.1146  139.5287  155.6854 H   0  0  0  0  0  0  0  0  0  0  0  0
  146.6599  139.6902  153.7203 H   0  0  0  0  0  0  0  0  0  0  0  0
  147.6555  138.2578  153.5676 H   0  0  0  0  0  0  0  0  0  0  0  0
  148.0465  139.6977  152.6334 H   0  0  0  0  0  0  0  0  0  0  0  0
  149.3280  137.0716  154.6255 H   0  0  0  0  0  0  0  0  0  0  0  0
  152.0286  136.7013  154.5775 H   0  0  0  0  0  0  0  0  0  0  0  0
  153.0161  139.2895  154.6580 H   0  0  0  0  0  0  0  0  0  0  0  0
  148.1126  141.5882  156.7034 H   0  0  0  0  0  0  0  0  0  0  0  0
  1  2  1  0  0  0  0
  1 18  1  0  0  0  0
  1 19  1  0  0  0  0
  1 20  1  0  0  0  0
  2  3  1  0  0  0  0
  2 11  1  0  0  0  0
  2 21  1  0  0  0  0
  3  4  1  0  0  0  0
  3 22  1  0  0  0  0
  3 41  1  0  0  0  0
  4  5  1  0  0  0  0
  4 23  1  0  0  0  0
  4 24  1  0  0  0  0
  5 10  1  0  0  0  0
  5  6  1  0  0  0  0
  5 25  1  0  0  0  0
  6  7  1  0  0  0  0
  6 26  1  0  0  0  0
  6 27  1  0  0  0  0
  7  8  1  0  0  0  0
  7 28  1  0  0  0  0
  7 29  1  0  0  0  0
  8  9  1  0  0  0  0
  8 30  1  0  0  0  0
  8 31  1  0  0  0  0
  9 10  1  0  0  0  0
  9 32  1  0  0  0  0
  9 33  1  0  0  0  0
 11 12  1  0  0  0  0
 11 13  1  0  0  0  0
 11 34  1  0  0  0  0
 12 35  1  0  0  0  0
 12 36  1  0  0  0  0
 12 37  1  0  0  0  0
 13 17  1  0  0  0  0
 13 14  1  0  0  0  0
 14 15  2  0  0  0  0
 14 38  1  0  0  0  0
 15 16  1  0  0  0  0
 15 39  1  0  0  0  0
 16 17  2  0  0  0  0
 16 40  1  0  0  0  0
M  CHG  1   3   1
M  END
> <s_m_source_file>
AV-unprocessed.smi

> <i_m_source_file_index>
3156

> <i_lp_mmshare_version>
43012

> <i_f3d_flags>
0

> <s_epik_input>
bjFbY0hdW2NIXVtjSF1uMVtDQEBIXShbQ0gzXSlbQ0BIXShbQ0gzXSlbTkhdW0NIMl1bQ0BASF0yW0NIMl1bQ0gyXVtDSDJdW0NIMl1PMg==

> <s_epik_cmdline>
J2VwaWtfcHl0aG9uJywgJy1waCcsICc3LjAnLCAnLXRuJywgJzgnLCAnLW1hJywgJzIwMCcsICctbWV0YWxfYmluZGluZycsICctaW1hZScsICc8aW5maWxlLm1hZT4nLCAnLW9tYWUnLCAnPG91dGZpbGUubWFlPic=

> <r_lp_tautomer_probability>
1

> <r_epik_Ionization_Penalty>
0.00658015

> <r_epik_Ionization_Penalty_Charging>
0.00656881

> <r_epik_Ionization_Penalty_Neutral>
1.13431e-05

> <r_epik_State_Penalty>
0.0048654

> <r_epik_Charging_Adjusted_Penalty>
0.0114342

> <i_epik_Tot_Q>
1

> <i_epik_Tot_abs_Q>
1

> <r_epik_Metal_State_Penalty>
-0

> <b_epik_Metal_Only>
0

> <s_lp_Force_Field>
OPLS_2005

> <r_lp_Energy>
18.5215

> <b_lp_Chiralities_Consistent>
1

> <s_lp_Variant>
AV-unprocessed.smi:3156-8

> <Gold.Version>
5.8.1

> <Gold.Id.Protein>
6NUR|6NUR_protein|mol2

> <Gold.PLP.Fitness>
47.7643

> <Gold.PLP.PLP>
-40.1889

> <Gold.PLP.part.hbond>
-2.0000

> <Gold.PLP.part.metal>
0.0000

> <Gold.PLP.part.buried>
-2.2080

> <Gold.PLP.part.nonpolar>
-36.4795

> <Gold.PLP.part.repulsive>
0.2624

> <Gold.PLP.ligand.clash>
0.0000

> <Gold.PLP.ligand.torsion>
1.0794

> <Gold.PLP.Chemscore.Hbond>
3.0000

> <Gold.PLP.Chemscore.CHOScore>
0.2149

> <Gold.PLP.Chemscore.Metal>
0.0000

> <Gold.Chemscore.Hbonds>
donor molecule, donor type, donor heavy atom, donor atom, acceptor molecule, acceptor atom, score
      L1  H     3    22       P1  8028  2.00
      P1  H  7989  7998       L1    17  0.85
      L1  C    14    38       P1  7948  0.05

> <Gold.PLP.Chemscore.Internal.Correction>
0.0896

> <Gold.Rescore>
     Score         DG    S(hbond)    S(metal)    S(lipo)     H(rot)  DE(clash)    DE(int)     intcor
     15.92     -19.28       1.65        0.00     105.66       1.59       0.42       2.93       ----

> <Gold.Chemscore.Fitness>
15.9202

> <Gold.Chemscore.DG>
-19.2753

> <Gold.Chemscore.ZeroCoef>
-5.4800

> <Gold.Chemscore.Hbond>
1.6508

> <Gold.Chemscore.Metal>
0.0000

> <Gold.Chemscore.Lipo>
105.6572

> <Gold.Chemscore.Internal_Hbond>
0.0000

> <Gold.Chemscore.DEClash>
0.4227

> <Gold.Chemscore.DEInternal>
2.9324

> <Gold.Chemscore.Rot>
1.5938

> <Gold.Chemscore.Internal.Correction>
   9.000000E+99

> <Gold.Chemscore.Hbonds>
donor molecule, donor type, donor heavy atom, donor atom, acceptor molecule, acceptor atom, score
      L1  H     3    22       P1  8028  0.99
      P1  H  7989  7998       L1    17  0.15

> <Gold.Chemscore.Hbond.Weighted>
-5.5136

> <Gold.Chemscore.Metal.Weighted>
-0.0000

> <Gold.Chemscore.Lipo.Weighted>
-12.3619

> <Gold.Chemscore.Internal_Hbond.Weighted>
0.0000

> <Gold.Chemscore.DEClash.Weighted>
0.4227

> <Gold.Chemscore.DEInternal.Weighted>
2.9324

> <Gold.Chemscore.Rot.Weighted>
4.0802

> <Gold.Chemscore.Internal.Correction.Weighted>
   9.000000E+99

> <Gold.Protein.RotatedTorsions>
[ 6907 6896 6895 6894 ] final -128.78 input  -60.11 | X-H torsion
[ 7974 7965 7964 7962 ] final  -19.72 input  175.53 | X-H torsion
[ 8008 7997 7996 7995 ] final  -99.13 input   59.86 | X-H torsion
[ 10167 10162 10161 10158 ] final   50.17 input  -65.29 | X-H torsion
[ 10718 10713 10712 10709 ] final   24.24 input   66.30 | X-H torsion
[ 10763 10752 10751 10750 ] final -174.31 input  -60.55 | X-H torsion
[ 11005 11000 10999 10996 ] final   25.96 input  -57.11 | X-H torsion

> <Gold.Protein.ActiveResidues>
 VAL166  LYS551  ARG553  GLY616  TRP617  ASP618  TYR619  PRO620  LYS621  CYS622 
 ASP623  PHE694  ASN695  SER759  ASP760  ASP761  ALA762  ILE779  LEU786  VAL792 
 PHE793  MET794  SER795  GLU796  ALA797  LYS798  CYS799  TRP800  GLU811  SER814 

> <Gold.Protein.RotatedAtoms>
  150.9216  133.6874  159.2830 H   0  0  0  0  0  0  0  0  0  0  0  0  # atno 6907 bound_to 6896
  151.4326  135.1010  159.9656 H   0  0  0  0  0  0  0  0  0  0  0  0  # atno 6908 bound_to 6896
  152.4982  133.8642  159.7321 H   0  0  0  0  0  0  0  0  0  0  0  0  # atno 6909 bound_to 6896
  146.1826  140.4102  142.8488 H   0  0  0  0  0  0  0  0  0  0  0  0  # atno 7974 bound_to 7965
  154.8106  140.0450  157.1339 H   0  0  0  0  0  0  0  0  0  0  0  0  # atno 8008 bound_to 7997
  154.9373  140.3048  155.5118 H   0  0  0  0  0  0  0  0  0  0  0  0  # atno 8009 bound_to 7997
  156.2971  140.2312  156.4439 H   0  0  0  0  0  0  0  0  0  0  0  0  # atno 8010 bound_to 7997
  140.2752  144.3220  150.6279 H   0  0  0  0  0  0  0  0  0  0  0  0  # atno 10167 bound_to 10162
  157.1771  130.6786  149.6099 H   0  0  0  0  0  0  0  0  0  0  0  0  # atno 10718 bound_to 10713
  154.5977  135.2851  155.0569 H   0  0  0  0  0  0  0  0  0  0  0  0  # atno 10763 bound_to 10752
  154.1845  135.6451  153.5047 H   0  0  0  0  0  0  0  0  0  0  0  0  # atno 10764 bound_to 10752
  153.0145  135.5431  154.6685 H   0  0  0  0  0  0  0  0  0  0  0  0  # atno 10765 bound_to 10752
  140.3422  134.2321  155.7689 H   0  0  0  0  0  0  0  0  0  0  0  0  # atno 11005 bound_to 11000
  144.8341  140.6755  143.6271 LP  0  0  0  0  0  0  0  0  0  0  0  0  # atno 17320 bound_to 7965
  145.4031  139.1594  143.4166 LP  0  0  0  0  0  0  0  0  0  0  0  0  # atno 17321 bound_to 7965
  140.5857  143.2170  151.7346 LP  0  0  0  0  0  0  0  0  0  0  0  0  # atno 17342 bound_to 10162
  139.4978  144.4014  152.0177 LP  0  0  0  0  0  0  0  0  0  0  0  0  # atno 17343 bound_to 10162
  155.9729  130.4659  150.6270 LP  0  0  0  0  0  0  0  0  0  0  0  0  # atno 17370 bound_to 10713
  157.3988  131.0807  151.1328 LP  0  0  0  0  0  0  0  0  0  0  0  0  # atno 17371 bound_to 10713
  141.2035  133.7909  157.0334 LP  0  0  0  0  0  0  0  0  0  0  0  0  # atno 17394 bound_to 11000
  140.0772  134.9669  157.1565 LP  0  0  0  0  0  0  0  0  0  0  0  0  # atno 17395 bound_to 11000

$$$$
