AV-unprocessed.smi:1881|AV-procd|sdf|7640|dock3
  -GOLD-   22720 9363D 1   1.00000     0.00000
 Structure written by MMmdl.
 51 52  0  0  0  0  0  0  0  0  2 V2000
  145.4409  130.3414  151.1174 C   0  0  0  0  0  0  0  0  0  0  0  0
  145.1567  131.8283  150.7860 C   0  0  0  0  0  0  0  0  0  0  0  0
  145.8270  132.0880  149.4096 C   0  0  0  0  0  0  0  0  0  0  0  0
  143.6508  132.1148  150.5837 C   0  0  0  0  0  0  0  0  0  0  0  0
  145.7742  132.7991  151.8456 C   0  0  0  0  0  0  0  0  0  0  0  0
  146.4237  132.2965  152.7657 O   0  0  0  0  0  0  0  0  0  0  0  0
  145.6183  134.1527  151.7902 N   0  0  0  0  0  0  0  0  0  0  0  0
  144.8777  134.9503  150.8033 C   0  0  0  0  0  0  0  0  0  0  0  0
  143.6075  135.5163  151.4644 C   0  0  0  0  0  0  0  0  0  0  0  0
  143.9611  136.3665  152.7067 C   0  0  0  0  0  0  0  0  0  0  0  0
  142.6913  136.8001  153.4493 C   0  0  0  0  0  0  0  0  0  0  0  0
  141.9720  135.9604  153.9917 O   0  0  0  0  0  0  0  0  0  0  0  0
  142.4135  138.1139  153.4447 N   0  0  0  0  0  0  0  0  0  0  0  0
  141.2471  138.7373  154.0656 C   0  0  0  0  0  0  0  0  0  0  0  0
  140.1836  139.1801  153.0400 C   0  0  0  0  0  0  0  0  0  0  0  0
  138.7541  139.0578  153.5402 C   0  0  0  0  0  0  0  0  0  0  0  0
  138.1878  137.8113  153.8837 C   0  0  0  0  0  0  0  0  0  0  0  0
  136.8435  137.7579  154.3068 C   0  0  0  0  0  0  0  0  0  0  0  0
  136.0937  138.9501  154.3771 C   0  0  0  0  0  0  0  0  0  0  0  0
  136.7087  140.1680  154.0228 C   0  0  0  0  0  0  0  0  0  0  0  0
  137.9994  140.1781  153.6238 N   0  3  0  0  0  0  0  0  0  0  0  0
  144.9235  135.5988  153.6421 C   0  0  0  0  0  0  0  0  0  0  0  0
  146.1217  135.0336  152.8582 C   0  0  0  0  0  0  0  0  0  0  0  0
  145.4013  129.7214  150.2212 H   0  0  0  0  0  0  0  0  0  0  0  0
  144.7180  129.9015  151.7999 H   0  0  0  0  0  0  0  0  0  0  0  0
  146.4343  130.2082  151.5480 H   0  0  0  0  0  0  0  0  0  0  0  0
  146.9030  131.9089  149.4425 H   0  0  0  0  0  0  0  0  0  0  0  0
  145.6708  133.1113  149.0639 H   0  0  0  0  0  0  0  0  0  0  0  0
  145.4196  131.4350  148.6366 H   0  0  0  0  0  0  0  0  0  0  0  0
  143.2522  131.5301  149.7540 H   0  0  0  0  0  0  0  0  0  0  0  0
  143.4790  133.1658  150.3471 H   0  0  0  0  0  0  0  0  0  0  0  0
  143.0362  131.8802  151.4486 H   0  0  0  0  0  0  0  0  0  0  0  0
  145.5093  135.7722  150.4631 H   0  0  0  0  0  0  0  0  0  0  0  0
  144.6201  134.4201  149.8964 H   0  0  0  0  0  0  0  0  0  0  0  0
  143.0579  136.1216  150.7424 H   0  0  0  0  0  0  0  0  0  0  0  0
  142.9465  134.6937  151.7417 H   0  0  0  0  0  0  0  0  0  0  0  0
  144.4824  137.2605  152.3593 H   0  0  0  0  0  0  0  0  0  0  0  0
  143.0642  138.7307  152.9796 H   0  0  0  0  0  0  0  0  0  0  0  0
  140.8016  138.0672  154.8030 H   0  0  0  0  0  0  0  0  0  0  0  0
  141.5940  139.6079  154.6225 H   0  0  0  0  0  0  0  0  0  0  0  0
  140.3642  140.2175  152.7564 H   0  0  0  0  0  0  0  0  0  0  0  0
  140.2907  138.5964  152.1245 H   0  0  0  0  0  0  0  0  0  0  0  0
  138.7720  136.9051  153.8149 H   0  0  0  0  0  0  0  0  0  0  0  0
  136.3915  136.8128  154.5701 H   0  0  0  0  0  0  0  0  0  0  0  0
  135.0618  138.9295  154.6956 H   0  0  0  0  0  0  0  0  0  0  0  0
  136.2101  141.1261  154.0427 H   0  0  0  0  0  0  0  0  0  0  0  0
  145.2807  136.2584  154.4339 H   0  0  0  0  0  0  0  0  0  0  0  0
  144.4029  134.7766  154.1364 H   0  0  0  0  0  0  0  0  0  0  0  0
  146.8060  134.5386  153.5478 H   0  0  0  0  0  0  0  0  0  0  0  0
  146.7009  135.8480  152.4202 H   0  0  0  0  0  0  0  0  0  0  0  0
  138.4220  141.0697  153.3647 H   0  0  0  0  0  0  0  0  0  0  0  0
  1  2  1  0  0  0  0
  1 24  1  0  0  0  0
  1 25  1  0  0  0  0
  1 26  1  0  0  0  0
  2  3  1  0  0  0  0
  2  4  1  0  0  0  0
  2  5  1  0  0  0  0
  3 27  1  0  0  0  0
  3 28  1  0  0  0  0
  3 29  1  0  0  0  0
  4 30  1  0  0  0  0
  4 31  1  0  0  0  0
  4 32  1  0  0  0  0
  5  6  2  0  0  0  0
  5  7  1  0  0  0  0
  7 23  1  0  0  0  0
  7  8  1  0  0  0  0
  8  9  1  0  0  0  0
  8 33  1  0  0  0  0
  8 34  1  0  0  0  0
  9 10  1  0  0  0  0
  9 35  1  0  0  0  0
  9 36  1  0  0  0  0
 10 11  1  0  0  0  0
 10 22  1  0  0  0  0
 10 37  1  0  0  0  0
 11 12  2  0  0  0  0
 11 13  1  0  0  0  0
 13 14  1  0  0  0  0
 13 38  1  0  0  0  0
 14 15  1  0  0  0  0
 14 39  1  0  0  0  0
 14 40  1  0  0  0  0
 15 16  1  0  0  0  0
 15 41  1  0  0  0  0
 15 42  1  0  0  0  0
 16 21  1  0  0  0  0
 16 17  2  0  0  0  0
 17 18  1  0  0  0  0
 17 43  1  0  0  0  0
 18 19  2  0  0  0  0
 18 44  1  0  0  0  0
 19 20  1  0  0  0  0
 19 45  1  0  0  0  0
 20 21  2  0  0  0  0
 20 46  1  0  0  0  0
 21 51  1  0  0  0  0
 22 23  1  0  0  0  0
 22 47  1  0  0  0  0
 22 48  1  0  0  0  0
 23 49  1  0  0  0  0
 23 50  1  0  0  0  0
M  CHG  1  21   1
M  END
> <s_m_source_file>
AV-unprocessed.smi

> <i_m_source_file_index>
1881

> <i_lp_mmshare_version>
43012

> <i_f3d_flags>
0

> <s_epik_input>
W0NIM11DKFtDSDNdKShbQ0gzXSlDKD1PKU4xW0NIMl1bQ0gyXVtDSF0oW0NIMl1bQ0gyXTEpQyg9TylbTkhdW0NIMl1bQ0gyXWMyW2NIXVtjSF1bY0hdW2NIXW4y

> <s_epik_cmdline>
J2VwaWtfcHl0aG9uJywgJy1waCcsICc3LjAnLCAnLXRuJywgJzgnLCAnLW1hJywgJzIwMCcsICctbWV0YWxfYmluZGluZycsICctaW1hZScsICc8aW5maWxlLm1hZT4nLCAnLW9tYWUnLCAnPG91dGZpbGUubWFlPic=

> <r_epik_Ionization_Penalty>
1.84673

> <r_epik_Ionization_Penalty_Charging>
1.84673

> <r_epik_Ionization_Penalty_Neutral>
1.24553e-07

> <r_epik_State_Penalty>
1.9639

> <r_epik_Charging_Adjusted_Penalty>
3.81063

> <i_epik_Tot_Q>
1

> <i_epik_Tot_abs_Q>
1

> <r_epik_Metal_State_Penalty>
1.98977

> <b_epik_Metal_Only>
0

> <s_lp_Force_Field>
OPLS_2005

> <r_lp_Energy>
43.8057

> <b_lp_Chiralities_Consistent>
1

> <s_lp_Variant>
AV-unprocessed.smi:1881-2

> <Gold.Version>
5.8.1

> <Gold.Id.Protein>
6NUR|6NUR_protein|mol2

> <Gold.PLP.Fitness>
42.2612

> <Gold.PLP.PLP>
-40.1263

> <Gold.PLP.part.hbond>
-1.0000

> <Gold.PLP.part.metal>
0.0000

> <Gold.PLP.part.buried>
-3.0620

> <Gold.PLP.part.nonpolar>
-37.3444

> <Gold.PLP.part.repulsive>
0.2231

> <Gold.PLP.ligand.clash>
0.0000

> <Gold.PLP.ligand.torsion>
0.4825

> <Gold.PLP.Chemscore.Hbond>
1.0000

> <Gold.PLP.Chemscore.CHOScore>
0.0000

> <Gold.PLP.Chemscore.Metal>
0.0000

> <Gold.Chemscore.Hbonds>
donor molecule, donor type, donor heavy atom, donor atom, acceptor molecule, acceptor atom, score
      L1  H    13    38       P1 10175  1.00

> <Gold.PLP.Chemscore.Internal.Correction>
0.0999

> <Gold.Rescore>
     Score         DG    S(hbond)    S(metal)    S(lipo)     H(rot)  DE(clash)    DE(int)     intcor
     15.76     -17.73       0.98        0.00     112.98       1.65       1.54       0.43       ----

> <Gold.Chemscore.Fitness>
15.7574

> <Gold.Chemscore.DG>
-17.7272

> <Gold.Chemscore.ZeroCoef>
-5.4800

> <Gold.Chemscore.Hbond>
0.9769

> <Gold.Chemscore.Metal>
0.0000

> <Gold.Chemscore.Lipo>
112.9776

> <Gold.Chemscore.Internal_Hbond>
0.0000

> <Gold.Chemscore.DEClash>
1.5444

> <Gold.Chemscore.DEInternal>
0.4254

> <Gold.Chemscore.Rot>
1.6540

> <Gold.Chemscore.Internal.Correction>
   9.000000E+99

> <Gold.Chemscore.Hbonds>
donor molecule, donor type, donor heavy atom, donor atom, acceptor molecule, acceptor atom, score
      L1  H    13    38       P1 10175  0.95

> <Gold.Chemscore.Hbond.Weighted>
-3.2630

> <Gold.Chemscore.Metal.Weighted>
-0.0000

> <Gold.Chemscore.Lipo.Weighted>
-13.2184

> <Gold.Chemscore.Internal_Hbond.Weighted>
0.0000

> <Gold.Chemscore.DEClash.Weighted>
1.5444

> <Gold.Chemscore.DEInternal.Weighted>
0.4254

> <Gold.Chemscore.Rot.Weighted>
4.2342

> <Gold.Chemscore.Internal.Correction.Weighted>
   9.000000E+99

> <Gold.Protein.RotatedTorsions>
[ 6907 6896 6895 6894 ] final  -53.61 input  -60.11 | X-H torsion
[ 7974 7965 7964 7962 ] final  172.16 input  175.53 | X-H torsion
[ 8008 7997 7996 7995 ] final   31.20 input   59.86 | X-H torsion
[ 10167 10162 10161 10158 ] final  -77.70 input  -65.29 | X-H torsion
[ 10718 10713 10712 10709 ] final -171.92 input   66.30 | X-H torsion
[ 10763 10752 10751 10750 ] final  137.03 input  -60.55 | X-H torsion
[ 11005 11000 10999 10996 ] final -122.48 input  -57.11 | X-H torsion

> <Gold.Protein.ActiveResidues>
 VAL166  LYS551  ARG553  GLY616  TRP617  ASP618  TYR619  PRO620  LYS621  CYS622 
 ASP623  PHE694  ASN695  SER759  ASP760  ASP761  ALA762  ILE779  LEU786  VAL792 
 PHE793  MET794  SER795  GLU796  ALA797  LYS798  CYS799  TRP800  GLU811  SER814 

> <Gold.Protein.RotatedAtoms>
  150.8411  134.7703  159.6932 H   0  0  0  0  0  0  0  0  0  0  0  0  # atno 6907 bound_to 6896
  152.4498  134.5414  159.9850 H   0  0  0  0  0  0  0  0  0  0  0  0  # atno 6908 bound_to 6896
  151.5554  133.3373  159.2996 H   0  0  0  0  0  0  0  0  0  0  0  0  # atno 6909 bound_to 6896
  144.7275  139.9457  143.6430 H   0  0  0  0  0  0  0  0  0  0  0  0  # atno 7974 bound_to 7965
  155.1026  140.3231  155.4543 H   0  0  0  0  0  0  0  0  0  0  0  0  # atno 8008 bound_to 7997
  156.2713  140.2058  156.6099 H   0  0  0  0  0  0  0  0  0  0  0  0  # atno 8009 bound_to 7997
  154.6817  140.0525  157.0260 H   0  0  0  0  0  0  0  0  0  0  0  0  # atno 8010 bound_to 7997
  140.4747  143.2417  151.8151 H   0  0  0  0  0  0  0  0  0  0  0  0  # atno 10167 bound_to 10162
  156.7479  130.9367  151.3113 H   0  0  0  0  0  0  0  0  0  0  0  0  # atno 10718 bound_to 10713
  153.8662  135.3061  155.3440 H   0  0  0  0  0  0  0  0  0  0  0  0  # atno 10763 bound_to 10752
  154.7826  135.4827  153.9880 H   0  0  0  0  0  0  0  0  0  0  0  0  # atno 10764 bound_to 10752
  153.1432  135.6828  153.9089 H   0  0  0  0  0  0  0  0  0  0  0  0  # atno 10765 bound_to 10752
  140.9992  134.0428  157.3559 H   0  0  0  0  0  0  0  0  0  0  0  0  # atno 11005 bound_to 11000
  146.0750  139.3738  143.0499 LP  0  0  0  0  0  0  0  0  0  0  0  0  # atno 17320 bound_to 7965
  145.7917  140.9811  143.1045 LP  0  0  0  0  0  0  0  0  0  0  0  0  # atno 17321 bound_to 7965
  139.4824  144.4848  151.9261 LP  0  0  0  0  0  0  0  0  0  0  0  0  # atno 17342 bound_to 10162
  140.3933  144.2588  150.5898 LP  0  0  0  0  0  0  0  0  0  0  0  0  # atno 17343 bound_to 10162
  157.6790  130.9121  150.0220 LP  0  0  0  0  0  0  0  0  0  0  0  0  # atno 17370 bound_to 10713
  156.1421  130.3642  149.9567 LP  0  0  0  0  0  0  0  0  0  0  0  0  # atno 17371 bound_to 10713
  139.9030  135.0171  156.7357 LP  0  0  0  0  0  0  0  0  0  0  0  0  # atno 17394 bound_to 11000
  140.6917  133.9384  155.7970 LP  0  0  0  0  0  0  0  0  0  0  0  0  # atno 17395 bound_to 11000

$$$$
