AV-unprocessed.smi:198|AV-procd|sdf|1552|dock10
  -GOLD-   2262019423D 1   1.00000     0.00000
 Structure written by MMmdl.
 59 63  0  0  0  0  0  0  0  0  2 V2000
  152.1568  145.8306  160.1974 C   0  0  0  0  0  0  0  0  0  0  0  0
  151.9377  144.4106  159.8482 N   0  3  1  0  0  0  0  0  0  0  0  0
  151.7124  144.2135  158.3956 C   0  0  0  0  0  0  0  0  0  0  0  0
  151.3771  142.7467  158.0800 C   0  0  0  0  0  0  0  0  0  0  0  0
  152.4920  141.7988  158.5828 C   0  0  1  0  0  0  0  0  0  0  0  0
  152.6816  142.0472  160.0992 C   0  0  1  0  0  0  0  0  0  0  0  0
  153.7503  141.1066  160.6791 C   0  0  0  0  0  0  0  0  0  0  0  0
  153.3738  139.6490  160.3875 C   0  0  0  0  0  0  0  0  0  0  0  0
  153.1743  139.4335  158.8806 C   0  0  0  0  0  0  0  0  0  0  0  0
  152.2039  140.3784  158.3269 N   0  0  0  0  0  0  0  0  0  0  0  0
  151.8939  140.0295  157.0553 C   0  0  0  0  0  0  0  0  0  0  0  0
  152.8750  139.6825  156.1803 N   0  0  0  0  0  0  0  0  0  0  0  0
  152.5599  139.3304  154.9302 C   0  0  0  0  0  0  0  0  0  0  0  0
  151.3537  139.2534  154.3641 N   0  0  0  0  0  0  0  0  0  0  0  0
  150.3655  139.5866  155.2444 C   0  0  0  0  0  0  0  0  0  0  0  0
  150.5503  139.9798  156.5994 C   0  0  0  0  0  0  0  0  0  0  0  0
  149.3239  140.2436  157.1938 N   0  0  0  0  0  0  0  0  0  0  0  0
  148.4590  140.0214  156.2419 C   0  0  0  0  0  0  0  0  0  0  0  0
  148.9955  139.6237  155.0365 N   0  0  0  0  0  0  0  0  0  0  0  0
  148.2637  139.3283  153.8363 C   0  0  0  0  0  0  0  0  0  0  0  0
  146.7734  139.6491  153.7024 C   0  0  0  0  0  0  0  0  0  0  0  0
  146.5991  138.4116  152.7910 C   0  0  0  0  0  0  0  0  0  0  0  0
  145.3203  137.5995  153.0608 C   0  0  0  0  0  0  0  0  0  0  0  0
  144.1878  138.1708  152.4386 O   0  0  0  0  0  0  0  0  0  0  0  0
  146.6919  138.7335  151.2842 C   0  0  0  0  0  0  0  0  0  0  0  0
  146.7179  137.5679  150.4862 O   0  0  0  0  0  0  0  0  0  0  0  0
  147.8902  137.8927  153.4669 C   0  0  0  0  0  0  0  0  0  0  0  0
  153.0093  143.5274  160.3698 C   0  0  0  0  0  0  0  0  0  0  0  0
  153.0651  146.2133  159.7304 H   0  0  0  0  0  0  0  0  0  0  0  0
  152.2497  145.9521  161.2772 H   0  0  0  0  0  0  0  0  0  0  0  0
  151.3170  146.4423  159.8663 H   0  0  0  0  0  0  0  0  0  0  0  0
  150.8934  144.8529  158.0640 H   0  0  0  0  0  0  0  0  0  0  0  0
  152.6006  144.5223  157.8418 H   0  0  0  0  0  0  0  0  0  0  0  0
  150.4262  142.4796  158.5434 H   0  0  0  0  0  0  0  0  0  0  0  0
  151.2300  142.6510  157.0046 H   0  0  0  0  0  0  0  0  0  0  0  0
  153.4240  142.0494  158.0727 H   0  0  0  0  0  0  0  0  0  0  0  0
  151.7400  141.8192  160.6025 H   0  0  0  0  0  0  0  0  0  0  0  0
  154.7246  141.3314  160.2432 H   0  0  0  0  0  0  0  0  0  0  0  0
  153.8448  141.2565  161.7551 H   0  0  0  0  0  0  0  0  0  0  0  0
  154.1478  138.9786  160.7616 H   0  0  0  0  0  0  0  0  0  0  0  0
  152.4563  139.3918  160.9185 H   0  0  0  0  0  0  0  0  0  0  0  0
  154.1268  139.5533  158.3618 H   0  0  0  0  0  0  0  0  0  0  0  0
  152.8455  138.4080  158.7044 H   0  0  0  0  0  0  0  0  0  0  0  0
  153.3926  139.0739  154.2918 H   0  0  0  0  0  0  0  0  0  0  0  0
  147.3968  140.1455  156.3958 H   0  0  0  0  0  0  0  0  0  0  0  0
  148.8173  139.7880  153.0156 H   0  0  0  0  0  0  0  0  0  0  0  0
  146.2334  139.5661  154.6466 H   0  0  0  0  0  0  0  0  0  0  0  0
  146.5626  140.6056  153.2229 H   0  0  0  0  0  0  0  0  0  0  0  0
  145.4205  136.5835  152.6776 H   0  0  0  0  0  0  0  0  0  0  0  0
  145.1284  137.5056  154.1300 H   0  0  0  0  0  0  0  0  0  0  0  0
  144.3015  139.1083  152.4073 H   0  0  0  0  0  0  0  0  0  0  0  0
  145.8569  139.3574  150.9636 H   0  0  0  0  0  0  0  0  0  0  0  0
  147.5948  139.3015  151.0589 H   0  0  0  0  0  0  0  0  0  0  0  0
  147.4056  137.0020  150.8014 H   0  0  0  0  0  0  0  0  0  0  0  0
  148.5976  137.4026  152.7976 H   0  0  0  0  0  0  0  0  0  0  0  0
  147.6876  137.2680  154.3382 H   0  0  0  0  0  0  0  0  0  0  0  0
  153.9632  143.7965  159.9129 H   0  0  0  0  0  0  0  0  0  0  0  0
  153.1145  143.6882  161.4437 H   0  0  0  0  0  0  0  0  0  0  0  0
  151.0847  144.1300  160.3111 H   0  0  0  0  0  0  0  0  0  0  0  0
  1  2  1  0  0  0  0
  1 29  1  0  0  0  0
  1 30  1  0  0  0  0
  1 31  1  0  0  0  0
  2 28  1  0  0  0  0
  2  3  1  0  0  0  0
  2 59  1  0  0  0  0
  3  4  1  0  0  0  0
  3 32  1  0  0  0  0
  3 33  1  0  0  0  0
  4  5  1  0  0  0  0
  4 34  1  0  0  0  0
  4 35  1  0  0  0  0
  5 10  1  0  0  0  0
  5  6  1  0  0  0  0
  5 36  1  0  0  0  0
  6  7  1  0  0  0  0
  6 28  1  0  0  0  0
  6 37  1  0  0  0  0
  7  8  1  0  0  0  0
  7 38  1  0  0  0  0
  7 39  1  0  0  0  0
  8  9  1  0  0  0  0
  8 40  1  0  0  0  0
  8 41  1  0  0  0  0
  9 10  1  0  0  0  0
  9 42  1  0  0  0  0
  9 43  1  0  0  0  0
 10 11  1  0  0  0  0
 11 16  1  0  0  0  0
 11 12  2  0  0  0  0
 12 13  1  0  0  0  0
 13 14  2  0  0  0  0
 13 44  1  0  0  0  0
 14 15  1  0  0  0  0
 15 19  1  0  0  0  0
 15 16  2  0  0  0  0
 16 17  1  0  0  0  0
 17 18  2  0  0  0  0
 18 19  1  0  0  0  0
 18 45  1  0  0  0  0
 19 20  1  0  0  0  0
 20 27  1  0  0  0  0
 20 21  1  0  0  0  0
 20 46  1  0  0  0  0
 21 22  1  0  0  0  0
 21 47  1  0  0  0  0
 21 48  1  0  0  0  0
 22 23  1  0  0  0  0
 22 25  1  0  0  0  0
 22 27  1  0  0  0  0
 23 24  1  0  0  0  0
 23 49  1  0  0  0  0
 23 50  1  0  0  0  0
 24 51  1  0  0  0  0
 25 26  1  0  0  0  0
 25 52  1  0  0  0  0
 25 53  1  0  0  0  0
 26 54  1  0  0  0  0
 27 55  1  0  0  0  0
 27 56  1  0  0  0  0
 28 57  1  0  0  0  0
 28 58  1  0  0  0  0
M  CHG  1   2   1
M  END
> <s_m_source_file>
AV-unprocessed.smi

> <i_m_source_file_index>
198

> <i_lp_mmshare_version>
43012

> <i_f3d_flags>
0

> <s_epik_input>
W0NIMl0xW0NIMl1OKFtDSDNdKVtDSDJdW0NAQEhdKFtDQEhdMTIpW0NIMl1bQ0gyXVtDSDJdTjJjKG5bY0hdbjMpYyhjMzQpbltjSF1uNFtDSF0oW0NIMl01KVtDSDJdQzUoW0NIMl1bT0hdKVtDSDJdW09IXQ==

> <s_epik_cmdline>
J2VwaWtfcHl0aG9uJywgJy1waCcsICc3LjAnLCAnLXRuJywgJzgnLCAnLW1hJywgJzIwMCcsICctbWV0YWxfYmluZGluZycsICctaW1hZScsICc8aW5maWxlLm1hZT4nLCAnLW9tYWUnLCAnPG91dGZpbGUubWFlPic=

> <r_lp_tautomer_probability>
1

> <r_epik_Ionization_Penalty>
0.00239938

> <r_epik_Ionization_Penalty_Charging>
0.00138697

> <r_epik_Ionization_Penalty_Neutral>
0.00101241

> <r_epik_State_Penalty>
-0

> <r_epik_Charging_Adjusted_Penalty>
0.00138697

> <i_epik_Tot_Q>
1

> <i_epik_Tot_abs_Q>
1

> <r_epik_Metal_State_Penalty>
-0

> <b_epik_Metal_Only>
0

> <s_lp_Force_Field>
OPLS_2005

> <r_lp_Energy>
56.2866

> <b_lp_Chiralities_Consistent>
1

> <s_lp_Variant>
AV-unprocessed.smi:198-1

> <Gold.Version>
5.8.1

> <Gold.Id.Protein>
6NUR|6NUR_protein|mol2

> <Gold.PLP.Fitness>
54.9428

> <Gold.PLP.PLP>
-46.6267

> <Gold.PLP.part.hbond>
-6.6262

> <Gold.PLP.part.metal>
0.0000

> <Gold.PLP.part.buried>
-0.7621

> <Gold.PLP.part.nonpolar>
-40.4729

> <Gold.PLP.part.repulsive>
0.2203

> <Gold.PLP.ligand.clash>
0.0000

> <Gold.PLP.ligand.torsion>
1.1906

> <Gold.PLP.Chemscore.Hbond>
3.3500

> <Gold.PLP.Chemscore.CHOScore>
0.0000

> <Gold.PLP.Chemscore.Metal>
0.0000

> <Gold.Chemscore.Hbonds>
donor molecule, donor type, donor heavy atom, donor atom, acceptor molecule, acceptor atom, score
      L1  H    24    51       P1 10175  0.83
      L1  H    26    54       P1  7948  1.00
      P1  H  7989  7998       L1    14  0.50
      P1  H  7997  8010       L1    12  1.00

> <Gold.PLP.Chemscore.Internal.Correction>
0.6473

> <Gold.Rescore>
     Score         DG    S(hbond)    S(metal)    S(lipo)     H(rot)  DE(clash)    DE(int)     intcor
     19.05     -21.82       2.92        0.00     123.62       3.08       1.67       1.11       ----

> <Gold.Chemscore.Fitness>
19.0459

> <Gold.Chemscore.DG>
-21.8200

> <Gold.Chemscore.ZeroCoef>
-5.4800

> <Gold.Chemscore.Hbond>
2.9210

> <Gold.Chemscore.Metal>
0.0000

> <Gold.Chemscore.Lipo>
123.6211

> <Gold.Chemscore.Internal_Hbond>
0.0000

> <Gold.Chemscore.DEClash>
1.6677

> <Gold.Chemscore.DEInternal>
1.1063

> <Gold.Chemscore.Rot>
3.0781

> <Gold.Chemscore.Internal.Correction>
   9.000000E+99

> <Gold.Chemscore.Hbonds>
donor molecule, donor type, donor heavy atom, donor atom, acceptor molecule, acceptor atom, score
      L1  H    24    51       P1 10175  0.78
      L1  H    26    54       P1  7948  0.95
      P1  H  7989  7998       L1    14  0.01
      P1  H  7997  8010       L1    12  0.86

> <Gold.Chemscore.Hbond.Weighted>
-9.7563

> <Gold.Chemscore.Metal.Weighted>
-0.0000

> <Gold.Chemscore.Lipo.Weighted>
-14.4637

> <Gold.Chemscore.Internal_Hbond.Weighted>
0.0000

> <Gold.Chemscore.DEClash.Weighted>
1.6677

> <Gold.Chemscore.DEInternal.Weighted>
1.1063

> <Gold.Chemscore.Rot.Weighted>
7.8800

> <Gold.Chemscore.Internal.Correction.Weighted>
   9.000000E+99

> <Gold.Protein.RotatedTorsions>
[ 6907 6896 6895 6894 ] final -122.19 input  -60.11 | X-H torsion
[ 7974 7965 7964 7962 ] final  103.73 input  175.53 | X-H torsion
[ 8008 7997 7996 7995 ] final   72.58 input   59.86 | X-H torsion
[ 10167 10162 10161 10158 ] final  131.85 input  -65.29 | X-H torsion
[ 10718 10713 10712 10709 ] final  -46.35 input   66.30 | X-H torsion
[ 10763 10752 10751 10750 ] final -162.14 input  -60.55 | X-H torsion
[ 11005 11000 10999 10996 ] final -130.64 input  -57.11 | X-H torsion

> <Gold.Protein.ActiveResidues>
 VAL166  LYS551  ARG553  GLY616  TRP617  ASP618  TYR619  PRO620  LYS621  CYS622 
 ASP623  PHE694  ASN695  SER759  ASP760  ASP761  ALA762  ILE779  LEU786  VAL792 
 PHE793  MET794  SER795  GLU796  ALA797  LYS798  CYS799  TRP800  GLU811  SER814 

> <Gold.Protein.RotatedAtoms>
  150.8553  133.7724  159.3010 H   0  0  0  0  0  0  0  0  0  0  0  0  # atno 6907 bound_to 6896
  151.5384  135.1067  159.9929 H   0  0  0  0  0  0  0  0  0  0  0  0  # atno 6908 bound_to 6896
  152.4585  133.7729  159.6864 H   0  0  0  0  0  0  0  0  0  0  0  0  # atno 6909 bound_to 6896
  145.3420  139.2460  143.3604 H   0  0  0  0  0  0  0  0  0  0  0  0  # atno 7974 bound_to 7965
  155.7709  140.3484  155.5246 H   0  0  0  0  0  0  0  0  0  0  0  0  # atno 8008 bound_to 7997
  155.8822  140.1004  157.1498 H   0  0  0  0  0  0  0  0  0  0  0  0  # atno 8009 bound_to 7997
  154.4026  140.1320  156.4198 H   0  0  0  0  0  0  0  0  0  0  0  0  # atno 8010 bound_to 7997
  139.5365  144.6688  151.4768 H   0  0  0  0  0  0  0  0  0  0  0  0  # atno 10167 bound_to 10162
  156.2192  130.4165  149.9015 H   0  0  0  0  0  0  0  0  0  0  0  0  # atno 10718 bound_to 10713
  154.7241  135.3032  154.9000 H   0  0  0  0  0  0  0  0  0  0  0  0  # atno 10763 bound_to 10752
  153.9863  135.6724  153.4756 H   0  0  0  0  0  0  0  0  0  0  0  0  # atno 10764 bound_to 10752
  153.0859  135.4984  154.8514 H   0  0  0  0  0  0  0  0  0  0  0  0  # atno 10765 bound_to 10752
  140.9328  134.1297  157.4220 H   0  0  0  0  0  0  0  0  0  0  0  0  # atno 11005 bound_to 11000
  146.3003  140.4020  142.8706 LP  0  0  0  0  0  0  0  0  0  0  0  0  # atno 17320 bound_to 7965
  144.8783  140.7366  143.6003 LP  0  0  0  0  0  0  0  0  0  0  0  0  # atno 17321 bound_to 7965
  140.6574  143.8570  150.6850 LP  0  0  0  0  0  0  0  0  0  0  0  0  # atno 17342 bound_to 10162
  140.1954  143.4002  152.1832 LP  0  0  0  0  0  0  0  0  0  0  0  0  # atno 17343 bound_to 10162
  156.6667  130.8804  151.3556 LP  0  0  0  0  0  0  0  0  0  0  0  0  # atno 17370 bound_to 10713
  157.7079  130.9406  150.0990 LP  0  0  0  0  0  0  0  0  0  0  0  0  # atno 17371 bound_to 10713
  139.8800  135.0011  156.6047 LP  0  0  0  0  0  0  0  0  0  0  0  0  # atno 17394 bound_to 11000
  140.7839  133.8637  155.8590 LP  0  0  0  0  0  0  0  0  0  0  0  0  # atno 17395 bound_to 11000

$$$$
