AV-unprocessed.smi:2709|AV-procd|sdf|10460|dock1
  -GOLD-   2272014503D 1   1.00000     0.00000
 Structure written by MMmdl.
 40 42  0  0  0  0  0  0  0  0  1 V2000
  145.9540  132.0534  151.5750 C   0  0  0  0  0  0  0  0  0  0  0  0
  146.1993  132.8550  152.7189 O   0  0  0  0  0  0  0  0  0  0  0  0
  147.5678  132.9057  153.0981 C   0  0  2  0  0  0  0  0  0  0  0  0
  148.1018  131.5229  153.4965 C   0  0  0  0  0  0  0  0  0  0  0  0
  149.1457  131.8110  154.5692 C   0  0  0  0  0  0  0  0  0  0  0  0
  148.5407  132.9660  155.3650 C   0  0  0  0  0  0  0  0  0  0  0  0
  147.7370  133.7984  154.3500 C   0  0  1  0  0  0  0  0  0  0  0  0
  148.4472  135.0366  154.0396 N   0  0  0  0  0  0  0  0  0  0  0  0
  148.7551  135.9882  154.9316 C   0  0  0  0  0  0  0  0  0  0  0  0
  148.4596  135.9197  156.1236 O   0  0  0  0  0  0  0  0  0  0  0  0
  149.4066  137.0065  154.3445 N   0  0  0  0  0  0  0  0  0  0  0  0
  149.9177  138.1979  154.9280 C   0  0  0  0  0  0  0  0  0  0  0  0
  149.8227  138.3593  156.3263 C   0  0  0  0  0  0  0  0  0  0  0  0
  150.2755  139.4654  156.9541 N   0  0  0  0  0  0  0  0  0  0  0  0
  150.8117  140.4169  156.1856 C   0  0  0  0  0  0  0  0  0  0  0  0
  151.3473  141.6261  156.8875 C   0  0  0  0  0  0  0  0  0  0  0  0
  151.3592  141.7021  158.4007 C   0  0  0  0  0  0  0  0  0  0  0  0
  150.4180  142.5743  157.6178 C   0  0  0  0  0  0  0  0  0  0  0  0
  150.9642  140.3761  154.8596 N   0  0  0  0  0  0  0  0  0  0  0  0
  150.5135  139.2733  154.2228 C   0  0  0  0  0  0  0  0  0  0  0  0
  144.8895  132.0694  151.3419 H   0  0  0  0  0  0  0  0  0  0  0  0
  146.2435  131.0152  151.7408 H   0  0  0  0  0  0  0  0  0  0  0  0
  146.4921  132.4331  150.7057 H   0  0  0  0  0  0  0  0  0  0  0  0
  148.1731  133.3011  152.2793 H   0  0  0  0  0  0  0  0  0  0  0  0
  147.2985  130.9247  153.9294 H   0  0  0  0  0  0  0  0  0  0  0  0
  148.5098  130.9692  152.6505 H   0  0  0  0  0  0  0  0  0  0  0  0
  149.3629  130.9412  155.1899 H   0  0  0  0  0  0  0  0  0  0  0  0
  150.0774  132.1319  154.1013 H   0  0  0  0  0  0  0  0  0  0  0  0
  147.8595  132.5627  156.1154 H   0  0  0  0  0  0  0  0  0  0  0  0
  149.2984  133.5418  155.8983 H   0  0  0  0  0  0  0  0  0  0  0  0
  146.7672  134.0436  154.7879 H   0  0  0  0  0  0  0  0  0  0  0  0
  148.7227  135.1748  153.0785 H   0  0  0  0  0  0  0  0  0  0  0  0
  149.5386  136.9272  153.3469 H   0  0  0  0  0  0  0  0  0  0  0  0
  149.3817  137.5949  156.9491 H   0  0  0  0  0  0  0  0  0  0  0  0
  152.1910  142.0547  156.3498 H   0  0  0  0  0  0  0  0  0  0  0  0
  150.9264  140.8717  158.9553 H   0  0  0  0  0  0  0  0  0  0  0  0
  152.2153  142.1810  158.8713 H   0  0  0  0  0  0  0  0  0  0  0  0
  150.6439  143.6374  157.5647 H   0  0  0  0  0  0  0  0  0  0  0  0
  149.3594  142.3238  157.6511 H   0  0  0  0  0  0  0  0  0  0  0  0
  150.6335  139.2825  153.1516 H   0  0  0  0  0  0  0  0  0  0  0  0
  1  2  1  0  0  0  0
  1 21  1  0  0  0  0
  1 22  1  0  0  0  0
  1 23  1  0  0  0  0
  2  3  1  0  0  0  0
  3  7  1  0  0  0  0
  3  4  1  0  0  0  0
  3 24  1  0  0  0  0
  4  5  1  0  0  0  0
  4 25  1  0  0  0  0
  4 26  1  0  0  0  0
  5  6  1  0  0  0  0
  5 27  1  0  0  0  0
  5 28  1  0  0  0  0
  6  7  1  0  0  0  0
  6 29  1  0  0  0  0
  6 30  1  0  0  0  0
  7  8  1  0  0  0  0
  7 31  1  0  0  0  0
  8  9  1  0  0  0  0
  8 32  1  0  0  0  0
  9 10  2  0  0  0  0
  9 11  1  0  0  0  0
 11 12  1  0  0  0  0
 11 33  1  0  0  0  0
 12 20  1  0  0  0  0
 12 13  2  0  0  0  0
 13 14  1  0  0  0  0
 13 34  1  0  0  0  0
 14 15  2  0  0  0  0
 15 16  1  0  0  0  0
 15 19  1  0  0  0  0
 16 18  1  0  0  0  0
 16 17  1  0  0  0  0
 16 35  1  0  0  0  0
 17 18  1  0  0  0  0
 17 36  1  0  0  0  0
 17 37  1  0  0  0  0
 18 38  1  0  0  0  0
 18 39  1  0  0  0  0
 19 20  2  0  0  0  0
 20 40  1  0  0  0  0
M  END
> <s_m_source_file>
AV-unprocessed.smi

> <i_m_source_file_index>
2709

> <i_lp_mmshare_version>
43012

> <i_f3d_flags>
0

> <s_epik_input>
W0NIM11PW0NAQEhdMVtDSDJdW0NIMl1bQ0gyXVtDQEhdMVtOSF1DKD1PKVtOSF1jMltjSF1uYyhuW2NIXTIpW0NIXTNbQ0gyXVtDSDJdMw==

> <s_epik_cmdline>
J2VwaWtfcHl0aG9uJywgJy1waCcsICc3LjAnLCAnLXRuJywgJzgnLCAnLW1hJywgJzIwMCcsICctbWV0YWxfYmluZGluZycsICctaW1hZScsICc8aW5maWxlLm1hZT4nLCAnLW9tYWUnLCAnPG91dGZpbGUubWFlPic=

> <r_lp_tautomer_probability>
1

> <r_epik_Ionization_Penalty>
2.49969e-05

> <r_epik_Ionization_Penalty_Charging>
0

> <r_epik_Ionization_Penalty_Neutral>
2.49969e-05

> <r_epik_State_Penalty>
-0

> <r_epik_Charging_Adjusted_Penalty>
0

> <i_epik_Tot_Q>
0

> <i_epik_Tot_abs_Q>
0

> <r_epik_Metal_State_Penalty>
-0

> <b_epik_Metal_Only>
0

> <s_lp_Force_Field>
OPLS_2005

> <r_lp_Energy>
17.9033

> <b_lp_Chiralities_Consistent>
1

> <s_lp_Variant>
AV-unprocessed.smi:2709-1

> <Gold.Version>
5.8.1

> <Gold.Id.Protein>
6NUR|6NUR_protein|mol2

> <Gold.PLP.Fitness>
40.4537

> <Gold.PLP.PLP>
-28.7701

> <Gold.PLP.part.hbond>
-3.0000

> <Gold.PLP.part.metal>
0.0000

> <Gold.PLP.part.buried>
-3.0680

> <Gold.PLP.part.nonpolar>
-22.5660

> <Gold.PLP.part.repulsive>
0.2406

> <Gold.PLP.ligand.clash>
0.0000

> <Gold.PLP.ligand.torsion>
0.0655

> <Gold.PLP.Chemscore.Hbond>
2.8960

> <Gold.PLP.Chemscore.CHOScore>
1.0000

> <Gold.PLP.Chemscore.Metal>
0.0000

> <Gold.Chemscore.Hbonds>
donor molecule, donor type, donor heavy atom, donor atom, acceptor molecule, acceptor atom, score
      L1  H     8    32       P1  7948  0.98
      L1  H    11    33       P1  7948  0.96
      P1  H  7989  7998       L1    19  0.50
      L1  C    20    40       P1  7957  1.00

> <Gold.PLP.Chemscore.Internal.Correction>
0.1266

> <Gold.Rescore>
     Score         DG    S(hbond)    S(metal)    S(lipo)     H(rot)  DE(clash)    DE(int)     intcor
     14.03     -17.58       2.32        0.00      68.12       1.41       1.35       2.20       ----

> <Gold.Chemscore.Fitness>
14.0270

> <Gold.Chemscore.DG>
-17.5827

> <Gold.Chemscore.ZeroCoef>
-5.4800

> <Gold.Chemscore.Hbond>
2.3192

> <Gold.Chemscore.Metal>
0.0000

> <Gold.Chemscore.Lipo>
68.1166

> <Gold.Chemscore.Internal_Hbond>
0.0000

> <Gold.Chemscore.DEClash>
1.3541

> <Gold.Chemscore.DEInternal>
2.2016

> <Gold.Chemscore.Rot>
1.4114

> <Gold.Chemscore.Internal.Correction>
   9.000000E+99

> <Gold.Chemscore.Hbonds>
donor molecule, donor type, donor heavy atom, donor atom, acceptor molecule, acceptor atom, score
      L1  H     8    32       P1  7948  0.55
      L1  H    11    33       P1  7948  0.72
      P1  H  7989  7998       L1    19  0.02

> <Gold.Chemscore.Hbond.Weighted>
-7.7463

> <Gold.Chemscore.Metal.Weighted>
-0.0000

> <Gold.Chemscore.Lipo.Weighted>
-7.9696

> <Gold.Chemscore.Internal_Hbond.Weighted>
0.0000

> <Gold.Chemscore.DEClash.Weighted>
1.3541

> <Gold.Chemscore.DEInternal.Weighted>
2.2016

> <Gold.Chemscore.Rot.Weighted>
3.6133

> <Gold.Chemscore.Internal.Correction.Weighted>
   9.000000E+99

> <Gold.Protein.RotatedTorsions>
[ 6907 6896 6895 6894 ] final -120.94 input  -60.11 | X-H torsion
[ 7974 7965 7964 7962 ] final -175.80 input  175.53 | X-H torsion
[ 8008 7997 7996 7995 ] final  146.95 input   59.86 | X-H torsion
[ 10167 10162 10161 10158 ] final  -99.16 input  -65.29 | X-H torsion
[ 10718 10713 10712 10709 ] final -157.40 input   66.30 | X-H torsion
[ 10763 10752 10751 10750 ] final  -79.22 input  -60.55 | X-H torsion
[ 11005 11000 10999 10996 ] final   -5.97 input  -57.11 | X-H torsion

> <Gold.Protein.ActiveResidues>
 VAL166  LYS551  ARG553  GLY616  TRP617  ASP618  TYR619  PRO620  LYS621  CYS622 
 ASP623  PHE694  ASN695  SER759  ASP760  ASP761  ALA762  ILE779  LEU786  VAL792 
 PHE793  MET794  SER795  GLU796  ALA797  LYS798  CYS799  TRP800  GLU811  SER814 

> <Gold.Protein.RotatedAtoms>
  150.8438  133.7894  159.3050 H   0  0  0  0  0  0  0  0  0  0  0  0  # atno 6907 bound_to 6896
  151.5587  135.1064  159.9977 H   0  0  0  0  0  0  0  0  0  0  0  0  # atno 6908 bound_to 6896
  152.4496  133.7561  159.6777 H   0  0  0  0  0  0  0  0  0  0  0  0  # atno 6909 bound_to 6896
  144.7127  140.1267  143.6401 H   0  0  0  0  0  0  0  0  0  0  0  0  # atno 7974 bound_to 7965
  156.2840  140.2168  156.5460 H   0  0  0  0  0  0  0  0  0  0  0  0  # atno 8008 bound_to 7997
  154.7330  140.0494  157.0766 H   0  0  0  0  0  0  0  0  0  0  0  0  # atno 8009 bound_to 7997
  155.0328  140.3137  155.4755 H   0  0  0  0  0  0  0  0  0  0  0  0  # atno 8010 bound_to 7997
  140.2653  143.3380  152.0586 H   0  0  0  0  0  0  0  0  0  0  0  0  # atno 10167 bound_to 10162
  156.5398  130.8558  151.2745 H   0  0  0  0  0  0  0  0  0  0  0  0  # atno 10718 bound_to 10713
  154.5359  135.5703  153.6798 H   0  0  0  0  0  0  0  0  0  0  0  0  # atno 10763 bound_to 10752
  152.9951  135.6216  154.2567 H   0  0  0  0  0  0  0  0  0  0  0  0  # atno 10764 bound_to 10752
  154.2496  135.2859  155.2801 H   0  0  0  0  0  0  0  0  0  0  0  0  # atno 10765 bound_to 10752
  140.6969  133.9023  155.8656 H   0  0  0  0  0  0  0  0  0  0  0  0  # atno 11005 bound_to 11000
  145.9323  139.2614  143.1317 LP  0  0  0  0  0  0  0  0  0  0  0  0  # atno 17320 bound_to 7965
  145.9510  140.8909  143.0259 LP  0  0  0  0  0  0  0  0  0  0  0  0  # atno 17321 bound_to 7965
  139.5004  144.6692  151.6284 LP  0  0  0  0  0  0  0  0  0  0  0  0  # atno 17342 bound_to 10162
  140.5933  143.9741  150.6338 LP  0  0  0  0  0  0  0  0  0  0  0  0  # atno 17343 bound_to 10162
  157.7407  130.9856  150.2397 LP  0  0  0  0  0  0  0  0  0  0  0  0  # atno 17370 bound_to 10713
  156.2982  130.3755  149.7776 LP  0  0  0  0  0  0  0  0  0  0  0  0  # atno 17371 bound_to 10713
  141.0195  134.0908  157.4135 LP  0  0  0  0  0  0  0  0  0  0  0  0  # atno 17394 bound_to 11000
  139.8907  135.0114  156.6753 LP  0  0  0  0  0  0  0  0  0  0  0  0  # atno 17395 bound_to 11000

$$$$
