AV-unprocessed.smi:1525|AV-procd|sdf|6145|dock1
  -GOLD-   22720 6293D 1   1.00000     0.00000
 Structure written by MMmdl.
 49 51  0  0  0  0  0  0  0  0  4 V2000
  152.7506  139.5439  156.0764 O   0  0  0  0  0  0  0  0  0  0  0  0
  151.7990  140.3249  156.1905 C   0  0  0  0  0  0  0  0  0  0  0  0
  150.7911  140.5447  155.3048 N   0  5  0  0  0  0  0  0  0  0  0  0
  149.6112  139.6951  155.1539 C   0  0  0  0  0  0  0  0  0  0  0  0
  149.7391  138.8354  153.8797 C   0  0  0  0  0  0  0  0  0  0  0  0
  148.4150  138.3870  153.3739 N   0  3  0  0  0  0  0  0  0  0  0  0
  147.5276  137.8234  154.4252 C   0  0  0  0  0  0  0  0  0  0  0  0
  146.2111  137.3272  153.8055 C   0  0  0  0  0  0  0  0  0  0  0  0
  145.5758  138.3959  153.1145 O   0  0  0  0  0  0  0  0  0  0  0  0
  146.3779  138.8933  152.0506 C   0  0  0  0  0  0  0  0  0  0  0  0
  147.7014  139.4398  152.6111 C   0  0  0  0  0  0  0  0  0  0  0  0
  151.6651  141.0739  157.2972 N   0  0  0  0  0  0  0  0  0  0  0  0
  152.4695  141.0786  158.4695 C   0  0  0  0  0  0  0  0  0  0  0  0
  153.2859  139.9725  158.8145 C   0  0  0  0  0  0  0  0  0  0  0  0
  154.0975  140.0334  159.9642 C   0  0  0  0  0  0  0  0  0  0  0  0
  154.0906  141.2043  160.7442 C   0  0  0  0  0  0  0  0  0  0  0  0
  153.3154  142.2472  160.3800 N   0  3  0  0  0  0  0  0  0  0  0  0
  152.5153  142.2405  159.2898 C   0  0  0  0  0  0  0  0  0  0  0  0
  151.7775  143.4163  159.0695 N   0  0  0  0  0  0  0  0  0  0  0  0
  152.5068  144.5485  158.5055 C   0  0  0  0  0  0  0  0  0  0  0  0
  152.2189  145.7477  159.4139 C   0  0  0  0  0  0  0  0  0  0  0  0
  150.8826  145.3897  160.0551 C   0  0  0  0  0  0  0  0  0  0  0  0
  150.9680  143.8702  160.1936 C   0  0  0  0  0  0  0  0  0  0  0  0
  149.4569  139.0414  156.0137 H   0  0  0  0  0  0  0  0  0  0  0  0
  148.7054  140.2976  155.0844 H   0  0  0  0  0  0  0  0  0  0  0  0
  150.2781  139.3722  153.0973 H   0  0  0  0  0  0  0  0  0  0  0  0
  150.3498  137.9634  154.1198 H   0  0  0  0  0  0  0  0  0  0  0  0
  148.0229  136.9981  154.9379 H   0  0  0  0  0  0  0  0  0  0  0  0
  147.3196  138.5865  155.1769 H   0  0  0  0  0  0  0  0  0  0  0  0
  146.3904  136.4923  153.1261 H   0  0  0  0  0  0  0  0  0  0  0  0
  145.5423  136.9646  154.5862 H   0  0  0  0  0  0  0  0  0  0  0  0
  146.5613  138.1056  151.3180 H   0  0  0  0  0  0  0  0  0  0  0  0
  145.8325  139.6850  151.5369 H   0  0  0  0  0  0  0  0  0  0  0  0
  147.5107  140.2966  153.2593 H   0  0  0  0  0  0  0  0  0  0  0  0
  148.3275  139.7897  151.7892 H   0  0  0  0  0  0  0  0  0  0  0  0
  150.8119  141.6110  157.3507 H   0  0  0  0  0  0  0  0  0  0  0  0
  153.3115  139.0830  158.2032 H   0  0  0  0  0  0  0  0  0  0  0  0
  154.7213  139.1953  160.2385 H   0  0  0  0  0  0  0  0  0  0  0  0
  154.6820  141.3404  161.6379 H   0  0  0  0  0  0  0  0  0  0  0  0
  153.5776  144.3644  158.4083 H   0  0  0  0  0  0  0  0  0  0  0  0
  152.1167  144.7336  157.5044 H   0  0  0  0  0  0  0  0  0  0  0  0
  152.9873  145.8250  160.1840 H   0  0  0  0  0  0  0  0  0  0  0  0
  152.1933  146.6933  158.8719 H   0  0  0  0  0  0  0  0  0  0  0  0
  150.7156  145.8948  161.0069 H   0  0  0  0  0  0  0  0  0  0  0  0
  150.0668  145.6559  159.3816 H   0  0  0  0  0  0  0  0  0  0  0  0
  149.9788  143.4126  160.1693 H   0  0  0  0  0  0  0  0  0  0  0  0
  151.4332  143.6022  161.1427 H   0  0  0  0  0  0  0  0  0  0  0  0
  148.6064  137.6448  152.7157 H   0  0  0  0  0  0  0  0  0  0  0  0
  153.3321  143.0868  160.9593 H   0  0  0  0  0  0  0  0  0  0  0  0
  1  2  2  0  0  0  0
  2  3  1  0  0  0  0
  2 12  1  0  0  0  0
  3  4  1  0  0  0  0
  4  5  1  0  0  0  0
  4 24  1  0  0  0  0
  4 25  1  0  0  0  0
  5  6  1  0  0  0  0
  5 26  1  0  0  0  0
  5 27  1  0  0  0  0
  6 11  1  0  0  0  0
  6  7  1  0  0  0  0
  6 48  1  0  0  0  0
  7  8  1  0  0  0  0
  7 28  1  0  0  0  0
  7 29  1  0  0  0  0
  8  9  1  0  0  0  0
  8 30  1  0  0  0  0
  8 31  1  0  0  0  0
  9 10  1  0  0  0  0
 10 11  1  0  0  0  0
 10 32  1  0  0  0  0
 10 33  1  0  0  0  0
 11 34  1  0  0  0  0
 11 35  1  0  0  0  0
 12 13  1  0  0  0  0
 12 36  1  0  0  0  0
 13 18  1  0  0  0  0
 13 14  2  0  0  0  0
 14 15  1  0  0  0  0
 14 37  1  0  0  0  0
 15 16  2  0  0  0  0
 15 38  1  0  0  0  0
 16 17  1  0  0  0  0
 16 39  1  0  0  0  0
 17 18  2  0  0  0  0
 17 49  1  0  0  0  0
 18 19  1  0  0  0  0
 19 23  1  0  0  0  0
 19 20  1  0  0  0  0
 20 21  1  0  0  0  0
 20 40  1  0  0  0  0
 20 41  1  0  0  0  0
 21 22  1  0  0  0  0
 21 42  1  0  0  0  0
 21 43  1  0  0  0  0
 22 23  1  0  0  0  0
 22 44  1  0  0  0  0
 22 45  1  0  0  0  0
 23 46  1  0  0  0  0
 23 47  1  0  0  0  0
M  CHG  1   3  -1
M  CHG  1   6   1
M  CHG  1  17   1
M  END
> <s_m_source_file>
AV-unprocessed.smi

> <i_m_source_file_index>
1525

> <i_lp_mmshare_version>
43012

> <i_f3d_flags>
0

> <s_epik_input>
W0NIMl0xW0NIMl1PW0NIMl1bQ0gyXU4xW0NIMl1bQ0gyXVtOSF1DKD1PKVtOSF1jMltjSF1bY0hdW2NIXW5jMk4zW0NIMl1bQ0gyXVtDSDJdW0NIMl0z

> <s_epik_cmdline>
J2VwaWtfcHl0aG9uJywgJy1waCcsICc3LjAnLCAnLXRuJywgJzgnLCAnLW1hJywgJzIwMCcsICctbWV0YWxfYmluZGluZycsICctaW1hZScsICc8aW5maWxlLm1hZT4nLCAnLW9tYWUnLCAnPG91dGZpbGUubWFlPic=

> <r_lp_tautomer_probability>
0.999994

> <r_epik_Ionization_Penalty>
8.59159

> <r_epik_Ionization_Penalty_Charging>
8.59159

> <r_epik_Ionization_Penalty_Neutral>
3.55275e-06

> <r_epik_State_Penalty>
8.58545

> <r_epik_Charging_Adjusted_Penalty>
17.177

> <i_epik_Tot_Q>
1

> <i_epik_Tot_abs_Q>
3

> <r_epik_Metal_State_Penalty>
4.58086

> <b_epik_Metal_Only>
1

> <s_lp_Force_Field>
OPLS_2005

> <r_lp_Energy>
45.7376

> <b_lp_Chiralities_Consistent>
1

> <s_lp_Variant>
AV-unprocessed.smi:1525-5

> <Gold.Version>
5.8.1

> <Gold.Id.Protein>
6NUR|6NUR_protein|mol2

> <Gold.PLP.Fitness>
47.9738

> <Gold.PLP.PLP>
-38.5804

> <Gold.PLP.part.hbond>
-3.8649

> <Gold.PLP.part.metal>
0.0000

> <Gold.PLP.part.buried>
0.9254

> <Gold.PLP.part.nonpolar>
-36.4375

> <Gold.PLP.part.repulsive>
0.8129

> <Gold.PLP.ligand.clash>
0.0000

> <Gold.PLP.ligand.torsion>
1.4522

> <Gold.PLP.Chemscore.Hbond>
3.9913

> <Gold.PLP.Chemscore.CHOScore>
0.0000

> <Gold.PLP.Chemscore.Metal>
0.0000

> <Gold.Chemscore.Hbonds>
donor molecule, donor type, donor heavy atom, donor atom, acceptor molecule, acceptor atom, score
      L1  H     6    48       P1  7948  2.00
      P1  H  7989  7998       L1     3  0.96
      P1  H  7997  8008       L1     1  1.00

> <Gold.PLP.Chemscore.Internal.Correction>
0.3240

> <Gold.Rescore>
     Score         DG    S(hbond)    S(metal)    S(lipo)     H(rot)  DE(clash)    DE(int)     intcor
     17.33     -21.82       2.22        0.00     112.57       1.66       1.72       2.77       ----

> <Gold.Chemscore.Fitness>
17.3295

> <Gold.Chemscore.DG>
-21.8236

> <Gold.Chemscore.ZeroCoef>
-5.4800

> <Gold.Chemscore.Hbond>
2.2249

> <Gold.Chemscore.Metal>
0.0000

> <Gold.Chemscore.Lipo>
112.5666

> <Gold.Chemscore.Internal_Hbond>
0.0000

> <Gold.Chemscore.DEClash>
1.7192

> <Gold.Chemscore.DEInternal>
2.7748

> <Gold.Chemscore.Rot>
1.6632

> <Gold.Chemscore.Internal.Correction>
   9.000000E+99

> <Gold.Chemscore.Hbonds>
donor molecule, donor type, donor heavy atom, donor atom, acceptor molecule, acceptor atom, score
      L1  H     6    48       P1  7948  1.00
      P1  H  7989  7998       L1     3  0.39
      P1  H  7997  8008       L1     1  0.92

> <Gold.Chemscore.Hbond.Weighted>
-7.4310

> <Gold.Chemscore.Metal.Weighted>
-0.0000

> <Gold.Chemscore.Lipo.Weighted>
-13.1703

> <Gold.Chemscore.Internal_Hbond.Weighted>
0.0000

> <Gold.Chemscore.DEClash.Weighted>
1.7192

> <Gold.Chemscore.DEInternal.Weighted>
2.7748

> <Gold.Chemscore.Rot.Weighted>
4.2577

> <Gold.Chemscore.Internal.Correction.Weighted>
   9.000000E+99

> <Gold.Protein.RotatedTorsions>
[ 6907 6896 6895 6894 ] final   61.77 input  -60.11 | X-H torsion
[ 7974 7965 7964 7962 ] final   31.26 input  175.53 | X-H torsion
[ 8008 7997 7996 7995 ] final  -59.46 input   59.86 | X-H torsion
[ 10167 10162 10161 10158 ] final  -72.24 input  -65.29 | X-H torsion
[ 10718 10713 10712 10709 ] final   33.88 input   66.30 | X-H torsion
[ 10763 10752 10751 10750 ] final  156.64 input  -60.55 | X-H torsion
[ 11005 11000 10999 10996 ] final  156.20 input  -57.11 | X-H torsion

> <Gold.Protein.ActiveResidues>
 VAL166  LYS551  ARG553  GLY616  TRP617  ASP618  TYR619  PRO620  LYS621  CYS622 
 ASP623  PHE694  ASN695  SER759  ASP760  ASP761  ALA762  ILE779  LEU786  VAL792 
 PHE793  MET794  SER795  GLU796  ALA797  LYS798  CYS799  TRP800  GLU811  SER814 

> <Gold.Protein.RotatedAtoms>
  152.4117  134.6113  160.0026 H   0  0  0  0  0  0  0  0  0  0  0  0  # atno 6907 bound_to 6896
  151.6288  133.3328  159.3112 H   0  0  0  0  0  0  0  0  0  0  0  0  # atno 6908 bound_to 6896
  150.8007  134.7139  159.6664 H   0  0  0  0  0  0  0  0  0  0  0  0  # atno 6909 bound_to 6896
  146.1561  139.6680  142.9065 H   0  0  0  0  0  0  0  0  0  0  0  0  # atno 7974 bound_to 7965
  154.4353  140.1061  156.6119 H   0  0  0  0  0  0  0  0  0  0  0  0  # atno 8008 bound_to 7997
  155.5801  140.3490  155.4519 H   0  0  0  0  0  0  0  0  0  0  0  0  # atno 8009 bound_to 7997
  156.0325  140.1264  157.0232 H   0  0  0  0  0  0  0  0  0  0  0  0  # atno 8010 bound_to 7997
  140.5209  143.2332  151.7432 H   0  0  0  0  0  0  0  0  0  0  0  0  # atno 10167 bound_to 10162
  157.3034  130.7362  149.6680 H   0  0  0  0  0  0  0  0  0  0  0  0  # atno 10718 bound_to 10713
  154.1876  135.2796  155.3032 H   0  0  0  0  0  0  0  0  0  0  0  0  # atno 10763 bound_to 10752
  154.5954  135.5546  153.7324 H   0  0  0  0  0  0  0  0  0  0  0  0  # atno 10764 bound_to 10752
  153.0121  135.6378  154.2014 H   0  0  0  0  0  0  0  0  0  0  0  0  # atno 10765 bound_to 10752
  140.1652  134.8581  157.2623 H   0  0  0  0  0  0  0  0  0  0  0  0  # atno 11005 bound_to 11000
  145.4704  141.0436  143.2701 LP  0  0  0  0  0  0  0  0  0  0  0  0  # atno 17320 bound_to 7965
  144.7965  139.6223  143.7090 LP  0  0  0  0  0  0  0  0  0  0  0  0  # atno 17321 bound_to 7965
  139.4923  144.4256  151.9929 LP  0  0  0  0  0  0  0  0  0  0  0  0  # atno 17342 bound_to 10162
  140.3353  144.3268  150.5978 LP  0  0  0  0  0  0  0  0  0  0  0  0  # atno 17343 bound_to 10162
  155.9673  130.4273  150.4738 LP  0  0  0  0  0  0  0  0  0  0  0  0  # atno 17370 bound_to 10713
  157.2723  131.0589  151.2252 LP  0  0  0  0  0  0  0  0  0  0  0  0  # atno 17371 bound_to 10713
  140.2442  134.3759  155.7468 LP  0  0  0  0  0  0  0  0  0  0  0  0  # atno 17394 bound_to 11000
  141.2213  133.7281  156.8836 LP  0  0  0  0  0  0  0  0  0  0  0  0  # atno 17395 bound_to 11000

$$$$
