AV-unprocessed.smi:2858|AV-procd|sdf|10999|dock6
  -GOLD-   2272015453D 1   1.00000     0.00000
 Structure written by MMmdl.
 40 41  0  0  0  0  0  0  0  0  2 V2000
  152.0997  137.2437  154.8670 O   0  0  0  0  0  0  0  0  0  0  0  0
  150.8800  137.0983  154.8677 C   0  0  0  0  0  0  0  0  0  0  0  0
  149.9794  138.2350  154.3605 C   0  0  0  0  0  0  0  0  0  0  0  0
  148.5863  137.8139  154.0600 N   0  3  2  0  0  0  0  0  0  0  0  0
  147.7248  138.9614  153.6812 C   0  0  0  0  0  0  0  0  0  0  0  0
  147.9053  140.1672  154.6187 C   0  0  0  0  0  0  0  0  0  0  0  0
  148.9665  141.1526  154.1018 C   0  0  0  0  0  0  0  0  0  0  0  0
  149.4077  142.0669  155.1489 N   0  0  0  0  0  0  0  0  0  0  0  0
  150.3178  141.7740  156.0892 C   0  0  0  0  0  0  0  0  0  0  0  0
  150.8762  140.6793  156.1731 O   0  0  0  0  0  0  0  0  0  0  0  0
  150.5151  142.8121  156.9201 N   0  0  0  0  0  0  0  0  0  0  0  0
  151.3618  142.8715  158.0582 C   0  0  0  0  0  0  0  0  0  0  0  0
  151.7990  144.1228  158.5635 C   0  0  0  0  0  0  0  0  0  0  0  0
  152.6151  144.1567  159.7105 C   0  0  0  0  0  0  0  0  0  0  0  0
  152.9655  142.9444  160.3304 C   0  0  0  0  0  0  0  0  0  0  0  0
  152.4734  141.7495  159.7744 C   0  0  0  0  0  0  0  0  0  0  0  0
  151.6889  141.7131  158.6762 N   0  0  0  0  0  0  0  0  0  0  0  0
  148.0190  136.9761  155.1438 C   0  0  0  0  0  0  0  0  0  0  0  0
  148.8664  135.7054  155.3317 C   0  0  0  0  0  0  0  0  0  0  0  0
  150.3032  135.9676  155.3061 N   0  0  0  0  0  0  0  0  0  0  0  0
  149.9656  139.0174  155.1209 H   0  0  0  0  0  0  0  0  0  0  0  0
  150.4281  138.6664  153.4647 H   0  0  0  0  0  0  0  0  0  0  0  0
  147.9151  139.2423  152.6442 H   0  0  0  0  0  0  0  0  0  0  0  0
  146.6799  138.6504  153.7301 H   0  0  0  0  0  0  0  0  0  0  0  0
  146.9532  140.6876  154.7305 H   0  0  0  0  0  0  0  0  0  0  0  0
  148.1898  139.8276  155.6140 H   0  0  0  0  0  0  0  0  0  0  0  0
  149.8238  140.6135  153.6947 H   0  0  0  0  0  0  0  0  0  0  0  0
  148.5571  141.7468  153.2843 H   0  0  0  0  0  0  0  0  0  0  0  0
  148.9959  142.9891  155.1542 H   0  0  0  0  0  0  0  0  0  0  0  0
  149.9098  143.6092  156.7906 H   0  0  0  0  0  0  0  0  0  0  0  0
  151.5111  145.0535  158.0984 H   0  0  0  0  0  0  0  0  0  0  0  0
  152.9609  145.0984  160.1107 H   0  0  0  0  0  0  0  0  0  0  0  0
  153.5891  142.9312  161.2121 H   0  0  0  0  0  0  0  0  0  0  0  0
  152.7124  140.7975  160.2247 H   0  0  0  0  0  0  0  0  0  0  0  0
  147.9983  137.5542  156.0692 H   0  0  0  0  0  0  0  0  0  0  0  0
  146.9903  136.6901  154.9285 H   0  0  0  0  0  0  0  0  0  0  0  0
  148.6052  135.2095  156.2670 H   0  0  0  0  0  0  0  0  0  0  0  0
  148.6476  134.9985  154.5305 H   0  0  0  0  0  0  0  0  0  0  0  0
  150.9077  135.2307  155.6415 H   0  0  0  0  0  0  0  0  0  0  0  0
  148.6483  137.2213  153.2444 H   0  0  0  0  0  0  0  0  0  0  0  0
  1  2  2  0  0  0  0
  2 20  1  0  0  0  0
  2  3  1  0  0  0  0
  3  4  1  0  0  0  0
  3 21  1  0  0  0  0
  3 22  1  0  0  0  0
  4  5  1  0  0  0  0
  4 18  1  0  0  0  0
  4 40  1  0  0  0  0
  5  6  1  0  0  0  0
  5 23  1  0  0  0  0
  5 24  1  0  0  0  0
  6  7  1  0  0  0  0
  6 25  1  0  0  0  0
  6 26  1  0  0  0  0
  7  8  1  0  0  0  0
  7 27  1  0  0  0  0
  7 28  1  0  0  0  0
  8  9  1  0  0  0  0
  8 29  1  0  0  0  0
  9 10  2  0  0  0  0
  9 11  1  0  0  0  0
 11 12  1  0  0  0  0
 11 30  1  0  0  0  0
 12 17  1  0  0  0  0
 12 13  2  0  0  0  0
 13 14  1  0  0  0  0
 13 31  1  0  0  0  0
 14 15  2  0  0  0  0
 14 32  1  0  0  0  0
 15 16  1  0  0  0  0
 15 33  1  0  0  0  0
 16 17  2  0  0  0  0
 16 34  1  0  0  0  0
 18 19  1  0  0  0  0
 18 35  1  0  0  0  0
 18 36  1  0  0  0  0
 19 20  1  0  0  0  0
 19 37  1  0  0  0  0
 19 38  1  0  0  0  0
 20 39  1  0  0  0  0
M  CHG  1   4   1
M  END
> <s_m_source_file>
AV-unprocessed.smi

> <i_m_source_file_index>
2858

> <i_lp_mmshare_version>
43012

> <i_f3d_flags>
0

> <s_epik_input>
Tz1DMVtDSDJdTihbQ0gyXVtDSDJdW05IXTEpW0NIMl1bQ0gyXVtDSDJdW05IXUMoPU8pW05IXWMyW2NIXVtjSF1bY0hdW2NIXW4y

> <s_epik_cmdline>
J2VwaWtfcHl0aG9uJywgJy1waCcsICc3LjAnLCAnLXRuJywgJzgnLCAnLW1hJywgJzIwMCcsICctbWV0YWxfYmluZGluZycsICctaW1hZScsICc8aW5maWxlLm1hZT4nLCAnLW9tYWUnLCAnPG91dGZpbGUubWFlPic=

> <r_epik_Ionization_Penalty>
0.11034

> <r_epik_Ionization_Penalty_Charging>
0.110189

> <r_epik_Ionization_Penalty_Neutral>
0.000150894

> <r_epik_State_Penalty>
0.0999426

> <r_epik_Charging_Adjusted_Penalty>
0.210132

> <i_epik_Tot_Q>
1

> <i_epik_Tot_abs_Q>
1

> <r_epik_Metal_State_Penalty>
0.172915

> <b_epik_Metal_Only>
0

> <s_lp_Force_Field>
OPLS_2005

> <r_lp_Energy>
23.7119

> <b_lp_Chiralities_Consistent>
1

> <s_lp_Variant>
AV-unprocessed.smi:2858-1

> <Gold.Version>
5.8.1

> <Gold.Id.Protein>
6NUR|6NUR_protein|mol2

> <Gold.PLP.Fitness>
50.4433

> <Gold.PLP.PLP>
-37.6351

> <Gold.PLP.part.hbond>
-4.0000

> <Gold.PLP.part.metal>
0.0000

> <Gold.PLP.part.buried>
-5.5095

> <Gold.PLP.part.nonpolar>
-29.6116

> <Gold.PLP.part.repulsive>
0.4515

> <Gold.PLP.ligand.clash>
0.0000

> <Gold.PLP.ligand.torsion>
0.7029

> <Gold.PLP.Chemscore.Hbond>
4.7280

> <Gold.PLP.Chemscore.CHOScore>
0.0000

> <Gold.PLP.Chemscore.Metal>
0.0000

> <Gold.Chemscore.Hbonds>
donor molecule, donor type, donor heavy atom, donor atom, acceptor molecule, acceptor atom, score
      L1  H     4    40       P1  7948  2.00
      L1  H     8    29       P1  8028  1.00
      L1  H    11    30       P1  8028  1.00
      P1  H 10752 10764       L1     1  0.85

> <Gold.PLP.Chemscore.Internal.Correction>
0.0299

> <Gold.Rescore>
     Score         DG    S(hbond)    S(metal)    S(lipo)     H(rot)  DE(clash)    DE(int)     intcor
     20.18     -22.50       3.90        0.00      79.63       2.08       0.18       2.14       ----

> <Gold.Chemscore.Fitness>
20.1802

> <Gold.Chemscore.DG>
-22.4969

> <Gold.Chemscore.ZeroCoef>
-5.4800

> <Gold.Chemscore.Hbond>
3.8978

> <Gold.Chemscore.Metal>
0.0000

> <Gold.Chemscore.Lipo>
79.6322

> <Gold.Chemscore.Internal_Hbond>
0.0000

> <Gold.Chemscore.DEClash>
0.1773

> <Gold.Chemscore.DEInternal>
2.1394

> <Gold.Chemscore.Rot>
2.0777

> <Gold.Chemscore.Internal.Correction>
   9.000000E+99

> <Gold.Chemscore.Hbonds>
donor molecule, donor type, donor heavy atom, donor atom, acceptor molecule, acceptor atom, score
      L1  H     4    40       P1  7948  1.00
      L1  H     8    29       P1  8028  0.98
      L1  H    11    30       P1  8028  0.95
      P1  H 10752 10764       L1     1  0.67

> <Gold.Chemscore.Hbond.Weighted>
-13.0187

> <Gold.Chemscore.Metal.Weighted>
-0.0000

> <Gold.Chemscore.Lipo.Weighted>
-9.3170

> <Gold.Chemscore.Internal_Hbond.Weighted>
0.0000

> <Gold.Chemscore.DEClash.Weighted>
0.1773

> <Gold.Chemscore.DEInternal.Weighted>
2.1394

> <Gold.Chemscore.Rot.Weighted>
5.3188

> <Gold.Chemscore.Internal.Correction.Weighted>
   9.000000E+99

> <Gold.Protein.RotatedTorsions>
[ 6907 6896 6895 6894 ] final  -34.92 input  -60.11 | X-H torsion
[ 7974 7965 7964 7962 ] final  135.33 input  175.53 | X-H torsion
[ 8008 7997 7996 7995 ] final  163.82 input   59.86 | X-H torsion
[ 10167 10162 10161 10158 ] final  142.47 input  -65.29 | X-H torsion
[ 10718 10713 10712 10709 ] final   97.76 input   66.30 | X-H torsion
[ 10763 10752 10751 10750 ] final  -65.62 input  -60.55 | X-H torsion
[ 11005 11000 10999 10996 ] final   87.16 input  -57.11 | X-H torsion

> <Gold.Protein.ActiveResidues>
 VAL166  LYS551  ARG553  GLY616  TRP617  ASP618  TYR619  PRO620  LYS621  CYS622 
 ASP623  PHE694  ASN695  SER759  ASP760  ASP761  ALA762  ILE779  LEU786  VAL792 
 PHE793  MET794  SER795  GLU796  ALA797  LYS798  CYS799  TRP800  GLU811  SER814 

> <Gold.Protein.RotatedAtoms>
  151.0464  134.9643  159.8188 H   0  0  0  0  0  0  0  0  0  0  0  0  # atno 6907 bound_to 6896
  152.5373  134.2592  159.8939 H   0  0  0  0  0  0  0  0  0  0  0  0  # atno 6908 bound_to 6896
  151.2606  133.4261  159.2650 H   0  0  0  0  0  0  0  0  0  0  0  0  # atno 6909 bound_to 6896
  144.9674  139.4643  143.5450 H   0  0  0  0  0  0  0  0  0  0  0  0  # atno 7974 bound_to 7965
  156.1927  140.1713  156.8059 H   0  0  0  0  0  0  0  0  0  0  0  0  # atno 8008 bound_to 7997
  154.5492  140.0721  156.8671 H   0  0  0  0  0  0  0  0  0  0  0  0  # atno 8009 bound_to 7997
  155.3063  140.3364  155.4248 H   0  0  0  0  0  0  0  0  0  0  0  0  # atno 8010 bound_to 7997
  139.4993  144.6104  151.6283 H   0  0  0  0  0  0  0  0  0  0  0  0  # atno 10167 bound_to 10162
  157.6907  131.0619  150.4692 H   0  0  0  0  0  0  0  0  0  0  0  0  # atno 10718 bound_to 10713
  154.3477  135.6143  153.5627 H   0  0  0  0  0  0  0  0  0  0  0  0  # atno 10763 bound_to 10752
  152.9800  135.5785  154.4779 H   0  0  0  0  0  0  0  0  0  0  0  0  # atno 10764 bound_to 10752
  154.4495  135.2852  155.1769 H   0  0  0  0  0  0  0  0  0  0  0  0  # atno 10765 bound_to 10752
  139.8926  134.8404  156.2822 H   0  0  0  0  0  0  0  0  0  0  0  0  # atno 11005 bound_to 11000
  146.3372  139.8864  142.8816 LP  0  0  0  0  0  0  0  0  0  0  0  0  # atno 17320 bound_to 7965
  145.2609  141.0077  143.3827 LP  0  0  0  0  0  0  0  0  0  0  0  0  # atno 17321 bound_to 7965
  140.5778  143.9999  150.6251 LP  0  0  0  0  0  0  0  0  0  0  0  0  # atno 17342 bound_to 10162
  140.3138  143.3181  152.0853 LP  0  0  0  0  0  0  0  0  0  0  0  0  # atno 17343 bound_to 10162
  156.5031  130.4122  149.6342 LP  0  0  0  0  0  0  0  0  0  0  0  0  # atno 17370 bound_to 10713
  156.3309  130.7331  151.2260 LP  0  0  0  0  0  0  0  0  0  0  0  0  # atno 17371 bound_to 10713
  141.0031  133.7139  156.0992 LP  0  0  0  0  0  0  0  0  0  0  0  0  # atno 17394 bound_to 11000
  140.7470  134.4087  157.5547 LP  0  0  0  0  0  0  0  0  0  0  0  0  # atno 17395 bound_to 11000

$$$$
