AV-unprocessed.smi:2045|AV-procd|sdf|8308|dock4
  -GOLD-   2272010573D 1   1.00000     0.00000
 Structure written by MMmdl.
 39 40  0  0  0  0  0  0  0  0  2 V2000
  138.0566  147.5550  155.7898 C   0  0  0  0  0  0  0  0  0  0  0  0
  138.9007  146.5842  155.0376 C   0  0  0  0  0  0  0  0  0  0  0  0
  140.2427  146.3259  155.0335 C   0  0  0  0  0  0  0  0  0  0  0  0
  140.3637  145.2780  154.0828 C   0  0  0  0  0  0  0  0  0  0  0  0
  141.6282  144.7110  153.7805 N   0  0  0  0  0  0  0  0  0  0  0  0
  142.7842  144.8915  154.4417 C   0  0  0  0  0  0  0  0  0  0  0  0
  142.9270  145.5883  155.4469 O   0  0  0  0  0  0  0  0  0  0  0  0
  143.7893  144.2147  153.8671 N   0  0  0  0  0  0  0  0  0  0  0  0
  145.1667  144.2079  154.3468 C   0  0  0  0  0  0  0  0  0  0  0  0
  145.9219  142.9463  153.8836 C   0  0  0  0  0  0  0  0  0  0  0  0
  147.0811  142.6281  154.7548 N   0  3  0  0  0  0  0  0  0  0  0  0
  146.6611  142.0278  156.0484 C   0  0  0  0  0  0  0  0  0  0  0  0
  147.8620  141.8298  156.9890 C   0  0  0  0  0  0  0  0  0  0  0  0
  148.9486  140.9774  156.3215 C   0  0  0  0  0  0  0  0  0  0  0  0
  149.3441  141.5957  154.9748 C   0  0  0  0  0  0  0  0  0  0  0  0
  148.1115  141.7953  154.0768 C   0  0  0  0  0  0  0  0  0  0  0  0
  139.2011  144.9275  153.5547 N   0  0  0  0  0  0  0  0  0  0  0  0
  138.2576  145.7635  154.1634 O   0  0  0  0  0  0  0  0  0  0  0  0
  138.6143  147.9995  156.6142 H   0  0  0  0  0  0  0  0  0  0  0  0
  137.1765  147.0634  156.2045 H   0  0  0  0  0  0  0  0  0  0  0  0
  137.7192  148.3597  155.1365 H   0  0  0  0  0  0  0  0  0  0  0  0
  141.0104  146.8108  155.6182 H   0  0  0  0  0  0  0  0  0  0  0  0
  141.6546  144.1076  152.9719 H   0  0  0  0  0  0  0  0  0  0  0  0
  143.5867  143.6616  153.0468 H   0  0  0  0  0  0  0  0  0  0  0  0
  145.6626  145.1193  154.0118 H   0  0  0  0  0  0  0  0  0  0  0  0
  145.1462  144.2493  155.4361 H   0  0  0  0  0  0  0  0  0  0  0  0
  145.2194  142.1115  153.8986 H   0  0  0  0  0  0  0  0  0  0  0  0
  146.2599  143.0432  152.8509 H   0  0  0  0  0  0  0  0  0  0  0  0
  145.9307  142.6742  156.5366 H   0  0  0  0  0  0  0  0  0  0  0  0
  146.1659  141.0730  155.8636 H   0  0  0  0  0  0  0  0  0  0  0  0
  148.2754  142.8005  157.2660 H   0  0  0  0  0  0  0  0  0  0  0  0
  147.5353  141.3568  157.9156 H   0  0  0  0  0  0  0  0  0  0  0  0
  149.8199  140.8985  156.9722 H   0  0  0  0  0  0  0  0  0  0  0  0
  148.5794  139.9626  156.1678 H   0  0  0  0  0  0  0  0  0  0  0  0
  149.8363  142.5550  155.1409 H   0  0  0  0  0  0  0  0  0  0  0  0
  150.0720  140.9578  154.4727 H   0  0  0  0  0  0  0  0  0  0  0  0
  147.6817  140.8277  153.8122 H   0  0  0  0  0  0  0  0  0  0  0  0
  148.4285  142.2620  153.1449 H   0  0  0  0  0  0  0  0  0  0  0  0
  147.5172  143.5098  154.9835 H   0  0  0  0  0  0  0  0  0  0  0  0
  1  2  1  0  0  0  0
  1 19  1  0  0  0  0
  1 20  1  0  0  0  0
  1 21  1  0  0  0  0
  2 18  1  0  0  0  0
  2  3  2  0  0  0  0
  3  4  1  0  0  0  0
  3 22  1  0  0  0  0
  4  5  1  0  0  0  0
  4 17  2  0  0  0  0
  5  6  1  0  0  0  0
  5 23  1  0  0  0  0
  6  7  2  0  0  0  0
  6  8  1  0  0  0  0
  8  9  1  0  0  0  0
  8 24  1  0  0  0  0
  9 10  1  0  0  0  0
  9 25  1  0  0  0  0
  9 26  1  0  0  0  0
 10 11  1  0  0  0  0
 10 27  1  0  0  0  0
 10 28  1  0  0  0  0
 11 16  1  0  0  0  0
 11 12  1  0  0  0  0
 11 39  1  0  0  0  0
 12 13  1  0  0  0  0
 12 29  1  0  0  0  0
 12 30  1  0  0  0  0
 13 14  1  0  0  0  0
 13 31  1  0  0  0  0
 13 32  1  0  0  0  0
 14 15  1  0  0  0  0
 14 33  1  0  0  0  0
 14 34  1  0  0  0  0
 15 16  1  0  0  0  0
 15 35  1  0  0  0  0
 15 36  1  0  0  0  0
 16 37  1  0  0  0  0
 16 38  1  0  0  0  0
 17 18  1  0  0  0  0
M  CHG  1  11   1
M  END
> <s_m_source_file>
AV-unprocessed.smi

> <i_m_source_file_index>
2045

> <i_lp_mmshare_version>
43012

> <i_f3d_flags>
0

> <s_epik_input>
W0NIM11jMVtjSF1jKG5vMSlbTkhdQyg9TylbTkhdW0NIMl1bQ0gyXU4yW0NIMl1bQ0gyXVtDSDJdW0NIMl1bQ0gyXTI=

> <s_epik_cmdline>
J2VwaWtfcHl0aG9uJywgJy1waCcsICc3LjAnLCAnLXRuJywgJzgnLCAnLW1hJywgJzIwMCcsICctbWV0YWxfYmluZGluZycsICctaW1hZScsICc8aW5maWxlLm1hZT4nLCAnLW9tYWUnLCAnPG91dGZpbGUubWFlPic=

> <r_epik_Ionization_Penalty>
0.00265971

> <r_epik_Ionization_Penalty_Charging>
0.00262393

> <r_epik_Ionization_Penalty_Neutral>
3.57846e-05

> <r_epik_State_Penalty>
0.00182566

> <r_epik_Charging_Adjusted_Penalty>
0.00444959

> <i_epik_Tot_Q>
1

> <i_epik_Tot_abs_Q>
1

> <r_epik_Metal_State_Penalty>
0.0216344

> <b_epik_Metal_Only>
0

> <s_lp_Force_Field>
OPLS_2005

> <r_lp_Energy>
12.4185

> <b_lp_Chiralities_Consistent>
1

> <s_lp_Variant>
AV-unprocessed.smi:2045-1

> <Gold.Version>
5.8.1

> <Gold.Id.Protein>
6NUR|6NUR_protein|mol2

> <Gold.PLP.Fitness>
44.6790

> <Gold.PLP.PLP>
-30.8465

> <Gold.PLP.part.hbond>
-4.7712

> <Gold.PLP.part.metal>
0.0000

> <Gold.PLP.part.buried>
-4.1123

> <Gold.PLP.part.nonpolar>
-22.5860

> <Gold.PLP.part.repulsive>
0.6863

> <Gold.PLP.ligand.clash>
0.0000

> <Gold.PLP.ligand.torsion>
0.4937

> <Gold.PLP.Chemscore.Hbond>
4.9280

> <Gold.PLP.Chemscore.CHOScore>
0.0000

> <Gold.PLP.Chemscore.Metal>
0.0000

> <Gold.Chemscore.Hbonds>
donor molecule, donor type, donor heavy atom, donor atom, acceptor molecule, acceptor atom, score
      L1  H     5    23       P1 10174  0.86
      L1  H     8    24       P1 10174  1.00
      L1  H    11    39       P1  8028  1.70
      P1  H 10162 10167       L1    17  1.00

> <Gold.PLP.Chemscore.Internal.Correction>
0.0359

> <Gold.Rescore>
     Score         DG    S(hbond)    S(metal)    S(lipo)     H(rot)  DE(clash)    DE(int)     intcor
     13.76     -15.90       2.30        0.00      58.01       1.58       0.17       1.97       ----

> <Gold.Chemscore.Fitness>
13.7617

> <Gold.Chemscore.DG>
-15.9044

> <Gold.Chemscore.ZeroCoef>
-5.4800

> <Gold.Chemscore.Hbond>
2.3025

> <Gold.Chemscore.Metal>
0.0000

> <Gold.Chemscore.Lipo>
58.0103

> <Gold.Chemscore.Internal_Hbond>
0.0000

> <Gold.Chemscore.DEClash>
0.1723

> <Gold.Chemscore.DEInternal>
1.9704

> <Gold.Chemscore.Rot>
1.5833

> <Gold.Chemscore.Internal.Correction>
   9.000000E+99

> <Gold.Chemscore.Hbonds>
donor molecule, donor type, donor heavy atom, donor atom, acceptor molecule, acceptor atom, score
      L1  H     5    23       P1 10174  0.80
      L1  H     8    24       P1 10174  0.84
      L1  H    11    39       P1  8028  0.15
      P1  H 10162 10167       L1    17  0.54

> <Gold.Chemscore.Hbond.Weighted>
-7.6904

> <Gold.Chemscore.Metal.Weighted>
-0.0000

> <Gold.Chemscore.Lipo.Weighted>
-6.7872

> <Gold.Chemscore.Internal_Hbond.Weighted>
0.0000

> <Gold.Chemscore.DEClash.Weighted>
0.1723

> <Gold.Chemscore.DEInternal.Weighted>
1.9704

> <Gold.Chemscore.Rot.Weighted>
4.0532

> <Gold.Chemscore.Internal.Correction.Weighted>
   9.000000E+99

> <Gold.Protein.RotatedTorsions>
[ 6907 6896 6895 6894 ] final  -74.12 input  -60.11 | X-H torsion
[ 7974 7965 7964 7962 ] final  119.11 input  175.53 | X-H torsion
[ 8008 7997 7996 7995 ] final  125.04 input   59.86 | X-H torsion
[ 10167 10162 10161 10158 ] final -174.94 input  -65.29 | X-H torsion
[ 10718 10713 10712 10709 ] final   -8.65 input   66.30 | X-H torsion
[ 10763 10752 10751 10750 ] final  -32.73 input  -60.55 | X-H torsion
[ 11005 11000 10999 10996 ] final -179.45 input  -57.11 | X-H torsion

> <Gold.Protein.ActiveResidues>
 VAL166  LYS551  ARG553  GLY616  TRP617  ASP618  TYR619  PRO620  LYS621  CYS622 
 ASP623  PHE694  ASN695  SER759  ASP760  ASP761  ALA762  ILE779  LEU786  VAL792 
 PHE793  MET794  SER795  GLU796  ALA797  LYS798  CYS799  TRP800  GLU811  SER814 

> <Gold.Protein.RotatedAtoms>
  150.7104  134.4915  159.5517 H   0  0  0  0  0  0  0  0  0  0  0  0  # atno 6907 bound_to 6896
  152.2532  134.8108  160.0452 H   0  0  0  0  0  0  0  0  0  0  0  0  # atno 6908 bound_to 6896
  151.8848  133.3468  159.3815 H   0  0  0  0  0  0  0  0  0  0  0  0  # atno 6909 bound_to 6896
  145.1471  139.3233  143.4586 H   0  0  0  0  0  0  0  0  0  0  0  0  # atno 7974 bound_to 7965
  156.2821  140.2725  156.1885 H   0  0  0  0  0  0  0  0  0  0  0  0  # atno 8008 bound_to 7997
  155.0482  140.0386  157.2552 H   0  0  0  0  0  0  0  0  0  0  0  0  # atno 8009 bound_to 7997
  154.7217  140.2689  155.6541 H   0  0  0  0  0  0  0  0  0  0  0  0  # atno 8010 bound_to 7997
  139.5607  144.1877  152.1233 H   0  0  0  0  0  0  0  0  0  0  0  0  # atno 10167 bound_to 10162
  156.6996  130.5089  149.5921 H   0  0  0  0  0  0  0  0  0  0  0  0  # atno 10718 bound_to 10713
  153.8186  135.6876  153.4830 H   0  0  0  0  0  0  0  0  0  0  0  0  # atno 10763 bound_to 10752
  153.1583  135.4590  154.9734 H   0  0  0  0  0  0  0  0  0  0  0  0  # atno 10764 bound_to 10752
  154.7937  135.3311  154.7660 H   0  0  0  0  0  0  0  0  0  0  0  0  # atno 10765 bound_to 10752
  140.4185  134.6627  157.4652 H   0  0  0  0  0  0  0  0  0  0  0  0  # atno 11005 bound_to 11000
  146.3499  140.1530  142.8592 LP  0  0  0  0  0  0  0  0  0  0  0  0  # atno 17320 bound_to 7965
  145.0471  140.8989  143.5018 LP  0  0  0  0  0  0  0  0  0  0  0  0  # atno 17321 bound_to 7965
  140.1390  144.5219  150.6755 LP  0  0  0  0  0  0  0  0  0  0  0  0  # atno 17342 bound_to 10162
  140.6886  143.2363  151.5193 LP  0  0  0  0  0  0  0  0  0  0  0  0  # atno 17343 bound_to 10162
  156.1738  130.6455  151.0870 LP  0  0  0  0  0  0  0  0  0  0  0  0  # atno 17370 bound_to 10713
  157.6978  131.0787  150.6915 LP  0  0  0  0  0  0  0  0  0  0  0  0  # atno 17371 bound_to 10713
  140.0217  134.6538  155.9231 LP  0  0  0  0  0  0  0  0  0  0  0  0  # atno 17394 bound_to 11000
  141.1793  133.6544  156.4955 LP  0  0  0  0  0  0  0  0  0  0  0  0  # atno 17395 bound_to 11000

$$$$
