AV-unprocessed.smi:3049|AV-procd|sdf|11629|dock1
  -GOLD-   2272017 13D 1   1.00000     0.00000
 Structure written by MMmdl.
 53 54  0  0  0  0  0  0  0  0  1 V2000
  150.0719  142.3120  158.1791 C   0  0  0  0  0  0  0  0  0  0  0  0
  151.1862  141.6264  157.3764 C   0  0  0  0  0  0  0  0  0  0  0  0
  150.6691  140.6142  156.3286 C   0  0  0  0  0  0  0  0  0  0  0  0
  151.8308  139.8883  155.6035 C   0  0  0  0  0  0  0  0  0  0  0  0
  151.3768  138.7670  154.6541 C   0  0  0  0  0  0  0  0  0  0  0  0
  149.7277  141.3356  155.3355 C   0  0  0  0  0  0  0  0  0  0  0  0
  150.1792  142.2857  154.6935 O   0  0  0  0  0  0  0  0  0  0  0  0
  148.4567  140.8948  155.1592 N   0  0  0  0  0  0  0  0  0  0  0  0
  147.6186  141.3348  154.0379 C   0  0  0  0  0  0  0  0  0  0  0  0
  147.4743  140.1603  153.0518 C   0  0  0  0  0  0  0  0  0  0  0  0
  146.9118  138.9005  153.7478 C   0  0  0  0  0  0  0  0  0  0  0  0
  146.9809  137.7642  152.8339 N   0  0  0  0  0  0  0  0  0  0  0  0
  145.9392  137.0091  152.4562 C   0  0  0  0  0  0  0  0  0  0  0  0
  144.7915  137.1936  152.8606 O   0  0  0  0  0  0  0  0  0  0  0  0
  146.3299  136.0503  151.5956 N   0  0  0  0  0  0  0  0  0  0  0  0
  145.5629  135.0703  150.9471 C   0  0  0  0  0  0  0  0  0  0  0  0
  144.3942  135.2848  150.3052 C   0  0  0  0  0  0  0  0  0  0  0  0
  143.7065  134.2398  149.6823 N   0  0  0  0  0  0  0  0  0  0  0  0
  144.1289  132.9554  149.6570 C   0  0  0  0  0  0  0  0  0  0  0  0
  143.4669  132.0919  149.0841 O   0  0  0  0  0  0  0  0  0  0  0  0
  145.4009  132.6951  150.3498 C   0  0  0  0  0  0  0  0  0  0  0  0
  145.9317  131.2727  150.3621 C   0  0  0  0  0  0  0  0  0  0  0  0
  146.0630  133.7080  150.9544 C   0  0  0  0  0  0  0  0  0  0  0  0
  147.6658  138.5895  155.0628 C   0  0  0  0  0  0  0  0  0  0  0  0
  147.7826  139.8493  155.9378 C   0  0  0  0  0  0  0  0  0  0  0  0
  142.8380  134.4736  149.2233 H   0  0  0  0  0  0  0  0  0  0  0  0
  150.4896  143.0554  158.8583 H   0  0  0  0  0  0  0  0  0  0  0  0
  149.5095  141.5999  158.7823 H   0  0  0  0  0  0  0  0  0  0  0  0
  149.3702  142.8241  157.5202 H   0  0  0  0  0  0  0  0  0  0  0  0
  151.7662  142.4079  156.8825 H   0  0  0  0  0  0  0  0  0  0  0  0
  151.8761  141.1320  158.0616 H   0  0  0  0  0  0  0  0  0  0  0  0
  150.1168  139.8285  156.8410 H   0  0  0  0  0  0  0  0  0  0  0  0
  152.4438  140.6047  155.0546 H   0  0  0  0  0  0  0  0  0  0  0  0
  152.4956  139.4432  156.3430 H   0  0  0  0  0  0  0  0  0  0  0  0
  152.2380  138.2539  154.2254 H   0  0  0  0  0  0  0  0  0  0  0  0
  150.7810  139.1507  153.8258 H   0  0  0  0  0  0  0  0  0  0  0  0
  150.7778  138.0241  155.1815 H   0  0  0  0  0  0  0  0  0  0  0  0
  146.6388  141.6400  154.4081 H   0  0  0  0  0  0  0  0  0  0  0  0
  148.0221  142.2049  153.5185 H   0  0  0  0  0  0  0  0  0  0  0  0
  146.8291  140.4490  152.2213 H   0  0  0  0  0  0  0  0  0  0  0  0
  148.4520  139.9389  152.6204 H   0  0  0  0  0  0  0  0  0  0  0  0
  145.8669  139.1015  153.9919 H   0  0  0  0  0  0  0  0  0  0  0  0
  147.8900  137.5423  152.4557 H   0  0  0  0  0  0  0  0  0  0  0  0
  147.3144  136.0277  151.3738 H   0  0  0  0  0  0  0  0  0  0  0  0
  143.8889  136.2316  150.2014 H   0  0  0  0  0  0  0  0  0  0  0  0
  146.8806  131.2061  150.8951 H   0  0  0  0  0  0  0  0  0  0  0  0
  146.0915  130.9164  149.3439 H   0  0  0  0  0  0  0  0  0  0  0  0
  145.2219  130.6054  150.8523 H   0  0  0  0  0  0  0  0  0  0  0  0
  146.9944  133.4984  151.4602 H   0  0  0  0  0  0  0  0  0  0  0  0
  147.1526  137.8009  155.6141 H   0  0  0  0  0  0  0  0  0  0  0  0
  148.6654  138.2123  154.8402 H   0  0  0  0  0  0  0  0  0  0  0  0
  148.2656  139.6272  156.8878 H   0  0  0  0  0  0  0  0  0  0  0  0
  146.7852  140.1956  156.2128 H   0  0  0  0  0  0  0  0  0  0  0  0
  1  2  1  0  0  0  0
  1 27  1  0  0  0  0
  1 28  1  0  0  0  0
  1 29  1  0  0  0  0
  2  3  1  0  0  0  0
  2 30  1  0  0  0  0
  2 31  1  0  0  0  0
  3  4  1  0  0  0  0
  3  6  1  0  0  0  0
  3 32  1  0  0  0  0
  4  5  1  0  0  0  0
  4 33  1  0  0  0  0
  4 34  1  0  0  0  0
  5 35  1  0  0  0  0
  5 36  1  0  0  0  0
  5 37  1  0  0  0  0
  6  7  2  0  0  0  0
  6  8  1  0  0  0  0
  8 25  1  0  0  0  0
  8  9  1  0  0  0  0
  9 10  1  0  0  0  0
  9 38  1  0  0  0  0
  9 39  1  0  0  0  0
 10 11  1  0  0  0  0
 10 40  1  0  0  0  0
 10 41  1  0  0  0  0
 11 12  1  0  0  0  0
 11 24  1  0  0  0  0
 11 42  1  0  0  0  0
 12 13  1  0  0  0  0
 12 43  1  0  0  0  0
 13 14  2  0  0  0  0
 13 15  1  0  0  0  0
 15 16  1  0  0  0  0
 15 44  1  0  0  0  0
 16 23  1  0  0  0  0
 16 17  2  0  0  0  0
 17 18  1  0  0  0  0
 17 45  1  0  0  0  0
 18 26  1  0  0  0  0
 18 19  1  0  0  0  0
 19 20  2  0  0  0  0
 19 21  1  0  0  0  0
 21 22  1  0  0  0  0
 21 23  2  0  0  0  0
 22 46  1  0  0  0  0
 22 47  1  0  0  0  0
 22 48  1  0  0  0  0
 23 49  1  0  0  0  0
 24 25  1  0  0  0  0
 24 50  1  0  0  0  0
 24 51  1  0  0  0  0
 25 52  1  0  0  0  0
 25 53  1  0  0  0  0
M  END
> <s_m_source_file>
AV-unprocessed.smi

> <i_m_source_file_index>
3049

> <i_lp_mmshare_version>
43012

> <i_f3d_flags>
0

> <s_epik_input>
W0NIM11bQ0gyXVtDSF0oW0NIMl1bQ0gzXSlDKD1PKU4xW0NIMl1bQ0gyXVtDSF0oW0NIMl1bQ0gyXTEpW05IXUMoPU8pW05IXWMyW2NIXVtuSF1jKD1PKWMoW0NIM10pW2NIXTI=

> <s_epik_cmdline>
J2VwaWtfcHl0aG9uJywgJy1waCcsICc3LjAnLCAnLXRuJywgJzgnLCAnLW1hJywgJzIwMCcsICctbWV0YWxfYmluZGluZycsICctaW1hZScsICc8aW5maWxlLm1hZT4nLCAnLW9tYWUnLCAnPG91dGZpbGUubWFlPic=

> <r_lp_tautomer_probability>
1

> <r_epik_Ionization_Penalty>
4.67669e-05

> <r_epik_Ionization_Penalty_Charging>
2.70095e-05

> <r_epik_Ionization_Penalty_Neutral>
1.97573e-05

> <r_epik_State_Penalty>
-0

> <r_epik_Charging_Adjusted_Penalty>
2.70095e-05

> <i_epik_Tot_Q>
0

> <i_epik_Tot_abs_Q>
0

> <r_epik_Metal_State_Penalty>
0.0201042

> <b_epik_Metal_Only>
0

> <s_lp_Force_Field>
OPLS_2005

> <r_lp_Energy>
36.2408

> <b_lp_Chiralities_Consistent>
1

> <s_lp_Variant>
AV-unprocessed.smi:3049-1

> <Gold.Version>
5.8.1

> <Gold.Id.Protein>
6NUR|6NUR_protein|mol2

> <Gold.PLP.Fitness>
52.8640

> <Gold.PLP.PLP>
-39.6565

> <Gold.PLP.part.hbond>
-6.4195

> <Gold.PLP.part.metal>
0.0000

> <Gold.PLP.part.buried>
3.0104

> <Gold.PLP.part.nonpolar>
-38.2554

> <Gold.PLP.part.repulsive>
2.1510

> <Gold.PLP.ligand.clash>
0.0000

> <Gold.PLP.ligand.torsion>
0.5397

> <Gold.PLP.Chemscore.Hbond>
3.6800

> <Gold.PLP.Chemscore.CHOScore>
1.0000

> <Gold.PLP.Chemscore.Metal>
0.0000

> <Gold.Chemscore.Hbonds>
donor molecule, donor type, donor heavy atom, donor atom, acceptor molecule, acceptor atom, score
      L1  H    12    43       P1  7948  0.93
      L1  H    15    44       P1  7948  1.00
      L1  H    18    26       P1 10186  0.82
      P1  H  7989  7998       L1     7  0.01
      P1  H  8011  8017       L1     7  0.02
      P1  H 10785 10796       L1    20  0.94
      L1  C    17    45       P1 10171  1.00

> <Gold.PLP.Chemscore.Internal.Correction>
0.2469

> <Gold.Rescore>
     Score         DG    S(hbond)    S(metal)    S(lipo)     H(rot)  DE(clash)    DE(int)     intcor
     21.43     -24.70       3.69        0.00      93.15       1.57       2.66       0.60       ----

> <Gold.Chemscore.Fitness>
21.4325

> <Gold.Chemscore.DG>
-24.6960

> <Gold.Chemscore.ZeroCoef>
-5.4800

> <Gold.Chemscore.Hbond>
3.6900

> <Gold.Chemscore.Metal>
0.0000

> <Gold.Chemscore.Lipo>
93.1504

> <Gold.Chemscore.Internal_Hbond>
0.0000

> <Gold.Chemscore.DEClash>
2.6590

> <Gold.Chemscore.DEInternal>
0.6045

> <Gold.Chemscore.Rot>
1.5653

> <Gold.Chemscore.Internal.Correction>
   9.000000E+99

> <Gold.Chemscore.Hbonds>
donor molecule, donor type, donor heavy atom, donor atom, acceptor molecule, acceptor atom, score
      L1  H    12    43       P1  7948  0.90
      L1  H    15    44       P1  7948  0.96
      L1  H    18    26       P1 10186  0.81
      P1  H  8011  8017       L1     7  0.02
      P1  H 10785 10796       L1    20  0.88

> <Gold.Chemscore.Hbond.Weighted>
-12.3245

> <Gold.Chemscore.Metal.Weighted>
-0.0000

> <Gold.Chemscore.Lipo.Weighted>
-10.8986

> <Gold.Chemscore.Internal_Hbond.Weighted>
0.0000

> <Gold.Chemscore.DEClash.Weighted>
2.6590

> <Gold.Chemscore.DEInternal.Weighted>
0.6045

> <Gold.Chemscore.Rot.Weighted>
4.0072

> <Gold.Chemscore.Internal.Correction.Weighted>
   9.000000E+99

> <Gold.Protein.RotatedTorsions>
[ 6907 6896 6895 6894 ] final -160.87 input  -60.11 | X-H torsion
[ 7974 7965 7964 7962 ] final  -53.52 input  175.53 | X-H torsion
[ 8008 7997 7996 7995 ] final  172.57 input   59.86 | X-H torsion
[ 10167 10162 10161 10158 ] final   60.01 input  -65.29 | X-H torsion
[ 10718 10713 10712 10709 ] final -126.35 input   66.30 | X-H torsion
[ 10763 10752 10751 10750 ] final  -21.23 input  -60.55 | X-H torsion
[ 11005 11000 10999 10996 ] final -168.32 input  -57.11 | X-H torsion

> <Gold.Protein.ActiveResidues>
 VAL166  LYS551  ARG553  GLY616  TRP617  ASP618  TYR619  PRO620  LYS621  CYS622 
 ASP623  PHE694  ASN695  SER759  ASP760  ASP761  ALA762  ILE779  LEU786  VAL792 
 PHE793  MET794  SER795  GLU796  ALA797  LYS798  CYS799  TRP800  GLU811  SER814 

> <Gold.Protein.RotatedAtoms>
  151.3558  133.3908  159.2684 H   0  0  0  0  0  0  0  0  0  0  0  0  # atno 6907 bound_to 6896
  150.9765  134.9129  159.7829 H   0  0  0  0  0  0  0  0  0  0  0  0  # atno 6908 bound_to 6896
  152.5202  134.3521  159.9307 H   0  0  0  0  0  0  0  0  0  0  0  0  # atno 6909 bound_to 6896
  145.8959  140.8033  142.9768 H   0  0  0  0  0  0  0  0  0  0  0  0  # atno 7974 bound_to 7965
  156.1161  140.1482  156.9271 H   0  0  0  0  0  0  0  0  0  0  0  0  # atno 8008 bound_to 7997
  154.4801  140.0882  156.7400 H   0  0  0  0  0  0  0  0  0  0  0  0  # atno 8009 bound_to 7997
  155.4511  140.3435  155.4303 H   0  0  0  0  0  0  0  0  0  0  0  0  # atno 8010 bound_to 7997
  140.1703  144.4284  150.6665 H   0  0  0  0  0  0  0  0  0  0  0  0  # atno 10167 bound_to 10162
  156.1757  130.6698  151.0239 H   0  0  0  0  0  0  0  0  0  0  0  0  # atno 10718 bound_to 10713
  153.6329  135.6988  153.5269 H   0  0  0  0  0  0  0  0  0  0  0  0  # atno 10763 bound_to 10752
  153.2844  135.4176  155.1108 H   0  0  0  0  0  0  0  0  0  0  0  0  # atno 10764 bound_to 10752
  154.8518  135.3610  154.5872 H   0  0  0  0  0  0  0  0  0  0  0  0  # atno 10765 bound_to 10752
  140.5433  134.5501  157.5105 H   0  0  0  0  0  0  0  0  0  0  0  0  # atno 11005 bound_to 11000
  144.6733  140.1601  143.7423 LP  0  0  0  0  0  0  0  0  0  0  0  0  # atno 17320 bound_to 7965
  145.8851  139.2344  143.1582 LP  0  0  0  0  0  0  0  0  0  0  0  0  # atno 17321 bound_to 7965
  140.6586  143.2245  151.5909 LP  0  0  0  0  0  0  0  0  0  0  0  0  # atno 17342 bound_to 10162
  139.5341  144.2831  152.1213 LP  0  0  0  0  0  0  0  0  0  0  0  0  # atno 17343 bound_to 10162
  157.6834  131.0832  150.7309 LP  0  0  0  0  0  0  0  0  0  0  0  0  # atno 17370 bound_to 10713
  156.7367  130.4726  149.5487 LP  0  0  0  0  0  0  0  0  0  0  0  0  # atno 17371 bound_to 10713
  139.9493  134.7646  156.0487 LP  0  0  0  0  0  0  0  0  0  0  0  0  # atno 17394 bound_to 11000
  141.1214  133.6611  156.3226 LP  0  0  0  0  0  0  0  0  0  0  0  0  # atno 17395 bound_to 11000

$$$$
