AV-unprocessed.smi:2061|AV-procd|sdf|8385|dock6
  -GOLD-   2272011 63D 1   1.00000     0.00000
 Structure written by MMmdl.
 45 46  0  0  0  0  0  0  0  0  3 V2000
  152.1561  141.6388  158.9047 C   0  0  0  0  0  0  0  0  0  0  0  0
  151.8640  141.2112  157.5070 C   0  0  0  0  0  0  0  0  0  0  0  0
  150.8166  141.4515  156.6638 C   0  0  0  0  0  0  0  0  0  0  0  0
  151.1839  140.7523  155.4817 C   0  0  0  0  0  0  0  0  0  0  0  0
  150.4629  140.6792  154.3523 N   0  5  0  0  0  0  0  0  0  0  0  0
  149.1207  140.8385  154.3912 C   0  0  0  0  0  0  0  0  0  0  0  0
  148.4893  141.5327  155.1911 O   0  0  0  0  0  0  0  0  0  0  0  0
  148.4696  140.1379  153.4509 N   0  0  0  0  0  0  0  0  0  0  0  0
  147.0239  140.1015  153.2430 C   0  0  0  0  0  0  0  0  0  0  0  0
  146.2458  139.5901  154.4838 C   0  0  1  0  0  0  0  0  0  0  0  0
  145.7086  140.7733  155.3266 C   0  0  0  0  0  0  0  0  0  0  0  0
  145.1766  138.6311  154.0509 N   0  3  1  0  0  0  0  0  0  0  0  0
  145.7162  137.4932  153.2604 C   0  0  0  0  0  0  0  0  0  0  0  0
  144.5780  136.6315  152.6893 C   0  0  1  0  0  0  0  0  0  0  0  0
  145.1078  135.4165  151.9198 C   0  0  0  0  0  0  0  0  0  0  0  0
  143.7718  136.1527  153.7595 O   0  0  0  0  0  0  0  0  0  0  0  0
  143.1986  137.1755  154.5705 C   0  0  2  0  0  0  0  0  0  0  0  0
  142.0668  137.9265  153.8458 C   0  0  0  0  0  0  0  0  0  0  0  0
  144.2950  138.1054  155.1296 C   0  0  0  0  0  0  0  0  0  0  0  0
  152.3423  140.1263  155.6037 N   0  0  0  0  0  0  0  0  0  0  0  0
  152.7884  140.4210  156.8977 O   0  0  0  0  0  0  0  0  0  0  0  0
  151.4292  141.2136  159.5967 H   0  0  0  0  0  0  0  0  0  0  0  0
  152.1125  142.7244  158.9921 H   0  0  0  0  0  0  0  0  0  0  0  0
  153.1495  141.3151  159.2165 H   0  0  0  0  0  0  0  0  0  0  0  0
  149.9317  142.0388  156.8580 H   0  0  0  0  0  0  0  0  0  0  0  0
  149.0333  139.5849  152.8217 H   0  0  0  0  0  0  0  0  0  0  0  0
  146.6448  141.0795  152.9421 H   0  0  0  0  0  0  0  0  0  0  0  0
  146.8686  139.4504  152.3852 H   0  0  0  0  0  0  0  0  0  0  0  0
  146.9401  139.0448  155.1255 H   0  0  0  0  0  0  0  0  0  0  0  0
  146.5076  141.4484  155.6309 H   0  0  0  0  0  0  0  0  0  0  0  0
  145.2469  140.4409  156.2561 H   0  0  0  0  0  0  0  0  0  0  0  0
  144.9789  141.3613  154.7690 H   0  0  0  0  0  0  0  0  0  0  0  0
  146.3307  137.8449  152.4341 H   0  0  0  0  0  0  0  0  0  0  0  0
  146.3642  136.8865  153.8953 H   0  0  0  0  0  0  0  0  0  0  0  0
  143.9743  137.2264  152.0036 H   0  0  0  0  0  0  0  0  0  0  0  0
  145.7271  135.7248  151.0770 H   0  0  0  0  0  0  0  0  0  0  0  0
  144.2869  134.8170  151.5255 H   0  0  0  0  0  0  0  0  0  0  0  0
  145.7110  134.7736  152.5614 H   0  0  0  0  0  0  0  0  0  0  0  0
  142.7395  136.6630  155.4165 H   0  0  0  0  0  0  0  0  0  0  0  0
  141.5526  138.6023  154.5295 H   0  0  0  0  0  0  0  0  0  0  0  0
  141.3256  137.2291  153.4548 H   0  0  0  0  0  0  0  0  0  0  0  0
  142.4336  138.5276  153.0142 H   0  0  0  0  0  0  0  0  0  0  0  0
  144.9054  137.5628  155.8533 H   0  0  0  0  0  0  0  0  0  0  0  0
  143.7994  138.9136  155.6666 H   0  0  0  0  0  0  0  0  0  0  0  0
  144.5707  139.1557  153.4359 H   0  0  0  0  0  0  0  0  0  0  0  0
  1  2  1  0  0  0  0
  1 22  1  0  0  0  0
  1 23  1  0  0  0  0
  1 24  1  0  0  0  0
  2 21  1  0  0  0  0
  2  3  2  0  0  0  0
  3  4  1  0  0  0  0
  3 25  1  0  0  0  0
  4  5  1  0  0  0  0
  4 20  2  0  0  0  0
  5  6  1  0  0  0  0
  6  7  2  0  0  0  0
  6  8  1  0  0  0  0
  8  9  1  0  0  0  0
  8 26  1  0  0  0  0
  9 10  1  0  0  0  0
  9 27  1  0  0  0  0
  9 28  1  0  0  0  0
 10 11  1  0  0  0  0
 10 12  1  0  0  0  0
 10 29  1  0  0  0  0
 11 30  1  0  0  0  0
 11 31  1  0  0  0  0
 11 32  1  0  0  0  0
 12 19  1  0  0  0  0
 12 13  1  0  0  0  0
 12 45  1  0  0  0  0
 13 14  1  0  0  0  0
 13 33  1  0  0  0  0
 13 34  1  0  0  0  0
 14 15  1  0  0  0  0
 14 16  1  0  0  0  0
 14 35  1  0  0  0  0
 15 36  1  0  0  0  0
 15 37  1  0  0  0  0
 15 38  1  0  0  0  0
 16 17  1  0  0  0  0
 17 18  1  0  0  0  0
 17 19  1  0  0  0  0
 17 39  1  0  0  0  0
 18 40  1  0  0  0  0
 18 41  1  0  0  0  0
 18 42  1  0  0  0  0
 19 43  1  0  0  0  0
 19 44  1  0  0  0  0
 20 21  1  0  0  0  0
M  CHG  1   5  -1
M  CHG  1  12   1
M  END
> <s_m_source_file>
AV-unprocessed.smi

> <i_m_source_file_index>
2061

> <i_lp_mmshare_version>
43012

> <i_f3d_flags>
0

> <s_epik_input>
W0NIM11jMVtjSF1jKG5vMSlbTkhdQyg9TylbTkhdW0NIMl1bQ0BIXShbQ0gzXSlOMltDSDJdW0NAQEhdKFtDSDNdKU9bQ0BASF0oW0NIM10pW0NIMl0y

> <s_epik_cmdline>
J2VwaWtfcHl0aG9uJywgJy1waCcsICc3LjAnLCAnLXRuJywgJzgnLCAnLW1hJywgJzIwMCcsICctbWV0YWxfYmluZGluZycsICctaW1hZScsICc8aW5maWxlLm1hZT4nLCAnLW9tYWUnLCAnPG91dGZpbGUubWFlPic=

> <r_epik_Ionization_Penalty>
6.73511

> <r_epik_Ionization_Penalty_Charging>
6.73502

> <r_epik_Ionization_Penalty_Neutral>
9.50841e-05

> <r_epik_State_Penalty>
6.93549

> <r_epik_Charging_Adjusted_Penalty>
13.6705

> <i_epik_Tot_Q>
0

> <i_epik_Tot_abs_Q>
2

> <r_epik_Metal_State_Penalty>
2.87211

> <b_epik_Metal_Only>
1

> <s_lp_Force_Field>
OPLS_2005

> <r_lp_Energy>
11.2627

> <b_lp_Chiralities_Consistent>
1

> <s_lp_Variant>
AV-unprocessed.smi:2061-26

> <Gold.Version>
5.8.1

> <Gold.Id.Protein>
6NUR|6NUR_protein|mol2

> <Gold.PLP.Fitness>
43.3132

> <Gold.PLP.PLP>
-31.0751

> <Gold.PLP.part.hbond>
-4.6020

> <Gold.PLP.part.metal>
0.0000

> <Gold.PLP.part.buried>
-2.9032

> <Gold.PLP.part.nonpolar>
-23.6577

> <Gold.PLP.part.repulsive>
0.4254

> <Gold.PLP.ligand.clash>
0.0000

> <Gold.PLP.ligand.torsion>
0.9242

> <Gold.PLP.Chemscore.Hbond>
4.6640

> <Gold.PLP.Chemscore.CHOScore>
0.0000

> <Gold.PLP.Chemscore.Metal>
0.0000

> <Gold.Chemscore.Hbonds>
donor molecule, donor type, donor heavy atom, donor atom, acceptor molecule, acceptor atom, score
      L1  H     8    26       P1  7957  0.56
      L1  H    12    45       P1 10175  2.00
      P1  H  7989  7998       L1     5  0.47
      P1  H  7997  8009       L1    21  0.58

> <Gold.PLP.Chemscore.Internal.Correction>
0.0945

> <Gold.Rescore>
     Score         DG    S(hbond)    S(metal)    S(lipo)     H(rot)  DE(clash)    DE(int)     intcor
     12.44     -15.17       2.24        0.00      53.00       1.56       0.26       2.47       ----

> <Gold.Chemscore.Fitness>
12.4429

> <Gold.Chemscore.DG>
-15.1712

> <Gold.Chemscore.ZeroCoef>
-5.4800

> <Gold.Chemscore.Hbond>
2.2367

> <Gold.Chemscore.Metal>
0.0000

> <Gold.Chemscore.Lipo>
53.0044

> <Gold.Chemscore.Internal_Hbond>
0.0000

> <Gold.Chemscore.DEClash>
0.2566

> <Gold.Chemscore.DEInternal>
2.4716

> <Gold.Chemscore.Rot>
1.5550

> <Gold.Chemscore.Internal.Correction>
   9.000000E+99

> <Gold.Chemscore.Hbonds>
donor molecule, donor type, donor heavy atom, donor atom, acceptor molecule, acceptor atom, score
      L1  H     8    26       P1  7957  0.56
      L1  H    12    45       P1 10175  1.00
      P1  H  7989  7998       L1     5  0.05
      P1  H  7997  8009       L1    21  0.32

> <Gold.Chemscore.Hbond.Weighted>
-7.4705

> <Gold.Chemscore.Metal.Weighted>
-0.0000

> <Gold.Chemscore.Lipo.Weighted>
-6.2015

> <Gold.Chemscore.Internal_Hbond.Weighted>
0.0000

> <Gold.Chemscore.DEClash.Weighted>
0.2566

> <Gold.Chemscore.DEInternal.Weighted>
2.4716

> <Gold.Chemscore.Rot.Weighted>
3.9809

> <Gold.Chemscore.Internal.Correction.Weighted>
   9.000000E+99

> <Gold.Protein.RotatedTorsions>
[ 6907 6896 6895 6894 ] final  -31.20 input  -60.11 | X-H torsion
[ 7974 7965 7964 7962 ] final  -46.90 input  175.53 | X-H torsion
[ 8008 7997 7996 7995 ] final  160.03 input   59.86 | X-H torsion
[ 10167 10162 10161 10158 ] final    6.15 input  -65.29 | X-H torsion
[ 10718 10713 10712 10709 ] final  125.43 input   66.30 | X-H torsion
[ 10763 10752 10751 10750 ] final -127.61 input  -60.55 | X-H torsion
[ 11005 11000 10999 10996 ] final -105.15 input  -57.11 | X-H torsion

> <Gold.Protein.ActiveResidues>
 VAL166  LYS551  ARG553  GLY616  TRP617  ASP618  TYR619  PRO620  LYS621  CYS622 
 ASP623  PHE694  ASN695  SER759  ASP760  ASP761  ALA762  ILE779  LEU786  VAL792 
 PHE793  MET794  SER795  GLU796  ALA797  LYS798  CYS799  TRP800  GLU811  SER814 

> <Gold.Protein.RotatedAtoms>
  151.0953  134.9940  159.8422 H   0  0  0  0  0  0  0  0  0  0  0  0  # atno 6907 bound_to 6896
  152.5432  134.2016  159.8724 H   0  0  0  0  0  0  0  0  0  0  0  0  # atno 6908 bound_to 6896
  151.2055  133.4542  159.2630 H   0  0  0  0  0  0  0  0  0  0  0  0  # atno 6909 bound_to 6896
  145.9672  140.7420  142.9428 H   0  0  0  0  0  0  0  0  0  0  0  0  # atno 7974 bound_to 7965
  156.2200  140.1815  156.7500 H   0  0  0  0  0  0  0  0  0  0  0  0  # atno 8008 bound_to 7997
  154.5850  140.0660  156.9187 H   0  0  0  0  0  0  0  0  0  0  0  0  # atno 8009 bound_to 7997
  155.2436  140.3324  155.4292 H   0  0  0  0  0  0  0  0  0  0  0  0  # atno 8010 bound_to 7997
  140.6443  143.7699  150.7475 H   0  0  0  0  0  0  0  0  0  0  0  0  # atno 10167 bound_to 10162
  157.5504  131.1094  150.8712 H   0  0  0  0  0  0  0  0  0  0  0  0  # atno 10718 bound_to 10713
  154.8753  135.3956  154.3621 H   0  0  0  0  0  0  0  0  0  0  0  0  # atno 10763 bound_to 10752
  153.4392  135.7026  153.6185 H   0  0  0  0  0  0  0  0  0  0  0  0  # atno 10764 bound_to 10752
  153.4773  135.3777  155.2393 H   0  0  0  0  0  0  0  0  0  0  0  0  # atno 10765 bound_to 10752
  141.1067  133.8783  157.1699 H   0  0  0  0  0  0  0  0  0  0  0  0  # atno 11005 bound_to 11000
  144.6828  140.2688  143.7309 LP  0  0  0  0  0  0  0  0  0  0  0  0  # atno 17320 bound_to 7965
  145.7957  139.1944  143.2077 LP  0  0  0  0  0  0  0  0  0  0  0  0  # atno 17321 bound_to 7965
  140.1337  143.4503  152.2238 LP  0  0  0  0  0  0  0  0  0  0  0  0  # atno 17342 bound_to 10162
  139.5653  144.7431  151.4039 LP  0  0  0  0  0  0  0  0  0  0  0  0  # atno 17343 bound_to 10162
  156.9238  130.5325  149.5279 LP  0  0  0  0  0  0  0  0  0  0  0  0  # atno 17370 bound_to 10713
  156.0571  130.5631  150.9116 LP  0  0  0  0  0  0  0  0  0  0  0  0  # atno 17371 bound_to 10713
  139.9941  135.0053  157.0041 LP  0  0  0  0  0  0  0  0  0  0  0  0  # atno 17394 bound_to 11000
  140.4883  134.1219  155.7228 LP  0  0  0  0  0  0  0  0  0  0  0  0  # atno 17395 bound_to 11000

$$$$
