AV-unprocessed.smi:34|AV-procd|sdf|244|dock3
  -GOLD-   2262016 03D 1   1.00000     0.00000
 Structure written by MMmdl.
 54 58  0  0  0  0  0  0  0  0  2 V2000
  152.4599  140.0403  157.1544 O   0  0  0  0  0  0  0  0  0  0  0  0
  151.6413  140.9621  157.1731 C   0  0  0  0  0  0  0  0  0  0  0  0
  150.5025  141.0775  156.4436 N   0  5  0  0  0  0  0  0  0  0  0  0
  150.1443  140.0981  155.5990 C   0  0  0  0  0  0  0  0  0  0  0  0
  151.0746  139.5080  154.8056 N   0  0  0  0  0  0  0  0  0  0  0  0
  150.7225  138.5333  153.9587 C   0  0  0  0  0  0  0  0  0  0  0  0
  149.5148  138.0021  153.7432 N   0  0  0  0  0  0  0  0  0  0  0  0
  148.5704  138.5927  154.5315 C   0  0  0  0  0  0  0  0  0  0  0  0
  148.8036  139.6400  155.4685 C   0  0  0  0  0  0  0  0  0  0  0  0
  147.6214  140.0076  156.0948 N   0  0  0  0  0  0  0  0  0  0  0  0
  146.7466  139.1768  155.5305 C   0  0  0  0  0  0  0  0  0  0  0  0
  147.2170  138.3168  154.6028 N   0  0  0  0  0  0  0  0  0  0  0  0
  146.4954  137.2701  153.8170 C   0  0  1  0  0  0  0  0  0  0  0  0
  145.4066  136.8205  154.5754 O   0  0  0  0  0  0  0  0  0  0  0  0
  144.1725  137.1410  153.9351 C   0  0  1  0  0  0  0  0  0  0  0  0
  143.5809  138.4294  154.5285 C   0  0  0  0  0  0  0  0  0  0  0  0
  142.2122  138.5184  154.1669 O   0  0  0  0  0  0  0  0  0  0  0  0
  141.3332  137.5984  154.6086 C   0  0  0  0  0  0  0  0  0  0  0  0
  141.6623  136.5734  155.2088 O   0  0  0  0  0  0  0  0  0  0  0  0
  139.9185  137.9515  154.2944 C   0  0  0  0  0  0  0  0  0  0  0  0
  138.8768  137.1057  154.7420 C   0  0  0  0  0  0  0  0  0  0  0  0
  137.5317  137.4123  154.4581 C   0  0  0  0  0  0  0  0  0  0  0  0
  137.2116  138.5681  153.7221 C   0  0  0  0  0  0  0  0  0  0  0  0
  138.2387  139.4172  153.2707 C   0  0  0  0  0  0  0  0  0  0  0  0
  139.5844  139.1128  153.5544 C   0  0  0  0  0  0  0  0  0  0  0  0
  144.5492  137.2549  152.4596 C   0  0  2  0  0  0  0  0  0  0  0  0
  144.5988  136.0165  151.9610 F   0  0  0  0  0  0  0  0  0  0  0  0
  145.9352  137.8769  152.5228 C   0  0  2  0  0  0  0  0  0  0  0  0
  146.6854  137.5492  151.3708 O   0  0  0  0  0  0  0  0  0  0  0  0
  151.9172  142.1590  158.0445 C   0  0  0  0  0  0  0  0  0  0  0  0
  152.6785  142.0042  159.2258 C   0  0  0  0  0  0  0  0  0  0  0  0
  152.9243  143.1043  160.0705 C   0  0  0  0  0  0  0  0  0  0  0  0
  152.4051  144.3714  159.7466 C   0  0  0  0  0  0  0  0  0  0  0  0
  151.6360  144.5365  158.5799 C   0  0  0  0  0  0  0  0  0  0  0  0
  151.3876  143.4362  157.7361 C   0  0  0  0  0  0  0  0  0  0  0  0
  151.5259  138.1184  153.3683 H   0  0  0  0  0  0  0  0  0  0  0  0
  145.7059  139.1956  155.8166 H   0  0  0  0  0  0  0  0  0  0  0  0
  147.2187  136.4668  153.6687 H   0  0  0  0  0  0  0  0  0  0  0  0
  143.4700  136.3227  154.1005 H   0  0  0  0  0  0  0  0  0  0  0  0
  143.6558  138.4006  155.6161 H   0  0  0  0  0  0  0  0  0  0  0  0
  144.1271  139.3087  154.1852 H   0  0  0  0  0  0  0  0  0  0  0  0
  139.0981  136.2127  155.3086 H   0  0  0  0  0  0  0  0  0  0  0  0
  136.7446  136.7593  154.8055 H   0  0  0  0  0  0  0  0  0  0  0  0
  136.1803  138.8028  153.5036 H   0  0  0  0  0  0  0  0  0  0  0  0
  137.9947  140.3044  152.7051 H   0  0  0  0  0  0  0  0  0  0  0  0
  140.3475  139.7858  153.1918 H   0  0  0  0  0  0  0  0  0  0  0  0
  143.8379  137.8255  151.8612 H   0  0  0  0  0  0  0  0  0  0  0  0
  145.8551  138.9607  152.6240 H   0  0  0  0  0  0  0  0  0  0  0  0
  147.5166  137.1933  151.6474 H   0  0  0  0  0  0  0  0  0  0  0  0
  153.0829  141.0381  159.4908 H   0  0  0  0  0  0  0  0  0  0  0  0
  153.5100  142.9743  160.9683 H   0  0  0  0  0  0  0  0  0  0  0  0
  152.5929  145.2148  160.3943 H   0  0  0  0  0  0  0  0  0  0  0  0
  151.2317  145.5068  158.3327 H   0  0  0  0  0  0  0  0  0  0  0  0
  150.7837  143.5836  156.8526 H   0  0  0  0  0  0  0  0  0  0  0  0
  1  2  2  0  0  0  0
  2  3  1  0  0  0  0
  2 30  1  0  0  0  0
  3  4  1  0  0  0  0
  4  9  1  0  0  0  0
  4  5  2  0  0  0  0
  5  6  1  0  0  0  0
  6  7  2  0  0  0  0
  6 36  1  0  0  0  0
  7  8  1  0  0  0  0
  8 12  1  0  0  0  0
  8  9  2  0  0  0  0
  9 10  1  0  0  0  0
 10 11  2  0  0  0  0
 11 12  1  0  0  0  0
 11 37  1  0  0  0  0
 12 13  1  0  0  0  0
 13 28  1  0  0  0  0
 13 14  1  0  0  0  0
 13 38  1  0  0  0  0
 14 15  1  0  0  0  0
 15 16  1  0  0  0  0
 15 26  1  0  0  0  0
 15 39  1  0  0  0  0
 16 17  1  0  0  0  0
 16 40  1  0  0  0  0
 16 41  1  0  0  0  0
 17 18  1  0  0  0  0
 18 19  2  0  0  0  0
 18 20  1  0  0  0  0
 20 25  1  0  0  0  0
 20 21  2  0  0  0  0
 21 22  1  0  0  0  0
 21 42  1  0  0  0  0
 22 23  2  0  0  0  0
 22 43  1  0  0  0  0
 23 24  1  0  0  0  0
 23 44  1  0  0  0  0
 24 25  2  0  0  0  0
 24 45  1  0  0  0  0
 25 46  1  0  0  0  0
 26 27  1  0  0  0  0
 26 28  1  0  0  0  0
 26 47  1  0  0  0  0
 28 29  1  0  0  0  0
 28 48  1  0  0  0  0
 29 49  1  0  0  0  0
 30 35  1  0  0  0  0
 30 31  2  0  0  0  0
 31 32  1  0  0  0  0
 31 50  1  0  0  0  0
 32 33  2  0  0  0  0
 32 51  1  0  0  0  0
 33 34  1  0  0  0  0
 33 52  1  0  0  0  0
 34 35  2  0  0  0  0
 34 53  1  0  0  0  0
 35 54  1  0  0  0  0
M  CHG  1   3  -1
M  END
> <s_m_source_file>
AV-unprocessed.smi

> <i_m_source_file_index>
34

> <i_lp_mmshare_version>
43012

> <i_f3d_flags>
0

> <s_epik_input>
W2NIXTFbY0hdW2NIXVtjSF1bY0hdYzFDKD1PKVtOSF1jKG5bY0hdbjIpYyhjMjMpbltjSF1uM1tDQEBIXTRPW0NASF0oW0NAQEhdKEYpW0NASF00W09IXSlbQ0gyXU9DKD1PKWM1W2NIXVtjSF1bY0hdW2NIXVtjSF01

> <s_epik_cmdline>
J2VwaWtfcHl0aG9uJywgJy1waCcsICc3LjAnLCAnLXRuJywgJzgnLCAnLW1hJywgJzIwMCcsICctbWV0YWxfYmluZGluZycsICctaW1hZScsICc8aW5maWxlLm1hZT4nLCAnLW9tYWUnLCAnPG91dGZpbGUubWFlPic=

> <r_lp_tautomer_probability>
1

> <r_epik_Ionization_Penalty>
4.33227

> <r_epik_Ionization_Penalty_Charging>
3.41027

> <r_epik_Ionization_Penalty_Neutral>
0.922001

> <r_epik_State_Penalty>
3.41358

> <r_epik_Charging_Adjusted_Penalty>
6.82385

> <i_epik_Tot_Q>
-1

> <i_epik_Tot_abs_Q>
1

> <r_epik_Metal_State_Penalty>
0.496292

> <b_epik_Metal_Only>
1

> <s_epik_Chemistry_Notes>
This compound has an ester and may undergo hydrolysis at high or low pH. This compound contains an acetal/aminal-like group ( X-CH(R)-Y where X, Y are N, S, or O) that may be acid/base labile, releasing an aldehyde.

> <s_lp_Force_Field>
OPLS_2005

> <r_lp_Energy>
49.0999

> <b_lp_Chiralities_Consistent>
1

> <s_lp_Variant>
AV-unprocessed.smi:34-30

> <Gold.Version>
5.8.1

> <Gold.Id.Protein>
6NUR|6NUR_protein|mol2

> <Gold.PLP.Fitness>
55.0716

> <Gold.PLP.PLP>
-48.3395

> <Gold.PLP.part.hbond>
-4.3801

> <Gold.PLP.part.metal>
0.0000

> <Gold.PLP.part.buried>
-8.7638

> <Gold.PLP.part.nonpolar>
-39.4899

> <Gold.PLP.part.repulsive>
4.0344

> <Gold.PLP.ligand.clash>
0.0000

> <Gold.PLP.ligand.torsion>
1.6225

> <Gold.PLP.Chemscore.Hbond>
3.0000

> <Gold.PLP.Chemscore.CHOScore>
0.2018

> <Gold.PLP.Chemscore.Metal>
0.0000

> <Gold.Chemscore.Hbonds>
donor molecule, donor type, donor heavy atom, donor atom, acceptor molecule, acceptor atom, score
      L1  H    29    49       P1  7948  1.00
      P1  H  7989  7998       L1     5  0.95
      P1  H  7997  8010       L1     1  1.00
      L1  C     6    36       P1  7949  0.16

> <Gold.PLP.Chemscore.Internal.Correction>
0.3717

> <Gold.Rescore>
     Score         DG    S(hbond)    S(metal)    S(lipo)     H(rot)  DE(clash)    DE(int)     intcor
     15.07     -20.59       2.26        0.00     123.50       2.69       1.64       3.88       ----

> <Gold.Chemscore.Fitness>
15.0742

> <Gold.Chemscore.DG>
-20.5922

> <Gold.Chemscore.ZeroCoef>
-5.4800

> <Gold.Chemscore.Hbond>
2.2636

> <Gold.Chemscore.Metal>
0.0000

> <Gold.Chemscore.Lipo>
123.4970

> <Gold.Chemscore.Internal_Hbond>
0.0000

> <Gold.Chemscore.DEClash>
1.6388

> <Gold.Chemscore.DEInternal>
3.8792

> <Gold.Chemscore.Rot>
2.6944

> <Gold.Chemscore.Internal.Correction>
   9.000000E+99

> <Gold.Chemscore.Hbonds>
donor molecule, donor type, donor heavy atom, donor atom, acceptor molecule, acceptor atom, score
      L1  H    29    49       P1  7948  1.00
      P1  H  7989  7998       L1     5  0.13
      P1  H  7997  8010       L1     1  0.96

> <Gold.Chemscore.Hbond.Weighted>
-7.5605

> <Gold.Chemscore.Metal.Weighted>
-0.0000

> <Gold.Chemscore.Lipo.Weighted>
-14.4492

> <Gold.Chemscore.Internal_Hbond.Weighted>
0.0000

> <Gold.Chemscore.DEClash.Weighted>
1.6388

> <Gold.Chemscore.DEInternal.Weighted>
3.8792

> <Gold.Chemscore.Rot.Weighted>
6.8975

> <Gold.Chemscore.Internal.Correction.Weighted>
   9.000000E+99

> <Gold.Protein.RotatedTorsions>
[ 6907 6896 6895 6894 ] final   31.62 input  -60.11 | X-H torsion
[ 7974 7965 7964 7962 ] final -122.05 input  175.53 | X-H torsion
[ 8008 7997 7996 7995 ] final   56.56 input   59.86 | X-H torsion
[ 10167 10162 10161 10158 ] final   -8.48 input  -65.29 | X-H torsion
[ 10718 10713 10712 10709 ] final   33.73 input   66.30 | X-H torsion
[ 10763 10752 10751 10750 ] final  -88.82 input  -60.55 | X-H torsion
[ 11005 11000 10999 10996 ] final  157.90 input  -57.11 | X-H torsion

> <Gold.Protein.ActiveResidues>
 VAL166  LYS551  ARG553  GLY616  TRP617  ASP618  TYR619  PRO620  LYS621  CYS622 
 ASP623  PHE694  ASN695  SER759  ASP760  ASP761  ALA762  ILE779  LEU786  VAL792 
 PHE793  MET794  SER795  GLU796  ALA797  LYS798  CYS799  TRP800  GLU811  SER814 

> <Gold.Protein.RotatedAtoms>
  152.0629  134.9582  160.0574 H   0  0  0  0  0  0  0  0  0  0  0  0  # atno 6907 bound_to 6896
  152.0939  133.4209  159.4564 H   0  0  0  0  0  0  0  0  0  0  0  0  # atno 6908 bound_to 6896
  150.6837  134.2759  159.4651 H   0  0  0  0  0  0  0  0  0  0  0  0  # atno 6909 bound_to 6896
  145.0336  140.8088  143.4308 H   0  0  0  0  0  0  0  0  0  0  0  0  # atno 7974 bound_to 7965
  155.5194  140.3479  155.4404 H   0  0  0  0  0  0  0  0  0  0  0  0  # atno 8008 bound_to 7997
  156.0795  140.1383  156.9757 H   0  0  0  0  0  0  0  0  0  0  0  0  # atno 8009 bound_to 7997
  154.4572  140.0949  156.6766 H   0  0  0  0  0  0  0  0  0  0  0  0  # atno 8010 bound_to 7997
  140.7060  143.5964  150.8842 H   0  0  0  0  0  0  0  0  0  0  0  0  # atno 10167 bound_to 10162
  157.3015  130.7353  149.6670 H   0  0  0  0  0  0  0  0  0  0  0  0  # atno 10718 bound_to 10713
  154.6487  135.5363  153.7875 H   0  0  0  0  0  0  0  0  0  0  0  0  # atno 10763 bound_to 10752
  153.0373  135.6477  154.1050 H   0  0  0  0  0  0  0  0  0  0  0  0  # atno 10764 bound_to 10752
  154.0969  135.2936  155.3240 H   0  0  0  0  0  0  0  0  0  0  0  0  # atno 10765 bound_to 10752
  140.1813  134.8473  157.2806 H   0  0  0  0  0  0  0  0  0  0  0  0  # atno 11005 bound_to 11000
  145.1738  139.2389  143.5328 LP  0  0  0  0  0  0  0  0  0  0  0  0  # atno 17320 bound_to 7965
  146.3501  140.1495  142.8592 LP  0  0  0  0  0  0  0  0  0  0  0  0  # atno 17321 bound_to 7965
  139.9689  143.6079  152.2980 LP  0  0  0  0  0  0  0  0  0  0  0  0  # atno 17342 bound_to 10162
  139.6659  144.7662  151.1874 LP  0  0  0  0  0  0  0  0  0  0  0  0  # atno 17343 bound_to 10162
  155.9672  130.4278  150.4762 LP  0  0  0  0  0  0  0  0  0  0  0  0  # atno 17370 bound_to 10713
  157.2743  131.0594  151.2239 LP  0  0  0  0  0  0  0  0  0  0  0  0  # atno 17371 bound_to 10713
  140.2264  134.3962  155.7542 LP  0  0  0  0  0  0  0  0  0  0  0  0  # atno 17394 bound_to 11000
  141.2223  133.7192  156.8571 LP  0  0  0  0  0  0  0  0  0  0  0  0  # atno 17395 bound_to 11000

$$$$
