AV-unprocessed.smi:2526|AV-procd|sdf|9934|dock4
  -GOLD-   2272013573D 1   1.00000     0.00000
 Structure written by MMmdl.
 29 30  0  0  0  0  0  0  0  0  2 V2000
  151.9408  145.5348  159.3924 C   0  0  0  0  0  0  0  0  0  0  0  0
  151.9236  144.1247  159.0677 N   0  0  0  0  0  0  0  0  0  0  0  0
  151.2581  143.4865  158.0439 C   0  0  0  0  0  0  0  0  0  0  0  0
  151.5448  142.1516  158.1336 C   0  0  0  0  0  0  0  0  0  0  0  0
  151.0697  141.0105  157.2660 C   0  0  2  0  0  0  0  0  0  0  0  0
  152.2082  140.2537  156.7385 N   0  0  0  0  0  0  0  0  0  0  0  0
  152.2904  139.6503  155.5391 C   0  0  0  0  0  0  0  0  0  0  0  0
  153.2727  138.9840  155.2237 O   0  0  0  0  0  0  0  0  0  0  0  0
  151.1462  139.8308  154.5295 C   0  0  0  0  0  0  0  0  0  0  0  0
  149.8498  140.3740  155.1532 C   0  0  0  0  0  0  0  0  0  0  0  0
  150.1485  141.5161  156.1313 C   0  0  1  0  0  0  0  0  0  0  0  0
  148.9039  142.1045  156.6590 N   0  3  0  0  0  0  0  0  0  0  0  0
  152.4115  142.0809  159.2625 C   0  0  0  0  0  0  0  0  0  0  0  0
  152.6330  143.2591  159.8197 N   0  0  0  0  0  0  0  0  0  0  0  0
  151.1068  146.0402  158.9044 H   0  0  0  0  0  0  0  0  0  0  0  0
  152.8761  145.9784  159.0493 H   0  0  0  0  0  0  0  0  0  0  0  0
  151.8538  145.6717  160.4710 H   0  0  0  0  0  0  0  0  0  0  0  0
  150.6398  144.0295  157.3437 H   0  0  0  0  0  0  0  0  0  0  0  0
  150.5045  140.3015  157.8733 H   0  0  0  0  0  0  0  0  0  0  0  0
  152.9915  140.1335  157.3651 H   0  0  0  0  0  0  0  0  0  0  0  0
  151.4953  140.5223  153.7621 H   0  0  0  0  0  0  0  0  0  0  0  0
  150.9510  138.8826  154.0272 H   0  0  0  0  0  0  0  0  0  0  0  0
  149.1847  140.7193  154.3607 H   0  0  0  0  0  0  0  0  0  0  0  0
  149.3240  139.5682  155.6682 H   0  0  0  0  0  0  0  0  0  0  0  0
  150.6626  142.3076  155.5830 H   0  0  0  0  0  0  0  0  0  0  0  0
  148.1113  141.7194  156.1653 H   0  0  0  0  0  0  0  0  0  0  0  0
  148.9247  143.1064  156.5326 H   0  0  0  0  0  0  0  0  0  0  0  0
  152.8816  141.2094  159.6938 H   0  0  0  0  0  0  0  0  0  0  0  0
  148.8240  141.8918  157.6433 H   0  0  0  0  0  0  0  0  0  0  0  0
  1  2  1  0  0  0  0
  1 15  1  0  0  0  0
  1 16  1  0  0  0  0
  1 17  1  0  0  0  0
  2 14  1  0  0  0  0
  2  3  1  0  0  0  0
  3  4  2  0  0  0  0
  3 18  1  0  0  0  0
  4  5  1  0  0  0  0
  4 13  1  0  0  0  0
  5 11  1  0  0  0  0
  5  6  1  0  0  0  0
  5 19  1  0  0  0  0
  6  7  1  0  0  0  0
  6 20  1  0  0  0  0
  7  8  2  0  0  0  0
  7  9  1  0  0  0  0
  9 10  1  0  0  0  0
  9 21  1  0  0  0  0
  9 22  1  0  0  0  0
 10 11  1  0  0  0  0
 10 23  1  0  0  0  0
 10 24  1  0  0  0  0
 11 12  1  0  0  0  0
 11 25  1  0  0  0  0
 12 26  1  0  0  0  0
 12 27  1  0  0  0  0
 12 29  1  0  0  0  0
 13 14  2  0  0  0  0
 13 28  1  0  0  0  0
M  CHG  1  12   1
M  END
> <s_m_source_file>
AV-unprocessed.smi

> <i_m_source_file_index>
2526

> <i_lp_mmshare_version>
43012

> <i_f3d_flags>
0

> <s_epik_input>
W0NIM11uMVtjSF1jKFtjSF1uMSlbQ0BASF0yW05IXUMoPU8pW0NIMl1bQ0gyXVtDQEhdMltOSDJd

> <s_epik_cmdline>
J2VwaWtfcHl0aG9uJywgJy1waCcsICc3LjAnLCAnLXRuJywgJzgnLCAnLW1hJywgJzIwMCcsICctbWV0YWxfYmluZGluZycsICctaW1hZScsICc8aW5maWxlLm1hZT4nLCAnLW9tYWUnLCAnPG91dGZpbGUubWFlPic=

> <r_lp_tautomer_probability>
1

> <r_epik_Ionization_Penalty>
0.00878543

> <r_epik_Ionization_Penalty_Charging>
0.00874185

> <r_epik_Ionization_Penalty_Neutral>
4.35793e-05

> <r_epik_State_Penalty>
0.00660351

> <r_epik_Charging_Adjusted_Penalty>
0.0153454

> <i_epik_Tot_Q>
1

> <i_epik_Tot_abs_Q>
1

> <r_epik_Metal_State_Penalty>
0.00660727

> <b_epik_Metal_Only>
0

> <s_lp_Force_Field>
OPLS_2005

> <r_lp_Energy>
10.7235

> <b_lp_Chiralities_Consistent>
1

> <s_lp_Variant>
AV-unprocessed.smi:2526-1

> <Gold.Version>
5.8.1

> <Gold.Id.Protein>
6NUR|6NUR_protein|mol2

> <Gold.PLP.Fitness>
41.7062

> <Gold.PLP.PLP>
-30.3430

> <Gold.PLP.part.hbond>
-2.0000

> <Gold.PLP.part.metal>
0.0000

> <Gold.PLP.part.buried>
-1.3860

> <Gold.PLP.part.nonpolar>
-27.3913

> <Gold.PLP.part.repulsive>
0.1354

> <Gold.PLP.ligand.clash>
0.0000

> <Gold.PLP.ligand.torsion>
0.0292

> <Gold.PLP.Chemscore.Hbond>
2.8000

> <Gold.PLP.Chemscore.CHOScore>
1.0000

> <Gold.PLP.Chemscore.Metal>
0.0000

> <Gold.Chemscore.Hbonds>
donor molecule, donor type, donor heavy atom, donor atom, acceptor molecule, acceptor atom, score
      L1  H    12    27       P1  8028  2.00
      P1  H  7997  8008       L1     8  0.75
      L1  C     3    18       P1  8028  1.00

> <Gold.PLP.Chemscore.Internal.Correction>
0.0215

> <Gold.Rescore>
     Score         DG    S(hbond)    S(metal)    S(lipo)     H(rot)  DE(clash)    DE(int)     intcor
     14.23     -14.41       1.00        0.00      69.56       1.00       0.14       0.03       ----

> <Gold.Chemscore.Fitness>
14.2324

> <Gold.Chemscore.DG>
-14.4055

> <Gold.Chemscore.ZeroCoef>
-5.4800

> <Gold.Chemscore.Hbond>
1.0021

> <Gold.Chemscore.Metal>
0.0000

> <Gold.Chemscore.Lipo>
69.5597

> <Gold.Chemscore.Internal_Hbond>
0.0000

> <Gold.Chemscore.DEClash>
0.1388

> <Gold.Chemscore.DEInternal>
0.0343

> <Gold.Chemscore.Rot>
1.0000

> <Gold.Chemscore.Internal.Correction>
   9.000000E+99

> <Gold.Chemscore.Hbonds>
donor molecule, donor type, donor heavy atom, donor atom, acceptor molecule, acceptor atom, score
      L1  H    12    27       P1  8028  0.97
      P1  H  7997  8008       L1     8  0.09

> <Gold.Chemscore.Hbond.Weighted>
-3.3470

> <Gold.Chemscore.Metal.Weighted>
-0.0000

> <Gold.Chemscore.Lipo.Weighted>
-8.1385

> <Gold.Chemscore.Internal_Hbond.Weighted>
0.0000

> <Gold.Chemscore.DEClash.Weighted>
0.1388

> <Gold.Chemscore.DEInternal.Weighted>
0.0343

> <Gold.Chemscore.Rot.Weighted>
2.5600

> <Gold.Chemscore.Internal.Correction.Weighted>
   9.000000E+99

> <Gold.Protein.RotatedTorsions>
[ 6907 6896 6895 6894 ] final -139.49 input  -60.11 | X-H torsion
[ 7974 7965 7964 7962 ] final -147.40 input  175.53 | X-H torsion
[ 8008 7997 7996 7995 ] final  -14.26 input   59.86 | X-H torsion
[ 10167 10162 10161 10158 ] final   22.38 input  -65.29 | X-H torsion
[ 10718 10713 10712 10709 ] final  -29.64 input   66.30 | X-H torsion
[ 10763 10752 10751 10750 ] final  -94.13 input  -60.55 | X-H torsion
[ 11005 11000 10999 10996 ] final   26.55 input  -57.11 | X-H torsion

> <Gold.Protein.ActiveResidues>
 VAL166  LYS551  ARG553  GLY616  TRP617  ASP618  TYR619  PRO620  LYS621  CYS622 
 ASP623  PHE694  ASN695  SER759  ASP760  ASP761  ALA762  ILE779  LEU786  VAL792 
 PHE793  MET794  SER795  GLU796  ALA797  LYS798  CYS799  TRP800  GLU811  SER814 

> <Gold.Protein.RotatedAtoms>
  151.0485  133.5645  159.2644 H   0  0  0  0  0  0  0  0  0  0  0  0  # atno 6907 bound_to 6896
  151.2665  135.0670  159.9127 H   0  0  0  0  0  0  0  0  0  0  0  0  # atno 6908 bound_to 6896
  152.5377  134.0222  159.8041 H   0  0  0  0  0  0  0  0  0  0  0  0  # atno 6909 bound_to 6896
  144.8095  140.5331  143.5652 H   0  0  0  0  0  0  0  0  0  0  0  0  # atno 7974 bound_to 7965
  154.5224  140.2227  155.8951 H   0  0  0  0  0  0  0  0  0  0  0  0  # atno 8008 bound_to 7997
  156.1677  140.3128  155.8882 H   0  0  0  0  0  0  0  0  0  0  0  0  # atno 8009 bound_to 7997
  155.3623  140.0462  157.3037 H   0  0  0  0  0  0  0  0  0  0  0  0  # atno 8010 bound_to 7997
  140.5353  143.9771  150.6488 H   0  0  0  0  0  0  0  0  0  0  0  0  # atno 10167 bound_to 10162
  156.4098  130.4406  149.7260 H   0  0  0  0  0  0  0  0  0  0  0  0  # atno 10718 bound_to 10713
  154.7025  135.5169  153.8548 H   0  0  0  0  0  0  0  0  0  0  0  0  # atno 10763 bound_to 10752
  153.0715  135.6603  154.0245 H   0  0  0  0  0  0  0  0  0  0  0  0  # atno 10764 bound_to 10752
  154.0102  135.3003  155.3373 H   0  0  0  0  0  0  0  0  0  0  0  0  # atno 10765 bound_to 10752
  140.3358  134.2387  155.7696 H   0  0  0  0  0  0  0  0  0  0  0  0  # atno 11005 bound_to 11000
  145.5357  139.1475  143.3475 LP  0  0  0  0  0  0  0  0  0  0  0  0  # atno 17320 bound_to 7965
  146.2392  140.5497  142.8941 LP  0  0  0  0  0  0  0  0  0  0  0  0  # atno 17321 bound_to 7965
  140.3157  143.3169  152.0835 LP  0  0  0  0  0  0  0  0  0  0  0  0  # atno 17342 bound_to 10162
  139.4969  144.6607  151.6471 LP  0  0  0  0  0  0  0  0  0  0  0  0  # atno 17343 bound_to 10162
  156.4243  130.7784  151.2802 LP  0  0  0  0  0  0  0  0  0  0  0  0  # atno 17370 bound_to 10713
  157.7506  131.0173  150.3580 LP  0  0  0  0  0  0  0  0  0  0  0  0  # atno 17371 bound_to 10713
  141.2051  133.7867  157.0248 LP  0  0  0  0  0  0  0  0  0  0  0  0  # atno 17394 bound_to 11000
  140.0822  134.9641  157.1643 LP  0  0  0  0  0  0  0  0  0  0  0  0  # atno 17395 bound_to 11000

$$$$
