AV-unprocessed.smi:218|AV-procd|sdf|1670|dock4
  -GOLD-   2262020 83D 1   1.00000     0.00000
 Structure written by MMmdl.
 54 57  0  0  0  0  0  0  0  0  1 V2000
  152.5066  143.5980  158.8370 C   0  0  0  0  0  0  0  0  0  0  0  0
  152.2621  142.3306  159.6648 C   0  0  0  0  0  0  0  0  0  0  0  0
  153.3079  142.1863  160.7839 C   0  0  0  0  0  0  0  0  0  0  0  0
  152.3423  141.2254  158.7626 O   0  0  0  0  0  0  0  0  0  0  0  0
  151.3819  141.0559  157.7839 C   0  0  0  0  0  0  0  0  0  0  0  0
  150.7690  139.7923  157.6623 C   0  0  0  0  0  0  0  0  0  0  0  0
  149.7921  139.6008  156.6635 C   0  0  0  0  0  0  0  0  0  0  0  0
  149.1138  138.2568  156.4945 C   0  0  0  0  0  0  0  0  0  0  0  0
  148.0418  138.2779  155.5086 N   0  0  0  0  0  0  0  0  0  0  0  0
  147.6035  137.1246  154.9612 C   0  0  0  0  0  0  0  0  0  0  0  0
  148.2875  135.9632  155.1344 N   0  0  0  0  0  0  0  0  0  0  0  0
  147.8320  134.8321  154.5872 C   0  0  0  0  0  0  0  0  0  0  0  0
  146.7397  134.6462  153.8429 N   0  0  0  0  0  0  0  0  0  0  0  0
  146.0506  135.8110  153.6655 C   0  0  0  0  0  0  0  0  0  0  0  0
  146.4145  137.0828  154.1882 C   0  0  0  0  0  0  0  0  0  0  0  0
  145.4800  138.0351  153.8024 N   0  0  0  0  0  0  0  0  0  0  0  0
  144.6172  137.3607  153.0899 C   0  0  0  0  0  0  0  0  0  0  0  0
  144.8876  136.0172  152.9515 N   0  0  0  0  0  0  0  0  0  0  0  0
  144.0900  134.9912  152.2071 C   0  0  2  0  0  0  0  0  0  0  0  0
  144.4399  133.7432  152.7148 O   0  0  0  0  0  0  0  0  0  0  0  0
  144.4736  132.7948  151.6586 C   0  0  2  0  0  0  0  0  0  0  0  0
  145.3738  131.6137  152.0517 C   0  0  0  0  0  0  0  0  0  0  0  0
  145.9967  131.0759  150.9045 O   0  0  0  0  0  0  0  0  0  0  0  0
  145.0157  133.6112  150.4815 C   0  0  1  0  0  0  0  0  0  0  0  0
  144.6024  133.0452  149.2538 O   0  0  0  0  0  0  0  0  0  0  0  0
  144.3737  134.9780  150.6872 C   0  0  2  0  0  0  0  0  0  0  0  0
  145.2266  136.0145  150.2341 O   0  0  0  0  0  0  0  0  0  0  0  0
  149.4667  140.6830  155.8217 C   0  0  0  0  0  0  0  0  0  0  0  0
  150.1325  141.9083  156.0196 C   0  0  0  0  0  0  0  0  0  0  0  0
  151.0685  142.0976  156.9736 N   0  0  0  0  0  0  0  0  0  0  0  0
  143.0497  135.2214  152.4408 H   0  0  0  0  0  0  0  0  0  0  0  0
  143.4544  132.4654  151.4440 H   0  0  0  0  0  0  0  0  0  0  0  0
  146.1040  133.6750  150.5304 H   0  0  0  0  0  0  0  0  0  0  0  0
  143.4136  135.0419  150.1725 H   0  0  0  0  0  0  0  0  0  0  0  0
  152.4491  144.4916  159.4592 H   0  0  0  0  0  0  0  0  0  0  0  0
  151.7620  143.6966  158.0466 H   0  0  0  0  0  0  0  0  0  0  0  0
  153.4902  143.5804  158.3665 H   0  0  0  0  0  0  0  0  0  0  0  0
  151.2634  142.4154  160.0959 H   0  0  0  0  0  0  0  0  0  0  0  0
  153.2860  143.0482  161.4514 H   0  0  0  0  0  0  0  0  0  0  0  0
  154.3146  142.1091  160.3728 H   0  0  0  0  0  0  0  0  0  0  0  0
  153.1311  141.2995  161.3919 H   0  0  0  0  0  0  0  0  0  0  0  0
  151.0489  138.9845  158.3225 H   0  0  0  0  0  0  0  0  0  0  0  0
  149.8535  137.5094  156.2045 H   0  0  0  0  0  0  0  0  0  0  0  0
  148.7129  137.9554  157.4631 H   0  0  0  0  0  0  0  0  0  0  0  0
  147.6753  139.1875  155.2667 H   0  0  0  0  0  0  0  0  0  0  0  0
  148.4281  133.9505  154.7713 H   0  0  0  0  0  0  0  0  0  0  0  0
  143.7546  137.8298  152.6396 H   0  0  0  0  0  0  0  0  0  0  0  0
  146.1637  131.9507  152.7233 H   0  0  0  0  0  0  0  0  0  0  0  0
  144.8090  130.8428  152.5769 H   0  0  0  0  0  0  0  0  0  0  0  0
  146.9230  131.2567  150.9530 H   0  0  0  0  0  0  0  0  0  0  0  0
  144.9818  133.5506  148.5508 H   0  0  0  0  0  0  0  0  0  0  0  0
  145.3644  135.9003  149.3055 H   0  0  0  0  0  0  0  0  0  0  0  0
  148.7255  140.5815  155.0427 H   0  0  0  0  0  0  0  0  0  0  0  0
  149.9075  142.7591  155.3938 H   0  0  0  0  0  0  0  0  0  0  0  0
  1  2  1  0  0  0  0
  1 35  1  0  0  0  0
  1 36  1  0  0  0  0
  1 37  1  0  0  0  0
  2  3  1  0  0  0  0
  2  4  1  0  0  0  0
  2 38  1  0  0  0  0
  3 39  1  0  0  0  0
  3 40  1  0  0  0  0
  3 41  1  0  0  0  0
  4  5  1  0  0  0  0
  5 30  1  0  0  0  0
  5  6  2  0  0  0  0
  6  7  1  0  0  0  0
  6 42  1  0  0  0  0
  7  8  1  0  0  0  0
  7 28  2  0  0  0  0
  8  9  1  0  0  0  0
  8 43  1  0  0  0  0
  8 44  1  0  0  0  0
  9 10  1  0  0  0  0
  9 45  1  0  0  0  0
 10 15  1  0  0  0  0
 10 11  2  0  0  0  0
 11 12  1  0  0  0  0
 12 13  2  0  0  0  0
 12 46  1  0  0  0  0
 13 14  1  0  0  0  0
 14 18  1  0  0  0  0
 14 15  2  0  0  0  0
 15 16  1  0  0  0  0
 16 17  2  0  0  0  0
 17 18  1  0  0  0  0
 17 47  1  0  0  0  0
 18 19  1  0  0  0  0
 19 31  1  0  0  0  0
 19 26  1  0  0  0  0
 19 20  1  0  0  0  0
 20 21  1  0  0  0  0
 21 32  1  0  0  0  0
 21 22  1  0  0  0  0
 21 24  1  0  0  0  0
 22 23  1  0  0  0  0
 22 48  1  0  0  0  0
 22 49  1  0  0  0  0
 23 50  1  0  0  0  0
 24 33  1  0  0  0  0
 24 25  1  0  0  0  0
 24 26  1  0  0  0  0
 25 51  1  0  0  0  0
 26 34  1  0  0  0  0
 26 27  1  0  0  0  0
 27 52  1  0  0  0  0
 28 29  1  0  0  0  0
 28 53  1  0  0  0  0
 29 30  2  0  0  0  0
 29 54  1  0  0  0  0
M  END
> <s_m_source_file>
AV-unprocessed.smi

> <i_m_source_file_index>
218

> <i_lp_mmshare_version>
43012

> <i_f3d_flags>
0

> <s_epik_input>
W0NIM11bQ0hdKFtDSDNdKU9jMVtjSF1jKFtjSF1bY0hdbjEpW0NIMl1bTkhdYyhuW2NIXW4yKWMoYzIzKW5bY0hdbjNbQ0BASF00T1tDQEhdKFtDSDJdW09IXSlbQ0BASF0oW09IXSlbQ0BIXTRbT0hd

> <s_epik_cmdline>
J2VwaWtfcHl0aG9uJywgJy1waCcsICc3LjAnLCAnLXRuJywgJzgnLCAnLW1hJywgJzIwMCcsICctbWV0YWxfYmluZGluZycsICctaW1hZScsICc8aW5maWxlLm1hZT4nLCAnLW9tYWUnLCAnPG91dGZpbGUubWFlPic=

> <r_lp_tautomer_probability>
1

> <r_epik_Ionization_Penalty>
0.00457014

> <r_epik_Ionization_Penalty_Charging>
0

> <r_epik_Ionization_Penalty_Neutral>
0.00457014

> <r_epik_State_Penalty>
-0

> <r_epik_Charging_Adjusted_Penalty>
0

> <i_epik_Tot_Q>
0

> <i_epik_Tot_abs_Q>
0

> <r_epik_Metal_State_Penalty>
-0

> <b_epik_Metal_Only>
0

> <s_epik_Chemistry_Notes>
This compound contains an acetal/aminal-like group ( X-CH(R)-Y where X, Y are N, S, or O) that may be acid/base labile, releasing an aldehyde.

> <s_lp_Force_Field>
OPLS_2005

> <r_lp_Energy>
38.9245

> <b_lp_Chiralities_Consistent>
1

> <s_lp_Variant>
AV-unprocessed.smi:218-9

> <Gold.Version>
5.8.1

> <Gold.Id.Protein>
6NUR|6NUR_protein|mol2

> <Gold.PLP.Fitness>
53.1005

> <Gold.PLP.PLP>
-38.6927

> <Gold.PLP.part.hbond>
-3.8811

> <Gold.PLP.part.metal>
0.0000

> <Gold.PLP.part.buried>
-2.1218

> <Gold.PLP.part.nonpolar>
-31.1457

> <Gold.PLP.part.repulsive>
0.5285

> <Gold.PLP.ligand.clash>
0.0000

> <Gold.PLP.ligand.torsion>
1.2555

> <Gold.PLP.Chemscore.Hbond>
2.8564

> <Gold.PLP.Chemscore.CHOScore>
2.6480

> <Gold.PLP.Chemscore.Metal>
0.0000

> <Gold.Chemscore.Hbonds>
donor molecule, donor type, donor heavy atom, donor atom, acceptor molecule, acceptor atom, score
      L1  H    23    50       P1 10747  0.58
      L1  H    25    51       P1  7921  1.00
      L1  H    27    52       P1  7921  0.78
      L1  C    17    47       P1 10171  0.03
      L1  C    17    47       P1 10175  0.64
      L1  C    29    54       P1  8028  1.00

> <Gold.PLP.Chemscore.Internal.Correction>
0.4055

> <Gold.Rescore>
     Score         DG    S(hbond)    S(metal)    S(lipo)     H(rot)  DE(clash)    DE(int)     intcor
      7.44     -11.70       2.59        0.00      86.54       4.90       0.11       4.14       ----

> <Gold.Chemscore.Fitness>
7.4429

> <Gold.Chemscore.DG>
-11.6965

> <Gold.Chemscore.ZeroCoef>
-5.4800

> <Gold.Chemscore.Hbond>
2.5876

> <Gold.Chemscore.Metal>
0.0000

> <Gold.Chemscore.Lipo>
86.5427

> <Gold.Chemscore.Internal_Hbond>
0.0000

> <Gold.Chemscore.DEClash>
0.1133

> <Gold.Chemscore.DEInternal>
4.1404

> <Gold.Chemscore.Rot>
4.9029

> <Gold.Chemscore.Internal.Correction>
   9.000000E+99

> <Gold.Chemscore.Hbonds>
donor molecule, donor type, donor heavy atom, donor atom, acceptor molecule, acceptor atom, score
      L1  H    23    50       P1 10747  0.54
      L1  H    25    51       P1  7921  0.81
      L1  H    27    52       P1  7921  0.74

> <Gold.Chemscore.Hbond.Weighted>
-8.6425

> <Gold.Chemscore.Metal.Weighted>
-0.0000

> <Gold.Chemscore.Lipo.Weighted>
-10.1255

> <Gold.Chemscore.Internal_Hbond.Weighted>
0.0000

> <Gold.Chemscore.DEClash.Weighted>
0.1133

> <Gold.Chemscore.DEInternal.Weighted>
4.1404

> <Gold.Chemscore.Rot.Weighted>
12.5515

> <Gold.Chemscore.Internal.Correction.Weighted>
   9.000000E+99

> <Gold.Protein.RotatedTorsions>
[ 6907 6896 6895 6894 ] final  -42.52 input  -60.11 | X-H torsion
[ 7974 7965 7964 7962 ] final -108.29 input  175.53 | X-H torsion
[ 8008 7997 7996 7995 ] final  -76.57 input   59.86 | X-H torsion
[ 10167 10162 10161 10158 ] final -171.00 input  -65.29 | X-H torsion
[ 10718 10713 10712 10709 ] final  118.59 input   66.30 | X-H torsion
[ 10763 10752 10751 10750 ] final  -49.06 input  -60.55 | X-H torsion
[ 11005 11000 10999 10996 ] final -133.80 input  -57.11 | X-H torsion

> <Gold.Protein.ActiveResidues>
 VAL166  LYS551  ARG553  GLY616  TRP617  ASP618  TYR619  PRO620  LYS621  CYS622 
 ASP623  PHE694  ASN695  SER759  ASP760  ASP761  ALA762  ILE779  LEU786  VAL792 
 PHE793  MET794  SER795  GLU796  ALA797  LYS798  CYS799  TRP800  GLU811  SER814 

> <Gold.Protein.RotatedAtoms>
  150.9543  134.8939  159.7691 H   0  0  0  0  0  0  0  0  0  0  0  0  # atno 6907 bound_to 6896
  152.5132  134.3762  159.9345 H   0  0  0  0  0  0  0  0  0  0  0  0  # atno 6908 bound_to 6896
  151.3777  133.3792  159.2741 H   0  0  0  0  0  0  0  0  0  0  0  0  # atno 6909 bound_to 6896
  145.1948  140.9030  143.3404 H   0  0  0  0  0  0  0  0  0  0  0  0  # atno 7974 bound_to 7965
  154.5517  140.0725  156.8678 H   0  0  0  0  0  0  0  0  0  0  0  0  # atno 8008 bound_to 7997
  155.2980  140.3382  155.4231 H   0  0  0  0  0  0  0  0  0  0  0  0  # atno 8009 bound_to 7997
  156.1967  140.1706  156.7969 H   0  0  0  0  0  0  0  0  0  0  0  0  # atno 8010 bound_to 7997
  139.5828  144.1385  152.1537 H   0  0  0  0  0  0  0  0  0  0  0  0  # atno 10167 bound_to 10162
  157.6020  131.1049  150.7777 H   0  0  0  0  0  0  0  0  0  0  0  0  # atno 10718 bound_to 10713
  154.0879  135.6581  153.4848 H   0  0  0  0  0  0  0  0  0  0  0  0  # atno 10763 bound_to 10752
  153.0332  135.5195  154.7410 H   0  0  0  0  0  0  0  0  0  0  0  0  # atno 10764 bound_to 10752
  154.6524  135.3003  154.9938 H   0  0  0  0  0  0  0  0  0  0  0  0  # atno 10765 bound_to 10752
  140.9048  134.1644  157.4434 H   0  0  0  0  0  0  0  0  0  0  0  0  # atno 11005 bound_to 11000
  145.0006  139.3602  143.6169 LP  0  0  0  0  0  0  0  0  0  0  0  0  # atno 17320 bound_to 7965
  146.3429  139.9227  142.8764 LP  0  0  0  0  0  0  0  0  0  0  0  0  # atno 17321 bound_to 7965
  140.0942  144.5595  150.7033 LP  0  0  0  0  0  0  0  0  0  0  0  0  # atno 17342 bound_to 10162
  140.7104  143.2500  151.4598 LP  0  0  0  0  0  0  0  0  0  0  0  0  # atno 17343 bound_to 10162
  156.8174  130.4972  149.5347 LP  0  0  0  0  0  0  0  0  0  0  0  0  # atno 17370 bound_to 10713
  156.1095  130.6030  151.0025 LP  0  0  0  0  0  0  0  0  0  0  0  0  # atno 17371 bound_to 10713
  139.8747  134.9912  156.5539 LP  0  0  0  0  0  0  0  0  0  0  0  0  # atno 17394 bound_to 11000
  140.8185  133.8372  155.8874 LP  0  0  0  0  0  0  0  0  0  0  0  0  # atno 17395 bound_to 11000

$$$$
