AV-unprocessed.smi:306|AV-procd|sdf|2282|dock1
  -GOLD-   2262022183D 1   1.00000     0.00000
 Structure written by MMmdl.
 47 49  0  0  0  0  0  0  0  0  1 V2000
  144.2869  142.9305  161.5816 C   0  0  0  0  0  0  0  0  0  0  0  0
  145.2708  143.9863  162.0987 C   0  0  0  0  0  0  0  0  0  0  0  0
  146.5163  144.0545  161.2610 C   0  0  0  0  0  0  0  0  0  0  0  0
  147.5923  144.9803  161.3606 C   0  0  0  0  0  0  0  0  0  0  0  0
  148.4568  144.6026  160.3721 C   0  0  0  0  0  0  0  0  0  0  0  0
  149.7771  145.1848  159.9740 C   0  0  0  0  0  0  0  0  0  0  0  0
  150.9624  144.2669  160.2911 C   0  0  0  0  0  0  0  0  0  0  0  0
  147.8862  143.5126  159.7395 N   0  0  0  0  0  0  0  0  0  0  0  0
  148.3944  142.7676  158.6575 C   0  0  0  0  0  0  0  0  0  0  0  0
  149.6282  142.2591  158.6205 N   0  0  0  0  0  0  0  0  0  0  0  0
  149.6717  141.6607  157.3694 C   0  0  0  0  0  0  0  0  0  0  0  0
  148.4966  141.8274  156.7084 C   0  0  0  0  0  0  0  0  0  0  0  0
  148.2782  141.3196  155.3476 C   0  0  0  0  0  0  0  0  0  0  0  0
  147.2287  141.4700  154.7259 O   0  0  0  0  0  0  0  0  0  0  0  0
  149.3576  140.6737  154.8430 N   0  0  0  0  0  0  0  0  0  0  0  0
  150.5646  140.4679  155.4532 C   0  0  0  0  0  0  0  0  0  0  0  0
  151.4583  139.8639  154.8603 O   0  0  0  0  0  0  0  0  0  0  0  0
  150.7282  140.9567  156.7243 N   0  0  0  0  0  0  0  0  0  0  0  0
  151.9999  140.7677  157.4248 C   0  0  0  0  0  0  0  0  0  0  0  0
  147.6444  142.5431  157.5500 N   0  0  0  0  0  0  0  0  0  0  0  0
  146.2724  142.9757  157.3017 C   0  0  0  0  0  0  0  0  0  0  0  0
  145.3857  141.8316  156.7907 C   0  0  0  0  0  0  0  0  0  0  0  0
  144.3536  142.3491  155.9669 O   0  0  0  0  0  0  0  0  0  0  0  0
  144.8484  143.1823  154.9345 C   0  0  0  0  0  0  0  0  0  0  0  0
  146.7002  143.1761  160.2886 N   0  0  0  0  0  0  0  0  0  0  0  0
  149.2614  140.3060  153.9078 H   0  0  0  0  0  0  0  0  0  0  0  0
  143.3892  142.9020  162.1993 H   0  0  0  0  0  0  0  0  0  0  0  0
  144.7324  141.9352  161.5959 H   0  0  0  0  0  0  0  0  0  0  0  0
  143.9805  143.1468  160.5578 H   0  0  0  0  0  0  0  0  0  0  0  0
  144.7806  144.9603  162.1117 H   0  0  0  0  0  0  0  0  0  0  0  0
  145.5290  143.7654  163.1350 H   0  0  0  0  0  0  0  0  0  0  0  0
  147.7123  145.7984  162.0552 H   0  0  0  0  0  0  0  0  0  0  0  0
  149.7761  145.4171  158.9085 H   0  0  0  0  0  0  0  0  0  0  0  0
  149.9167  146.1379  160.4847 H   0  0  0  0  0  0  0  0  0  0  0  0
  151.9028  144.7308  159.9938 H   0  0  0  0  0  0  0  0  0  0  0  0
  150.8806  143.3160  159.7647 H   0  0  0  0  0  0  0  0  0  0  0  0
  151.0185  144.0539  161.3589 H   0  0  0  0  0  0  0  0  0  0  0  0
  152.2834  139.7143  157.4369 H   0  0  0  0  0  0  0  0  0  0  0  0
  151.9601  141.1005  158.4617 H   0  0  0  0  0  0  0  0  0  0  0  0
  152.7929  141.3287  156.9291 H   0  0  0  0  0  0  0  0  0  0  0  0
  145.8557  143.4007  158.2130 H   0  0  0  0  0  0  0  0  0  0  0  0
  146.2796  143.7920  156.5796 H   0  0  0  0  0  0  0  0  0  0  0  0
  145.9909  141.1183  156.2295 H   0  0  0  0  0  0  0  0  0  0  0  0
  144.9528  141.2925  157.6341 H   0  0  0  0  0  0  0  0  0  0  0  0
  144.0168  143.5621  154.3412 H   0  0  0  0  0  0  0  0  0  0  0  0
  145.5133  142.6311  154.2686 H   0  0  0  0  0  0  0  0  0  0  0  0
  145.3894  144.0371  155.3423 H   0  0  0  0  0  0  0  0  0  0  0  0
  1  2  1  0  0  0  0
  1 27  1  0  0  0  0
  1 28  1  0  0  0  0
  1 29  1  0  0  0  0
  2  3  1  0  0  0  0
  2 30  1  0  0  0  0
  2 31  1  0  0  0  0
  3 25  2  0  0  0  0
  3  4  1  0  0  0  0
  4  5  2  0  0  0  0
  4 32  1  0  0  0  0
  5  6  1  0  0  0  0
  5  8  1  0  0  0  0
  6  7  1  0  0  0  0
  6 33  1  0  0  0  0
  6 34  1  0  0  0  0
  7 35  1  0  0  0  0
  7 36  1  0  0  0  0
  7 37  1  0  0  0  0
  8  9  1  0  0  0  0
  8 25  1  0  0  0  0
  9 20  1  0  0  0  0
  9 10  2  0  0  0  0
 10 11  1  0  0  0  0
 11 18  1  0  0  0  0
 11 12  2  0  0  0  0
 12 13  1  0  0  0  0
 12 20  1  0  0  0  0
 13 14  2  0  0  0  0
 13 15  1  0  0  0  0
 15 26  1  0  0  0  0
 15 16  1  0  0  0  0
 16 17  2  0  0  0  0
 16 18  1  0  0  0  0
 18 19  1  0  0  0  0
 19 38  1  0  0  0  0
 19 39  1  0  0  0  0
 19 40  1  0  0  0  0
 20 21  1  0  0  0  0
 21 22  1  0  0  0  0
 21 41  1  0  0  0  0
 21 42  1  0  0  0  0
 22 23  1  0  0  0  0
 22 43  1  0  0  0  0
 22 44  1  0  0  0  0
 23 24  1  0  0  0  0
 24 45  1  0  0  0  0
 24 46  1  0  0  0  0
 24 47  1  0  0  0  0
M  END
> <s_m_source_file>
AV-unprocessed.smi

> <i_m_source_file_index>
306

> <i_lp_mmshare_version>
43012

> <i_f3d_flags>
0

> <s_epik_input>
W0NIM11bQ0gyXWMxW2NIXWMoW0NIMl1bQ0gzXSluKG4xKS1jKG4yKW4oW0NIMl1bQ0gyXU9bQ0gzXSljKGMyMyljKD1PKVtuSF1jKD1PKW4zW0NIM10=

> <s_epik_cmdline>
J2VwaWtfcHl0aG9uJywgJy1waCcsICc3LjAnLCAnLXRuJywgJzgnLCAnLW1hJywgJzIwMCcsICctbWV0YWxfYmluZGluZycsICctaW1hZScsICc8aW5maWxlLm1hZT4nLCAnLW9tYWUnLCAnPG91dGZpbGUubWFlPic=

> <r_lp_tautomer_probability>
1

> <r_epik_Ionization_Penalty>
0.00167575

> <r_epik_Ionization_Penalty_Charging>
0.000731299

> <r_epik_Ionization_Penalty_Neutral>
0.000944451

> <r_epik_State_Penalty>
-0

> <r_epik_Charging_Adjusted_Penalty>
0.000731299

> <i_epik_Tot_Q>
0

> <i_epik_Tot_abs_Q>
0

> <r_epik_Metal_State_Penalty>
0.260571

> <b_epik_Metal_Only>
0

> <s_lp_Force_Field>
OPLS_2005

> <r_lp_Energy>
22.9752

> <b_lp_Chiralities_Consistent>
1

> <s_lp_Variant>
AV-unprocessed.smi:306-1

> <Gold.Version>
5.8.1

> <Gold.Id.Protein>
6NUR|6NUR_protein|mol2

> <Gold.PLP.Fitness>
39.7065

> <Gold.PLP.PLP>
-37.7802

> <Gold.PLP.part.hbond>
-1.9355

> <Gold.PLP.part.metal>
0.0000

> <Gold.PLP.part.buried>
-5.7548

> <Gold.PLP.part.nonpolar>
-30.9032

> <Gold.PLP.part.repulsive>
0.5471

> <Gold.PLP.ligand.clash>
0.0000

> <Gold.PLP.ligand.torsion>
1.3339

> <Gold.PLP.Chemscore.Hbond>
1.2579

> <Gold.PLP.Chemscore.CHOScore>
0.0000

> <Gold.PLP.Chemscore.Metal>
0.0000

> <Gold.Chemscore.Hbonds>
donor molecule, donor type, donor heavy atom, donor atom, acceptor molecule, acceptor atom, score
      P1  H  6934  6946       L1    25  0.17
      P1  H  7989  7998       L1    17  1.00

> <Gold.PLP.Chemscore.Internal.Correction>
0.8203

> <Gold.Rescore>
     Score         DG    S(hbond)    S(metal)    S(lipo)     H(rot)  DE(clash)    DE(int)     intcor
      8.54     -11.12       0.85        0.00      64.39       1.85       0.38       2.20       ----

> <Gold.Chemscore.Fitness>
8.5411

> <Gold.Chemscore.DG>
-11.1209

> <Gold.Chemscore.ZeroCoef>
-5.4800

> <Gold.Chemscore.Hbond>
0.8495

> <Gold.Chemscore.Metal>
0.0000

> <Gold.Chemscore.Lipo>
64.3946

> <Gold.Chemscore.Internal_Hbond>
0.0000

> <Gold.Chemscore.DEClash>
0.3751

> <Gold.Chemscore.DEInternal>
2.2047

> <Gold.Chemscore.Rot>
1.8480

> <Gold.Chemscore.Internal.Correction>
   9.000000E+99

> <Gold.Chemscore.Hbonds>
donor molecule, donor type, donor heavy atom, donor atom, acceptor molecule, acceptor atom, score
      P1  H  6934  6946       L1    25  0.08
      P1  H  7989  7998       L1    17  0.25

> <Gold.Chemscore.Hbond.Weighted>
-2.8375

> <Gold.Chemscore.Metal.Weighted>
-0.0000

> <Gold.Chemscore.Lipo.Weighted>
-7.5342

> <Gold.Chemscore.Internal_Hbond.Weighted>
0.0000

> <Gold.Chemscore.DEClash.Weighted>
0.3751

> <Gold.Chemscore.DEInternal.Weighted>
2.2047

> <Gold.Chemscore.Rot.Weighted>
4.7308

> <Gold.Chemscore.Internal.Correction.Weighted>
   9.000000E+99

> <Gold.Protein.RotatedTorsions>
[ 6907 6896 6895 6894 ] final   22.35 input  -60.11 | X-H torsion
[ 7974 7965 7964 7962 ] final  -77.04 input  175.53 | X-H torsion
[ 8008 7997 7996 7995 ] final   98.30 input   59.86 | X-H torsion
[ 10167 10162 10161 10158 ] final  -71.68 input  -65.29 | X-H torsion
[ 10718 10713 10712 10709 ] final   -1.53 input   66.30 | X-H torsion
[ 10763 10752 10751 10750 ] final -150.86 input  -60.55 | X-H torsion
[ 11005 11000 10999 10996 ] final  -58.77 input  -57.11 | X-H torsion

> <Gold.Protein.ActiveResidues>
 VAL166  LYS551  ARG553  GLY616  TRP617  ASP618  TYR619  PRO620  LYS621  CYS622 
 ASP623  PHE694  ASN695  SER759  ASP760  ASP761  ALA762  ILE779  LEU786  VAL792 
 PHE793  MET794  SER795  GLU796  ALA797  LYS798  CYS799  TRP800  GLU811  SER814 

> <Gold.Protein.RotatedAtoms>
  151.9258  135.0278  160.0525 H   0  0  0  0  0  0  0  0  0  0  0  0  # atno 6907 bound_to 6896
  152.2161  133.4943  159.5145 H   0  0  0  0  0  0  0  0  0  0  0  0  # atno 6908 bound_to 6896
  150.6988  134.1321  159.4116 H   0  0  0  0  0  0  0  0  0  0  0  0  # atno 6909 bound_to 6896
  145.6050  140.9400  143.1220 H   0  0  0  0  0  0  0  0  0  0  0  0  # atno 7974 bound_to 7965
  156.0990  140.3246  155.7917 H   0  0  0  0  0  0  0  0  0  0  0  0  # atno 8008 bound_to 7997
  155.4869  140.0558  157.2976 H   0  0  0  0  0  0  0  0  0  0  0  0  # atno 8009 bound_to 7997
  154.4685  140.2000  156.0071 H   0  0  0  0  0  0  0  0  0  0  0  0  # atno 8010 bound_to 7997
  140.5253  143.2327  151.7358 H   0  0  0  0  0  0  0  0  0  0  0  0  # atno 10167 bound_to 10162
  156.8042  130.5403  149.5717 H   0  0  0  0  0  0  0  0  0  0  0  0  # atno 10718 bound_to 10713
  154.8093  135.3274  154.7347 H   0  0  0  0  0  0  0  0  0  0  0  0  # atno 10763 bound_to 10752
  153.7999  135.6904  153.4862 H   0  0  0  0  0  0  0  0  0  0  0  0  # atno 10764 bound_to 10752
  153.1861  135.4568  155.0036 H   0  0  0  0  0  0  0  0  0  0  0  0  # atno 10765 bound_to 10752
  141.1221  133.6613  156.4970 H   0  0  0  0  0  0  0  0  0  0  0  0  # atno 11005 bound_to 11000
  144.7294  139.7773  143.7353 LP  0  0  0  0  0  0  0  0  0  0  0  0  # atno 17320 bound_to 7965
  146.1548  139.4642  143.0026 LP  0  0  0  0  0  0  0  0  0  0  0  0  # atno 17321 bound_to 7965
  139.4936  144.4194  151.9994 LP  0  0  0  0  0  0  0  0  0  0  0  0  # atno 17342 bound_to 10162
  140.3293  144.3335  150.5991 LP  0  0  0  0  0  0  0  0  0  0  0  0  # atno 17343 bound_to 10162
  156.1083  130.6021  151.0006 LP  0  0  0  0  0  0  0  0  0  0  0  0  # atno 17370 bound_to 10713
  157.6538  131.0892  150.7992 LP  0  0  0  0  0  0  0  0  0  0  0  0  # atno 17371 bound_to 10713
  140.4477  134.6958  157.5024 LP  0  0  0  0  0  0  0  0  0  0  0  0  # atno 17394 bound_to 11000
  140.0187  134.6580  155.9272 LP  0  0  0  0  0  0  0  0  0  0  0  0  # atno 17395 bound_to 11000

$$$$
