AV-unprocessed.smi:559|AV-procd|sdf|2925|dock8
  -GOLD-   2262023413D 1   1.00000     0.00000
 Structure written by MMmdl.
 41 42  0  0  0  0  0  0  0  0  1 V2000
  143.2972  132.6939  148.4301 C   0  0  0  0  0  0  0  0  0  0  0  0
  144.0653  132.6116  149.7181 C   0  0  0  0  0  0  0  0  0  0  0  0
  144.4053  131.4271  150.1971 N   0  0  0  0  0  0  0  0  0  0  0  0
  145.0693  131.6932  151.3392 N   0  0  0  0  0  0  0  0  0  0  0  0
  145.5840  130.5817  152.1163 C   0  0  0  0  0  0  0  0  0  0  0  0
  145.1520  133.0524  151.5816 C   0  0  0  0  0  0  0  0  0  0  0  0
  145.8386  133.6140  152.7855 C   0  0  0  0  0  0  0  0  0  0  0  0
  144.5092  133.6822  150.5482 C   0  0  0  0  0  0  0  0  0  0  0  0
  144.3045  135.1590  150.3179 C   0  0  0  0  0  0  0  0  0  0  0  0
  143.6858  135.8034  151.5594 C   0  0  0  0  0  0  0  0  0  0  0  0
  143.1530  135.0998  152.4167 O   0  0  0  0  0  0  0  0  0  0  0  0
  143.7546  137.1419  151.6371 N   0  0  0  0  0  0  0  0  0  0  0  0
  143.2414  137.9590  152.7318 C   0  0  0  0  0  0  0  0  0  0  0  0
  141.7035  138.0551  152.7130 C   0  0  1  0  0  0  0  0  0  0  0  0
  140.9962  136.9497  153.5263 C   0  0  0  0  0  0  0  0  0  0  0  0
  139.5166  137.3174  153.6754 C   0  0  0  0  0  0  0  0  0  0  0  0
  139.4677  139.1450  153.7704 S   0  0  0  0  0  0  0  0  0  0  0  0
  138.5529  139.6534  152.7371 O   0  0  0  0  0  0  0  0  0  0  0  0
  139.3310  139.5614  155.1743 O   0  0  0  0  0  0  0  0  0  0  0  0
  141.2015  139.4094  153.2375 C   0  0  0  0  0  0  0  0  0  0  0  0
  142.4492  133.3721  148.5239 H   0  0  0  0  0  0  0  0  0  0  0  0
  142.9077  131.7211  148.1277 H   0  0  0  0  0  0  0  0  0  0  0  0
  143.9302  133.0638  147.6236 H   0  0  0  0  0  0  0  0  0  0  0  0
  145.9605  130.9230  153.0801 H   0  0  0  0  0  0  0  0  0  0  0  0
  146.3955  130.0992  151.5711 H   0  0  0  0  0  0  0  0  0  0  0  0
  144.7905  129.8542  152.2907 H   0  0  0  0  0  0  0  0  0  0  0  0
  145.7838  134.7020  152.8037 H   0  0  0  0  0  0  0  0  0  0  0  0
  146.8918  133.3330  152.7972 H   0  0  0  0  0  0  0  0  0  0  0  0
  145.3776  133.2449  153.7019 H   0  0  0  0  0  0  0  0  0  0  0  0
  145.2409  135.6662  150.0850 H   0  0  0  0  0  0  0  0  0  0  0  0
  143.6505  135.3351  149.4631 H   0  0  0  0  0  0  0  0  0  0  0  0
  144.2131  137.6318  150.8826 H   0  0  0  0  0  0  0  0  0  0  0  0
  143.5908  137.5858  153.6961 H   0  0  0  0  0  0  0  0  0  0  0  0
  143.6691  138.9558  152.6208 H   0  0  0  0  0  0  0  0  0  0  0  0
  141.3648  137.9646  151.6796 H   0  0  0  0  0  0  0  0  0  0  0  0
  141.1098  135.9676  153.0670 H   0  0  0  0  0  0  0  0  0  0  0  0
  141.4472  136.8914  154.5178 H   0  0  0  0  0  0  0  0  0  0  0  0
  138.9506  137.0099  152.7959 H   0  0  0  0  0  0  0  0  0  0  0  0
  139.0544  136.8793  154.5601 H   0  0  0  0  0  0  0  0  0  0  0  0
  141.7708  139.7283  154.1113 H   0  0  0  0  0  0  0  0  0  0  0  0
  141.2477  140.1994  152.4878 H   0  0  0  0  0  0  0  0  0  0  0  0
  1  2  1  0  0  0  0
  1 21  1  0  0  0  0
  1 22  1  0  0  0  0
  1 23  1  0  0  0  0
  2  8  1  0  0  0  0
  2  3  2  0  0  0  0
  3  4  1  0  0  0  0
  4  5  1  0  0  0  0
  4  6  1  0  0  0  0
  5 24  1  0  0  0  0
  5 25  1  0  0  0  0
  5 26  1  0  0  0  0
  6  7  1  0  0  0  0
  6  8  2  0  0  0  0
  7 27  1  0  0  0  0
  7 28  1  0  0  0  0
  7 29  1  0  0  0  0
  8  9  1  0  0  0  0
  9 10  1  0  0  0  0
  9 30  1  0  0  0  0
  9 31  1  0  0  0  0
 10 11  2  0  0  0  0
 10 12  1  0  0  0  0
 12 13  1  0  0  0  0
 12 32  1  0  0  0  0
 13 14  1  0  0  0  0
 13 33  1  0  0  0  0
 13 34  1  0  0  0  0
 14 20  1  0  0  0  0
 14 15  1  0  0  0  0
 14 35  1  0  0  0  0
 15 16  1  0  0  0  0
 15 36  1  0  0  0  0
 15 37  1  0  0  0  0
 16 17  1  0  0  0  0
 16 38  1  0  0  0  0
 16 39  1  0  0  0  0
 17 18  2  0  0  0  0
 17 19  2  0  0  0  0
 17 20  1  0  0  0  0
 20 40  1  0  0  0  0
 20 41  1  0  0  0  0
M  END
> <s_m_source_file>
AV-unprocessed.smi

> <i_m_source_file_index>
559

> <i_lp_mmshare_version>
43012

> <i_f3d_flags>
0

> <s_epik_input>
W0NIM11jMW5uKFtDSDNdKWMoW0NIM10pYzFbQ0gyXUMoPU8pW05IXVtDSDJdW0NAQEhdKFtDSDJdMilbQ0gyXVtDSDJdUzIoPU8pPU8=

> <s_epik_cmdline>
J2VwaWtfcHl0aG9uJywgJy1waCcsICc3LjAnLCAnLXRuJywgJzgnLCAnLW1hJywgJzIwMCcsICctbWV0YWxfYmluZGluZycsICctaW1hZScsICc8aW5maWxlLm1hZT4nLCAnLW9tYWUnLCAnPG91dGZpbGUubWFlPic=

> <r_lp_tautomer_probability>
1

> <r_epik_Ionization_Penalty>
0.00301269

> <r_epik_Ionization_Penalty_Charging>
0

> <r_epik_Ionization_Penalty_Neutral>
0.00301269

> <r_epik_State_Penalty>
0.00211587

> <r_epik_Charging_Adjusted_Penalty>
0.00211587

> <i_epik_Tot_Q>
0

> <i_epik_Tot_abs_Q>
0

> <r_epik_Metal_State_Penalty>
-0

> <b_epik_Metal_Only>
0

> <s_lp_Force_Field>
OPLS_2005

> <r_lp_Energy>
-1.18315

> <b_lp_Chiralities_Consistent>
1

> <s_lp_Variant>
AV-unprocessed.smi:559-2

> <Gold.Version>
5.8.1

> <Gold.Id.Protein>
6NUR|6NUR_protein|mol2

> <Gold.PLP.Fitness>
38.8498

> <Gold.PLP.PLP>
-36.4878

> <Gold.PLP.part.hbond>
-2.0000

> <Gold.PLP.part.metal>
0.0000

> <Gold.PLP.part.buried>
-3.3266

> <Gold.PLP.part.nonpolar>
-32.3288

> <Gold.PLP.part.repulsive>
0.4722

> <Gold.PLP.ligand.clash>
0.0000

> <Gold.PLP.ligand.torsion>
0.7553

> <Gold.PLP.Chemscore.Hbond>
1.2893

> <Gold.PLP.Chemscore.CHOScore>
0.0000

> <Gold.PLP.Chemscore.Metal>
0.0000

> <Gold.Chemscore.Hbonds>
donor molecule, donor type, donor heavy atom, donor atom, acceptor molecule, acceptor atom, score
      L1  H    12    32       P1 10171  0.66
      P1  H 10785 10796       L1     3  0.19

> <Gold.PLP.Chemscore.Internal.Correction>
0.0047

> <Gold.Rescore>
     Score         DG    S(hbond)    S(metal)    S(lipo)     H(rot)  DE(clash)    DE(int)     intcor
     13.45     -16.96       1.55        0.00      89.63       1.64       2.61       0.90       ----

> <Gold.Chemscore.Fitness>
13.4475

> <Gold.Chemscore.DG>
-16.9598

> <Gold.Chemscore.ZeroCoef>
-5.4800

> <Gold.Chemscore.Hbond>
1.5542

> <Gold.Chemscore.Metal>
0.0000

> <Gold.Chemscore.Lipo>
89.6268

> <Gold.Chemscore.Internal_Hbond>
0.0000

> <Gold.Chemscore.DEClash>
2.6107

> <Gold.Chemscore.DEInternal>
0.9016

> <Gold.Chemscore.Rot>
1.6396

> <Gold.Chemscore.Internal.Correction>
   9.000000E+99

> <Gold.Chemscore.Hbonds>
donor molecule, donor type, donor heavy atom, donor atom, acceptor molecule, acceptor atom, score
      L1  H    12    32       P1 10171  0.64
      P1  H 10785 10796       L1     3  0.04

> <Gold.Chemscore.Hbond.Weighted>
-5.1909

> <Gold.Chemscore.Metal.Weighted>
-0.0000

> <Gold.Chemscore.Lipo.Weighted>
-10.4863

> <Gold.Chemscore.Internal_Hbond.Weighted>
0.0000

> <Gold.Chemscore.DEClash.Weighted>
2.6107

> <Gold.Chemscore.DEInternal.Weighted>
0.9016

> <Gold.Chemscore.Rot.Weighted>
4.1974

> <Gold.Chemscore.Internal.Correction.Weighted>
   9.000000E+99

> <Gold.Protein.RotatedTorsions>
[ 6907 6896 6895 6894 ] final  163.48 input  -60.11 | X-H torsion
[ 7974 7965 7964 7962 ] final  115.61 input  175.53 | X-H torsion
[ 8008 7997 7996 7995 ] final -106.98 input   59.86 | X-H torsion
[ 10167 10162 10161 10158 ] final   81.71 input  -65.29 | X-H torsion
[ 10718 10713 10712 10709 ] final   98.19 input   66.30 | X-H torsion
[ 10763 10752 10751 10750 ] final -151.37 input  -60.55 | X-H torsion
[ 11005 11000 10999 10996 ] final   72.18 input  -57.11 | X-H torsion

> <Gold.Protein.ActiveResidues>
 VAL166  LYS551  ARG553  GLY616  TRP617  ASP618  TYR619  PRO620  LYS621  CYS622 
 ASP623  PHE694  ASN695  SER759  ASP760  ASP761  ALA762  ILE779  LEU786  VAL792 
 PHE793  MET794  SER795  GLU796  ALA797  LYS798  CYS799  TRP800  GLU811  SER814 

> <Gold.Protein.RotatedAtoms>
  151.9245  133.3594  159.3908 H   0  0  0  0  0  0  0  0  0  0  0  0  # atno 6907 bound_to 6896
  150.7030  134.4601  159.5386 H   0  0  0  0  0  0  0  0  0  0  0  0  # atno 6908 bound_to 6896
  152.2230  134.8395  160.0534 H   0  0  0  0  0  0  0  0  0  0  0  0  # atno 6909 bound_to 6896
  145.1899  139.3006  143.4374 H   0  0  0  0  0  0  0  0  0  0  0  0  # atno 7974 bound_to 7965
  154.9225  140.0407  157.2005 H   0  0  0  0  0  0  0  0  0  0  0  0  # atno 8008 bound_to 7997
  154.8240  140.2888  155.5746 H   0  0  0  0  0  0  0  0  0  0  0  0  # atno 8009 bound_to 7997
  156.2982  140.2513  156.3152 H   0  0  0  0  0  0  0  0  0  0  0  0  # atno 8010 bound_to 7997
  139.9364  144.6118  150.8294 H   0  0  0  0  0  0  0  0  0  0  0  0  # atno 10167 bound_to 10162
  157.6900  131.0632  150.4758 H   0  0  0  0  0  0  0  0  0  0  0  0  # atno 10718 bound_to 10713
  154.8062  135.3262  154.7425 H   0  0  0  0  0  0  0  0  0  0  0  0  # atno 10763 bound_to 10752
  153.8083  135.6898  153.4849 H   0  0  0  0  0  0  0  0  0  0  0  0  # atno 10764 bound_to 10752
  153.1809  135.4587  154.9971 H   0  0  0  0  0  0  0  0  0  0  0  0  # atno 10765 bound_to 10752
  139.9504  134.7237  156.0876 H   0  0  0  0  0  0  0  0  0  0  0  0  # atno 11005 bound_to 11000
  146.3438  140.2108  142.8590 LP  0  0  0  0  0  0  0  0  0  0  0  0  # atno 17320 bound_to 7965
  145.0052  140.8666  143.5257 LP  0  0  0  0  0  0  0  0  0  0  0  0  # atno 17321 bound_to 7965
  140.7623  143.3195  151.2654 LP  0  0  0  0  0  0  0  0  0  0  0  0  # atno 17342 bound_to 10162
  139.6740  143.9970  152.2770 LP  0  0  0  0  0  0  0  0  0  0  0  0  # atno 17343 bound_to 10162
  156.5093  130.4135  149.6310 LP  0  0  0  0  0  0  0  0  0  0  0  0  # atno 17370 bound_to 10713
  156.3256  130.7304  151.2224 LP  0  0  0  0  0  0  0  0  0  0  0  0  # atno 17371 bound_to 10713
  141.1165  133.6626  156.3107 LP  0  0  0  0  0  0  0  0  0  0  0  0  # atno 17394 bound_to 11000
  140.5733  134.5819  157.5462 LP  0  0  0  0  0  0  0  0  0  0  0  0  # atno 17395 bound_to 11000

$$$$
