AV-unprocessed.smi:2976|AV-procd|sdf|11361|dock8
  -GOLD-   2272016273D 1   1.00000     0.00000
 Structure written by MMmdl.
 40 41  0  0  0  0  0  0  0  0  1 V2000
  152.7588  142.3050  162.1191 C   0  0  0  0  0  0  0  0  0  0  0  0
  152.7078  143.2551  160.9082 C   0  0  2  0  0  0  0  0  0  0  0  0
  151.7023  144.3901  161.1886 C   0  0  0  0  0  0  0  0  0  0  0  0
  151.6282  145.3893  160.0291 C   0  0  0  0  0  0  0  0  0  0  0  0
  151.2598  144.6739  158.7262 C   0  0  0  0  0  0  0  0  0  0  0  0
  152.2585  143.5481  158.4057 C   0  0  2  0  0  0  0  0  0  0  0  0
  151.8309  142.8859  157.1735 N   0  0  0  0  0  0  0  0  0  0  0  0
  150.6830  142.2130  156.9973 C   0  0  0  0  0  0  0  0  0  0  0  0
  149.8474  142.0490  157.8872 O   0  0  0  0  0  0  0  0  0  0  0  0
  150.4545  141.6254  155.5976 C   0  0  0  0  0  0  0  0  0  0  0  0
  150.5958  140.1624  155.5625 N   0  0  0  0  0  0  0  0  0  0  0  0
  149.6013  139.5150  154.8503 N   0  0  0  0  0  0  0  0  0  0  0  0
  149.6391  138.2326  154.7308 C   0  0  0  0  0  0  0  0  0  0  0  0
  150.6892  137.4341  155.3239 C   0  0  0  0  0  0  0  0  0  0  0  0
  150.6877  135.7166  155.1281 Cl  0  0  0  0  0  0  0  0  0  0  0  0
  151.6544  138.0778  156.0277 C   0  0  0  0  0  0  0  0  0  0  0  0
  152.9422  137.1899  156.7681 Cl  0  0  0  0  0  0  0  0  0  0  0  0
  151.6440  139.5390  156.1845 C   0  0  0  0  0  0  0  0  0  0  0  0
  152.5002  140.1603  156.8161 O   0  0  0  0  0  0  0  0  0  0  0  0
  152.3782  142.5289  159.5724 C   0  0  1  0  0  0  0  0  0  0  0  0
  153.4085  141.4249  159.2451 C   0  0  0  0  0  0  0  0  0  0  0  0
  151.8281  141.7470  162.2255 H   0  0  0  0  0  0  0  0  0  0  0  0
  152.9181  142.8602  163.0441 H   0  0  0  0  0  0  0  0  0  0  0  0
  153.5756  141.5883  162.0418 H   0  0  0  0  0  0  0  0  0  0  0  0
  153.6949  143.7093  160.8086 H   0  0  0  0  0  0  0  0  0  0  0  0
  150.7117  143.9702  161.3696 H   0  0  0  0  0  0  0  0  0  0  0  0
  151.9826  144.9194  162.1001 H   0  0  0  0  0  0  0  0  0  0  0  0
  150.8920  146.1626  160.2500 H   0  0  0  0  0  0  0  0  0  0  0  0
  152.5872  145.8961  159.9148 H   0  0  0  0  0  0  0  0  0  0  0  0
  150.2516  144.2652  158.8101 H   0  0  0  0  0  0  0  0  0  0  0  0
  151.2345  145.3955  157.9087 H   0  0  0  0  0  0  0  0  0  0  0  0
  153.2382  144.0086  158.2634 H   0  0  0  0  0  0  0  0  0  0  0  0
  152.4549  142.9617  156.3833 H   0  0  0  0  0  0  0  0  0  0  0  0
  149.4672  141.9117  155.2298 H   0  0  0  0  0  0  0  0  0  0  0  0
  151.1676  142.0929  154.9162 H   0  0  0  0  0  0  0  0  0  0  0  0
  148.8807  137.6805  154.1758 H   0  0  0  0  0  0  0  0  0  0  0  0
  151.4078  142.0436  159.6901 H   0  0  0  0  0  0  0  0  0  0  0  0
  154.4126  141.8391  159.1496 H   0  0  0  0  0  0  0  0  0  0  0  0
  153.1744  140.9124  158.3123 H   0  0  0  0  0  0  0  0  0  0  0  0
  153.4360  140.6528  160.0126 H   0  0  0  0  0  0  0  0  0  0  0  0
  1  2  1  0  0  0  0
  1 22  1  0  0  0  0
  1 23  1  0  0  0  0
  1 24  1  0  0  0  0
  2 20  1  0  0  0  0
  2  3  1  0  0  0  0
  2 25  1  0  0  0  0
  3  4  1  0  0  0  0
  3 26  1  0  0  0  0
  3 27  1  0  0  0  0
  4  5  1  0  0  0  0
  4 28  1  0  0  0  0
  4 29  1  0  0  0  0
  5  6  1  0  0  0  0
  5 30  1  0  0  0  0
  5 31  1  0  0  0  0
  6  7  1  0  0  0  0
  6 20  1  0  0  0  0
  6 32  1  0  0  0  0
  7  8  1  0  0  0  0
  7 33  1  0  0  0  0
  8  9  2  0  0  0  0
  8 10  1  0  0  0  0
 10 11  1  0  0  0  0
 10 34  1  0  0  0  0
 10 35  1  0  0  0  0
 11 18  1  0  0  0  0
 11 12  1  0  0  0  0
 12 13  2  0  0  0  0
 13 14  1  0  0  0  0
 13 36  1  0  0  0  0
 14 15  1  0  0  0  0
 14 16  2  0  0  0  0
 16 17  1  0  0  0  0
 16 18  1  0  0  0  0
 18 19  2  0  0  0  0
 20 21  1  0  0  0  0
 20 37  1  0  0  0  0
 21 38  1  0  0  0  0
 21 39  1  0  0  0  0
 21 40  1  0  0  0  0
M  END
> <s_m_source_file>
AV-unprocessed.smi

> <i_m_source_file_index>
2976

> <i_lp_mmshare_version>
43012

> <i_f3d_flags>
0

> <s_epik_input>
W0NIM11bQ0BASF0xW0NIMl1bQ0gyXVtDSDJdW0NASF0oW0NASF0xW0NIM10pW05IXUMoPU8pW0NIMl1uMm5bY0hdYyhDbCljKENsKWMyPU8=

> <s_epik_cmdline>
J2VwaWtfcHl0aG9uJywgJy1waCcsICc3LjAnLCAnLXRuJywgJzgnLCAnLW1hJywgJzIwMCcsICctbWV0YWxfYmluZGluZycsICctaW1hZScsICc8aW5maWxlLm1hZT4nLCAnLW9tYWUnLCAnPG91dGZpbGUubWFlPic=

> <r_lp_tautomer_probability>
1

> <r_epik_Ionization_Penalty>
1.90777e-08

> <r_epik_Ionization_Penalty_Charging>
3.07942e-11

> <r_epik_Ionization_Penalty_Neutral>
1.90469e-08

> <r_epik_State_Penalty>
-0

> <r_epik_Charging_Adjusted_Penalty>
3.07942e-11

> <i_epik_Tot_Q>
0

> <i_epik_Tot_abs_Q>
0

> <r_epik_Metal_State_Penalty>
-0

> <b_epik_Metal_Only>
0

> <s_lp_Force_Field>
OPLS_2005

> <r_lp_Energy>
26.5415

> <b_lp_Chiralities_Consistent>
1

> <s_lp_Variant>
AV-unprocessed.smi:2976-3

> <Gold.Version>
5.8.1

> <Gold.Id.Protein>
6NUR|6NUR_protein|mol2

> <Gold.PLP.Fitness>
46.5301

> <Gold.PLP.PLP>
-42.6500

> <Gold.PLP.part.hbond>
-1.0000

> <Gold.PLP.part.metal>
0.0000

> <Gold.PLP.part.buried>
0.3404

> <Gold.PLP.part.nonpolar>
-40.8321

> <Gold.PLP.part.repulsive>
0.2608

> <Gold.PLP.ligand.clash>
0.0908

> <Gold.PLP.ligand.torsion>
0.3218

> <Gold.PLP.Chemscore.Hbond>
1.0000

> <Gold.PLP.Chemscore.CHOScore>
0.5360

> <Gold.PLP.Chemscore.Metal>
0.0000

> <Gold.Chemscore.Hbonds>
donor molecule, donor type, donor heavy atom, donor atom, acceptor molecule, acceptor atom, score
      P1  H  7997  8009       L1    19  1.00
      L1  C    13    36       P1  7948  0.54

> <Gold.PLP.Chemscore.Internal.Correction>
0.0067

> <Gold.Rescore>
     Score         DG    S(hbond)    S(metal)    S(lipo)     H(rot)  DE(clash)    DE(int)     intcor
     12.67     -19.25       0.96        0.00     122.88       1.49       1.25       5.33       ----

> <Gold.Chemscore.Fitness>
12.6708

> <Gold.Chemscore.DG>
-19.2500

> <Gold.Chemscore.ZeroCoef>
-5.4800

> <Gold.Chemscore.Hbond>
0.9576

> <Gold.Chemscore.Metal>
0.0000

> <Gold.Chemscore.Lipo>
122.8841

> <Gold.Chemscore.Internal_Hbond>
0.0000

> <Gold.Chemscore.DEClash>
1.2526

> <Gold.Chemscore.DEInternal>
5.3266

> <Gold.Chemscore.Rot>
1.4866

> <Gold.Chemscore.Internal.Correction>
   9.000000E+99

> <Gold.Chemscore.Hbonds>
donor molecule, donor type, donor heavy atom, donor atom, acceptor molecule, acceptor atom, score
      P1  H  7997  8009       L1    19  0.94

> <Gold.Chemscore.Hbond.Weighted>
-3.1983

> <Gold.Chemscore.Metal.Weighted>
-0.0000

> <Gold.Chemscore.Lipo.Weighted>
-14.3774

> <Gold.Chemscore.Internal_Hbond.Weighted>
0.0000

> <Gold.Chemscore.DEClash.Weighted>
1.2526

> <Gold.Chemscore.DEInternal.Weighted>
5.3266

> <Gold.Chemscore.Rot.Weighted>
3.8057

> <Gold.Chemscore.Internal.Correction.Weighted>
   9.000000E+99

> <Gold.Protein.RotatedTorsions>
[ 6907 6896 6895 6894 ] final  -53.50 input  -60.11 | X-H torsion
[ 7974 7965 7964 7962 ] final   -1.81 input  175.53 | X-H torsion
[ 8008 7997 7996 7995 ] final -161.59 input   59.86 | X-H torsion
[ 10167 10162 10161 10158 ] final -165.62 input  -65.29 | X-H torsion
[ 10718 10713 10712 10709 ] final   96.56 input   66.30 | X-H torsion
[ 10763 10752 10751 10750 ] final -146.87 input  -60.55 | X-H torsion
[ 11005 11000 10999 10996 ] final -170.28 input  -57.11 | X-H torsion

> <Gold.Protein.ActiveResidues>
 VAL166  LYS551  ARG553  GLY616  TRP617  ASP618  TYR619  PRO620  LYS621  CYS622 
 ASP623  PHE694  ASN695  SER759  ASP760  ASP761  ALA762  ILE779  LEU786  VAL792 
 PHE793  MET794  SER795  GLU796  ALA797  LYS798  CYS799  TRP800  GLU811  SER814 

> <Gold.Protein.RotatedAtoms>
  150.8421  134.7717  159.6940 H   0  0  0  0  0  0  0  0  0  0  0  0  # atno 6907 bound_to 6896
  152.4506  134.5398  159.9845 H   0  0  0  0  0  0  0  0  0  0  0  0  # atno 6908 bound_to 6896
  151.5535  133.3376  159.2993 H   0  0  0  0  0  0  0  0  0  0  0  0  # atno 6909 bound_to 6896
  146.2412  140.1476  142.8334 H   0  0  0  0  0  0  0  0  0  0  0  0  # atno 7974 bound_to 7965
  155.7944  140.0883  157.1991 H   0  0  0  0  0  0  0  0  0  0  0  0  # atno 8008 bound_to 7997
  154.3984  140.1484  156.3259 H   0  0  0  0  0  0  0  0  0  0  0  0  # atno 8009 bound_to 7997
  155.8526  140.3434  155.5706 H   0  0  0  0  0  0  0  0  0  0  0  0  # atno 8010 bound_to 7997
  139.6170  144.0700  152.1897 H   0  0  0  0  0  0  0  0  0  0  0  0  # atno 10167 bound_to 10162
  157.6925  131.0582  150.4509 H   0  0  0  0  0  0  0  0  0  0  0  0  # atno 10718 bound_to 10713
  154.8314  135.3375  154.6730 H   0  0  0  0  0  0  0  0  0  0  0  0  # atno 10763 bound_to 10752
  153.7349  135.6949  153.4985 H   0  0  0  0  0  0  0  0  0  0  0  0  # atno 10764 bound_to 10752
  153.2285  135.4424  155.0521 H   0  0  0  0  0  0  0  0  0  0  0  0  # atno 10765 bound_to 10752
  140.5213  134.5706  157.5048 H   0  0  0  0  0  0  0  0  0  0  0  0  # atno 11005 bound_to 11000
  145.0195  140.8781  143.5175 LP  0  0  0  0  0  0  0  0  0  0  0  0  # atno 17320 bound_to 7965
  145.1522  139.2508  143.5435 LP  0  0  0  0  0  0  0  0  0  0  0  0  # atno 17321 bound_to 7965
  140.0333  144.6064  150.7470 LP  0  0  0  0  0  0  0  0  0  0  0  0  # atno 17342 bound_to 10162
  140.7357  143.2744  151.3787 LP  0  0  0  0  0  0  0  0  0  0  0  0  # atno 17343 bound_to 10162
  156.4860  130.4084  149.6434 LP  0  0  0  0  0  0  0  0  0  0  0  0  # atno 17370 bound_to 10713
  156.3461  130.7408  151.2360 LP  0  0  0  0  0  0  0  0  0  0  0  0  # atno 17371 bound_to 10713
  139.9604  134.7462  156.0249 LP  0  0  0  0  0  0  0  0  0  0  0  0  # atno 17394 bound_to 11000
  141.1332  133.6581  156.3523 LP  0  0  0  0  0  0  0  0  0  0  0  0  # atno 17395 bound_to 11000

$$$$
