AV-unprocessed.smi:1991|AV-procd|sdf|8068|dock1
  -GOLD-   2272010273D 1   1.00000     0.00000
 Structure written by MMmdl.
 44 45  0  0  0  0  0  0  0  0  1 V2000
  148.6650  135.8215  158.4873 C   0  0  0  0  0  0  0  0  0  0  0  0
  148.9175  137.1411  159.2312 C   0  0  1  0  0  0  0  0  0  0  0  0
  148.4511  136.9743  160.5680 O   0  0  0  0  0  0  0  0  0  0  0  0
  147.0907  136.5743  160.7002 C   0  0  0  0  0  0  0  0  0  0  0  0
  146.8866  135.9146  162.0694 C   0  0  0  0  0  0  0  0  0  0  0  0
  147.4914  136.6467  163.0040 F   0  0  0  0  0  0  0  0  0  0  0  0
  145.5873  135.8418  162.3570 F   0  0  0  0  0  0  0  0  0  0  0  0
  147.4165  134.6918  162.0750 F   0  0  0  0  0  0  0  0  0  0  0  0
  150.4101  137.5080  159.2243 C   0  0  0  0  0  0  0  0  0  0  0  0
  151.2080  136.8671  159.9086 O   0  0  0  0  0  0  0  0  0  0  0  0
  150.7608  138.5538  158.4599 N   0  0  0  0  0  0  0  0  0  0  0  0
  152.1155  139.0686  158.2913 C   0  0  0  0  0  0  0  0  0  0  0  0
  152.2664  140.4937  158.8142 C   0  0  0  0  0  0  0  0  0  0  0  0
  153.2880  140.7728  159.7477 C   0  0  0  0  0  0  0  0  0  0  0  0
  153.4577  142.0885  160.2140 C   0  0  0  0  0  0  0  0  0  0  0  0
  152.5936  143.0841  159.7245 C   0  0  0  0  0  0  0  0  0  0  0  0
  151.6110  142.8354  158.8348 N   0  0  0  0  0  0  0  0  0  0  0  0
  151.4421  141.5685  158.3828 C   0  0  0  0  0  0  0  0  0  0  0  0
  150.3850  141.3448  157.4846 N   0  0  0  0  0  0  0  0  0  0  0  0
  149.0798  141.6420  158.0582 C   0  0  0  0  0  0  0  0  0  0  0  0
  147.9711  141.1422  157.1168 C   0  0  0  0  0  0  0  0  0  0  0  0
  148.1423  141.7250  155.8270 O   0  0  0  0  0  0  0  0  0  0  0  0
  149.3964  141.3812  155.2426 C   0  0  0  0  0  0  0  0  0  0  0  0
  150.5403  141.8860  156.1392 C   0  0  0  0  0  0  0  0  0  0  0  0
  149.0144  135.8746  157.4554 H   0  0  0  0  0  0  0  0  0  0  0  0
  147.5999  135.5902  158.4622 H   0  0  0  0  0  0  0  0  0  0  0  0
  149.1712  134.9848  158.9702 H   0  0  0  0  0  0  0  0  0  0  0  0
  148.3392  137.9266  158.7408 H   0  0  0  0  0  0  0  0  0  0  0  0
  146.4215  137.4305  160.6078 H   0  0  0  0  0  0  0  0  0  0  0  0
  146.8307  135.8694  159.9092 H   0  0  0  0  0  0  0  0  0  0  0  0
  150.0319  139.0217  157.9414 H   0  0  0  0  0  0  0  0  0  0  0  0
  152.7811  138.4306  158.8732 H   0  0  0  0  0  0  0  0  0  0  0  0
  152.4547  138.9691  157.2600 H   0  0  0  0  0  0  0  0  0  0  0  0
  153.9408  139.9874  160.0990 H   0  0  0  0  0  0  0  0  0  0  0  0
  154.2330  142.3290  160.9263 H   0  0  0  0  0  0  0  0  0  0  0  0
  152.6927  144.1069  160.0568 H   0  0  0  0  0  0  0  0  0  0  0  0
  148.9800  141.1802  159.0398 H   0  0  0  0  0  0  0  0  0  0  0  0
  148.9879  142.7192  158.2033 H   0  0  0  0  0  0  0  0  0  0  0  0
  147.9865  140.0536  157.0418 H   0  0  0  0  0  0  0  0  0  0  0  0
  146.9926  141.4216  157.5071 H   0  0  0  0  0  0  0  0  0  0  0  0
  149.4597  140.3006  155.1034 H   0  0  0  0  0  0  0  0  0  0  0  0
  149.4652  141.8352  154.2539 H   0  0  0  0  0  0  0  0  0  0  0  0
  150.5268  142.9764  156.1733 H   0  0  0  0  0  0  0  0  0  0  0  0
  151.5040  141.5841  155.7271 H   0  0  0  0  0  0  0  0  0  0  0  0
  1  2  1  0  0  0  0
  1 25  1  0  0  0  0
  1 26  1  0  0  0  0
  1 27  1  0  0  0  0
  2  3  1  0  0  0  0
  2  9  1  0  0  0  0
  2 28  1  0  0  0  0
  3  4  1  0  0  0  0
  4  5  1  0  0  0  0
  4 29  1  0  0  0  0
  4 30  1  0  0  0  0
  5  6  1  0  0  0  0
  5  7  1  0  0  0  0
  5  8  1  0  0  0  0
  9 10  2  0  0  0  0
  9 11  1  0  0  0  0
 11 12  1  0  0  0  0
 11 31  1  0  0  0  0
 12 13  1  0  0  0  0
 12 32  1  0  0  0  0
 12 33  1  0  0  0  0
 13 18  1  0  0  0  0
 13 14  2  0  0  0  0
 14 15  1  0  0  0  0
 14 34  1  0  0  0  0
 15 16  2  0  0  0  0
 15 35  1  0  0  0  0
 16 17  1  0  0  0  0
 16 36  1  0  0  0  0
 17 18  2  0  0  0  0
 18 19  1  0  0  0  0
 19 24  1  0  0  0  0
 19 20  1  0  0  0  0
 20 21  1  0  0  0  0
 20 37  1  0  0  0  0
 20 38  1  0  0  0  0
 21 22  1  0  0  0  0
 21 39  1  0  0  0  0
 21 40  1  0  0  0  0
 22 23  1  0  0  0  0
 23 24  1  0  0  0  0
 23 41  1  0  0  0  0
 23 42  1  0  0  0  0
 24 43  1  0  0  0  0
 24 44  1  0  0  0  0
M  END
> <s_m_source_file>
AV-unprocessed.smi

> <i_m_source_file_index>
1991

> <i_lp_mmshare_version>
43012

> <i_f3d_flags>
0

> <s_epik_input>
RkMoRikoRilbQ0gyXU9bQ0BASF0oW0NIM10pQyg9TylbTkhdW0NIMl1jMVtjSF1bY0hdW2NIXW5jMU4yW0NIMl1bQ0gyXU9bQ0gyXVtDSDJdMg==

> <s_epik_cmdline>
J2VwaWtfcHl0aG9uJywgJy1waCcsICc3LjAnLCAnLXRuJywgJzgnLCAnLW1hJywgJzIwMCcsICctbWV0YWxfYmluZGluZycsICctaW1hZScsICc8aW5maWxlLm1hZT4nLCAnLW9tYWUnLCAnPG91dGZpbGUubWFlPic=

> <r_lp_tautomer_probability>
1

> <r_epik_Ionization_Penalty>
0.00436412

> <r_epik_Ionization_Penalty_Charging>
0

> <r_epik_Ionization_Penalty_Neutral>
0.00436412

> <r_epik_State_Penalty>
0.00314317

> <r_epik_Charging_Adjusted_Penalty>
0.00314317

> <i_epik_Tot_Q>
0

> <i_epik_Tot_abs_Q>
0

> <r_epik_Metal_State_Penalty>
-0

> <b_epik_Metal_Only>
0

> <s_lp_Force_Field>
OPLS_2005

> <r_lp_Energy>
21.3683

> <b_lp_Chiralities_Consistent>
1

> <s_lp_Variant>
AV-unprocessed.smi:1991-2

> <Gold.Version>
5.8.1

> <Gold.Id.Protein>
6NUR|6NUR_protein|mol2

> <Gold.PLP.Fitness>
50.6379

> <Gold.PLP.PLP>
-46.1120

> <Gold.PLP.part.hbond>
-2.2105

> <Gold.PLP.part.metal>
0.0000

> <Gold.PLP.part.buried>
-7.1904

> <Gold.PLP.part.nonpolar>
-37.3061

> <Gold.PLP.part.repulsive>
0.6967

> <Gold.PLP.ligand.clash>
0.0000

> <Gold.PLP.ligand.torsion>
0.6735

> <Gold.PLP.Chemscore.Hbond>
1.8160

> <Gold.PLP.Chemscore.CHOScore>
0.0000

> <Gold.PLP.Chemscore.Metal>
0.0000

> <Gold.Chemscore.Hbonds>
donor molecule, donor type, donor heavy atom, donor atom, acceptor molecule, acceptor atom, score
      P1  H  6896  6908       L1    10  1.00
      P1  H  6931  6943       L1     3  0.85

> <Gold.PLP.Chemscore.Internal.Correction>
0.4249

> <Gold.Rescore>
     Score         DG    S(hbond)    S(metal)    S(lipo)     H(rot)  DE(clash)    DE(int)     intcor
     12.83     -15.02       1.74        0.00      86.39       2.49       0.26       1.93       ----

> <Gold.Chemscore.Fitness>
12.8336

> <Gold.Chemscore.DG>
-15.0228

> <Gold.Chemscore.ZeroCoef>
-5.4800

> <Gold.Chemscore.Hbond>
1.7391

> <Gold.Chemscore.Metal>
0.0000

> <Gold.Chemscore.Lipo>
86.3949

> <Gold.Chemscore.Internal_Hbond>
0.0000

> <Gold.Chemscore.DEClash>
0.2626

> <Gold.Chemscore.DEInternal>
1.9266

> <Gold.Chemscore.Rot>
2.4899

> <Gold.Chemscore.Internal.Correction>
   9.000000E+99

> <Gold.Chemscore.Hbonds>
donor molecule, donor type, donor heavy atom, donor atom, acceptor molecule, acceptor atom, score
      P1  H  6896  6908       L1    10  1.00
      P1  H  6931  6943       L1     3  0.71

> <Gold.Chemscore.Hbond.Weighted>
-5.8087

> <Gold.Chemscore.Metal.Weighted>
-0.0000

> <Gold.Chemscore.Lipo.Weighted>
-10.1082

> <Gold.Chemscore.Internal_Hbond.Weighted>
0.0000

> <Gold.Chemscore.DEClash.Weighted>
0.2626

> <Gold.Chemscore.DEInternal.Weighted>
1.9266

> <Gold.Chemscore.Rot.Weighted>
6.3741

> <Gold.Chemscore.Internal.Correction.Weighted>
   9.000000E+99

> <Gold.Protein.RotatedTorsions>
[ 6907 6896 6895 6894 ] final -125.88 input  -60.11 | X-H torsion
[ 7974 7965 7964 7962 ] final  -14.70 input  175.53 | X-H torsion
[ 8008 7997 7996 7995 ] final -140.37 input   59.86 | X-H torsion
[ 10167 10162 10161 10158 ] final -120.21 input  -65.29 | X-H torsion
[ 10718 10713 10712 10709 ] final   56.44 input   66.30 | X-H torsion
[ 10763 10752 10751 10750 ] final  174.32 input  -60.55 | X-H torsion
[ 11005 11000 10999 10996 ] final  160.36 input  -57.11 | X-H torsion

> <Gold.Protein.ActiveResidues>
 VAL166  LYS551  ARG553  GLY616  TRP617  ASP618  TYR619  PRO620  LYS621  CYS622 
 ASP623  PHE694  ASN695  SER759  ASP760  ASP761  ALA762  ILE779  LEU786  VAL792 
 PHE793  MET794  SER795  GLU796  ALA797  LYS798  CYS799  TRP800  GLU811  SER814 

> <Gold.Protein.RotatedAtoms>
  150.8913  133.7240  159.2903 H   0  0  0  0  0  0  0  0  0  0  0  0  # atno 6907 bound_to 6896
  151.4789  135.1049  159.9782 H   0  0  0  0  0  0  0  0  0  0  0  0  # atno 6908 bound_to 6896
  152.4821  133.8234  159.7121 H   0  0  0  0  0  0  0  0  0  0  0  0  # atno 6909 bound_to 6896
  146.2063  140.3386  142.8406 H   0  0  0  0  0  0  0  0  0  0  0  0  # atno 7974 bound_to 7965
  155.4602  140.0545  157.2992 H   0  0  0  0  0  0  0  0  0  0  0  0  # atno 8008 bound_to 7997
  154.4740  140.2053  155.9878 H   0  0  0  0  0  0  0  0  0  0  0  0  # atno 8009 bound_to 7997
  156.1103  140.3205  155.8068 H   0  0  0  0  0  0  0  0  0  0  0  0  # atno 8010 bound_to 7997
  140.0383  143.5179  152.2143 H   0  0  0  0  0  0  0  0  0  0  0  0  # atno 10167 bound_to 10162
  157.5431  130.8711  149.8851 H   0  0  0  0  0  0  0  0  0  0  0  0  # atno 10718 bound_to 10713
  154.4523  135.2765  155.1772 H   0  0  0  0  0  0  0  0  0  0  0  0  # atno 10763 bound_to 10752
  154.3594  135.6132  153.5687 H   0  0  0  0  0  0  0  0  0  0  0  0  # atno 10764 bound_to 10752
  152.9848  135.5831  154.4869 H   0  0  0  0  0  0  0  0  0  0  0  0  # atno 10765 bound_to 10752
  140.2052  134.8308  157.3061 H   0  0  0  0  0  0  0  0  0  0  0  0  # atno 11005 bound_to 11000
  144.8801  140.7389  143.5992 LP  0  0  0  0  0  0  0  0  0  0  0  0  # atno 17320 bound_to 7965
  145.3306  139.1761  143.4539 LP  0  0  0  0  0  0  0  0  0  0  0  0  # atno 17321 bound_to 7965
  139.6031  144.7588  151.3126 LP  0  0  0  0  0  0  0  0  0  0  0  0  # atno 17342 bound_to 10162
  140.7272  143.6970  150.7875 LP  0  0  0  0  0  0  0  0  0  0  0  0  # atno 17343 bound_to 10162
  156.0513  130.3717  150.1195 LP  0  0  0  0  0  0  0  0  0  0  0  0  # atno 17370 bound_to 10713
  156.9373  130.9733  151.3522 LP  0  0  0  0  0  0  0  0  0  0  0  0  # atno 17371 bound_to 10713
  140.2011  134.4254  155.7662 LP  0  0  0  0  0  0  0  0  0  0  0  0  # atno 17394 bound_to 11000
  141.2227  133.7072  156.8184 LP  0  0  0  0  0  0  0  0  0  0  0  0  # atno 17395 bound_to 11000

$$$$
