AV-unprocessed.smi:886|AV-procd|sdf|4050|dock2
  -GOLD-   22720 1533D 1   1.00000     0.00000
 Structure written by MMmdl.
 35 37  0  0  0  0  0  0  0  0  1 V2000
  154.7542  139.7260  161.0742 C   0  0  0  0  0  0  0  0  0  0  0  0
  153.9946  140.6782  160.2790 N   0  0  0  0  0  0  0  0  0  0  0  0
  153.5360  141.8510  160.7422 C   0  0  0  0  0  0  0  0  0  0  0  0
  153.7026  142.2308  161.9019 O   0  0  0  0  0  0  0  0  0  0  0  0
  152.7603  142.6762  159.7475 C   0  0  0  0  0  0  0  0  0  0  0  0
  152.5787  144.0597  159.9818 C   0  0  0  0  0  0  0  0  0  0  0  0
  151.8285  144.8267  159.0729 C   0  0  0  0  0  0  0  0  0  0  0  0
  151.2755  144.1790  157.9552 C   0  0  0  0  0  0  0  0  0  0  0  0
  151.4327  142.8619  157.7154 N   0  0  0  0  0  0  0  0  0  0  0  0
  152.1543  142.1141  158.5864 C   0  0  0  0  0  0  0  0  0  0  0  0
  152.3091  140.7497  158.2807 N   0  0  0  0  0  0  0  0  0  0  0  0
  151.4374  140.0942  157.3114 C   0  0  2  0  0  0  0  0  0  0  0  0
  151.8850  138.6661  156.9730 C   0  0  0  0  0  0  0  0  0  0  0  0
  152.0512  138.7371  155.4500 C   0  0  1  0  0  0  0  0  0  0  0  0
  150.7069  138.8842  154.7244 C   0  0  0  0  0  0  0  0  0  0  0  0
  150.3385  140.3333  155.0411 C   0  0  0  0  0  0  0  0  0  0  0  0
  151.5097  140.7702  155.9317 C   0  0  2  0  0  0  0  0  0  0  0  0
  152.5662  140.0497  155.3171 O   0  0  0  0  0  0  0  0  0  0  0  0
  154.9966  138.8495  160.4735 H   0  0  0  0  0  0  0  0  0  0  0  0
  154.1787  139.3969  161.9404 H   0  0  0  0  0  0  0  0  0  0  0  0
  155.6876  140.1695  161.4236 H   0  0  0  0  0  0  0  0  0  0  0  0
  153.8027  140.4308  159.3189 H   0  0  0  0  0  0  0  0  0  0  0  0
  153.0016  144.5366  160.8541 H   0  0  0  0  0  0  0  0  0  0  0  0
  151.6768  145.8840  159.2318 H   0  0  0  0  0  0  0  0  0  0  0  0
  150.6909  144.7318  157.2351 H   0  0  0  0  0  0  0  0  0  0  0  0
  152.7382  140.1615  158.9811 H   0  0  0  0  0  0  0  0  0  0  0  0
  150.4096  140.1166  157.6763 H   0  0  0  0  0  0  0  0  0  0  0  0
  152.8387  138.4202  157.4425 H   0  0  0  0  0  0  0  0  0  0  0  0
  151.1555  137.9156  157.2784 H   0  0  0  0  0  0  0  0  0  0  0  0
  152.6944  137.9588  155.0388 H   0  0  0  0  0  0  0  0  0  0  0  0
  150.8279  138.7469  153.6493 H   0  0  0  0  0  0  0  0  0  0  0  0
  149.9643  138.1696  155.0807 H   0  0  0  0  0  0  0  0  0  0  0  0
  150.3065  140.9270  154.1268 H   0  0  0  0  0  0  0  0  0  0  0  0
  149.3746  140.4268  155.5425 H   0  0  0  0  0  0  0  0  0  0  0  0
  151.6526  141.8510  155.9636 H   0  0  0  0  0  0  0  0  0  0  0  0
  1  2  1  0  0  0  0
  1 19  1  0  0  0  0
  1 20  1  0  0  0  0
  1 21  1  0  0  0  0
  2  3  1  0  0  0  0
  2 22  1  0  0  0  0
  3  4  2  0  0  0  0
  3  5  1  0  0  0  0
  5 10  1  0  0  0  0
  5  6  2  0  0  0  0
  6  7  1  0  0  0  0
  6 23  1  0  0  0  0
  7  8  2  0  0  0  0
  7 24  1  0  0  0  0
  8  9  1  0  0  0  0
  8 25  1  0  0  0  0
  9 10  2  0  0  0  0
 10 11  1  0  0  0  0
 11 12  1  0  0  0  0
 11 26  1  0  0  0  0
 12 17  1  0  0  0  0
 12 13  1  0  0  0  0
 12 27  1  0  0  0  0
 13 14  1  0  0  0  0
 13 28  1  0  0  0  0
 13 29  1  0  0  0  0
 14 18  1  0  0  0  0
 14 15  1  0  0  0  0
 14 30  1  0  0  0  0
 15 16  1  0  0  0  0
 15 31  1  0  0  0  0
 15 32  1  0  0  0  0
 16 17  1  0  0  0  0
 16 33  1  0  0  0  0
 16 34  1  0  0  0  0
 17 18  1  0  0  0  0
 17 35  1  0  0  0  0
M  END
> <s_m_source_file>
AV-unprocessed.smi

> <i_m_source_file_index>
886

> <i_lp_mmshare_version>
43012

> <i_f3d_flags>
0

> <s_epik_input>
W0NIM11bTkhdQyg9TyljMVtjSF1bY0hdW2NIXW5jMVtOSF1bQ0BIXShbQ0gyXVtDQEhdMjMpW0NASF0oTzMpW0NIMl1bQ0gyXTI=

> <s_epik_cmdline>
J2VwaWtfcHl0aG9uJywgJy1waCcsICc3LjAnLCAnLXRuJywgJzgnLCAnLW1hJywgJzIwMCcsICctbWV0YWxfYmluZGluZycsICctaW1hZScsICc8aW5maWxlLm1hZT4nLCAnLW9tYWUnLCAnPG91dGZpbGUubWFlPic=

> <r_lp_tautomer_probability>
1

> <r_epik_Ionization_Penalty>
0.0065447

> <r_epik_Ionization_Penalty_Charging>
0

> <r_epik_Ionization_Penalty_Neutral>
0.0065447

> <r_epik_State_Penalty>
0.00484214

> <r_epik_Charging_Adjusted_Penalty>
0.00484214

> <i_epik_Tot_Q>
0

> <i_epik_Tot_abs_Q>
0

> <r_epik_Metal_State_Penalty>
-0

> <b_epik_Metal_Only>
0

> <s_lp_Force_Field>
OPLS_2005

> <r_lp_Energy>
46.3803

> <b_lp_Chiralities_Consistent>
1

> <s_lp_Variant>
AV-unprocessed.smi:886-3

> <Gold.Version>
5.8.1

> <Gold.Id.Protein>
6NUR|6NUR_protein|mol2

> <Gold.PLP.Fitness>
45.0693

> <Gold.PLP.PLP>
-39.2651

> <Gold.PLP.part.hbond>
-2.3494

> <Gold.PLP.part.metal>
0.0000

> <Gold.PLP.part.buried>
-2.4762

> <Gold.PLP.part.nonpolar>
-33.7842

> <Gold.PLP.part.repulsive>
0.2554

> <Gold.PLP.ligand.clash>
0.0000

> <Gold.PLP.ligand.torsion>
0.2780

> <Gold.PLP.Chemscore.Hbond>
1.1100

> <Gold.PLP.Chemscore.CHOScore>
1.0000

> <Gold.PLP.Chemscore.Metal>
0.0000

> <Gold.Chemscore.Hbonds>
donor molecule, donor type, donor heavy atom, donor atom, acceptor molecule, acceptor atom, score
      P1  H  7989  7998       L1    18  0.04
      P1  H  7997  8008       L1    18  1.00
      L1  C     8    25       P1  8028  1.00

> <Gold.PLP.Chemscore.Internal.Correction>
0.0302

> <Gold.Rescore>
     Score         DG    S(hbond)    S(metal)    S(lipo)     H(rot)  DE(clash)    DE(int)     intcor
     13.51     -17.22       0.95        0.00      95.09       1.00       0.50       3.21       ----

> <Gold.Chemscore.Fitness>
13.5144

> <Gold.Chemscore.DG>
-17.2235

> <Gold.Chemscore.ZeroCoef>
-5.4800

> <Gold.Chemscore.Hbond>
0.9516

> <Gold.Chemscore.Metal>
0.0000

> <Gold.Chemscore.Lipo>
95.0882

> <Gold.Chemscore.Internal_Hbond>
0.0000

> <Gold.Chemscore.DEClash>
0.4955

> <Gold.Chemscore.DEInternal>
3.2136

> <Gold.Chemscore.Rot>
1.0000

> <Gold.Chemscore.Internal.Correction>
   9.000000E+99

> <Gold.Chemscore.Hbonds>
donor molecule, donor type, donor heavy atom, donor atom, acceptor molecule, acceptor atom, score
      P1  H  7997  8008       L1    18  0.79

> <Gold.Chemscore.Hbond.Weighted>
-3.1782

> <Gold.Chemscore.Metal.Weighted>
-0.0000

> <Gold.Chemscore.Lipo.Weighted>
-11.1253

> <Gold.Chemscore.Internal_Hbond.Weighted>
0.0000

> <Gold.Chemscore.DEClash.Weighted>
0.4955

> <Gold.Chemscore.DEInternal.Weighted>
3.2136

> <Gold.Chemscore.Rot.Weighted>
2.5600

> <Gold.Chemscore.Internal.Correction.Weighted>
   9.000000E+99

> <Gold.Protein.RotatedTorsions>
[ 6907 6896 6895 6894 ] final -130.05 input  -60.11 | X-H torsion
[ 7974 7965 7964 7962 ] final  -91.43 input  175.53 | X-H torsion
[ 8008 7997 7996 7995 ] final  -24.26 input   59.86 | X-H torsion
[ 10167 10162 10161 10158 ] final   96.19 input  -65.29 | X-H torsion
[ 10718 10713 10712 10709 ] final -171.98 input   66.30 | X-H torsion
[ 10763 10752 10751 10750 ] final   63.66 input  -60.55 | X-H torsion
[ 11005 11000 10999 10996 ] final  -26.86 input  -57.11 | X-H torsion

> <Gold.Protein.ActiveResidues>
 VAL166  LYS551  ARG553  GLY616  TRP617  ASP618  TYR619  PRO620  LYS621  CYS622 
 ASP623  PHE694  ASN695  SER759  ASP760  ASP761  ALA762  ILE779  LEU786  VAL792 
 PHE793  MET794  SER795  GLU796  ALA797  LYS798  CYS799  TRP800  GLU811  SER814 

> <Gold.Protein.RotatedAtoms>
  150.9354  133.6718  159.2801 H   0  0  0  0  0  0  0  0  0  0  0  0  # atno 6907 bound_to 6896
  151.4125  135.0985  159.9599 H   0  0  0  0  0  0  0  0  0  0  0  0  # atno 6908 bound_to 6896
  152.5045  133.8824  159.7408 H   0  0  0  0  0  0  0  0  0  0  0  0  # atno 6909 bound_to 6896
  145.4133  140.9546  143.2222 H   0  0  0  0  0  0  0  0  0  0  0  0  # atno 7974 bound_to 7965
  154.4539  140.1958  156.0437 H   0  0  0  0  0  0  0  0  0  0  0  0  # atno 8008 bound_to 7997
  156.0705  140.3285  155.7543 H   0  0  0  0  0  0  0  0  0  0  0  0  # atno 8009 bound_to 7997
  155.5270  140.0574  157.2887 H   0  0  0  0  0  0  0  0  0  0  0  0  # atno 8010 bound_to 7997
  139.7918  144.6849  150.9882 H   0  0  0  0  0  0  0  0  0  0  0  0  # atno 10167 bound_to 10162
  156.7489  130.9370  151.3114 H   0  0  0  0  0  0  0  0  0  0  0  0  # atno 10718 bound_to 10713
  153.0026  135.5421  154.6387 H   0  0  0  0  0  0  0  0  0  0  0  0  # atno 10763 bound_to 10752
  154.5647  135.2836  155.0887 H   0  0  0  0  0  0  0  0  0  0  0  0  # atno 10764 bound_to 10752
  154.2076  135.6473  153.5158 H   0  0  0  0  0  0  0  0  0  0  0  0  # atno 10765 bound_to 10752
  140.9067  133.7488  156.0615 H   0  0  0  0  0  0  0  0  0  0  0  0  # atno 11005 bound_to 11000
  144.8294  139.5654  143.6950 LP  0  0  0  0  0  0  0  0  0  0  0  0  # atno 17320 bound_to 7965
  146.2694  139.6598  142.9307 LP  0  0  0  0  0  0  0  0  0  0  0  0  # atno 17321 bound_to 7965
  140.7820  143.4373  151.0604 LP  0  0  0  0  0  0  0  0  0  0  0  0  # atno 17342 bound_to 10162
  139.8049  143.8031  152.3166 LP  0  0  0  0  0  0  0  0  0  0  0  0  # atno 17343 bound_to 10162
  157.6786  130.9118  150.0211 LP  0  0  0  0  0  0  0  0  0  0  0  0  # atno 17370 bound_to 10713
  156.1415  130.3642  149.9576 LP  0  0  0  0  0  0  0  0  0  0  0  0  # atno 17371 bound_to 10713
  140.8162  134.3342  157.5396 LP  0  0  0  0  0  0  0  0  0  0  0  0  # atno 17394 bound_to 11000
  139.8750  134.9283  156.3446 LP  0  0  0  0  0  0  0  0  0  0  0  0  # atno 17395 bound_to 11000

$$$$
