AV-unprocessed.smi:2159|AV-procd|sdf|8792|dock3
  -GOLD-   2272011573D 1   1.00000     0.00000
 Structure written by MMmdl.
 47 49  0  0  0  0  0  0  0  0  1 V2000
  153.0787  136.3741  157.0124 O   0  0  0  0  0  0  0  0  0  0  0  0
  152.7920  137.5406  157.2827 C   0  0  0  0  0  0  0  0  0  0  0  0
  153.6714  138.3613  158.2310 C   0  0  0  0  0  0  0  0  0  0  0  0
  152.9033  138.9060  159.4519 C   0  0  0  0  0  0  0  0  0  0  0  0
  152.8599  140.3723  159.4400 N   0  0  0  0  0  0  0  0  0  0  0  0
  152.3122  141.0974  158.4546 C   0  0  0  0  0  0  0  0  0  0  0  0
  151.7658  140.6541  157.4446 O   0  0  0  0  0  0  0  0  0  0  0  0
  152.4551  142.5930  158.7257 C   0  0  1  0  0  0  0  0  0  0  0  0
  151.0897  143.3117  158.7530 C   0  0  0  0  0  0  0  0  0  0  0  0
  151.2108  144.7233  159.3534 C   0  0  0  0  0  0  0  0  0  0  0  0
  151.9525  144.7575  160.7085 C   0  0  0  0  0  0  0  0  0  0  0  0
  152.4244  143.3733  161.1873 C   0  0  0  0  0  0  0  0  0  0  0  0
  153.1968  142.6271  160.0791 C   0  0  1  0  0  0  0  0  0  0  0  0
  153.3789  141.1464  160.4035 C   0  0  0  0  0  0  0  0  0  0  0  0
  153.9434  140.7540  161.4246 O   0  0  0  0  0  0  0  0  0  0  0  0
  151.7128  138.1662  156.7888 N   0  0  0  0  0  0  0  0  0  0  0  0
  150.7326  137.5707  155.8877 C   0  0  0  0  0  0  0  0  0  0  0  0
  150.7673  138.2200  154.4942 C   0  0  0  0  0  0  0  0  0  0  0  0
  149.7188  139.3064  154.3425 C   0  0  0  0  0  0  0  0  0  0  0  0
  148.4180  138.9922  153.8941 C   0  0  0  0  0  0  0  0  0  0  0  0
  147.4838  140.0372  153.7591 C   0  0  0  0  0  0  0  0  0  0  0  0
  147.8840  141.3498  154.0753 C   0  0  0  0  0  0  0  0  0  0  0  0
  149.2065  141.5597  154.5148 C   0  0  0  0  0  0  0  0  0  0  0  0
  150.1101  140.5645  154.6473 N   0  0  0  0  0  0  0  0  0  0  0  0
  154.5023  137.7408  158.5703 H   0  0  0  0  0  0  0  0  0  0  0  0
  154.1073  139.1853  157.6653 H   0  0  0  0  0  0  0  0  0  0  0  0
  151.8871  138.5078  159.4685 H   0  0  0  0  0  0  0  0  0  0  0  0
  153.3687  138.5548  160.3750 H   0  0  0  0  0  0  0  0  0  0  0  0
  153.0852  143.0318  157.9506 H   0  0  0  0  0  0  0  0  0  0  0  0
  150.6794  143.3757  157.7443 H   0  0  0  0  0  0  0  0  0  0  0  0
  150.3701  142.7341  159.3361 H   0  0  0  0  0  0  0  0  0  0  0  0
  151.7394  145.3643  158.6465 H   0  0  0  0  0  0  0  0  0  0  0  0
  150.2170  145.1584  159.4633 H   0  0  0  0  0  0  0  0  0  0  0  0
  152.8179  145.4152  160.6199 H   0  0  0  0  0  0  0  0  0  0  0  0
  151.3142  145.2071  161.4698 H   0  0  0  0  0  0  0  0  0  0  0  0
  153.0530  143.4856  162.0716 H   0  0  0  0  0  0  0  0  0  0  0  0
  151.5587  142.7885  161.5036 H   0  0  0  0  0  0  0  0  0  0  0  0
  154.1796  143.0820  159.9471 H   0  0  0  0  0  0  0  0  0  0  0  0
  151.5530  139.1240  157.0660 H   0  0  0  0  0  0  0  0  0  0  0  0
  150.8960  136.4939  155.8149 H   0  0  0  0  0  0  0  0  0  0  0  0
  149.7460  137.7057  156.3320 H   0  0  0  0  0  0  0  0  0  0  0  0
  151.7535  138.6471  154.3071 H   0  0  0  0  0  0  0  0  0  0  0  0
  150.6084  137.4666  153.7212 H   0  0  0  0  0  0  0  0  0  0  0  0
  148.1419  137.9750  153.6577 H   0  0  0  0  0  0  0  0  0  0  0  0
  146.4792  139.8353  153.4179 H   0  0  0  0  0  0  0  0  0  0  0  0
  147.1944  142.1757  153.9835 H   0  0  0  0  0  0  0  0  0  0  0  0
  149.5478  142.5532  154.7657 H   0  0  0  0  0  0  0  0  0  0  0  0
  1  2  2  0  0  0  0
  2  3  1  0  0  0  0
  2 16  1  0  0  0  0
  3  4  1  0  0  0  0
  3 25  1  0  0  0  0
  3 26  1  0  0  0  0
  4  5  1  0  0  0  0
  4 27  1  0  0  0  0
  4 28  1  0  0  0  0
  5 14  1  0  0  0  0
  5  6  1  0  0  0  0
  6  7  2  0  0  0  0
  6  8  1  0  0  0  0
  8 13  1  0  0  0  0
  8  9  1  0  0  0  0
  8 29  1  0  0  0  0
  9 10  1  0  0  0  0
  9 30  1  0  0  0  0
  9 31  1  0  0  0  0
 10 11  1  0  0  0  0
 10 32  1  0  0  0  0
 10 33  1  0  0  0  0
 11 12  1  0  0  0  0
 11 34  1  0  0  0  0
 11 35  1  0  0  0  0
 12 13  1  0  0  0  0
 12 36  1  0  0  0  0
 12 37  1  0  0  0  0
 13 14  1  0  0  0  0
 13 38  1  0  0  0  0
 14 15  2  0  0  0  0
 16 17  1  0  0  0  0
 16 39  1  0  0  0  0
 17 18  1  0  0  0  0
 17 40  1  0  0  0  0
 17 41  1  0  0  0  0
 18 19  1  0  0  0  0
 18 42  1  0  0  0  0
 18 43  1  0  0  0  0
 19 24  1  0  0  0  0
 19 20  2  0  0  0  0
 20 21  1  0  0  0  0
 20 44  1  0  0  0  0
 21 22  2  0  0  0  0
 21 45  1  0  0  0  0
 22 23  1  0  0  0  0
 22 46  1  0  0  0  0
 23 24  2  0  0  0  0
 23 47  1  0  0  0  0
M  END
> <s_m_source_file>
AV-unprocessed.smi

> <i_m_source_file_index>
2159

> <i_lp_mmshare_version>
43012

> <i_f3d_flags>
0

> <s_epik_input>
bjFbY0hdW2NIXVtjSF1bY0hdYzFbQ0gyXVtDSDJdW05IXUMoPU8pW0NIMl1bQ0gyXU4oQzI9TylDKD1PKVtDQEhdKFtDQEBIXTIzKVtDSDJdW0NIMl1bQ0gyXVtDSDJdMw==

> <s_epik_cmdline>
J2VwaWtfcHl0aG9uJywgJy1waCcsICc3LjAnLCAnLXRuJywgJzgnLCAnLW1hJywgJzIwMCcsICctbWV0YWxfYmluZGluZycsICctaW1hZScsICc8aW5maWxlLm1hZT4nLCAnLW9tYWUnLCAnPG91dGZpbGUubWFlPic=

> <r_lp_tautomer_probability>
1

> <r_epik_Ionization_Penalty>
0.026624

> <r_epik_Ionization_Penalty_Charging>
0

> <r_epik_Ionization_Penalty_Neutral>
0.026624

> <r_epik_State_Penalty>
0.0217444

> <r_epik_Charging_Adjusted_Penalty>
0.0217444

> <i_epik_Tot_Q>
0

> <i_epik_Tot_abs_Q>
0

> <r_epik_Metal_State_Penalty>
0.0208054

> <b_epik_Metal_Only>
0

> <s_lp_Force_Field>
OPLS_2005

> <r_lp_Energy>
25.0147

> <b_lp_Chiralities_Consistent>
1

> <s_lp_Variant>
AV-unprocessed.smi:2159-2

> <Gold.Version>
5.8.1

> <Gold.Id.Protein>
6NUR|6NUR_protein|mol2

> <Gold.PLP.Fitness>
55.5837

> <Gold.PLP.PLP>
-48.7797

> <Gold.PLP.part.hbond>
-2.0000

> <Gold.PLP.part.metal>
0.0000

> <Gold.PLP.part.buried>
-5.6848

> <Gold.PLP.part.nonpolar>
-41.5129

> <Gold.PLP.part.repulsive>
0.1718

> <Gold.PLP.ligand.clash>
0.0000

> <Gold.PLP.ligand.torsion>
1.0208

> <Gold.PLP.Chemscore.Hbond>
1.9280

> <Gold.PLP.Chemscore.CHOScore>
1.0000

> <Gold.PLP.Chemscore.Metal>
0.0000

> <Gold.Chemscore.Hbonds>
donor molecule, donor type, donor heavy atom, donor atom, acceptor molecule, acceptor atom, score
      P1  H  7989  7998       L1    24  0.88
      P1  H 10752 10764       L1     1  1.00
      L1  C    23    47       P1  8028  1.00

> <Gold.PLP.Chemscore.Internal.Correction>
0.0616

> <Gold.Rescore>
     Score         DG    S(hbond)    S(metal)    S(lipo)     H(rot)  DE(clash)    DE(int)     intcor
     18.29     -19.20       1.61        0.00     114.41       1.97       0.02       0.88       ----

> <Gold.Chemscore.Fitness>
18.2948

> <Gold.Chemscore.DG>
-19.1953

> <Gold.Chemscore.ZeroCoef>
-5.4800

> <Gold.Chemscore.Hbond>
1.6088

> <Gold.Chemscore.Metal>
0.0000

> <Gold.Chemscore.Lipo>
114.4132

> <Gold.Chemscore.Internal_Hbond>
0.0000

> <Gold.Chemscore.DEClash>
0.0231

> <Gold.Chemscore.DEInternal>
0.8774

> <Gold.Chemscore.Rot>
1.9704

> <Gold.Chemscore.Internal.Correction>
   9.000000E+99

> <Gold.Chemscore.Hbonds>
donor molecule, donor type, donor heavy atom, donor atom, acceptor molecule, acceptor atom, score
      P1  H  7989  7998       L1    24  0.29
      P1  H 10752 10764       L1     1  0.94

> <Gold.Chemscore.Hbond.Weighted>
-5.3732

> <Gold.Chemscore.Metal.Weighted>
-0.0000

> <Gold.Chemscore.Lipo.Weighted>
-13.3863

> <Gold.Chemscore.Internal_Hbond.Weighted>
0.0000

> <Gold.Chemscore.DEClash.Weighted>
0.0231

> <Gold.Chemscore.DEInternal.Weighted>
0.8774

> <Gold.Chemscore.Rot.Weighted>
5.0443

> <Gold.Chemscore.Internal.Correction.Weighted>
   9.000000E+99

> <Gold.Protein.RotatedTorsions>
[ 6907 6896 6895 6894 ] final -139.82 input  -60.11 | X-H torsion
[ 7974 7965 7964 7962 ] final  132.53 input  175.53 | X-H torsion
[ 8008 7997 7996 7995 ] final  126.60 input   59.86 | X-H torsion
[ 10167 10162 10161 10158 ] final  -83.03 input  -65.29 | X-H torsion
[ 10718 10713 10712 10709 ] final  150.87 input   66.30 | X-H torsion
[ 10763 10752 10751 10750 ] final  -10.56 input  -60.55 | X-H torsion
[ 11005 11000 10999 10996 ] final    1.88 input  -57.11 | X-H torsion

> <Gold.Protein.ActiveResidues>
 VAL166  LYS551  ARG553  GLY616  TRP617  ASP618  TYR619  PRO620  LYS621  CYS622 
 ASP623  PHE694  ASN695  SER759  ASP760  ASP761  ALA762  ILE779  LEU786  VAL792 
 PHE793  MET794  SER795  GLU796  ALA797  LYS798  CYS799  TRP800  GLU811  SER814 

> <Gold.Protein.RotatedAtoms>
  151.0527  133.5610  159.2640 H   0  0  0  0  0  0  0  0  0  0  0  0  # atno 6907 bound_to 6896
  151.2615  135.0655  159.9110 H   0  0  0  0  0  0  0  0  0  0  0  0  # atno 6908 bound_to 6896
  152.5384  134.0272  159.8062 H   0  0  0  0  0  0  0  0  0  0  0  0  # atno 6909 bound_to 6896
  144.9959  139.4360  143.5316 H   0  0  0  0  0  0  0  0  0  0  0  0  # atno 7974 bound_to 7965
  156.2868  140.2689  156.2138 H   0  0  0  0  0  0  0  0  0  0  0  0  # atno 8008 bound_to 7997
  155.0237  140.0386  157.2465 H   0  0  0  0  0  0  0  0  0  0  0  0  # atno 8009 bound_to 7997
  154.7413  140.2725  155.6376 H   0  0  0  0  0  0  0  0  0  0  0  0  # atno 8010 bound_to 7997
  140.4264  143.2565  151.8819 H   0  0  0  0  0  0  0  0  0  0  0  0  # atno 10167 bound_to 10162
  157.2780  131.0830  151.1552 H   0  0  0  0  0  0  0  0  0  0  0  0  # atno 10718 bound_to 10713
  153.4710  135.7017  153.5993 H   0  0  0  0  0  0  0  0  0  0  0  0  # atno 10763 bound_to 10752
  153.4247  135.3817  155.2133 H   0  0  0  0  0  0  0  0  0  0  0  0  # atno 10764 bound_to 10752
  154.8725  135.3936  154.4148 H   0  0  0  0  0  0  0  0  0  0  0  0  # atno 10765 bound_to 10752
  140.6105  133.9753  155.8175 H   0  0  0  0  0  0  0  0  0  0  0  0  # atno 11005 bound_to 11000
  146.3441  139.9318  142.8752 LP  0  0  0  0  0  0  0  0  0  0  0  0  # atno 17320 bound_to 7965
  145.2221  140.9939  143.4039 LP  0  0  0  0  0  0  0  0  0  0  0  0  # atno 17321 bound_to 7965
  139.4783  144.5382  151.8567 LP  0  0  0  0  0  0  0  0  0  0  0  0  # atno 17342 bound_to 10162
  140.4476  144.1900  150.5895 LP  0  0  0  0  0  0  0  0  0  0  0  0  # atno 17343 bound_to 10162
  157.2998  130.6837  149.6158 LP  0  0  0  0  0  0  0  0  0  0  0  0  # atno 17370 bound_to 10713
  155.9664  130.4395  150.5263 LP  0  0  0  0  0  0  0  0  0  0  0  0  # atno 17371 bound_to 10713
  141.0811  134.0060  157.3384 LP  0  0  0  0  0  0  0  0  0  0  0  0  # atno 17394 bound_to 11000
  139.9194  135.0199  156.8007 LP  0  0  0  0  0  0  0  0  0  0  0  0  # atno 17395 bound_to 11000

$$$$
