AV-unprocessed.smi:356|AV-procd|sdf|2408|dock5
  -GOLD-   2262022343D 1   1.00000     0.00000
 Structure written by MMmdl.
 41 43  0  0  0  0  0  0  0  0  1 V2000
  155.8336  139.7727  162.6355 C   0  0  0  0  0  0  0  0  0  0  0  0
  154.8097  140.7230  162.0999 C   0  0  0  0  0  0  0  0  0  0  0  0
  154.3850  141.7775  162.7963 N   0  0  0  0  0  0  0  0  0  0  0  0
  153.4658  142.3541  161.9408 C   0  0  0  0  0  0  0  0  0  0  0  0
  152.6646  143.5079  162.0971 C   0  0  0  0  0  0  0  0  0  0  0  0
  151.7853  143.9105  161.0707 C   0  0  0  0  0  0  0  0  0  0  0  0
  151.6939  143.1669  159.8763 C   0  0  0  0  0  0  0  0  0  0  0  0
  152.4822  142.0134  159.7004 C   0  0  0  0  0  0  0  0  0  0  0  0
  153.3590  141.6156  160.7277 C   0  0  0  0  0  0  0  0  0  0  0  0
  154.2548  140.5604  160.8739 N   0  0  0  0  0  0  0  0  0  0  0  0
  154.5268  139.5086  159.9042 C   0  0  0  0  0  0  0  0  0  0  0  0
  153.3589  138.5094  159.7691 C   0  0  2  0  0  0  0  0  0  0  0  0
  153.4611  137.5283  160.7811 O   0  0  0  0  0  0  0  0  0  0  0  0
  153.3498  137.7850  158.4081 C   0  0  0  0  0  0  0  0  0  0  0  0
  153.0117  138.6184  157.2532 N   0  0  0  0  0  0  0  0  0  0  0  0
  151.7337  139.3102  157.4100 C   0  0  0  0  0  0  0  0  0  0  0  0
  151.3834  140.1569  156.1738 C   0  0  0  0  0  0  0  0  0  0  0  0
  151.3770  139.3327  155.0130 O   0  0  0  0  0  0  0  0  0  0  0  0
  152.6228  138.6780  154.7988 C   0  0  0  0  0  0  0  0  0  0  0  0
  152.9731  137.8242  156.0298 C   0  0  0  0  0  0  0  0  0  0  0  0
  156.1751  140.0936  163.6200 H   0  0  0  0  0  0  0  0  0  0  0  0
  156.6968  139.7293  161.9718 H   0  0  0  0  0  0  0  0  0  0  0  0
  155.4092  138.7731  162.7295 H   0  0  0  0  0  0  0  0  0  0  0  0
  152.7278  144.0843  163.0082 H   0  0  0  0  0  0  0  0  0  0  0  0
  151.1786  144.7949  161.2010 H   0  0  0  0  0  0  0  0  0  0  0  0
  151.0186  143.4830  159.0947 H   0  0  0  0  0  0  0  0  0  0  0  0
  152.4155  141.4432  158.7860 H   0  0  0  0  0  0  0  0  0  0  0  0
  154.7438  139.9738  158.9425 H   0  0  0  0  0  0  0  0  0  0  0  0
  155.4403  138.9896  160.1969 H   0  0  0  0  0  0  0  0  0  0  0  0
  152.4107  139.0207  159.9291 H   0  0  0  0  0  0  0  0  0  0  0  0
  154.2528  137.0323  160.6399 H   0  0  0  0  0  0  0  0  0  0  0  0
  154.3386  137.3508  158.2534 H   0  0  0  0  0  0  0  0  0  0  0  0
  152.6595  136.9409  158.4540 H   0  0  0  0  0  0  0  0  0  0  0  0
  150.9390  138.5842  157.5879 H   0  0  0  0  0  0  0  0  0  0  0  0
  151.7598  139.9657  158.2789 H   0  0  0  0  0  0  0  0  0  0  0  0
  150.4008  140.6135  156.2924 H   0  0  0  0  0  0  0  0  0  0  0  0
  152.1006  140.9694  156.0476 H   0  0  0  0  0  0  0  0  0  0  0  0
  152.5476  138.0509  153.9106 H   0  0  0  0  0  0  0  0  0  0  0  0
  153.4021  139.4166  154.6057 H   0  0  0  0  0  0  0  0  0  0  0  0
  153.9389  137.3438  155.8697 H   0  0  0  0  0  0  0  0  0  0  0  0
  152.2393  137.0229  156.1317 H   0  0  0  0  0  0  0  0  0  0  0  0
  1  2  1  0  0  0  0
  1 21  1  0  0  0  0
  1 22  1  0  0  0  0
  1 23  1  0  0  0  0
  2 10  1  0  0  0  0
  2  3  2  0  0  0  0
  3  4  1  0  0  0  0
  4  9  2  0  0  0  0
  4  5  1  0  0  0  0
  5  6  2  0  0  0  0
  5 24  1  0  0  0  0
  6  7  1  0  0  0  0
  6 25  1  0  0  0  0
  7  8  2  0  0  0  0
  7 26  1  0  0  0  0
  8  9  1  0  0  0  0
  8 27  1  0  0  0  0
  9 10  1  0  0  0  0
 10 11  1  0  0  0  0
 11 12  1  0  0  0  0
 11 28  1  0  0  0  0
 11 29  1  0  0  0  0
 12 13  1  0  0  0  0
 12 14  1  0  0  0  0
 12 30  1  0  0  0  0
 13 31  1  0  0  0  0
 14 15  1  0  0  0  0
 14 32  1  0  0  0  0
 14 33  1  0  0  0  0
 15 20  1  0  0  0  0
 15 16  1  0  0  0  0
 16 17  1  0  0  0  0
 16 34  1  0  0  0  0
 16 35  1  0  0  0  0
 17 18  1  0  0  0  0
 17 36  1  0  0  0  0
 17 37  1  0  0  0  0
 18 19  1  0  0  0  0
 19 20  1  0  0  0  0
 19 38  1  0  0  0  0
 19 39  1  0  0  0  0
 20 40  1  0  0  0  0
 20 41  1  0  0  0  0
M  END
> <s_m_source_file>
AV-unprocessed.smi

> <i_m_source_file_index>
356

> <i_lp_mmshare_version>
43012

> <i_f3d_flags>
0

> <s_epik_input>
W2NIXTFbY0hdW2NIXVtjSF1jKGMxMiluKGMobjIpW0NIM10pW0NIMl1bQ0BIXShbT0hdKVtDSDJdTjNbQ0gyXVtDSDJdT1tDSDJdW0NIMl0z

> <s_epik_cmdline>
J2VwaWtfcHl0aG9uJywgJy1waCcsICc3LjAnLCAnLXRuJywgJzgnLCAnLW1hJywgJzIwMCcsICctbWV0YWxfYmluZGluZycsICctaW1hZScsICc8aW5maWxlLm1hZT4nLCAnLW9tYWUnLCAnPG91dGZpbGUubWFlPic=

> <r_epik_Ionization_Penalty>
0.355661

> <r_epik_Ionization_Penalty_Charging>
0

> <r_epik_Ionization_Penalty_Neutral>
0.355661

> <r_epik_State_Penalty>
0.325123

> <r_epik_Charging_Adjusted_Penalty>
0.325123

> <i_epik_Tot_Q>
0

> <i_epik_Tot_abs_Q>
0

> <r_epik_Metal_State_Penalty>
0.239925

> <b_epik_Metal_Only>
0

> <s_lp_Force_Field>
OPLS_2005

> <r_lp_Energy>
27.9323

> <b_lp_Chiralities_Consistent>
1

> <s_lp_Variant>
AV-unprocessed.smi:356-1

> <Gold.Version>
5.8.1

> <Gold.Id.Protein>
6NUR|6NUR_protein|mol2

> <Gold.PLP.Fitness>
50.4774

> <Gold.PLP.PLP>
-45.3432

> <Gold.PLP.part.hbond>
-3.0000

> <Gold.PLP.part.metal>
0.0000

> <Gold.PLP.part.buried>
-4.5006

> <Gold.PLP.part.nonpolar>
-36.7978

> <Gold.PLP.part.repulsive>
0.0506

> <Gold.PLP.ligand.clash>
0.0000

> <Gold.PLP.ligand.torsion>
0.4365

> <Gold.PLP.Chemscore.Hbond>
2.0000

> <Gold.PLP.Chemscore.CHOScore>
0.0000

> <Gold.PLP.Chemscore.Metal>
0.0000

> <Gold.Chemscore.Hbonds>
donor molecule, donor type, donor heavy atom, donor atom, acceptor molecule, acceptor atom, score
      P1  H  7989  7998       L1    18  0.49
      P1  H  7997  8009       L1    15  0.78

> <Gold.PLP.Chemscore.Internal.Correction>
0.0072

> <Gold.Rescore>
     Score         DG    S(hbond)    S(metal)    S(lipo)     H(rot)  DE(clash)    DE(int)     intcor
     14.81     -15.49       0.57        0.00     112.65       1.99       0.23       0.46       ----

> <Gold.Chemscore.Fitness>
14.8056

> <Gold.Chemscore.DG>
-15.4925

> <Gold.Chemscore.ZeroCoef>
-5.4800

> <Gold.Chemscore.Hbond>
0.5743

> <Gold.Chemscore.Metal>
0.0000

> <Gold.Chemscore.Lipo>
112.6452

> <Gold.Chemscore.Internal_Hbond>
0.0000

> <Gold.Chemscore.DEClash>
0.2266

> <Gold.Chemscore.DEInternal>
0.4603

> <Gold.Chemscore.Rot>
1.9863

> <Gold.Chemscore.Internal.Correction>
   9.000000E+99

> <Gold.Chemscore.Hbonds>
donor molecule, donor type, donor heavy atom, donor atom, acceptor molecule, acceptor atom, score
      P1  H  7989  7998       L1    18  0.02
      P1  H  7997  8009       L1    15  0.19

> <Gold.Chemscore.Hbond.Weighted>
-1.9181

> <Gold.Chemscore.Metal.Weighted>
-0.0000

> <Gold.Chemscore.Lipo.Weighted>
-13.1795

> <Gold.Chemscore.Internal_Hbond.Weighted>
0.0000

> <Gold.Chemscore.DEClash.Weighted>
0.2266

> <Gold.Chemscore.DEInternal.Weighted>
0.4603

> <Gold.Chemscore.Rot.Weighted>
5.0850

> <Gold.Chemscore.Internal.Correction.Weighted>
   9.000000E+99

> <Gold.Protein.RotatedTorsions>
[ 6907 6896 6895 6894 ] final -115.82 input  -60.11 | X-H torsion
[ 7974 7965 7964 7962 ] final -125.36 input  175.53 | X-H torsion
[ 8008 7997 7996 7995 ] final  154.61 input   59.86 | X-H torsion
[ 10167 10162 10161 10158 ] final  125.97 input  -65.29 | X-H torsion
[ 10718 10713 10712 10709 ] final  141.62 input   66.30 | X-H torsion
[ 10763 10752 10751 10750 ] final  -81.36 input  -60.55 | X-H torsion
[ 11005 11000 10999 10996 ] final  -93.94 input  -57.11 | X-H torsion

> <Gold.Protein.ActiveResidues>
 VAL166  LYS551  ARG553  GLY616  TRP617  ASP618  TYR619  PRO620  LYS621  CYS622 
 ASP623  PHE694  ASN695  SER759  ASP760  ASP761  ALA762  ILE779  LEU786  VAL792 
 PHE793  MET794  SER795  GLU796  ALA797  LYS798  CYS799  TRP800  GLU811  SER814 

> <Gold.Protein.RotatedAtoms>
  150.8007  133.8605  159.3230 H   0  0  0  0  0  0  0  0  0  0  0  0  # atno 6907 bound_to 6896
  151.6417  135.1010  160.0152 H   0  0  0  0  0  0  0  0  0  0  0  0  # atno 6908 bound_to 6896
  152.4094  133.6900  159.6419 H   0  0  0  0  0  0  0  0  0  0  0  0  # atno 6909 bound_to 6896
  144.9984  140.7797  143.4511 H   0  0  0  0  0  0  0  0  0  0  0  0  # atno 7974 bound_to 7965
  156.2522  140.1962  156.6673 H   0  0  0  0  0  0  0  0  0  0  0  0  # atno 8008 bound_to 7997
  154.6419  140.0582  156.9881 H   0  0  0  0  0  0  0  0  0  0  0  0  # atno 8009 bound_to 7997
  155.1549  140.3254  155.4426 H   0  0  0  0  0  0  0  0  0  0  0  0  # atno 8010 bound_to 7997
  139.5656  144.6909  151.3919 H   0  0  0  0  0  0  0  0  0  0  0  0  # atno 10167 bound_to 10162
  157.3899  131.1003  151.0657 H   0  0  0  0  0  0  0  0  0  0  0  0  # atno 10718 bound_to 10713
  154.5627  135.5629  153.7022 H   0  0  0  0  0  0  0  0  0  0  0  0  # atno 10763 bound_to 10752
  153.0023  135.6277  154.2223 H   0  0  0  0  0  0  0  0  0  0  0  0  # atno 10764 bound_to 10752
  154.2161  135.2871  155.2921 H   0  0  0  0  0  0  0  0  0  0  0  0  # atno 10765 bound_to 10752
  141.1484  133.7922  157.0229 H   0  0  0  0  0  0  0  0  0  0  0  0  # atno 11005 bound_to 11000
  145.2187  139.2169  143.5104 LP  0  0  0  0  0  0  0  0  0  0  0  0  # atno 17320 bound_to 7965
  146.3447  140.2041  142.8589 LP  0  0  0  0  0  0  0  0  0  0  0  0  # atno 17321 bound_to 7965
  140.6939  143.7795  150.7297 LP  0  0  0  0  0  0  0  0  0  0  0  0  # atno 17342 bound_to 10162
  140.1285  143.4547  152.2269 LP  0  0  0  0  0  0  0  0  0  0  0  0  # atno 17343 bound_to 10162
  157.1694  130.6261  149.5636 LP  0  0  0  0  0  0  0  0  0  0  0  0  # atno 17370 bound_to 10713
  155.9796  130.4790  150.6723 LP  0  0  0  0  0  0  0  0  0  0  0  0  # atno 17371 bound_to 10713
  140.0804  134.9651  157.1615 LP  0  0  0  0  0  0  0  0  0  0  0  0  # atno 17394 bound_to 11000
  140.3585  134.2521  155.7190 LP  0  0  0  0  0  0  0  0  0  0  0  0  # atno 17395 bound_to 11000

$$$$
