AV-unprocessed.smi:3222|AV-procd|sdf|12306|dock5
  -GOLD-   2272018153D 1   1.00000     0.00000
 Structure written by MMmdl.
 41 42  0  0  0  0  0  0  0  0  2 V2000
  149.1505  141.3819  156.8172 C   0  0  0  0  0  0  0  0  0  0  0  0
  150.5922  141.6737  156.3705 C   0  0  1  0  0  0  0  0  0  0  0  0
  151.0069  143.0020  156.8778 N   0  3  0  0  0  0  0  0  0  0  0  0
  150.8374  143.1984  158.3302 C   0  0  0  0  0  0  0  0  0  0  0  0
  151.9994  144.0207  158.9080 C   0  0  0  0  0  0  0  0  0  0  0  0
  152.3196  143.6190  160.2750 N   0  0  0  0  0  0  0  0  0  0  0  0
  151.8512  144.3995  161.4077 C   0  0  0  0  0  0  0  0  0  0  0  0
  152.5290  143.7702  162.6333 C   0  0  0  0  0  0  0  0  0  0  0  0
  153.0906  142.4263  162.1561 C   0  0  0  0  0  0  0  0  0  0  0  0
  152.9863  142.5188  160.6433 C   0  0  0  0  0  0  0  0  0  0  0  0
  153.4631  141.6740  159.8870 O   0  0  0  0  0  0  0  0  0  0  0  0
  151.5897  140.5672  156.8025 C   0  0  1  0  0  0  0  0  0  0  0  0
  151.5445  140.2760  158.3147 C   0  0  0  0  0  0  0  0  0  0  0  0
  151.4696  139.3468  156.0099 N   0  0  0  0  0  0  0  0  0  0  0  0
  151.3834  138.0451  156.4608 C   0  0  0  0  0  0  0  0  0  0  0  0
  151.3076  137.2349  155.3646 C   0  0  0  0  0  0  0  0  0  0  0  0
  151.3592  138.1414  154.2699 C   0  0  0  0  0  0  0  0  0  0  0  0
  151.4620  139.4021  154.6579 N   0  0  0  0  0  0  0  0  0  0  0  0
  148.8208  140.4045  156.4639 H   0  0  0  0  0  0  0  0  0  0  0  0
  148.4600  142.1245  156.4162 H   0  0  0  0  0  0  0  0  0  0  0  0
  149.0520  141.3939  157.9032 H   0  0  0  0  0  0  0  0  0  0  0  0
  150.5884  141.6984  155.2792 H   0  0  0  0  0  0  0  0  0  0  0  0
  151.9781  143.1468  156.6421 H   0  0  0  0  0  0  0  0  0  0  0  0
  149.8883  143.7050  158.5100 H   0  0  0  0  0  0  0  0  0  0  0  0
  150.7852  142.2252  158.8203 H   0  0  0  0  0  0  0  0  0  0  0  0
  152.8850  143.9049  158.2813 H   0  0  0  0  0  0  0  0  0  0  0  0
  151.7514  145.0835  158.8966 H   0  0  0  0  0  0  0  0  0  0  0  0
  152.1102  145.4535  161.2992 H   0  0  0  0  0  0  0  0  0  0  0  0
  150.7655  144.3187  161.4773 H   0  0  0  0  0  0  0  0  0  0  0  0
  153.3419  144.4089  162.9815 H   0  0  0  0  0  0  0  0  0  0  0  0
  151.8300  143.6490  163.4616 H   0  0  0  0  0  0  0  0  0  0  0  0
  154.1215  142.2729  162.4765 H   0  0  0  0  0  0  0  0  0  0  0  0
  152.4844  141.5925  162.5117 H   0  0  0  0  0  0  0  0  0  0  0  0
  152.5895  140.9568  156.6041 H   0  0  0  0  0  0  0  0  0  0  0  0
  151.7235  141.1834  158.8919 H   0  0  0  0  0  0  0  0  0  0  0  0
  152.3112  139.5531  158.5957 H   0  0  0  0  0  0  0  0  0  0  0  0
  150.5808  139.8724  158.6263 H   0  0  0  0  0  0  0  0  0  0  0  0
  151.3846  137.8052  157.5140 H   0  0  0  0  0  0  0  0  0  0  0  0
  151.2285  136.1579  155.3469 H   0  0  0  0  0  0  0  0  0  0  0  0
  151.3292  137.9225  153.2127 H   0  0  0  0  0  0  0  0  0  0  0  0
  150.4576  143.7009  156.3968 H   0  0  0  0  0  0  0  0  0  0  0  0
  1  2  1  0  0  0  0
  1 19  1  0  0  0  0
  1 20  1  0  0  0  0
  1 21  1  0  0  0  0
  2  3  1  0  0  0  0
  2 12  1  0  0  0  0
  2 22  1  0  0  0  0
  3  4  1  0  0  0  0
  3 23  1  0  0  0  0
  3 41  1  0  0  0  0
  4  5  1  0  0  0  0
  4 24  1  0  0  0  0
  4 25  1  0  0  0  0
  5  6  1  0  0  0  0
  5 26  1  0  0  0  0
  5 27  1  0  0  0  0
  6 10  1  0  0  0  0
  6  7  1  0  0  0  0
  7  8  1  0  0  0  0
  7 28  1  0  0  0  0
  7 29  1  0  0  0  0
  8  9  1  0  0  0  0
  8 30  1  0  0  0  0
  8 31  1  0  0  0  0
  9 10  1  0  0  0  0
  9 32  1  0  0  0  0
  9 33  1  0  0  0  0
 10 11  2  0  0  0  0
 12 13  1  0  0  0  0
 12 14  1  0  0  0  0
 12 34  1  0  0  0  0
 13 35  1  0  0  0  0
 13 36  1  0  0  0  0
 13 37  1  0  0  0  0
 14 18  1  0  0  0  0
 14 15  1  0  0  0  0
 15 16  2  0  0  0  0
 15 38  1  0  0  0  0
 16 17  1  0  0  0  0
 16 39  1  0  0  0  0
 17 18  2  0  0  0  0
 17 40  1  0  0  0  0
M  CHG  1   3   1
M  END
> <s_m_source_file>
AV-unprocessed.smi

> <i_m_source_file_index>
3222

> <i_lp_mmshare_version>
43012

> <i_f3d_flags>
0

> <s_epik_input>
bjFbY0hdW2NIXVtjSF1uMVtDQEBIXShbQ0gzXSlbQ0BIXShbQ0gzXSlbTkhdW0NIMl1bQ0gyXU4yW0NIMl1bQ0gyXVtDSDJdQzI9Tw==

> <s_epik_cmdline>
J2VwaWtfcHl0aG9uJywgJy1waCcsICc3LjAnLCAnLXRuJywgJzgnLCAnLW1hJywgJzIwMCcsICctbWV0YWxfYmluZGluZycsICctaW1hZScsICc8aW5maWxlLm1hZT4nLCAnLW9tYWUnLCAnPG91dGZpbGUubWFlPic=

> <r_lp_tautomer_probability>
1

> <r_epik_Ionization_Penalty>
0.0064019

> <r_epik_Ionization_Penalty_Charging>
0.00639164

> <r_epik_Ionization_Penalty_Neutral>
1.02567e-05

> <r_epik_State_Penalty>
0.00472531

> <r_epik_Charging_Adjusted_Penalty>
0.011117

> <i_epik_Tot_Q>
1

> <i_epik_Tot_abs_Q>
1

> <r_epik_Metal_State_Penalty>
-0

> <b_epik_Metal_Only>
0

> <s_lp_Force_Field>
OPLS_2005

> <r_lp_Energy>
25.7217

> <b_lp_Chiralities_Consistent>
1

> <s_lp_Variant>
AV-unprocessed.smi:3222-4

> <Gold.Version>
5.8.1

> <Gold.Id.Protein>
6NUR|6NUR_protein|mol2

> <Gold.PLP.Fitness>
55.0973

> <Gold.PLP.PLP>
-44.7598

> <Gold.PLP.part.hbond>
-2.0000

> <Gold.PLP.part.metal>
0.0000

> <Gold.PLP.part.buried>
-6.3601

> <Gold.PLP.part.nonpolar>
-36.4694

> <Gold.PLP.part.repulsive>
0.1672

> <Gold.PLP.ligand.clash>
0.0000

> <Gold.PLP.ligand.torsion>
1.0336

> <Gold.PLP.Chemscore.Hbond>
3.0000

> <Gold.PLP.Chemscore.CHOScore>
1.0594

> <Gold.PLP.Chemscore.Metal>
0.0000

> <Gold.Chemscore.Hbonds>
donor molecule, donor type, donor heavy atom, donor atom, acceptor molecule, acceptor atom, score
      L1  H     3    41       P1  8028  2.00
      P1  H  7989  7998       L1    18  1.00
      L1  C    17    40       P1  7949  0.85

> <Gold.PLP.Chemscore.Internal.Correction>
0.2263

> <Gold.Rescore>
     Score         DG    S(hbond)    S(metal)    S(lipo)     H(rot)  DE(clash)    DE(int)     intcor
     16.67     -18.10       1.98        0.00      94.78       1.99       0.08       1.34       ----

> <Gold.Chemscore.Fitness>
16.6733

> <Gold.Chemscore.DG>
-18.0965

> <Gold.Chemscore.ZeroCoef>
-5.4800

> <Gold.Chemscore.Hbond>
1.9841

> <Gold.Chemscore.Metal>
0.0000

> <Gold.Chemscore.Lipo>
94.7838

> <Gold.Chemscore.Internal_Hbond>
0.0000

> <Gold.Chemscore.DEClash>
0.0842

> <Gold.Chemscore.DEInternal>
1.3390

> <Gold.Chemscore.Rot>
1.9922

> <Gold.Chemscore.Internal.Correction>
   9.000000E+99

> <Gold.Chemscore.Hbonds>
donor molecule, donor type, donor heavy atom, donor atom, acceptor molecule, acceptor atom, score
      L1  H     3    41       P1  8028  0.96
      P1  H  7989  7998       L1    18  0.99

> <Gold.Chemscore.Hbond.Weighted>
-6.6269

> <Gold.Chemscore.Metal.Weighted>
-0.0000

> <Gold.Chemscore.Lipo.Weighted>
-11.0897

> <Gold.Chemscore.Internal_Hbond.Weighted>
0.0000

> <Gold.Chemscore.DEClash.Weighted>
0.0842

> <Gold.Chemscore.DEInternal.Weighted>
1.3390

> <Gold.Chemscore.Rot.Weighted>
5.1002

> <Gold.Chemscore.Internal.Correction.Weighted>
   9.000000E+99

> <Gold.Protein.RotatedTorsions>
[ 6907 6896 6895 6894 ] final  117.43 input  -60.11 | X-H torsion
[ 7974 7965 7964 7962 ] final   73.47 input  175.53 | X-H torsion
[ 8008 7997 7996 7995 ] final   88.44 input   59.86 | X-H torsion
[ 10167 10162 10161 10158 ] final   73.22 input  -65.29 | X-H torsion
[ 10718 10713 10712 10709 ] final   72.77 input   66.30 | X-H torsion
[ 10763 10752 10751 10750 ] final -170.60 input  -60.55 | X-H torsion
[ 11005 11000 10999 10996 ] final  -10.05 input  -57.11 | X-H torsion

> <Gold.Protein.ActiveResidues>
 VAL166  LYS551  ARG553  GLY616  TRP617  ASP618  TYR619  PRO620  LYS621  CYS622 
 ASP623  PHE694  ASN695  SER759  ASP760  ASP761  ALA762  ILE779  LEU786  VAL792 
 PHE793  MET794  SER795  GLU796  ALA797  LYS798  CYS799  TRP800  GLU811  SER814 

> <Gold.Protein.RotatedAtoms>
  152.4612  133.7826  159.6858 H   0  0  0  0  0  0  0  0  0  0  0  0  # atno 6907 bound_to 6896
  150.8557  133.7710  159.3016 H   0  0  0  0  0  0  0  0  0  0  0  0  # atno 6908 bound_to 6896
  151.5291  135.1071  159.9950 H   0  0  0  0  0  0  0  0  0  0  0  0  # atno 6909 bound_to 6896
  145.7405  139.2719  143.1489 H   0  0  0  0  0  0  0  0  0  0  0  0  # atno 7974 bound_to 7965
  155.9878  140.3371  155.6724 H   0  0  0  0  0  0  0  0  0  0  0  0  # atno 8008 bound_to 7997
  155.6462  140.0700  157.2620 H   0  0  0  0  0  0  0  0  0  0  0  0  # atno 8009 bound_to 7997
  154.4210  140.1734  156.1613 H   0  0  0  0  0  0  0  0  0  0  0  0  # atno 8010 bound_to 7997
  140.0268  144.5497  150.7538 H   0  0  0  0  0  0  0  0  0  0  0  0  # atno 10167 bound_to 10162
  157.6517  130.9595  150.0976 H   0  0  0  0  0  0  0  0  0  0  0  0  # atno 10718 bound_to 10713
  154.6397  135.2897  155.0118 H   0  0  0  0  0  0  0  0  0  0  0  0  # atno 10763 bound_to 10752
  154.1249  135.6542  153.4914 H   0  0  0  0  0  0  0  0  0  0  0  0  # atno 10764 bound_to 10752
  153.0320  135.5296  154.7258 H   0  0  0  0  0  0  0  0  0  0  0  0  # atno 10765 bound_to 10752
  140.7406  133.8673  155.8965 H   0  0  0  0  0  0  0  0  0  0  0  0  # atno 11005 bound_to 11000
  146.0452  140.8125  142.9809 LP  0  0  0  0  0  0  0  0  0  0  0  0  # atno 17320 bound_to 7965
  144.6872  140.2970  143.7269 LP  0  0  0  0  0  0  0  0  0  0  0  0  # atno 17321 bound_to 7965
  140.7319  143.2699  151.3921 LP  0  0  0  0  0  0  0  0  0  0  0  0  # atno 17342 bound_to 10162
  139.6103  144.1113  152.2291 LP  0  0  0  0  0  0  0  0  0  0  0  0  # atno 17343 bound_to 10162
  156.1907  130.3654  149.8913 LP  0  0  0  0  0  0  0  0  0  0  0  0  # atno 17370 bound_to 10713
  156.6842  130.8870  151.3580 LP  0  0  0  0  0  0  0  0  0  0  0  0  # atno 17371 bound_to 10713
  140.9840  134.1367  157.4469 LP  0  0  0  0  0  0  0  0  0  0  0  0  # atno 17394 bound_to 11000
  139.8807  135.0019  156.6098 LP  0  0  0  0  0  0  0  0  0  0  0  0  # atno 17395 bound_to 11000

$$$$
