AV-unprocessed.smi:769|AV-procd|sdf|3675|dock9
  -GOLD-   22720 1 83D 1   1.00000     0.00000
 Structure written by MMmdl.
 50 52  0  0  0  0  0  0  0  0  2 V2000
  144.4963  136.3387  152.5331 O   0  0  0  0  0  0  0  0  0  0  0  0
  145.7057  136.1938  152.3565 C   0  0  0  0  0  0  0  0  0  0  0  0
  146.6222  137.0537  152.8246 N   0  0  0  0  0  0  0  0  0  0  0  0
  146.3210  138.2423  153.6145 C   0  0  0  0  0  0  0  0  0  0  0  0
  146.8180  139.5263  152.9215 C   0  0  0  0  0  0  0  0  0  0  0  0
  148.1668  139.9379  153.3846 N   0  3  0  0  0  0  0  0  0  0  0  0
  148.1141  141.1400  154.2611 C   0  0  0  0  0  0  0  0  0  0  0  0
  149.5174  141.5573  154.7391 C   0  0  0  0  0  0  0  0  0  0  0  0
  150.1514  140.4137  155.4008 N   0  0  0  0  0  0  0  0  0  0  0  0
  150.4202  140.3873  156.7291 C   0  0  0  0  0  0  0  0  0  0  0  0
  150.8625  139.3807  157.2840 O   0  0  0  0  0  0  0  0  0  0  0  0
  150.2087  141.6713  157.5604 C   0  0  0  0  0  0  0  0  0  0  0  0
  151.0222  142.9096  157.1335 C   0  0  0  0  0  0  0  0  0  0  0  0
  151.9963  142.6475  158.2859 C   0  0  0  0  0  0  0  0  0  0  0  0
  150.9723  141.6849  158.8956 C   0  0  0  0  0  0  0  0  0  0  0  0
  150.3325  139.3000  154.4653 C   0  0  0  0  0  0  0  0  0  0  0  0
  148.9504  138.8215  153.9854 C   0  0  0  0  0  0  0  0  0  0  0  0
  146.2838  135.1912  151.6720 N   0  0  0  0  0  0  0  0  0  0  0  0
  145.6758  134.0794  151.0260 C   0  0  0  0  0  0  0  0  0  0  0  0
  146.5223  133.0454  150.5751 C   0  0  0  0  0  0  0  0  0  0  0  0
  145.9494  131.9237  149.9430 C   0  0  0  0  0  0  0  0  0  0  0  0
  144.6219  131.7794  149.7494 N   0  0  0  0  0  0  0  0  0  0  0  0
  143.8114  132.7636  150.1922 C   0  0  0  0  0  0  0  0  0  0  0  0
  144.2808  133.9260  150.8367 C   0  0  0  0  0  0  0  0  0  0  0  0
  147.5957  136.8643  152.6339 H   0  0  0  0  0  0  0  0  0  0  0  0
  145.2477  138.2775  153.8030 H   0  0  0  0  0  0  0  0  0  0  0  0
  146.8033  138.1341  154.5862 H   0  0  0  0  0  0  0  0  0  0  0  0
  146.8514  139.3383  151.8472 H   0  0  0  0  0  0  0  0  0  0  0  0
  146.1182  140.3508  153.0666 H   0  0  0  0  0  0  0  0  0  0  0  0
  147.6527  141.9677  153.7211 H   0  0  0  0  0  0  0  0  0  0  0  0
  147.4789  140.9294  155.1233 H   0  0  0  0  0  0  0  0  0  0  0  0
  150.1284  141.8663  153.8897 H   0  0  0  0  0  0  0  0  0  0  0  0
  149.4397  142.4345  155.3826 H   0  0  0  0  0  0  0  0  0  0  0  0
  149.1523  141.9219  157.6624 H   0  0  0  0  0  0  0  0  0  0  0  0
  151.4853  142.8743  156.1468 H   0  0  0  0  0  0  0  0  0  0  0  0
  150.4608  143.8359  157.2623 H   0  0  0  0  0  0  0  0  0  0  0  0
  152.9062  142.1419  157.9599 H   0  0  0  0  0  0  0  0  0  0  0  0
  152.2169  143.5218  158.8989 H   0  0  0  0  0  0  0  0  0  0  0  0
  150.3925  142.1342  159.7030 H   0  0  0  0  0  0  0  0  0  0  0  0
  151.3980  140.7276  159.2002 H   0  0  0  0  0  0  0  0  0  0  0  0
  150.9199  139.6460  153.6134 H   0  0  0  0  0  0  0  0  0  0  0  0
  150.8960  138.4647  154.8781 H   0  0  0  0  0  0  0  0  0  0  0  0
  148.3960  138.3990  154.8250 H   0  0  0  0  0  0  0  0  0  0  0  0
  149.0857  138.0201  153.2603 H   0  0  0  0  0  0  0  0  0  0  0  0
  147.2855  135.2521  151.5634 H   0  0  0  0  0  0  0  0  0  0  0  0
  147.5930  133.1068  150.7048 H   0  0  0  0  0  0  0  0  0  0  0  0
  146.5757  131.1203  149.5846 H   0  0  0  0  0  0  0  0  0  0  0  0
  142.7531  132.6184  150.0329 H   0  0  0  0  0  0  0  0  0  0  0  0
  143.5647  134.6575  151.1763 H   0  0  0  0  0  0  0  0  0  0  0  0
  148.6733  140.2284  152.5605 H   0  0  0  0  0  0  0  0  0  0  0  0
  1  2  2  0  0  0  0
  2  3  1  0  0  0  0
  2 18  1  0  0  0  0
  3  4  1  0  0  0  0
  3 25  1  0  0  0  0
  4  5  1  0  0  0  0
  4 26  1  0  0  0  0
  4 27  1  0  0  0  0
  5  6  1  0  0  0  0
  5 28  1  0  0  0  0
  5 29  1  0  0  0  0
  6 17  1  0  0  0  0
  6  7  1  0  0  0  0
  6 50  1  0  0  0  0
  7  8  1  0  0  0  0
  7 30  1  0  0  0  0
  7 31  1  0  0  0  0
  8  9  1  0  0  0  0
  8 32  1  0  0  0  0
  8 33  1  0  0  0  0
  9 10  1  0  0  0  0
  9 16  1  0  0  0  0
 10 11  2  0  0  0  0
 10 12  1  0  0  0  0
 12 15  1  0  0  0  0
 12 13  1  0  0  0  0
 12 34  1  0  0  0  0
 13 14  1  0  0  0  0
 13 35  1  0  0  0  0
 13 36  1  0  0  0  0
 14 15  1  0  0  0  0
 14 37  1  0  0  0  0
 14 38  1  0  0  0  0
 15 39  1  0  0  0  0
 15 40  1  0  0  0  0
 16 17  1  0  0  0  0
 16 41  1  0  0  0  0
 16 42  1  0  0  0  0
 17 43  1  0  0  0  0
 17 44  1  0  0  0  0
 18 19  1  0  0  0  0
 18 45  1  0  0  0  0
 19 24  1  0  0  0  0
 19 20  2  0  0  0  0
 20 21  1  0  0  0  0
 20 46  1  0  0  0  0
 21 22  2  0  0  0  0
 21 47  1  0  0  0  0
 22 23  1  0  0  0  0
 23 24  2  0  0  0  0
 23 48  1  0  0  0  0
 24 49  1  0  0  0  0
M  CHG  1   6   1
M  END
> <s_m_source_file>
AV-unprocessed.smi

> <i_m_source_file_index>
769

> <i_lp_mmshare_version>
43012

> <i_f3d_flags>
0

> <s_epik_input>
W2NIXTFbY0hdbltjSF1bY0hdYzFbTkhdQyg9TylbTkhdW0NIMl1bQ0gyXU4yW0NIMl1bQ0gyXU4oW0NIMl1bQ0gyXTIpQyg9TylbQ0hdM1tDSDJdW0NIMl1bQ0gyXTM=

> <s_epik_cmdline>
J2VwaWtfcHl0aG9uJywgJy1waCcsICc3LjAnLCAnLXRuJywgJzgnLCAnLW1hJywgJzIwMCcsICctbWV0YWxfYmluZGluZycsICctaW1hZScsICc8aW5maWxlLm1hZT4nLCAnLW9tYWUnLCAnPG91dGZpbGUubWFlPic=

> <r_epik_Ionization_Penalty>
0.680309

> <r_epik_Ionization_Penalty_Charging>
0.581996

> <r_epik_Ionization_Penalty_Neutral>
0.0983131

> <r_epik_State_Penalty>
0.686881

> <r_epik_Charging_Adjusted_Penalty>
1.26888

> <i_epik_Tot_Q>
1

> <i_epik_Tot_abs_Q>
1

> <r_epik_Metal_State_Penalty>
0.68612

> <b_epik_Metal_Only>
0

> <s_lp_Force_Field>
OPLS_2005

> <r_lp_Energy>
56.1037

> <b_lp_Chiralities_Consistent>
1

> <s_lp_Variant>
AV-unprocessed.smi:769-2

> <Gold.Version>
5.8.1

> <Gold.Id.Protein>
6NUR|6NUR_protein|mol2

> <Gold.PLP.Fitness>
55.3845

> <Gold.PLP.PLP>
-43.6840

> <Gold.PLP.part.hbond>
-3.9182

> <Gold.PLP.part.metal>
0.0000

> <Gold.PLP.part.buried>
-3.4320

> <Gold.PLP.part.nonpolar>
-37.8385

> <Gold.PLP.part.repulsive>
0.4772

> <Gold.PLP.ligand.clash>
1.1619

> <Gold.PLP.ligand.torsion>
1.1218

> <Gold.PLP.Chemscore.Hbond>
3.0806

> <Gold.PLP.Chemscore.CHOScore>
1.8153

> <Gold.PLP.Chemscore.Metal>
0.0000

> <Gold.Chemscore.Hbonds>
donor molecule, donor type, donor heavy atom, donor atom, acceptor molecule, acceptor atom, score
      L1  H     3    25       P1  7948  1.00
      L1  H     6    50       P1  7957  1.00
      L1  H    18    45       P1  7948  1.00
      P1  H 10785 10796       L1    22  0.06
      L1  C    21    47       P1 10747  0.88
      L1  C    23    48       P1 10186  0.90

> <Gold.PLP.Chemscore.Internal.Correction>
0.4183

> <Gold.Rescore>
     Score         DG    S(hbond)    S(metal)    S(lipo)     H(rot)  DE(clash)    DE(int)     intcor
     21.81     -24.29       2.99        0.00     113.05       1.72       0.26       2.23       ----

> <Gold.Chemscore.Fitness>
21.8084

> <Gold.Chemscore.DG>
-24.2945

> <Gold.Chemscore.ZeroCoef>
-5.4800

> <Gold.Chemscore.Hbond>
2.9908

> <Gold.Chemscore.Metal>
0.0000

> <Gold.Chemscore.Lipo>
113.0534

> <Gold.Chemscore.Internal_Hbond>
0.0000

> <Gold.Chemscore.DEClash>
0.2572

> <Gold.Chemscore.DEInternal>
2.2289

> <Gold.Chemscore.Rot>
1.7195

> <Gold.Chemscore.Internal.Correction>
   9.000000E+99

> <Gold.Chemscore.Hbonds>
donor molecule, donor type, donor heavy atom, donor atom, acceptor molecule, acceptor atom, score
      L1  H     3    25       P1  7948  0.99
      L1  H     6    50       P1  7957  0.99
      L1  H    18    45       P1  7948  0.86
      P1  H 10785 10796       L1    22  0.05

> <Gold.Chemscore.Hbond.Weighted>
-9.9892

> <Gold.Chemscore.Metal.Weighted>
-0.0000

> <Gold.Chemscore.Lipo.Weighted>
-13.2272

> <Gold.Chemscore.Internal_Hbond.Weighted>
0.0000

> <Gold.Chemscore.DEClash.Weighted>
0.2572

> <Gold.Chemscore.DEInternal.Weighted>
2.2289

> <Gold.Chemscore.Rot.Weighted>
4.4020

> <Gold.Chemscore.Internal.Correction.Weighted>
   9.000000E+99

> <Gold.Protein.RotatedTorsions>
[ 6907 6896 6895 6894 ] final   28.23 input  -60.11 | X-H torsion
[ 7974 7965 7964 7962 ] final  102.10 input  175.53 | X-H torsion
[ 8008 7997 7996 7995 ] final -174.23 input   59.86 | X-H torsion
[ 10167 10162 10161 10158 ] final   49.09 input  -65.29 | X-H torsion
[ 10718 10713 10712 10709 ] final -154.38 input   66.30 | X-H torsion
[ 10763 10752 10751 10750 ] final  -72.87 input  -60.55 | X-H torsion
[ 11005 11000 10999 10996 ] final -105.31 input  -57.11 | X-H torsion

> <Gold.Protein.ActiveResidues>
 VAL166  LYS551  ARG553  GLY616  TRP617  ASP618  TYR619  PRO620  LYS621  CYS622 
 ASP623  PHE694  ASN695  SER759  ASP760  ASP761  ALA762  ILE779  LEU786  VAL792 
 PHE793  MET794  SER795  GLU796  ALA797  LYS798  CYS799  TRP800  GLU811  SER814 

> <Gold.Protein.RotatedAtoms>
  152.0139  134.9861  160.0568 H   0  0  0  0  0  0  0  0  0  0  0  0  # atno 6907 bound_to 6896
  152.1402  133.4455  159.4771 H   0  0  0  0  0  0  0  0  0  0  0  0  # atno 6908 bound_to 6896
  150.6864  134.2232  159.4448 H   0  0  0  0  0  0  0  0  0  0  0  0  # atno 6909 bound_to 6896
  145.3636  139.2412  143.3493 H   0  0  0  0  0  0  0  0  0  0  0  0  # atno 7974 bound_to 7965
  155.9675  140.1156  157.0841 H   0  0  0  0  0  0  0  0  0  0  0  0  # atno 8008 bound_to 7997
  154.4147  140.1170  156.5329 H   0  0  0  0  0  0  0  0  0  0  0  0  # atno 8009 bound_to 7997
  155.6640  140.3473  155.4795 H   0  0  0  0  0  0  0  0  0  0  0  0  # atno 8010 bound_to 7997
  140.2865  144.3095  150.6251 H   0  0  0  0  0  0  0  0  0  0  0  0  # atno 10167 bound_to 10162
  156.4986  130.8380  151.2600 H   0  0  0  0  0  0  0  0  0  0  0  0  # atno 10718 bound_to 10713
  154.4517  135.5916  153.6196 H   0  0  0  0  0  0  0  0  0  0  0  0  # atno 10763 bound_to 10752
  152.9814  135.6022  154.3596 H   0  0  0  0  0  0  0  0  0  0  0  0  # atno 10764 bound_to 10752
  154.3458  135.2841  155.2377 H   0  0  0  0  0  0  0  0  0  0  0  0  # atno 10765 bound_to 10752
  141.1059  133.8797  157.1719 H   0  0  0  0  0  0  0  0  0  0  0  0  # atno 11005 bound_to 11000
  146.2916  140.4274  142.8737 LP  0  0  0  0  0  0  0  0  0  0  0  0  # atno 17320 bound_to 7965
  144.8628  140.7164  143.6096 LP  0  0  0  0  0  0  0  0  0  0  0  0  # atno 17321 bound_to 7965
  140.5768  143.2176  151.7501 LP  0  0  0  0  0  0  0  0  0  0  0  0  # atno 17342 bound_to 10162
  139.4949  144.4138  152.0052 LP  0  0  0  0  0  0  0  0  0  0  0  0  # atno 17343 bound_to 10162
  157.7465  130.9989  150.2871 LP  0  0  0  0  0  0  0  0  0  0  0  0  # atno 17370 bound_to 10713
  156.3355  130.3807  149.7453 LP  0  0  0  0  0  0  0  0  0  0  0  0  # atno 17371 bound_to 10713
  139.9929  135.0057  157.0017 LP  0  0  0  0  0  0  0  0  0  0  0  0  # atno 17394 bound_to 11000
  140.4903  134.1200  155.7231 LP  0  0  0  0  0  0  0  0  0  0  0  0  # atno 17395 bound_to 11000

$$$$
