AV-unprocessed.smi:1053|AV-procd|sdf|4622|dock4
  -GOLD-   22720 3123D 1   1.00000     0.00000
 Structure written by MMmdl.
 37 38  0  0  0  0  0  0  0  0  1 V2000
  154.2239  140.9873  160.6728 C   0  0  0  0  0  0  0  0  0  0  0  0
  153.4227  142.0630  161.4201 C   0  0  0  0  0  0  0  0  0  0  0  0
  152.9065  143.1424  160.5802 N   0  0  0  0  0  0  0  0  0  0  0  0
  152.2413  144.1863  161.3561 C   0  0  0  0  0  0  0  0  0  0  0  0
  151.6731  145.2950  160.4548 C   0  0  0  0  0  0  0  0  0  0  0  0
  150.7889  144.7226  159.4975 O   0  0  0  0  0  0  0  0  0  0  0  0
  151.4183  143.7429  158.6749 C   0  0  2  0  0  0  0  0  0  0  0  0
  150.3790  143.2044  157.6834 C   0  0  0  0  0  0  0  0  0  0  0  0
  151.0114  142.6032  156.5192 N   0  0  0  0  0  0  0  0  0  0  0  0
  150.5687  141.4464  155.9073 C   0  0  0  0  0  0  0  0  0  0  0  0
  149.3558  141.5161  155.3540 N   0  0  0  0  0  0  0  0  0  0  0  0
  148.8929  140.4017  154.7477 C   0  0  0  0  0  0  0  0  0  0  0  0
  149.6499  139.2146  154.6962 C   0  0  0  0  0  0  0  0  0  0  0  0
  150.9199  139.2549  155.3141 C   0  0  0  0  0  0  0  0  0  0  0  0
  151.8484  138.0505  155.3367 C   0  0  0  0  0  0  0  0  0  0  0  0
  151.3054  137.0023  154.7162 F   0  0  0  0  0  0  0  0  0  0  0  0
  152.9948  138.3544  154.7276 F   0  0  0  0  0  0  0  0  0  0  0  0
  152.1087  137.7062  156.5981 F   0  0  0  0  0  0  0  0  0  0  0  0
  151.3727  140.3774  155.9190 N   0  0  0  0  0  0  0  0  0  0  0  0
  151.9738  142.6277  159.5827 C   0  0  0  0  0  0  0  0  0  0  0  0
  154.4853  140.1696  161.3443 H   0  0  0  0  0  0  0  0  0  0  0  0
  155.1552  141.3808  160.2666 H   0  0  0  0  0  0  0  0  0  0  0  0
  153.6454  140.5667  159.8497 H   0  0  0  0  0  0  0  0  0  0  0  0
  152.5834  141.5652  161.9074 H   0  0  0  0  0  0  0  0  0  0  0  0
  154.0323  142.4773  162.2242 H   0  0  0  0  0  0  0  0  0  0  0  0
  151.4324  143.7515  161.9454 H   0  0  0  0  0  0  0  0  0  0  0  0
  152.9378  144.6357  162.0632 H   0  0  0  0  0  0  0  0  0  0  0  0
  151.1279  146.0271  161.0507 H   0  0  0  0  0  0  0  0  0  0  0  0
  152.4763  145.8295  159.9450 H   0  0  0  0  0  0  0  0  0  0  0  0
  152.2409  144.2029  158.1236 H   0  0  0  0  0  0  0  0  0  0  0  0
  149.7654  142.4464  158.1717 H   0  0  0  0  0  0  0  0  0  0  0  0
  149.7093  144.0039  157.3638 H   0  0  0  0  0  0  0  0  0  0  0  0
  151.7658  143.1047  156.0732 H   0  0  0  0  0  0  0  0  0  0  0  0
  147.9117  140.4575  154.3002 H   0  0  0  0  0  0  0  0  0  0  0  0
  149.2713  138.3285  154.2088 H   0  0  0  0  0  0  0  0  0  0  0  0
  152.4727  141.8785  158.9665 H   0  0  0  0  0  0  0  0  0  0  0  0
  151.1460  142.1194  160.0803 H   0  0  0  0  0  0  0  0  0  0  0  0
  1  2  1  0  0  0  0
  1 21  1  0  0  0  0
  1 22  1  0  0  0  0
  1 23  1  0  0  0  0
  2  3  1  0  0  0  0
  2 24  1  0  0  0  0
  2 25  1  0  0  0  0
  3 20  1  0  0  0  0
  3  4  1  0  0  0  0
  4  5  1  0  0  0  0
  4 26  1  0  0  0  0
  4 27  1  0  0  0  0
  5  6  1  0  0  0  0
  5 28  1  0  0  0  0
  5 29  1  0  0  0  0
  6  7  1  0  0  0  0
  7  8  1  0  0  0  0
  7 20  1  0  0  0  0
  7 30  1  0  0  0  0
  8  9  1  0  0  0  0
  8 31  1  0  0  0  0
  8 32  1  0  0  0  0
  9 10  1  0  0  0  0
  9 33  1  0  0  0  0
 10 19  1  0  0  0  0
 10 11  2  0  0  0  0
 11 12  1  0  0  0  0
 12 13  2  0  0  0  0
 12 34  1  0  0  0  0
 13 14  1  0  0  0  0
 13 35  1  0  0  0  0
 14 15  1  0  0  0  0
 14 19  2  0  0  0  0
 15 16  1  0  0  0  0
 15 17  1  0  0  0  0
 15 18  1  0  0  0  0
 20 36  1  0  0  0  0
 20 37  1  0  0  0  0
M  END
> <s_m_source_file>
AV-unprocessed.smi

> <i_m_source_file_index>
1053

> <i_lp_mmshare_version>
43012

> <i_f3d_flags>
0

> <s_epik_input>
W0NIM11bQ0gyXU4xW0NIMl1bQ0gyXU9bQ0BIXShbQ0gyXTEpW0NIMl1bTkhdYzJuW2NIXVtjSF1jKG4yKUMoRikoRilG

> <s_epik_cmdline>
J2VwaWtfcHl0aG9uJywgJy1waCcsICc3LjAnLCAnLXRuJywgJzgnLCAnLW1hJywgJzIwMCcsICctbWV0YWxfYmluZGluZycsICctaW1hZScsICc8aW5maWxlLm1hZT4nLCAnLW9tYWUnLCAnPG91dGZpbGUubWFlPic=

> <r_lp_tautomer_probability>
1

> <r_epik_Ionization_Penalty>
0.797829

> <r_epik_Ionization_Penalty_Charging>
0

> <r_epik_Ionization_Penalty_Neutral>
0.797829

> <r_epik_State_Penalty>
0.828842

> <r_epik_Charging_Adjusted_Penalty>
0.828842

> <i_epik_Tot_Q>
0

> <i_epik_Tot_abs_Q>
0

> <r_epik_Metal_State_Penalty>
0.828842

> <b_epik_Metal_Only>
0

> <s_lp_Force_Field>
OPLS_2005

> <r_lp_Energy>
15.9196

> <b_lp_Chiralities_Consistent>
1

> <s_lp_Variant>
AV-unprocessed.smi:1053-6

> <Gold.Version>
5.8.1

> <Gold.Id.Protein>
6NUR|6NUR_protein|mol2

> <Gold.PLP.Fitness>
40.7825

> <Gold.PLP.PLP>
-42.6945

> <Gold.PLP.part.hbond>
-1.6754

> <Gold.PLP.part.metal>
0.0000

> <Gold.PLP.part.buried>
-2.5410

> <Gold.PLP.part.nonpolar>
-39.8343

> <Gold.PLP.part.repulsive>
1.2757

> <Gold.PLP.ligand.clash>
0.0000

> <Gold.PLP.ligand.torsion>
0.9718

> <Gold.PLP.Chemscore.Hbond>
0.0000

> <Gold.PLP.Chemscore.CHOScore>
0.0000

> <Gold.PLP.Chemscore.Metal>
0.0000

> <Gold.PLP.Chemscore.Internal.Correction>
0.0316

> <Gold.Rescore>
     Score         DG    S(hbond)    S(metal)    S(lipo)     H(rot)  DE(clash)    DE(int)     intcor
     11.65     -13.59       0.00        0.00     102.63       1.52       1.06       0.88       ----

> <Gold.Chemscore.Fitness>
11.6526

> <Gold.Chemscore.DG>
-13.5948

> <Gold.Chemscore.ZeroCoef>
-5.4800

> <Gold.Chemscore.Hbond>
0.0000

> <Gold.Chemscore.Metal>
0.0000

> <Gold.Chemscore.Lipo>
102.6324

> <Gold.Chemscore.Internal_Hbond>
0.0000

> <Gold.Chemscore.DEClash>
1.0615

> <Gold.Chemscore.DEInternal>
0.8806

> <Gold.Chemscore.Rot>
1.5208

> <Gold.Chemscore.Internal.Correction>
   9.000000E+99

> <Gold.Chemscore.Hbond.Weighted>
-0.0000

> <Gold.Chemscore.Metal.Weighted>
-0.0000

> <Gold.Chemscore.Lipo.Weighted>
-12.0080

> <Gold.Chemscore.Internal_Hbond.Weighted>
0.0000

> <Gold.Chemscore.DEClash.Weighted>
1.0615

> <Gold.Chemscore.DEInternal.Weighted>
0.8806

> <Gold.Chemscore.Rot.Weighted>
3.8932

> <Gold.Chemscore.Internal.Correction.Weighted>
   9.000000E+99

> <Gold.Protein.RotatedTorsions>
[ 6907 6896 6895 6894 ] final -148.27 input  -60.11 | X-H torsion
[ 7974 7965 7964 7962 ] final  120.75 input  175.53 | X-H torsion
[ 8008 7997 7996 7995 ] final  -23.29 input   59.86 | X-H torsion
[ 10167 10162 10161 10158 ] final   65.56 input  -65.29 | X-H torsion
[ 10718 10713 10712 10709 ] final  166.23 input   66.30 | X-H torsion
[ 10763 10752 10751 10750 ] final  116.25 input  -60.55 | X-H torsion
[ 11005 11000 10999 10996 ] final   69.87 input  -57.11 | X-H torsion

> <Gold.Protein.ActiveResidues>
 VAL166  LYS551  ARG553  GLY616  TRP617  ASP618  TYR619  PRO620  LYS621  CYS622 
 ASP623  PHE694  ASN695  SER759  ASP760  ASP761  ALA762  ILE779  LEU786  VAL792 
 PHE793  MET794  SER795  GLU796  ALA797  LYS798  CYS799  TRP800  GLU811  SER814 

> <Gold.Protein.RotatedAtoms>
  151.1674  133.4806  159.2593 H   0  0  0  0  0  0  0  0  0  0  0  0  # atno 6907 bound_to 6896
  151.1391  135.0170  159.8627 H   0  0  0  0  0  0  0  0  0  0  0  0  # atno 6908 bound_to 6896
  152.5462  134.1569  159.8595 H   0  0  0  0  0  0  0  0  0  0  0  0  # atno 6909 bound_to 6896
  145.1275  139.3349  143.4682 H   0  0  0  0  0  0  0  0  0  0  0  0  # atno 7974 bound_to 7965
  154.4593  140.1984  156.0289 H   0  0  0  0  0  0  0  0  0  0  0  0  # atno 8008 bound_to 7997
  156.0809  140.3271  155.7665 H   0  0  0  0  0  0  0  0  0  0  0  0  # atno 8009 bound_to 7997
  155.5112  140.0562  157.2914 H   0  0  0  0  0  0  0  0  0  0  0  0  # atno 8010 bound_to 7997
  140.1100  144.4827  150.6984 H   0  0  0  0  0  0  0  0  0  0  0  0  # atno 10167 bound_to 10162
  157.0688  131.0360  151.2619 H   0  0  0  0  0  0  0  0  0  0  0  0  # atno 10718 bound_to 10713
  153.5344  135.3571  155.2690 H   0  0  0  0  0  0  0  0  0  0  0  0  # atno 10763 bound_to 10752
  154.8724  135.4076  154.3115 H   0  0  0  0  0  0  0  0  0  0  0  0  # atno 10764 bound_to 10752
  153.3810  135.7068  153.6633 H   0  0  0  0  0  0  0  0  0  0  0  0  # atno 10765 bound_to 10752
  139.9629  134.7030  156.0607 H   0  0  0  0  0  0  0  0  0  0  0  0  # atno 11005 bound_to 11000
  146.3516  140.1260  142.8598 LP  0  0  0  0  0  0  0  0  0  0  0  0  # atno 17320 bound_to 7965
  145.0672  140.9130  143.4903 LP  0  0  0  0  0  0  0  0  0  0  0  0  # atno 17321 bound_to 7965
  140.6931  143.2387  151.5077 LP  0  0  0  0  0  0  0  0  0  0  0  0  # atno 17342 bound_to 10162
  139.5624  144.2123  152.1713 LP  0  0  0  0  0  0  0  0  0  0  0  0  # atno 17343 bound_to 10162
  157.4894  130.7813  149.7493 LP  0  0  0  0  0  0  0  0  0  0  0  0  # atno 17370 bound_to 10713
  155.9956  130.3910  150.2811 LP  0  0  0  0  0  0  0  0  0  0  0  0  # atno 17371 bound_to 10713
  141.1308  133.6587  156.3458 LP  0  0  0  0  0  0  0  0  0  0  0  0  # atno 17394 bound_to 11000
  140.5460  134.6074  157.5394 LP  0  0  0  0  0  0  0  0  0  0  0  0  # atno 17395 bound_to 11000

$$$$
