AV-unprocessed.smi:2198|AV-procd|sdf|8915|dock1
  -GOLD-   2272012133D 1   1.00000     0.00000
 Structure written by MMmdl.
 43 44  0  0  0  0  0  0  0  0  1 V2000
  151.1781  142.7021  157.1555 C   0  0  0  0  0  0  0  0  0  0  0  0
  150.5364  141.7371  156.1825 C   0  0  0  0  0  0  0  0  0  0  0  0
  149.3592  142.2088  155.6256 N   0  0  0  0  0  0  0  0  0  0  0  0
  148.6985  141.3948  154.7228 C   0  0  0  0  0  0  0  0  0  0  0  0
  147.4163  141.9849  154.1617 C   0  0  0  0  0  0  0  0  0  0  0  0
  149.1891  140.1746  154.3874 C   0  0  0  0  0  0  0  0  0  0  0  0
  148.4930  139.2499  153.3895 C   0  0  0  0  0  0  0  0  0  0  0  0
  147.1190  138.7234  153.8122 C   0  0  0  0  0  0  0  0  0  0  0  0
  146.3632  139.4220  154.4876 O   0  0  0  0  0  0  0  0  0  0  0  0
  146.8108  137.4826  153.4061 N   0  0  0  0  0  0  0  0  0  0  0  0
  145.5661  136.7766  153.7050 C   0  0  2  0  0  0  0  0  0  0  0  0
  145.8692  135.4199  154.3698 C   0  0  0  0  0  0  0  0  0  0  0  0
  146.4687  134.4073  153.3792 C   0  0  0  0  0  0  0  0  0  0  0  0
  145.5695  134.2333  152.1457 C   0  0  0  0  0  0  0  0  0  0  0  0
  145.3047  135.5799  151.4460 C   0  0  1  0  0  0  0  0  0  0  0  0
  144.4094  135.4041  150.2113 C   0  0  0  0  0  0  0  0  0  0  0  0
  144.7000  136.5940  152.4392 C   0  0  0  0  0  0  0  0  0  0  0  0
  150.4575  139.7277  155.0103 C   0  0  0  0  0  0  0  0  0  0  0  0
  150.9606  138.6389  154.7368 O   0  0  0  0  0  0  0  0  0  0  0  0
  151.0839  140.5879  155.9268 N   0  0  0  0  0  0  0  0  0  0  0  0
  148.9620  143.1116  155.8429 H   0  0  0  0  0  0  0  0  0  0  0  0
  152.0001  142.2261  157.6919 H   0  0  0  0  0  0  0  0  0  0  0  0
  150.4497  143.0481  157.8895 H   0  0  0  0  0  0  0  0  0  0  0  0
  151.5730  143.5675  156.6229 H   0  0  0  0  0  0  0  0  0  0  0  0
  146.5627  141.3602  154.4252 H   0  0  0  0  0  0  0  0  0  0  0  0
  147.4717  142.0545  153.0752 H   0  0  0  0  0  0  0  0  0  0  0  0
  147.2304  142.9865  154.5515 H   0  0  0  0  0  0  0  0  0  0  0  0
  149.1464  138.3972  153.2021 H   0  0  0  0  0  0  0  0  0  0  0  0
  148.3888  139.7373  152.4196 H   0  0  0  0  0  0  0  0  0  0  0  0
  147.4919  136.9849  152.8513 H   0  0  0  0  0  0  0  0  0  0  0  0
  145.0049  137.3762  154.4240 H   0  0  0  0  0  0  0  0  0  0  0  0
  146.5398  135.5563  155.2190 H   0  0  0  0  0  0  0  0  0  0  0  0
  144.9447  135.0098  154.7780 H   0  0  0  0  0  0  0  0  0  0  0  0
  147.4598  134.7378  153.0663 H   0  0  0  0  0  0  0  0  0  0  0  0
  146.6088  133.4459  153.8741 H   0  0  0  0  0  0  0  0  0  0  0  0
  146.0361  133.5352  151.4498 H   0  0  0  0  0  0  0  0  0  0  0  0
  144.6234  133.7814  152.4474 H   0  0  0  0  0  0  0  0  0  0  0  0
  146.2615  135.9725  151.0991 H   0  0  0  0  0  0  0  0  0  0  0  0
  143.4280  135.0150  150.4841 H   0  0  0  0  0  0  0  0  0  0  0  0
  144.8560  134.7109  149.4979 H   0  0  0  0  0  0  0  0  0  0  0  0
  144.2599  136.3541  149.6972 H   0  0  0  0  0  0  0  0  0  0  0  0
  143.7089  136.2510  152.7389 H   0  0  0  0  0  0  0  0  0  0  0  0
  144.5461  137.5548  151.9466 H   0  0  0  0  0  0  0  0  0  0  0  0
  1 22  1  0  0  0  0
  1 23  1  0  0  0  0
  1 24  1  0  0  0  0
  1  2  1  0  0  0  0
  2  3  1  0  0  0  0
  2 20  2  0  0  0  0
  3  4  1  0  0  0  0
  3 21  1  0  0  0  0
  4  6  2  0  0  0  0
  4  5  1  0  0  0  0
  5 25  1  0  0  0  0
  5 26  1  0  0  0  0
  5 27  1  0  0  0  0
  6 18  1  0  0  0  0
  6  7  1  0  0  0  0
  7  8  1  0  0  0  0
  7 28  1  0  0  0  0
  7 29  1  0  0  0  0
  8  9  2  0  0  0  0
  8 10  1  0  0  0  0
 10 11  1  0  0  0  0
 10 30  1  0  0  0  0
 11 17  1  0  0  0  0
 11 12  1  0  0  0  0
 11 31  1  0  0  0  0
 12 13  1  0  0  0  0
 12 32  1  0  0  0  0
 12 33  1  0  0  0  0
 13 14  1  0  0  0  0
 13 34  1  0  0  0  0
 13 35  1  0  0  0  0
 14 15  1  0  0  0  0
 14 36  1  0  0  0  0
 14 37  1  0  0  0  0
 15 16  1  0  0  0  0
 15 17  1  0  0  0  0
 15 38  1  0  0  0  0
 16 39  1  0  0  0  0
 16 40  1  0  0  0  0
 16 41  1  0  0  0  0
 17 42  1  0  0  0  0
 17 43  1  0  0  0  0
 18 19  2  0  0  0  0
 18 20  1  0  0  0  0
M  END
> <s_m_source_file>
AV-unprocessed.smi

> <i_m_source_file_index>
2198

> <i_lp_mmshare_version>
43012

> <i_f3d_flags>
0

> <s_epik_input>
W0NIM11jMW5jKFtDSDNdKWMoYyg9TylbbkhdMSlbQ0gyXUMoPU8pW05IXVtDQEBIXTJbQ0gyXVtDSDJdW0NIMl1bQ0BASF0oW0NIM10pW0NIMl0y

> <s_epik_cmdline>
J2VwaWtfcHl0aG9uJywgJy1waCcsICc3LjAnLCAnLXRuJywgJzgnLCAnLW1hJywgJzIwMCcsICctbWV0YWxfYmluZGluZycsICctaW1hZScsICc8aW5maWxlLm1hZT4nLCAnLW9tYWUnLCAnPG91dGZpbGUubWFlPic=

> <r_lp_tautomer_probability>
0.156392

> <r_epik_Ionization_Penalty>
0.0136514

> <r_epik_Ionization_Penalty_Charging>
0.0135207

> <r_epik_Ionization_Penalty_Neutral>
0.000130657

> <r_epik_State_Penalty>
1.15342

> <r_epik_Charging_Adjusted_Penalty>
1.16694

> <i_epik_Tot_Q>
0

> <i_epik_Tot_abs_Q>
0

> <r_epik_Metal_State_Penalty>
1.31404

> <b_epik_Metal_Only>
0

> <s_lp_Force_Field>
OPLS_2005

> <r_lp_Energy>
13.5111

> <b_lp_Chiralities_Consistent>
1

> <s_lp_Variant>
AV-unprocessed.smi:2198-5

> <Gold.Version>
5.8.1

> <Gold.Id.Protein>
6NUR|6NUR_protein|mol2

> <Gold.PLP.Fitness>
36.3917

> <Gold.PLP.PLP>
-31.2466

> <Gold.PLP.part.hbond>
-2.0000

> <Gold.PLP.part.metal>
0.0000

> <Gold.PLP.part.buried>
-0.9448

> <Gold.PLP.part.nonpolar>
-28.7756

> <Gold.PLP.part.repulsive>
0.4051

> <Gold.PLP.ligand.clash>
0.0000

> <Gold.PLP.ligand.torsion>
0.4319

> <Gold.PLP.Chemscore.Hbond>
2.0000

> <Gold.PLP.Chemscore.CHOScore>
0.0000

> <Gold.PLP.Chemscore.Metal>
0.0000

> <Gold.Chemscore.Hbonds>
donor molecule, donor type, donor heavy atom, donor atom, acceptor molecule, acceptor atom, score
      L1  H     3    21       P1  8028  1.00
      L1  H    10    30       P1  7948  1.00

> <Gold.PLP.Chemscore.Internal.Correction>
0.0089

> <Gold.Rescore>
     Score         DG    S(hbond)    S(metal)    S(lipo)     H(rot)  DE(clash)    DE(int)     intcor
     12.90     -15.80       1.99        0.00      63.89       1.48       1.27       1.64       ----

> <Gold.Chemscore.Fitness>
12.8985

> <Gold.Chemscore.DG>
-15.8042

> <Gold.Chemscore.ZeroCoef>
-5.4800

> <Gold.Chemscore.Hbond>
1.9876

> <Gold.Chemscore.Metal>
0.0000

> <Gold.Chemscore.Lipo>
63.8851

> <Gold.Chemscore.Internal_Hbond>
0.0000

> <Gold.Chemscore.DEClash>
1.2699

> <Gold.Chemscore.DEInternal>
1.6358

> <Gold.Chemscore.Rot>
1.4801

> <Gold.Chemscore.Internal.Correction>
   9.000000E+99

> <Gold.Chemscore.Hbonds>
donor molecule, donor type, donor heavy atom, donor atom, acceptor molecule, acceptor atom, score
      L1  H     3    21       P1  8028  0.95
      L1  H    10    30       P1  7948  1.00

> <Gold.Chemscore.Hbond.Weighted>
-6.6388

> <Gold.Chemscore.Metal.Weighted>
-0.0000

> <Gold.Chemscore.Lipo.Weighted>
-7.4746

> <Gold.Chemscore.Internal_Hbond.Weighted>
0.0000

> <Gold.Chemscore.DEClash.Weighted>
1.2699

> <Gold.Chemscore.DEInternal.Weighted>
1.6358

> <Gold.Chemscore.Rot.Weighted>
3.7891

> <Gold.Chemscore.Internal.Correction.Weighted>
   9.000000E+99

> <Gold.Protein.RotatedTorsions>
[ 6907 6896 6895 6894 ] final  -34.07 input  -60.11 | X-H torsion
[ 7974 7965 7964 7962 ] final  111.38 input  175.53 | X-H torsion
[ 8008 7997 7996 7995 ] final  174.09 input   59.86 | X-H torsion
[ 10167 10162 10161 10158 ] final  -41.03 input  -65.29 | X-H torsion
[ 10718 10713 10712 10709 ] final  160.19 input   66.30 | X-H torsion
[ 10763 10752 10751 10750 ] final   81.15 input  -60.55 | X-H torsion
[ 11005 11000 10999 10996 ] final -102.22 input  -57.11 | X-H torsion

> <Gold.Protein.ActiveResidues>
 VAL166  LYS551  ARG553  GLY616  TRP617  ASP618  TYR619  PRO620  LYS621  CYS622 
 ASP623  PHE694  ASN695  SER759  ASP760  ASP761  ALA762  ILE779  LEU786  VAL792 
 PHE793  MET794  SER795  GLU796  ALA797  LYS798  CYS799  TRP800  GLU811  SER814 

> <Gold.Protein.RotatedAtoms>
  151.0574  134.9713  159.8242 H   0  0  0  0  0  0  0  0  0  0  0  0  # atno 6907 bound_to 6896
  152.5390  134.2461  159.8891 H   0  0  0  0  0  0  0  0  0  0  0  0  # atno 6908 bound_to 6896
  151.2479  133.4322  159.2644 H   0  0  0  0  0  0  0  0  0  0  0  0  # atno 6909 bound_to 6896
  145.2429  139.2771  143.4108 H   0  0  0  0  0  0  0  0  0  0  0  0  # atno 7974 bound_to 7965
  156.1010  140.1443  156.9468 H   0  0  0  0  0  0  0  0  0  0  0  0  # atno 8008 bound_to 7997
  154.4702  140.0912  156.7171 H   0  0  0  0  0  0  0  0  0  0  0  0  # atno 8009 bound_to 7997
  155.4760  140.3443  155.4335 H   0  0  0  0  0  0  0  0  0  0  0  0  # atno 8010 bound_to 7997
  140.7016  143.3118  151.3008 H   0  0  0  0  0  0  0  0  0  0  0  0  # atno 10167 bound_to 10162
  157.1538  131.0570  151.2267 H   0  0  0  0  0  0  0  0  0  0  0  0  # atno 10718 bound_to 10713
  153.1093  135.4776  154.9006 H   0  0  0  0  0  0  0  0  0  0  0  0  # atno 10763 bound_to 10752
  154.7463  135.3095  154.8641 H   0  0  0  0  0  0  0  0  0  0  0  0  # atno 10764 bound_to 10752
  153.9234  135.6852  153.4800 H   0  0  0  0  0  0  0  0  0  0  0  0  # atno 10765 bound_to 10752
  141.1198  133.8541  157.1332 H   0  0  0  0  0  0  0  0  0  0  0  0  # atno 11005 bound_to 11000
  146.3323  140.2798  142.8610 LP  0  0  0  0  0  0  0  0  0  0  0  0  # atno 17320 bound_to 7965
  144.9572  140.8239  143.5535 LP  0  0  0  0  0  0  0  0  0  0  0  0  # atno 17321 bound_to 7965
  139.6544  144.0304  152.2649 LP  0  0  0  0  0  0  0  0  0  0  0  0  # atno 17342 bound_to 10162
  139.9850  144.6401  150.7865 LP  0  0  0  0  0  0  0  0  0  0  0  0  # atno 17343 bound_to 10162
  157.4196  130.7430  149.6903 LP  0  0  0  0  0  0  0  0  0  0  0  0  # atno 17370 bound_to 10713
  155.9766  130.4074  150.3770 LP  0  0  0  0  0  0  0  0  0  0  0  0  # atno 17371 bound_to 10713
  140.0147  134.9973  157.0468 LP  0  0  0  0  0  0  0  0  0  0  0  0  # atno 17394 bound_to 11000
  140.4540  134.1553  155.7184 LP  0  0  0  0  0  0  0  0  0  0  0  0  # atno 17395 bound_to 11000

$$$$
