AV-unprocessed.smi:853|AV-procd|sdf|3953|dock6
  -GOLD-   22720 1423D 1   1.00000     0.00000
 Structure written by MMmdl.
 49 51  0  0  0  0  0  0  0  0  1 V2000
  144.7606  131.3630  151.2287 C   0  0  0  0  0  0  0  0  0  0  0  0
  144.6303  132.6172  150.3616 C   0  0  0  0  0  0  0  0  0  0  0  0
  144.8339  132.5076  149.1523 O   0  0  0  0  0  0  0  0  0  0  0  0
  144.2967  133.7940  150.9442 N   0  0  0  0  0  0  0  0  0  0  0  0
  144.1183  133.9395  152.3936 C   0  0  0  0  0  0  0  0  0  0  0  0
  145.2883  134.7652  152.9578 C   0  0  0  0  0  0  0  0  0  0  0  0
  145.4081  136.1306  152.2474 C   0  0  0  0  0  0  0  0  0  0  0  0
  146.6317  136.8001  152.6783 N   0  0  0  0  0  0  0  0  0  0  0  0
  146.7137  137.7065  153.6625 C   0  0  0  0  0  0  0  0  0  0  0  0
  145.7428  138.0892  154.3150 O   0  0  0  0  0  0  0  0  0  0  0  0
  147.9769  138.1397  153.8152 N   0  0  0  0  0  0  0  0  0  0  0  0
  148.4957  139.0640  154.7623 C   0  0  0  0  0  0  0  0  0  0  0  0
  147.9115  139.3384  156.0210 C   0  0  0  0  0  0  0  0  0  0  0  0
  148.5401  140.2617  156.8783 C   0  0  0  0  0  0  0  0  0  0  0  0
  149.7430  140.8813  156.4644 C   0  0  0  0  0  0  0  0  0  0  0  0
  150.4032  141.8096  157.2939 N   0  0  0  0  0  0  0  0  0  0  0  0
  151.0259  143.0085  156.7538 C   0  0  0  0  0  0  0  0  0  0  0  0
  151.7526  143.6357  157.9423 C   0  0  0  0  0  0  0  0  0  0  0  0
  152.1731  142.4213  158.7695 C   0  0  0  0  0  0  0  0  0  0  0  0
  151.0547  141.4001  158.5313 C   0  0  0  0  0  0  0  0  0  0  0  0
  150.3011  140.6158  155.2594 N   0  0  0  0  0  0  0  0  0  0  0  0
  149.6950  139.7305  154.4414 C   0  0  0  0  0  0  0  0  0  0  0  0
  145.3863  135.9706  150.7096 C   0  0  0  0  0  0  0  0  0  0  0  0
  144.2094  135.0883  150.2568 C   0  0  0  0  0  0  0  0  0  0  0  0
  143.8247  131.1505  151.7463 H   0  0  0  0  0  0  0  0  0  0  0  0
  145.5551  131.4841  151.9655 H   0  0  0  0  0  0  0  0  0  0  0  0
  145.0050  130.4952  150.6151 H   0  0  0  0  0  0  0  0  0  0  0  0
  143.1717  134.4440  152.5933 H   0  0  0  0  0  0  0  0  0  0  0  0
  144.0577  132.9809  152.9107 H   0  0  0  0  0  0  0  0  0  0  0  0
  145.1565  134.9115  154.0306 H   0  0  0  0  0  0  0  0  0  0  0  0
  146.2138  134.2003  152.8342 H   0  0  0  0  0  0  0  0  0  0  0  0
  144.5467  136.7329  152.5431 H   0  0  0  0  0  0  0  0  0  0  0  0
  147.4801  136.5507  152.1913 H   0  0  0  0  0  0  0  0  0  0  0  0
  148.6478  137.7868  153.1484 H   0  0  0  0  0  0  0  0  0  0  0  0
  147.0067  138.8559  156.3551 H   0  0  0  0  0  0  0  0  0  0  0  0
  148.0915  140.4805  157.8358 H   0  0  0  0  0  0  0  0  0  0  0  0
  151.7352  142.7306  155.9727 H   0  0  0  0  0  0  0  0  0  0  0  0
  150.2890  143.6892  156.3263 H   0  0  0  0  0  0  0  0  0  0  0  0
  152.5936  144.2620  157.6439 H   0  0  0  0  0  0  0  0  0  0  0  0
  151.0588  144.2508  158.5170 H   0  0  0  0  0  0  0  0  0  0  0  0
  153.1144  142.0279  158.3830 H   0  0  0  0  0  0  0  0  0  0  0  0
  152.3159  142.6535  159.8252 H   0  0  0  0  0  0  0  0  0  0  0  0
  150.3240  141.4310  159.3400 H   0  0  0  0  0  0  0  0  0  0  0  0
  151.4591  140.3890  158.4715 H   0  0  0  0  0  0  0  0  0  0  0  0
  150.1867  139.5503  153.4965 H   0  0  0  0  0  0  0  0  0  0  0  0
  145.3215  136.9480  150.2300 H   0  0  0  0  0  0  0  0  0  0  0  0
  146.3209  135.5211  150.3702 H   0  0  0  0  0  0  0  0  0  0  0  0
  144.2036  135.0076  149.1710 H   0  0  0  0  0  0  0  0  0  0  0  0
  143.2647  135.5681  150.5166 H   0  0  0  0  0  0  0  0  0  0  0  0
  1  2  1  0  0  0  0
  1 25  1  0  0  0  0
  1 26  1  0  0  0  0
  1 27  1  0  0  0  0
  2  3  2  0  0  0  0
  2  4  1  0  0  0  0
  4 24  1  0  0  0  0
  4  5  1  0  0  0  0
  5  6  1  0  0  0  0
  5 28  1  0  0  0  0
  5 29  1  0  0  0  0
  6  7  1  0  0  0  0
  6 30  1  0  0  0  0
  6 31  1  0  0  0  0
  7  8  1  0  0  0  0
  7 23  1  0  0  0  0
  7 32  1  0  0  0  0
  8  9  1  0  0  0  0
  8 33  1  0  0  0  0
  9 10  2  0  0  0  0
  9 11  1  0  0  0  0
 11 12  1  0  0  0  0
 11 34  1  0  0  0  0
 12 22  1  0  0  0  0
 12 13  2  0  0  0  0
 13 14  1  0  0  0  0
 13 35  1  0  0  0  0
 14 15  2  0  0  0  0
 14 36  1  0  0  0  0
 15 16  1  0  0  0  0
 15 21  1  0  0  0  0
 16 20  1  0  0  0  0
 16 17  1  0  0  0  0
 17 18  1  0  0  0  0
 17 37  1  0  0  0  0
 17 38  1  0  0  0  0
 18 19  1  0  0  0  0
 18 39  1  0  0  0  0
 18 40  1  0  0  0  0
 19 20  1  0  0  0  0
 19 41  1  0  0  0  0
 19 42  1  0  0  0  0
 20 43  1  0  0  0  0
 20 44  1  0  0  0  0
 21 22  2  0  0  0  0
 22 45  1  0  0  0  0
 23 24  1  0  0  0  0
 23 46  1  0  0  0  0
 23 47  1  0  0  0  0
 24 48  1  0  0  0  0
 24 49  1  0  0  0  0
M  END
> <s_m_source_file>
AV-unprocessed.smi

> <i_m_source_file_index>
853

> <i_lp_mmshare_version>
43012

> <i_f3d_flags>
0

> <s_epik_input>
W0NIM11DKD1PKU4xW0NIMl1bQ0gyXVtDSF0oW0NIMl1bQ0gyXTEpW05IXUMoPU8pW05IXWMyW2NIXVtjSF1jKG5bY0hdMilOM1tDSDJdW0NIMl1bQ0gyXVtDSDJdMw==

> <s_epik_cmdline>
J2VwaWtfcHl0aG9uJywgJy1waCcsICc3LjAnLCAnLXRuJywgJzgnLCAnLW1hJywgJzIwMCcsICctbWV0YWxfYmluZGluZycsICctaW1hZScsICc8aW5maWxlLm1hZT4nLCAnLW9tYWUnLCAnPG91dGZpbGUubWFlPic=

> <r_lp_tautomer_probability>
1

> <r_epik_Ionization_Penalty>
0.102256

> <r_epik_Ionization_Penalty_Charging>
0

> <r_epik_Ionization_Penalty_Neutral>
0.102256

> <r_epik_State_Penalty>
0.0916633

> <r_epik_Charging_Adjusted_Penalty>
0.0916633

> <i_epik_Tot_Q>
0

> <i_epik_Tot_abs_Q>
0

> <r_epik_Metal_State_Penalty>
0.078099

> <b_epik_Metal_Only>
0

> <s_lp_Force_Field>
OPLS_2005

> <r_lp_Energy>
47.0227

> <b_lp_Chiralities_Consistent>
1

> <s_lp_Variant>
AV-unprocessed.smi:853-1

> <Gold.Version>
5.8.1

> <Gold.Id.Protein>
6NUR|6NUR_protein|mol2

> <Gold.PLP.Fitness>
42.7022

> <Gold.PLP.PLP>
-36.4454

> <Gold.PLP.part.hbond>
-2.9063

> <Gold.PLP.part.metal>
0.0000

> <Gold.PLP.part.buried>
-4.3756

> <Gold.PLP.part.nonpolar>
-31.0623

> <Gold.PLP.part.repulsive>
0.7503

> <Gold.PLP.ligand.clash>
0.0000

> <Gold.PLP.ligand.torsion>
1.4069

> <Gold.PLP.Chemscore.Hbond>
1.9525

> <Gold.PLP.Chemscore.CHOScore>
1.0000

> <Gold.PLP.Chemscore.Metal>
0.0000

> <Gold.Chemscore.Hbonds>
donor molecule, donor type, donor heavy atom, donor atom, acceptor molecule, acceptor atom, score
      L1  H     8    33       P1  7948  0.99
      L1  H    11    34       P1  7948  0.85
      P1  H  7989  7998       L1    21  0.07
      L1  C    22    45       P1  7957  1.00

> <Gold.PLP.Chemscore.Internal.Correction>
0.2131

> <Gold.Rescore>
     Score         DG    S(hbond)    S(metal)    S(lipo)     H(rot)  DE(clash)    DE(int)     intcor
     16.79     -19.04       1.89        0.00      83.82       1.00       0.15       2.10       ----

> <Gold.Chemscore.Fitness>
16.7906

> <Gold.Chemscore.DG>
-19.0350

> <Gold.Chemscore.ZeroCoef>
-5.4800

> <Gold.Chemscore.Hbond>
1.8885

> <Gold.Chemscore.Metal>
0.0000

> <Gold.Chemscore.Lipo>
83.8245

> <Gold.Chemscore.Internal_Hbond>
0.0000

> <Gold.Chemscore.DEClash>
0.1453

> <Gold.Chemscore.DEInternal>
2.0991

> <Gold.Chemscore.Rot>
1.0000

> <Gold.Chemscore.Internal.Correction>
   9.000000E+99

> <Gold.Chemscore.Hbonds>
donor molecule, donor type, donor heavy atom, donor atom, acceptor molecule, acceptor atom, score
      L1  H     8    33       P1  7948  0.92
      L1  H    11    34       P1  7948  0.79

> <Gold.Chemscore.Hbond.Weighted>
-6.3076

> <Gold.Chemscore.Metal.Weighted>
-0.0000

> <Gold.Chemscore.Lipo.Weighted>
-9.8075

> <Gold.Chemscore.Internal_Hbond.Weighted>
0.0000

> <Gold.Chemscore.DEClash.Weighted>
0.1453

> <Gold.Chemscore.DEInternal.Weighted>
2.0991

> <Gold.Chemscore.Rot.Weighted>
2.5600

> <Gold.Chemscore.Internal.Correction.Weighted>
   9.000000E+99

> <Gold.Protein.RotatedTorsions>
[ 6907 6896 6895 6894 ] final  127.54 input  -60.11 | X-H torsion
[ 7974 7965 7964 7962 ] final  -20.22 input  175.53 | X-H torsion
[ 8008 7997 7996 7995 ] final  -75.66 input   59.86 | X-H torsion
[ 10167 10162 10161 10158 ] final    7.68 input  -65.29 | X-H torsion
[ 10718 10713 10712 10709 ] final  139.08 input   66.30 | X-H torsion
[ 10763 10752 10751 10750 ] final   81.43 input  -60.55 | X-H torsion
[ 11005 11000 10999 10996 ] final  -44.21 input  -57.11 | X-H torsion

> <Gold.Protein.ActiveResidues>
 VAL166  LYS551  ARG553  GLY616  TRP617  ASP618  TYR619  PRO620  LYS621  CYS622 
 ASP623  PHE694  ASN695  SER759  ASP760  ASP761  ALA762  ILE779  LEU786  VAL792 
 PHE793  MET794  SER795  GLU796  ALA797  LYS798  CYS799  TRP800  GLU811  SER814 

> <Gold.Protein.RotatedAtoms>
  152.3803  133.6537  159.6155 H   0  0  0  0  0  0  0  0  0  0  0  0  # atno 6907 bound_to 6896
  150.7736  133.9124  159.3382 H   0  0  0  0  0  0  0  0  0  0  0  0  # atno 6908 bound_to 6896
  151.6931  135.0944  160.0288 H   0  0  0  0  0  0  0  0  0  0  0  0  # atno 6909 bound_to 6896
  146.1800  140.4172  142.8498 H   0  0  0  0  0  0  0  0  0  0  0  0  # atno 7974 bound_to 7965
  154.5436  140.0740  156.8551 H   0  0  0  0  0  0  0  0  0  0  0  0  # atno 8008 bound_to 7997
  155.3132  140.3391  155.4225 H   0  0  0  0  0  0  0  0  0  0  0  0  # atno 8009 bound_to 7997
  156.1897  140.1682  156.8102 H   0  0  0  0  0  0  0  0  0  0  0  0  # atno 8010 bound_to 7997
  140.6358  143.7890  150.7357 H   0  0  0  0  0  0  0  0  0  0  0  0  # atno 10167 bound_to 10162
  157.4183  131.1036  151.0381 H   0  0  0  0  0  0  0  0  0  0  0  0  # atno 10718 bound_to 10713
  153.1116  135.4766  154.9044 H   0  0  0  0  0  0  0  0  0  0  0  0  # atno 10763 bound_to 10752
  154.7486  135.3100  154.8601 H   0  0  0  0  0  0  0  0  0  0  0  0  # atno 10764 bound_to 10752
  153.9189  135.6857  153.4802 H   0  0  0  0  0  0  0  0  0  0  0  0  # atno 10765 bound_to 10752
  141.0435  133.6770  156.2840 H   0  0  0  0  0  0  0  0  0  0  0  0  # atno 11005 bound_to 11000
  144.8298  140.6689  143.6298 LP  0  0  0  0  0  0  0  0  0  0  0  0  # atno 17320 bound_to 7965
  145.4104  139.1581  143.4129 LP  0  0  0  0  0  0  0  0  0  0  0  0  # atno 17321 bound_to 7965
  140.1511  143.4357  152.2131 LP  0  0  0  0  0  0  0  0  0  0  0  0  # atno 17342 bound_to 10162
  139.5568  144.7378  151.4270 LP  0  0  0  0  0  0  0  0  0  0  0  0  # atno 17343 bound_to 10162
  157.1320  130.6106  149.5532 LP  0  0  0  0  0  0  0  0  0  0  0  0  # atno 17370 bound_to 10713
  155.9872  130.4910  150.7115 LP  0  0  0  0  0  0  0  0  0  0  0  0  # atno 17371 bound_to 10713
  140.6190  134.5381  157.5545 LP  0  0  0  0  0  0  0  0  0  0  0  0  # atno 17394 bound_to 11000
  139.9294  134.7993  156.0975 LP  0  0  0  0  0  0  0  0  0  0  0  0  # atno 17395 bound_to 11000

$$$$
