AV-unprocessed.smi:1697|AV-procd|sdf|6806|dock5
  -GOLD-   22720 7583D 1   1.00000     0.00000
 Structure written by MMmdl.
 54 56  0  0  0  0  0  0  0  0  2 V2000
  141.7576  137.9567  152.9529 C   0  0  0  0  0  0  0  0  0  0  0  0
  142.8070  136.9031  152.5925 C   0  0  0  0  0  0  0  0  0  0  0  0
  143.8321  136.9300  153.5748 O   0  0  0  0  0  0  0  0  0  0  0  0
  144.9482  136.0940  153.2917 C   0  0  2  0  0  0  0  0  0  0  0  0
  145.9734  136.1118  154.4411 C   0  0  0  0  0  0  0  0  0  0  0  0
  146.6003  137.5056  154.6129 C   0  0  0  0  0  0  0  0  0  0  0  0
  147.2342  137.9687  153.3494 N   0  3  2  0  0  0  0  0  0  0  0  0
  147.9663  139.2532  153.4963 C   0  0  0  0  0  0  0  0  0  0  0  0
  149.3016  139.0862  154.2479 C   0  0  1  0  0  0  0  0  0  0  0  0
  150.2232  138.4308  153.3971 O   0  0  0  0  0  0  0  0  0  0  0  0
  149.8867  140.4414  154.6897 C   0  0  0  0  0  0  0  0  0  0  0  0
  150.8275  140.3059  155.7875 N   0  0  0  0  0  0  0  0  0  0  0  0
  151.7549  139.3416  155.9423 C   0  0  0  0  0  0  0  0  0  0  0  0
  152.5255  139.4050  157.0238 N   0  0  0  0  0  0  0  0  0  0  0  0
  152.0402  140.5428  157.6454 C   0  0  0  0  0  0  0  0  0  0  0  0
  152.4333  141.1675  158.8491 C   0  0  0  0  0  0  0  0  0  0  0  0
  151.7890  142.3411  159.3005 C   0  0  0  0  0  0  0  0  0  0  0  0
  152.2449  142.9797  160.6007 C   0  0  0  0  0  0  0  0  0  0  0  0
  150.7326  142.9080  158.5433 C   0  0  0  0  0  0  0  0  0  0  0  0
  150.0258  144.1682  159.0099 C   0  0  0  0  0  0  0  0  0  0  0  0
  150.3279  142.2976  157.3376 C   0  0  0  0  0  0  0  0  0  0  0  0
  150.9765  141.1295  156.8988 C   0  0  0  0  0  0  0  0  0  0  0  0
  146.2597  137.9980  152.2283 C   0  0  0  0  0  0  0  0  0  0  0  0
  145.6154  136.6172  152.0107 C   0  0  0  0  0  0  0  0  0  0  0  0
  140.9544  137.9750  152.2161 H   0  0  0  0  0  0  0  0  0  0  0  0
  142.1998  138.9525  152.9899 H   0  0  0  0  0  0  0  0  0  0  0  0
  141.3137  137.7502  153.9271 H   0  0  0  0  0  0  0  0  0  0  0  0
  142.3373  135.9209  152.5444 H   0  0  0  0  0  0  0  0  0  0  0  0
  143.2234  137.1193  151.6077 H   0  0  0  0  0  0  0  0  0  0  0  0
  144.6056  135.0737  153.1113 H   0  0  0  0  0  0  0  0  0  0  0  0
  145.5198  135.7875  155.3770 H   0  0  0  0  0  0  0  0  0  0  0  0
  146.7624  135.3894  154.2278 H   0  0  0  0  0  0  0  0  0  0  0  0
  145.8393  138.2228  154.9254 H   0  0  0  0  0  0  0  0  0  0  0  0
  147.3362  137.4627  155.4146 H   0  0  0  0  0  0  0  0  0  0  0  0
  148.1752  139.6786  152.5133 H   0  0  0  0  0  0  0  0  0  0  0  0
  147.3256  139.9743  154.0064 H   0  0  0  0  0  0  0  0  0  0  0  0
  149.1620  138.4670  155.1334 H   0  0  0  0  0  0  0  0  0  0  0  0
  149.8438  137.6141  153.1093 H   0  0  0  0  0  0  0  0  0  0  0  0
  150.3878  140.9359  153.8564 H   0  0  0  0  0  0  0  0  0  0  0  0
  149.0862  141.1095  155.0104 H   0  0  0  0  0  0  0  0  0  0  0  0
  151.8733  138.5493  155.2176 H   0  0  0  0  0  0  0  0  0  0  0  0
  153.2385  140.7359  159.4253 H   0  0  0  0  0  0  0  0  0  0  0  0
  151.4246  143.0140  161.3179 H   0  0  0  0  0  0  0  0  0  0  0  0
  152.5944  143.9970  160.4240 H   0  0  0  0  0  0  0  0  0  0  0  0
  153.0626  142.4193  161.0547 H   0  0  0  0  0  0  0  0  0  0  0  0
  149.2370  144.4620  158.3168 H   0  0  0  0  0  0  0  0  0  0  0  0
  150.7308  144.9961  159.0851 H   0  0  0  0  0  0  0  0  0  0  0  0
  149.5697  144.0107  159.9874 H   0  0  0  0  0  0  0  0  0  0  0  0
  149.5260  142.7210  156.7515 H   0  0  0  0  0  0  0  0  0  0  0  0
  145.4929  138.7477  152.4304 H   0  0  0  0  0  0  0  0  0  0  0  0
  146.7640  138.3016  151.3101 H   0  0  0  0  0  0  0  0  0  0  0  0
  146.3802  135.9100  151.6865 H   0  0  0  0  0  0  0  0  0  0  0  0
  144.8843  136.6685  151.2030 H   0  0  0  0  0  0  0  0  0  0  0  0
  147.9288  137.2794  153.0977 H   0  0  0  0  0  0  0  0  0  0  0  0
  1  2  1  0  0  0  0
  1 25  1  0  0  0  0
  1 26  1  0  0  0  0
  1 27  1  0  0  0  0
  2  3  1  0  0  0  0
  2 28  1  0  0  0  0
  2 29  1  0  0  0  0
  3  4  1  0  0  0  0
  4 24  1  0  0  0  0
  4  5  1  0  0  0  0
  4 30  1  0  0  0  0
  5  6  1  0  0  0  0
  5 31  1  0  0  0  0
  5 32  1  0  0  0  0
  6  7  1  0  0  0  0
  6 33  1  0  0  0  0
  6 34  1  0  0  0  0
  7  8  1  0  0  0  0
  7 23  1  0  0  0  0
  7 54  1  0  0  0  0
  8  9  1  0  0  0  0
  8 35  1  0  0  0  0
  8 36  1  0  0  0  0
  9 10  1  0  0  0  0
  9 11  1  0  0  0  0
  9 37  1  0  0  0  0
 10 38  1  0  0  0  0
 11 12  1  0  0  0  0
 11 39  1  0  0  0  0
 11 40  1  0  0  0  0
 12 22  1  0  0  0  0
 12 13  1  0  0  0  0
 13 14  2  0  0  0  0
 13 41  1  0  0  0  0
 14 15  1  0  0  0  0
 15 22  2  0  0  0  0
 15 16  1  0  0  0  0
 16 17  2  0  0  0  0
 16 42  1  0  0  0  0
 17 18  1  0  0  0  0
 17 19  1  0  0  0  0
 18 43  1  0  0  0  0
 18 44  1  0  0  0  0
 18 45  1  0  0  0  0
 19 20  1  0  0  0  0
 19 21  2  0  0  0  0
 20 46  1  0  0  0  0
 20 47  1  0  0  0  0
 20 48  1  0  0  0  0
 21 22  1  0  0  0  0
 21 49  1  0  0  0  0
 23 24  1  0  0  0  0
 23 50  1  0  0  0  0
 23 51  1  0  0  0  0
 24 52  1  0  0  0  0
 24 53  1  0  0  0  0
M  CHG  1   7   1
M  END
> <s_m_source_file>
AV-unprocessed.smi

> <i_m_source_file_index>
1697

> <i_lp_mmshare_version>
43012

> <i_f3d_flags>
0

> <s_epik_input>
W0NIM11bQ0gyXU9bQ0hdMVtDSDJdW0NIMl1OKFtDSDJdW0NIMl0xKVtDSDJdW0NASF0oW09IXSlbQ0gyXW4oW2NIXW4yKWMoYzIzKVtjSF1jKFtDSDNdKWMoW2NIXTMpW0NIM10=

> <s_epik_cmdline>
J2VwaWtfcHl0aG9uJywgJy1waCcsICc3LjAnLCAnLXRuJywgJzgnLCAnLW1hJywgJzIwMCcsICctbWV0YWxfYmluZGluZycsICctaW1hZScsICc8aW5maWxlLm1hZT4nLCAnLW9tYWUnLCAnPG91dGZpbGUubWFlPic=

> <r_epik_Ionization_Penalty>
0.112476

> <r_epik_Ionization_Penalty_Charging>
0.0244612

> <r_epik_Ionization_Penalty_Neutral>
0.0880147

> <r_epik_State_Penalty>
0.0961447

> <r_epik_Charging_Adjusted_Penalty>
0.120606

> <i_epik_Tot_Q>
1

> <i_epik_Tot_abs_Q>
1

> <r_epik_Metal_State_Penalty>
0.0206204

> <b_epik_Metal_Only>
0

> <s_lp_Force_Field>
OPLS_2005

> <r_lp_Energy>
22.8638

> <b_lp_Chiralities_Consistent>
1

> <s_lp_Variant>
AV-unprocessed.smi:1697-4

> <Gold.Version>
5.8.1

> <Gold.Id.Protein>
6NUR|6NUR_protein|mol2

> <Gold.PLP.Fitness>
52.1400

> <Gold.PLP.PLP>
-42.1534

> <Gold.PLP.part.hbond>
-4.3854

> <Gold.PLP.part.metal>
0.0000

> <Gold.PLP.part.buried>
-1.8394

> <Gold.PLP.part.nonpolar>
-36.1787

> <Gold.PLP.part.repulsive>
0.1032

> <Gold.PLP.ligand.clash>
0.0000

> <Gold.PLP.ligand.torsion>
0.7522

> <Gold.PLP.Chemscore.Hbond>
3.7500

> <Gold.PLP.Chemscore.CHOScore>
0.0000

> <Gold.PLP.Chemscore.Metal>
0.0000

> <Gold.Chemscore.Hbonds>
donor molecule, donor type, donor heavy atom, donor atom, acceptor molecule, acceptor atom, score
      L1  H     7    54       P1  7948  2.00
      L1  H    10    38       P1  7948  1.00
      P1  H  7997  8008       L1    14  0.90

> <Gold.PLP.Chemscore.Internal.Correction>
0.2411

> <Gold.Rescore>
     Score         DG    S(hbond)    S(metal)    S(lipo)     H(rot)  DE(clash)    DE(int)     intcor
     18.25     -19.14       1.80        0.00     115.07       2.27       0.12       0.77       ----

> <Gold.Chemscore.Fitness>
18.2508

> <Gold.Chemscore.DG>
-19.1426

> <Gold.Chemscore.ZeroCoef>
-5.4800

> <Gold.Chemscore.Hbond>
1.8003

> <Gold.Chemscore.Metal>
0.0000

> <Gold.Chemscore.Lipo>
115.0702

> <Gold.Chemscore.Internal_Hbond>
0.0000

> <Gold.Chemscore.DEClash>
0.1180

> <Gold.Chemscore.DEInternal>
0.7738

> <Gold.Chemscore.Rot>
2.2710

> <Gold.Chemscore.Internal.Correction>
   9.000000E+99

> <Gold.Chemscore.Hbonds>
donor molecule, donor type, donor heavy atom, donor atom, acceptor molecule, acceptor atom, score
      L1  H     7    54       P1  7948  0.97
      L1  H    10    38       P1  7948  0.47
      P1  H  7997  8008       L1    14  0.15

> <Gold.Chemscore.Hbond.Weighted>
-6.0131

> <Gold.Chemscore.Metal.Weighted>
-0.0000

> <Gold.Chemscore.Lipo.Weighted>
-13.4632

> <Gold.Chemscore.Internal_Hbond.Weighted>
0.0000

> <Gold.Chemscore.DEClash.Weighted>
0.1180

> <Gold.Chemscore.DEInternal.Weighted>
0.7738

> <Gold.Chemscore.Rot.Weighted>
5.8137

> <Gold.Chemscore.Internal.Correction.Weighted>
   9.000000E+99

> <Gold.Protein.RotatedTorsions>
[ 6907 6896 6895 6894 ] final  147.21 input  -60.11 | X-H torsion
[ 7974 7965 7964 7962 ] final    1.14 input  175.53 | X-H torsion
[ 8008 7997 7996 7995 ] final  -60.17 input   59.86 | X-H torsion
[ 10167 10162 10161 10158 ] final   70.14 input  -65.29 | X-H torsion
[ 10718 10713 10712 10709 ] final    3.69 input   66.30 | X-H torsion
[ 10763 10752 10751 10750 ] final   20.73 input  -60.55 | X-H torsion
[ 11005 11000 10999 10996 ] final   58.25 input  -57.11 | X-H torsion

> <Gold.Protein.ActiveResidues>
 VAL166  LYS551  ARG553  GLY616  TRP617  ASP618  TYR619  PRO620  LYS621  CYS622 
 ASP623  PHE694  ASN695  SER759  ASP760  ASP761  ALA762  ILE779  LEU786  VAL792 
 PHE793  MET794  SER795  GLU796  ALA797  LYS798  CYS799  TRP800  GLU811  SER814 

> <Gold.Protein.RotatedAtoms>
  152.1578  133.4562  159.4845 H   0  0  0  0  0  0  0  0  0  0  0  0  # atno 6907 bound_to 6896
  150.6903  134.2109  159.4368 H   0  0  0  0  0  0  0  0  0  0  0  0  # atno 6908 bound_to 6896
  152.0009  134.9928  160.0615 H   0  0  0  0  0  0  0  0  0  0  0  0  # atno 6909 bound_to 6896
  146.2438  140.1032  142.8347 H   0  0  0  0  0  0  0  0  0  0  0  0  # atno 7974 bound_to 7965
  154.4386  140.1045  156.6232 H   0  0  0  0  0  0  0  0  0  0  0  0  # atno 8008 bound_to 7997
  155.5685  140.3489  155.4490 H   0  0  0  0  0  0  0  0  0  0  0  0  # atno 8009 bound_to 7997
  156.0407  140.1281  157.0148 H   0  0  0  0  0  0  0  0  0  0  0  0  # atno 8010 bound_to 7997
  140.0602  144.5239  150.7300 H   0  0  0  0  0  0  0  0  0  0  0  0  # atno 10167 bound_to 10162
  156.8816  130.5655  149.5653 H   0  0  0  0  0  0  0  0  0  0  0  0  # atno 10718 bound_to 10713
  153.1053  135.6683  153.9597 H   0  0  0  0  0  0  0  0  0  0  0  0  # atno 10763 bound_to 10752
  153.9156  135.3020  155.3449 H   0  0  0  0  0  0  0  0  0  0  0  0  # atno 10764 bound_to 10752
  154.7474  135.5051  153.9305 H   0  0  0  0  0  0  0  0  0  0  0  0  # atno 10765 bound_to 10752
  140.0391  134.5899  155.9405 H   0  0  0  0  0  0  0  0  0  0  0  0  # atno 11005 bound_to 11000
  145.0551  140.9046  143.4972 LP  0  0  0  0  0  0  0  0  0  0  0  0  # atno 17320 bound_to 7965
  145.1137  139.2740  143.5624 LP  0  0  0  0  0  0  0  0  0  0  0  0  # atno 17321 bound_to 7965
  140.7175  143.2558  151.4385 LP  0  0  0  0  0  0  0  0  0  0  0  0  # atno 17342 bound_to 10162
  139.5899  144.1523  152.2075 LP  0  0  0  0  0  0  0  0  0  0  0  0  # atno 17343 bound_to 10162
  156.0674  130.5715  150.9316 LP  0  0  0  0  0  0  0  0  0  0  0  0  # atno 17370 bound_to 10713
  157.6137  131.0934  150.8749 LP  0  0  0  0  0  0  0  0  0  0  0  0  # atno 17371 bound_to 10713
  141.1873  133.6559  156.5278 LP  0  0  0  0  0  0  0  0  0  0  0  0  # atno 17394 bound_to 11000
  140.4098  134.7282  157.4829 LP  0  0  0  0  0  0  0  0  0  0  0  0  # atno 17395 bound_to 11000

$$$$
