AV-unprocessed.smi:456|AV-procd|sdf|2617|dock8
  -GOLD-   2262023 13D 1   1.00000     0.00000
 Structure written by MMmdl.
 33 35  0  0  0  0  0  0  0  0  2 V2000
  150.4690  137.6758  153.9175 O   0  0  0  0  0  0  0  0  0  0  0  0
  150.1918  138.9907  154.3516 C   0  0  2  0  0  0  0  0  0  0  0  0
  150.9805  139.2422  155.6521 C   0  0  0  0  0  0  0  0  0  0  0  0
  150.8341  140.6181  156.1439 N   0  0  0  0  0  0  0  0  0  0  0  0
  150.0870  141.6457  155.6563 C   0  0  0  0  0  0  0  0  0  0  0  0
  150.2976  142.7240  156.4615 N   0  3  0  0  0  0  0  0  0  0  0  0
  151.1903  142.3791  157.4791 C   0  0  0  0  0  0  0  0  0  0  0  0
  151.7078  143.1268  158.5320 C   0  0  0  0  0  0  0  0  0  0  0  0
  152.6050  142.4681  159.3984 C   0  0  0  0  0  0  0  0  0  0  0  0
  153.1378  143.1497  160.4401 F   0  0  0  0  0  0  0  0  0  0  0  0
  152.9577  141.1160  159.2005 C   0  0  0  0  0  0  0  0  0  0  0  0
  153.8241  140.5222  160.0550 F   0  0  0  0  0  0  0  0  0  0  0  0
  152.4260  140.3678  158.1294 C   0  0  0  0  0  0  0  0  0  0  0  0
  151.5393  141.0272  157.2799 C   0  0  0  0  0  0  0  0  0  0  0  0
  148.6998  139.2379  154.5257 C   0  0  0  0  0  0  0  0  0  0  0  0
  147.9349  138.4360  155.4014 C   0  0  0  0  0  0  0  0  0  0  0  0
  146.5580  138.6809  155.5678 C   0  0  0  0  0  0  0  0  0  0  0  0
  145.9385  139.7302  154.8623 C   0  0  0  0  0  0  0  0  0  0  0  0
  146.6966  140.5351  153.9908 C   0  0  0  0  0  0  0  0  0  0  0  0
  148.0733  140.2899  153.8232 C   0  0  0  0  0  0  0  0  0  0  0  0
  150.0068  137.5238  153.1071 H   0  0  0  0  0  0  0  0  0  0  0  0
  150.5656  139.6556  153.5719 H   0  0  0  0  0  0  0  0  0  0  0  0
  150.6444  138.5695  156.4426 H   0  0  0  0  0  0  0  0  0  0  0  0
  152.0438  139.0442  155.5099 H   0  0  0  0  0  0  0  0  0  0  0  0
  149.4490  141.6129  154.7845 H   0  0  0  0  0  0  0  0  0  0  0  0
  151.4417  144.1621  158.6867 H   0  0  0  0  0  0  0  0  0  0  0  0
  152.7023  139.3337  157.9861 H   0  0  0  0  0  0  0  0  0  0  0  0
  148.4024  137.6318  155.9508 H   0  0  0  0  0  0  0  0  0  0  0  0
  145.9775  138.0638  156.2377 H   0  0  0  0  0  0  0  0  0  0  0  0
  144.8824  139.9176  154.9901 H   0  0  0  0  0  0  0  0  0  0  0  0
  146.2221  141.3411  153.4506 H   0  0  0  0  0  0  0  0  0  0  0  0
  148.6477  140.9161  153.1562 H   0  0  0  0  0  0  0  0  0  0  0  0
  149.8623  143.6272  156.3233 H   0  0  0  0  0  0  0  0  0  0  0  0
  1  2  1  0  0  0  0
  1 21  1  0  0  0  0
  2  3  1  0  0  0  0
  2 15  1  0  0  0  0
  2 22  1  0  0  0  0
  3  4  1  0  0  0  0
  3 23  1  0  0  0  0
  3 24  1  0  0  0  0
  4 14  1  0  0  0  0
  4  5  1  0  0  0  0
  5  6  2  0  0  0  0
  5 25  1  0  0  0  0
  6  7  1  0  0  0  0
  6 33  1  0  0  0  0
  7 14  2  0  0  0  0
  7  8  1  0  0  0  0
  8  9  2  0  0  0  0
  8 26  1  0  0  0  0
  9 10  1  0  0  0  0
  9 11  1  0  0  0  0
 11 12  1  0  0  0  0
 11 13  2  0  0  0  0
 13 14  1  0  0  0  0
 13 27  1  0  0  0  0
 15 20  1  0  0  0  0
 15 16  2  0  0  0  0
 16 17  1  0  0  0  0
 16 28  1  0  0  0  0
 17 18  2  0  0  0  0
 17 29  1  0  0  0  0
 18 19  1  0  0  0  0
 18 30  1  0  0  0  0
 19 20  2  0  0  0  0
 19 31  1  0  0  0  0
 20 32  1  0  0  0  0
M  CHG  1   6   1
M  END
> <s_m_source_file>
AV-unprocessed.smi

> <i_m_source_file_index>
456

> <i_lp_mmshare_version>
43012

> <i_f3d_flags>
0

> <s_epik_input>
W2NIXTFbY0hdW2NIXVtjSF1bY0hdYzFbQ0BIXShbT0hdKVtDSDJdbihbY0hdbjIpYyhjMjMpW2NIXWMoRiljKEYpW2NIXTM=

> <s_epik_cmdline>
J2VwaWtfcHl0aG9uJywgJy1waCcsICc3LjAnLCAnLXRuJywgJzgnLCAnLW1hJywgJzIwMCcsICctbWV0YWxfYmluZGluZycsICctaW1hZScsICc8aW5maWxlLm1hZT4nLCAnLW9tYWUnLCAnPG91dGZpbGUubWFlPic=

> <r_epik_Ionization_Penalty>
2.16139

> <r_epik_Ionization_Penalty_Charging>
2.16138

> <r_epik_Ionization_Penalty_Neutral>
1.34362e-06

> <r_epik_State_Penalty>
2.30198

> <r_epik_Charging_Adjusted_Penalty>
4.46337

> <i_epik_Tot_Q>
1

> <i_epik_Tot_abs_Q>
1

> <r_epik_Metal_State_Penalty>
6.38245

> <b_epik_Metal_Only>
0

> <s_lp_Force_Field>
OPLS_2005

> <r_lp_Energy>
16.094

> <b_lp_Chiralities_Consistent>
1

> <s_lp_Variant>
AV-unprocessed.smi:456-3

> <Gold.Version>
5.8.1

> <Gold.Id.Protein>
6NUR|6NUR_protein|mol2

> <Gold.PLP.Fitness>
47.2748

> <Gold.PLP.PLP>
-38.5870

> <Gold.PLP.part.hbond>
-2.9691

> <Gold.PLP.part.metal>
0.0000

> <Gold.PLP.part.buried>
-3.9520

> <Gold.PLP.part.nonpolar>
-33.4622

> <Gold.PLP.part.repulsive>
0.0818

> <Gold.PLP.ligand.clash>
0.0000

> <Gold.PLP.ligand.torsion>
0.0434

> <Gold.PLP.Chemscore.Hbond>
2.9204

> <Gold.PLP.Chemscore.CHOScore>
0.0000

> <Gold.PLP.Chemscore.Metal>
0.0000

> <Gold.Chemscore.Hbonds>
donor molecule, donor type, donor heavy atom, donor atom, acceptor molecule, acceptor atom, score
      L1  H     1    21       P1  7948  0.98
      L1  H     6    33       P1  8028  2.00

> <Gold.PLP.Chemscore.Internal.Correction>
0.0133

> <Gold.Rescore>
     Score         DG    S(hbond)    S(metal)    S(lipo)     H(rot)  DE(clash)    DE(int)     intcor
     15.53     -15.57       1.85        0.00      77.73       2.03       0.01       0.04       ----

> <Gold.Chemscore.Fitness>
15.5277

> <Gold.Chemscore.DG>
-15.5733

> <Gold.Chemscore.ZeroCoef>
-5.4800

> <Gold.Chemscore.Hbond>
1.8516

> <Gold.Chemscore.Metal>
0.0000

> <Gold.Chemscore.Lipo>
77.7293

> <Gold.Chemscore.Internal_Hbond>
0.0000

> <Gold.Chemscore.DEClash>
0.0053

> <Gold.Chemscore.DEInternal>
0.0403

> <Gold.Chemscore.Rot>
2.0256

> <Gold.Chemscore.Internal.Correction>
   9.000000E+99

> <Gold.Chemscore.Hbonds>
donor molecule, donor type, donor heavy atom, donor atom, acceptor molecule, acceptor atom, score
      L1  H     1    21       P1  7948  0.22
      L1  H     6    33       P1  8028  0.98

> <Gold.Chemscore.Hbond.Weighted>
-6.1845

> <Gold.Chemscore.Metal.Weighted>
-0.0000

> <Gold.Chemscore.Lipo.Weighted>
-9.0943

> <Gold.Chemscore.Internal_Hbond.Weighted>
0.0000

> <Gold.Chemscore.DEClash.Weighted>
0.0053

> <Gold.Chemscore.DEInternal.Weighted>
0.0403

> <Gold.Chemscore.Rot.Weighted>
5.1855

> <Gold.Chemscore.Internal.Correction.Weighted>
   9.000000E+99

> <Gold.Protein.RotatedTorsions>
[ 6907 6896 6895 6894 ] final -155.51 input  -60.11 | X-H torsion
[ 7974 7965 7964 7962 ] final -174.60 input  175.53 | X-H torsion
[ 8008 7997 7996 7995 ] final  -74.56 input   59.86 | X-H torsion
[ 10167 10162 10161 10158 ] final  -31.52 input  -65.29 | X-H torsion
[ 10718 10713 10712 10709 ] final  156.20 input   66.30 | X-H torsion
[ 10763 10752 10751 10750 ] final    2.66 input  -60.55 | X-H torsion
[ 11005 11000 10999 10996 ] final -155.40 input  -57.11 | X-H torsion

> <Gold.Protein.ActiveResidues>
 VAL166  LYS551  ARG553  GLY616  TRP617  ASP618  TYR619  PRO620  LYS621  CYS622 
 ASP623  PHE694  ASN695  SER759  ASP760  ASP761  ALA762  ILE779  LEU786  VAL792 
 PHE793  MET794  SER795  GLU796  ALA797  LYS798  CYS799  TRP800  GLU811  SER814 

> <Gold.Protein.RotatedAtoms>
  151.2737  133.4243  159.2622 H   0  0  0  0  0  0  0  0  0  0  0  0  # atno 6907 bound_to 6896
  151.0422  134.9616  159.8178 H   0  0  0  0  0  0  0  0  0  0  0  0  # atno 6908 bound_to 6896
  152.5367  134.2694  159.9018 H   0  0  0  0  0  0  0  0  0  0  0  0  # atno 6909 bound_to 6896
  144.7131  140.1447  143.6389 H   0  0  0  0  0  0  0  0  0  0  0  0  # atno 7974 bound_to 7965
  154.5341  140.0759  156.8396 H   0  0  0  0  0  0  0  0  0  0  0  0  # atno 8008 bound_to 7997
  155.3314  140.3402  155.4221 H   0  0  0  0  0  0  0  0  0  0  0  0  # atno 8009 bound_to 7997
  156.1811  140.1652  156.8260 H   0  0  0  0  0  0  0  0  0  0  0  0  # atno 8010 bound_to 7997
  140.7235  143.3765  151.1680 H   0  0  0  0  0  0  0  0  0  0  0  0  # atno 10167 bound_to 10162
  157.2082  131.0691  151.1985 H   0  0  0  0  0  0  0  0  0  0  0  0  # atno 10718 bound_to 10713
  153.2928  135.6950  153.7276 H   0  0  0  0  0  0  0  0  0  0  0  0  # atno 10763 bound_to 10752
  153.6220  135.3425  155.3015 H   0  0  0  0  0  0  0  0  0  0  0  0  # atno 10764 bound_to 10752
  154.8529  135.4388  154.2016 H   0  0  0  0  0  0  0  0  0  0  0  0  # atno 10765 bound_to 10752
  140.6868  134.4084  157.5222 H   0  0  0  0  0  0  0  0  0  0  0  0  # atno 11005 bound_to 11000
  145.9170  139.2522  143.1404 LP  0  0  0  0  0  0  0  0  0  0  0  0  # atno 17320 bound_to 7965
  145.9659  140.8799  143.0187 LP  0  0  0  0  0  0  0  0  0  0  0  0  # atno 17321 bound_to 7965
  139.7346  143.9019  152.3030 LP  0  0  0  0  0  0  0  0  0  0  0  0  # atno 17342 bound_to 10162
  139.8820  144.7012  150.8867 LP  0  0  0  0  0  0  0  0  0  0  0  0  # atno 17343 bound_to 10162
  157.3699  130.7175  149.6558 LP  0  0  0  0  0  0  0  0  0  0  0  0  # atno 17370 bound_to 10713
  155.9693  130.4202  150.4410 LP  0  0  0  0  0  0  0  0  0  0  0  0  # atno 17371 bound_to 10713
  139.8935  134.8729  156.2220 LP  0  0  0  0  0  0  0  0  0  0  0  0  # atno 17394 bound_to 11000
  141.0273  133.7008  156.1370 LP  0  0  0  0  0  0  0  0  0  0  0  0  # atno 17395 bound_to 11000

$$$$
