AV-unprocessed.smi:2923|AV-procd|sdf|11213|dock1
  -GOLD-   2272016103D 1   1.00000     0.00000
 Structure written by MMmdl.
 46 48  0  0  0  0  0  0  0  0  1 V2000
  151.0594  129.4129  154.2364 C   0  0  0  0  0  0  0  0  0  0  0  0
  149.8579  130.0824  153.7632 N   0  0  0  0  0  0  0  0  0  0  0  0
  148.5944  129.4311  154.0731 C   0  0  0  0  0  0  0  0  0  0  0  0
  149.8541  131.4543  154.0476 C   0  0  0  0  0  0  0  0  0  0  0  0
  150.6363  131.9900  155.0958 C   0  0  0  0  0  0  0  0  0  0  0  0
  150.5946  133.3771  155.3330 C   0  0  0  0  0  0  0  0  0  0  0  0
  149.7770  134.1871  154.5092 C   0  0  0  0  0  0  0  0  0  0  0  0
  149.6344  135.5933  154.6553 N   0  0  0  0  0  0  0  0  0  0  0  0
  149.8754  136.3528  155.7375 C   0  0  0  0  0  0  0  0  0  0  0  0
  150.2786  135.9390  156.8242 O   0  0  0  0  0  0  0  0  0  0  0  0
  149.6348  137.6445  155.4794 N   0  0  0  0  0  0  0  0  0  0  0  0
  149.7982  138.7441  156.4327 C   0  0  1  0  0  0  0  0  0  0  0  0
  151.2755  139.1498  156.6354 C   0  0  1  0  0  0  0  0  0  0  0  0
  152.4312  138.3240  156.1246 C   0  0  0  0  0  0  0  0  0  0  0  0
  152.7788  139.0106  154.8005 C   0  0  0  0  0  0  0  0  0  0  0  0
  151.6002  139.7291  154.4418 O   0  0  0  0  0  0  0  0  0  0  0  0
  151.0401  140.2709  155.6361 C   0  0  1  0  0  0  0  0  0  0  0  0
  149.5121  140.1332  155.8041 C   0  0  0  0  0  0  0  0  0  0  0  0
  148.6747  140.2052  154.5198 C   0  0  0  0  0  0  0  0  0  0  0  0
  148.8966  141.1450  156.7753 C   0  0  0  0  0  0  0  0  0  0  0  0
  149.0265  133.5491  153.4999 C   0  0  0  0  0  0  0  0  0  0  0  0
  149.0635  132.2203  153.2656 N   0  0  0  0  0  0  0  0  0  0  0  0
  151.9528  129.9700  153.9514 H   0  0  0  0  0  0  0  0  0  0  0  0
  151.1311  128.4165  153.8000 H   0  0  0  0  0  0  0  0  0  0  0  0
  151.0474  129.3108  155.3221 H   0  0  0  0  0  0  0  0  0  0  0  0
  147.7564  129.9980  153.6653 H   0  0  0  0  0  0  0  0  0  0  0  0
  148.4555  129.3350  155.1506 H   0  0  0  0  0  0  0  0  0  0  0  0
  148.5694  128.4329  153.6355 H   0  0  0  0  0  0  0  0  0  0  0  0
  151.2556  131.3533  155.7107 H   0  0  0  0  0  0  0  0  0  0  0  0
  151.1765  133.7842  156.1448 H   0  0  0  0  0  0  0  0  0  0  0  0
  149.3745  136.0897  153.8156 H   0  0  0  0  0  0  0  0  0  0  0  0
  149.3095  137.8934  154.5566 H   0  0  0  0  0  0  0  0  0  0  0  0
  149.2798  138.5963  157.3818 H   0  0  0  0  0  0  0  0  0  0  0  0
  151.4328  139.5485  157.6389 H   0  0  0  0  0  0  0  0  0  0  0  0
  153.2807  138.3370  156.8081 H   0  0  0  0  0  0  0  0  0  0  0  0
  152.1554  137.2808  155.9708 H   0  0  0  0  0  0  0  0  0  0  0  0
  153.5963  139.7192  154.9402 H   0  0  0  0  0  0  0  0  0  0  0  0
  153.0691  138.3037  154.0232 H   0  0  0  0  0  0  0  0  0  0  0  0
  151.4747  141.2279  155.9284 H   0  0  0  0  0  0  0  0  0  0  0  0
  148.6246  141.2231  154.1320 H   0  0  0  0  0  0  0  0  0  0  0  0
  147.6521  139.8680  154.6920 H   0  0  0  0  0  0  0  0  0  0  0  0
  149.0877  139.5880  153.7218 H   0  0  0  0  0  0  0  0  0  0  0  0
  148.9387  142.1593  156.3774 H   0  0  0  0  0  0  0  0  0  0  0  0
  149.4191  141.1546  157.7323 H   0  0  0  0  0  0  0  0  0  0  0  0
  147.8509  140.9149  156.9826 H   0  0  0  0  0  0  0  0  0  0  0  0
  148.3777  134.1226  152.8540 H   0  0  0  0  0  0  0  0  0  0  0  0
  1  2  1  0  0  0  0
  1 23  1  0  0  0  0
  1 24  1  0  0  0  0
  1 25  1  0  0  0  0
  2  3  1  0  0  0  0
  2  4  1  0  0  0  0
  3 26  1  0  0  0  0
  3 27  1  0  0  0  0
  3 28  1  0  0  0  0
  4 22  1  0  0  0  0
  4  5  2  0  0  0  0
  5  6  1  0  0  0  0
  5 29  1  0  0  0  0
  6  7  2  0  0  0  0
  6 30  1  0  0  0  0
  7  8  1  0  0  0  0
  7 21  1  0  0  0  0
  8  9  1  0  0  0  0
  8 31  1  0  0  0  0
  9 10  2  0  0  0  0
  9 11  1  0  0  0  0
 11 12  1  0  0  0  0
 11 32  1  0  0  0  0
 12 18  1  0  0  0  0
 12 13  1  0  0  0  0
 12 33  1  0  0  0  0
 13 17  1  0  0  0  0
 13 14  1  0  0  0  0
 13 34  1  0  0  0  0
 14 15  1  0  0  0  0
 14 35  1  0  0  0  0
 14 36  1  0  0  0  0
 15 16  1  0  0  0  0
 15 37  1  0  0  0  0
 15 38  1  0  0  0  0
 16 17  1  0  0  0  0
 17 18  1  0  0  0  0
 17 39  1  0  0  0  0
 18 19  1  0  0  0  0
 18 20  1  0  0  0  0
 19 40  1  0  0  0  0
 19 41  1  0  0  0  0
 19 42  1  0  0  0  0
 20 43  1  0  0  0  0
 20 44  1  0  0  0  0
 20 45  1  0  0  0  0
 21 22  2  0  0  0  0
 21 46  1  0  0  0  0
M  END
> <s_m_source_file>
AV-unprocessed.smi

> <i_m_source_file_index>
2923

> <i_lp_mmshare_version>
43012

> <i_f3d_flags>
0

> <s_epik_input>
W0NIM11OKFtDSDNdKWMxW2NIXVtjSF1jKFtjSF1uMSlbTkhdQyg9TylbTkhdW0NASF0yQyhbQ0gzXSkoW0NIM10pW0NAQEhdKFtDQEhdMjMpT1tDSDJdW0NIMl0z

> <s_epik_cmdline>
J2VwaWtfcHl0aG9uJywgJy1waCcsICc3LjAnLCAnLXRuJywgJzgnLCAnLW1hJywgJzIwMCcsICctbWV0YWxfYmluZGluZycsICctaW1hZScsICc8aW5maWxlLm1hZT4nLCAnLW9tYWUnLCAnPG91dGZpbGUubWFlPic=

> <r_lp_tautomer_probability>
1

> <r_epik_Ionization_Penalty>
0.628785

> <r_epik_Ionization_Penalty_Charging>
0

> <r_epik_Ionization_Penalty_Neutral>
0.628785

> <r_epik_State_Penalty>
0.644286

> <r_epik_Charging_Adjusted_Penalty>
0.644286

> <i_epik_Tot_Q>
0

> <i_epik_Tot_abs_Q>
0

> <r_epik_Metal_State_Penalty>
0.308404

> <b_epik_Metal_Only>
0

> <s_lp_Force_Field>
OPLS_2005

> <r_lp_Energy>
44.9089

> <b_lp_Chiralities_Consistent>
1

> <s_lp_Variant>
AV-unprocessed.smi:2923-12

> <Gold.Version>
5.8.1

> <Gold.Id.Protein>
6NUR|6NUR_protein|mol2

> <Gold.PLP.Fitness>
38.8362

> <Gold.PLP.PLP>
-31.0550

> <Gold.PLP.part.hbond>
-2.0000

> <Gold.PLP.part.metal>
0.0000

> <Gold.PLP.part.buried>
-2.3607

> <Gold.PLP.part.nonpolar>
-26.7444

> <Gold.PLP.part.repulsive>
0.3783

> <Gold.PLP.ligand.clash>
0.0243

> <Gold.PLP.ligand.torsion>
0.6163

> <Gold.PLP.Chemscore.Hbond>
2.0000

> <Gold.PLP.Chemscore.CHOScore>
0.8805

> <Gold.PLP.Chemscore.Metal>
0.0000

> <Gold.Chemscore.Hbonds>
donor molecule, donor type, donor heavy atom, donor atom, acceptor molecule, acceptor atom, score
      L1  H     8    31       P1  7948  1.00
      P1  H  7989  7998       L1    16  0.84
      L1  C    21    46       P1  7948  0.71

> <Gold.PLP.Chemscore.Internal.Correction>
0.3967

> <Gold.Rescore>
     Score         DG    S(hbond)    S(metal)    S(lipo)     H(rot)  DE(clash)    DE(int)     intcor
     14.28     -15.75       1.55        0.00      69.74       1.19       0.01       1.47       ----

> <Gold.Chemscore.Fitness>
14.2789

> <Gold.Chemscore.DG>
-15.7514

> <Gold.Chemscore.ZeroCoef>
-5.4800

> <Gold.Chemscore.Hbond>
1.5472

> <Gold.Chemscore.Metal>
0.0000

> <Gold.Chemscore.Lipo>
69.7401

> <Gold.Chemscore.Internal_Hbond>
0.0000

> <Gold.Chemscore.DEClash>
0.0060

> <Gold.Chemscore.DEInternal>
1.4665

> <Gold.Chemscore.Rot>
1.1937

> <Gold.Chemscore.Internal.Correction>
   9.000000E+99

> <Gold.Chemscore.Hbonds>
donor molecule, donor type, donor heavy atom, donor atom, acceptor molecule, acceptor atom, score
      L1  H     8    31       P1  7948  0.71
      P1  H  7989  7998       L1    16  0.45

> <Gold.Chemscore.Hbond.Weighted>
-5.1677

> <Gold.Chemscore.Metal.Weighted>
-0.0000

> <Gold.Chemscore.Lipo.Weighted>
-8.1596

> <Gold.Chemscore.Internal_Hbond.Weighted>
0.0000

> <Gold.Chemscore.DEClash.Weighted>
0.0060

> <Gold.Chemscore.DEInternal.Weighted>
1.4665

> <Gold.Chemscore.Rot.Weighted>
3.0559

> <Gold.Chemscore.Internal.Correction.Weighted>
   9.000000E+99

> <Gold.Protein.RotatedTorsions>
[ 6907 6896 6895 6894 ] final   41.05 input  -60.11 | X-H torsion
[ 7974 7965 7964 7962 ] final  112.68 input  175.53 | X-H torsion
[ 8008 7997 7996 7995 ] final   53.84 input   59.86 | X-H torsion
[ 10167 10162 10161 10158 ] final  173.04 input  -65.29 | X-H torsion
[ 10718 10713 10712 10709 ] final  -87.76 input   66.30 | X-H torsion
[ 10763 10752 10751 10750 ] final -150.59 input  -60.55 | X-H torsion
[ 11005 11000 10999 10996 ] final    0.98 input  -57.11 | X-H torsion

> <Gold.Protein.ActiveResidues>
 VAL166  LYS551  ARG553  GLY616  TRP617  ASP618  TYR619  PRO620  LYS621  CYS622 
 ASP623  PHE694  ASN695  SER759  ASP760  ASP761  ALA762  ILE779  LEU786  VAL792 
 PHE793  MET794  SER795  GLU796  ALA797  LYS798  CYS799  TRP800  GLU811  SER814 

> <Gold.Protein.RotatedAtoms>
  152.1904  134.8677  160.0517 H   0  0  0  0  0  0  0  0  0  0  0  0  # atno 6907 bound_to 6896
  151.9568  133.3678  159.4029 H   0  0  0  0  0  0  0  0  0  0  0  0  # atno 6908 bound_to 6896
  150.6934  134.4206  159.5247 H   0  0  0  0  0  0  0  0  0  0  0  0  # atno 6909 bound_to 6896
  145.2265  139.2838  143.4190 H   0  0  0  0  0  0  0  0  0  0  0  0  # atno 7974 bound_to 7965
  155.4749  140.3466  155.4331 H   0  0  0  0  0  0  0  0  0  0  0  0  # atno 8008 bound_to 7997
  156.1077  140.1452  156.9410 H   0  0  0  0  0  0  0  0  0  0  0  0  # atno 8009 bound_to 7997
  154.4735  140.0893  156.7183 H   0  0  0  0  0  0  0  0  0  0  0  0  # atno 8010 bound_to 7997
  139.5095  144.3306  152.0115 H   0  0  0  0  0  0  0  0  0  0  0  0  # atno 10167 bound_to 10162
  155.9984  130.4811  150.4916 H   0  0  0  0  0  0  0  0  0  0  0  0  # atno 10718 bound_to 10713
  154.8110  135.3280  154.7306 H   0  0  0  0  0  0  0  0  0  0  0  0  # atno 10763 bound_to 10752
  153.7955  135.6907  153.4868 H   0  0  0  0  0  0  0  0  0  0  0  0  # atno 10764 bound_to 10752
  153.1888  135.4558  155.0069 H   0  0  0  0  0  0  0  0  0  0  0  0  # atno 10765 bound_to 10752
  140.6205  133.9665  155.8222 H   0  0  0  0  0  0  0  0  0  0  0  0  # atno 11005 bound_to 11000
  146.3363  140.2587  142.8601 LP  0  0  0  0  0  0  0  0  0  0  0  0  # atno 17320 bound_to 7965
  144.9716  140.8374  143.5452 LP  0  0  0  0  0  0  0  0  0  0  0  0  # atno 17321 bound_to 7965
  140.2746  144.3927  150.6139 LP  0  0  0  0  0  0  0  0  0  0  0  0  # atno 17342 bound_to 10162
  140.6063  143.2168  151.6973 LP  0  0  0  0  0  0  0  0  0  0  0  0  # atno 17343 bound_to 10162
  157.2911  131.0626  151.2133 LP  0  0  0  0  0  0  0  0  0  0  0  0  # atno 17370 bound_to 10713
  157.3146  130.6906  149.6234 LP  0  0  0  0  0  0  0  0  0  0  0  0  # atno 17371 bound_to 10713
  141.0745  134.0155  157.3477 LP  0  0  0  0  0  0  0  0  0  0  0  0  # atno 17394 bound_to 11000
  139.9155  135.0196  156.7864 LP  0  0  0  0  0  0  0  0  0  0  0  0  # atno 17395 bound_to 11000

$$$$
