AV-unprocessed.smi:2925|AV-procd|sdf|11225|dock4
  -GOLD-   2272016113D 1   1.00000     0.00000
 Structure written by MMmdl.
 44 45  0  0  0  0  0  0  0  0  1 V2000
  149.4277  135.6407  157.6856 C   0  0  0  0  0  0  0  0  0  0  0  0
  148.6976  135.5024  156.3413 C   0  0  0  0  0  0  0  0  0  0  0  0
  149.6007  135.0107  155.1906 C   0  0  1  0  0  0  0  0  0  0  0  0
  148.7920  134.8183  153.9870 N   0  0  0  0  0  0  0  0  0  0  0  0
  147.8768  133.8554  153.8070 C   0  0  0  0  0  0  0  0  0  0  0  0
  147.5910  133.0099  154.6561 O   0  0  0  0  0  0  0  0  0  0  0  0
  147.3401  133.9165  152.5756 N   0  0  0  0  0  0  0  0  0  0  0  0
  146.4002  133.0218  152.0418 C   0  0  0  0  0  0  0  0  0  0  0  0
  145.3505  133.5139  151.3326 C   0  0  0  0  0  0  0  0  0  0  0  0
  145.1905  135.0027  151.0688 C   0  0  0  0  0  0  0  0  0  0  0  0
  144.3729  132.5923  150.7919 C   0  0  0  0  0  0  0  0  0  0  0  0
  144.5176  131.2777  151.0059 C   0  0  0  0  0  0  0  0  0  0  0  0
  145.5863  130.7666  151.7565 N   0  0  0  0  0  0  0  0  0  0  0  0
  145.6461  129.3151  151.9498 C   0  0  0  0  0  0  0  0  0  0  0  0
  146.5289  131.5721  152.3254 C   0  0  0  0  0  0  0  0  0  0  0  0
  147.4136  131.0999  153.0430 O   0  0  0  0  0  0  0  0  0  0  0  0
  150.7504  135.9951  154.8839 C   0  0  1  0  0  0  0  0  0  0  0  0
  150.3117  137.4479  154.6804 C   0  0  0  0  0  0  0  0  0  0  0  0
  151.5589  138.2092  155.0651 C   0  0  0  0  0  0  0  0  0  0  0  0
  152.0623  137.3875  156.2453 C   0  0  0  0  0  0  0  0  0  0  0  0
  151.6774  136.0445  155.9696 O   0  0  0  0  0  0  0  0  0  0  0  0
  148.7591  136.0397  158.4485 H   0  0  0  0  0  0  0  0  0  0  0  0
  150.2776  136.3184  157.6021 H   0  0  0  0  0  0  0  0  0  0  0  0
  149.7983  134.6803  158.0443 H   0  0  0  0  0  0  0  0  0  0  0  0
  147.8493  134.8272  156.4597 H   0  0  0  0  0  0  0  0  0  0  0  0
  148.2762  136.4747  156.0852 H   0  0  0  0  0  0  0  0  0  0  0  0
  150.0372  134.0579  155.4964 H   0  0  0  0  0  0  0  0  0  0  0  0
  148.9575  135.4604  153.2262 H   0  0  0  0  0  0  0  0  0  0  0  0
  147.7395  134.5777  151.9262 H   0  0  0  0  0  0  0  0  0  0  0  0
  144.3075  135.2038  150.4615 H   0  0  0  0  0  0  0  0  0  0  0  0
  146.0590  135.3921  150.5364 H   0  0  0  0  0  0  0  0  0  0  0  0
  145.0849  135.5485  152.0068 H   0  0  0  0  0  0  0  0  0  0  0  0
  143.5359  132.9548  150.2131 H   0  0  0  0  0  0  0  0  0  0  0  0
  143.8233  130.5427  150.6256 H   0  0  0  0  0  0  0  0  0  0  0  0
  146.6233  128.9256  151.6605 H   0  0  0  0  0  0  0  0  0  0  0  0
  144.9011  128.7811  151.3590 H   0  0  0  0  0  0  0  0  0  0  0  0
  145.4771  129.0643  152.9979 H   0  0  0  0  0  0  0  0  0  0  0  0
  151.3019  135.6653  154.0018 H   0  0  0  0  0  0  0  0  0  0  0  0
  149.9857  137.6552  153.6607 H   0  0  0  0  0  0  0  0  0  0  0  0
  149.4968  137.7041  155.3592 H   0  0  0  0  0  0  0  0  0  0  0  0
  152.2825  138.1817  154.2493 H   0  0  0  0  0  0  0  0  0  0  0  0
  151.3670  139.2515  155.3209 H   0  0  0  0  0  0  0  0  0  0  0  0
  153.1400  137.4734  156.3859 H   0  0  0  0  0  0  0  0  0  0  0  0
  151.5730  137.7050  157.1669 H   0  0  0  0  0  0  0  0  0  0  0  0
  1  2  1  0  0  0  0
  1 22  1  0  0  0  0
  1 23  1  0  0  0  0
  1 24  1  0  0  0  0
  2  3  1  0  0  0  0
  2 25  1  0  0  0  0
  2 26  1  0  0  0  0
  3  4  1  0  0  0  0
  3 17  1  0  0  0  0
  3 27  1  0  0  0  0
  4  5  1  0  0  0  0
  4 28  1  0  0  0  0
  5  6  2  0  0  0  0
  5  7  1  0  0  0  0
  7  8  1  0  0  0  0
  7 29  1  0  0  0  0
  8 15  1  0  0  0  0
  8  9  2  0  0  0  0
  9 10  1  0  0  0  0
  9 11  1  0  0  0  0
 10 30  1  0  0  0  0
 10 31  1  0  0  0  0
 10 32  1  0  0  0  0
 11 12  2  0  0  0  0
 11 33  1  0  0  0  0
 12 13  1  0  0  0  0
 12 34  1  0  0  0  0
 13 14  1  0  0  0  0
 13 15  1  0  0  0  0
 14 35  1  0  0  0  0
 14 36  1  0  0  0  0
 14 37  1  0  0  0  0
 15 16  2  0  0  0  0
 17 21  1  0  0  0  0
 17 18  1  0  0  0  0
 17 38  1  0  0  0  0
 18 19  1  0  0  0  0
 18 39  1  0  0  0  0
 18 40  1  0  0  0  0
 19 20  1  0  0  0  0
 19 41  1  0  0  0  0
 19 42  1  0  0  0  0
 20 21  1  0  0  0  0
 20 43  1  0  0  0  0
 20 44  1  0  0  0  0
M  END
> <s_m_source_file>
AV-unprocessed.smi

> <i_m_source_file_index>
2925

> <i_lp_mmshare_version>
43012

> <i_f3d_flags>
0

> <s_epik_input>
TzFbQ0gyXVtDSDJdW0NIMl1bQ0BIXTFbQ0BIXShbQ0gyXVtDSDNdKVtOSF1DKD1PKVtOSF1jMmMoW0NIM10pW2NIXVtjSF1uKFtDSDNdKWMyPU8=

> <s_epik_cmdline>
J2VwaWtfcHl0aG9uJywgJy1waCcsICc3LjAnLCAnLXRuJywgJzgnLCAnLW1hJywgJzIwMCcsICctbWV0YWxfYmluZGluZycsICctaW1hZScsICc8aW5maWxlLm1hZT4nLCAnLW9tYWUnLCAnPG91dGZpbGUubWFlPic=

> <r_lp_tautomer_probability>
1

> <r_epik_Ionization_Penalty>
2.58789e-05

> <r_epik_Ionization_Penalty_Charging>
6.72534e-06

> <r_epik_Ionization_Penalty_Neutral>
1.91535e-05

> <r_epik_State_Penalty>
-0

> <r_epik_Charging_Adjusted_Penalty>
6.72534e-06

> <i_epik_Tot_Q>
0

> <i_epik_Tot_abs_Q>
0

> <r_epik_Metal_State_Penalty>
-0

> <b_epik_Metal_Only>
0

> <s_lp_Force_Field>
OPLS_2005

> <r_lp_Energy>
35.3317

> <b_lp_Chiralities_Consistent>
1

> <s_lp_Variant>
AV-unprocessed.smi:2925-4

> <Gold.Version>
5.8.1

> <Gold.Id.Protein>
6NUR|6NUR_protein|mol2

> <Gold.PLP.Fitness>
42.4169

> <Gold.PLP.PLP>
-34.2687

> <Gold.PLP.part.hbond>
-2.9963

> <Gold.PLP.part.metal>
0.0000

> <Gold.PLP.part.buried>
-4.9400

> <Gold.PLP.part.nonpolar>
-27.1655

> <Gold.PLP.part.repulsive>
0.1663

> <Gold.PLP.ligand.clash>
0.0000

> <Gold.PLP.ligand.torsion>
0.5390

> <Gold.PLP.Chemscore.Hbond>
2.8640

> <Gold.PLP.Chemscore.CHOScore>
0.0000

> <Gold.PLP.Chemscore.Metal>
0.0000

> <Gold.Chemscore.Hbonds>
donor molecule, donor type, donor heavy atom, donor atom, acceptor molecule, acceptor atom, score
      L1  H     4    28       P1  7948  1.00
      L1  H     7    29       P1  7948  0.85
      P1  H 10752 10763       L1    21  0.95

> <Gold.PLP.Chemscore.Internal.Correction>
0.6342

> <Gold.Rescore>
     Score         DG    S(hbond)    S(metal)    S(lipo)     H(rot)  DE(clash)    DE(int)     intcor
     13.52     -18.54       2.57        0.00      68.03       1.36       0.01       5.01       ----

> <Gold.Chemscore.Fitness>
13.5167

> <Gold.Chemscore.DG>
-18.5439

> <Gold.Chemscore.ZeroCoef>
-5.4800

> <Gold.Chemscore.Hbond>
2.5689

> <Gold.Chemscore.Metal>
0.0000

> <Gold.Chemscore.Lipo>
68.0342

> <Gold.Chemscore.Internal_Hbond>
0.0000

> <Gold.Chemscore.DEClash>
0.0149

> <Gold.Chemscore.DEInternal>
5.0123

> <Gold.Chemscore.Rot>
1.3579

> <Gold.Chemscore.Internal.Correction>
   9.000000E+99

> <Gold.Chemscore.Hbonds>
donor molecule, donor type, donor heavy atom, donor atom, acceptor molecule, acceptor atom, score
      L1  H     4    28       P1  7948  0.61
      L1  H     7    29       P1  7948  0.28
      P1  H 10752 10763       L1    21  0.07

> <Gold.Chemscore.Hbond.Weighted>
-8.5801

> <Gold.Chemscore.Metal.Weighted>
-0.0000

> <Gold.Chemscore.Lipo.Weighted>
-7.9600

> <Gold.Chemscore.Internal_Hbond.Weighted>
0.0000

> <Gold.Chemscore.DEClash.Weighted>
0.0149

> <Gold.Chemscore.DEInternal.Weighted>
5.0123

> <Gold.Chemscore.Rot.Weighted>
3.4763

> <Gold.Chemscore.Internal.Correction.Weighted>
   9.000000E+99

> <Gold.Protein.RotatedTorsions>
[ 6907 6896 6895 6894 ] final  167.32 input  -60.11 | X-H torsion
[ 7974 7965 7964 7962 ] final  -31.59 input  175.53 | X-H torsion
[ 8008 7997 7996 7995 ] final  -62.28 input   59.86 | X-H torsion
[ 10167 10162 10161 10158 ] final    5.00 input  -65.29 | X-H torsion
[ 10718 10713 10712 10709 ] final  -20.51 input   66.30 | X-H torsion
[ 10763 10752 10751 10750 ] final  100.86 input  -60.55 | X-H torsion
[ 11005 11000 10999 10996 ] final  116.32 input  -57.11 | X-H torsion

> <Gold.Protein.ActiveResidues>
 VAL166  LYS551  ARG553  GLY616  TRP617  ASP618  TYR619  PRO620  LYS621  CYS622 
 ASP623  PHE694  ASN695  SER759  ASP760  ASP761  ALA762  ILE779  LEU786  VAL792 
 PHE793  MET794  SER795  GLU796  ALA797  LYS798  CYS799  TRP800  GLU811  SER814 

> <Gold.Protein.RotatedAtoms>
  151.8651  133.3464  159.3716 H   0  0  0  0  0  0  0  0  0  0  0  0  # atno 6907 bound_to 6896
  150.7168  134.5168  159.5643 H   0  0  0  0  0  0  0  0  0  0  0  0  # atno 6908 bound_to 6896
  152.2689  134.7954  160.0468 H   0  0  0  0  0  0  0  0  0  0  0  0  # atno 6909 bound_to 6896
  146.1055  140.5686  142.8801 H   0  0  0  0  0  0  0  0  0  0  0  0  # atno 7974 bound_to 7965
  154.4491  140.0999  156.6562 H   0  0  0  0  0  0  0  0  0  0  0  0  # atno 8008 bound_to 7997
  155.5344  140.3482  155.4414 H   0  0  0  0  0  0  0  0  0  0  0  0  # atno 8009 bound_to 7997
  156.0642  140.1333  156.9895 H   0  0  0  0  0  0  0  0  0  0  0  0  # atno 8010 bound_to 7997
  140.6505  143.7556  150.7568 H   0  0  0  0  0  0  0  0  0  0  0  0  # atno 10167 bound_to 10162
  156.5309  130.4655  149.6548 H   0  0  0  0  0  0  0  0  0  0  0  0  # atno 10718 bound_to 10713
  153.3193  135.4064  155.1403 H   0  0  0  0  0  0  0  0  0  0  0  0  # atno 10763 bound_to 10752
  154.8596  135.3583  154.5618 H   0  0  0  0  0  0  0  0  0  0  0  0  # atno 10764 bound_to 10752
  153.6051  135.7070  153.5428 H   0  0  0  0  0  0  0  0  0  0  0  0  # atno 10765 bound_to 10752
  139.9037  134.9596  156.7180 H   0  0  0  0  0  0  0  0  0  0  0  0  # atno 11005 bound_to 11000
  144.7468  140.5088  143.6830 LP  0  0  0  0  0  0  0  0  0  0  0  0  # atno 17320 bound_to 7965
  145.5768  139.1486  143.3257 LP  0  0  0  0  0  0  0  0  0  0  0  0  # atno 17321 bound_to 7965
  140.1206  143.4616  152.2315 LP  0  0  0  0  0  0  0  0  0  0  0  0  # atno 17342 bound_to 10162
  139.5720  144.7468  151.3866 LP  0  0  0  0  0  0  0  0  0  0  0  0  # atno 17343 bound_to 10162
  156.3061  130.7203  151.2086 LP  0  0  0  0  0  0  0  0  0  0  0  0  # atno 17370 bound_to 10713
  157.7422  131.0493  150.5043 LP  0  0  0  0  0  0  0  0  0  0  0  0  # atno 17371 bound_to 10713
  140.7023  133.9295  155.8032 LP  0  0  0  0  0  0  0  0  0  0  0  0  # atno 17394 bound_to 11000
  141.0362  134.0686  157.3956 LP  0  0  0  0  0  0  0  0  0  0  0  0  # atno 17395 bound_to 11000

$$$$
