AV-unprocessed.smi:34|AV-procd|sdf|233|dock5
  -GOLD-   2262015573D 1   1.00000     0.00000
 Structure written by MMmdl.
 54 58  0  0  0  0  0  0  0  0  2 V2000
  149.6165  131.8494  156.8642 O   0  0  0  0  0  0  0  0  0  0  0  0
  150.6930  132.4500  156.8506 C   0  0  0  0  0  0  0  0  0  0  0  0
  150.9198  133.7603  157.1227 N   0  5  0  0  0  0  0  0  0  0  0  0
  150.0862  134.6985  156.6482 C   0  0  0  0  0  0  0  0  0  0  0  0
  148.7470  134.5842  156.8370 N   0  0  0  0  0  0  0  0  0  0  0  0
  147.9150  135.5124  156.3514 C   0  0  0  0  0  0  0  0  0  0  0  0
  148.2035  136.6131  155.6513 N   0  0  0  0  0  0  0  0  0  0  0  0
  149.5463  136.7401  155.4487 C   0  0  0  0  0  0  0  0  0  0  0  0
  150.5396  135.8278  155.9119 C   0  0  0  0  0  0  0  0  0  0  0  0
  151.8067  136.2458  155.5342 N   0  0  0  0  0  0  0  0  0  0  0  0
  151.5332  137.3695  154.8762 C   0  0  0  0  0  0  0  0  0  0  0  0
  150.2395  137.7331  154.7725 N   0  0  0  0  0  0  0  0  0  0  0  0
  149.7088  138.9406  154.0679 C   0  0  2  0  0  0  0  0  0  0  0  0
  150.2691  140.0855  154.6418 O   0  0  0  0  0  0  0  0  0  0  0  0
  149.2741  141.0975  154.8351 C   0  0  2  0  0  0  0  0  0  0  0  0
  149.0268  141.3089  156.3353 C   0  0  0  0  0  0  0  0  0  0  0  0
  150.1846  141.8672  156.9348 O   0  0  0  0  0  0  0  0  0  0  0  0
  150.0710  142.6067  158.0558 C   0  0  0  0  0  0  0  0  0  0  0  0
  149.0764  143.2814  158.3306 O   0  0  0  0  0  0  0  0  0  0  0  0
  151.2745  142.5232  158.9319 C   0  0  0  0  0  0  0  0  0  0  0  0
  152.0521  141.3417  158.9287 C   0  0  0  0  0  0  0  0  0  0  0  0
  153.1955  141.2329  159.7438 C   0  0  0  0  0  0  0  0  0  0  0  0
  153.5755  142.3048  160.5720 C   0  0  0  0  0  0  0  0  0  0  0  0
  152.8109  143.4861  160.5836 C   0  0  0  0  0  0  0  0  0  0  0  0
  151.6672  143.5970  159.7687 C   0  0  0  0  0  0  0  0  0  0  0  0
  148.0303  140.5646  154.1200 C   0  0  1  0  0  0  0  0  0  0  0  0
  148.0989  140.9492  152.8422 F   0  0  0  0  0  0  0  0  0  0  0  0
  148.1982  139.0592  154.2449 C   0  0  1  0  0  0  0  0  0  0  0  0
  147.4512  138.3907  153.2485 O   0  0  0  0  0  0  0  0  0  0  0  0
  151.9330  131.7075  156.4290 C   0  0  0  0  0  0  0  0  0  0  0  0
  151.8178  130.5566  155.6164 C   0  0  0  0  0  0  0  0  0  0  0  0
  152.9637  129.8329  155.2322 C   0  0  0  0  0  0  0  0  0  0  0  0
  154.2374  130.2477  155.6640 C   0  0  0  0  0  0  0  0  0  0  0  0
  154.3638  131.3842  156.4844 C   0  0  0  0  0  0  0  0  0  0  0  0
  153.2184  132.1079  156.8696 C   0  0  0  0  0  0  0  0  0  0  0  0
  146.8661  135.3488  156.5494 H   0  0  0  0  0  0  0  0  0  0  0  0
  152.3217  137.9621  154.4362 H   0  0  0  0  0  0  0  0  0  0  0  0
  150.0279  138.8466  153.0284 H   0  0  0  0  0  0  0  0  0  0  0  0
  149.6054  142.0360  154.3884 H   0  0  0  0  0  0  0  0  0  0  0  0
  148.1925  141.9958  156.4813 H   0  0  0  0  0  0  0  0  0  0  0  0
  148.7529  140.3684  156.8131 H   0  0  0  0  0  0  0  0  0  0  0  0
  151.7807  140.5055  158.3004 H   0  0  0  0  0  0  0  0  0  0  0  0
  153.7819  140.3257  159.7319 H   0  0  0  0  0  0  0  0  0  0  0  0
  154.4530  142.2216  161.1962 H   0  0  0  0  0  0  0  0  0  0  0  0
  153.1021  144.3100  161.2184 H   0  0  0  0  0  0  0  0  0  0  0  0
  151.1042  144.5184  159.7997 H   0  0  0  0  0  0  0  0  0  0  0  0
  147.0900  140.9377  154.5274 H   0  0  0  0  0  0  0  0  0  0  0  0
  147.9110  138.7212  155.2420 H   0  0  0  0  0  0  0  0  0  0  0  0
  147.9968  137.7217  152.8635 H   0  0  0  0  0  0  0  0  0  0  0  0
  150.8473  130.2238  155.2775 H   0  0  0  0  0  0  0  0  0  0  0  0
  152.8642  128.9582  154.6068 H   0  0  0  0  0  0  0  0  0  0  0  0
  155.1157  129.6926  155.3701 H   0  0  0  0  0  0  0  0  0  0  0  0
  155.3395  131.7005  156.8221 H   0  0  0  0  0  0  0  0  0  0  0  0
  153.3368  132.9707  157.5093 H   0  0  0  0  0  0  0  0  0  0  0  0
  1  2  2  0  0  0  0
  2  3  1  0  0  0  0
  2 30  1  0  0  0  0
  3  4  1  0  0  0  0
  4  9  1  0  0  0  0
  4  5  2  0  0  0  0
  5  6  1  0  0  0  0
  6  7  2  0  0  0  0
  6 36  1  0  0  0  0
  7  8  1  0  0  0  0
  8 12  1  0  0  0  0
  8  9  2  0  0  0  0
  9 10  1  0  0  0  0
 10 11  2  0  0  0  0
 11 12  1  0  0  0  0
 11 37  1  0  0  0  0
 12 13  1  0  0  0  0
 13 28  1  0  0  0  0
 13 14  1  0  0  0  0
 13 38  1  0  0  0  0
 14 15  1  0  0  0  0
 15 16  1  0  0  0  0
 15 26  1  0  0  0  0
 15 39  1  0  0  0  0
 16 17  1  0  0  0  0
 16 40  1  0  0  0  0
 16 41  1  0  0  0  0
 17 18  1  0  0  0  0
 18 19  2  0  0  0  0
 18 20  1  0  0  0  0
 20 25  1  0  0  0  0
 20 21  2  0  0  0  0
 21 22  1  0  0  0  0
 21 42  1  0  0  0  0
 22 23  2  0  0  0  0
 22 43  1  0  0  0  0
 23 24  1  0  0  0  0
 23 44  1  0  0  0  0
 24 25  2  0  0  0  0
 24 45  1  0  0  0  0
 25 46  1  0  0  0  0
 26 27  1  0  0  0  0
 26 28  1  0  0  0  0
 26 47  1  0  0  0  0
 28 29  1  0  0  0  0
 28 48  1  0  0  0  0
 29 49  1  0  0  0  0
 30 35  1  0  0  0  0
 30 31  2  0  0  0  0
 31 32  1  0  0  0  0
 31 50  1  0  0  0  0
 32 33  2  0  0  0  0
 32 51  1  0  0  0  0
 33 34  1  0  0  0  0
 33 52  1  0  0  0  0
 34 35  2  0  0  0  0
 34 53  1  0  0  0  0
 35 54  1  0  0  0  0
M  CHG  1   3  -1
M  END
> <s_m_source_file>
AV-unprocessed.smi

> <i_m_source_file_index>
34

> <i_lp_mmshare_version>
43012

> <i_f3d_flags>
0

> <s_epik_input>
W2NIXTFbY0hdW2NIXVtjSF1bY0hdYzFDKD1PKVtOSF1jKG5bY0hdbjIpYyhjMjMpbltjSF1uM1tDQEBIXTRPW0NASF0oW0NAQEhdKEYpW0NASF00W09IXSlbQ0gyXU9DKD1PKWM1W2NIXVtjSF1bY0hdW2NIXVtjSF01

> <s_epik_cmdline>
J2VwaWtfcHl0aG9uJywgJy1waCcsICc3LjAnLCAnLXRuJywgJzgnLCAnLW1hJywgJzIwMCcsICctbWV0YWxfYmluZGluZycsICctaW1hZScsICc8aW5maWxlLm1hZT4nLCAnLW9tYWUnLCAnPG91dGZpbGUubWFlPic=

> <r_lp_tautomer_probability>
1

> <r_epik_Ionization_Penalty>
4.33227

> <r_epik_Ionization_Penalty_Charging>
3.41027

> <r_epik_Ionization_Penalty_Neutral>
0.922001

> <r_epik_State_Penalty>
3.41358

> <r_epik_Charging_Adjusted_Penalty>
6.82385

> <i_epik_Tot_Q>
-1

> <i_epik_Tot_abs_Q>
1

> <r_epik_Metal_State_Penalty>
0.496292

> <b_epik_Metal_Only>
1

> <s_epik_Chemistry_Notes>
This compound has an ester and may undergo hydrolysis at high or low pH. This compound contains an acetal/aminal-like group ( X-CH(R)-Y where X, Y are N, S, or O) that may be acid/base labile, releasing an aldehyde.

> <s_lp_Force_Field>
OPLS_2005

> <r_lp_Energy>
46.7296

> <b_lp_Chiralities_Consistent>
1

> <s_lp_Variant>
AV-unprocessed.smi:34-19

> <Gold.Version>
5.8.1

> <Gold.Id.Protein>
6NUR|6NUR_protein|mol2

> <Gold.PLP.Fitness>
58.2340

> <Gold.PLP.PLP>
-49.3216

> <Gold.PLP.part.hbond>
-4.0000

> <Gold.PLP.part.metal>
0.0000

> <Gold.PLP.part.buried>
-2.4583

> <Gold.PLP.part.nonpolar>
-44.3311

> <Gold.PLP.part.repulsive>
0.6299

> <Gold.PLP.ligand.clash>
0.0000

> <Gold.PLP.ligand.torsion>
2.0251

> <Gold.PLP.Chemscore.Hbond>
4.2355

> <Gold.PLP.Chemscore.CHOScore>
0.0000

> <Gold.PLP.Chemscore.Metal>
0.0000

> <Gold.Chemscore.Hbonds>
donor molecule, donor type, donor heavy atom, donor atom, acceptor molecule, acceptor atom, score
      L1  H    29    49       P1  7948  1.00
      P1  H  6896  6908       L1     3  0.88
      P1  H  7989  7998       L1    14  1.00
      P1  H 10752 10765       L1    10  1.00

> <Gold.PLP.Chemscore.Internal.Correction>
0.2562

> <Gold.Rescore>
     Score         DG    S(hbond)    S(metal)    S(lipo)     H(rot)  DE(clash)    DE(int)     intcor
     14.26     -19.94       2.24        0.00     118.65       2.69       1.06       4.63       ----

> <Gold.Chemscore.Fitness>
14.2554

> <Gold.Chemscore.DG>
-19.9385

> <Gold.Chemscore.ZeroCoef>
-5.4800

> <Gold.Chemscore.Hbond>
2.2379

> <Gold.Chemscore.Metal>
0.0000

> <Gold.Chemscore.Lipo>
118.6460

> <Gold.Chemscore.Internal_Hbond>
0.0000

> <Gold.Chemscore.DEClash>
1.0566

> <Gold.Chemscore.DEInternal>
4.6265

> <Gold.Chemscore.Rot>
2.6944

> <Gold.Chemscore.Internal.Correction>
   9.000000E+99

> <Gold.Chemscore.Hbonds>
donor molecule, donor type, donor heavy atom, donor atom, acceptor molecule, acceptor atom, score
      L1  H    29    49       P1  7948  0.93
      P1  H  6896  6908       L1     3  0.06
      P1  H  7989  7998       L1    14  0.45
      P1  H 10752 10765       L1    10  0.39

> <Gold.Chemscore.Hbond.Weighted>
-7.4744

> <Gold.Chemscore.Metal.Weighted>
-0.0000

> <Gold.Chemscore.Lipo.Weighted>
-13.8816

> <Gold.Chemscore.Internal_Hbond.Weighted>
0.0000

> <Gold.Chemscore.DEClash.Weighted>
1.0566

> <Gold.Chemscore.DEInternal.Weighted>
4.6265

> <Gold.Chemscore.Rot.Weighted>
6.8975

> <Gold.Chemscore.Internal.Correction.Weighted>
   9.000000E+99

> <Gold.Protein.RotatedTorsions>
[ 6907 6896 6895 6894 ] final   97.75 input  -60.11 | X-H torsion
[ 7974 7965 7964 7962 ] final  -61.94 input  175.53 | X-H torsion
[ 8008 7997 7996 7995 ] final   21.96 input   59.86 | X-H torsion
[ 10167 10162 10161 10158 ] final   32.60 input  -65.29 | X-H torsion
[ 10718 10713 10712 10709 ] final  110.78 input   66.30 | X-H torsion
[ 10763 10752 10751 10750 ] final -178.22 input  -60.55 | X-H torsion
[ 11005 11000 10999 10996 ] final   70.19 input  -57.11 | X-H torsion

> <Gold.Protein.ActiveResidues>
 VAL166  LYS551  ARG553  GLY616  TRP617  ASP618  TYR619  PRO620  LYS621  CYS622 
 ASP623  PHE694  ASN695  SER759  ASP760  ASP761  ALA762  ILE779  LEU786  VAL792 
 PHE793  MET794  SER795  GLU796  ALA797  LYS798  CYS799  TRP800  GLU811  SER814 

> <Gold.Protein.RotatedAtoms>
  152.5419  134.0685  159.8183 H   0  0  0  0  0  0  0  0  0  0  0  0  # atno 6907 bound_to 6896
  151.0803  133.5388  159.2628 H   0  0  0  0  0  0  0  0  0  0  0  0  # atno 6908 bound_to 6896
  151.2217  135.0529  159.9006 H   0  0  0  0  0  0  0  0  0  0  0  0  # atno 6909 bound_to 6896
  145.7973  140.8675  143.0249 H   0  0  0  0  0  0  0  0  0  0  0  0  # atno 7974 bound_to 7965
  154.9585  140.3075  155.5042 H   0  0  0  0  0  0  0  0  0  0  0  0  # atno 8008 bound_to 7997
  156.2979  140.2306  156.4607 H   0  0  0  0  0  0  0  0  0  0  0  0  # atno 8009 bound_to 7997
  154.7987  140.0435  157.1245 H   0  0  0  0  0  0  0  0  0  0  0  0  # atno 8010 bound_to 7997
  140.4484  144.1085  150.6187 H   0  0  0  0  0  0  0  0  0  0  0  0  # atno 10167 bound_to 10162
  157.6477  131.0939  150.6653 H   0  0  0  0  0  0  0  0  0  0  0  0  # atno 10718 bound_to 10713
  154.5504  135.2812  155.1014 H   0  0  0  0  0  0  0  0  0  0  0  0  # atno 10763 bound_to 10752
  154.2462  135.6348  153.5228 H   0  0  0  0  0  0  0  0  0  0  0  0  # atno 10764 bound_to 10752
  153.0001  135.5571  154.6068 H   0  0  0  0  0  0  0  0  0  0  0  0  # atno 10765 bound_to 10752
  139.9611  134.7059  156.0644 H   0  0  0  0  0  0  0  0  0  0  0  0  # atno 11005 bound_to 11000
  144.6773  140.0209  143.7484 LP  0  0  0  0  0  0  0  0  0  0  0  0  # atno 17320 bound_to 7965
  145.9914  139.3018  143.0982 LP  0  0  0  0  0  0  0  0  0  0  0  0  # atno 17321 bound_to 7965
  140.4237  143.2600  151.9684 LP  0  0  0  0  0  0  0  0  0  0  0  0  # atno 17342 bound_to 10162
  139.4794  144.5808  151.7936 LP  0  0  0  0  0  0  0  0  0  0  0  0  # atno 17343 bound_to 10162
  156.6968  130.4611  149.5584 LP  0  0  0  0  0  0  0  0  0  0  0  0  # atno 17370 bound_to 10713
  156.1823  130.6507  151.0966 LP  0  0  0  0  0  0  0  0  0  0  0  0  # atno 17371 bound_to 10713
  141.1288  133.6592  156.3409 LP  0  0  0  0  0  0  0  0  0  0  0  0  # atno 17394 bound_to 11000
  140.5498  134.6039  157.5404 LP  0  0  0  0  0  0  0  0  0  0  0  0  # atno 17395 bound_to 11000

$$$$
