AV-unprocessed.smi:1927|AV-procd|sdf|7796|dock2
  -GOLD-   22720 9543D 1   1.00000     0.00000
 Structure written by MMmdl.
 34 35  0  0  0  0  0  0  0  0  1 V2000
  152.7602  143.5292  162.3128 C   0  0  0  0  0  0  0  0  0  0  0  0
  152.4970  143.7075  160.8262 C   0  0  0  0  0  0  0  0  0  0  0  0
  152.0378  144.9544  160.3508 C   0  0  0  0  0  0  0  0  0  0  0  0
  151.7936  145.1164  158.9763 C   0  0  0  0  0  0  0  0  0  0  0  0
  152.0208  144.0177  158.1300 C   0  0  0  0  0  0  0  0  0  0  0  0
  152.4602  142.8231  158.5755 N   0  0  0  0  0  0  0  0  0  0  0  0
  152.7008  142.6498  159.8994 C   0  0  0  0  0  0  0  0  0  0  0  0
  153.1691  141.4195  160.4411 N   0  0  0  0  0  0  0  0  0  0  0  0
  153.4556  140.2745  159.7966 C   0  0  0  0  0  0  0  0  0  0  0  0
  153.3367  140.0877  158.5853 O   0  0  0  0  0  0  0  0  0  0  0  0
  153.8919  139.3377  160.6513 N   0  0  0  0  0  0  0  0  0  0  0  0
  154.2878  137.9796  160.2923 C   0  0  0  0  0  0  0  0  0  0  0  0
  153.8651  136.9591  161.3648 C   0  0  2  0  0  0  0  0  0  0  0  0
  154.0496  137.4534  162.7849 C   0  0  0  0  0  0  0  0  0  0  0  0
  154.0177  136.1535  163.5841 C   0  0  0  0  0  0  0  0  0  0  0  0
  154.5138  135.1421  162.7109 O   0  0  0  0  0  0  0  0  0  0  0  0
  154.6914  135.6724  161.4013 C   0  0  0  0  0  0  0  0  0  0  0  0
  152.5508  144.4450  162.8665 H   0  0  0  0  0  0  0  0  0  0  0  0
  153.8030  143.2623  162.4872 H   0  0  0  0  0  0  0  0  0  0  0  0
  152.1272  142.7402  162.7202 H   0  0  0  0  0  0  0  0  0  0  0  0
  151.8740  145.7793  161.0287 H   0  0  0  0  0  0  0  0  0  0  0  0
  151.4419  146.0580  158.5813 H   0  0  0  0  0  0  0  0  0  0  0  0
  151.8475  144.1000  157.0672 H   0  0  0  0  0  0  0  0  0  0  0  0
  153.3092  141.4148  161.4403 H   0  0  0  0  0  0  0  0  0  0  0  0
  153.9563  139.5821  161.6286 H   0  0  0  0  0  0  0  0  0  0  0  0
  153.8895  137.7006  159.3151 H   0  0  0  0  0  0  0  0  0  0  0  0
  155.3732  137.9700  160.1907 H   0  0  0  0  0  0  0  0  0  0  0  0
  152.8147  136.6978  161.2246 H   0  0  0  0  0  0  0  0  0  0  0  0
  155.0220  137.9359  162.8965 H   0  0  0  0  0  0  0  0  0  0  0  0
  153.2808  138.1613  163.0960 H   0  0  0  0  0  0  0  0  0  0  0  0
  154.6088  136.2152  164.4980 H   0  0  0  0  0  0  0  0  0  0  0  0
  152.9935  135.9005  163.8605 H   0  0  0  0  0  0  0  0  0  0  0  0
  154.3885  134.9557  160.6377 H   0  0  0  0  0  0  0  0  0  0  0  0
  155.7509  135.8901  161.2592 H   0  0  0  0  0  0  0  0  0  0  0  0
  1  2  1  0  0  0  0
  1 18  1  0  0  0  0
  1 19  1  0  0  0  0
  1 20  1  0  0  0  0
  2  7  1  0  0  0  0
  2  3  2  0  0  0  0
  3  4  1  0  0  0  0
  3 21  1  0  0  0  0
  4  5  2  0  0  0  0
  4 22  1  0  0  0  0
  5  6  1  0  0  0  0
  5 23  1  0  0  0  0
  6  7  2  0  0  0  0
  7  8  1  0  0  0  0
  8  9  1  0  0  0  0
  8 24  1  0  0  0  0
  9 10  2  0  0  0  0
  9 11  1  0  0  0  0
 11 12  1  0  0  0  0
 11 25  1  0  0  0  0
 12 13  1  0  0  0  0
 12 26  1  0  0  0  0
 12 27  1  0  0  0  0
 13 17  1  0  0  0  0
 13 14  1  0  0  0  0
 13 28  1  0  0  0  0
 14 15  1  0  0  0  0
 14 29  1  0  0  0  0
 14 30  1  0  0  0  0
 15 16  1  0  0  0  0
 15 31  1  0  0  0  0
 15 32  1  0  0  0  0
 16 17  1  0  0  0  0
 17 33  1  0  0  0  0
 17 34  1  0  0  0  0
M  END
> <s_m_source_file>
AV-unprocessed.smi

> <i_m_source_file_index>
1927

> <i_lp_mmshare_version>
43012

> <i_f3d_flags>
0

> <s_epik_input>
W0NIM11jMVtjSF1bY0hdW2NIXW5jMVtOSF1DKD1PKVtOSF1bQ0gyXVtDQEBIXTJbQ0gyXVtDSDJdT1tDSDJdMg==

> <s_epik_cmdline>
J2VwaWtfcHl0aG9uJywgJy1waCcsICc3LjAnLCAnLXRuJywgJzgnLCAnLW1hJywgJzIwMCcsICctbWV0YWxfYmluZGluZycsICctaW1hZScsICc8aW5maWxlLm1hZT4nLCAnLW9tYWUnLCAnPG91dGZpbGUubWFlPic=

> <r_lp_tautomer_probability>
1

> <r_epik_Ionization_Penalty>
5.84082e-05

> <r_epik_Ionization_Penalty_Charging>
0

> <r_epik_Ionization_Penalty_Neutral>
5.84082e-05

> <r_epik_State_Penalty>
-0

> <r_epik_Charging_Adjusted_Penalty>
0

> <i_epik_Tot_Q>
0

> <i_epik_Tot_abs_Q>
0

> <r_epik_Metal_State_Penalty>
-0

> <b_epik_Metal_Only>
0

> <s_lp_Force_Field>
OPLS_2005

> <r_lp_Energy>
21.003

> <b_lp_Chiralities_Consistent>
1

> <s_lp_Variant>
AV-unprocessed.smi:1927-1

> <Gold.Version>
5.8.1

> <Gold.Id.Protein>
6NUR|6NUR_protein|mol2

> <Gold.PLP.Fitness>
43.6666

> <Gold.PLP.PLP>
-41.4351

> <Gold.PLP.part.hbond>
-1.0000

> <Gold.PLP.part.metal>
0.0000

> <Gold.PLP.part.buried>
-5.4116

> <Gold.PLP.part.nonpolar>
-33.8341

> <Gold.PLP.part.repulsive>
0.1156

> <Gold.PLP.ligand.clash>
0.0000

> <Gold.PLP.ligand.torsion>
0.3871

> <Gold.PLP.Chemscore.Hbond>
1.0000

> <Gold.PLP.Chemscore.CHOScore>
0.0000

> <Gold.PLP.Chemscore.Metal>
0.0000

> <Gold.Chemscore.Hbonds>
donor molecule, donor type, donor heavy atom, donor atom, acceptor molecule, acceptor atom, score
      P1  H  7997  8008       L1    10  1.00

> <Gold.PLP.Chemscore.Internal.Correction>
0.0057

> <Gold.Rescore>
     Score         DG    S(hbond)    S(metal)    S(lipo)     H(rot)  DE(clash)    DE(int)     intcor
     15.18     -16.96       0.98        0.00      97.16       1.23       0.07       1.71       ----

> <Gold.Chemscore.Fitness>
15.1827

> <Gold.Chemscore.DG>
-16.9637

> <Gold.Chemscore.ZeroCoef>
-5.4800

> <Gold.Chemscore.Hbond>
0.9804

> <Gold.Chemscore.Metal>
0.0000

> <Gold.Chemscore.Lipo>
97.1579

> <Gold.Chemscore.Internal_Hbond>
0.0000

> <Gold.Chemscore.DEClash>
0.0727

> <Gold.Chemscore.DEInternal>
1.7083

> <Gold.Chemscore.Rot>
1.2337

> <Gold.Chemscore.Internal.Correction>
   9.000000E+99

> <Gold.Chemscore.Hbonds>
donor molecule, donor type, donor heavy atom, donor atom, acceptor molecule, acceptor atom, score
      P1  H  7997  8008       L1    10  0.92

> <Gold.Chemscore.Hbond.Weighted>
-3.2745

> <Gold.Chemscore.Metal.Weighted>
-0.0000

> <Gold.Chemscore.Lipo.Weighted>
-11.3675

> <Gold.Chemscore.Internal_Hbond.Weighted>
0.0000

> <Gold.Chemscore.DEClash.Weighted>
0.0727

> <Gold.Chemscore.DEInternal.Weighted>
1.7083

> <Gold.Chemscore.Rot.Weighted>
3.1582

> <Gold.Chemscore.Internal.Correction.Weighted>
   9.000000E+99

> <Gold.Protein.RotatedTorsions>
[ 6907 6896 6895 6894 ] final  -53.80 input  -60.11 | X-H torsion
[ 7974 7965 7964 7962 ] final  145.70 input  175.53 | X-H torsion
[ 8008 7997 7996 7995 ] final  -93.91 input   59.86 | X-H torsion
[ 10167 10162 10161 10158 ] final   25.70 input  -65.29 | X-H torsion
[ 10718 10713 10712 10709 ] final  162.21 input   66.30 | X-H torsion
[ 10763 10752 10751 10750 ] final   70.87 input  -60.55 | X-H torsion
[ 11005 11000 10999 10996 ] final  171.65 input  -57.11 | X-H torsion

> <Gold.Protein.ActiveResidues>
 VAL166  LYS551  ARG553  GLY616  TRP617  ASP618  TYR619  PRO620  LYS621  CYS622 
 ASP623  PHE694  ASN695  SER759  ASP760  ASP761  ALA762  ILE779  LEU786  VAL792 
 PHE793  MET794  SER795  GLU796  ALA797  LYS798  CYS799  TRP800  GLU811  SER814 

> <Gold.Protein.RotatedAtoms>
  150.8394  134.7681  159.6919 H   0  0  0  0  0  0  0  0  0  0  0  0  # atno 6907 bound_to 6896
  152.4485  134.5441  159.9857 H   0  0  0  0  0  0  0  0  0  0  0  0  # atno 6908 bound_to 6896
  151.5584  133.3369  159.3002 H   0  0  0  0  0  0  0  0  0  0  0  0  # atno 6909 bound_to 6896
  144.8731  139.5814  143.5877 H   0  0  0  0  0  0  0  0  0  0  0  0  # atno 7974 bound_to 7965
  154.7416  140.0494  157.0816 H   0  0  0  0  0  0  0  0  0  0  0  0  # atno 8008 bound_to 7997
  155.0171  140.3142  155.4788 H   0  0  0  0  0  0  0  0  0  0  0  0  # atno 8009 bound_to 7997
  156.2865  140.2174  156.5287 H   0  0  0  0  0  0  0  0  0  0  0  0  # atno 8010 bound_to 7997
  140.5084  144.0200  150.6362 H   0  0  0  0  0  0  0  0  0  0  0  0  # atno 10167 bound_to 10162
  157.1258  131.0504  151.2394 H   0  0  0  0  0  0  0  0  0  0  0  0  # atno 10718 bound_to 10713
  153.0366  135.5158  154.7507 H   0  0  0  0  0  0  0  0  0  0  0  0  # atno 10763 bound_to 10752
  154.6478  135.2921  155.0027 H   0  0  0  0  0  0  0  0  0  0  0  0  # atno 10764 bound_to 10752
  154.0921  135.6648  153.4907 H   0  0  0  0  0  0  0  0  0  0  0  0  # atno 10765 bound_to 10752
  140.3212  134.7435  157.4065 H   0  0  0  0  0  0  0  0  0  0  0  0  # atno 11005 bound_to 11000
  146.2944  139.7234  142.9137 LP  0  0  0  0  0  0  0  0  0  0  0  0  # atno 17320 bound_to 7965
  145.4093  141.0394  143.3026 LP  0  0  0  0  0  0  0  0  0  0  0  0  # atno 17321 bound_to 7965
  140.3516  143.2960  152.0481 LP  0  0  0  0  0  0  0  0  0  0  0  0  # atno 17342 bound_to 10162
  139.4890  144.6370  151.6956 LP  0  0  0  0  0  0  0  0  0  0  0  0  # atno 17343 bound_to 10162
  157.4436  130.7558  149.7091 LP  0  0  0  0  0  0  0  0  0  0  0  0  # atno 17370 bound_to 10713
  155.9818  130.4015  150.3449 LP  0  0  0  0  0  0  0  0  0  0  0  0  # atno 17371 bound_to 10713
  140.0940  134.5562  155.8416 LP  0  0  0  0  0  0  0  0  0  0  0  0  # atno 17394 bound_to 11000
  141.2086  133.6675  156.6382 LP  0  0  0  0  0  0  0  0  0  0  0  0  # atno 17395 bound_to 11000

$$$$
