AV-unprocessed.smi:1780|AV-procd|sdf|7184|dock7
  -GOLD-   22720 8423D 1   1.00000     0.00000
 Structure written by MMmdl.
 43 44  0  0  0  0  0  0  0  0  1 V2000
  154.1640  141.2859  160.7662 C   0  0  0  0  0  0  0  0  0  0  0  0
  153.3609  142.5228  161.1876 C   0  0  0  0  0  0  0  0  0  0  0  0
  152.5813  143.0601  160.0892 N   0  0  0  0  0  0  0  0  0  0  0  0
  151.9920  142.3744  159.0456 C   0  0  0  0  0  0  0  0  0  0  0  0
  151.3763  143.3245  158.2806 C   0  0  0  0  0  0  0  0  0  0  0  0
  150.6190  143.1708  157.0923 N   0  0  0  0  0  0  0  0  0  0  0  0
  150.4277  142.0438  156.3875 C   0  0  0  0  0  0  0  0  0  0  0  0
  150.9122  140.9456  156.6615 O   0  0  0  0  0  0  0  0  0  0  0  0
  149.6305  142.2602  155.3321 N   0  0  0  0  0  0  0  0  0  0  0  0
  149.2123  141.2421  154.3722 C   0  0  0  0  0  0  0  0  0  0  0  0
  147.7321  140.7897  154.5431 C   0  0  1  0  0  0  0  0  0  0  0  0
  146.7980  141.9696  154.1707 C   0  0  0  0  0  0  0  0  0  0  0  0
  147.4132  139.5493  153.7984 N   0  0  0  0  0  0  0  0  0  0  0  0
  146.2452  138.8451  154.3405 C   0  0  0  0  0  0  0  0  0  0  0  0
  145.8959  137.5716  153.5508 C   0  0  0  0  0  0  0  0  0  0  0  0
  145.6788  137.8975  152.1850 O   0  0  0  0  0  0  0  0  0  0  0  0
  146.8160  138.5137  151.5971 C   0  0  0  0  0  0  0  0  0  0  0  0
  147.1694  139.7948  152.3723 C   0  0  0  0  0  0  0  0  0  0  0  0
  151.6343  144.5644  158.9209 C   0  0  0  0  0  0  0  0  0  0  0  0
  152.3660  144.3970  160.0119 N   0  0  0  0  0  0  0  0  0  0  0  0
  154.7618  140.9109  161.5969 H   0  0  0  0  0  0  0  0  0  0  0  0
  154.8431  141.5183  159.9451 H   0  0  0  0  0  0  0  0  0  0  0  0
  153.5065  140.4792  160.4400 H   0  0  0  0  0  0  0  0  0  0  0  0
  152.6866  142.2774  162.0093 H   0  0  0  0  0  0  0  0  0  0  0  0
  154.0335  143.3006  161.5510 H   0  0  0  0  0  0  0  0  0  0  0  0
  152.0640  141.3010  158.9508 H   0  0  0  0  0  0  0  0  0  0  0  0
  150.1703  144.0061  156.7460 H   0  0  0  0  0  0  0  0  0  0  0  0
  149.2792  143.1949  155.1838 H   0  0  0  0  0  0  0  0  0  0  0  0
  149.3632  141.6429  153.3694 H   0  0  0  0  0  0  0  0  0  0  0  0
  149.9073  140.4102  154.4793 H   0  0  0  0  0  0  0  0  0  0  0  0
  147.5776  140.5884  155.6043 H   0  0  0  0  0  0  0  0  0  0  0  0
  147.0629  142.8906  154.6884 H   0  0  0  0  0  0  0  0  0  0  0  0
  145.7623  141.7806  154.4491 H   0  0  0  0  0  0  0  0  0  0  0  0
  146.8285  142.1746  153.1002 H   0  0  0  0  0  0  0  0  0  0  0  0
  146.4220  138.5376  155.3691 H   0  0  0  0  0  0  0  0  0  0  0  0
  145.3823  139.5130  154.3518 H   0  0  0  0  0  0  0  0  0  0  0  0
  146.6952  136.8335  153.6348 H   0  0  0  0  0  0  0  0  0  0  0  0
  144.9934  137.1121  153.9540 H   0  0  0  0  0  0  0  0  0  0  0  0
  147.6570  137.8187  151.5947 H   0  0  0  0  0  0  0  0  0  0  0  0
  146.5939  138.7505  150.5565 H   0  0  0  0  0  0  0  0  0  0  0  0
  146.3650  140.5224  152.2544 H   0  0  0  0  0  0  0  0  0  0  0  0
  148.0525  140.2192  151.8983 H   0  0  0  0  0  0  0  0  0  0  0  0
  151.3229  145.5588  158.6371 H   0  0  0  0  0  0  0  0  0  0  0  0
  1  2  1  0  0  0  0
  1 21  1  0  0  0  0
  1 22  1  0  0  0  0
  1 23  1  0  0  0  0
  2  3  1  0  0  0  0
  2 24  1  0  0  0  0
  2 25  1  0  0  0  0
  3 20  1  0  0  0  0
  3  4  1  0  0  0  0
  4  5  2  0  0  0  0
  4 26  1  0  0  0  0
  5  6  1  0  0  0  0
  5 19  1  0  0  0  0
  6  7  1  0  0  0  0
  6 27  1  0  0  0  0
  7  8  2  0  0  0  0
  7  9  1  0  0  0  0
  9 10  1  0  0  0  0
  9 28  1  0  0  0  0
 10 11  1  0  0  0  0
 10 29  1  0  0  0  0
 10 30  1  0  0  0  0
 11 12  1  0  0  0  0
 11 13  1  0  0  0  0
 11 31  1  0  0  0  0
 12 32  1  0  0  0  0
 12 33  1  0  0  0  0
 12 34  1  0  0  0  0
 13 18  1  0  0  0  0
 13 14  1  0  0  0  0
 14 15  1  0  0  0  0
 14 35  1  0  0  0  0
 14 36  1  0  0  0  0
 15 16  1  0  0  0  0
 15 37  1  0  0  0  0
 15 38  1  0  0  0  0
 16 17  1  0  0  0  0
 17 18  1  0  0  0  0
 17 39  1  0  0  0  0
 17 40  1  0  0  0  0
 18 41  1  0  0  0  0
 18 42  1  0  0  0  0
 19 20  2  0  0  0  0
 19 43  1  0  0  0  0
M  END
> <s_m_source_file>
AV-unprocessed.smi

> <i_m_source_file_index>
1780

> <i_lp_mmshare_version>
43012

> <i_f3d_flags>
0

> <s_epik_input>
W0NIM11bQ0gyXW4xW2NIXWMoW2NIXW4xKVtOSF1DKD1PKVtOSF1bQ0gyXVtDQEhdKFtDSDNdKU4yW0NIMl1bQ0gyXU9bQ0gyXVtDSDJdMg==

> <s_epik_cmdline>
J2VwaWtfcHl0aG9uJywgJy1waCcsICc3LjAnLCAnLXRuJywgJzgnLCAnLW1hJywgJzIwMCcsICctbWV0YWxfYmluZGluZycsICctaW1hZScsICc8aW5maWxlLm1hZT4nLCAnLW9tYWUnLCAnPG91dGZpbGUubWFlPic=

> <r_lp_tautomer_probability>
1

> <r_epik_Ionization_Penalty>
0.242902

> <r_epik_Ionization_Penalty_Charging>
0

> <r_epik_Ionization_Penalty_Neutral>
0.242902

> <r_epik_State_Penalty>
0.233765

> <r_epik_Charging_Adjusted_Penalty>
0.233765

> <i_epik_Tot_Q>
0

> <i_epik_Tot_abs_Q>
0

> <r_epik_Metal_State_Penalty>
0.233759

> <b_epik_Metal_Only>
0

> <s_lp_Force_Field>
OPLS_2005

> <r_lp_Energy>
31.4714

> <b_lp_Chiralities_Consistent>
1

> <s_lp_Variant>
AV-unprocessed.smi:1780-2

> <Gold.Version>
5.8.1

> <Gold.Id.Protein>
6NUR|6NUR_protein|mol2

> <Gold.PLP.Fitness>
44.9307

> <Gold.PLP.PLP>
-40.7470

> <Gold.PLP.part.hbond>
-2.0000

> <Gold.PLP.part.metal>
0.0000

> <Gold.PLP.part.buried>
-1.9371

> <Gold.PLP.part.nonpolar>
-38.1892

> <Gold.PLP.part.repulsive>
1.1179

> <Gold.PLP.ligand.clash>
0.0000

> <Gold.PLP.ligand.torsion>
0.8700

> <Gold.PLP.Chemscore.Hbond>
1.9600

> <Gold.PLP.Chemscore.CHOScore>
0.0000

> <Gold.PLP.Chemscore.Metal>
0.0000

> <Gold.Chemscore.Hbonds>
donor molecule, donor type, donor heavy atom, donor atom, acceptor molecule, acceptor atom, score
      L1  H     6    27       P1  8028  0.98
      L1  H     9    28       P1  8028  1.00

> <Gold.PLP.Chemscore.Internal.Correction>
0.0438

> <Gold.Rescore>
     Score         DG    S(hbond)    S(metal)    S(lipo)     H(rot)  DE(clash)    DE(int)     intcor
     16.91     -18.95       1.92        0.00      95.52       1.61       0.03       2.01       ----

> <Gold.Chemscore.Fitness>
16.9117

> <Gold.Chemscore.DG>
-18.9513

> <Gold.Chemscore.ZeroCoef>
-5.4800

> <Gold.Chemscore.Hbond>
1.9228

> <Gold.Chemscore.Metal>
0.0000

> <Gold.Chemscore.Lipo>
95.5151

> <Gold.Chemscore.Internal_Hbond>
0.0000

> <Gold.Chemscore.DEClash>
0.0330

> <Gold.Chemscore.DEInternal>
2.0066

> <Gold.Chemscore.Rot>
1.6117

> <Gold.Chemscore.Internal.Correction>
   9.000000E+99

> <Gold.Chemscore.Hbonds>
donor molecule, donor type, donor heavy atom, donor atom, acceptor molecule, acceptor atom, score
      L1  H     6    27       P1  8028  0.93
      L1  H     9    28       P1  8028  0.98

> <Gold.Chemscore.Hbond.Weighted>
-6.4221

> <Gold.Chemscore.Metal.Weighted>
-0.0000

> <Gold.Chemscore.Lipo.Weighted>
-11.1753

> <Gold.Chemscore.Internal_Hbond.Weighted>
0.0000

> <Gold.Chemscore.DEClash.Weighted>
0.0330

> <Gold.Chemscore.DEInternal.Weighted>
2.0066

> <Gold.Chemscore.Rot.Weighted>
4.1260

> <Gold.Chemscore.Internal.Correction.Weighted>
   9.000000E+99

> <Gold.Protein.RotatedTorsions>
[ 6907 6896 6895 6894 ] final -125.45 input  -60.11 | X-H torsion
[ 7974 7965 7964 7962 ] final   -1.95 input  175.53 | X-H torsion
[ 8008 7997 7996 7995 ] final -117.26 input   59.86 | X-H torsion
[ 10167 10162 10161 10158 ] final   72.76 input  -65.29 | X-H torsion
[ 10718 10713 10712 10709 ] final -122.03 input   66.30 | X-H torsion
[ 10763 10752 10751 10750 ] final -145.31 input  -60.55 | X-H torsion
[ 11005 11000 10999 10996 ] final   98.35 input  -57.11 | X-H torsion

> <Gold.Protein.ActiveResidues>
 VAL166  LYS551  ARG553  GLY616  TRP617  ASP618  TYR619  PRO620  LYS621  CYS622 
 ASP623  PHE694  ASN695  SER759  ASP760  ASP761  ALA762  ILE779  LEU786  VAL792 
 PHE793  MET794  SER795  GLU796  ALA797  LYS798  CYS799  TRP800  GLU811  SER814 

> <Gold.Protein.RotatedAtoms>
  150.8868  133.7296  159.2915 H   0  0  0  0  0  0  0  0  0  0  0  0  # atno 6907 bound_to 6896
  151.4859  135.1053  159.9800 H   0  0  0  0  0  0  0  0  0  0  0  0  # atno 6908 bound_to 6896
  152.4795  133.8173  159.7091 H   0  0  0  0  0  0  0  0  0  0  0  0  # atno 6909 bound_to 6896
  146.2411  140.1498  142.8334 H   0  0  0  0  0  0  0  0  0  0  0  0  # atno 7974 bound_to 7965
  155.0808  140.0394  157.2638 H   0  0  0  0  0  0  0  0  0  0  0  0  # atno 8008 bound_to 7997
  154.6908  140.2653  155.6790 H   0  0  0  0  0  0  0  0  0  0  0  0  # atno 8009 bound_to 7997
  156.2728  140.2760  156.1485 H   0  0  0  0  0  0  0  0  0  0  0  0  # atno 8010 bound_to 7997
  140.0318  144.5459  150.7501 H   0  0  0  0  0  0  0  0  0  0  0  0  # atno 10167 bound_to 10162
  156.1385  130.6448  150.9733 H   0  0  0  0  0  0  0  0  0  0  0  0  # atno 10718 bound_to 10713
  154.8389  135.3416  154.6484 H   0  0  0  0  0  0  0  0  0  0  0  0  # atno 10763 bound_to 10752
  153.7097  135.6964  153.5045 H   0  0  0  0  0  0  0  0  0  0  0  0  # atno 10764 bound_to 10752
  153.2461  135.4368  155.0703 H   0  0  0  0  0  0  0  0  0  0  0  0  # atno 10765 bound_to 10752
  139.8772  134.9045  156.4443 H   0  0  0  0  0  0  0  0  0  0  0  0  # atno 11005 bound_to 11000
  145.0177  140.8768  143.5185 LP  0  0  0  0  0  0  0  0  0  0  0  0  # atno 17320 bound_to 7965
  145.1541  139.2497  143.5425 LP  0  0  0  0  0  0  0  0  0  0  0  0  # atno 17321 bound_to 7965
  140.7298  143.2677  151.3990 LP  0  0  0  0  0  0  0  0  0  0  0  0  # atno 17342 bound_to 10162
  139.6071  144.1175  152.2260 LP  0  0  0  0  0  0  0  0  0  0  0  0  # atno 17343 bound_to 10162
  157.6554  131.0890  150.7959 LP  0  0  0  0  0  0  0  0  0  0  0  0  # atno 17370 bound_to 10713
  156.8037  130.4929  149.5366 LP  0  0  0  0  0  0  0  0  0  0  0  0  # atno 17371 bound_to 10713
  140.8977  133.7802  155.9644 LP  0  0  0  0  0  0  0  0  0  0  0  0  # atno 17394 bound_to 11000
  140.8685  134.2755  157.5202 LP  0  0  0  0  0  0  0  0  0  0  0  0  # atno 17395 bound_to 11000

$$$$
