AV-unprocessed.smi:1429|AV-procd|sdf|5819|dock2
  -GOLD-   22720 5473D 1   1.00000     0.00000
 Structure written by MMmdl.
 30 31  0  0  0  0  0  0  0  0  1 V2000
  149.4480  123.8990  151.2949 C   0  0  0  0  0  0  0  0  0  0  0  0
  148.8112  125.2150  151.5850 C   0  0  0  0  0  0  0  0  0  0  0  0
  148.1604  125.4713  152.7265 N   0  0  0  0  0  0  0  0  0  0  0  0
  147.6538  126.7630  152.7644 N   0  0  0  0  0  0  0  0  0  0  0  0
  147.9382  127.4445  151.6460 C   0  0  0  0  0  0  0  0  0  0  0  0
  147.5434  128.7894  151.4190 N   0  0  0  0  0  0  0  0  0  0  0  0
  146.3829  129.3838  151.7472 C   0  0  0  0  0  0  0  0  0  0  0  0
  145.4333  128.8324  152.3039 O   0  0  0  0  0  0  0  0  0  0  0  0
  146.3848  130.6777  151.3953 N   0  0  0  0  0  0  0  0  0  0  0  0
  145.2962  131.6211  151.6325 C   0  0  0  0  0  0  0  0  0  0  0  0
  145.6709  133.0466  151.1861 C   0  0  1  0  0  0  0  0  0  0  0  0
  144.4790  133.9562  150.9688 C   0  0  0  0  0  0  0  0  0  0  0  0
  145.1246  135.3391  150.9969 C   0  0  0  0  0  0  0  0  0  0  0  0
  146.2568  135.2261  151.8548 O   0  0  0  0  0  0  0  0  0  0  0  0
  146.4688  133.8623  152.2052 C   0  0  0  0  0  0  0  0  0  0  0  0
  148.8564  126.5536  150.4443 S   0  0  0  0  0  0  0  0  0  0  0  0
  149.3940  123.2438  152.1650 H   0  0  0  0  0  0  0  0  0  0  0  0
  150.4958  124.0424  151.0310 H   0  0  0  0  0  0  0  0  0  0  0  0
  148.9388  123.4158  150.4609 H   0  0  0  0  0  0  0  0  0  0  0  0
  148.2317  129.3707  150.9642 H   0  0  0  0  0  0  0  0  0  0  0  0
  147.2082  131.0440  150.9402 H   0  0  0  0  0  0  0  0  0  0  0  0
  144.4326  131.2783  151.0624 H   0  0  0  0  0  0  0  0  0  0  0  0
  144.9914  131.6112  152.6806 H   0  0  0  0  0  0  0  0  0  0  0  0
  146.2389  132.9961  150.2553 H   0  0  0  0  0  0  0  0  0  0  0  0
  143.9494  133.7551  150.0373 H   0  0  0  0  0  0  0  0  0  0  0  0
  143.7699  133.8591  151.7923 H   0  0  0  0  0  0  0  0  0  0  0  0
  145.4722  135.6172  150.0013 H   0  0  0  0  0  0  0  0  0  0  0  0
  144.4371  136.1113  151.3434 H   0  0  0  0  0  0  0  0  0  0  0  0
  146.0837  133.7033  153.2136 H   0  0  0  0  0  0  0  0  0  0  0  0
  147.5300  133.6123  152.2052 H   0  0  0  0  0  0  0  0  0  0  0  0
  1  2  1  0  0  0  0
  1 17  1  0  0  0  0
  1 18  1  0  0  0  0
  1 19  1  0  0  0  0
  2 16  1  0  0  0  0
  2  3  2  0  0  0  0
  3  4  1  0  0  0  0
  4  5  2  0  0  0  0
  5  6  1  0  0  0  0
  5 16  1  0  0  0  0
  6  7  1  0  0  0  0
  6 20  1  0  0  0  0
  7  8  2  0  0  0  0
  7  9  1  0  0  0  0
  9 10  1  0  0  0  0
  9 21  1  0  0  0  0
 10 11  1  0  0  0  0
 10 22  1  0  0  0  0
 10 23  1  0  0  0  0
 11 15  1  0  0  0  0
 11 12  1  0  0  0  0
 11 24  1  0  0  0  0
 12 13  1  0  0  0  0
 12 25  1  0  0  0  0
 12 26  1  0  0  0  0
 13 14  1  0  0  0  0
 13 27  1  0  0  0  0
 13 28  1  0  0  0  0
 14 15  1  0  0  0  0
 15 29  1  0  0  0  0
 15 30  1  0  0  0  0
M  END
> <s_m_source_file>
AV-unprocessed.smi

> <i_m_source_file_index>
1429

> <i_lp_mmshare_version>
43012

> <i_f3d_flags>
0

> <s_epik_input>
W0NIM11jMW5uYyhzMSlbTkhdQyg9TylbTkhdW0NIMl1bQ0BASF0yW0NIMl1bQ0gyXU9bQ0gyXTI=

> <s_epik_cmdline>
J2VwaWtfcHl0aG9uJywgJy1waCcsICc3LjAnLCAnLXRuJywgJzgnLCAnLW1hJywgJzIwMCcsICctbWV0YWxfYmluZGluZycsICctaW1hZScsICc8aW5maWxlLm1hZT4nLCAnLW9tYWUnLCAnPG91dGZpbGUubWFlPic=

> <r_lp_tautomer_probability>
1

> <r_epik_Ionization_Penalty>
0.000468089

> <r_epik_Ionization_Penalty_Charging>
0

> <r_epik_Ionization_Penalty_Neutral>
0.000468089

> <r_epik_State_Penalty>
-0

> <r_epik_Charging_Adjusted_Penalty>
0

> <i_epik_Tot_Q>
0

> <i_epik_Tot_abs_Q>
0

> <r_epik_Metal_State_Penalty>
0.211262

> <b_epik_Metal_Only>
0

> <s_lp_Force_Field>
OPLS_2005

> <r_lp_Energy>
17.5985

> <b_lp_Chiralities_Consistent>
1

> <s_lp_Variant>
AV-unprocessed.smi:1429-2

> <Gold.Version>
5.8.1

> <Gold.Id.Protein>
6NUR|6NUR_protein|mol2

> <Gold.PLP.Fitness>
35.9134

> <Gold.PLP.PLP>
-30.9420

> <Gold.PLP.part.hbond>
-3.3894

> <Gold.PLP.part.metal>
0.0000

> <Gold.PLP.part.buried>
-7.5826

> <Gold.PLP.part.nonpolar>
-22.2575

> <Gold.PLP.part.repulsive>
1.5122

> <Gold.PLP.ligand.clash>
0.0000

> <Gold.PLP.ligand.torsion>
0.5173

> <Gold.PLP.Chemscore.Hbond>
2.0000

> <Gold.PLP.Chemscore.CHOScore>
0.0000

> <Gold.PLP.Chemscore.Metal>
0.0000

> <Gold.Chemscore.Hbonds>
donor molecule, donor type, donor heavy atom, donor atom, acceptor molecule, acceptor atom, score
      L1  H     6    20       P1 10747  1.00
      L1  H     9    21       P1 10747  1.00

> <Gold.PLP.Chemscore.Internal.Correction>
0.0060

> <Gold.Rescore>
     Score         DG    S(hbond)    S(metal)    S(lipo)     H(rot)  DE(clash)    DE(int)     intcor
     12.37     -13.04       1.45        0.00      51.85       1.31       0.00       0.67       ----

> <Gold.Chemscore.Fitness>
12.3658

> <Gold.Chemscore.DG>
-13.0393

> <Gold.Chemscore.ZeroCoef>
-5.4800

> <Gold.Chemscore.Hbond>
1.4528

> <Gold.Chemscore.Metal>
0.0000

> <Gold.Chemscore.Lipo>
51.8534

> <Gold.Chemscore.Internal_Hbond>
0.0000

> <Gold.Chemscore.DEClash>
0.0021

> <Gold.Chemscore.DEInternal>
0.6714

> <Gold.Chemscore.Rot>
1.3125

> <Gold.Chemscore.Internal.Correction>
   9.000000E+99

> <Gold.Chemscore.Hbonds>
donor molecule, donor type, donor heavy atom, donor atom, acceptor molecule, acceptor atom, score
      L1  H     6    20       P1 10747  0.30
      L1  H     9    21       P1 10747  0.95

> <Gold.Chemscore.Hbond.Weighted>
-4.8525

> <Gold.Chemscore.Metal.Weighted>
-0.0000

> <Gold.Chemscore.Lipo.Weighted>
-6.0668

> <Gold.Chemscore.Internal_Hbond.Weighted>
0.0000

> <Gold.Chemscore.DEClash.Weighted>
0.0021

> <Gold.Chemscore.DEInternal.Weighted>
0.6714

> <Gold.Chemscore.Rot.Weighted>
3.3600

> <Gold.Chemscore.Internal.Correction.Weighted>
   9.000000E+99

> <Gold.Protein.RotatedTorsions>
[ 6907 6896 6895 6894 ] final   85.31 input  -60.11 | X-H torsion
[ 7974 7965 7964 7962 ] final  -11.87 input  175.53 | X-H torsion
[ 8008 7997 7996 7995 ] final  126.62 input   59.86 | X-H torsion
[ 10167 10162 10161 10158 ] final -131.39 input  -65.29 | X-H torsion
[ 10718 10713 10712 10709 ] final  -67.79 input   66.30 | X-H torsion
[ 10763 10752 10751 10750 ] final  -55.23 input  -60.55 | X-H torsion
[ 11005 11000 10999 10996 ] final  -14.64 input  -57.11 | X-H torsion

> <Gold.Protein.ActiveResidues>
 VAL166  LYS551  ARG553  GLY616  TRP617  ASP618  TYR619  PRO620  LYS621  CYS622 
 ASP623  PHE694  ASN695  SER759  ASP760  ASP761  ALA762  ILE779  LEU786  VAL792 
 PHE793  MET794  SER795  GLU796  ALA797  LYS798  CYS799  TRP800  GLU811  SER814 

> <Gold.Protein.RotatedAtoms>
  152.5372  134.2606  159.8933 H   0  0  0  0  0  0  0  0  0  0  0  0  # atno 6907 bound_to 6896
  151.2566  133.4316  159.2621 H   0  0  0  0  0  0  0  0  0  0  0  0  # atno 6908 bound_to 6896
  151.0491  134.9675  159.8258 H   0  0  0  0  0  0  0  0  0  0  0  0  # atno 6909 bound_to 6896
  146.2172  140.2975  142.8373 H   0  0  0  0  0  0  0  0  0  0  0  0  # atno 7974 bound_to 7965
  156.2869  140.2688  156.2141 H   0  0  0  0  0  0  0  0  0  0  0  0  # atno 8008 bound_to 7997
  155.0234  140.0386  157.2464 H   0  0  0  0  0  0  0  0  0  0  0  0  # atno 8009 bound_to 7997
  154.7416  140.2726  155.6374 H   0  0  0  0  0  0  0  0  0  0  0  0  # atno 8010 bound_to 7997
  139.9194  143.6400  152.2557 H   0  0  0  0  0  0  0  0  0  0  0  0  # atno 10167 bound_to 10162
  156.0539  130.4284  150.1906 H   0  0  0  0  0  0  0  0  0  0  0  0  # atno 10718 bound_to 10713
  154.1875  135.6433  153.5051 H   0  0  0  0  0  0  0  0  0  0  0  0  # atno 10763 bound_to 10752
  153.0043  135.5420  154.6450 H   0  0  0  0  0  0  0  0  0  0  0  0  # atno 10764 bound_to 10752
  154.5830  135.2927  155.0686 H   0  0  0  0  0  0  0  0  0  0  0  0  # atno 10765 bound_to 10752
  140.7885  133.8307  155.9357 H   0  0  0  0  0  0  0  0  0  0  0  0  # atno 11005 bound_to 11000
  144.9082  140.7725  143.5824 LP  0  0  0  0  0  0  0  0  0  0  0  0  # atno 17320 bound_to 7965
  145.2904  139.1886  143.4743 LP  0  0  0  0  0  0  0  0  0  0  0  0  # atno 17321 bound_to 7965
  139.6875  144.7650  151.1498 LP  0  0  0  0  0  0  0  0  0  0  0  0  # atno 17342 bound_to 10162
  140.7666  143.5637  150.9071 LP  0  0  0  0  0  0  0  0  0  0  0  0  # atno 17343 bound_to 10162
  156.9985  130.9915  151.3397 LP  0  0  0  0  0  0  0  0  0  0  0  0  # atno 17370 bound_to 10713
  157.5491  130.8170  149.8122 LP  0  0  0  0  0  0  0  0  0  0  0  0  # atno 17371 bound_to 10713
  140.9413  134.1897  157.4795 LP  0  0  0  0  0  0  0  0  0  0  0  0  # atno 17394 bound_to 11000
  139.8734  134.9873  156.5361 LP  0  0  0  0  0  0  0  0  0  0  0  0  # atno 17395 bound_to 11000

$$$$
