AV-unprocessed.smi:3258|AV-procd|sdf|12471|dock2
  -GOLD-   2272018373D 1   1.00000     0.00000
 Structure written by MMmdl.
 38 39  0  0  0  0  0  0  0  0  1 V2000
  143.9760  137.1219  152.7167 C   0  0  0  0  0  0  0  0  0  0  0  0
  144.9544  135.9691  152.4401 C   0  0  1  0  0  0  0  0  0  0  0  0
  144.9858  135.5431  150.9515 C   0  0  0  0  0  0  0  0  0  0  0  0
  145.1078  134.1074  150.7543 N   0  0  0  0  0  0  0  0  0  0  0  0
  144.1941  133.2364  150.1987 C   0  0  0  0  0  0  0  0  0  0  0  0
  144.7489  131.9891  150.2313 C   0  0  0  0  0  0  0  0  0  0  0  0
  146.0185  132.1997  150.8384 C   0  0  0  0  0  0  0  0  0  0  0  0
  146.2296  133.4674  151.1516 N   0  0  0  0  0  0  0  0  0  0  0  0
  146.2836  136.3404  152.9211 N   0  0  0  0  0  0  0  0  0  0  0  0
  146.5609  136.8356  154.1350 C   0  0  0  0  0  0  0  0  0  0  0  0
  145.7105  137.0857  154.9895 O   0  0  0  0  0  0  0  0  0  0  0  0
  147.8791  137.0004  154.3122 N   0  0  0  0  0  0  0  0  0  0  0  0
  148.5147  137.4448  155.5480 C   0  0  0  0  0  0  0  0  0  0  0  0
  149.1474  138.8400  155.3893 C   0  0  1  0  0  0  0  0  0  0  0  0
  149.8606  139.3350  156.6307 C   0  0  0  0  0  0  0  0  0  0  0  0
  150.7362  140.4514  156.0690 C   0  0  0  0  0  0  0  0  0  0  0  0
  151.0421  140.0725  154.7297 O   0  0  0  0  0  0  0  0  0  0  0  0
  150.2708  138.9352  154.3550 C   0  0  0  0  0  0  0  0  0  0  0  0
  142.9726  136.8746  152.3694 H   0  0  0  0  0  0  0  0  0  0  0  0
  144.2832  138.0428  152.2201 H   0  0  0  0  0  0  0  0  0  0  0  0
  143.9113  137.3307  153.7851 H   0  0  0  0  0  0  0  0  0  0  0  0
  144.6166  135.1111  153.0239 H   0  0  0  0  0  0  0  0  0  0  0  0
  144.0952  135.8934  150.4275 H   0  0  0  0  0  0  0  0  0  0  0  0
  145.8305  136.0220  150.4552 H   0  0  0  0  0  0  0  0  0  0  0  0
  143.2372  133.5737  149.8282 H   0  0  0  0  0  0  0  0  0  0  0  0
  144.3137  131.0664  149.8778 H   0  0  0  0  0  0  0  0  0  0  0  0
  146.7871  131.4742  151.0601 H   0  0  0  0  0  0  0  0  0  0  0  0
  147.0557  136.1662  152.2946 H   0  0  0  0  0  0  0  0  0  0  0  0
  148.4929  136.7639  153.5463 H   0  0  0  0  0  0  0  0  0  0  0  0
  147.7475  137.4796  156.3217 H   0  0  0  0  0  0  0  0  0  0  0  0
  149.2574  136.7207  155.8880 H   0  0  0  0  0  0  0  0  0  0  0  0
  148.3711  139.5615  155.1281 H   0  0  0  0  0  0  0  0  0  0  0  0
  149.1797  139.6812  157.4088 H   0  0  0  0  0  0  0  0  0  0  0  0
  150.4865  138.5461  157.0505 H   0  0  0  0  0  0  0  0  0  0  0  0
  150.1844  141.3919  156.0446 H   0  0  0  0  0  0  0  0  0  0  0  0
  151.6413  140.6053  156.6569 H   0  0  0  0  0  0  0  0  0  0  0  0
  150.9134  138.0547  154.4006 H   0  0  0  0  0  0  0  0  0  0  0  0
  149.8965  139.0277  153.3351 H   0  0  0  0  0  0  0  0  0  0  0  0
  1  2  1  0  0  0  0
  1 19  1  0  0  0  0
  1 20  1  0  0  0  0
  1 21  1  0  0  0  0
  2  3  1  0  0  0  0
  2  9  1  0  0  0  0
  2 22  1  0  0  0  0
  3  4  1  0  0  0  0
  3 23  1  0  0  0  0
  3 24  1  0  0  0  0
  4  8  1  0  0  0  0
  4  5  1  0  0  0  0
  5  6  2  0  0  0  0
  5 25  1  0  0  0  0
  6  7  1  0  0  0  0
  6 26  1  0  0  0  0
  7  8  2  0  0  0  0
  7 27  1  0  0  0  0
  9 10  1  0  0  0  0
  9 28  1  0  0  0  0
 10 11  2  0  0  0  0
 10 12  1  0  0  0  0
 12 13  1  0  0  0  0
 12 29  1  0  0  0  0
 13 14  1  0  0  0  0
 13 30  1  0  0  0  0
 13 31  1  0  0  0  0
 14 18  1  0  0  0  0
 14 15  1  0  0  0  0
 14 32  1  0  0  0  0
 15 16  1  0  0  0  0
 15 33  1  0  0  0  0
 15 34  1  0  0  0  0
 16 17  1  0  0  0  0
 16 35  1  0  0  0  0
 16 36  1  0  0  0  0
 17 18  1  0  0  0  0
 18 37  1  0  0  0  0
 18 38  1  0  0  0  0
M  END
> <s_m_source_file>
AV-unprocessed.smi

> <i_m_source_file_index>
3258

> <i_lp_mmshare_version>
43012

> <i_f3d_flags>
0

> <s_epik_input>
bjFbY0hdW2NIXVtjSF1uMVtDSDJdW0NAQEhdKFtDSDNdKVtOSF1DKD1PKVtOSF1bQ0gyXVtDQEBIXTJbQ0gyXVtDSDJdT1tDSDJdMg==

> <s_epik_cmdline>
J2VwaWtfcHl0aG9uJywgJy1waCcsICc3LjAnLCAnLXRuJywgJzgnLCAnLW1hJywgJzIwMCcsICctbWV0YWxfYmluZGluZycsICctaW1hZScsICc8aW5maWxlLm1hZT4nLCAnLW9tYWUnLCAnPG91dGZpbGUubWFlPic=

> <r_lp_tautomer_probability>
1

> <r_epik_Ionization_Penalty>
6.85079e-05

> <r_epik_Ionization_Penalty_Charging>
0

> <r_epik_Ionization_Penalty_Neutral>
6.85079e-05

> <r_epik_State_Penalty>
-0

> <r_epik_Charging_Adjusted_Penalty>
0

> <i_epik_Tot_Q>
0

> <i_epik_Tot_abs_Q>
0

> <r_epik_Metal_State_Penalty>
-0

> <b_epik_Metal_Only>
0

> <s_lp_Force_Field>
OPLS_2005

> <r_lp_Energy>
16.3591

> <b_lp_Chiralities_Consistent>
1

> <s_lp_Variant>
AV-unprocessed.smi:3258-4

> <Gold.Version>
5.8.1

> <Gold.Id.Protein>
6NUR|6NUR_protein|mol2

> <Gold.PLP.Fitness>
42.5722

> <Gold.PLP.PLP>
-28.7718

> <Gold.PLP.part.hbond>
-3.0000

> <Gold.PLP.part.metal>
0.0000

> <Gold.PLP.part.buried>
-5.1076

> <Gold.PLP.part.nonpolar>
-21.7659

> <Gold.PLP.part.repulsive>
0.2943

> <Gold.PLP.ligand.clash>
0.0000

> <Gold.PLP.ligand.torsion>
0.6203

> <Gold.PLP.Chemscore.Hbond>
3.0000

> <Gold.PLP.Chemscore.CHOScore>
2.0000

> <Gold.PLP.Chemscore.Metal>
0.0000

> <Gold.Chemscore.Hbonds>
donor molecule, donor type, donor heavy atom, donor atom, acceptor molecule, acceptor atom, score
      L1  H     9    28       P1  7948  1.00
      L1  H    12    29       P1  7948  1.00
      P1  H  7989  7998       L1    17  1.00
      L1  C     5    25       P1 10186  1.00
      L1  C     7    27       P1 10747  1.00

> <Gold.PLP.Chemscore.Internal.Correction>
0.0410

> <Gold.Rescore>
     Score         DG    S(hbond)    S(metal)    S(lipo)     H(rot)  DE(clash)    DE(int)     intcor
     16.02     -17.97       2.86        0.00      66.00       1.87       0.02       1.93       ----

> <Gold.Chemscore.Fitness>
16.0187

> <Gold.Chemscore.DG>
-17.9679

> <Gold.Chemscore.ZeroCoef>
-5.4800

> <Gold.Chemscore.Hbond>
2.8619

> <Gold.Chemscore.Metal>
0.0000

> <Gold.Chemscore.Lipo>
66.0039

> <Gold.Chemscore.Internal_Hbond>
0.0000

> <Gold.Chemscore.DEClash>
0.0234

> <Gold.Chemscore.DEInternal>
1.9258

> <Gold.Chemscore.Rot>
1.8724

> <Gold.Chemscore.Internal.Correction>
   9.000000E+99

> <Gold.Chemscore.Hbonds>
donor molecule, donor type, donor heavy atom, donor atom, acceptor molecule, acceptor atom, score
      L1  H     9    28       P1  7948  0.96
      L1  H    12    29       P1  7948  0.99
      P1  H  7989  7998       L1    17  0.86

> <Gold.Chemscore.Hbond.Weighted>
-9.5587

> <Gold.Chemscore.Metal.Weighted>
-0.0000

> <Gold.Chemscore.Lipo.Weighted>
-7.7225

> <Gold.Chemscore.Internal_Hbond.Weighted>
0.0000

> <Gold.Chemscore.DEClash.Weighted>
0.0234

> <Gold.Chemscore.DEInternal.Weighted>
1.9258

> <Gold.Chemscore.Rot.Weighted>
4.7933

> <Gold.Chemscore.Internal.Correction.Weighted>
   9.000000E+99

> <Gold.Protein.RotatedTorsions>
[ 6907 6896 6895 6894 ] final -132.00 input  -60.11 | X-H torsion
[ 7974 7965 7964 7962 ] final  -38.91 input  175.53 | X-H torsion
[ 8008 7997 7996 7995 ] final  145.16 input   59.86 | X-H torsion
[ 10167 10162 10161 10158 ] final  177.14 input  -65.29 | X-H torsion
[ 10718 10713 10712 10709 ] final  -79.58 input   66.30 | X-H torsion
[ 10763 10752 10751 10750 ] final   73.66 input  -60.55 | X-H torsion
[ 11005 11000 10999 10996 ] final -179.75 input  -57.11 | X-H torsion

> <Gold.Protein.ActiveResidues>
 VAL166  LYS551  ARG553  GLY616  TRP617  ASP618  TYR619  PRO620  LYS621  CYS622 
 ASP623  PHE694  ASN695  SER759  ASP760  ASP761  ALA762  ILE779  LEU786  VAL792 
 PHE793  MET794  SER795  GLU796  ALA797  LYS798  CYS799  TRP800  GLU811  SER814 

> <Gold.Protein.RotatedAtoms>
  150.9574  133.6482  159.2760 H   0  0  0  0  0  0  0  0  0  0  0  0  # atno 6907 bound_to 6896
  151.3817  135.0940  159.9508 H   0  0  0  0  0  0  0  0  0  0  0  0  # atno 6908 bound_to 6896
  152.5134  133.9107  159.7541 H   0  0  0  0  0  0  0  0  0  0  0  0  # atno 6909 bound_to 6896
  146.0444  140.6566  142.9072 H   0  0  0  0  0  0  0  0  0  0  0  0  # atno 7974 bound_to 7965
  156.2890  140.2216  156.5171 H   0  0  0  0  0  0  0  0  0  0  0  0  # atno 8008 bound_to 7997
  154.7560  140.0477  157.0955 H   0  0  0  0  0  0  0  0  0  0  0  0  # atno 8009 bound_to 7997
  155.0050  140.3106  155.4855 H   0  0  0  0  0  0  0  0  0  0  0  0  # atno 8010 bound_to 7997
  139.5241  144.2833  152.0527 H   0  0  0  0  0  0  0  0  0  0  0  0  # atno 10167 bound_to 10162
  156.0089  130.4550  150.3670 H   0  0  0  0  0  0  0  0  0  0  0  0  # atno 10718 bound_to 10713
  153.0536  135.5054  154.7927 H   0  0  0  0  0  0  0  0  0  0  0  0  # atno 10763 bound_to 10752
  154.6770  135.2962  154.9667 H   0  0  0  0  0  0  0  0  0  0  0  0  # atno 10764 bound_to 10752
  154.0466  135.6709  153.4848 H   0  0  0  0  0  0  0  0  0  0  0  0  # atno 10765 bound_to 10752
  140.4151  134.6656  157.4635 H   0  0  0  0  0  0  0  0  0  0  0  0  # atno 11005 bound_to 11000
  144.7090  140.3966  143.7095 LP  0  0  0  0  0  0  0  0  0  0  0  0  # atno 17320 bound_to 7965
  145.6831  139.1623  143.2689 LP  0  0  0  0  0  0  0  0  0  0  0  0  # atno 17321 bound_to 7965
  140.2288  144.4390  150.6309 LP  0  0  0  0  0  0  0  0  0  0  0  0  # atno 17342 bound_to 10162
  140.6369  143.2196  151.6374 LP  0  0  0  0  0  0  0  0  0  0  0  0  # atno 17343 bound_to 10162
  157.1756  131.0379  151.2774 LP  0  0  0  0  0  0  0  0  0  0  0  0  # atno 17370 bound_to 10713
  157.4190  130.7427  149.6898 LP  0  0  0  0  0  0  0  0  0  0  0  0  # atno 17371 bound_to 10713
  140.0239  134.6506  155.9200 LP  0  0  0  0  0  0  0  0  0  0  0  0  # atno 17394 bound_to 11000
  141.1806  133.6546  156.5004 LP  0  0  0  0  0  0  0  0  0  0  0  0  # atno 17395 bound_to 11000

$$$$
