AV-unprocessed.smi:2767|AV-procd|sdf|10647|dock10
  -GOLD-   2272015 93D 1   1.00000     0.00000
 Structure written by MMmdl.
 34 36  0  0  0  0  0  0  0  0  1 V2000
  150.6064  140.7217  156.8793 O   0  0  0  0  0  0  0  0  0  0  0  0
  150.2957  141.8778  156.5912 C   0  0  0  0  0  0  0  0  0  0  0  0
  149.6188  142.2067  155.4818 N   0  0  0  0  0  0  0  0  0  0  0  0
  149.1252  141.2553  154.4927 C   0  0  0  0  0  0  0  0  0  0  0  0
  147.6137  141.2257  154.3010 C   0  0  0  0  0  0  0  0  0  0  0  0
  146.9189  142.5754  154.4634 C   0  0  0  0  0  0  0  0  0  0  0  0
  146.1920  142.9025  155.7472 C   0  0  0  0  0  0  0  0  0  0  0  0
  145.4162  142.7684  154.4586 C   0  0  0  0  0  0  0  0  0  0  0  0
  147.0752  140.3139  153.2162 C   0  0  0  0  0  0  0  0  0  0  0  0
  146.8968  139.9334  154.6608 C   0  0  0  0  0  0  0  0  0  0  0  0
  150.5734  142.9656  157.3314 N   0  0  0  0  0  0  0  0  0  0  0  0
  151.2363  143.0284  158.5860 C   0  0  0  0  0  0  0  0  0  0  0  0
  151.1165  144.2626  159.2645 C   0  0  0  0  0  0  0  0  0  0  0  0
  151.7351  144.4270  160.5192 C   0  0  0  0  0  0  0  0  0  0  0  0
  152.4586  143.3503  161.0620 C   0  0  0  0  0  0  0  0  0  0  0  0
  153.0706  143.4614  162.2649 F   0  0  0  0  0  0  0  0  0  0  0  0
  152.5297  142.1551  160.3227 C   0  0  0  0  0  0  0  0  0  0  0  0
  151.9370  141.9963  159.1202 N   0  0  0  0  0  0  0  0  0  0  0  0
  149.4067  143.1805  155.3219 H   0  0  0  0  0  0  0  0  0  0  0  0
  149.5799  141.5174  153.5371 H   0  0  0  0  0  0  0  0  0  0  0  0
  149.4917  140.2557  154.7333 H   0  0  0  0  0  0  0  0  0  0  0  0
  147.4714  143.4031  154.0224 H   0  0  0  0  0  0  0  0  0  0  0  0
  146.0826  142.1080  156.4830 H   0  0  0  0  0  0  0  0  0  0  0  0
  146.3262  143.9014  156.1569 H   0  0  0  0  0  0  0  0  0  0  0  0
  145.0328  143.6837  154.0130 H   0  0  0  0  0  0  0  0  0  0  0  0
  144.7687  141.9024  154.3497 H   0  0  0  0  0  0  0  0  0  0  0  0
  146.1894  140.6368  152.6730 H   0  0  0  0  0  0  0  0  0  0  0  0
  147.7919  139.7395  152.6324 H   0  0  0  0  0  0  0  0  0  0  0  0
  147.4984  139.1067  155.0336 H   0  0  0  0  0  0  0  0  0  0  0  0
  145.8943  139.9831  155.0767 H   0  0  0  0  0  0  0  0  0  0  0  0
  150.2586  143.8506  156.9619 H   0  0  0  0  0  0  0  0  0  0  0  0
  150.5563  145.0787  158.8316 H   0  0  0  0  0  0  0  0  0  0  0  0
  151.6551  145.3617  161.0541 H   0  0  0  0  0  0  0  0  0  0  0  0
  153.0756  141.3052  160.7047 H   0  0  0  0  0  0  0  0  0  0  0  0
  1  2  2  0  0  0  0
  2  3  1  0  0  0  0
  2 11  1  0  0  0  0
  3  4  1  0  0  0  0
  3 19  1  0  0  0  0
  4  5  1  0  0  0  0
  4 20  1  0  0  0  0
  4 21  1  0  0  0  0
  5 10  1  0  0  0  0
  5  6  1  0  0  0  0
  5  9  1  0  0  0  0
  6  8  1  0  0  0  0
  6  7  1  0  0  0  0
  6 22  1  0  0  0  0
  7  8  1  0  0  0  0
  7 23  1  0  0  0  0
  7 24  1  0  0  0  0
  8 25  1  0  0  0  0
  8 26  1  0  0  0  0
  9 10  1  0  0  0  0
  9 27  1  0  0  0  0
  9 28  1  0  0  0  0
 10 29  1  0  0  0  0
 10 30  1  0  0  0  0
 11 12  1  0  0  0  0
 11 31  1  0  0  0  0
 12 18  1  0  0  0  0
 12 13  2  0  0  0  0
 13 14  1  0  0  0  0
 13 32  1  0  0  0  0
 14 15  2  0  0  0  0
 14 33  1  0  0  0  0
 15 16  1  0  0  0  0
 15 17  1  0  0  0  0
 17 18  2  0  0  0  0
 17 34  1  0  0  0  0
M  END
> <s_m_source_file>
AV-unprocessed.smi

> <i_m_source_file_index>
2767

> <i_lp_mmshare_version>
43012

> <i_f3d_flags>
0

> <s_epik_input>
W0NIMl0xW0NIMl1bQ0hdMUMyKFtDSDJdW0NIMl0yKVtDSDJdW05IXUMoPU8pW05IXWMzW2NIXVtjSF1jKEYpW2NIXW4z

> <s_epik_cmdline>
J2VwaWtfcHl0aG9uJywgJy1waCcsICc3LjAnLCAnLXRuJywgJzgnLCAnLW1hJywgJzIwMCcsICctbWV0YWxfYmluZGluZycsICctaW1hZScsICc8aW5maWxlLm1hZT4nLCAnLW9tYWUnLCAnPG91dGZpbGUubWFlPic=

> <r_lp_tautomer_probability>
1

> <r_epik_Ionization_Penalty>
3.94364e-05

> <r_epik_Ionization_Penalty_Charging>
0

> <r_epik_Ionization_Penalty_Neutral>
3.94364e-05

> <r_epik_State_Penalty>
-0

> <r_epik_Charging_Adjusted_Penalty>
0

> <i_epik_Tot_Q>
0

> <i_epik_Tot_abs_Q>
0

> <r_epik_Metal_State_Penalty>
-0

> <b_epik_Metal_Only>
0

> <s_lp_Force_Field>
OPLS_2005

> <r_lp_Energy>
31.6765

> <b_lp_Chiralities_Consistent>
1

> <s_lp_Variant>
AV-unprocessed.smi:2767-1

> <Gold.Version>
5.8.1

> <Gold.Id.Protein>
6NUR|6NUR_protein|mol2

> <Gold.PLP.Fitness>
46.0985

> <Gold.PLP.PLP>
-41.1007

> <Gold.PLP.part.hbond>
-2.0000

> <Gold.PLP.part.metal>
0.0000

> <Gold.PLP.part.buried>
-3.6129

> <Gold.PLP.part.nonpolar>
-35.1628

> <Gold.PLP.part.repulsive>
0.2246

> <Gold.PLP.ligand.clash>
0.0000

> <Gold.PLP.ligand.torsion>
1.5827

> <Gold.PLP.Chemscore.Hbond>
1.8800

> <Gold.PLP.Chemscore.CHOScore>
0.0000

> <Gold.PLP.Chemscore.Metal>
0.0000

> <Gold.Chemscore.Hbonds>
donor molecule, donor type, donor heavy atom, donor atom, acceptor molecule, acceptor atom, score
      L1  H     3    19       P1  8028  1.00
      L1  H    11    31       P1  8028  0.82

> <Gold.PLP.Chemscore.Internal.Correction>
2.5232

> <Gold.Rescore>
     Score         DG    S(hbond)    S(metal)    S(lipo)     H(rot)  DE(clash)    DE(int)     intcor
     14.66     -17.98       1.93        0.00      83.61       1.46       0.65       2.67       ----

> <Gold.Chemscore.Fitness>
14.6637

> <Gold.Chemscore.DG>
-17.9758

> <Gold.Chemscore.ZeroCoef>
-5.4800

> <Gold.Chemscore.Hbond>
1.9322

> <Gold.Chemscore.Metal>
0.0000

> <Gold.Chemscore.Lipo>
83.6064

> <Gold.Chemscore.Internal_Hbond>
0.0000

> <Gold.Chemscore.DEClash>
0.6469

> <Gold.Chemscore.DEInternal>
2.6651

> <Gold.Chemscore.Rot>
1.4608

> <Gold.Chemscore.Internal.Correction>
   9.000000E+99

> <Gold.Chemscore.Hbonds>
donor molecule, donor type, donor heavy atom, donor atom, acceptor molecule, acceptor atom, score
      L1  H     3    19       P1  8028  0.99
      L1  H    11    31       P1  8028  0.75

> <Gold.Chemscore.Hbond.Weighted>
-6.4534

> <Gold.Chemscore.Metal.Weighted>
-0.0000

> <Gold.Chemscore.Lipo.Weighted>
-9.7820

> <Gold.Chemscore.Internal_Hbond.Weighted>
0.0000

> <Gold.Chemscore.DEClash.Weighted>
0.6469

> <Gold.Chemscore.DEInternal.Weighted>
2.6651

> <Gold.Chemscore.Rot.Weighted>
3.7396

> <Gold.Chemscore.Internal.Correction.Weighted>
   9.000000E+99

> <Gold.Protein.RotatedTorsions>
[ 6907 6896 6895 6894 ] final  -93.62 input  -60.11 | X-H torsion
[ 7974 7965 7964 7962 ] final -108.29 input  175.53 | X-H torsion
[ 8008 7997 7996 7995 ] final    2.90 input   59.86 | X-H torsion
[ 10167 10162 10161 10158 ] final  129.94 input  -65.29 | X-H torsion
[ 10718 10713 10712 10709 ] final  -79.13 input   66.30 | X-H torsion
[ 10763 10752 10751 10750 ] final  126.70 input  -60.55 | X-H torsion
[ 11005 11000 10999 10996 ] final  131.00 input  -57.11 | X-H torsion

> <Gold.Protein.ActiveResidues>
 VAL166  LYS551  ARG553  GLY616  TRP617  ASP618  TYR619  PRO620  LYS621  CYS622 
 ASP623  PHE694  ASN695  SER759  ASP760  ASP761  ALA762  ILE779  LEU786  VAL792 
 PHE793  MET794  SER795  GLU796  ALA797  LYS798  CYS799  TRP800  GLU811  SER814 

> <Gold.Protein.RotatedAtoms>
  150.6926  134.1939  159.4295 H   0  0  0  0  0  0  0  0  0  0  0  0  # atno 6907 bound_to 6896
  151.9908  134.9977  160.0570 H   0  0  0  0  0  0  0  0  0  0  0  0  # atno 6908 bound_to 6896
  152.1669  133.4583  159.4926 H   0  0  0  0  0  0  0  0  0  0  0  0  # atno 6909 bound_to 6896
  145.1947  140.9030  143.3404 H   0  0  0  0  0  0  0  0  0  0  0  0  # atno 7974 bound_to 7965
  154.6972  140.2665  155.6754 H   0  0  0  0  0  0  0  0  0  0  0  0  # atno 8008 bound_to 7997
  156.2752  140.2779  156.1494 H   0  0  0  0  0  0  0  0  0  0  0  0  # atno 8009 bound_to 7997
  155.0814  140.0372  157.2630 H   0  0  0  0  0  0  0  0  0  0  0  0  # atno 8010 bound_to 7997
  139.5454  144.6768  151.4491 H   0  0  0  0  0  0  0  0  0  0  0  0  # atno 10167 bound_to 10162
  156.0100  130.4537  150.3601 H   0  0  0  0  0  0  0  0  0  0  0  0  # atno 10718 bound_to 10713
  153.6976  135.3288  155.3217 H   0  0  0  0  0  0  0  0  0  0  0  0  # atno 10763 bound_to 10752
  154.8422  135.4446  154.1444 H   0  0  0  0  0  0  0  0  0  0  0  0  # atno 10764 bound_to 10752
  153.2502  135.6980  153.7765 H   0  0  0  0  0  0  0  0  0  0  0  0  # atno 10765 bound_to 10752
  139.9704  134.9579  156.9375 H   0  0  0  0  0  0  0  0  0  0  0  0  # atno 11005 bound_to 11000
  145.0007  139.3601  143.6169 LP  0  0  0  0  0  0  0  0  0  0  0  0  # atno 17320 bound_to 7965
  146.3429  139.9228  142.8764 LP  0  0  0  0  0  0  0  0  0  0  0  0  # atno 17321 bound_to 7965
  140.6700  143.8315  150.6987 LP  0  0  0  0  0  0  0  0  0  0  0  0  # atno 17342 bound_to 10162
  140.1736  143.4173  152.1983 LP  0  0  0  0  0  0  0  0  0  0  0  0  # atno 17343 bound_to 10162
  157.1690  131.0364  151.2804 LP  0  0  0  0  0  0  0  0  0  0  0  0  # atno 17370 bound_to 10713
  157.4245  130.7456  149.6940 LP  0  0  0  0  0  0  0  0  0  0  0  0  # atno 17371 bound_to 10713
  140.5305  134.0818  155.7314 LP  0  0  0  0  0  0  0  0  0  0  0  0  # atno 17394 bound_to 11000
  141.1384  133.9181  157.2382 LP  0  0  0  0  0  0  0  0  0  0  0  0  # atno 17395 bound_to 11000

$$$$
