AV-unprocessed.smi:1901|AV-procd|sdf|7718|dock1
  -GOLD-   22720 9453D 1   1.00000     0.00000
 Structure written by MMmdl.
 27 28  0  0  0  0  0  0  0  0  2 V2000
  153.8246  139.6041  158.4496 O   0  0  0  0  0  0  0  0  0  0  0  0
  153.1060  140.3180  157.7469 C   0  0  0  0  0  0  0  0  0  0  0  0
  153.0171  141.6273  158.0170 N   0  0  0  0  0  0  0  0  0  0  0  0
  153.7153  142.3132  159.0976 C   0  0  0  0  0  0  0  0  0  0  0  0
  153.2278  143.7650  159.2342 C   0  0  2  0  0  0  0  0  0  0  0  0
  153.1050  144.2621  160.6613 C   0  0  0  0  0  0  0  0  0  0  0  0
  152.1809  145.4650  160.4968 C   0  0  0  0  0  0  0  0  0  0  0  0
  151.3358  145.1605  159.3904 O   0  0  0  0  0  0  0  0  0  0  0  0
  151.8062  143.9934  158.7221 C   0  0  0  0  0  0  0  0  0  0  0  0
  152.3533  139.9408  156.6819 N   0  5  0  0  0  0  0  0  0  0  0  0
  151.0033  139.9768  156.6260 C   0  0  0  0  0  0  0  0  0  0  0  0
  150.1912  140.8322  157.2690 N   0  0  0  0  0  0  0  0  0  0  0  0
  148.8346  140.6290  157.0155 C   0  0  0  0  0  0  0  0  0  0  0  0
  148.5959  139.5920  156.1553 C   0  0  0  0  0  0  0  0  0  0  0  0
  150.0778  138.8398  155.6408 S   0  0  0  0  0  0  0  0  0  0  0  0
  152.4209  142.1869  157.4254 H   0  0  0  0  0  0  0  0  0  0  0  0
  153.5446  141.7766  160.0319 H   0  0  0  0  0  0  0  0  0  0  0  0
  154.7894  142.2900  158.9066 H   0  0  0  0  0  0  0  0  0  0  0  0
  153.9033  144.4276  158.6900 H   0  0  0  0  0  0  0  0  0  0  0  0
  152.6286  143.5062  161.2877 H   0  0  0  0  0  0  0  0  0  0  0  0
  154.0634  144.5232  161.1109 H   0  0  0  0  0  0  0  0  0  0  0  0
  151.6013  145.6709  161.3969 H   0  0  0  0  0  0  0  0  0  0  0  0
  152.7590  146.3574  160.2544 H   0  0  0  0  0  0  0  0  0  0  0  0
  151.7665  144.1114  157.6390 H   0  0  0  0  0  0  0  0  0  0  0  0
  151.1584  143.1591  158.9946 H   0  0  0  0  0  0  0  0  0  0  0  0
  148.1078  141.2708  157.4904 H   0  0  0  0  0  0  0  0  0  0  0  0
  147.6467  139.2260  155.7947 H   0  0  0  0  0  0  0  0  0  0  0  0
  1  2  2  0  0  0  0
  2  3  1  0  0  0  0
  2 10  1  0  0  0  0
  3  4  1  0  0  0  0
  3 16  1  0  0  0  0
  4  5  1  0  0  0  0
  4 17  1  0  0  0  0
  4 18  1  0  0  0  0
  5  9  1  0  0  0  0
  5  6  1  0  0  0  0
  5 19  1  0  0  0  0
  6  7  1  0  0  0  0
  6 20  1  0  0  0  0
  6 21  1  0  0  0  0
  7  8  1  0  0  0  0
  7 22  1  0  0  0  0
  7 23  1  0  0  0  0
  8  9  1  0  0  0  0
  9 24  1  0  0  0  0
  9 25  1  0  0  0  0
 10 11  1  0  0  0  0
 11 15  1  0  0  0  0
 11 12  2  0  0  0  0
 12 13  1  0  0  0  0
 13 14  2  0  0  0  0
 13 26  1  0  0  0  0
 14 15  1  0  0  0  0
 14 27  1  0  0  0  0
M  CHG  1  10  -1
M  END
> <s_m_source_file>
AV-unprocessed.smi

> <i_m_source_file_index>
1901

> <i_lp_mmshare_version>
43012

> <i_f3d_flags>
0

> <s_epik_input>
czFbY0hdW2NIXW5jMVtOSF1DKD1PKVtOSF1bQ0gyXVtDQEBIXTJbQ0gyXVtDSDJdT1tDSDJdMg==

> <s_epik_cmdline>
J2VwaWtfcHl0aG9uJywgJy1waCcsICc3LjAnLCAnLXRuJywgJzgnLCAnLW1hJywgJzIwMCcsICctbWV0YWxfYmluZGluZycsICctaW1hZScsICc8aW5maWxlLm1hZT4nLCAnLW9tYWUnLCAnPG91dGZpbGUubWFlPic=

> <r_lp_tautomer_probability>
0.999

> <r_epik_Ionization_Penalty>
8.4411

> <r_epik_Ionization_Penalty_Charging>
6.72681

> <r_epik_Ionization_Penalty_Neutral>
1.71429

> <r_epik_State_Penalty>
6.72698

> <r_epik_Charging_Adjusted_Penalty>
13.4538

> <i_epik_Tot_Q>
-1

> <i_epik_Tot_abs_Q>
1

> <r_epik_Metal_State_Penalty>
2.64812

> <b_epik_Metal_Only>
1

> <s_lp_Force_Field>
OPLS_2005

> <r_lp_Energy>
18.4833

> <b_lp_Chiralities_Consistent>
1

> <s_lp_Variant>
AV-unprocessed.smi:1901-3

> <Gold.Version>
5.8.1

> <Gold.Id.Protein>
6NUR|6NUR_protein|mol2

> <Gold.PLP.Fitness>
44.3224

> <Gold.PLP.PLP>
-34.9756

> <Gold.PLP.part.hbond>
-1.3820

> <Gold.PLP.part.metal>
0.0000

> <Gold.PLP.part.buried>
-1.9356

> <Gold.PLP.part.nonpolar>
-31.2089

> <Gold.PLP.part.repulsive>
0.2456

> <Gold.PLP.ligand.clash>
0.0038

> <Gold.PLP.ligand.torsion>
1.3363

> <Gold.PLP.Chemscore.Hbond>
2.0000

> <Gold.PLP.Chemscore.CHOScore>
2.0000

> <Gold.PLP.Chemscore.Metal>
0.0000

> <Gold.PLP.Chemscore.Internal.Correction>
0.0231

> <Gold.Rescore>
     Score         DG    S(hbond)    S(metal)    S(lipo)     H(rot)  DE(clash)    DE(int)     intcor
     12.77     -13.97       0.71        0.00      80.71       1.30       0.10       1.10       ----

> <Gold.Chemscore.Fitness>
12.7676

> <Gold.Chemscore.DG>
-13.9689

> <Gold.Chemscore.ZeroCoef>
-5.4800

> <Gold.Chemscore.Hbond>
0.7107

> <Gold.Chemscore.Metal>
0.0000

> <Gold.Chemscore.Lipo>
80.7117

> <Gold.Chemscore.Internal_Hbond>
0.0000

> <Gold.Chemscore.DEClash>
0.1028

> <Gold.Chemscore.DEInternal>
1.0985

> <Gold.Chemscore.Rot>
1.3000

> <Gold.Chemscore.Internal.Correction>
   9.000000E+99

> <Gold.Chemscore.Hbond.Weighted>
-2.3737

> <Gold.Chemscore.Metal.Weighted>
-0.0000

> <Gold.Chemscore.Lipo.Weighted>
-9.4433

> <Gold.Chemscore.Internal_Hbond.Weighted>
0.0000

> <Gold.Chemscore.DEClash.Weighted>
0.1028

> <Gold.Chemscore.DEInternal.Weighted>
1.0985

> <Gold.Chemscore.Rot.Weighted>
3.3280

> <Gold.Chemscore.Internal.Correction.Weighted>
   9.000000E+99

> <Gold.Protein.RotatedTorsions>
[ 6907 6896 6895 6894 ] final   87.94 input  -60.11 | X-H torsion
[ 7974 7965 7964 7962 ] final -114.70 input  175.53 | X-H torsion
[ 8008 7997 7996 7995 ] final   69.77 input   59.86 | X-H torsion
[ 10167 10162 10161 10158 ] final -167.58 input  -65.29 | X-H torsion
[ 10718 10713 10712 10709 ] final  139.93 input   66.30 | X-H torsion
[ 10763 10752 10751 10750 ] final   31.87 input  -60.55 | X-H torsion
[ 11005 11000 10999 10996 ] final -142.50 input  -57.11 | X-H torsion

> <Gold.Protein.ActiveResidues>
 VAL166  LYS551  ARG553  GLY616  TRP617  ASP618  TYR619  PRO620  LYS621  CYS622 
 ASP623  PHE694  ASN695  SER759  ASP760  ASP761  ALA762  ILE779  LEU786  VAL792 
 PHE793  MET794  SER795  GLU796  ALA797  LYS798  CYS799  TRP800  GLU811  SER814 

> <Gold.Protein.RotatedAtoms>
  152.5418  134.2198  159.8782 H   0  0  0  0  0  0  0  0  0  0  0  0  # atno 6907 bound_to 6896
  151.2176  133.4514  159.2607 H   0  0  0  0  0  0  0  0  0  0  0  0  # atno 6908 bound_to 6896
  151.0836  134.9886  159.8424 H   0  0  0  0  0  0  0  0  0  0  0  0  # atno 6909 bound_to 6896
  145.1170  140.8646  143.3836 H   0  0  0  0  0  0  0  0  0  0  0  0  # atno 7974 bound_to 7965
  155.7286  140.3492  155.5049 H   0  0  0  0  0  0  0  0  0  0  0  0  # atno 8008 bound_to 7997
  155.9203  140.1066  157.1233 H   0  0  0  0  0  0  0  0  0  0  0  0  # atno 8009 bound_to 7997
  154.4069  140.1251  156.4658 H   0  0  0  0  0  0  0  0  0  0  0  0  # atno 8010 bound_to 7997
  139.6040  144.0951  152.1773 H   0  0  0  0  0  0  0  0  0  0  0  0  # atno 10167 bound_to 10162
  157.4089  131.1025  151.0475 H   0  0  0  0  0  0  0  0  0  0  0  0  # atno 10718 bound_to 10713
  153.0292  135.6428  154.1267 H   0  0  0  0  0  0  0  0  0  0  0  0  # atno 10763 bound_to 10752
  154.0991  135.2861  155.3257 H   0  0  0  0  0  0  0  0  0  0  0  0  # atno 10764 bound_to 10752
  154.6411  135.5459  153.7853 H   0  0  0  0  0  0  0  0  0  0  0  0  # atno 10765 bound_to 10752
  140.8219  134.2621  157.4896 H   0  0  0  0  0  0  0  0  0  0  0  0  # atno 11005 bound_to 11000
  145.0783  139.2979  143.5797 LP  0  0  0  0  0  0  0  0  0  0  0  0  # atno 17320 bound_to 7965
  146.3523  140.0280  142.8653 LP  0  0  0  0  0  0  0  0  0  0  0  0  # atno 17321 bound_to 7965
  140.0554  144.5899  150.7304 LP  0  0  0  0  0  0  0  0  0  0  0  0  # atno 17342 bound_to 10162
  140.7271  143.2648  151.4082 LP  0  0  0  0  0  0  0  0  0  0  0  0  # atno 17343 bound_to 10162
  157.1446  130.6158  149.5565 LP  0  0  0  0  0  0  0  0  0  0  0  0  # atno 17370 bound_to 10713
  155.9845  130.4869  150.6984 LP  0  0  0  0  0  0  0  0  0  0  0  0  # atno 17371 bound_to 10713
  139.8708  134.9540  156.4162 LP  0  0  0  0  0  0  0  0  0  0  0  0  # atno 17394 bound_to 11000
  140.9090  133.7725  155.9769 LP  0  0  0  0  0  0  0  0  0  0  0  0  # atno 17395 bound_to 11000

$$$$
