AV-unprocessed.smi:798|AV-procd|sdf|3780|dock9
  -GOLD-   22720 1213D 1   1.00000     0.00000
 Structure written by MMmdl.
 33 35  0  0  0  0  0  0  0  0  2 V2000
  149.3540  135.9099  158.9641 O   0  0  0  0  0  0  0  0  0  0  0  0
  148.9860  136.9952  159.4193 C   0  0  0  0  0  0  0  0  0  0  0  0
  148.1432  137.1833  160.4599 N   0  5  0  0  0  0  0  0  0  0  0  0
  147.7190  136.1314  161.1795 C   0  0  0  0  0  0  0  0  0  0  0  0
  147.7400  134.8776  160.6994 N   0  0  0  0  0  0  0  0  0  0  0  0
  147.2526  133.9400  161.5999 N   0  0  0  0  0  0  0  0  0  0  0  0
  146.8670  134.5150  162.7390 C   0  0  0  0  0  0  0  0  0  0  0  0
  147.0621  136.2535  162.8144 S   0  0  0  0  0  0  0  0  0  0  0  0
  149.4386  138.1364  158.8809 N   0  0  0  0  0  0  0  0  0  0  0  0
  150.3619  138.2551  157.7498 C   0  0  1  0  0  0  0  0  0  0  0  0
  150.2795  139.6423  157.0656 C   0  0  1  0  0  0  0  0  0  0  0  0
  150.3955  140.7864  158.0954 C   0  0  0  0  0  0  0  0  0  0  0  0
  151.8690  140.6973  158.5308 C   0  0  0  0  0  0  0  0  0  0  0  0
  152.4137  139.5365  157.6720 C   0  0  2  0  0  0  0  0  0  0  0  0
  151.6369  139.7377  156.3761 C   0  0  0  0  0  0  0  0  0  0  0  0
  151.8679  138.1629  158.1342 C   0  0  1  0  0  0  0  0  0  0  0  0
  152.2103  137.7534  159.5847 C   0  0  0  0  0  0  0  0  0  0  0  0
  152.9549  136.5534  159.5951 O   0  0  0  0  0  0  0  0  0  0  0  0
  146.4620  133.9125  163.5382 H   0  0  0  0  0  0  0  0  0  0  0  0
  149.1120  138.9992  159.2903 H   0  0  0  0  0  0  0  0  0  0  0  0
  150.1326  137.4896  157.0058 H   0  0  0  0  0  0  0  0  0  0  0  0
  149.4222  139.7462  156.4000 H   0  0  0  0  0  0  0  0  0  0  0  0
  150.2016  141.7477  157.6181 H   0  0  0  0  0  0  0  0  0  0  0  0
  149.7031  140.6986  158.9326 H   0  0  0  0  0  0  0  0  0  0  0  0
  152.3885  141.6258  158.2905 H   0  0  0  0  0  0  0  0  0  0  0  0
  151.9819  140.5330  159.6015 H   0  0  0  0  0  0  0  0  0  0  0  0
  153.4976  139.5549  157.5548 H   0  0  0  0  0  0  0  0  0  0  0  0
  151.8054  138.9495  155.6401 H   0  0  0  0  0  0  0  0  0  0  0  0
  151.8187  140.7064  155.9069 H   0  0  0  0  0  0  0  0  0  0  0  0
  152.3140  137.4046  157.4878 H   0  0  0  0  0  0  0  0  0  0  0  0
  152.7666  138.5274  160.1122 H   0  0  0  0  0  0  0  0  0  0  0  0
  151.2945  137.5833  160.1514 H   0  0  0  0  0  0  0  0  0  0  0  0
  153.7252  136.6852  160.1265 H   0  0  0  0  0  0  0  0  0  0  0  0
  1  2  2  0  0  0  0
  2  3  1  0  0  0  0
  2  9  1  0  0  0  0
  3  4  1  0  0  0  0
  4  8  1  0  0  0  0
  4  5  2  0  0  0  0
  5  6  1  0  0  0  0
  6  7  2  0  0  0  0
  7  8  1  0  0  0  0
  7 19  1  0  0  0  0
  9 10  1  0  0  0  0
  9 20  1  0  0  0  0
 10 16  1  0  0  0  0
 10 11  1  0  0  0  0
 10 21  1  0  0  0  0
 11 15  1  0  0  0  0
 11 12  1  0  0  0  0
 11 22  1  0  0  0  0
 12 13  1  0  0  0  0
 12 23  1  0  0  0  0
 12 24  1  0  0  0  0
 13 14  1  0  0  0  0
 13 25  1  0  0  0  0
 13 26  1  0  0  0  0
 14 15  1  0  0  0  0
 14 16  1  0  0  0  0
 14 27  1  0  0  0  0
 15 28  1  0  0  0  0
 15 29  1  0  0  0  0
 16 17  1  0  0  0  0
 16 30  1  0  0  0  0
 17 18  1  0  0  0  0
 17 31  1  0  0  0  0
 17 32  1  0  0  0  0
 18 33  1  0  0  0  0
M  CHG  1   3  -1
M  END
> <s_m_source_file>
AV-unprocessed.smi

> <i_m_source_file_index>
798

> <i_lp_mmshare_version>
43012

> <i_f3d_flags>
0

> <s_epik_input>
W0NIMl0xW0NIMl1bQ0BASF0oW0NIMl0yKVtDQEBIXShbQ0gyXVtPSF0pW0NAQEhdKFtDQEhdMTIpW05IXUMoPU8pW05IXWMzbm5bY0hdczM=

> <s_epik_cmdline>
J2VwaWtfcHl0aG9uJywgJy1waCcsICc3LjAnLCAnLXRuJywgJzgnLCAnLW1hJywgJzIwMCcsICctbWV0YWxfYmluZGluZycsICctaW1hZScsICc8aW5maWxlLm1hZT4nLCAnLW9tYWUnLCAnPG91dGZpbGUubWFlPic=

> <r_lp_tautomer_probability>
1

> <r_epik_Ionization_Penalty>
4.53732

> <r_epik_Ionization_Penalty_Charging>
4.48632

> <r_epik_Ionization_Penalty_Neutral>
0.0510007

> <r_epik_State_Penalty>
4.48602

> <r_epik_Charging_Adjusted_Penalty>
8.97234

> <i_epik_Tot_Q>
-1

> <i_epik_Tot_abs_Q>
1

> <r_epik_Metal_State_Penalty>
0.812492

> <b_epik_Metal_Only>
1

> <s_lp_Force_Field>
OPLS_2005

> <r_lp_Energy>
48.4262

> <b_lp_Chiralities_Consistent>
1

> <s_lp_Variant>
AV-unprocessed.smi:798-12

> <Gold.Version>
5.8.1

> <Gold.Id.Protein>
6NUR|6NUR_protein|mol2

> <Gold.PLP.Fitness>
39.9281

> <Gold.PLP.PLP>
-28.8685

> <Gold.PLP.part.hbond>
-4.0000

> <Gold.PLP.part.metal>
0.0000

> <Gold.PLP.part.buried>
-4.2753

> <Gold.PLP.part.nonpolar>
-21.5056

> <Gold.PLP.part.repulsive>
0.2247

> <Gold.PLP.ligand.clash>
0.0000

> <Gold.PLP.ligand.torsion>
1.1716

> <Gold.PLP.Chemscore.Hbond>
4.4634

> <Gold.PLP.Chemscore.CHOScore>
0.0000

> <Gold.PLP.Chemscore.Metal>
0.0000

> <Gold.Chemscore.Hbonds>
donor molecule, donor type, donor heavy atom, donor atom, acceptor molecule, acceptor atom, score
      P1  H  6896  6907       L1    18  0.99
      P1  H  6896  6909       L1     1  1.00
      P1  H  6931  6943       L1     3  1.50
      P1  H  6934  6947       L1     3  1.07

> <Gold.PLP.Chemscore.Internal.Correction>
0.0126

> <Gold.Rescore>
     Score         DG    S(hbond)    S(metal)    S(lipo)     H(rot)  DE(clash)    DE(int)     intcor
     13.90     -16.75       2.93        0.00      54.73       1.92       0.02       2.83       ----

> <Gold.Chemscore.Fitness>
13.9019

> <Gold.Chemscore.DG>
-16.7521

> <Gold.Chemscore.ZeroCoef>
-5.4800

> <Gold.Chemscore.Hbond>
2.9299

> <Gold.Chemscore.Metal>
0.0000

> <Gold.Chemscore.Lipo>
54.7288

> <Gold.Chemscore.Internal_Hbond>
0.0000

> <Gold.Chemscore.DEClash>
0.0200

> <Gold.Chemscore.DEInternal>
2.8302

> <Gold.Chemscore.Rot>
1.9207

> <Gold.Chemscore.Internal.Correction>
   9.000000E+99

> <Gold.Chemscore.Hbonds>
donor molecule, donor type, donor heavy atom, donor atom, acceptor molecule, acceptor atom, score
      P1  H  6896  6907       L1    18  0.57
      P1  H  6896  6909       L1     1  0.98
      P1  H  6931  6943       L1     3  0.16
      P1  H  6934  6947       L1     3  0.48

> <Gold.Chemscore.Hbond.Weighted>
-9.7857

> <Gold.Chemscore.Metal.Weighted>
-0.0000

> <Gold.Chemscore.Lipo.Weighted>
-6.4033

> <Gold.Chemscore.Internal_Hbond.Weighted>
0.0000

> <Gold.Chemscore.DEClash.Weighted>
0.0200

> <Gold.Chemscore.DEInternal.Weighted>
2.8302

> <Gold.Chemscore.Rot.Weighted>
4.9169

> <Gold.Chemscore.Internal.Correction.Weighted>
   9.000000E+99

> <Gold.Protein.RotatedTorsions>
[ 6907 6896 6895 6894 ] final   47.63 input  -60.11 | X-H torsion
[ 7974 7965 7964 7962 ] final  -34.43 input  175.53 | X-H torsion
[ 8008 7997 7996 7995 ] final   90.08 input   59.86 | X-H torsion
[ 10167 10162 10161 10158 ] final  -42.01 input  -65.29 | X-H torsion
[ 10718 10713 10712 10709 ] final -147.51 input   66.30 | X-H torsion
[ 10763 10752 10751 10750 ] final  167.43 input  -60.55 | X-H torsion
[ 11005 11000 10999 10996 ] final   66.65 input  -57.11 | X-H torsion

> <Gold.Protein.ActiveResidues>
 VAL166  LYS551  ARG553  GLY616  TRP617  ASP618  TYR619  PRO620  LYS621  CYS622 
 ASP623  PHE694  ASN695  SER759  ASP760  ASP761  ALA762  ILE779  LEU786  VAL792 
 PHE793  MET794  SER795  GLU796  ALA797  LYS798  CYS799  TRP800  GLU811  SER814 

> <Gold.Protein.RotatedAtoms>
  152.2703  134.7940  160.0415 H   0  0  0  0  0  0  0  0  0  0  0  0  # atno 6907 bound_to 6896
  151.8555  133.3442  159.3695 H   0  0  0  0  0  0  0  0  0  0  0  0  # atno 6908 bound_to 6896
  150.7149  134.5185  159.5686 H   0  0  0  0  0  0  0  0  0  0  0  0  # atno 6909 bound_to 6896
  146.0830  140.6037  142.8899 H   0  0  0  0  0  0  0  0  0  0  0  0  # atno 7974 bound_to 7965
  156.0077  140.3353  155.6909 H   0  0  0  0  0  0  0  0  0  0  0  0  # atno 8008 bound_to 7997
  155.6202  140.0674  157.2698 H   0  0  0  0  0  0  0  0  0  0  0  0  # atno 8009 bound_to 7997
  154.4270  140.1778  156.1351 H   0  0  0  0  0  0  0  0  0  0  0  0  # atno 8010 bound_to 7997
  140.6984  143.3062  151.3148 H   0  0  0  0  0  0  0  0  0  0  0  0  # atno 10167 bound_to 10162
  156.4084  130.7969  151.2185 H   0  0  0  0  0  0  0  0  0  0  0  0  # atno 10718 bound_to 10713
  154.3537  135.2753  155.2358 H   0  0  0  0  0  0  0  0  0  0  0  0  # atno 10763 bound_to 10752
  154.4576  135.5915  153.6237 H   0  0  0  0  0  0  0  0  0  0  0  0  # atno 10764 bound_to 10752
  152.9848  135.6057  154.3750 H   0  0  0  0  0  0  0  0  0  0  0  0  # atno 10765 bound_to 10752
  139.9819  134.6730  156.0247 H   0  0  0  0  0  0  0  0  0  0  0  0  # atno 11005 bound_to 11000
  144.7306  140.4660  143.6940 LP  0  0  0  0  0  0  0  0  0  0  0  0  # atno 17320 bound_to 7965
  145.6182  139.1521  143.3037 LP  0  0  0  0  0  0  0  0  0  0  0  0  # atno 17321 bound_to 7965
  139.6468  144.0436  152.2597 LP  0  0  0  0  0  0  0  0  0  0  0  0  # atno 17342 bound_to 10162
  139.9959  144.6328  150.7773 LP  0  0  0  0  0  0  0  0  0  0  0  0  # atno 17343 bound_to 10162
  157.7506  131.0265  150.3965 LP  0  0  0  0  0  0  0  0  0  0  0  0  # atno 17370 bound_to 10713
  156.4258  130.3962  149.6793 LP  0  0  0  0  0  0  0  0  0  0  0  0  # atno 17371 bound_to 10713
  141.1490  133.6551  156.3954 LP  0  0  0  0  0  0  0  0  0  0  0  0  # atno 17394 bound_to 11000
  140.5080  134.6422  157.5273 LP  0  0  0  0  0  0  0  0  0  0  0  0  # atno 17395 bound_to 11000

$$$$
