AV-unprocessed.smi:178|AV-procd|sdf|1445|dock3
  -GOLD-   2262019233D 1   1.00000     0.00000
 Structure written by MMmdl.
 50 52  0  0  0  0  0  0  0  0  1 V2000
  151.9237  145.9091  160.2633 C   0  0  0  0  0  0  0  0  0  0  0  0
  151.1359  144.8625  159.7173 O   0  0  0  0  0  0  0  0  0  0  0  0
  151.8971  143.8261  159.1146 C   0  0  0  0  0  0  0  0  0  0  0  0
  152.3370  142.7743  160.1523 C   0  0  0  0  0  0  0  0  0  0  0  0
  152.8414  141.5456  159.5319 N   0  0  0  0  0  0  0  0  0  0  0  0
  154.1112  141.0078  160.0200 C   0  0  0  0  0  0  0  0  0  0  0  0
  154.2392  141.0576  161.5516 C   0  0  0  0  0  0  0  0  0  0  0  0
  155.1175  140.0259  162.1257 C   0  0  0  0  0  0  0  0  0  0  0  0
  155.8108  139.2168  162.5769 N   0  0  0  0  0  0  0  0  0  0  0  0
  152.1623  140.9805  158.4868 C   0  0  0  0  0  0  0  0  0  0  0  0
  152.8412  140.1134  157.6867 N   0  0  0  0  0  0  0  0  0  0  0  0
  152.2463  139.5104  156.6559 C   0  0  0  0  0  0  0  0  0  0  0  0
  150.9870  139.6261  156.2404 N   0  0  0  0  0  0  0  0  0  0  0  0
  150.2883  140.4965  157.0225 C   0  0  0  0  0  0  0  0  0  0  0  0
  150.7884  141.2095  158.1535 C   0  0  0  0  0  0  0  0  0  0  0  0
  149.7598  141.9773  158.6903 N   0  0  0  0  0  0  0  0  0  0  0  0
  148.7287  141.7359  157.9310 C   0  0  0  0  0  0  0  0  0  0  0  0
  148.9593  140.8667  156.8913 N   0  0  0  0  0  0  0  0  0  0  0  0
  148.0040  140.4084  155.8890 C   0  0  0  0  0  0  0  0  0  0  0  0
  147.6452  141.4690  154.8127 C   0  0  1  0  0  0  0  0  0  0  0  0
  148.8352  142.1459  154.4430 O   0  0  0  0  0  0  0  0  0  0  0  0
  147.0259  140.8702  153.5614 C   0  0  0  0  0  0  0  0  0  0  0  0
  146.3226  142.0615  152.9140 C   0  0  0  0  0  0  0  0  0  0  0  0
  146.0946  143.0100  153.9544 O   0  0  0  0  0  0  0  0  0  0  0  0
  146.6060  142.5415  155.2014 C   0  0  1  0  0  0  0  0  0  0  0  0
  145.3759  142.0345  155.9778 C   0  0  0  0  0  0  0  0  0  0  0  0
  151.2731  146.6405  160.7421 H   0  0  0  0  0  0  0  0  0  0  0  0
  152.4977  146.4291  159.4966 H   0  0  0  0  0  0  0  0  0  0  0  0
  152.6129  145.5310  161.0192 H   0  0  0  0  0  0  0  0  0  0  0  0
  151.3431  143.3751  158.2902 H   0  0  0  0  0  0  0  0  0  0  0  0
  152.7782  144.2882  158.6706 H   0  0  0  0  0  0  0  0  0  0  0  0
  153.1226  143.2041  160.7743 H   0  0  0  0  0  0  0  0  0  0  0  0
  151.5266  142.5337  160.8397 H   0  0  0  0  0  0  0  0  0  0  0  0
  154.1664  139.9645  159.7079 H   0  0  0  0  0  0  0  0  0  0  0  0
  154.9678  141.4723  159.5391 H   0  0  0  0  0  0  0  0  0  0  0  0
  154.6173  142.0286  161.8706 H   0  0  0  0  0  0  0  0  0  0  0  0
  153.2559  140.9417  162.0072 H   0  0  0  0  0  0  0  0  0  0  0  0
  152.8685  138.8383  156.0836 H   0  0  0  0  0  0  0  0  0  0  0  0
  147.7691  142.1866  158.1274 H   0  0  0  0  0  0  0  0  0  0  0  0
  148.4363  139.5337  155.4010 H   0  0  0  0  0  0  0  0  0  0  0  0
  147.1110  140.0448  156.3975 H   0  0  0  0  0  0  0  0  0  0  0  0
  148.9299  142.9068  154.9956 H   0  0  0  0  0  0  0  0  0  0  0  0
  147.7516  140.3939  152.9010 H   0  0  0  0  0  0  0  0  0  0  0  0
  146.2872  140.1156  153.8344 H   0  0  0  0  0  0  0  0  0  0  0  0
  146.9594  142.5221  152.1581 H   0  0  0  0  0  0  0  0  0  0  0  0
  145.3873  141.7709  152.4349 H   0  0  0  0  0  0  0  0  0  0  0  0
  147.0625  143.3627  155.7559 H   0  0  0  0  0  0  0  0  0  0  0  0
  145.6341  141.6707  156.9684 H   0  0  0  0  0  0  0  0  0  0  0  0
  144.8691  141.2263  155.4508 H   0  0  0  0  0  0  0  0  0  0  0  0
  144.6524  142.8385  156.1126 H   0  0  0  0  0  0  0  0  0  0  0  0
  1  2  1  0  0  0  0
  1 27  1  0  0  0  0
  1 28  1  0  0  0  0
  1 29  1  0  0  0  0
  2  3  1  0  0  0  0
  3  4  1  0  0  0  0
  3 30  1  0  0  0  0
  3 31  1  0  0  0  0
  4  5  1  0  0  0  0
  4 32  1  0  0  0  0
  4 33  1  0  0  0  0
  5  6  1  0  0  0  0
  5 10  1  0  0  0  0
  6  7  1  0  0  0  0
  6 34  1  0  0  0  0
  6 35  1  0  0  0  0
  7  8  1  0  0  0  0
  7 36  1  0  0  0  0
  7 37  1  0  0  0  0
  8  9  3  0  0  0  0
 10 15  1  0  0  0  0
 10 11  2  0  0  0  0
 11 12  1  0  0  0  0
 12 13  2  0  0  0  0
 12 38  1  0  0  0  0
 13 14  1  0  0  0  0
 14 18  1  0  0  0  0
 14 15  2  0  0  0  0
 15 16  1  0  0  0  0
 16 17  2  0  0  0  0
 17 18  1  0  0  0  0
 17 39  1  0  0  0  0
 18 19  1  0  0  0  0
 19 20  1  0  0  0  0
 19 40  1  0  0  0  0
 19 41  1  0  0  0  0
 20 25  1  0  0  0  0
 20 21  1  0  0  0  0
 20 22  1  0  0  0  0
 21 42  1  0  0  0  0
 22 23  1  0  0  0  0
 22 43  1  0  0  0  0
 22 44  1  0  0  0  0
 23 24  1  0  0  0  0
 23 45  1  0  0  0  0
 23 46  1  0  0  0  0
 24 25  1  0  0  0  0
 25 26  1  0  0  0  0
 25 47  1  0  0  0  0
 26 48  1  0  0  0  0
 26 49  1  0  0  0  0
 26 50  1  0  0  0  0
M  END
> <s_m_source_file>
AV-unprocessed.smi

> <i_m_source_file_index>
178

> <i_lp_mmshare_version>
43012

> <i_f3d_flags>
0

> <s_epik_input>
W0NIM11PW0NIMl1bQ0gyXU4oW0NIMl1bQ0gyXUMjTiljKG5bY0hdbjEpYyhjMTIpbltjSF1uMltDSDJdW0NAQF0zKFtPSF0pW0NIMl1bQ0gyXU9bQ0BIXTNbQ0gzXQ==

> <s_epik_cmdline>
J2VwaWtfcHl0aG9uJywgJy1waCcsICc3LjAnLCAnLXRuJywgJzgnLCAnLW1hJywgJzIwMCcsICctbWV0YWxfYmluZGluZycsICctaW1hZScsICc8aW5maWxlLm1hZT4nLCAnLW9tYWUnLCAnPG91dGZpbGUubWFlPic=

> <r_lp_tautomer_probability>
1

> <r_epik_Ionization_Penalty>
0.000885317

> <r_epik_Ionization_Penalty_Charging>
0

> <r_epik_Ionization_Penalty_Neutral>
0.000885317

> <r_epik_State_Penalty>
0.00047273

> <r_epik_Charging_Adjusted_Penalty>
0.00047273

> <i_epik_Tot_Q>
0

> <i_epik_Tot_abs_Q>
0

> <r_epik_Metal_State_Penalty>
-0

> <b_epik_Metal_Only>
0

> <s_lp_Force_Field>
OPLS_2005

> <r_lp_Energy>
33.9655

> <b_lp_Chiralities_Consistent>
1

> <s_lp_Variant>
AV-unprocessed.smi:178-1

> <Gold.Version>
5.8.1

> <Gold.Id.Protein>
6NUR|6NUR_protein|mol2

> <Gold.PLP.Fitness>
46.0986

> <Gold.PLP.PLP>
-42.2741

> <Gold.PLP.part.hbond>
-3.3770

> <Gold.PLP.part.metal>
0.0000

> <Gold.PLP.part.buried>
-5.0418

> <Gold.PLP.part.nonpolar>
-34.0356

> <Gold.PLP.part.repulsive>
0.3860

> <Gold.PLP.ligand.clash>
0.0039

> <Gold.PLP.ligand.torsion>
1.3427

> <Gold.PLP.Chemscore.Hbond>
1.9933

> <Gold.PLP.Chemscore.CHOScore>
0.0000

> <Gold.PLP.Chemscore.Metal>
0.0000

> <Gold.Chemscore.Hbonds>
donor molecule, donor type, donor heavy atom, donor atom, acceptor molecule, acceptor atom, score
      L1  H    21    42       P1  8028  1.00
      P1  H  7997  8010       L1    11  0.79
      P1  H  8011  8017       L1    21  0.08

> <Gold.PLP.Chemscore.Internal.Correction>
0.5338

> <Gold.Rescore>
     Score         DG    S(hbond)    S(metal)    S(lipo)     H(rot)  DE(clash)    DE(int)     intcor
      7.29     -13.11       1.59        0.00      93.64       3.37       3.81       2.01       ----

> <Gold.Chemscore.Fitness>
7.2858

> <Gold.Chemscore.DG>
-13.1120

> <Gold.Chemscore.ZeroCoef>
-5.4800

> <Gold.Chemscore.Hbond>
1.5903

> <Gold.Chemscore.Metal>
0.0000

> <Gold.Chemscore.Lipo>
93.6391

> <Gold.Chemscore.Internal_Hbond>
0.0000

> <Gold.Chemscore.DEClash>
3.8127

> <Gold.Chemscore.DEInternal>
2.0134

> <Gold.Chemscore.Rot>
3.3732

> <Gold.Chemscore.Internal.Correction>
   9.000000E+99

> <Gold.Chemscore.Hbonds>
donor molecule, donor type, donor heavy atom, donor atom, acceptor molecule, acceptor atom, score
      L1  H    21    42       P1  8028  0.99
      P1  H  7997  8010       L1    11  0.18
      P1  H  8011  8017       L1    21  0.07

> <Gold.Chemscore.Hbond.Weighted>
-5.3115

> <Gold.Chemscore.Metal.Weighted>
-0.0000

> <Gold.Chemscore.Lipo.Weighted>
-10.9558

> <Gold.Chemscore.Internal_Hbond.Weighted>
0.0000

> <Gold.Chemscore.DEClash.Weighted>
3.8127

> <Gold.Chemscore.DEInternal.Weighted>
2.0134

> <Gold.Chemscore.Rot.Weighted>
8.6354

> <Gold.Chemscore.Internal.Correction.Weighted>
   9.000000E+99

> <Gold.Protein.RotatedTorsions>
[ 6907 6896 6895 6894 ] final -145.03 input  -60.11 | X-H torsion
[ 7974 7965 7964 7962 ] final   72.72 input  175.53 | X-H torsion
[ 8008 7997 7996 7995 ] final   30.05 input   59.86 | X-H torsion
[ 10167 10162 10161 10158 ] final   75.46 input  -65.29 | X-H torsion
[ 10718 10713 10712 10709 ] final  111.78 input   66.30 | X-H torsion
[ 10763 10752 10751 10750 ] final   36.28 input  -60.55 | X-H torsion
[ 11005 11000 10999 10996 ] final -117.28 input  -57.11 | X-H torsion

> <Gold.Protein.ActiveResidues>
 VAL166  LYS551  ARG553  GLY616  TRP617  ASP618  TYR619  PRO620  LYS621  CYS622 
 ASP623  PHE694  ASN695  SER759  ASP760  ASP761  ALA762  ILE779  LEU786  VAL792 
 PHE793  MET794  SER795  GLU796  ALA797  LYS798  CYS799  TRP800  GLU811  SER814 

> <Gold.Protein.RotatedAtoms>
  151.1222  133.5096  159.2601 H   0  0  0  0  0  0  0  0  0  0  0  0  # atno 6907 bound_to 6896
  151.1849  135.0377  159.8818 H   0  0  0  0  0  0  0  0  0  0  0  0  # atno 6908 bound_to 6896
  152.5456  134.1069  159.8395 H   0  0  0  0  0  0  0  0  0  0  0  0  # atno 6909 bound_to 6896
  145.7498  139.2755  143.1438 H   0  0  0  0  0  0  0  0  0  0  0  0  # atno 7974 bound_to 7965
  155.0842  140.3213  155.4592 H   0  0  0  0  0  0  0  0  0  0  0  0  # atno 8008 bound_to 7997
  156.2759  140.2089  156.5915 H   0  0  0  0  0  0  0  0  0  0  0  0  # atno 8009 bound_to 7997
  154.6954  140.0512  157.0393 H   0  0  0  0  0  0  0  0  0  0  0  0  # atno 8010 bound_to 7997
  140.0027  144.5674  150.7723 H   0  0  0  0  0  0  0  0  0  0  0  0  # atno 10167 bound_to 10162
  157.6427  131.0956  150.6798 H   0  0  0  0  0  0  0  0  0  0  0  0  # atno 10718 bound_to 10713
  153.0084  135.6310  154.1960 H   0  0  0  0  0  0  0  0  0  0  0  0  # atno 10763 bound_to 10752
  154.1702  135.2819  155.3085 H   0  0  0  0  0  0  0  0  0  0  0  0  # atno 10764 bound_to 10752
  154.5914  135.5616  153.7342 H   0  0  0  0  0  0  0  0  0  0  0  0  # atno 10765 bound_to 10752
  141.0365  133.9901  157.3062 H   0  0  0  0  0  0  0  0  0  0  0  0  # atno 11005 bound_to 11000
  146.0367  140.8205  142.9849 LP  0  0  0  0  0  0  0  0  0  0  0  0  # atno 17320 bound_to 7965
  144.6852  140.2849  143.7286 LP  0  0  0  0  0  0  0  0  0  0  0  0  # atno 17321 bound_to 7965
  140.7412  143.2815  151.3584 LP  0  0  0  0  0  0  0  0  0  0  0  0  # atno 17342 bound_to 10162
  139.6260  144.0813  152.2434 LP  0  0  0  0  0  0  0  0  0  0  0  0  # atno 17343 bound_to 10162
  156.7120  130.4654  149.5545 LP  0  0  0  0  0  0  0  0  0  0  0  0  # atno 17370 bound_to 10713
  156.1723  130.6445  151.0853 LP  0  0  0  0  0  0  0  0  0  0  0  0  # atno 17371 bound_to 10713
  139.9244  135.0201  156.8183 LP  0  0  0  0  0  0  0  0  0  0  0  0  # atno 17394 bound_to 11000
  140.6312  133.9904  155.7663 LP  0  0  0  0  0  0  0  0  0  0  0  0  # atno 17395 bound_to 11000

$$$$
