AV-unprocessed.smi:1207|AV-procd|sdf|5050|dock3
  -GOLD-   22720 4 73D 1   1.00000     0.00000
 Structure written by MMmdl.
 51 53  0  0  0  0  0  0  0  0  1 V2000
  153.0851  143.4116  161.3762 C   0  0  0  0  0  0  0  0  0  0  0  0
  152.5269  142.8307  160.0890 C   0  0  0  0  0  0  0  0  0  0  0  0
  152.9445  141.5451  159.6771 C   0  0  0  0  0  0  0  0  0  0  0  0
  152.4480  140.9688  158.4873 C   0  0  0  0  0  0  0  0  0  0  0  0
  152.7148  139.7417  157.9043 N   0  0  0  0  0  0  0  0  0  0  0  0
  151.9500  139.7903  156.8174 C   0  0  0  0  0  0  0  0  0  0  0  0
  151.2189  140.9051  156.6264 N   0  0  0  0  0  0  0  0  0  0  0  0
  150.3192  141.1776  155.5191 C   0  0  0  0  0  0  0  0  0  0  0  0
  148.8439  141.2502  155.9600 C   0  0  1  0  0  0  0  0  0  0  0  0
  148.2579  142.4025  155.3841 O   0  0  0  0  0  0  0  0  0  0  0  0
  148.0457  140.0046  155.5160 C   0  0  0  0  0  0  0  0  0  0  0  0
  148.1886  138.8294  156.3779 N   0  0  0  0  0  0  0  0  0  0  0  0
  147.5996  137.6604  155.7298 C   0  0  0  0  0  0  0  0  0  0  0  0
  147.6103  139.0431  157.7073 C   0  0  0  0  0  0  0  0  0  0  0  0
  147.9076  137.9197  158.6676 C   0  0  0  0  0  0  0  0  0  0  0  0
  146.9836  137.0520  159.3172 C   0  0  0  0  0  0  0  0  0  0  0  0
  145.4861  137.0323  159.2048 C   0  0  0  0  0  0  0  0  0  0  0  0
  147.5938  136.1739  160.0957 N   0  0  0  0  0  0  0  0  0  0  0  0
  148.9607  136.4451  159.9807 O   0  0  0  0  0  0  0  0  0  0  0  0
  149.1217  137.4868  159.1255 C   0  0  0  0  0  0  0  0  0  0  0  0
  150.5222  137.9313  158.8703 C   0  0  0  0  0  0  0  0  0  0  0  0
  151.5162  141.7206  157.7133 C   0  0  0  0  0  0  0  0  0  0  0  0
  151.0929  143.0004  158.1130 C   0  0  0  0  0  0  0  0  0  0  0  0
  151.5977  143.5609  159.3051 C   0  0  0  0  0  0  0  0  0  0  0  0
  151.1325  144.9428  159.7288 C   0  0  0  0  0  0  0  0  0  0  0  0
  153.7908  142.7276  161.8487 H   0  0  0  0  0  0  0  0  0  0  0  0
  152.2816  143.6068  162.0868 H   0  0  0  0  0  0  0  0  0  0  0  0
  153.6081  144.3474  161.1781 H   0  0  0  0  0  0  0  0  0  0  0  0
  153.6517  140.9882  160.2742 H   0  0  0  0  0  0  0  0  0  0  0  0
  151.9174  138.9673  156.1184 H   0  0  0  0  0  0  0  0  0  0  0  0
  150.6241  142.1085  155.0388 H   0  0  0  0  0  0  0  0  0  0  0  0
  150.4510  140.3880  154.7779 H   0  0  0  0  0  0  0  0  0  0  0  0
  148.8102  141.3453  157.0465 H   0  0  0  0  0  0  0  0  0  0  0  0
  148.7948  143.1503  155.5968 H   0  0  0  0  0  0  0  0  0  0  0  0
  146.9917  140.2513  155.3765 H   0  0  0  0  0  0  0  0  0  0  0  0
  148.4060  139.7286  154.5239 H   0  0  0  0  0  0  0  0  0  0  0  0
  147.7647  136.7560  156.3156 H   0  0  0  0  0  0  0  0  0  0  0  0
  148.0478  137.4931  154.7500 H   0  0  0  0  0  0  0  0  0  0  0  0
  146.5245  137.7856  155.5935 H   0  0  0  0  0  0  0  0  0  0  0  0
  148.0040  139.9655  158.1316 H   0  0  0  0  0  0  0  0  0  0  0  0
  146.5356  139.2045  157.6143 H   0  0  0  0  0  0  0  0  0  0  0  0
  145.0683  138.0229  159.3871 H   0  0  0  0  0  0  0  0  0  0  0  0
  145.0344  136.3469  159.9231 H   0  0  0  0  0  0  0  0  0  0  0  0
  145.1764  136.7199  158.2073 H   0  0  0  0  0  0  0  0  0  0  0  0
  150.5956  138.4708  157.9259 H   0  0  0  0  0  0  0  0  0  0  0  0
  151.1985  137.0776  158.8225 H   0  0  0  0  0  0  0  0  0  0  0  0
  150.8668  138.5931  159.6649 H   0  0  0  0  0  0  0  0  0  0  0  0
  150.3826  143.5441  157.5079 H   0  0  0  0  0  0  0  0  0  0  0  0
  150.4146  145.3556  159.0195 H   0  0  0  0  0  0  0  0  0  0  0  0
  151.9775  145.6291  159.7875 H   0  0  0  0  0  0  0  0  0  0  0  0
  150.6507  144.9008  160.7060 H   0  0  0  0  0  0  0  0  0  0  0  0
  1  2  1  0  0  0  0
  1 26  1  0  0  0  0
  1 27  1  0  0  0  0
  1 28  1  0  0  0  0
  2 24  1  0  0  0  0
  2  3  2  0  0  0  0
  3  4  1  0  0  0  0
  3 29  1  0  0  0  0
  4 22  2  0  0  0  0
  4  5  1  0  0  0  0
  5  6  2  0  0  0  0
  6  7  1  0  0  0  0
  6 30  1  0  0  0  0
  7  8  1  0  0  0  0
  7 22  1  0  0  0  0
  8  9  1  0  0  0  0
  8 31  1  0  0  0  0
  8 32  1  0  0  0  0
  9 10  1  0  0  0  0
  9 11  1  0  0  0  0
  9 33  1  0  0  0  0
 10 34  1  0  0  0  0
 11 12  1  0  0  0  0
 11 35  1  0  0  0  0
 11 36  1  0  0  0  0
 12 13  1  0  0  0  0
 12 14  1  0  0  0  0
 13 37  1  0  0  0  0
 13 38  1  0  0  0  0
 13 39  1  0  0  0  0
 14 15  1  0  0  0  0
 14 40  1  0  0  0  0
 14 41  1  0  0  0  0
 15 20  2  0  0  0  0
 15 16  1  0  0  0  0
 16 17  1  0  0  0  0
 16 18  2  0  0  0  0
 17 42  1  0  0  0  0
 17 43  1  0  0  0  0
 17 44  1  0  0  0  0
 18 19  1  0  0  0  0
 19 20  1  0  0  0  0
 20 21  1  0  0  0  0
 21 45  1  0  0  0  0
 21 46  1  0  0  0  0
 21 47  1  0  0  0  0
 22 23  1  0  0  0  0
 23 24  2  0  0  0  0
 23 48  1  0  0  0  0
 24 25  1  0  0  0  0
 25 49  1  0  0  0  0
 25 50  1  0  0  0  0
 25 51  1  0  0  0  0
M  END
> <s_m_source_file>
AV-unprocessed.smi

> <i_m_source_file_index>
1207

> <i_lp_mmshare_version>
43012

> <i_f3d_flags>
0

> <s_epik_input>
W0NIM11jKFtjSF0xKWMoW0NIM10pW2NIXWMoYzEyKW4oW2NIXW4yKVtDSDJdW0NASF0oW09IXSlbQ0gyXU4oW0NIM10pW0NIMl1jM2MoW0NIM10pbm9jM1tDSDNd

> <s_epik_cmdline>
J2VwaWtfcHl0aG9uJywgJy1waCcsICc3LjAnLCAnLXRuJywgJzgnLCAnLW1hJywgJzIwMCcsICctbWV0YWxfYmluZGluZycsICctaW1hZScsICc8aW5maWxlLm1hZT4nLCAnLW9tYWUnLCAnPG91dGZpbGUubWFlPic=

> <r_epik_Ionization_Penalty>
0.374039

> <r_epik_Ionization_Penalty_Charging>
0

> <r_epik_Ionization_Penalty_Neutral>
0.374039

> <r_epik_State_Penalty>
0.350767

> <r_epik_Charging_Adjusted_Penalty>
0.350767

> <i_epik_Tot_Q>
0

> <i_epik_Tot_abs_Q>
0

> <r_epik_Metal_State_Penalty>
0.343187

> <b_epik_Metal_Only>
0

> <s_lp_Force_Field>
OPLS_2005

> <r_lp_Energy>
17.6596

> <b_lp_Chiralities_Consistent>
1

> <s_lp_Variant>
AV-unprocessed.smi:1207-2

> <Gold.Version>
5.8.1

> <Gold.Id.Protein>
6NUR|6NUR_protein|mol2

> <Gold.PLP.Fitness>
45.4653

> <Gold.PLP.PLP>
-39.0305

> <Gold.PLP.part.hbond>
-2.7607

> <Gold.PLP.part.metal>
0.0000

> <Gold.PLP.part.buried>
-5.7188

> <Gold.PLP.part.nonpolar>
-29.6842

> <Gold.PLP.part.repulsive>
0.0000

> <Gold.PLP.ligand.clash>
0.0000

> <Gold.PLP.ligand.torsion>
0.9863

> <Gold.PLP.Chemscore.Hbond>
2.7680

> <Gold.PLP.Chemscore.CHOScore>
0.0000

> <Gold.PLP.Chemscore.Metal>
0.0000

> <Gold.Chemscore.Hbonds>
donor molecule, donor type, donor heavy atom, donor atom, acceptor molecule, acceptor atom, score
      L1  H    10    34       P1  8028  0.90
      P1  H  7997  8008       L1     5  0.64

> <Gold.PLP.Chemscore.Internal.Correction>
0.1036

> <Gold.Rescore>
     Score         DG    S(hbond)    S(metal)    S(lipo)     H(rot)  DE(clash)    DE(int)     intcor
     17.55     -18.91       1.97        0.00     110.47       2.38       0.24       1.11       ----

> <Gold.Chemscore.Fitness>
17.5526

> <Gold.Chemscore.DG>
-18.9059

> <Gold.Chemscore.ZeroCoef>
-5.4800

> <Gold.Chemscore.Hbond>
1.9707

> <Gold.Chemscore.Metal>
0.0000

> <Gold.Chemscore.Lipo>
110.4736

> <Gold.Chemscore.Internal_Hbond>
0.0000

> <Gold.Chemscore.DEClash>
0.2429

> <Gold.Chemscore.DEInternal>
1.1103

> <Gold.Chemscore.Rot>
2.3756

> <Gold.Chemscore.Internal.Correction>
   9.000000E+99

> <Gold.Chemscore.Hbonds>
donor molecule, donor type, donor heavy atom, donor atom, acceptor molecule, acceptor atom, score
      L1  H    10    34       P1  8028  0.85
      P1  H  6896  6907       L1    19  0.02
      P1  H  7997  8008       L1     5  0.08

> <Gold.Chemscore.Hbond.Weighted>
-6.5820

> <Gold.Chemscore.Metal.Weighted>
-0.0000

> <Gold.Chemscore.Lipo.Weighted>
-12.9254

> <Gold.Chemscore.Internal_Hbond.Weighted>
0.0000

> <Gold.Chemscore.DEClash.Weighted>
0.2429

> <Gold.Chemscore.DEInternal.Weighted>
1.1103

> <Gold.Chemscore.Rot.Weighted>
6.0816

> <Gold.Chemscore.Internal.Correction.Weighted>
   9.000000E+99

> <Gold.Protein.RotatedTorsions>
[ 6907 6896 6895 6894 ] final  -59.70 input  -60.11 | X-H torsion
[ 7974 7965 7964 7962 ] final -174.65 input  175.53 | X-H torsion
[ 8008 7997 7996 7995 ] final  -95.67 input   59.86 | X-H torsion
[ 10167 10162 10161 10158 ] final  169.95 input  -65.29 | X-H torsion
[ 10718 10713 10712 10709 ] final  175.54 input   66.30 | X-H torsion
[ 10763 10752 10751 10750 ] final  142.14 input  -60.55 | X-H torsion
[ 11005 11000 10999 10996 ] final -155.88 input  -57.11 | X-H torsion

> <Gold.Protein.ActiveResidues>
 VAL166  LYS551  ARG553  GLY616  TRP617  ASP618  TYR619  PRO620  LYS621  CYS622 
 ASP623  PHE694  ASN695  SER759  ASP760  ASP761  ALA762  ILE779  LEU786  VAL792 
 PHE793  MET794  SER795  GLU796  ALA797  LYS798  CYS799  TRP800  GLU811  SER814 

> <Gold.Protein.RotatedAtoms>
  150.7911  134.6934  159.6509 H   0  0  0  0  0  0  0  0  0  0  0  0  # atno 6907 bound_to 6896
  152.4016  134.6274  160.0076 H   0  0  0  0  0  0  0  0  0  0  0  0  # atno 6908 bound_to 6896
  151.6543  133.3283  159.3195 H   0  0  0  0  0  0  0  0  0  0  0  0  # atno 6909 bound_to 6896
  144.7131  140.1439  143.6389 H   0  0  0  0  0  0  0  0  0  0  0  0  # atno 7974 bound_to 7965
  154.7645  140.0478  157.1000 H   0  0  0  0  0  0  0  0  0  0  0  0  # atno 8008 bound_to 7997
  154.9897  140.3111  155.4892 H   0  0  0  0  0  0  0  0  0  0  0  0  # atno 8009 bound_to 7997
  156.2910  140.2221  156.5001 H   0  0  0  0  0  0  0  0  0  0  0  0  # atno 8010 bound_to 7997
  139.5005  144.3650  151.9785 H   0  0  0  0  0  0  0  0  0  0  0  0  # atno 10167 bound_to 10162
  156.9333  130.9978  151.2983 H   0  0  0  0  0  0  0  0  0  0  0  0  # atno 10718 bound_to 10713
  153.9508  135.2970  155.3438 H   0  0  0  0  0  0  0  0  0  0  0  0  # atno 10763 bound_to 10752
  154.7427  135.5017  153.9154 H   0  0  0  0  0  0  0  0  0  0  0  0  # atno 10764 bound_to 10752
  153.0995  135.6730  153.9808 H   0  0  0  0  0  0  0  0  0  0  0  0  # atno 10765 bound_to 10752
  140.6816  134.4138  157.5226 H   0  0  0  0  0  0  0  0  0  0  0  0  # atno 11005 bound_to 11000
  145.9177  139.2526  143.1400 LP  0  0  0  0  0  0  0  0  0  0  0  0  # atno 17320 bound_to 7965
  145.9652  140.8804  143.0190 LP  0  0  0  0  0  0  0  0  0  0  0  0  # atno 17321 bound_to 7965
  140.3086  144.3564  150.6040 LP  0  0  0  0  0  0  0  0  0  0  0  0  # atno 17342 bound_to 10162
  140.5817  143.2172  151.7417 LP  0  0  0  0  0  0  0  0  0  0  0  0  # atno 17343 bound_to 10162
  157.5833  130.8391  149.8553 LP  0  0  0  0  0  0  0  0  0  0  0  0  # atno 17370 bound_to 10713
  156.0437  130.3733  150.1370 LP  0  0  0  0  0  0  0  0  0  0  0  0  # atno 17371 bound_to 10713
  139.8950  134.8693  156.2152 LP  0  0  0  0  0  0  0  0  0  0  0  0  # atno 17394 bound_to 11000
  141.0313  133.6987  156.1434 LP  0  0  0  0  0  0  0  0  0  0  0  0  # atno 17395 bound_to 11000

$$$$
