AV-unprocessed.smi:1667|AV-procd|sdf|6677|dock3
  -GOLD-   22720 7393D 1   1.00000     0.00000
 Structure written by MMmdl.
 46 48  0  0  0  0  0  0  0  0  2 V2000
  149.4143  133.5983  154.0379 C   0  0  0  0  0  0  0  0  0  0  0  0
  149.7900  134.7625  154.9477 C   0  0  0  0  0  0  0  0  0  0  0  0
  149.6002  134.6857  156.1611 O   0  0  0  0  0  0  0  0  0  0  0  0
  150.3188  135.8397  154.3468 N   0  0  0  0  0  0  0  0  0  0  0  0
  150.7468  137.0551  155.0328 C   0  0  1  0  0  0  0  0  0  0  0  0
  152.1874  137.4008  154.6309 C   0  0  0  0  0  0  0  0  0  0  0  0
  149.8284  138.2091  154.7543 C   0  0  0  0  0  0  0  0  0  0  0  0
  148.9582  138.3010  153.7084 N   0  3  0  0  0  0  0  0  0  0  0  0
  148.2739  139.5145  153.7658 C   0  0  0  0  0  0  0  0  0  0  0  0
  147.3068  140.0528  152.9228 C   0  0  0  0  0  0  0  0  0  0  0  0
  146.8121  141.3291  153.2610 C   0  0  0  0  0  0  0  0  0  0  0  0
  147.2779  142.0180  154.3994 C   0  0  0  0  0  0  0  0  0  0  0  0
  148.2556  141.4597  155.2485 C   0  0  0  0  0  0  0  0  0  0  0  0
  148.7419  140.1970  154.9074 C   0  0  0  0  0  0  0  0  0  0  0  0
  149.6972  139.3525  155.4884 N   0  0  0  0  0  0  0  0  0  0  0  0
  150.3956  139.7767  156.7137 C   0  0  0  0  0  0  0  0  0  0  0  0
  151.3806  140.9345  156.4568 C   0  0  2  0  0  0  0  0  0  0  0  0
  152.4107  140.4591  155.6157 O   0  0  0  0  0  0  0  0  0  0  0  0
  151.9169  141.5363  157.7482 C   0  0  0  0  0  0  0  0  0  0  0  0
  152.6246  140.7416  158.6773 C   0  0  0  0  0  0  0  0  0  0  0  0
  153.0921  141.3042  159.8809 C   0  0  0  0  0  0  0  0  0  0  0  0
  152.8532  142.6627  160.1637 C   0  0  0  0  0  0  0  0  0  0  0  0
  152.1463  143.4589  159.2424 C   0  0  0  0  0  0  0  0  0  0  0  0
  151.9104  144.7638  159.5156 F   0  0  0  0  0  0  0  0  0  0  0  0
  151.6811  142.8977  158.0378 C   0  0  0  0  0  0  0  0  0  0  0  0
  150.7458  136.8521  156.1041 H   0  0  0  0  0  0  0  0  0  0  0  0
  148.6527  133.9061  153.3210 H   0  0  0  0  0  0  0  0  0  0  0  0
  149.0189  132.7641  154.6185 H   0  0  0  0  0  0  0  0  0  0  0  0
  150.2871  133.2464  153.4872 H   0  0  0  0  0  0  0  0  0  0  0  0
  150.4426  135.8113  153.3450 H   0  0  0  0  0  0  0  0  0  0  0  0
  152.5391  138.2855  155.1628 H   0  0  0  0  0  0  0  0  0  0  0  0
  152.2696  137.6008  153.5618 H   0  0  0  0  0  0  0  0  0  0  0  0
  152.8677  136.5826  154.8689 H   0  0  0  0  0  0  0  0  0  0  0  0
  146.9501  139.5271  152.0492 H   0  0  0  0  0  0  0  0  0  0  0  0
  146.0616  141.7891  152.6345 H   0  0  0  0  0  0  0  0  0  0  0  0
  146.8778  142.9955  154.6265 H   0  0  0  0  0  0  0  0  0  0  0  0
  148.6047  142.0028  156.1137 H   0  0  0  0  0  0  0  0  0  0  0  0
  149.6699  140.0342  157.4847 H   0  0  0  0  0  0  0  0  0  0  0  0
  150.9316  138.9057  157.0925 H   0  0  0  0  0  0  0  0  0  0  0  0
  150.8684  141.7188  155.8982 H   0  0  0  0  0  0  0  0  0  0  0  0
  152.0710  139.7446  155.0987 H   0  0  0  0  0  0  0  0  0  0  0  0
  152.8044  139.6958  158.4746 H   0  0  0  0  0  0  0  0  0  0  0  0
  153.6318  140.6925  160.5885 H   0  0  0  0  0  0  0  0  0  0  0  0
  153.2108  143.0931  161.0875 H   0  0  0  0  0  0  0  0  0  0  0  0
  151.1330  143.5136  157.3399 H   0  0  0  0  0  0  0  0  0  0  0  0
  148.8458  137.5825  153.0051 H   0  0  0  0  0  0  0  0  0  0  0  0
  1  2  1  0  0  0  0
  1 27  1  0  0  0  0
  1 28  1  0  0  0  0
  1 29  1  0  0  0  0
  2  3  2  0  0  0  0
  2  4  1  0  0  0  0
  4  5  1  0  0  0  0
  4 30  1  0  0  0  0
  5 26  1  0  0  0  0
  5  6  1  0  0  0  0
  5  7  1  0  0  0  0
  6 31  1  0  0  0  0
  6 32  1  0  0  0  0
  6 33  1  0  0  0  0
  7 15  1  0  0  0  0
  7  8  2  0  0  0  0
  8  9  1  0  0  0  0
  8 46  1  0  0  0  0
  9 14  2  0  0  0  0
  9 10  1  0  0  0  0
 10 11  2  0  0  0  0
 10 34  1  0  0  0  0
 11 12  1  0  0  0  0
 11 35  1  0  0  0  0
 12 13  2  0  0  0  0
 12 36  1  0  0  0  0
 13 14  1  0  0  0  0
 13 37  1  0  0  0  0
 14 15  1  0  0  0  0
 15 16  1  0  0  0  0
 16 17  1  0  0  0  0
 16 38  1  0  0  0  0
 16 39  1  0  0  0  0
 17 18  1  0  0  0  0
 17 19  1  0  0  0  0
 17 40  1  0  0  0  0
 18 41  1  0  0  0  0
 19 25  1  0  0  0  0
 19 20  2  0  0  0  0
 20 21  1  0  0  0  0
 20 42  1  0  0  0  0
 21 22  2  0  0  0  0
 21 43  1  0  0  0  0
 22 23  1  0  0  0  0
 22 44  1  0  0  0  0
 23 24  1  0  0  0  0
 23 25  2  0  0  0  0
 25 45  1  0  0  0  0
M  CHG  1   8   1
M  END
> <s_m_source_file>
AV-unprocessed.smi

> <i_m_source_file_index>
1667

> <i_lp_mmshare_version>
43012

> <i_f3d_flags>
0

> <s_epik_input>
W0NIM11DKD1PKVtOSF1bQ0BASF0oW0NIM10pYyhuMSluKGMoYzEyKVtjSF1bY0hdW2NIXVtjSF0yKVtDSDJdW0NASF0oW09IXSljM1tjSF1bY0hdW2NIXWMoRilbY0hdMw==

> <s_epik_cmdline>
J2VwaWtfcHl0aG9uJywgJy1waCcsICc3LjAnLCAnLXRuJywgJzgnLCAnLW1hJywgJzIwMCcsICctbWV0YWxfYmluZGluZycsICctaW1hZScsICc8aW5maWxlLm1hZT4nLCAnLW9tYWUnLCAnPG91dGZpbGUubWFlPic=

> <r_epik_Ionization_Penalty>
0.950383

> <r_epik_Ionization_Penalty_Charging>
0.950379

> <r_epik_Ionization_Penalty_Neutral>
3.60962e-06

> <r_epik_State_Penalty>
0.994584

> <r_epik_Charging_Adjusted_Penalty>
1.94496

> <i_epik_Tot_Q>
1

> <i_epik_Tot_abs_Q>
1

> <r_epik_Metal_State_Penalty>
1.10485

> <b_epik_Metal_Only>
0

> <s_lp_Force_Field>
OPLS_2005

> <r_lp_Energy>
12.0521

> <b_lp_Chiralities_Consistent>
1

> <s_lp_Variant>
AV-unprocessed.smi:1667-5

> <Gold.Version>
5.8.1

> <Gold.Id.Protein>
6NUR|6NUR_protein|mol2

> <Gold.PLP.Fitness>
54.3396

> <Gold.PLP.PLP>
-46.2933

> <Gold.PLP.part.hbond>
-5.6283

> <Gold.PLP.part.metal>
0.0000

> <Gold.PLP.part.buried>
4.1695

> <Gold.PLP.part.nonpolar>
-44.5886

> <Gold.PLP.part.repulsive>
0.1378

> <Gold.PLP.ligand.clash>
0.0000

> <Gold.PLP.ligand.torsion>
0.7214

> <Gold.PLP.Chemscore.Hbond>
3.1413

> <Gold.PLP.Chemscore.CHOScore>
0.0000

> <Gold.PLP.Chemscore.Metal>
0.0000

> <Gold.Chemscore.Hbonds>
donor molecule, donor type, donor heavy atom, donor atom, acceptor molecule, acceptor atom, score
      L1  H     4    30       P1  7949  0.05
      L1  H     8    46       P1  7948  2.00
      P1  H  7997  8008       L1    18  0.99

> <Gold.PLP.Chemscore.Internal.Correction>
0.0655

> <Gold.Rescore>
     Score         DG    S(hbond)    S(metal)    S(lipo)     H(rot)  DE(clash)    DE(int)     intcor
     17.16     -20.48       1.92        0.00     128.90       2.53       2.59       0.72       ----

> <Gold.Chemscore.Fitness>
17.1622

> <Gold.Chemscore.DG>
-20.4787

> <Gold.Chemscore.ZeroCoef>
-5.4800

> <Gold.Chemscore.Hbond>
1.9171

> <Gold.Chemscore.Metal>
0.0000

> <Gold.Chemscore.Lipo>
128.9004

> <Gold.Chemscore.Internal_Hbond>
0.0000

> <Gold.Chemscore.DEClash>
2.5942

> <Gold.Chemscore.DEInternal>
0.7224

> <Gold.Chemscore.Rot>
2.5335

> <Gold.Chemscore.Internal.Correction>
   9.000000E+99

> <Gold.Chemscore.Hbonds>
donor molecule, donor type, donor heavy atom, donor atom, acceptor molecule, acceptor atom, score
      L1  H     8    46       P1  7948  1.00
      P1  H  7997  8008       L1    18  0.76

> <Gold.Chemscore.Hbond.Weighted>
-6.4030

> <Gold.Chemscore.Metal.Weighted>
-0.0000

> <Gold.Chemscore.Lipo.Weighted>
-15.0813

> <Gold.Chemscore.Internal_Hbond.Weighted>
0.0000

> <Gold.Chemscore.DEClash.Weighted>
2.5942

> <Gold.Chemscore.DEInternal.Weighted>
0.7224

> <Gold.Chemscore.Rot.Weighted>
6.4856

> <Gold.Chemscore.Internal.Correction.Weighted>
   9.000000E+99

> <Gold.Protein.RotatedTorsions>
[ 6907 6896 6895 6894 ] final  158.37 input  -60.11 | X-H torsion
[ 7974 7965 7964 7962 ] final  132.90 input  175.53 | X-H torsion
[ 8008 7997 7996 7995 ] final  -32.83 input   59.86 | X-H torsion
[ 10167 10162 10161 10158 ] final -143.13 input  -65.29 | X-H torsion
[ 10718 10713 10712 10709 ] final  102.10 input   66.30 | X-H torsion
[ 10763 10752 10751 10750 ] final   -3.98 input  -60.55 | X-H torsion
[ 11005 11000 10999 10996 ] final  -38.12 input  -57.11 | X-H torsion

> <Gold.Protein.ActiveResidues>
 VAL166  LYS551  ARG553  GLY616  TRP617  ASP618  TYR619  PRO620  LYS621  CYS622 
 ASP623  PHE694  ASN695  SER759  ASP760  ASP761  ALA762  ILE779  LEU786  VAL792 
 PHE793  MET794  SER795  GLU796  ALA797  LYS798  CYS799  TRP800  GLU811  SER814 

> <Gold.Protein.RotatedAtoms>
  152.0014  133.3827  159.4183 H   0  0  0  0  0  0  0  0  0  0  0  0  # atno 6907 bound_to 6896
  150.6909  134.3829  159.5051 H   0  0  0  0  0  0  0  0  0  0  0  0  # atno 6908 bound_to 6896
  152.1577  134.8937  160.0594 H   0  0  0  0  0  0  0  0  0  0  0  0  # atno 6909 bound_to 6896
  144.9920  139.4397  143.5334 H   0  0  0  0  0  0  0  0  0  0  0  0  # atno 7974 bound_to 7965
  154.4167  140.1727  156.1790 H   0  0  0  0  0  0  0  0  0  0  0  0  # atno 8008 bound_to 7997
  155.9698  140.3386  155.6541 H   0  0  0  0  0  0  0  0  0  0  0  0  # atno 8009 bound_to 7997
  155.6641  140.0704  157.2534 H   0  0  0  0  0  0  0  0  0  0  0  0  # atno 8010 bound_to 7997
  139.8022  143.7817  152.2659 H   0  0  0  0  0  0  0  0  0  0  0  0  # atno 10167 bound_to 10162
  157.6811  131.0744  150.5352 H   0  0  0  0  0  0  0  0  0  0  0  0  # atno 10718 bound_to 10713
  153.3787  135.6997  153.6582 H   0  0  0  0  0  0  0  0  0  0  0  0  # atno 10763 bound_to 10752
  153.5202  135.3613  155.2629 H   0  0  0  0  0  0  0  0  0  0  0  0  # atno 10764 bound_to 10752
  154.8690  135.4156  154.3080 H   0  0  0  0  0  0  0  0  0  0  0  0  # atno 10765 bound_to 10752
  141.0004  133.6958  156.2012 H   0  0  0  0  0  0  0  0  0  0  0  0  # atno 11005 bound_to 11000
  146.3433  139.9258  142.8760 LP  0  0  0  0  0  0  0  0  0  0  0  0  # atno 17320 bound_to 7965
  145.2272  140.9958  143.4011 LP  0  0  0  0  0  0  0  0  0  0  0  0  # atno 17321 bound_to 7965
  139.7941  144.7399  150.9914 LP  0  0  0  0  0  0  0  0  0  0  0  0  # atno 17342 bound_to 10162
  140.7820  143.4412  151.0549 LP  0  0  0  0  0  0  0  0  0  0  0  0  # atno 17343 bound_to 10162
  156.5661  130.4268  149.6040 LP  0  0  0  0  0  0  0  0  0  0  0  0  # atno 17370 bound_to 10713
  156.2780  130.7054  151.1871 LP  0  0  0  0  0  0  0  0  0  0  0  0  # atno 17371 bound_to 10713
  140.6898  134.4678  157.5588 LP  0  0  0  0  0  0  0  0  0  0  0  0  # atno 17394 bound_to 11000
  139.9036  134.8500  156.1796 LP  0  0  0  0  0  0  0  0  0  0  0  0  # atno 17395 bound_to 11000

$$$$
