AV-unprocessed.smi:2817|AV-procd|sdf|10846|dock2
  -GOLD-   2272015283D 1   1.00000     0.00000
 Structure written by MMmdl.
 42 44  0  0  0  0  0  0  0  0  1 V2000
  148.6797  140.6205  154.9541 O   0  0  0  0  0  0  0  0  0  0  0  0
  149.6767  140.7516  155.6642 C   0  0  0  0  0  0  0  0  0  0  0  0
  149.7695  141.7708  156.7098 C   0  0  0  0  0  0  0  0  0  0  0  0
  150.8806  141.8841  157.4753 C   0  0  0  0  0  0  0  0  0  0  0  0
  150.9825  142.9570  158.5562 C   0  0  0  0  0  0  0  0  0  0  0  0
  151.0054  144.4119  158.0571 C   0  0  0  0  0  0  0  0  0  0  0  0
  152.5204  144.4491  158.2879 C   0  0  0  0  0  0  0  0  0  0  0  0
  152.3973  143.1662  159.1180 C   0  0  0  0  0  0  0  0  0  0  0  0
  151.9735  141.0313  157.2695 N   0  0  0  0  0  0  0  0  0  0  0  0
  151.9184  140.1232  156.3484 C   0  0  0  0  0  0  0  0  0  0  0  0
  150.7793  139.9584  155.5370 N   0  0  0  0  0  0  0  0  0  0  0  0
  150.8456  138.8951  154.5219 C   0  0  0  0  0  0  0  0  0  0  0  0
  151.4185  137.5804  155.0998 C   0  0  2  0  0  0  0  0  0  0  0  0
  152.0427  136.8525  154.0616 O   0  0  0  0  0  0  0  0  0  0  0  0
  150.3243  136.6782  155.6905 C   0  0  0  0  0  0  0  0  0  0  0  0
  150.9472  135.6279  156.4182 O   0  0  0  0  0  0  0  0  0  0  0  0
  150.8286  134.3405  155.9414 C   0  0  0  0  0  0  0  0  0  0  0  0
  151.6184  133.3530  156.5660 C   0  0  0  0  0  0  0  0  0  0  0  0
  151.5622  132.0110  156.1436 C   0  0  0  0  0  0  0  0  0  0  0  0
  150.7108  131.6416  155.0861 C   0  0  0  0  0  0  0  0  0  0  0  0
  149.9173  132.6166  154.4537 C   0  0  0  0  0  0  0  0  0  0  0  0
  149.9733  133.9592  154.8764 C   0  0  0  0  0  0  0  0  0  0  0  0
  148.9343  142.4379  156.8672 H   0  0  0  0  0  0  0  0  0  0  0  0
  150.2443  142.8077  159.3455 H   0  0  0  0  0  0  0  0  0  0  0  0
  150.7018  144.5568  157.0195 H   0  0  0  0  0  0  0  0  0  0  0  0
  150.4675  145.0881  158.7229 H   0  0  0  0  0  0  0  0  0  0  0  0
  153.0920  144.3059  157.3701 H   0  0  0  0  0  0  0  0  0  0  0  0
  152.8700  145.3166  158.8486 H   0  0  0  0  0  0  0  0  0  0  0  0
  152.3958  143.3610  160.1913 H   0  0  0  0  0  0  0  0  0  0  0  0
  153.1178  142.3905  158.8554 H   0  0  0  0  0  0  0  0  0  0  0  0
  152.7438  139.4392  156.1417 H   0  0  0  0  0  0  0  0  0  0  0  0
  149.8393  138.7178  154.1375 H   0  0  0  0  0  0  0  0  0  0  0  0
  151.4086  139.2094  153.6411 H   0  0  0  0  0  0  0  0  0  0  0  0
  152.1604  137.7828  155.8735 H   0  0  0  0  0  0  0  0  0  0  0  0
  151.3874  136.6156  153.4234 H   0  0  0  0  0  0  0  0  0  0  0  0
  149.6629  137.2596  156.3353 H   0  0  0  0  0  0  0  0  0  0  0  0
  149.7248  136.2511  154.8845 H   0  0  0  0  0  0  0  0  0  0  0  0
  152.2751  133.6277  157.3787 H   0  0  0  0  0  0  0  0  0  0  0  0
  152.1729  131.2656  156.6312 H   0  0  0  0  0  0  0  0  0  0  0  0
  150.6672  130.6125  154.7607 H   0  0  0  0  0  0  0  0  0  0  0  0
  149.2638  132.3347  153.6413 H   0  0  0  0  0  0  0  0  0  0  0  0
  149.3507  134.6781  154.3660 H   0  0  0  0  0  0  0  0  0  0  0  0
  1  2  2  0  0  0  0
  2 11  1  0  0  0  0
  2  3  1  0  0  0  0
  3  4  2  0  0  0  0
  3 23  1  0  0  0  0
  4  5  1  0  0  0  0
  4  9  1  0  0  0  0
  5  8  1  0  0  0  0
  5  6  1  0  0  0  0
  5 24  1  0  0  0  0
  6  7  1  0  0  0  0
  6 25  1  0  0  0  0
  6 26  1  0  0  0  0
  7  8  1  0  0  0  0
  7 27  1  0  0  0  0
  7 28  1  0  0  0  0
  8 29  1  0  0  0  0
  8 30  1  0  0  0  0
  9 10  2  0  0  0  0
 10 11  1  0  0  0  0
 10 31  1  0  0  0  0
 11 12  1  0  0  0  0
 12 13  1  0  0  0  0
 12 32  1  0  0  0  0
 12 33  1  0  0  0  0
 13 14  1  0  0  0  0
 13 15  1  0  0  0  0
 13 34  1  0  0  0  0
 14 35  1  0  0  0  0
 15 16  1  0  0  0  0
 15 36  1  0  0  0  0
 15 37  1  0  0  0  0
 16 17  1  0  0  0  0
 17 22  1  0  0  0  0
 17 18  2  0  0  0  0
 18 19  1  0  0  0  0
 18 38  1  0  0  0  0
 19 20  2  0  0  0  0
 19 39  1  0  0  0  0
 20 21  1  0  0  0  0
 20 40  1  0  0  0  0
 21 22  2  0  0  0  0
 21 41  1  0  0  0  0
 22 42  1  0  0  0  0
M  END
> <s_m_source_file>
AV-unprocessed.smi

> <i_m_source_file_index>
2817

> <i_lp_mmshare_version>
43012

> <i_f3d_flags>
0

> <s_epik_input>
W0NIMl0xW0NIMl1bQ0gyXVtDSF0xYyhbY0hdYzI9TyluW2NIXW4yW0NIMl1bQ0BIXShbT0hdKVtDSDJdT2MzW2NIXVtjSF1bY0hdW2NIXVtjSF0z

> <s_epik_cmdline>
J2VwaWtfcHl0aG9uJywgJy1waCcsICc3LjAnLCAnLXRuJywgJzgnLCAnLW1hJywgJzIwMCcsICctbWV0YWxfYmluZGluZycsICctaW1hZScsICc8aW5maWxlLm1hZT4nLCAnLW9tYWUnLCAnPG91dGZpbGUubWFlPic=

> <r_lp_tautomer_probability>
1

> <r_epik_Ionization_Penalty>
2.12778e-05

> <r_epik_Ionization_Penalty_Charging>
7.42033e-08

> <r_epik_Ionization_Penalty_Neutral>
2.12036e-05

> <r_epik_State_Penalty>
-0

> <r_epik_Charging_Adjusted_Penalty>
7.42033e-08

> <i_epik_Tot_Q>
0

> <i_epik_Tot_abs_Q>
0

> <r_epik_Metal_State_Penalty>
-0

> <b_epik_Metal_Only>
0

> <s_lp_Force_Field>
OPLS_2005

> <r_lp_Energy>
32.2435

> <b_lp_Chiralities_Consistent>
1

> <s_lp_Variant>
AV-unprocessed.smi:2817-1

> <Gold.Version>
5.8.1

> <Gold.Id.Protein>
6NUR|6NUR_protein|mol2

> <Gold.PLP.Fitness>
51.4209

> <Gold.PLP.PLP>
-47.6531

> <Gold.PLP.part.hbond>
-1.9587

> <Gold.PLP.part.metal>
0.0000

> <Gold.PLP.part.buried>
-3.6659

> <Gold.PLP.part.nonpolar>
-42.4616

> <Gold.PLP.part.repulsive>
0.1675

> <Gold.PLP.ligand.clash>
0.0000

> <Gold.PLP.ligand.torsion>
1.2118

> <Gold.PLP.Chemscore.Hbond>
1.8960

> <Gold.PLP.Chemscore.CHOScore>
0.0000

> <Gold.PLP.Chemscore.Metal>
0.0000

> <Gold.Chemscore.Hbonds>
donor molecule, donor type, donor heavy atom, donor atom, acceptor molecule, acceptor atom, score
      L1  H    14    35       P1  7949  0.81
      P1  H 10752 10763       L1    14  0.91

> <Gold.PLP.Chemscore.Internal.Correction>
0.5034

> <Gold.Rescore>
     Score         DG    S(hbond)    S(metal)    S(lipo)     H(rot)  DE(clash)    DE(int)     intcor
     16.29     -17.77       1.62        0.00     111.98       2.42       0.19       1.29       ----

> <Gold.Chemscore.Fitness>
16.2886

> <Gold.Chemscore.DG>
-17.7719

> <Gold.Chemscore.ZeroCoef>
-5.4800

> <Gold.Chemscore.Hbond>
1.6159

> <Gold.Chemscore.Metal>
0.0000

> <Gold.Chemscore.Lipo>
111.9788

> <Gold.Chemscore.Internal_Hbond>
0.0000

> <Gold.Chemscore.DEClash>
0.1931

> <Gold.Chemscore.DEInternal>
1.2902

> <Gold.Chemscore.Rot>
2.4245

> <Gold.Chemscore.Internal.Correction>
   9.000000E+99

> <Gold.Chemscore.Hbonds>
donor molecule, donor type, donor heavy atom, donor atom, acceptor molecule, acceptor atom, score
      L1  H    14    35       P1  7949  0.60
      P1  H 10752 10763       L1    14  0.47

> <Gold.Chemscore.Hbond.Weighted>
-5.3970

> <Gold.Chemscore.Metal.Weighted>
-0.0000

> <Gold.Chemscore.Lipo.Weighted>
-13.1015

> <Gold.Chemscore.Internal_Hbond.Weighted>
0.0000

> <Gold.Chemscore.DEClash.Weighted>
0.1931

> <Gold.Chemscore.DEInternal.Weighted>
1.2902

> <Gold.Chemscore.Rot.Weighted>
6.2066

> <Gold.Chemscore.Internal.Correction.Weighted>
   9.000000E+99

> <Gold.Protein.RotatedTorsions>
[ 6907 6896 6895 6894 ] final  -84.18 input  -60.11 | X-H torsion
[ 7974 7965 7964 7962 ] final  101.73 input  175.53 | X-H torsion
[ 8008 7997 7996 7995 ] final  175.95 input   59.86 | X-H torsion
[ 10167 10162 10161 10158 ] final -178.56 input  -65.29 | X-H torsion
[ 10718 10713 10712 10709 ] final  -37.42 input   66.30 | X-H torsion
[ 10763 10752 10751 10750 ] final   34.05 input  -60.55 | X-H torsion
[ 11005 11000 10999 10996 ] final   -8.82 input  -57.11 | X-H torsion

> <Gold.Protein.ActiveResidues>
 VAL166  LYS551  ARG553  GLY616  TRP617  ASP618  TYR619  PRO620  LYS621  CYS622 
 ASP623  PHE694  ASN695  SER759  ASP760  ASP761  ALA762  ILE779  LEU786  VAL792 
 PHE793  MET794  SER795  GLU796  ALA797  LYS798  CYS799  TRP800  GLU811  SER814 

> <Gold.Protein.RotatedAtoms>
  150.6878  134.3397  159.4862 H   0  0  0  0  0  0  0  0  0  0  0  0  # atno 6907 bound_to 6896
  152.1252  134.9173  160.0570 H   0  0  0  0  0  0  0  0  0  0  0  0  # atno 6908 bound_to 6896
  152.0364  133.3924  159.4355 H   0  0  0  0  0  0  0  0  0  0  0  0  # atno 6909 bound_to 6896
  145.3684  139.2403  143.3468 H   0  0  0  0  0  0  0  0  0  0  0  0  # atno 7974 bound_to 7965
  156.0817  140.1396  156.9704 H   0  0  0  0  0  0  0  0  0  0  0  0  # atno 8008 bound_to 7997
  154.4589  140.0951  156.6885 H   0  0  0  0  0  0  0  0  0  0  0  0  # atno 8009 bound_to 7997
  155.5065  140.3452  155.4383 H   0  0  0  0  0  0  0  0  0  0  0  0  # atno 8010 bound_to 7997
  139.5426  144.2321  152.0926 H   0  0  0  0  0  0  0  0  0  0  0  0  # atno 10167 bound_to 10162
  156.3155  130.4258  149.8010 H   0  0  0  0  0  0  0  0  0  0  0  0  # atno 10718 bound_to 10713
  153.0182  135.6371  154.1607 H   0  0  0  0  0  0  0  0  0  0  0  0  # atno 10763 bound_to 10752
  154.1344  135.2838  155.3178 H   0  0  0  0  0  0  0  0  0  0  0  0  # atno 10764 bound_to 10752
  154.6171  135.5537  153.7596 H   0  0  0  0  0  0  0  0  0  0  0  0  # atno 10765 bound_to 10752
  140.7275  133.8776  155.8867 H   0  0  0  0  0  0  0  0  0  0  0  0  # atno 11005 bound_to 11000
  146.2896  140.4331  142.8744 LP  0  0  0  0  0  0  0  0  0  0  0  0  # atno 17320 bound_to 7965
  144.8594  140.7118  143.6117 LP  0  0  0  0  0  0  0  0  0  0  0  0  # atno 17321 bound_to 7965
  140.1802  144.4852  150.6532 LP  0  0  0  0  0  0  0  0  0  0  0  0  # atno 17342 bound_to 10162
  140.6662  143.2269  151.5736 LP  0  0  0  0  0  0  0  0  0  0  0  0  # atno 17343 bound_to 10162
  156.5337  130.8269  151.3246 LP  0  0  0  0  0  0  0  0  0  0  0  0  # atno 17370 bound_to 10713
  157.7400  130.9843  150.2352 LP  0  0  0  0  0  0  0  0  0  0  0  0  # atno 17371 bound_to 10713
  140.9950  134.1228  157.4372 LP  0  0  0  0  0  0  0  0  0  0  0  0  # atno 17394 bound_to 11000
  139.8834  135.0051  156.6295 LP  0  0  0  0  0  0  0  0  0  0  0  0  # atno 17395 bound_to 11000

$$$$
