AV-unprocessed.smi:1891|AV-procd|sdf|7665|dock1
  -GOLD-   22720 9403D 1   1.00000     0.00000
 Structure written by MMmdl.
 36 38  0  0  0  0  0  0  0  0  1 V2000
  152.4155  137.6409  155.1461 O   0  0  0  0  0  0  0  0  0  0  0  0
  151.6598  138.7966  154.8563 C   0  0  0  0  0  0  0  0  0  0  0  0
  151.6605  139.7956  155.9740 C   0  0  0  0  0  0  0  0  0  0  0  0
  152.4460  139.6476  157.0417 N   0  0  0  0  0  0  0  0  0  0  0  0
  152.1607  140.7730  157.7894 C   0  0  0  0  0  0  0  0  0  0  0  0
  152.6743  141.2033  159.0337 C   0  0  0  0  0  0  0  0  0  0  0  0
  152.2324  142.4131  159.6084 C   0  0  0  0  0  0  0  0  0  0  0  0
  151.2739  143.2087  158.9480 C   0  0  0  0  0  0  0  0  0  0  0  0
  150.7482  142.7973  157.7082 C   0  0  0  0  0  0  0  0  0  0  0  0
  151.1902  141.5870  157.1402 C   0  0  0  0  0  0  0  0  0  0  0  0
  150.8803  140.9077  155.9658 N   0  0  0  0  0  0  0  0  0  0  0  0
  149.9244  141.3464  154.9557 C   0  0  0  0  0  0  0  0  0  0  0  0
  148.5963  140.5632  155.0064 C   0  0  2  0  0  0  0  0  0  0  0  0
  148.5489  139.6173  153.9558 O   0  0  0  0  0  0  0  0  0  0  0  0
  147.4031  141.5090  154.9923 C   0  0  0  0  0  0  0  0  0  0  0  0
  147.1402  142.3103  153.8584 C   0  0  0  0  0  0  0  0  0  0  0  0
  146.0433  143.1936  153.8496 C   0  0  0  0  0  0  0  0  0  0  0  0
  145.2039  143.2853  154.9759 C   0  0  0  0  0  0  0  0  0  0  0  0
  144.1508  144.1364  154.9685 F   0  0  0  0  0  0  0  0  0  0  0  0
  145.4627  142.4939  156.1111 C   0  0  0  0  0  0  0  0  0  0  0  0
  146.5597  141.6101  156.1224 C   0  0  0  0  0  0  0  0  0  0  0  0
  146.7998  140.8634  157.2272 F   0  0  0  0  0  0  0  0  0  0  0  0
  153.2006  137.9025  155.6021 H   0  0  0  0  0  0  0  0  0  0  0  0
  152.0726  139.2600  153.9595 H   0  0  0  0  0  0  0  0  0  0  0  0
  150.6352  138.5153  154.6139 H   0  0  0  0  0  0  0  0  0  0  0  0
  153.4110  140.6025  159.5460 H   0  0  0  0  0  0  0  0  0  0  0  0
  152.6322  142.7330  160.5594 H   0  0  0  0  0  0  0  0  0  0  0  0
  150.9422  144.1349  159.3939 H   0  0  0  0  0  0  0  0  0  0  0  0
  150.0143  143.4056  157.2007 H   0  0  0  0  0  0  0  0  0  0  0  0
  149.7337  142.4077  155.1200 H   0  0  0  0  0  0  0  0  0  0  0  0
  150.3682  141.2694  153.9640 H   0  0  0  0  0  0  0  0  0  0  0  0
  148.5606  139.9825  155.9280 H   0  0  0  0  0  0  0  0  0  0  0  0
  149.0459  139.9541  153.2260 H   0  0  0  0  0  0  0  0  0  0  0  0
  147.7815  142.2534  152.9910 H   0  0  0  0  0  0  0  0  0  0  0  0
  145.8475  143.8024  152.9791 H   0  0  0  0  0  0  0  0  0  0  0  0
  144.8202  142.5663  156.9762 H   0  0  0  0  0  0  0  0  0  0  0  0
  1  2  1  0  0  0  0
  1 23  1  0  0  0  0
  2  3  1  0  0  0  0
  2 24  1  0  0  0  0
  2 25  1  0  0  0  0
  3 11  1  0  0  0  0
  3  4  2  0  0  0  0
  4  5  1  0  0  0  0
  5 10  2  0  0  0  0
  5  6  1  0  0  0  0
  6  7  2  0  0  0  0
  6 26  1  0  0  0  0
  7  8  1  0  0  0  0
  7 27  1  0  0  0  0
  8  9  2  0  0  0  0
  8 28  1  0  0  0  0
  9 10  1  0  0  0  0
  9 29  1  0  0  0  0
 10 11  1  0  0  0  0
 11 12  1  0  0  0  0
 12 13  1  0  0  0  0
 12 30  1  0  0  0  0
 12 31  1  0  0  0  0
 13 14  1  0  0  0  0
 13 15  1  0  0  0  0
 13 32  1  0  0  0  0
 14 33  1  0  0  0  0
 15 21  1  0  0  0  0
 15 16  2  0  0  0  0
 16 17  1  0  0  0  0
 16 34  1  0  0  0  0
 17 18  2  0  0  0  0
 17 35  1  0  0  0  0
 18 19  1  0  0  0  0
 18 20  1  0  0  0  0
 20 21  2  0  0  0  0
 20 36  1  0  0  0  0
 21 22  1  0  0  0  0
M  END
> <s_m_source_file>
AV-unprocessed.smi

> <i_m_source_file_index>
1891

> <i_lp_mmshare_version>
43012

> <i_f3d_flags>
0

> <s_epik_input>
W2NIXTFbY0hdW2NIXVtjSF1jKGMxMiluKGMobjIpW0NIMl1bT0hdKVtDSDJdW0NASF0oW09IXSljM1tjSF1bY0hdYyhGKVtjSF1jM0Y=

> <s_epik_cmdline>
J2VwaWtfcHl0aG9uJywgJy1waCcsICc3LjAnLCAnLXRuJywgJzgnLCAnLW1hJywgJzIwMCcsICctbWV0YWxfYmluZGluZycsICctaW1hZScsICc8aW5maWxlLm1hZT4nLCAnLW9tYWUnLCAnPG91dGZpbGUubWFlPic=

> <r_epik_Ionization_Penalty>
0.0634724

> <r_epik_Ionization_Penalty_Charging>
0

> <r_epik_Ionization_Penalty_Neutral>
0.0634724

> <r_epik_State_Penalty>
0.0551572

> <r_epik_Charging_Adjusted_Penalty>
0.0551572

> <i_epik_Tot_Q>
0

> <i_epik_Tot_abs_Q>
0

> <r_epik_Metal_State_Penalty>
5.78034e-05

> <b_epik_Metal_Only>
0

> <s_lp_Force_Field>
OPLS_2005

> <r_lp_Energy>
12.6206

> <b_lp_Chiralities_Consistent>
1

> <s_lp_Variant>
AV-unprocessed.smi:1891-1

> <Gold.Version>
5.8.1

> <Gold.Id.Protein>
6NUR|6NUR_protein|mol2

> <Gold.PLP.Fitness>
50.0132

> <Gold.PLP.PLP>
-45.0553

> <Gold.PLP.part.hbond>
-3.0000

> <Gold.PLP.part.metal>
0.0000

> <Gold.PLP.part.buried>
-5.2698

> <Gold.PLP.part.nonpolar>
-35.7971

> <Gold.PLP.part.repulsive>
0.0000

> <Gold.PLP.ligand.clash>
0.0000

> <Gold.PLP.ligand.torsion>
0.9592

> <Gold.PLP.Chemscore.Hbond>
2.2749

> <Gold.PLP.Chemscore.CHOScore>
0.0000

> <Gold.PLP.Chemscore.Metal>
0.0000

> <Gold.Chemscore.Hbonds>
donor molecule, donor type, donor heavy atom, donor atom, acceptor molecule, acceptor atom, score
      L1  H    14    33       P1  7957  0.71
      P1  H  7997  8009       L1     4  0.95
      P1  H 10752 10764       L1     1  0.38

> <Gold.PLP.Chemscore.Internal.Correction>
0.0517

> <Gold.Rescore>
     Score         DG    S(hbond)    S(metal)    S(lipo)     H(rot)  DE(clash)    DE(int)     intcor
     13.71     -15.03       1.59        0.00      99.17       2.88       0.37       0.94       ----

> <Gold.Chemscore.Fitness>
13.7117

> <Gold.Chemscore.DG>
-15.0251

> <Gold.Chemscore.ZeroCoef>
-5.4800

> <Gold.Chemscore.Hbond>
1.5889

> <Gold.Chemscore.Metal>
0.0000

> <Gold.Chemscore.Lipo>
99.1665

> <Gold.Chemscore.Internal_Hbond>
0.0000

> <Gold.Chemscore.DEClash>
0.3697

> <Gold.Chemscore.DEInternal>
0.9437

> <Gold.Chemscore.Rot>
2.8767

> <Gold.Chemscore.Internal.Correction>
   9.000000E+99

> <Gold.Chemscore.Hbonds>
donor molecule, donor type, donor heavy atom, donor atom, acceptor molecule, acceptor atom, score
      L1  H    14    33       P1  7957  0.69
      P1  H  7997  8009       L1     4  0.13
      P1  H 10752 10764       L1     1  0.12

> <Gold.Chemscore.Hbond.Weighted>
-5.3071

> <Gold.Chemscore.Metal.Weighted>
-0.0000

> <Gold.Chemscore.Lipo.Weighted>
-11.6025

> <Gold.Chemscore.Internal_Hbond.Weighted>
0.0000

> <Gold.Chemscore.DEClash.Weighted>
0.3697

> <Gold.Chemscore.DEInternal.Weighted>
0.9437

> <Gold.Chemscore.Rot.Weighted>
7.3644

> <Gold.Chemscore.Internal.Correction.Weighted>
   9.000000E+99

> <Gold.Protein.RotatedTorsions>
[ 6907 6896 6895 6894 ] final  127.85 input  -60.11 | X-H torsion
[ 7974 7965 7964 7962 ] final -135.15 input  175.53 | X-H torsion
[ 8008 7997 7996 7995 ] final -171.45 input   59.86 | X-H torsion
[ 10167 10162 10161 10158 ] final    1.42 input  -65.29 | X-H torsion
[ 10718 10713 10712 10709 ] final -166.43 input   66.30 | X-H torsion
[ 10763 10752 10751 10750 ] final  -66.77 input  -60.55 | X-H torsion
[ 11005 11000 10999 10996 ] final  -13.71 input  -57.11 | X-H torsion

> <Gold.Protein.ActiveResidues>
 VAL166  LYS551  ARG553  GLY616  TRP617  ASP618  TYR619  PRO620  LYS621  CYS622 
 ASP623  PHE694  ASN695  SER759  ASP760  ASP761  ALA762  ILE779  LEU786  VAL792 
 PHE793  MET794  SER795  GLU796  ALA797  LYS798  CYS799  TRP800  GLU811  SER814 

> <Gold.Protein.RotatedAtoms>
  152.3774  133.6499  159.6133 H   0  0  0  0  0  0  0  0  0  0  0  0  # atno 6907 bound_to 6896
  150.7714  133.9171  159.3395 H   0  0  0  0  0  0  0  0  0  0  0  0  # atno 6908 bound_to 6896
  151.6983  135.0936  160.0297 H   0  0  0  0  0  0  0  0  0  0  0  0  # atno 6909 bound_to 6896
  144.9039  140.6807  143.5067 H   0  0  0  0  0  0  0  0  0  0  0  0  # atno 7974 bound_to 7965
  155.9317  140.1092  157.1126 H   0  0  0  0  0  0  0  0  0  0  0  0  # atno 8008 bound_to 7997
  154.4072  140.1236  156.4877 H   0  0  0  0  0  0  0  0  0  0  0  0  # atno 8009 bound_to 7997
  155.7071  140.3471  155.4960 H   0  0  0  0  0  0  0  0  0  0  0  0  # atno 8010 bound_to 7997
  140.6683  143.7118  150.7871 H   0  0  0  0  0  0  0  0  0  0  0  0  # atno 10167 bound_to 10162
  156.6678  130.9072  151.3039 H   0  0  0  0  0  0  0  0  0  0  0  0  # atno 10718 bound_to 10713
  154.3647  135.6108  153.5708 H   0  0  0  0  0  0  0  0  0  0  0  0  # atno 10763 bound_to 10752
  152.9792  135.5823  154.4592 H   0  0  0  0  0  0  0  0  0  0  0  0  # atno 10764 bound_to 10752
  154.4336  135.2848  155.1873 H   0  0  0  0  0  0  0  0  0  0  0  0  # atno 10765 bound_to 10752
  140.7789  133.8378  155.9274 H   0  0  0  0  0  0  0  0  0  0  0  0  # atno 11005 bound_to 11000
  145.3569  139.1691  143.4404 LP  0  0  0  0  0  0  0  0  0  0  0  0  # atno 17320 bound_to 7965
  146.3123  140.3627  142.8666 LP  0  0  0  0  0  0  0  0  0  0  0  0  # atno 17321 bound_to 7965
  140.0799  143.4978  152.2535 LP  0  0  0  0  0  0  0  0  0  0  0  0  # atno 17342 bound_to 10162
  139.5941  144.7560  151.3329 LP  0  0  0  0  0  0  0  0  0  0  0  0  # atno 17343 bound_to 10162
  157.7087  130.9415  150.1018 LP  0  0  0  0  0  0  0  0  0  0  0  0  # atno 17370 bound_to 10713
  156.1961  130.3657  149.8847 LP  0  0  0  0  0  0  0  0  0  0  0  0  # atno 17371 bound_to 10713
  140.9502  134.1789  157.4734 LP  0  0  0  0  0  0  0  0  0  0  0  0  # atno 17394 bound_to 11000
  139.8745  134.9906  156.5510 LP  0  0  0  0  0  0  0  0  0  0  0  0  # atno 17395 bound_to 11000

$$$$
