AV-unprocessed.smi:3270|AV-procd|sdf|12514|dock2
  -GOLD-   2272018423D 1   1.00000     0.00000
 Structure written by MMmdl.
 39 40  0  0  0  0  0  0  0  0  2 V2000
  148.6460  141.4978  155.2856 C   0  0  0  0  0  0  0  0  0  0  0  0
  148.8673  140.4252  154.1994 C   0  0  2  0  0  0  0  0  0  0  0  0
  147.5956  139.6186  153.8794 C   0  0  0  0  0  0  0  0  0  0  0  0
  146.6463  139.5963  154.6641 O   0  0  0  0  0  0  0  0  0  0  0  0
  147.5811  138.9681  152.7044 N   0  0  0  0  0  0  0  0  0  0  0  0
  146.4756  138.1555  152.2115 C   0  0  0  0  0  0  0  0  0  0  0  0
  146.2127  136.9483  153.1318 C   0  0  0  0  0  0  0  0  0  0  0  0
  146.2724  135.6535  152.4083 N   0  3  0  0  0  0  0  0  0  0  0  0
  146.1248  134.4946  153.3216 C   0  0  0  0  0  0  0  0  0  0  0  0
  146.2411  133.1733  152.5433 C   0  0  0  0  0  0  0  0  0  0  0  0
  145.2622  133.1413  151.5126 O   0  0  0  0  0  0  0  0  0  0  0  0
  145.4449  134.1943  150.5748 C   0  0  0  0  0  0  0  0  0  0  0  0
  145.3073  135.5523  151.2848 C   0  0  0  0  0  0  0  0  0  0  0  0
  149.9772  139.5395  154.5349 N   0  0  0  0  0  0  0  0  0  0  0  0
  150.0159  138.1616  154.4624 C   0  0  0  0  0  0  0  0  0  0  0  0
  151.2461  137.7615  154.8987 C   0  0  0  0  0  0  0  0  0  0  0  0
  151.9004  138.9808  155.2285 C   0  0  0  0  0  0  0  0  0  0  0  0
  151.1385  140.0411  155.0160 N   0  0  0  0  0  0  0  0  0  0  0  0
  147.8654  142.2009  154.9926 H   0  0  0  0  0  0  0  0  0  0  0  0
  149.5561  142.0746  155.4529 H   0  0  0  0  0  0  0  0  0  0  0  0
  148.3544  141.0577  156.2402 H   0  0  0  0  0  0  0  0  0  0  0  0
  149.1416  140.9493  153.2826 H   0  0  0  0  0  0  0  0  0  0  0  0
  148.3998  139.0333  152.1166 H   0  0  0  0  0  0  0  0  0  0  0  0
  145.6009  138.8026  152.1592 H   0  0  0  0  0  0  0  0  0  0  0  0
  146.6791  137.8245  151.1916 H   0  0  0  0  0  0  0  0  0  0  0  0
  146.9699  136.9425  153.9175 H   0  0  0  0  0  0  0  0  0  0  0  0
  145.2490  137.0473  153.6338 H   0  0  0  0  0  0  0  0  0  0  0  0
  146.8928  134.5310  154.0953 H   0  0  0  0  0  0  0  0  0  0  0  0
  145.1586  134.5470  153.8259 H   0  0  0  0  0  0  0  0  0  0  0  0
  147.2397  133.0558  152.1195 H   0  0  0  0  0  0  0  0  0  0  0  0
  146.0772  132.3279  153.2119 H   0  0  0  0  0  0  0  0  0  0  0  0
  146.4194  134.1033  150.0922 H   0  0  0  0  0  0  0  0  0  0  0  0
  144.6923  134.1027  149.7913 H   0  0  0  0  0  0  0  0  0  0  0  0
  144.2906  135.6725  151.6625 H   0  0  0  0  0  0  0  0  0  0  0  0
  145.4760  136.3495  150.5618 H   0  0  0  0  0  0  0  0  0  0  0  0
  149.1732  137.5855  154.1094 H   0  0  0  0  0  0  0  0  0  0  0  0
  151.6212  136.7516  154.9728 H   0  0  0  0  0  0  0  0  0  0  0  0
  152.8979  139.1261  155.6161 H   0  0  0  0  0  0  0  0  0  0  0  0
  147.1991  135.5853  152.0119 H   0  0  0  0  0  0  0  0  0  0  0  0
  1  2  1  0  0  0  0
  1 19  1  0  0  0  0
  1 20  1  0  0  0  0
  1 21  1  0  0  0  0
  2  3  1  0  0  0  0
  2 14  1  0  0  0  0
  2 22  1  0  0  0  0
  3  4  2  0  0  0  0
  3  5  1  0  0  0  0
  5  6  1  0  0  0  0
  5 23  1  0  0  0  0
  6  7  1  0  0  0  0
  6 24  1  0  0  0  0
  6 25  1  0  0  0  0
  7  8  1  0  0  0  0
  7 26  1  0  0  0  0
  7 27  1  0  0  0  0
  8 13  1  0  0  0  0
  8  9  1  0  0  0  0
  8 39  1  0  0  0  0
  9 10  1  0  0  0  0
  9 28  1  0  0  0  0
  9 29  1  0  0  0  0
 10 11  1  0  0  0  0
 10 30  1  0  0  0  0
 10 31  1  0  0  0  0
 11 12  1  0  0  0  0
 12 13  1  0  0  0  0
 12 32  1  0  0  0  0
 12 33  1  0  0  0  0
 13 34  1  0  0  0  0
 13 35  1  0  0  0  0
 14 18  1  0  0  0  0
 14 15  1  0  0  0  0
 15 16  2  0  0  0  0
 15 36  1  0  0  0  0
 16 17  1  0  0  0  0
 16 37  1  0  0  0  0
 17 18  2  0  0  0  0
 17 38  1  0  0  0  0
M  CHG  1   8   1
M  END
> <s_m_source_file>
AV-unprocessed.smi

> <i_m_source_file_index>
3270

> <i_lp_mmshare_version>
43012

> <i_f3d_flags>
0

> <s_epik_input>
bjFbY0hdW2NIXVtjSF1uMVtDQEhdKFtDSDNdKUMoPU8pW05IXVtDSDJdW0NIMl1OMltDSDJdW0NIMl1PW0NIMl1bQ0gyXTI=

> <s_epik_cmdline>
J2VwaWtfcHl0aG9uJywgJy1waCcsICc3LjAnLCAnLXRuJywgJzgnLCAnLW1hJywgJzIwMCcsICctbWV0YWxfYmluZGluZycsICctaW1hZScsICc8aW5maWxlLm1hZT4nLCAnLW9tYWUnLCAnPG91dGZpbGUubWFlPic=

> <r_lp_tautomer_probability>
1

> <r_epik_Ionization_Penalty>
0.73255

> <r_epik_Ionization_Penalty_Charging>
0.732531

> <r_epik_Ionization_Penalty_Neutral>
1.96965e-05

> <r_epik_State_Penalty>
0.757939

> <r_epik_Charging_Adjusted_Penalty>
1.49047

> <i_epik_Tot_Q>
1

> <i_epik_Tot_abs_Q>
1

> <r_epik_Metal_State_Penalty>
0.757952

> <b_epik_Metal_Only>
0

> <s_lp_Force_Field>
OPLS_2005

> <r_lp_Energy>
19.6504

> <b_lp_Chiralities_Consistent>
1

> <s_lp_Variant>
AV-unprocessed.smi:3270-3

> <Gold.Version>
5.8.1

> <Gold.Id.Protein>
6NUR|6NUR_protein|mol2

> <Gold.PLP.Fitness>
44.8216

> <Gold.PLP.PLP>
-31.9353

> <Gold.PLP.part.hbond>
-3.3788

> <Gold.PLP.part.metal>
0.0000

> <Gold.PLP.part.buried>
-1.0822

> <Gold.PLP.part.nonpolar>
-28.5397

> <Gold.PLP.part.repulsive>
0.3211

> <Gold.PLP.ligand.clash>
0.0000

> <Gold.PLP.ligand.torsion>
1.0258

> <Gold.PLP.Chemscore.Hbond>
4.0000

> <Gold.PLP.Chemscore.CHOScore>
0.9243

> <Gold.PLP.Chemscore.Metal>
0.0000

> <Gold.Chemscore.Hbonds>
donor molecule, donor type, donor heavy atom, donor atom, acceptor molecule, acceptor atom, score
      L1  H     5    23       P1  7957  1.00
      L1  H     8    39       P1  7948  2.00
      P1  H  7989  7998       L1    18  0.85
      L1  C    15    36       P1  7948  0.75

> <Gold.PLP.Chemscore.Internal.Correction>
0.1651

> <Gold.Rescore>
     Score         DG    S(hbond)    S(metal)    S(lipo)     H(rot)  DE(clash)    DE(int)     intcor
     13.67     -15.22       2.02        0.00      67.36       1.91       0.13       1.42       ----

> <Gold.Chemscore.Fitness>
13.6671

> <Gold.Chemscore.DG>
-15.2157

> <Gold.Chemscore.ZeroCoef>
-5.4800

> <Gold.Chemscore.Hbond>
2.0199

> <Gold.Chemscore.Metal>
0.0000

> <Gold.Chemscore.Lipo>
67.3596

> <Gold.Chemscore.Internal_Hbond>
0.0000

> <Gold.Chemscore.DEClash>
0.1291

> <Gold.Chemscore.DEInternal>
1.4194

> <Gold.Chemscore.Rot>
1.9109

> <Gold.Chemscore.Internal.Correction>
   9.000000E+99

> <Gold.Chemscore.Hbonds>
donor molecule, donor type, donor heavy atom, donor atom, acceptor molecule, acceptor atom, score
      L1  H     5    23       P1  7957  0.94
      L1  H     8    39       P1  7948  0.96
      P1  H  7989  7998       L1    18  0.11

> <Gold.Chemscore.Hbond.Weighted>
-6.7465

> <Gold.Chemscore.Metal.Weighted>
-0.0000

> <Gold.Chemscore.Lipo.Weighted>
-7.8811

> <Gold.Chemscore.Internal_Hbond.Weighted>
0.0000

> <Gold.Chemscore.DEClash.Weighted>
0.1291

> <Gold.Chemscore.DEInternal.Weighted>
1.4194

> <Gold.Chemscore.Rot.Weighted>
4.8919

> <Gold.Chemscore.Internal.Correction.Weighted>
   9.000000E+99

> <Gold.Protein.RotatedTorsions>
[ 6907 6896 6895 6894 ] final   96.91 input  -60.11 | X-H torsion
[ 7974 7965 7964 7962 ] final -116.61 input  175.53 | X-H torsion
[ 8008 7997 7996 7995 ] final  176.81 input   59.86 | X-H torsion
[ 10167 10162 10161 10158 ] final    7.19 input  -65.29 | X-H torsion
[ 10718 10713 10712 10709 ] final  100.28 input   66.30 | X-H torsion
[ 10763 10752 10751 10750 ] final   70.38 input  -60.55 | X-H torsion
[ 11005 11000 10999 10996 ] final   97.69 input  -57.11 | X-H torsion

> <Gold.Protein.ActiveResidues>
 VAL166  LYS551  ARG553  GLY616  TRP617  ASP618  TYR619  PRO620  LYS621  CYS622 
 ASP623  PHE694  ASN695  SER759  ASP760  ASP761  ALA762  ILE779  LEU786  VAL792 
 PHE793  MET794  SER795  GLU796  ALA797  LYS798  CYS799  TRP800  GLU811  SER814 

> <Gold.Protein.RotatedAtoms>
  152.5430  134.0814  159.8236 H   0  0  0  0  0  0  0  0  0  0  0  0  # atno 6907 bound_to 6896
  151.0915  133.5305  159.2622 H   0  0  0  0  0  0  0  0  0  0  0  0  # atno 6908 bound_to 6896
  151.2094  135.0484  159.8959 H   0  0  0  0  0  0  0  0  0  0  0  0  # atno 6909 bound_to 6896
  145.0948  140.8513  143.3961 H   0  0  0  0  0  0  0  0  0  0  0  0  # atno 7974 bound_to 7965
  156.0725  140.1374  156.9812 H   0  0  0  0  0  0  0  0  0  0  0  0  # atno 8008 bound_to 7997
  154.4539  140.0969  156.6752 H   0  0  0  0  0  0  0  0  0  0  0  0  # atno 8009 bound_to 7997
  155.5206  140.3456  155.4408 H   0  0  0  0  0  0  0  0  0  0  0  0  # atno 8010 bound_to 7997
  140.6386  143.7829  150.7394 H   0  0  0  0  0  0  0  0  0  0  0  0  # atno 10167 bound_to 10162
  157.6857  131.0694  150.5077 H   0  0  0  0  0  0  0  0  0  0  0  0  # atno 10718 bound_to 10713
  153.0339  135.5176  154.7433 H   0  0  0  0  0  0  0  0  0  0  0  0  # atno 10763 bound_to 10752
  154.6425  135.2914  155.0088 H   0  0  0  0  0  0  0  0  0  0  0  0  # atno 10764 bound_to 10752
  154.1000  135.6637  153.4919 H   0  0  0  0  0  0  0  0  0  0  0  0  # atno 10765 bound_to 10752
  139.8775  134.9013  156.4345 H   0  0  0  0  0  0  0  0  0  0  0  0  # atno 11005 bound_to 11000
  145.1024  139.2813  143.5679 LP  0  0  0  0  0  0  0  0  0  0  0  0  # atno 17320 bound_to 7965
  146.3531  140.0595  142.8630 LP  0  0  0  0  0  0  0  0  0  0  0  0  # atno 17321 bound_to 7965
  140.1455  143.4403  152.2166 LP  0  0  0  0  0  0  0  0  0  0  0  0  # atno 17342 bound_to 10162
  139.5595  144.7396  151.4196 LP  0  0  0  0  0  0  0  0  0  0  0  0  # atno 17343 bound_to 10162
  156.5396  130.4205  149.6161 LP  0  0  0  0  0  0  0  0  0  0  0  0  # atno 17370 bound_to 10713
  156.2997  130.7170  151.2039 LP  0  0  0  0  0  0  0  0  0  0  0  0  # atno 17371 bound_to 10713
  140.9043  133.7757  155.9717 LP  0  0  0  0  0  0  0  0  0  0  0  0  # atno 17394 bound_to 11000
  140.8616  134.2833  157.5231 LP  0  0  0  0  0  0  0  0  0  0  0  0  # atno 17395 bound_to 11000

$$$$
