AV-unprocessed.smi:2998|AV-procd|sdf|11416|dock7
  -GOLD-   2272016343D 1   1.00000     0.00000
 Structure written by MMmdl.
 41 43  0  0  0  0  0  0  0  0  1 V2000
  151.5904  136.6079  155.9973 O   0  0  0  0  0  0  0  0  0  0  0  0
  150.8349  136.9228  155.0767 C   0  0  0  0  0  0  0  0  0  0  0  0
  150.9950  138.2670  154.3509 C   0  0  0  0  0  0  0  0  0  0  0  0
  151.0182  139.4261  155.2622 N   0  0  0  0  0  0  0  0  0  0  0  0
  149.9778  140.3650  155.1180 C   0  0  0  0  0  0  0  0  0  0  0  0
  149.8972  141.4148  155.8717 N   0  0  0  0  0  0  0  0  0  0  0  0
  150.8653  141.6404  156.8572 C   0  0  0  0  0  0  0  0  0  0  0  0
  150.7370  142.9017  157.7004 C   0  0  0  0  0  0  0  0  0  0  0  0
  151.7294  144.0354  157.3907 C   0  0  0  0  0  0  0  0  0  0  0  0
  151.8088  144.2901  158.9001 C   0  0  0  0  0  0  0  0  0  0  0  0
  151.3664  142.8364  159.1015 C   0  0  0  0  0  0  0  0  0  0  0  0
  151.8921  140.7736  157.0251 C   0  0  0  0  0  0  0  0  0  0  0  0
  152.0059  139.5755  156.1936 C   0  0  0  0  0  0  0  0  0  0  0  0
  152.9210  138.7621  156.3235 O   0  0  0  0  0  0  0  0  0  0  0  0
  149.8466  136.1314  154.6343 N   0  0  0  0  0  0  0  0  0  0  0  0
  149.5123  134.8194  155.1813 C   0  0  0  0  0  0  0  0  0  0  0  0
  149.7358  133.7235  154.1239 C   0  0  0  0  0  0  0  0  0  0  0  0
  148.3418  133.2962  153.6652 C   0  0  0  0  0  0  0  0  0  0  0  0
  147.4737  133.4718  154.9070 C   0  0  0  0  0  0  0  0  0  0  0  0
  148.0238  134.7306  155.5815 C   0  0  0  0  0  0  0  0  0  0  0  0
  151.8995  138.2163  153.7420 H   0  0  0  0  0  0  0  0  0  0  0  0
  150.1802  138.3852  153.6338 H   0  0  0  0  0  0  0  0  0  0  0  0
  149.2538  140.1476  154.3308 H   0  0  0  0  0  0  0  0  0  0  0  0
  149.7070  143.2614  157.7344 H   0  0  0  0  0  0  0  0  0  0  0  0
  152.6794  143.6881  156.9799 H   0  0  0  0  0  0  0  0  0  0  0  0
  151.3148  144.8595  156.8091 H   0  0  0  0  0  0  0  0  0  0  0  0
  152.8069  144.5207  159.2734 H   0  0  0  0  0  0  0  0  0  0  0  0
  151.0675  145.0111  159.2486 H   0  0  0  0  0  0  0  0  0  0  0  0
  150.6568  142.6823  159.9149 H   0  0  0  0  0  0  0  0  0  0  0  0
  152.2120  142.1493  159.1670 H   0  0  0  0  0  0  0  0  0  0  0  0
  152.6398  140.9600  157.7823 H   0  0  0  0  0  0  0  0  0  0  0  0
  149.2763  136.4654  153.8708 H   0  0  0  0  0  0  0  0  0  0  0  0
  150.1500  134.6142  156.0432 H   0  0  0  0  0  0  0  0  0  0  0  0
  150.3640  134.0435  153.2913 H   0  0  0  0  0  0  0  0  0  0  0  0
  150.2335  132.8722  154.5901 H   0  0  0  0  0  0  0  0  0  0  0  0
  147.9928  133.9630  152.8756 H   0  0  0  0  0  0  0  0  0  0  0  0
  148.3203  132.2776  153.2768 H   0  0  0  0  0  0  0  0  0  0  0  0
  146.4122  133.5517  154.6702 H   0  0  0  0  0  0  0  0  0  0  0  0
  147.6036  132.6139  155.5679 H   0  0  0  0  0  0  0  0  0  0  0  0
  147.8923  134.7001  156.6635 H   0  0  0  0  0  0  0  0  0  0  0  0
  147.4727  135.5993  155.2171 H   0  0  0  0  0  0  0  0  0  0  0  0
  1  2  2  0  0  0  0
  2  3  1  0  0  0  0
  2 15  1  0  0  0  0
  3  4  1  0  0  0  0
  3 21  1  0  0  0  0
  3 22  1  0  0  0  0
  4 13  1  0  0  0  0
  4  5  1  0  0  0  0
  5  6  2  0  0  0  0
  5 23  1  0  0  0  0
  6  7  1  0  0  0  0
  7  8  1  0  0  0  0
  7 12  2  0  0  0  0
  8 11  1  0  0  0  0
  8  9  1  0  0  0  0
  8 24  1  0  0  0  0
  9 10  1  0  0  0  0
  9 25  1  0  0  0  0
  9 26  1  0  0  0  0
 10 11  1  0  0  0  0
 10 27  1  0  0  0  0
 10 28  1  0  0  0  0
 11 29  1  0  0  0  0
 11 30  1  0  0  0  0
 12 13  1  0  0  0  0
 12 31  1  0  0  0  0
 13 14  2  0  0  0  0
 15 16  1  0  0  0  0
 15 32  1  0  0  0  0
 16 20  1  0  0  0  0
 16 17  1  0  0  0  0
 16 33  1  0  0  0  0
 17 18  1  0  0  0  0
 17 34  1  0  0  0  0
 17 35  1  0  0  0  0
 18 19  1  0  0  0  0
 18 36  1  0  0  0  0
 18 37  1  0  0  0  0
 19 20  1  0  0  0  0
 19 38  1  0  0  0  0
 19 39  1  0  0  0  0
 20 40  1  0  0  0  0
 20 41  1  0  0  0  0
M  END
> <s_m_source_file>
AV-unprocessed.smi

> <i_m_source_file_index>
2998

> <i_lp_mmshare_version>
43012

> <i_f3d_flags>
0

> <s_epik_input>
W0NIMl0xW0NIMl1bQ0gyXVtDSDJdW0NIXTFbTkhdQyg9TylbQ0gyXW4yW2NIXW5jKFtjSF1jMj1PKVtDSF0zW0NIMl1bQ0gyXVtDSDJdMw==

> <s_epik_cmdline>
J2VwaWtfcHl0aG9uJywgJy1waCcsICc3LjAnLCAnLXRuJywgJzgnLCAnLW1hJywgJzIwMCcsICctbWV0YWxfYmluZGluZycsICctaW1hZScsICc8aW5maWxlLm1hZT4nLCAnLW9tYWUnLCAnPG91dGZpbGUubWFlPic=

> <r_lp_tautomer_probability>
1

> <r_epik_Ionization_Penalty>
7.51496e-06

> <r_epik_Ionization_Penalty_Charging>
8.69507e-09

> <r_epik_Ionization_Penalty_Neutral>
7.50627e-06

> <r_epik_State_Penalty>
-0

> <r_epik_Charging_Adjusted_Penalty>
8.69507e-09

> <i_epik_Tot_Q>
0

> <i_epik_Tot_abs_Q>
0

> <r_epik_Metal_State_Penalty>
-0

> <b_epik_Metal_Only>
0

> <s_lp_Force_Field>
OPLS_2005

> <r_lp_Energy>
32.6408

> <b_lp_Chiralities_Consistent>
1

> <s_lp_Variant>
AV-unprocessed.smi:2998-1

> <Gold.Version>
5.8.1

> <Gold.Id.Protein>
6NUR|6NUR_protein|mol2

> <Gold.PLP.Fitness>
46.3900

> <Gold.PLP.PLP>
-38.9695

> <Gold.PLP.part.hbond>
-3.0133

> <Gold.PLP.part.metal>
0.0000

> <Gold.PLP.part.buried>
-5.6349

> <Gold.PLP.part.nonpolar>
-32.0715

> <Gold.PLP.part.repulsive>
0.1653

> <Gold.PLP.ligand.clash>
0.0000

> <Gold.PLP.ligand.torsion>
0.6065

> <Gold.PLP.Chemscore.Hbond>
2.7520

> <Gold.PLP.Chemscore.CHOScore>
0.0000

> <Gold.PLP.Chemscore.Metal>
0.0000

> <Gold.Chemscore.Hbonds>
donor molecule, donor type, donor heavy atom, donor atom, acceptor molecule, acceptor atom, score
      L1  H    15    32       P1  7948  0.83
      P1  H  7997  8009       L1    14  0.85
      P1  H 10752 10765       L1     1  0.70

> <Gold.PLP.Chemscore.Internal.Correction>
0.3775

> <Gold.Rescore>
     Score         DG    S(hbond)    S(metal)    S(lipo)     H(rot)  DE(clash)    DE(int)     intcor
     15.29     -17.82       1.93        0.00      86.00       1.63       0.37       2.16       ----

> <Gold.Chemscore.Fitness>
15.2869

> <Gold.Chemscore.DG>
-17.8186

> <Gold.Chemscore.ZeroCoef>
-5.4800

> <Gold.Chemscore.Hbond>
1.9302

> <Gold.Chemscore.Metal>
0.0000

> <Gold.Chemscore.Lipo>
85.9981

> <Gold.Chemscore.Internal_Hbond>
0.0000

> <Gold.Chemscore.DEClash>
0.3677

> <Gold.Chemscore.DEInternal>
2.1640

> <Gold.Chemscore.Rot>
1.6290

> <Gold.Chemscore.Internal.Correction>
   9.000000E+99

> <Gold.Chemscore.Hbonds>
donor molecule, donor type, donor heavy atom, donor atom, acceptor molecule, acceptor atom, score
      L1  H    15    32       P1  7948  0.72
      P1  H  7997  8009       L1    14  0.14
      P1  H 10752 10765       L1     1  0.14

> <Gold.Chemscore.Hbond.Weighted>
-6.4470

> <Gold.Chemscore.Metal.Weighted>
-0.0000

> <Gold.Chemscore.Lipo.Weighted>
-10.0618

> <Gold.Chemscore.Internal_Hbond.Weighted>
0.0000

> <Gold.Chemscore.DEClash.Weighted>
0.3677

> <Gold.Chemscore.DEInternal.Weighted>
2.1640

> <Gold.Chemscore.Rot.Weighted>
4.1702

> <Gold.Chemscore.Internal.Correction.Weighted>
   9.000000E+99

> <Gold.Protein.RotatedTorsions>
[ 6907 6896 6895 6894 ] final    2.13 input  -60.11 | X-H torsion
[ 7974 7965 7964 7962 ] final  -16.89 input  175.53 | X-H torsion
[ 8008 7997 7996 7995 ] final -175.64 input   59.86 | X-H torsion
[ 10167 10162 10161 10158 ] final   88.43 input  -65.29 | X-H torsion
[ 10718 10713 10712 10709 ] final    4.26 input   66.30 | X-H torsion
[ 10763 10752 10751 10750 ] final -164.66 input  -60.55 | X-H torsion
[ 11005 11000 10999 10996 ] final   13.75 input  -57.11 | X-H torsion

> <Gold.Protein.ActiveResidues>
 VAL166  LYS551  ARG553  GLY616  TRP617  ASP618  TYR619  PRO620  LYS621  CYS622 
 ASP623  PHE694  ASN695  SER759  ASP760  ASP761  ALA762  ILE779  LEU786  VAL792 
 PHE793  MET794  SER795  GLU796  ALA797  LYS798  CYS799  TRP800  GLU811  SER814 

> <Gold.Protein.RotatedAtoms>
  151.6039  135.1045  160.0066 H   0  0  0  0  0  0  0  0  0  0  0  0  # atno 6907 bound_to 6896
  152.4243  133.7165  159.6519 H   0  0  0  0  0  0  0  0  0  0  0  0  # atno 6908 bound_to 6896
  150.8132  133.8312  159.3195 H   0  0  0  0  0  0  0  0  0  0  0  0  # atno 6909 bound_to 6896
  146.1967  140.3700  142.8438 H   0  0  0  0  0  0  0  0  0  0  0  0  # atno 7974 bound_to 7965
  155.9850  140.1189  157.0691 H   0  0  0  0  0  0  0  0  0  0  0  0  # atno 8008 bound_to 7997
  154.4194  140.1137  156.5556 H   0  0  0  0  0  0  0  0  0  0  0  0  # atno 8009 bound_to 7997
  155.6419  140.3473  155.4720 H   0  0  0  0  0  0  0  0  0  0  0  0  # atno 8010 bound_to 7997
  139.8674  144.6511  150.8989 H   0  0  0  0  0  0  0  0  0  0  0  0  # atno 10167 bound_to 10162
  156.8901  130.5684  149.5650 H   0  0  0  0  0  0  0  0  0  0  0  0  # atno 10718 bound_to 10713
  154.7007  135.2987  154.9346 H   0  0  0  0  0  0  0  0  0  0  0  0  # atno 10763 bound_to 10752
  154.0279  135.6674  153.4782 H   0  0  0  0  0  0  0  0  0  0  0  0  # atno 10764 bound_to 10752
  153.0679  135.5078  154.8149 H   0  0  0  0  0  0  0  0  0  0  0  0  # atno 10765 bound_to 10752
  140.4772  134.0971  155.7744 H   0  0  0  0  0  0  0  0  0  0  0  0  # atno 11005 bound_to 11000
  144.8595  140.7119  143.6116 LP  0  0  0  0  0  0  0  0  0  0  0  0  # atno 17320 bound_to 7965
  145.3621  139.1679  143.4378 LP  0  0  0  0  0  0  0  0  0  0  0  0  # atno 17321 bound_to 7965
  140.7766  143.3693  151.1680 LP  0  0  0  0  0  0  0  0  0  0  0  0  # atno 17342 bound_to 10162
  139.7316  143.9063  152.3021 LP  0  0  0  0  0  0  0  0  0  0  0  0  # atno 17343 bound_to 10162
  156.0633  130.5682  150.9238 LP  0  0  0  0  0  0  0  0  0  0  0  0  # atno 17370 bound_to 10713
  157.6089  131.0937  150.8830 LP  0  0  0  0  0  0  0  0  0  0  0  0  # atno 17371 bound_to 10713
  141.1549  133.8902  157.2004 LP  0  0  0  0  0  0  0  0  0  0  0  0  # atno 17394 bound_to 11000
  139.9848  135.0085  156.9837 LP  0  0  0  0  0  0  0  0  0  0  0  0  # atno 17395 bound_to 11000

$$$$
