AV-unprocessed.smi:2850|AV-procd|sdf|10969|dock2
  -GOLD-   2272015423D 1   1.00000     0.00000
 Structure written by MMmdl.
 44 45  0  0  0  0  0  0  0  0  1 V2000
  149.9406  141.8496  157.5399 C   0  0  0  0  0  0  0  0  0  0  0  0
  150.5923  141.0393  156.0527 S   0  0  0  0  0  0  0  0  0  0  0  0
  149.2073  140.5976  155.0475 C   0  0  0  0  0  0  0  0  0  0  0  0
  148.3135  141.5811  154.5872 C   0  0  0  0  0  0  0  0  0  0  0  0
  147.2382  141.1454  153.7935 C   0  0  0  0  0  0  0  0  0  0  0  0
  147.1414  139.7656  153.5212 C   0  0  0  0  0  0  0  0  0  0  0  0
  146.0788  139.3035  152.7338 N   0  0  0  0  0  0  0  0  0  0  0  0
  146.2112  138.0839  151.9494 C   0  0  0  0  0  0  0  0  0  0  0  0
  145.2694  136.9825  152.4535 C   0  0  2  0  0  0  0  0  0  0  0  0
  145.1860  135.8064  151.4607 C   0  0  0  0  0  0  0  0  0  0  0  0
  144.2358  134.7864  151.8918 N   0  0  0  0  0  0  0  0  0  0  0  0
  144.1920  133.6774  150.9367 C   0  0  0  0  0  0  0  0  0  0  0  0
  145.5584  133.1827  150.4148 C   0  0  0  0  0  0  0  0  0  0  0  0
  145.3995  132.1891  149.2522 C   0  0  0  0  0  0  0  0  0  0  0  0
  146.3702  132.5500  151.5544 C   0  0  0  0  0  0  0  0  0  0  0  0
  142.9309  135.4117  152.0931 C   0  0  0  0  0  0  0  0  0  0  0  0
  143.0083  136.5959  153.0711 C   0  0  0  0  0  0  0  0  0  0  0  0
  143.9655  137.5395  152.6032 O   0  0  0  0  0  0  0  0  0  0  0  0
  148.0446  138.8738  154.0027 N   0  0  0  0  0  0  0  0  0  0  0  0
  149.0694  139.2838  154.7586 N   0  0  0  0  0  0  0  0  0  0  0  0
  150.7597  142.1440  158.1958 H   0  0  0  0  0  0  0  0  0  0  0  0
  149.2862  141.1725  158.0890 H   0  0  0  0  0  0  0  0  0  0  0  0
  149.3759  142.7428  157.2720 H   0  0  0  0  0  0  0  0  0  0  0  0
  148.4453  142.6248  154.8319 H   0  0  0  0  0  0  0  0  0  0  0  0
  146.5141  141.8480  153.4078 H   0  0  0  0  0  0  0  0  0  0  0  0
  145.2594  139.8789  152.6041 H   0  0  0  0  0  0  0  0  0  0  0  0
  146.0125  138.2961  150.8980 H   0  0  0  0  0  0  0  0  0  0  0  0
  147.2438  137.7395  152.0200 H   0  0  0  0  0  0  0  0  0  0  0  0
  145.6232  136.6153  153.4189 H   0  0  0  0  0  0  0  0  0  0  0  0
  144.9018  136.1820  150.4761 H   0  0  0  0  0  0  0  0  0  0  0  0
  146.1757  135.3617  151.3490 H   0  0  0  0  0  0  0  0  0  0  0  0
  143.6545  132.8408  151.3860 H   0  0  0  0  0  0  0  0  0  0  0  0
  143.5973  133.9782  150.0730 H   0  0  0  0  0  0  0  0  0  0  0  0
  146.1372  134.0333  150.0565 H   0  0  0  0  0  0  0  0  0  0  0  0
  144.8253  131.3131  149.5551 H   0  0  0  0  0  0  0  0  0  0  0  0
  146.3699  131.8440  148.8945 H   0  0  0  0  0  0  0  0  0  0  0  0
  144.8858  132.6471  148.4066 H   0  0  0  0  0  0  0  0  0  0  0  0
  145.8642  131.6749  151.9634 H   0  0  0  0  0  0  0  0  0  0  0  0
  146.5215  133.2582  152.3694 H   0  0  0  0  0  0  0  0  0  0  0  0
  147.3545  132.2334  151.2080 H   0  0  0  0  0  0  0  0  0  0  0  0
  142.5350  135.7583  151.1371 H   0  0  0  0  0  0  0  0  0  0  0  0
  142.2177  134.6880  152.4849 H   0  0  0  0  0  0  0  0  0  0  0  0
  142.0371  137.0841  153.1531 H   0  0  0  0  0  0  0  0  0  0  0  0
  143.2817  136.2549  154.0708 H   0  0  0  0  0  0  0  0  0  0  0  0
  1  2  1  0  0  0  0
  1 21  1  0  0  0  0
  1 22  1  0  0  0  0
  1 23  1  0  0  0  0
  2  3  1  0  0  0  0
  3 20  1  0  0  0  0
  3  4  2  0  0  0  0
  4  5  1  0  0  0  0
  4 24  1  0  0  0  0
  5  6  2  0  0  0  0
  5 25  1  0  0  0  0
  6  7  1  0  0  0  0
  6 19  1  0  0  0  0
  7  8  1  0  0  0  0
  7 26  1  0  0  0  0
  8  9  1  0  0  0  0
  8 27  1  0  0  0  0
  8 28  1  0  0  0  0
  9 18  1  0  0  0  0
  9 10  1  0  0  0  0
  9 29  1  0  0  0  0
 10 11  1  0  0  0  0
 10 30  1  0  0  0  0
 10 31  1  0  0  0  0
 11 12  1  0  0  0  0
 11 16  1  0  0  0  0
 12 13  1  0  0  0  0
 12 32  1  0  0  0  0
 12 33  1  0  0  0  0
 13 14  1  0  0  0  0
 13 15  1  0  0  0  0
 13 34  1  0  0  0  0
 14 35  1  0  0  0  0
 14 36  1  0  0  0  0
 14 37  1  0  0  0  0
 15 38  1  0  0  0  0
 15 39  1  0  0  0  0
 15 40  1  0  0  0  0
 16 17  1  0  0  0  0
 16 41  1  0  0  0  0
 16 42  1  0  0  0  0
 17 18  1  0  0  0  0
 17 43  1  0  0  0  0
 17 44  1  0  0  0  0
 19 20  2  0  0  0  0
M  END
> <s_m_source_file>
AV-unprocessed.smi

> <i_m_source_file_index>
2850

> <i_lp_mmshare_version>
43012

> <i_f3d_flags>
0

> <s_epik_input>
W0NIM11TYzFbY0hdW2NIXWMobm4xKVtOSF1bQ0gyXVtDQEBIXTJbQ0gyXU4oW0NIMl1bQ0gyXU8yKVtDSDJdW0NIXShbQ0gzXSlbQ0gzXQ==

> <s_epik_cmdline>
J2VwaWtfcHl0aG9uJywgJy1waCcsICc3LjAnLCAnLXRuJywgJzgnLCAnLW1hJywgJzIwMCcsICctbWV0YWxfYmluZGluZycsICctaW1hZScsICc8aW5maWxlLm1hZT4nLCAnLW9tYWUnLCAnPG91dGZpbGUubWFlPic=

> <r_lp_tautomer_probability>
0.999978

> <r_epik_Ionization_Penalty>
1.20939

> <r_epik_Ionization_Penalty_Charging>
0

> <r_epik_Ionization_Penalty_Neutral>
1.20939

> <r_epik_State_Penalty>
1.27042

> <r_epik_Charging_Adjusted_Penalty>
1.27042

> <i_epik_Tot_Q>
0

> <i_epik_Tot_abs_Q>
0

> <r_epik_Metal_State_Penalty>
1.26998

> <b_epik_Metal_Only>
0

> <s_lp_Force_Field>
OPLS_2005

> <r_lp_Energy>
30.5151

> <b_lp_Chiralities_Consistent>
1

> <s_lp_Variant>
AV-unprocessed.smi:2850-5

> <Gold.Version>
5.8.1

> <Gold.Id.Protein>
6NUR|6NUR_protein|mol2

> <Gold.PLP.Fitness>
40.6033

> <Gold.PLP.PLP>
-38.2178

> <Gold.PLP.part.hbond>
-1.0000

> <Gold.PLP.part.metal>
0.0000

> <Gold.PLP.part.buried>
-5.8806

> <Gold.PLP.part.nonpolar>
-33.5483

> <Gold.PLP.part.repulsive>
1.6748

> <Gold.PLP.ligand.clash>
0.0000

> <Gold.PLP.ligand.torsion>
0.3836

> <Gold.PLP.Chemscore.Hbond>
1.0000

> <Gold.PLP.Chemscore.CHOScore>
0.0000

> <Gold.PLP.Chemscore.Metal>
0.0000

> <Gold.Chemscore.Hbonds>
donor molecule, donor type, donor heavy atom, donor atom, acceptor molecule, acceptor atom, score
      L1  H     7    26       P1 10175  1.00

> <Gold.PLP.Chemscore.Internal.Correction>
0.1526

> <Gold.Rescore>
     Score         DG    S(hbond)    S(metal)    S(lipo)     H(rot)  DE(clash)    DE(int)     intcor
     15.17     -15.92       1.00        0.00      94.65       1.55       0.15       0.60       ----

> <Gold.Chemscore.Fitness>
15.1737

> <Gold.Chemscore.DG>
-15.9216

> <Gold.Chemscore.ZeroCoef>
-5.4800

> <Gold.Chemscore.Hbond>
0.9967

> <Gold.Chemscore.Metal>
0.0000

> <Gold.Chemscore.Lipo>
94.6469

> <Gold.Chemscore.Internal_Hbond>
0.0000

> <Gold.Chemscore.DEClash>
0.1499

> <Gold.Chemscore.DEInternal>
0.5980

> <Gold.Chemscore.Rot>
1.5473

> <Gold.Chemscore.Internal.Correction>
   9.000000E+99

> <Gold.Chemscore.Hbonds>
donor molecule, donor type, donor heavy atom, donor atom, acceptor molecule, acceptor atom, score
      L1  H     7    26       P1 10175  0.99

> <Gold.Chemscore.Hbond.Weighted>
-3.3289

> <Gold.Chemscore.Metal.Weighted>
-0.0000

> <Gold.Chemscore.Lipo.Weighted>
-11.0737

> <Gold.Chemscore.Internal_Hbond.Weighted>
0.0000

> <Gold.Chemscore.DEClash.Weighted>
0.1499

> <Gold.Chemscore.DEInternal.Weighted>
0.5980

> <Gold.Chemscore.Rot.Weighted>
3.9610

> <Gold.Chemscore.Internal.Correction.Weighted>
   9.000000E+99

> <Gold.Protein.RotatedTorsions>
[ 6907 6896 6895 6894 ] final  -15.70 input  -60.11 | X-H torsion
[ 7974 7965 7964 7962 ] final   10.78 input  175.53 | X-H torsion
[ 8008 7997 7996 7995 ] final -168.66 input   59.86 | X-H torsion
[ 10167 10162 10161 10158 ] final   41.11 input  -65.29 | X-H torsion
[ 10718 10713 10712 10709 ] final -155.87 input   66.30 | X-H torsion
[ 10763 10752 10751 10750 ] final   10.19 input  -60.55 | X-H torsion
[ 11005 11000 10999 10996 ] final -178.04 input  -57.11 | X-H torsion

> <Gold.Protein.ActiveResidues>
 VAL166  LYS551  ARG553  GLY616  TRP617  ASP618  TYR619  PRO620  LYS621  CYS622 
 ASP623  PHE694  ASN695  SER759  ASP760  ASP761  ALA762  ILE779  LEU786  VAL792 
 PHE793  MET794  SER795  GLU796  ALA797  LYS798  CYS799  TRP800  GLU811  SER814 

> <Gold.Protein.RotatedAtoms>
  151.3199  135.0816  159.9301 H   0  0  0  0  0  0  0  0  0  0  0  0  # atno 6907 bound_to 6896
  152.5259  133.9650  159.7745 H   0  0  0  0  0  0  0  0  0  0  0  0  # atno 6908 bound_to 6896
  150.9969  133.6042  159.2730 H   0  0  0  0  0  0  0  0  0  0  0  0  # atno 6909 bound_to 6896
  146.2382  139.9582  142.8462 H   0  0  0  0  0  0  0  0  0  0  0  0  # atno 7974 bound_to 7965
  155.8944  140.1030  157.1395 H   0  0  0  0  0  0  0  0  0  0  0  0  # atno 8008 bound_to 7997
  154.4018  140.1304  156.4420 H   0  0  0  0  0  0  0  0  0  0  0  0  # atno 8009 bound_to 7997
  155.7496  140.3465  155.5146 H   0  0  0  0  0  0  0  0  0  0  0  0  # atno 8010 bound_to 7997
  140.3676  144.2147  150.6134 H   0  0  0  0  0  0  0  0  0  0  0  0  # atno 10167 bound_to 10162
  156.5188  130.8468  151.2674 H   0  0  0  0  0  0  0  0  0  0  0  0  # atno 10718 bound_to 10713
  153.2058  135.6862  153.8174 H   0  0  0  0  0  0  0  0  0  0  0  0  # atno 10763 bound_to 10752
  153.7424  135.3236  155.3307 H   0  0  0  0  0  0  0  0  0  0  0  0  # atno 10764 bound_to 10752
  154.8196  135.4661  154.0844 H   0  0  0  0  0  0  0  0  0  0  0  0  # atno 10765 bound_to 10752
  140.4342  134.6491  157.4726 H   0  0  0  0  0  0  0  0  0  0  0  0  # atno 11005 bound_to 11000
  145.1796  140.9760  143.4274 LP  0  0  0  0  0  0  0  0  0  0  0  0  # atno 17320 bound_to 7965
  144.9954  139.3649  143.6194 LP  0  0  0  0  0  0  0  0  0  0  0  0  # atno 17321 bound_to 7965
  140.5066  143.2302  151.8599 LP  0  0  0  0  0  0  0  0  0  0  0  0  # atno 17342 bound_to 10162
  139.4807  144.4999  151.9074 LP  0  0  0  0  0  0  0  0  0  0  0  0  # atno 17343 bound_to 10162
  157.7440  130.9924  150.2637 LP  0  0  0  0  0  0  0  0  0  0  0  0  # atno 17370 bound_to 10713
  156.3170  130.3780  149.7610 LP  0  0  0  0  0  0  0  0  0  0  0  0  # atno 17371 bound_to 10713
  140.0114  134.6685  155.9375 LP  0  0  0  0  0  0  0  0  0  0  0  0  # atno 17394 bound_to 11000
  141.1733  133.6538  156.4733 LP  0  0  0  0  0  0  0  0  0  0  0  0  # atno 17395 bound_to 11000

$$$$
