AV-unprocessed.smi:1047|AV-procd|sdf|4568|dock8
  -GOLD-   22720 3 23D 1   1.00000     0.00000
 Structure written by MMmdl.
 56 58  0  0  0  0  0  0  0  0  2 V2000
  142.7022  146.5319  155.9592 C   0  0  0  0  0  0  0  0  0  0  0  0
  142.9214  145.6164  157.1723 C   0  0  0  0  0  0  0  0  0  0  0  0
  143.1497  144.2092  156.8480 N   0  0  0  0  0  0  0  0  0  0  0  0
  141.9730  143.5716  156.2620 C   0  0  0  0  0  0  0  0  0  0  0  0
  142.2403  142.1018  155.8954 C   0  0  0  0  0  0  0  0  0  0  0  0
  143.3651  142.0207  155.0259 O   0  0  0  0  0  0  0  0  0  0  0  0
  144.5478  142.5788  155.5931 C   0  0  1  0  0  0  0  0  0  0  0  0
  145.6884  142.4199  154.5791 C   0  0  0  0  0  0  0  0  0  0  0  0
  145.9337  140.9960  154.2759 N   0  3  0  0  0  0  0  0  0  0  0  0
  147.2533  140.7301  153.6697 C   0  0  0  0  0  0  0  0  0  0  0  0
  148.4048  141.0881  154.6309 C   0  0  2  0  0  0  0  0  0  0  0  0
  148.7772  142.4366  154.4278 O   0  0  0  0  0  0  0  0  0  0  0  0
  149.6684  140.2287  154.4261 C   0  0  0  0  0  0  0  0  0  0  0  0
  150.3272  139.8920  155.6751 N   0  0  0  0  0  0  0  0  0  0  0  0
  150.6642  138.6609  156.1047 C   0  0  0  0  0  0  0  0  0  0  0  0
  151.2709  138.5732  157.2847 N   0  0  0  0  0  0  0  0  0  0  0  0
  151.3281  139.9015  157.6694 C   0  0  0  0  0  0  0  0  0  0  0  0
  151.8594  140.4969  158.8343 C   0  0  0  0  0  0  0  0  0  0  0  0
  151.8146  141.8974  159.0175 C   0  0  0  0  0  0  0  0  0  0  0  0
  152.4005  142.4953  160.2846 C   0  0  0  0  0  0  0  0  0  0  0  0
  151.2302  142.7256  158.0257 C   0  0  0  0  0  0  0  0  0  0  0  0
  151.1719  144.2327  158.2012 C   0  0  0  0  0  0  0  0  0  0  0  0
  150.6925  142.1471  156.8571 C   0  0  0  0  0  0  0  0  0  0  0  0
  150.7442  140.7522  156.6858 C   0  0  0  0  0  0  0  0  0  0  0  0
  144.2759  144.0577  155.9334 C   0  0  0  0  0  0  0  0  0  0  0  0
  142.4338  147.5376  156.2828 H   0  0  0  0  0  0  0  0  0  0  0  0
  141.8938  146.1612  155.3281 H   0  0  0  0  0  0  0  0  0  0  0  0
  143.5985  146.6189  155.3455 H   0  0  0  0  0  0  0  0  0  0  0  0
  143.7481  145.9992  157.7724 H   0  0  0  0  0  0  0  0  0  0  0  0
  142.0339  145.6927  157.8018 H   0  0  0  0  0  0  0  0  0  0  0  0
  141.1357  143.6097  156.9583 H   0  0  0  0  0  0  0  0  0  0  0  0
  141.6627  144.1160  155.3689 H   0  0  0  0  0  0  0  0  0  0  0  0
  142.4223  141.5072  156.7920 H   0  0  0  0  0  0  0  0  0  0  0  0
  141.3719  141.6715  155.3965 H   0  0  0  0  0  0  0  0  0  0  0  0
  144.8009  142.0391  156.5078 H   0  0  0  0  0  0  0  0  0  0  0  0
  145.4560  142.9596  153.6600 H   0  0  0  0  0  0  0  0  0  0  0  0
  146.6046  142.8515  154.9838 H   0  0  0  0  0  0  0  0  0  0  0  0
  145.8623  140.4681  155.1339 H   0  0  0  0  0  0  0  0  0  0  0  0
  147.2890  139.6706  153.4166 H   0  0  0  0  0  0  0  0  0  0  0  0
  147.3512  141.2843  152.7349 H   0  0  0  0  0  0  0  0  0  0  0  0
  148.0685  140.9804  155.6632 H   0  0  0  0  0  0  0  0  0  0  0  0
  148.5589  142.9360  155.1994 H   0  0  0  0  0  0  0  0  0  0  0  0
  149.4225  139.3043  153.9017 H   0  0  0  0  0  0  0  0  0  0  0  0
  150.3861  140.7587  153.7980 H   0  0  0  0  0  0  0  0  0  0  0  0
  150.4566  137.7795  155.5154 H   0  0  0  0  0  0  0  0  0  0  0  0
  152.3051  139.8661  159.5894 H   0  0  0  0  0  0  0  0  0  0  0  0
  151.6447  143.0672  160.8236 H   0  0  0  0  0  0  0  0  0  0  0  0
  153.2319  143.1583  160.0443 H   0  0  0  0  0  0  0  0  0  0  0  0
  152.7734  141.7205  160.9554 H   0  0  0  0  0  0  0  0  0  0  0  0
  150.7253  144.7178  157.3327 H   0  0  0  0  0  0  0  0  0  0  0  0
  152.1734  144.6424  158.3345 H   0  0  0  0  0  0  0  0  0  0  0  0
  150.5725  144.4919  159.0742 H   0  0  0  0  0  0  0  0  0  0  0  0
  150.2450  142.7669  156.0945 H   0  0  0  0  0  0  0  0  0  0  0  0
  144.0825  144.6135  155.0145 H   0  0  0  0  0  0  0  0  0  0  0  0
  145.1708  144.4947  156.3786 H   0  0  0  0  0  0  0  0  0  0  0  0
  145.2164  140.6783  153.6394 H   0  0  0  0  0  0  0  0  0  0  0  0
  1  2  1  0  0  0  0
  1 26  1  0  0  0  0
  1 27  1  0  0  0  0
  1 28  1  0  0  0  0
  2  3  1  0  0  0  0
  2 29  1  0  0  0  0
  2 30  1  0  0  0  0
  3 25  1  0  0  0  0
  3  4  1  0  0  0  0
  4  5  1  0  0  0  0
  4 31  1  0  0  0  0
  4 32  1  0  0  0  0
  5  6  1  0  0  0  0
  5 33  1  0  0  0  0
  5 34  1  0  0  0  0
  6  7  1  0  0  0  0
  7  8  1  0  0  0  0
  7 25  1  0  0  0  0
  7 35  1  0  0  0  0
  8  9  1  0  0  0  0
  8 36  1  0  0  0  0
  8 37  1  0  0  0  0
  9 10  1  0  0  0  0
  9 38  1  0  0  0  0
  9 56  1  0  0  0  0
 10 11  1  0  0  0  0
 10 39  1  0  0  0  0
 10 40  1  0  0  0  0
 11 12  1  0  0  0  0
 11 13  1  0  0  0  0
 11 41  1  0  0  0  0
 12 42  1  0  0  0  0
 13 14  1  0  0  0  0
 13 43  1  0  0  0  0
 13 44  1  0  0  0  0
 14 24  1  0  0  0  0
 14 15  1  0  0  0  0
 15 16  2  0  0  0  0
 15 45  1  0  0  0  0
 16 17  1  0  0  0  0
 17 24  2  0  0  0  0
 17 18  1  0  0  0  0
 18 19  2  0  0  0  0
 18 46  1  0  0  0  0
 19 20  1  0  0  0  0
 19 21  1  0  0  0  0
 20 47  1  0  0  0  0
 20 48  1  0  0  0  0
 20 49  1  0  0  0  0
 21 22  1  0  0  0  0
 21 23  2  0  0  0  0
 22 50  1  0  0  0  0
 22 51  1  0  0  0  0
 22 52  1  0  0  0  0
 23 24  1  0  0  0  0
 23 53  1  0  0  0  0
 25 54  1  0  0  0  0
 25 55  1  0  0  0  0
M  CHG  1   9   1
M  END
> <s_m_source_file>
AV-unprocessed.smi

> <i_m_source_file_index>
1047

> <i_lp_mmshare_version>
43012

> <i_f3d_flags>
0

> <s_epik_input>
W0NIM11bQ0gyXU4xW0NIMl1bQ0gyXU9bQ0BIXShbQ0gyXTEpW0NIMl1bTkhdW0NIMl1bQ0BIXShbT0hdKVtDSDJdbihbY0hdbjIpYyhjMjMpW2NIXWMoW0NIM10pYyhbY0hdMylbQ0gzXQ==

> <s_epik_cmdline>
J2VwaWtfcHl0aG9uJywgJy1waCcsICc3LjAnLCAnLXRuJywgJzgnLCAnLW1hJywgJzIwMCcsICctbWV0YWxfYmluZGluZycsICctaW1hZScsICc8aW5maWxlLm1hZT4nLCAnLW9tYWUnLCAnPG91dGZpbGUubWFlPic=

> <r_epik_Ionization_Penalty>
0.692425

> <r_epik_Ionization_Penalty_Charging>
0.0243549

> <r_epik_Ionization_Penalty_Neutral>
0.66807

> <r_epik_State_Penalty>
0.592789

> <r_epik_Charging_Adjusted_Penalty>
0.617144

> <i_epik_Tot_Q>
1

> <i_epik_Tot_abs_Q>
1

> <r_epik_Metal_State_Penalty>
0.508021

> <b_epik_Metal_Only>
0

> <s_lp_Force_Field>
OPLS_2005

> <r_lp_Energy>
31.7658

> <b_lp_Chiralities_Consistent>
1

> <s_lp_Variant>
AV-unprocessed.smi:1047-9

> <Gold.Version>
5.8.1

> <Gold.Id.Protein>
6NUR|6NUR_protein|mol2

> <Gold.PLP.Fitness>
52.8484

> <Gold.PLP.PLP>
-45.2982

> <Gold.PLP.part.hbond>
-2.9995

> <Gold.PLP.part.metal>
0.0000

> <Gold.PLP.part.buried>
-4.7353

> <Gold.PLP.part.nonpolar>
-37.8531

> <Gold.PLP.part.repulsive>
0.8791

> <Gold.PLP.ligand.clash>
0.0000

> <Gold.PLP.ligand.torsion>
1.0376

> <Gold.PLP.Chemscore.Hbond>
3.1476

> <Gold.PLP.Chemscore.CHOScore>
0.0000

> <Gold.PLP.Chemscore.Metal>
0.0000

> <Gold.Chemscore.Hbonds>
donor molecule, donor type, donor heavy atom, donor atom, acceptor molecule, acceptor atom, score
      L1  H     9    56       P1 10175  2.00
      L1  H    12    42       P1  8028  0.62
      P1  H  8011  8017       L1    12  0.05

> <Gold.PLP.Chemscore.Internal.Correction>
0.1827

> <Gold.Rescore>
     Score         DG    S(hbond)    S(metal)    S(lipo)     H(rot)  DE(clash)    DE(int)     intcor
     18.42     -19.78       2.12        0.00     118.61       2.60       0.11       1.25       ----

> <Gold.Chemscore.Fitness>
18.4168

> <Gold.Chemscore.DG>
-19.7777

> <Gold.Chemscore.ZeroCoef>
-5.4800

> <Gold.Chemscore.Hbond>
2.1224

> <Gold.Chemscore.Metal>
0.0000

> <Gold.Chemscore.Lipo>
118.6097

> <Gold.Chemscore.Internal_Hbond>
0.0000

> <Gold.Chemscore.DEClash>
0.1131

> <Gold.Chemscore.DEInternal>
1.2478

> <Gold.Chemscore.Rot>
2.6049

> <Gold.Chemscore.Internal.Correction>
   9.000000E+99

> <Gold.Chemscore.Hbonds>
donor molecule, donor type, donor heavy atom, donor atom, acceptor molecule, acceptor atom, score
      L1  H     9    56       P1 10175  0.95
      L1  H    12    42       P1  8028  0.62
      P1  H  8011  8017       L1    12  0.02

> <Gold.Chemscore.Hbond.Weighted>
-7.0888

> <Gold.Chemscore.Metal.Weighted>
-0.0000

> <Gold.Chemscore.Lipo.Weighted>
-13.8773

> <Gold.Chemscore.Internal_Hbond.Weighted>
0.0000

> <Gold.Chemscore.DEClash.Weighted>
0.1131

> <Gold.Chemscore.DEInternal.Weighted>
1.2478

> <Gold.Chemscore.Rot.Weighted>
6.6685

> <Gold.Chemscore.Internal.Correction.Weighted>
   9.000000E+99

> <Gold.Protein.RotatedTorsions>
[ 6907 6896 6895 6894 ] final -104.51 input  -60.11 | X-H torsion
[ 7974 7965 7964 7962 ] final -125.92 input  175.53 | X-H torsion
[ 8008 7997 7996 7995 ] final  142.61 input   59.86 | X-H torsion
[ 10167 10162 10161 10158 ] final  127.30 input  -65.29 | X-H torsion
[ 10718 10713 10712 10709 ] final  -46.93 input   66.30 | X-H torsion
[ 10763 10752 10751 10750 ] final  119.61 input  -60.55 | X-H torsion
[ 11005 11000 10999 10996 ] final  173.41 input  -57.11 | X-H torsion

> <Gold.Protein.ActiveResidues>
 VAL166  LYS551  ARG553  GLY616  TRP617  ASP618  TYR619  PRO620  LYS621  CYS622 
 ASP623  PHE694  ASN695  SER759  ASP760  ASP761  ALA762  ILE779  LEU786  VAL792 
 PHE793  MET794  SER795  GLU796  ALA797  LYS798  CYS799  TRP800  GLU811  SER814 

> <Gold.Protein.RotatedAtoms>
  150.7291  134.0267  159.3719 H   0  0  0  0  0  0  0  0  0  0  0  0  # atno 6907 bound_to 6896
  151.8234  135.0642  160.0437 H   0  0  0  0  0  0  0  0  0  0  0  0  # atno 6908 bound_to 6896
  152.2987  133.5597  159.5640 H   0  0  0  0  0  0  0  0  0  0  0  0  # atno 6909 bound_to 6896
  144.9926  140.7746  143.4545 H   0  0  0  0  0  0  0  0  0  0  0  0  # atno 7974 bound_to 7965
  156.2946  140.2284  156.4756 H   0  0  0  0  0  0  0  0  0  0  0  0  # atno 8008 bound_to 7997
  154.7897  140.0455  157.1212 H   0  0  0  0  0  0  0  0  0  0  0  0  # atno 8009 bound_to 7997
  154.9660  140.3060  155.5013 H   0  0  0  0  0  0  0  0  0  0  0  0  # atno 8010 bound_to 7997
  139.5585  144.6866  151.4111 H   0  0  0  0  0  0  0  0  0  0  0  0  # atno 10167 bound_to 10162
  156.2134  130.4162  149.9085 H   0  0  0  0  0  0  0  0  0  0  0  0  # atno 10718 bound_to 10713
  153.5856  135.3475  155.2891 H   0  0  0  0  0  0  0  0  0  0  0  0  # atno 10763 bound_to 10752
  154.8661  135.4192  154.2572 H   0  0  0  0  0  0  0  0  0  0  0  0  # atno 10764 bound_to 10752
  153.3368  135.7047  153.6971 H   0  0  0  0  0  0  0  0  0  0  0  0  # atno 10765 bound_to 10752
  140.3402  134.7283  157.4197 H   0  0  0  0  0  0  0  0  0  0  0  0  # atno 11005 bound_to 11000
  145.2265  139.2135  143.5065 LP  0  0  0  0  0  0  0  0  0  0  0  0  # atno 17320 bound_to 7965
  146.3435  140.2133  142.8590 LP  0  0  0  0  0  0  0  0  0  0  0  0  # atno 17321 bound_to 7965
  140.6862  143.7969  150.7189 LP  0  0  0  0  0  0  0  0  0  0  0  0  # atno 17342 bound_to 10162
  140.1437  143.4418  152.2177 LP  0  0  0  0  0  0  0  0  0  0  0  0  # atno 17343 bound_to 10162
  156.6756  130.8837  151.3568 LP  0  0  0  0  0  0  0  0  0  0  0  0  # atno 17370 bound_to 10713
  157.7050  130.9375  150.0904 LP  0  0  0  0  0  0  0  0  0  0  0  0  # atno 17371 bound_to 10713
  140.0787  134.5761  155.8563 LP  0  0  0  0  0  0  0  0  0  0  0  0  # atno 17394 bound_to 11000
  141.2040  133.6636  156.6098 LP  0  0  0  0  0  0  0  0  0  0  0  0  # atno 17395 bound_to 11000

$$$$
