AV-unprocessed.smi:109|AV-procd|sdf|1060|dock5
  -GOLD-   2262018133D 1   1.00000     0.00000
 Structure written by MMmdl.
 58 61  0  0  0  0  0  0  0  0  1 V2000
  149.2154  141.1035  153.4597 O   0  0  0  0  0  0  0  0  0  0  0  0
  149.7822  140.4323  154.5640 C   0  0  0  0  0  0  0  0  0  0  0  0
  150.3050  141.4559  155.5841 C   0  0  0  0  0  0  0  0  0  0  0  0
  150.7021  140.8145  156.9324 C   0  0  1  0  0  0  0  0  0  0  0  0
  151.3660  139.5330  156.6944 N   0  0  0  0  0  0  0  0  0  0  0  0
  150.8734  138.3752  157.1891 C   0  0  0  0  0  0  0  0  0  0  0  0
  150.4747  138.2717  158.4836 N   0  0  0  0  0  0  0  0  0  0  0  0
  149.9852  137.1161  158.9413 C   0  0  0  0  0  0  0  0  0  0  0  0
  149.8088  135.9673  158.2856 N   0  0  0  0  0  0  0  0  0  0  0  0
  150.2053  136.0635  156.9837 C   0  0  0  0  0  0  0  0  0  0  0  0
  150.7483  137.2257  156.3668 C   0  0  0  0  0  0  0  0  0  0  0  0
  151.0461  136.9584  155.0375 N   0  0  0  0  0  0  0  0  0  0  0  0
  150.6931  135.7112  154.8805 C   0  0  0  0  0  0  0  0  0  0  0  0
  150.1749  135.0950  155.9982 N   0  0  0  0  0  0  0  0  0  0  0  0
  149.6810  133.6823  156.1025 C   0  0  2  0  0  0  0  0  0  0  0  0
  149.8597  133.0329  154.8774 O   0  0  0  0  0  0  0  0  0  0  0  0
  148.6072  132.5856  154.3583 C   0  0  1  0  0  0  0  0  0  0  0  0
  148.8116  131.2966  153.5480 C   0  0  0  0  0  0  0  0  0  0  0  0
  147.6143  130.9441  152.8883 O   0  0  0  0  0  0  0  0  0  0  0  0
  147.7687  132.3905  155.6228 C   0  0  2  0  0  0  0  0  0  0  0  0
  146.3761  132.3540  155.3763 O   0  0  0  0  0  0  0  0  0  0  0  0
  148.1900  133.5781  156.4761 C   0  0  2  0  0  0  0  0  0  0  0  0
  147.4458  134.7515  156.1839 O   0  0  0  0  0  0  0  0  0  0  0  0
  151.5747  141.7288  157.8365 C   0  0  0  0  0  0  0  0  0  0  0  0
  152.0524  141.0185  159.1219 C   0  0  0  0  0  0  0  0  0  0  0  0
  152.9947  141.9143  159.9425 C   0  0  0  0  0  0  0  0  0  0  0  0
  152.3283  143.2567  160.2818 C   0  0  0  0  0  0  0  0  0  0  0  0
  151.8491  143.9733  159.0099 C   0  0  0  0  0  0  0  0  0  0  0  0
  150.9078  143.0787  158.1862 C   0  0  0  0  0  0  0  0  0  0  0  0
  150.3339  133.2169  156.8418 H   0  0  0  0  0  0  0  0  0  0  0  0
  148.1599  133.3691  153.7442 H   0  0  0  0  0  0  0  0  0  0  0  0
  148.0660  131.4654  156.1198 H   0  0  0  0  0  0  0  0  0  0  0  0
  148.0936  133.3669  157.5415 H   0  0  0  0  0  0  0  0  0  0  0  0
  148.9916  140.4630  152.8018 H   0  0  0  0  0  0  0  0  0  0  0  0
  149.0240  139.7922  155.0160 H   0  0  0  0  0  0  0  0  0  0  0  0
  150.5860  139.7867  154.2090 H   0  0  0  0  0  0  0  0  0  0  0  0
  151.1539  141.9929  155.1591 H   0  0  0  0  0  0  0  0  0  0  0  0
  149.5237  142.1982  155.7409 H   0  0  0  0  0  0  0  0  0  0  0  0
  149.7704  140.6229  157.4660 H   0  0  0  0  0  0  0  0  0  0  0  0
  152.2457  139.5836  156.2008 H   0  0  0  0  0  0  0  0  0  0  0  0
  149.6900  137.1112  159.9803 H   0  0  0  0  0  0  0  0  0  0  0  0
  150.7992  135.2017  153.9336 H   0  0  0  0  0  0  0  0  0  0  0  0
  149.6249  131.4033  152.8296 H   0  0  0  0  0  0  0  0  0  0  0  0
  149.0722  130.4723  154.2127 H   0  0  0  0  0  0  0  0  0  0  0  0
  147.8201  130.7064  151.9973 H   0  0  0  0  0  0  0  0  0  0  0  0
  145.9386  132.1418  156.1873 H   0  0  0  0  0  0  0  0  0  0  0  0
  148.0519  135.4627  156.0433 H   0  0  0  0  0  0  0  0  0  0  0  0
  152.4793  141.9615  157.2728 H   0  0  0  0  0  0  0  0  0  0  0  0
  151.2036  140.7407  159.7459 H   0  0  0  0  0  0  0  0  0  0  0  0
  152.5647  140.0905  158.8658 H   0  0  0  0  0  0  0  0  0  0  0  0
  153.2877  141.4030  160.8598 H   0  0  0  0  0  0  0  0  0  0  0  0
  153.9125  142.0927  159.3807 H   0  0  0  0  0  0  0  0  0  0  0  0
  151.4803  143.0864  160.9463 H   0  0  0  0  0  0  0  0  0  0  0  0
  153.0266  143.8923  160.8269 H   0  0  0  0  0  0  0  0  0  0  0  0
  151.3420  144.9015  159.2749 H   0  0  0  0  0  0  0  0  0  0  0  0
  152.7104  144.2547  158.4027 H   0  0  0  0  0  0  0  0  0  0  0  0
  150.6167  143.6041  157.2762 H   0  0  0  0  0  0  0  0  0  0  0  0
  149.9923  142.9113  158.7541 H   0  0  0  0  0  0  0  0  0  0  0  0
  1  2  1  0  0  0  0
  1 34  1  0  0  0  0
  2  3  1  0  0  0  0
  2 35  1  0  0  0  0
  2 36  1  0  0  0  0
  3  4  1  0  0  0  0
  3 37  1  0  0  0  0
  3 38  1  0  0  0  0
  4  5  1  0  0  0  0
  4 24  1  0  0  0  0
  4 39  1  0  0  0  0
  5  6  1  0  0  0  0
  5 40  1  0  0  0  0
  6 11  1  0  0  0  0
  6  7  2  0  0  0  0
  7  8  1  0  0  0  0
  8  9  2  0  0  0  0
  8 41  1  0  0  0  0
  9 10  1  0  0  0  0
 10 14  1  0  0  0  0
 10 11  2  0  0  0  0
 11 12  1  0  0  0  0
 12 13  2  0  0  0  0
 13 14  1  0  0  0  0
 13 42  1  0  0  0  0
 14 15  1  0  0  0  0
 15 30  1  0  0  0  0
 15 22  1  0  0  0  0
 15 16  1  0  0  0  0
 16 17  1  0  0  0  0
 17 31  1  0  0  0  0
 17 18  1  0  0  0  0
 17 20  1  0  0  0  0
 18 19  1  0  0  0  0
 18 43  1  0  0  0  0
 18 44  1  0  0  0  0
 19 45  1  0  0  0  0
 20 32  1  0  0  0  0
 20 21  1  0  0  0  0
 20 22  1  0  0  0  0
 21 46  1  0  0  0  0
 22 33  1  0  0  0  0
 22 23  1  0  0  0  0
 23 47  1  0  0  0  0
 24 29  1  0  0  0  0
 24 25  1  0  0  0  0
 24 48  1  0  0  0  0
 25 26  1  0  0  0  0
 25 49  1  0  0  0  0
 25 50  1  0  0  0  0
 26 27  1  0  0  0  0
 26 51  1  0  0  0  0
 26 52  1  0  0  0  0
 27 28  1  0  0  0  0
 27 53  1  0  0  0  0
 27 54  1  0  0  0  0
 28 29  1  0  0  0  0
 28 55  1  0  0  0  0
 28 56  1  0  0  0  0
 29 57  1  0  0  0  0
 29 58  1  0  0  0  0
M  END
> <s_m_source_file>
AV-unprocessed.smi

> <i_m_source_file_index>
109

> <i_lp_mmshare_version>
43012

> <i_f3d_flags>
0

> <s_epik_input>
W0NIMl0xW0NIMl1bQ0gyXVtDSDJdW0NIMl1bQ0hdMVtDQEhdKFtDSDJdW0NIMl1bT0hdKVtOSF1jKG5bY0hdbjIpYyhjMjMpbltjSF1uM1tDQEBIXTRPW0NASF0oW0NIMl1bT0hdKVtDQEBIXShbT0hdKVtDQEhdNFtPSF0=

> <s_epik_cmdline>
J2VwaWtfcHl0aG9uJywgJy1waCcsICc3LjAnLCAnLXRuJywgJzgnLCAnLW1hJywgJzIwMCcsICctbWV0YWxfYmluZGluZycsICctaW1hZScsICc8aW5maWxlLm1hZT4nLCAnLW9tYWUnLCAnPG91dGZpbGUubWFlPic=

> <r_lp_tautomer_probability>
1

> <r_epik_Ionization_Penalty>
0.000793976

> <r_epik_Ionization_Penalty_Charging>
0

> <r_epik_Ionization_Penalty_Neutral>
0.000793976

> <r_epik_State_Penalty>
-0

> <r_epik_Charging_Adjusted_Penalty>
0

> <i_epik_Tot_Q>
0

> <i_epik_Tot_abs_Q>
0

> <r_epik_Metal_State_Penalty>
-0

> <b_epik_Metal_Only>
0

> <s_epik_Chemistry_Notes>
This compound contains an acetal/aminal-like group ( X-CH(R)-Y where X, Y are N, S, or O) that may be acid/base labile, releasing an aldehyde.

> <s_lp_Force_Field>
OPLS_2005

> <r_lp_Energy>
62.1287

> <b_lp_Chiralities_Consistent>
1

> <s_lp_Variant>
AV-unprocessed.smi:109-30

> <Gold.Version>
5.8.1

> <Gold.Id.Protein>
6NUR|6NUR_protein|mol2

> <Gold.PLP.Fitness>
55.4174

> <Gold.PLP.PLP>
-43.8549

> <Gold.PLP.part.hbond>
-5.0179

> <Gold.PLP.part.metal>
0.0000

> <Gold.PLP.part.buried>
-4.5219

> <Gold.PLP.part.nonpolar>
-33.4415

> <Gold.PLP.part.repulsive>
0.2637

> <Gold.PLP.ligand.clash>
0.0000

> <Gold.PLP.ligand.torsion>
0.7036

> <Gold.PLP.Chemscore.Hbond>
3.5460

> <Gold.PLP.Chemscore.CHOScore>
0.6319

> <Gold.PLP.Chemscore.Metal>
0.0000

> <Gold.Chemscore.Hbonds>
donor molecule, donor type, donor heavy atom, donor atom, acceptor molecule, acceptor atom, score
      L1  H     1    34       P1  7957  0.70
      L1  H    19    45       P1 10747  0.91
      P1  H  6896  6908       L1     9  0.94
      P1  H  8011  8017       L1     1  0.85
      L1  C    13    42       P1  7949  0.51

> <Gold.PLP.Chemscore.Internal.Correction>
0.4361

> <Gold.Rescore>
     Score         DG    S(hbond)    S(metal)    S(lipo)     H(rot)  DE(clash)    DE(int)     intcor
     10.75     -11.65       2.75        0.00      93.70       5.47       0.16       0.74       ----

> <Gold.Chemscore.Fitness>
10.7478

> <Gold.Chemscore.DG>
-11.6478

> <Gold.Chemscore.ZeroCoef>
-5.4800

> <Gold.Chemscore.Hbond>
2.7538

> <Gold.Chemscore.Metal>
0.0000

> <Gold.Chemscore.Lipo>
93.7046

> <Gold.Chemscore.Internal_Hbond>
0.0000

> <Gold.Chemscore.DEClash>
0.1551

> <Gold.Chemscore.DEInternal>
0.7448

> <Gold.Chemscore.Rot>
5.4662

> <Gold.Chemscore.Internal.Correction>
   9.000000E+99

> <Gold.Chemscore.Hbonds>
donor molecule, donor type, donor heavy atom, donor atom, acceptor molecule, acceptor atom, score
      L1  H     1    34       P1  7957  0.70
      L1  H    19    45       P1 10747  0.84
      P1  H  6896  6908       L1     9  0.29
      P1  H  8011  8017       L1     1  0.14

> <Gold.Chemscore.Hbond.Weighted>
-9.1978

> <Gold.Chemscore.Metal.Weighted>
-0.0000

> <Gold.Chemscore.Lipo.Weighted>
-10.9634

> <Gold.Chemscore.Internal_Hbond.Weighted>
0.0000

> <Gold.Chemscore.DEClash.Weighted>
0.1551

> <Gold.Chemscore.DEInternal.Weighted>
0.7448

> <Gold.Chemscore.Rot.Weighted>
13.9935

> <Gold.Chemscore.Internal.Correction.Weighted>
   9.000000E+99

> <Gold.Protein.RotatedTorsions>
[ 6907 6896 6895 6894 ] final  170.52 input  -60.11 | X-H torsion
[ 7974 7965 7964 7962 ] final -155.56 input  175.53 | X-H torsion
[ 8008 7997 7996 7995 ] final   29.87 input   59.86 | X-H torsion
[ 10167 10162 10161 10158 ] final   83.63 input  -65.29 | X-H torsion
[ 10718 10713 10712 10709 ] final   -8.63 input   66.30 | X-H torsion
[ 10763 10752 10751 10750 ] final -177.39 input  -60.55 | X-H torsion
[ 11005 11000 10999 10996 ] final   43.88 input  -57.11 | X-H torsion

> <Gold.Protein.ActiveResidues>
 VAL166  LYS551  ARG553  GLY616  TRP617  ASP618  TYR619  PRO620  LYS621  CYS622 
 ASP623  PHE694  ASN695  SER759  ASP760  ASP761  ALA762  ILE779  LEU786  VAL792 
 PHE793  MET794  SER795  GLU796  ALA797  LYS798  CYS799  TRP800  GLU811  SER814 

> <Gold.Protein.RotatedAtoms>
  151.8148  133.3386  159.3565 H   0  0  0  0  0  0  0  0  0  0  0  0  # atno 6907 bound_to 6896
  150.7314  134.5630  159.5861 H   0  0  0  0  0  0  0  0  0  0  0  0  # atno 6908 bound_to 6896
  152.3049  134.7568  160.0401 H   0  0  0  0  0  0  0  0  0  0  0  0  # atno 6909 bound_to 6896
  144.7634  140.4232  143.5960 H   0  0  0  0  0  0  0  0  0  0  0  0  # atno 7974 bound_to 7965
  155.0814  140.3210  155.4600 H   0  0  0  0  0  0  0  0  0  0  0  0  # atno 8008 bound_to 7997
  156.2766  140.2094  156.5887 H   0  0  0  0  0  0  0  0  0  0  0  0  # atno 8009 bound_to 7997
  154.6975  140.0510  157.0413 H   0  0  0  0  0  0  0  0  0  0  0  0  # atno 8010 bound_to 7997
  139.9164  144.6240  150.8485 H   0  0  0  0  0  0  0  0  0  0  0  0  # atno 10167 bound_to 10162
  156.6998  130.5090  149.5920 H   0  0  0  0  0  0  0  0  0  0  0  0  # atno 10718 bound_to 10713
  154.5606  135.2820  155.0922 H   0  0  0  0  0  0  0  0  0  0  0  0  # atno 10763 bound_to 10752
  154.2332  135.6370  153.5186 H   0  0  0  0  0  0  0  0  0  0  0  0  # atno 10764 bound_to 10752
  153.0028  135.5542  154.6200 H   0  0  0  0  0  0  0  0  0  0  0  0  # atno 10765 bound_to 10752
  140.1604  134.4349  155.8321 H   0  0  0  0  0  0  0  0  0  0  0  0  # atno 11005 bound_to 11000
  145.6546  139.1571  143.2842 LP  0  0  0  0  0  0  0  0  0  0  0  0  # atno 17320 bound_to 7965
  146.1719  140.6632  142.9229 LP  0  0  0  0  0  0  0  0  0  0  0  0  # atno 17321 bound_to 7965
  140.7673  143.3328  151.2372 LP  0  0  0  0  0  0  0  0  0  0  0  0  # atno 17342 bound_to 10162
  139.6899  143.9710  152.2853 LP  0  0  0  0  0  0  0  0  0  0  0  0  # atno 17343 bound_to 10162
  156.1737  130.6454  151.0868 LP  0  0  0  0  0  0  0  0  0  0  0  0  # atno 17370 bound_to 10713
  157.6977  131.0788  150.6917 LP  0  0  0  0  0  0  0  0  0  0  0  0  # atno 17371 bound_to 10713
  141.2209  133.6911  156.7583 LP  0  0  0  0  0  0  0  0  0  0  0  0  # atno 17394 bound_to 11000
  140.2497  134.8550  157.3655 LP  0  0  0  0  0  0  0  0  0  0  0  0  # atno 17395 bound_to 11000

$$$$
