AV-unprocessed.smi:3062|AV-procd|sdf|11683|dock6
  -GOLD-   2272017 83D 1   1.00000     0.00000
 Structure written by MMmdl.
 39 40  0  0  0  0  0  0  0  0  1 V2000
  145.1217  145.1124  152.9430 C   0  0  0  0  0  0  0  0  0  0  0  0
  145.2794  143.9357  153.8678 C   0  0  0  0  0  0  0  0  0  0  0  0
  146.1683  143.0559  153.5418 N   0  0  0  0  0  0  0  0  0  0  0  0
  146.3937  141.9386  154.3206 N   0  0  0  0  0  0  0  0  0  0  0  0
  147.4425  141.0534  153.8006 C   0  0  0  0  0  0  0  0  0  0  0  0
  148.8556  141.5299  154.2011 C   0  0  2  0  0  0  0  0  0  0  0  0
  149.8416  140.7748  153.5259 O   0  0  0  0  0  0  0  0  0  0  0  0
  149.1219  141.4151  155.7108 C   0  0  0  0  0  0  0  0  0  0  0  0
  150.3823  141.9929  156.0301 O   0  0  0  0  0  0  0  0  0  0  0  0
  150.9864  141.4557  157.1990 C   0  0  0  0  0  0  0  0  0  0  0  0
  151.6768  142.5604  157.9387 C   0  0  0  0  0  0  0  0  0  0  0  0
  151.7539  143.8804  157.5739 C   0  0  0  0  0  0  0  0  0  0  0  0
  152.5017  144.6753  158.4919 C   0  0  0  0  0  0  0  0  0  0  0  0
  152.9938  143.9501  159.5440 C   0  0  0  0  0  0  0  0  0  0  0  0
  152.5517  142.2694  159.4243 S   0  0  0  0  0  0  0  0  0  0  0  0
  145.7318  141.6514  155.4779 C   0  0  0  0  0  0  0  0  0  0  0  0
  145.9732  140.6458  156.1474 O   0  0  0  0  0  0  0  0  0  0  0  0
  144.7240  142.6506  155.8406 C   0  0  0  0  0  0  0  0  0  0  0  0
  144.0051  142.3882  157.0455 C   0  0  0  0  0  0  0  0  0  0  0  0
  143.4070  142.1660  158.0115 N   0  0  0  0  0  0  0  0  0  0  0  0
  144.4921  143.7517  155.0827 C   0  0  0  0  0  0  0  0  0  0  0  0
  143.4595  144.8200  155.4155 C   0  0  0  0  0  0  0  0  0  0  0  0
  145.2723  146.0504  153.4781 H   0  0  0  0  0  0  0  0  0  0  0  0
  144.1233  145.1285  152.5050 H   0  0  0  0  0  0  0  0  0  0  0  0
  145.8409  145.0842  152.1229 H   0  0  0  0  0  0  0  0  0  0  0  0
  147.2733  140.0459  154.1853 H   0  0  0  0  0  0  0  0  0  0  0  0
  147.3668  140.9544  152.7159 H   0  0  0  0  0  0  0  0  0  0  0  0
  148.9965  142.5733  153.9176 H   0  0  0  0  0  0  0  0  0  0  0  0
  149.6310  140.7639  152.6048 H   0  0  0  0  0  0  0  0  0  0  0  0
  148.3235  141.8883  156.2849 H   0  0  0  0  0  0  0  0  0  0  0  0
  149.1253  140.3587  155.9834 H   0  0  0  0  0  0  0  0  0  0  0  0
  150.2031  141.0341  157.8288 H   0  0  0  0  0  0  0  0  0  0  0  0
  151.6737  140.6440  156.9555 H   0  0  0  0  0  0  0  0  0  0  0  0
  151.3011  144.3000  156.6877 H   0  0  0  0  0  0  0  0  0  0  0  0
  152.6517  145.7353  158.3493 H   0  0  0  0  0  0  0  0  0  0  0  0
  153.5900  144.2974  160.3751 H   0  0  0  0  0  0  0  0  0  0  0  0
  142.8987  144.5856  156.3198 H   0  0  0  0  0  0  0  0  0  0  0  0
  142.7399  144.9249  154.6029 H   0  0  0  0  0  0  0  0  0  0  0  0
  143.9451  145.7838  155.5716 H   0  0  0  0  0  0  0  0  0  0  0  0
  1  2  1  0  0  0  0
  1 23  1  0  0  0  0
  1 24  1  0  0  0  0
  1 25  1  0  0  0  0
  2 21  1  0  0  0  0
  2  3  2  0  0  0  0
  3  4  1  0  0  0  0
  4  5  1  0  0  0  0
  4 16  1  0  0  0  0
  5  6  1  0  0  0  0
  5 26  1  0  0  0  0
  5 27  1  0  0  0  0
  6  7  1  0  0  0  0
  6  8  1  0  0  0  0
  6 28  1  0  0  0  0
  7 29  1  0  0  0  0
  8  9  1  0  0  0  0
  8 30  1  0  0  0  0
  8 31  1  0  0  0  0
  9 10  1  0  0  0  0
 10 11  1  0  0  0  0
 10 32  1  0  0  0  0
 10 33  1  0  0  0  0
 11 15  1  0  0  0  0
 11 12  2  0  0  0  0
 12 13  1  0  0  0  0
 12 34  1  0  0  0  0
 13 14  2  0  0  0  0
 13 35  1  0  0  0  0
 14 15  1  0  0  0  0
 14 36  1  0  0  0  0
 16 17  2  0  0  0  0
 16 18  1  0  0  0  0
 18 19  1  0  0  0  0
 18 21  2  0  0  0  0
 19 20  3  0  0  0  0
 21 22  1  0  0  0  0
 22 37  1  0  0  0  0
 22 38  1  0  0  0  0
 22 39  1  0  0  0  0
M  END
> <s_m_source_file>
AV-unprocessed.smi

> <i_m_source_file_index>
3062

> <i_lp_mmshare_version>
43012

> <i_f3d_flags>
0

> <s_epik_input>
TiNDYyhjMVtDSDNdKWMoPU8pbihuYzFbQ0gzXSlbQ0gyXVtDQEhdKFtPSF0pW0NIMl1PW0NIMl1jMltjSF1bY0hdW2NIXXMy

> <s_epik_cmdline>
J2VwaWtfcHl0aG9uJywgJy1waCcsICc3LjAnLCAnLXRuJywgJzgnLCAnLW1hJywgJzIwMCcsICctbWV0YWxfYmluZGluZycsICctaW1hZScsICc8aW5maWxlLm1hZT4nLCAnLW9tYWUnLCAnPG91dGZpbGUubWFlPic=

> <r_lp_tautomer_probability>
1

> <r_epik_Ionization_Penalty>
6.86395e-08

> <r_epik_Ionization_Penalty_Charging>
2.24757e-10

> <r_epik_Ionization_Penalty_Neutral>
6.84147e-08

> <r_epik_State_Penalty>
-0

> <r_epik_Charging_Adjusted_Penalty>
2.24757e-10

> <i_epik_Tot_Q>
0

> <i_epik_Tot_abs_Q>
0

> <r_epik_Metal_State_Penalty>
-0

> <b_epik_Metal_Only>
0

> <s_lp_Force_Field>
OPLS_2005

> <r_lp_Energy>
26.0533

> <b_lp_Chiralities_Consistent>
1

> <s_lp_Variant>
AV-unprocessed.smi:3062-1

> <Gold.Version>
5.8.1

> <Gold.Id.Protein>
6NUR|6NUR_protein|mol2

> <Gold.PLP.Fitness>
48.9318

> <Gold.PLP.PLP>
-46.2786

> <Gold.PLP.part.hbond>
-2.8395

> <Gold.PLP.part.metal>
0.0000

> <Gold.PLP.part.buried>
-4.9932

> <Gold.PLP.part.nonpolar>
-40.2055

> <Gold.PLP.part.repulsive>
0.6812

> <Gold.PLP.ligand.clash>
0.0000

> <Gold.PLP.ligand.torsion>
0.7798

> <Gold.PLP.Chemscore.Hbond>
1.3800

> <Gold.PLP.Chemscore.CHOScore>
0.0000

> <Gold.PLP.Chemscore.Metal>
0.0000

> <Gold.Chemscore.Hbonds>
donor molecule, donor type, donor heavy atom, donor atom, acceptor molecule, acceptor atom, score
      L1  H     7    29       P1  7957  1.00
      P1  H  7989  7998       L1     7  0.37

> <Gold.PLP.Chemscore.Internal.Correction>
0.0727

> <Gold.Rescore>
     Score         DG    S(hbond)    S(metal)    S(lipo)     H(rot)  DE(clash)    DE(int)     intcor
     15.31     -15.92       1.00        0.00     115.48       2.51       0.00       0.60       ----

> <Gold.Chemscore.Fitness>
15.3084

> <Gold.Chemscore.DG>
-15.9160

> <Gold.Chemscore.ZeroCoef>
-5.4800

> <Gold.Chemscore.Hbond>
1.0045

> <Gold.Chemscore.Metal>
0.0000

> <Gold.Chemscore.Lipo>
115.4810

> <Gold.Chemscore.Internal_Hbond>
0.0000

> <Gold.Chemscore.DEClash>
0.0045

> <Gold.Chemscore.DEInternal>
0.6030

> <Gold.Chemscore.Rot>
2.5119

> <Gold.Chemscore.Internal.Correction>
   9.000000E+99

> <Gold.Chemscore.Hbonds>
donor molecule, donor type, donor heavy atom, donor atom, acceptor molecule, acceptor atom, score
      L1  H     7    29       P1  7957  0.95
      P1  H  7989  7998       L1     7  0.10

> <Gold.Chemscore.Hbond.Weighted>
-3.3552

> <Gold.Chemscore.Metal.Weighted>
-0.0000

> <Gold.Chemscore.Lipo.Weighted>
-13.5113

> <Gold.Chemscore.Internal_Hbond.Weighted>
0.0000

> <Gold.Chemscore.DEClash.Weighted>
0.0045

> <Gold.Chemscore.DEInternal.Weighted>
0.6030

> <Gold.Chemscore.Rot.Weighted>
6.4305

> <Gold.Chemscore.Internal.Correction.Weighted>
   9.000000E+99

> <Gold.Protein.RotatedTorsions>
[ 6907 6896 6895 6894 ] final  147.29 input  -60.11 | X-H torsion
[ 7974 7965 7964 7962 ] final -120.15 input  175.53 | X-H torsion
[ 8008 7997 7996 7995 ] final   45.99 input   59.86 | X-H torsion
[ 10167 10162 10161 10158 ] final  132.52 input  -65.29 | X-H torsion
[ 10718 10713 10712 10709 ] final  100.32 input   66.30 | X-H torsion
[ 10763 10752 10751 10750 ] final   56.86 input  -60.55 | X-H torsion
[ 11005 11000 10999 10996 ] final  139.23 input  -57.11 | X-H torsion

> <Gold.Protein.ActiveResidues>
 VAL166  LYS551  ARG553  GLY616  TRP617  ASP618  TYR619  PRO620  LYS621  CYS622 
 ASP623  PHE694  ASN695  SER759  ASP760  ASP761  ALA762  ILE779  LEU786  VAL792 
 PHE793  MET794  SER795  GLU796  ALA797  LYS798  CYS799  TRP800  GLU811  SER814 

> <Gold.Protein.RotatedAtoms>
  152.1567  133.4556  159.4840 H   0  0  0  0  0  0  0  0  0  0  0  0  # atno 6907 bound_to 6896
  150.6902  134.2122  159.4372 H   0  0  0  0  0  0  0  0  0  0  0  0  # atno 6908 bound_to 6896
  152.0021  134.9922  160.0616 H   0  0  0  0  0  0  0  0  0  0  0  0  # atno 6909 bound_to 6896
  145.0546  140.8244  143.4189 H   0  0  0  0  0  0  0  0  0  0  0  0  # atno 7974 bound_to 7965
  155.3450  140.3410  155.4239 H   0  0  0  0  0  0  0  0  0  0  0  0  # atno 8008 bound_to 7997
  156.1793  140.1658  156.8339 H   0  0  0  0  0  0  0  0  0  0  0  0  # atno 8009 bound_to 7997
  154.5316  140.0744  156.8338 H   0  0  0  0  0  0  0  0  0  0  0  0  # atno 8010 bound_to 7997
  139.5336  144.6658  151.4864 H   0  0  0  0  0  0  0  0  0  0  0  0  # atno 10167 bound_to 10162
  157.6857  131.0695  150.5082 H   0  0  0  0  0  0  0  0  0  0  0  0  # atno 10718 bound_to 10713
  152.9839  135.5661  154.5297 H   0  0  0  0  0  0  0  0  0  0  0  0  # atno 10763 bound_to 10752
  154.4771  135.2787  155.1601 H   0  0  0  0  0  0  0  0  0  0  0  0  # atno 10764 bound_to 10752
  154.3125  135.6285  153.5525 H   0  0  0  0  0  0  0  0  0  0  0  0  # atno 10765 bound_to 10752
  140.0240  134.9383  157.0530 H   0  0  0  0  0  0  0  0  0  0  0  0  # atno 11005 bound_to 11000
  145.1484  139.2529  143.5453 LP  0  0  0  0  0  0  0  0  0  0  0  0  # atno 17320 bound_to 7965
  146.3520  140.1180  142.8601 LP  0  0  0  0  0  0  0  0  0  0  0  0  # atno 17321 bound_to 7965
  140.6529  143.8659  150.6805 LP  0  0  0  0  0  0  0  0  0  0  0  0  # atno 17342 bound_to 10162
  140.2029  143.3945  152.1778 LP  0  0  0  0  0  0  0  0  0  0  0  0  # atno 17343 bound_to 10162
  156.5400  130.4206  149.6158 LP  0  0  0  0  0  0  0  0  0  0  0  0  # atno 17370 bound_to 10713
  156.2993  130.7168  151.2036 LP  0  0  0  0  0  0  0  0  0  0  0  0  # atno 17371 bound_to 10713
  140.4339  134.1752  155.7169 LP  0  0  0  0  0  0  0  0  0  0  0  0  # atno 17394 bound_to 11000
  141.1791  133.8452  157.1320 LP  0  0  0  0  0  0  0  0  0  0  0  0  # atno 17395 bound_to 11000

$$$$
