AV-unprocessed.smi:11|AV-procd|sdf|59|dock5
  -GOLD-   2262015173D 1   1.00000     0.00000
 Structure written by MMmdl.
 33 35  0  0  0  0  0  0  0  0  1 V2000
  147.8747  141.8033  154.2003 C   0  0  0  0  0  0  0  0  0  0  0  0
  149.2445  141.1125  154.3118 C   0  0  0  0  0  0  0  0  0  0  0  0
  149.3561  140.0415  155.4257 C   0  0  1  0  0  0  0  0  0  0  0  0
  148.3774  139.0461  155.1969 O   0  0  0  0  0  0  0  0  0  0  0  0
  150.7491  139.3992  155.4534 C   0  0  0  0  0  0  0  0  0  0  0  0
  151.5482  140.3392  156.3525 C   0  0  0  0  0  0  0  0  0  0  0  0
  150.5874  140.8271  157.3332 N   0  0  0  0  0  0  0  0  0  0  0  0
  150.8945  141.9424  158.1419 C   0  0  0  0  0  0  0  0  0  0  0  0
  150.2625  143.1164  157.8849 N   0  0  0  0  0  0  0  0  0  0  0  0
  150.5588  144.1820  158.6711 C   0  0  0  0  0  0  0  0  0  0  0  0
  151.4321  144.2367  159.7062 N   0  0  0  0  0  0  0  0  0  0  0  0
  152.0929  143.0717  159.9737 C   0  0  0  0  0  0  0  0  0  0  0  0
  153.0078  142.8522  160.9123 N   0  0  0  0  0  0  0  0  0  0  0  0
  153.3847  141.5698  160.7779 C   0  0  0  0  0  0  0  0  0  0  0  0
  152.7014  140.8820  159.7035 C   0  0  0  0  0  0  0  0  0  0  0  0
  151.8425  141.9096  159.2034 C   0  0  0  0  0  0  0  0  0  0  0  0
  149.2282  140.6202  156.8480 C   0  0  0  0  0  0  0  0  0  0  0  0
  147.8752  142.5180  153.3773 H   0  0  0  0  0  0  0  0  0  0  0  0
  147.6186  142.3525  155.1055 H   0  0  0  0  0  0  0  0  0  0  0  0
  147.0783  141.0847  154.0062 H   0  0  0  0  0  0  0  0  0  0  0  0
  149.4725  140.6510  153.3501 H   0  0  0  0  0  0  0  0  0  0  0  0
  150.0069  141.8781  154.4611 H   0  0  0  0  0  0  0  0  0  0  0  0
  148.5478  138.6460  154.3579 H   0  0  0  0  0  0  0  0  0  0  0  0
  150.7044  138.4142  155.9215 H   0  0  0  0  0  0  0  0  0  0  0  0
  151.1945  139.2750  154.4656 H   0  0  0  0  0  0  0  0  0  0  0  0
  152.3831  139.8275  156.8316 H   0  0  0  0  0  0  0  0  0  0  0  0
  151.9451  141.1692  155.7664 H   0  0  0  0  0  0  0  0  0  0  0  0
  150.0348  145.0984  158.4433 H   0  0  0  0  0  0  0  0  0  0  0  0
  154.1342  141.1347  161.4276 H   0  0  0  0  0  0  0  0  0  0  0  0
  152.8216  139.8576  159.3756 H   0  0  0  0  0  0  0  0  0  0  0  0
  148.6411  141.5375  156.8680 H   0  0  0  0  0  0  0  0  0  0  0  0
  148.7457  139.9006  157.5104 H   0  0  0  0  0  0  0  0  0  0  0  0
  151.5561  145.1047  160.2076 H   0  0  0  0  0  0  0  0  0  0  0  0
  1  2  1  0  0  0  0
  1 18  1  0  0  0  0
  1 19  1  0  0  0  0
  1 20  1  0  0  0  0
  2  3  1  0  0  0  0
  2 21  1  0  0  0  0
  2 22  1  0  0  0  0
  3 17  1  0  0  0  0
  3  4  1  0  0  0  0
  3  5  1  0  0  0  0
  4 23  1  0  0  0  0
  5  6  1  0  0  0  0
  5 24  1  0  0  0  0
  5 25  1  0  0  0  0
  6  7  1  0  0  0  0
  6 26  1  0  0  0  0
  6 27  1  0  0  0  0
  7  8  1  0  0  0  0
  7 17  1  0  0  0  0
  8 16  2  0  0  0  0
  8  9  1  0  0  0  0
  9 10  2  0  0  0  0
 10 11  1  0  0  0  0
 10 28  1  0  0  0  0
 11 12  1  0  0  0  0
 11 33  1  0  0  0  0
 12 16  1  0  0  0  0
 12 13  2  0  0  0  0
 13 14  1  0  0  0  0
 14 15  2  0  0  0  0
 14 29  1  0  0  0  0
 15 16  1  0  0  0  0
 15 30  1  0  0  0  0
 17 31  1  0  0  0  0
 17 32  1  0  0  0  0
M  END
> <s_m_source_file>
AV-unprocessed.smi

> <i_m_source_file_index>
11

> <i_lp_mmshare_version>
43012

> <i_f3d_flags>
0

> <s_epik_input>
W0NIM11bQ0gyXVtDQEBdMShbT0hdKVtDSDJdW0NIMl1OKFtDSDJdMSljKG5bY0hdbjIpYyhjMjMpW2NIXVtjSF1bbkhdMw==

> <s_epik_cmdline>
J2VwaWtfcHl0aG9uJywgJy1waCcsICc3LjAnLCAnLXRuJywgJzgnLCAnLW1hJywgJzIwMCcsICctbWV0YWxfYmluZGluZycsICctaW1hZScsICc8aW5maWxlLm1hZT4nLCAnLW9tYWUnLCAnPG91dGZpbGUubWFlPic=

> <r_lp_tautomer_probability>
1.75997e-05

> <r_epik_Ionization_Penalty>
5.31594

> <r_epik_Ionization_Penalty_Charging>
0

> <r_epik_Ionization_Penalty_Neutral>
5.31594

> <r_epik_State_Penalty>
7.79803

> <r_epik_Charging_Adjusted_Penalty>
7.79803

> <i_epik_Tot_Q>
0

> <i_epik_Tot_abs_Q>
0

> <r_epik_Metal_State_Penalty>
4.83511

> <b_epik_Metal_Only>
1

> <s_lp_Force_Field>
OPLS_2005

> <r_lp_Energy>
41.5281

> <b_lp_Chiralities_Consistent>
1

> <s_lp_Variant>
AV-unprocessed.smi:11-5

> <Gold.Version>
5.8.1

> <Gold.Id.Protein>
6NUR|6NUR_protein|mol2

> <Gold.PLP.Fitness>
33.8033

> <Gold.PLP.PLP>
-32.3844

> <Gold.PLP.part.hbond>
0.0000

> <Gold.PLP.part.metal>
0.0000

> <Gold.PLP.part.buried>
-4.7908

> <Gold.PLP.part.nonpolar>
-28.7195

> <Gold.PLP.part.repulsive>
0.4681

> <Gold.PLP.ligand.clash>
0.0000

> <Gold.PLP.ligand.torsion>
0.9432

> <Gold.PLP.Chemscore.Hbond>
0.0000

> <Gold.PLP.Chemscore.CHOScore>
0.9974

> <Gold.PLP.Chemscore.Metal>
0.0000

> <Gold.Chemscore.Hbonds>
donor molecule, donor type, donor heavy atom, donor atom, acceptor molecule, acceptor atom, score
      L1  C    10    28       P1  8029  0.91

> <Gold.PLP.Chemscore.Internal.Correction>
0.3132

> <Gold.Rescore>
     Score         DG    S(hbond)    S(metal)    S(lipo)     H(rot)  DE(clash)    DE(int)     intcor
      8.86      -9.71       0.00        0.00      67.44       1.43       0.05       0.80       ----

> <Gold.Chemscore.Fitness>
8.8631

> <Gold.Chemscore.DG>
-9.7142

> <Gold.Chemscore.ZeroCoef>
-5.4800

> <Gold.Chemscore.Hbond>
0.0000

> <Gold.Chemscore.Metal>
0.0000

> <Gold.Chemscore.Lipo>
67.4427

> <Gold.Chemscore.Internal_Hbond>
0.0000

> <Gold.Chemscore.DEClash>
0.0469

> <Gold.Chemscore.DEInternal>
0.8042

> <Gold.Chemscore.Rot>
1.4283

> <Gold.Chemscore.Internal.Correction>
   9.000000E+99

> <Gold.Chemscore.Hbond.Weighted>
-0.0000

> <Gold.Chemscore.Metal.Weighted>
-0.0000

> <Gold.Chemscore.Lipo.Weighted>
-7.8908

> <Gold.Chemscore.Internal_Hbond.Weighted>
0.0000

> <Gold.Chemscore.DEClash.Weighted>
0.0469

> <Gold.Chemscore.DEInternal.Weighted>
0.8042

> <Gold.Chemscore.Rot.Weighted>
3.6566

> <Gold.Chemscore.Internal.Correction.Weighted>
   9.000000E+99

> <Gold.Protein.RotatedTorsions>
[ 6907 6896 6895 6894 ] final   20.68 input  -60.11 | X-H torsion
[ 7974 7965 7964 7962 ] final   -6.47 input  175.53 | X-H torsion
[ 8008 7997 7996 7995 ] final  -84.94 input   59.86 | X-H torsion
[ 10167 10162 10161 10158 ] final   86.88 input  -65.29 | X-H torsion
[ 10718 10713 10712 10709 ] final  -96.77 input   66.30 | X-H torsion
[ 10763 10752 10751 10750 ] final -128.85 input  -60.55 | X-H torsion
[ 11005 11000 10999 10996 ] final  -21.13 input  -57.11 | X-H torsion

> <Gold.Protein.ActiveResidues>
 VAL166  LYS551  ARG553  GLY616  TRP617  ASP618  TYR619  PRO620  LYS621  CYS622 
 ASP623  PHE694  ASN695  SER759  ASP760  ASP761  ALA762  ILE779  LEU786  VAL792 
 PHE793  MET794  SER795  GLU796  ALA797  LYS798  CYS799  TRP800  GLU811  SER814 

> <Gold.Protein.RotatedAtoms>
  151.9001  135.0382  160.0505 H   0  0  0  0  0  0  0  0  0  0  0  0  # atno 6907 bound_to 6896
  152.2365  133.5096  159.5254 H   0  0  0  0  0  0  0  0  0  0  0  0  # atno 6908 bound_to 6896
  150.7041  134.1062  159.4026 H   0  0  0  0  0  0  0  0  0  0  0  0  # atno 6909 bound_to 6896
  146.2330  140.2176  142.8336 H   0  0  0  0  0  0  0  0  0  0  0  0  # atno 7974 bound_to 7965
  154.6353  140.0598  156.9781 H   0  0  0  0  0  0  0  0  0  0  0  0  # atno 8008 bound_to 7997
  155.1601  140.3282  155.4394 H   0  0  0  0  0  0  0  0  0  0  0  0  # atno 8009 bound_to 7997
  156.2504  140.1932  156.6709 H   0  0  0  0  0  0  0  0  0  0  0  0  # atno 8010 bound_to 7997
  139.8831  144.6429  150.8821 H   0  0  0  0  0  0  0  0  0  0  0  0  # atno 10167 bound_to 10162
  156.0069  130.5166  150.6276 H   0  0  0  0  0  0  0  0  0  0  0  0  # atno 10718 bound_to 10713
  154.8757  135.3915  154.3824 H   0  0  0  0  0  0  0  0  0  0  0  0  # atno 10763 bound_to 10752
  153.4570  135.7029  153.6079 H   0  0  0  0  0  0  0  0  0  0  0  0  # atno 10764 bound_to 10752
  153.4594  135.3815  155.2298 H   0  0  0  0  0  0  0  0  0  0  0  0  # atno 10765 bound_to 10752
  140.8531  133.7842  155.9989 H   0  0  0  0  0  0  0  0  0  0  0  0  # atno 11005 bound_to 11000
  144.9657  140.8319  143.5486 LP  0  0  0  0  0  0  0  0  0  0  0  0  # atno 17320 bound_to 7965
  145.2152  139.2185  143.5122 LP  0  0  0  0  0  0  0  0  0  0  0  0  # atno 17321 bound_to 7965
  140.7741  143.3570  151.1902 LP  0  0  0  0  0  0  0  0  0  0  0  0  # atno 17342 bound_to 10162
  139.7178  143.9272  152.2973 LP  0  0  0  0  0  0  0  0  0  0  0  0  # atno 17343 bound_to 10162
  157.4080  131.0819  151.1248 LP  0  0  0  0  0  0  0  0  0  0  0  0  # atno 17370 bound_to 10713
  157.1888  130.6342  149.5697 LP  0  0  0  0  0  0  0  0  0  0  0  0  # atno 17371 bound_to 10713
  140.8767  134.2661  157.5164 LP  0  0  0  0  0  0  0  0  0  0  0  0  # atno 17394 bound_to 11000
  139.8704  134.9595  156.4333 LP  0  0  0  0  0  0  0  0  0  0  0  0  # atno 17395 bound_to 11000

$$$$
