AV-unprocessed.smi:283|AV-procd|sdf|2143|dock3
  -GOLD-   2262021473D 1   1.00000     0.00000
 Structure written by MMmdl.
 48 51  0  0  0  0  0  0  0  0  1 V2000
  154.6112  141.2678  159.9687 C   0  0  0  0  0  0  0  0  0  0  0  0
  153.1155  141.3551  159.6376 C   0  0  2  0  0  0  0  0  0  0  0  0
  152.8685  140.8134  158.3020 N   0  0  0  0  0  0  0  0  0  0  0  0
  152.2861  139.6043  158.1386 C   0  0  0  0  0  0  0  0  0  0  0  0
  152.0539  138.7860  159.1982 N   0  0  0  0  0  0  0  0  0  0  0  0
  151.4751  137.5968  159.0100 C   0  0  0  0  0  0  0  0  0  0  0  0
  151.0605  137.0425  157.8684 N   0  0  0  0  0  0  0  0  0  0  0  0
  151.2958  137.8580  156.8000 C   0  0  0  0  0  0  0  0  0  0  0  0
  151.9028  139.1436  156.8526 C   0  0  0  0  0  0  0  0  0  0  0  0
  151.9819  139.6800  155.5742 N   0  0  0  0  0  0  0  0  0  0  0  0
  151.4525  138.7603  154.8130 C   0  0  0  0  0  0  0  0  0  0  0  0
  151.0079  137.6336  155.4689 N   0  0  0  0  0  0  0  0  0  0  0  0
  150.3608  136.4276  154.8708 C   0  0  1  0  0  0  0  0  0  0  0  0
  151.0299  135.2995  155.3401 O   0  0  0  0  0  0  0  0  0  0  0  0
  150.1095  134.2351  155.5554 C   0  0  2  0  0  0  0  0  0  0  0  0
  149.9477  133.4341  154.2484 C   0  0  0  0  0  0  0  0  0  0  0  0
  148.9798  132.4218  154.4215 O   0  0  0  0  0  0  0  0  0  0  0  0
  148.8200  134.9535  155.9773 C   0  0  1  0  0  0  0  0  0  0  0  0
  148.8041  135.0914  157.3841 O   0  0  0  0  0  0  0  0  0  0  0  0
  148.8873  136.3192  155.2963 C   0  0  2  0  0  0  0  0  0  0  0  0
  148.0337  136.3242  154.1693 O   0  0  0  0  0  0  0  0  0  0  0  0
  152.6051  142.7832  159.8447 C   0  0  0  0  0  0  0  0  0  0  0  0
  152.1387  143.5298  158.7374 C   0  0  0  0  0  0  0  0  0  0  0  0
  151.6671  144.8452  158.9055 C   0  0  0  0  0  0  0  0  0  0  0  0
  151.6632  145.4321  160.1836 C   0  0  0  0  0  0  0  0  0  0  0  0
  152.1356  144.7031  161.2906 C   0  0  0  0  0  0  0  0  0  0  0  0
  152.6083  143.3852  161.1284 C   0  0  0  0  0  0  0  0  0  0  0  0
  153.1881  142.5421  162.5224 Cl  0  0  0  0  0  0  0  0  0  0  0  0
  150.5017  136.5348  153.7939 H   0  0  0  0  0  0  0  0  0  0  0  0
  150.4655  133.5723  156.3463 H   0  0  0  0  0  0  0  0  0  0  0  0
  147.9265  134.3900  155.7038 H   0  0  0  0  0  0  0  0  0  0  0  0
  148.6032  137.1336  155.9655 H   0  0  0  0  0  0  0  0  0  0  0  0
  154.8041  141.5884  160.9932 H   0  0  0  0  0  0  0  0  0  0  0  0
  155.2031  141.8994  159.3053 H   0  0  0  0  0  0  0  0  0  0  0  0
  154.9773  140.2453  159.8710 H   0  0  0  0  0  0  0  0  0  0  0  0
  152.5955  140.6921  160.3282 H   0  0  0  0  0  0  0  0  0  0  0  0
  153.0124  141.4564  157.5366 H   0  0  0  0  0  0  0  0  0  0  0  0
  151.3222  137.0055  159.9009 H   0  0  0  0  0  0  0  0  0  0  0  0
  151.3679  138.8821  153.7428 H   0  0  0  0  0  0  0  0  0  0  0  0
  149.5923  134.0851  153.4491 H   0  0  0  0  0  0  0  0  0  0  0  0
  150.8904  133.0006  153.9131 H   0  0  0  0  0  0  0  0  0  0  0  0
  148.5450  132.5616  155.2490 H   0  0  0  0  0  0  0  0  0  0  0  0
  147.9042  135.1643  157.6668 H   0  0  0  0  0  0  0  0  0  0  0  0
  148.5666  136.2999  153.3892 H   0  0  0  0  0  0  0  0  0  0  0  0
  152.1393  143.0958  157.7482 H   0  0  0  0  0  0  0  0  0  0  0  0
  151.3094  145.4040  158.0533 H   0  0  0  0  0  0  0  0  0  0  0  0
  151.3019  146.4416  160.3146 H   0  0  0  0  0  0  0  0  0  0  0  0
  152.1364  145.1594  162.2698 H   0  0  0  0  0  0  0  0  0  0  0  0
  1  2  1  0  0  0  0
  1 33  1  0  0  0  0
  1 34  1  0  0  0  0
  1 35  1  0  0  0  0
  2  3  1  0  0  0  0
  2 22  1  0  0  0  0
  2 36  1  0  0  0  0
  3  4  1  0  0  0  0
  3 37  1  0  0  0  0
  4  9  1  0  0  0  0
  4  5  2  0  0  0  0
  5  6  1  0  0  0  0
  6  7  2  0  0  0  0
  6 38  1  0  0  0  0
  7  8  1  0  0  0  0
  8 12  1  0  0  0  0
  8  9  2  0  0  0  0
  9 10  1  0  0  0  0
 10 11  2  0  0  0  0
 11 12  1  0  0  0  0
 11 39  1  0  0  0  0
 12 13  1  0  0  0  0
 13 29  1  0  0  0  0
 13 20  1  0  0  0  0
 13 14  1  0  0  0  0
 14 15  1  0  0  0  0
 15 30  1  0  0  0  0
 15 16  1  0  0  0  0
 15 18  1  0  0  0  0
 16 17  1  0  0  0  0
 16 40  1  0  0  0  0
 16 41  1  0  0  0  0
 17 42  1  0  0  0  0
 18 31  1  0  0  0  0
 18 19  1  0  0  0  0
 18 20  1  0  0  0  0
 19 43  1  0  0  0  0
 20 32  1  0  0  0  0
 20 21  1  0  0  0  0
 21 44  1  0  0  0  0
 22 27  1  0  0  0  0
 22 23  2  0  0  0  0
 23 24  1  0  0  0  0
 23 45  1  0  0  0  0
 24 25  2  0  0  0  0
 24 46  1  0  0  0  0
 25 26  1  0  0  0  0
 25 47  1  0  0  0  0
 26 27  2  0  0  0  0
 26 48  1  0  0  0  0
 27 28  1  0  0  0  0
M  END
> <s_m_source_file>
AV-unprocessed.smi

> <i_m_source_file_index>
283

> <i_lp_mmshare_version>
43012

> <i_f3d_flags>
0

> <s_epik_input>
Q2xjMVtjSF1bY0hdW2NIXVtjSF1jMVtDQEhdKFtDSDNdKVtOSF1jKG5bY0hdbjIpYyhjMjMpbltjSF1uM1tDQEBIXTRPW0NASF0oW0NIMl1bT0hdKVtDQEBIXShbT0hdKVtDQEhdNFtPSF0=

> <s_epik_cmdline>
J2VwaWtfcHl0aG9uJywgJy1waCcsICc3LjAnLCAnLXRuJywgJzgnLCAnLW1hJywgJzIwMCcsICctbWV0YWxfYmluZGluZycsICctaW1hZScsICc8aW5maWxlLm1hZT4nLCAnLW9tYWUnLCAnPG91dGZpbGUubWFlPic=

> <r_lp_tautomer_probability>
1

> <r_epik_Ionization_Penalty>
0.000266407

> <r_epik_Ionization_Penalty_Charging>
0

> <r_epik_Ionization_Penalty_Neutral>
0.000266407

> <r_epik_State_Penalty>
-0

> <r_epik_Charging_Adjusted_Penalty>
0

> <i_epik_Tot_Q>
0

> <i_epik_Tot_abs_Q>
0

> <r_epik_Metal_State_Penalty>
-0

> <b_epik_Metal_Only>
0

> <s_epik_Chemistry_Notes>
This compound contains an acetal/aminal-like group ( X-CH(R)-Y where X, Y are N, S, or O) that may be acid/base labile, releasing an aldehyde.

> <s_lp_Force_Field>
OPLS_2005

> <r_lp_Energy>
39.2487

> <b_lp_Chiralities_Consistent>
1

> <s_lp_Variant>
AV-unprocessed.smi:283-19

> <Gold.Version>
5.8.1

> <Gold.Id.Protein>
6NUR|6NUR_protein|mol2

> <Gold.PLP.Fitness>
57.6818

> <Gold.PLP.PLP>
-52.7703

> <Gold.PLP.part.hbond>
-1.7500

> <Gold.PLP.part.metal>
0.0000

> <Gold.PLP.part.buried>
-6.7211

> <Gold.PLP.part.nonpolar>
-44.8063

> <Gold.PLP.part.repulsive>
0.4616

> <Gold.PLP.ligand.clash>
0.0000

> <Gold.PLP.ligand.torsion>
0.3837

> <Gold.PLP.Chemscore.Hbond>
1.8613

> <Gold.PLP.Chemscore.CHOScore>
0.0000

> <Gold.PLP.Chemscore.Metal>
0.0000

> <Gold.Chemscore.Hbonds>
donor molecule, donor type, donor heavy atom, donor atom, acceptor molecule, acceptor atom, score
      L1  H    21    44       P1  7948  1.00
      P1  H 10752 10763       L1    14  0.99

> <Gold.PLP.Chemscore.Internal.Correction>
0.0951

> <Gold.Rescore>
     Score         DG    S(hbond)    S(metal)    S(lipo)     H(rot)  DE(clash)    DE(int)     intcor
     14.03     -15.32       1.66        0.00     126.43       4.10       0.19       1.10       ----

> <Gold.Chemscore.Fitness>
14.0279

> <Gold.Chemscore.DG>
-15.3162

> <Gold.Chemscore.ZeroCoef>
-5.4800

> <Gold.Chemscore.Hbond>
1.6562

> <Gold.Chemscore.Metal>
0.0000

> <Gold.Chemscore.Lipo>
126.4308

> <Gold.Chemscore.Internal_Hbond>
0.0000

> <Gold.Chemscore.DEClash>
0.1912

> <Gold.Chemscore.DEInternal>
1.0972

> <Gold.Chemscore.Rot>
4.0968

> <Gold.Chemscore.Internal.Correction>
   9.000000E+99

> <Gold.Chemscore.Hbonds>
donor molecule, donor type, donor heavy atom, donor atom, acceptor molecule, acceptor atom, score
      L1  H    21    44       P1  7948  0.96
      P1  H 10752 10763       L1    14  0.49

> <Gold.Chemscore.Hbond.Weighted>
-5.5318

> <Gold.Chemscore.Metal.Weighted>
-0.0000

> <Gold.Chemscore.Lipo.Weighted>
-14.7924

> <Gold.Chemscore.Internal_Hbond.Weighted>
0.0000

> <Gold.Chemscore.DEClash.Weighted>
0.1912

> <Gold.Chemscore.DEInternal.Weighted>
1.0972

> <Gold.Chemscore.Rot.Weighted>
10.4879

> <Gold.Chemscore.Internal.Correction.Weighted>
   9.000000E+99

> <Gold.Protein.RotatedTorsions>
[ 6907 6896 6895 6894 ] final -148.16 input  -60.11 | X-H torsion
[ 7974 7965 7964 7962 ] final  106.11 input  175.53 | X-H torsion
[ 8008 7997 7996 7995 ] final -116.09 input   59.86 | X-H torsion
[ 10167 10162 10161 10158 ] final   53.84 input  -65.29 | X-H torsion
[ 10718 10713 10712 10709 ] final  172.84 input   66.30 | X-H torsion
[ 10763 10752 10751 10750 ] final   71.01 input  -60.55 | X-H torsion
[ 11005 11000 10999 10996 ] final  175.42 input  -57.11 | X-H torsion

> <Gold.Protein.ActiveResidues>
 VAL166  LYS551  ARG553  GLY616  TRP617  ASP618  TYR619  PRO620  LYS621  CYS622 
 ASP623  PHE694  ASN695  SER759  ASP760  ASP761  ALA762  ILE779  LEU786  VAL792 
 PHE793  MET794  SER795  GLU796  ALA797  LYS798  CYS799  TRP800  GLU811  SER814 

> <Gold.Protein.RotatedAtoms>
  151.1659  133.4815  159.2593 H   0  0  0  0  0  0  0  0  0  0  0  0  # atno 6907 bound_to 6896
  151.1406  135.0177  159.8634 H   0  0  0  0  0  0  0  0  0  0  0  0  # atno 6908 bound_to 6896
  152.5462  134.1553  159.8588 H   0  0  0  0  0  0  0  0  0  0  0  0  # atno 6909 bound_to 6896
  145.3109  139.2541  143.3763 H   0  0  0  0  0  0  0  0  0  0  0  0  # atno 7974 bound_to 7965
  155.0624  140.0393  157.2581 H   0  0  0  0  0  0  0  0  0  0  0  0  # atno 8008 bound_to 7997
  154.7049  140.2681  155.6660 H   0  0  0  0  0  0  0  0  0  0  0  0  # atno 8009 bound_to 7997
  156.2772  140.2733  156.1671 H   0  0  0  0  0  0  0  0  0  0  0  0  # atno 8010 bound_to 7997
  140.2365  144.3630  150.6395 H   0  0  0  0  0  0  0  0  0  0  0  0  # atno 10167 bound_to 10162
  156.9731  131.0096  151.2900 H   0  0  0  0  0  0  0  0  0  0  0  0  # atno 10718 bound_to 10713
  153.0374  135.5153  154.7528 H   0  0  0  0  0  0  0  0  0  0  0  0  # atno 10763 bound_to 10752
  154.6493  135.2923  155.0009 H   0  0  0  0  0  0  0  0  0  0  0  0  # atno 10764 bound_to 10752
  154.0899  135.6652  153.4903 H   0  0  0  0  0  0  0  0  0  0  0  0  # atno 10765 bound_to 10752
  140.3620  134.7104  157.4337 H   0  0  0  0  0  0  0  0  0  0  0  0  # atno 11005 bound_to 11000
  146.3118  140.3645  142.8668 LP  0  0  0  0  0  0  0  0  0  0  0  0  # atno 17320 bound_to 7965
  144.9017  140.7650  143.5863 LP  0  0  0  0  0  0  0  0  0  0  0  0  # atno 17321 bound_to 7965
  140.6146  143.2171  151.6818 LP  0  0  0  0  0  0  0  0  0  0  0  0  # atno 17342 bound_to 10162
  139.5092  144.3586  152.0584 LP  0  0  0  0  0  0  0  0  0  0  0  0  # atno 17343 bound_to 10162
  157.5579  130.8226  149.8228 LP  0  0  0  0  0  0  0  0  0  0  0  0  # atno 17370 bound_to 10713
  156.0275  130.3775  150.1782 LP  0  0  0  0  0  0  0  0  0  0  0  0  # atno 17371 bound_to 10713
  140.0619  134.5984  155.8739 LP  0  0  0  0  0  0  0  0  0  0  0  0  # atno 17394 bound_to 11000
  141.1981  133.6600  156.5775 LP  0  0  0  0  0  0  0  0  0  0  0  0  # atno 17395 bound_to 11000

$$$$
