AV-unprocessed.smi:109|AV-procd|sdf|1050|dock5
  -GOLD-   2262018103D 1   1.00000     0.00000
 Structure written by MMmdl.
 58 61  0  0  0  0  0  0  0  0  1 V2000
  149.3370  141.1311  153.6748 O   0  0  0  0  0  0  0  0  0  0  0  0
  149.5122  140.7016  155.0076 C   0  0  0  0  0  0  0  0  0  0  0  0
  150.6758  141.4706  155.6571 C   0  0  0  0  0  0  0  0  0  0  0  0
  150.8311  141.2222  157.1782 C   0  0  1  0  0  0  0  0  0  0  0  0
  151.4295  139.9034  157.4001 N   0  0  0  0  0  0  0  0  0  0  0  0
  151.5349  138.9830  156.4151 C   0  0  0  0  0  0  0  0  0  0  0  0
  152.2364  139.2355  155.2808 N   0  0  0  0  0  0  0  0  0  0  0  0
  152.3274  138.3031  154.3304 C   0  0  0  0  0  0  0  0  0  0  0  0
  151.8040  137.0766  154.3161 N   0  0  0  0  0  0  0  0  0  0  0  0
  151.0930  136.8093  155.4507 C   0  0  0  0  0  0  0  0  0  0  0  0
  150.9149  137.7125  156.5378 C   0  0  0  0  0  0  0  0  0  0  0  0
  150.1357  137.1210  157.5205 N   0  0  0  0  0  0  0  0  0  0  0  0
  149.8658  135.9396  157.0372 C   0  0  0  0  0  0  0  0  0  0  0  0
  150.4125  135.6543  155.8045 N   0  0  0  0  0  0  0  0  0  0  0  0
  150.2243  134.3716  155.0375 C   0  0  1  0  0  0  0  0  0  0  0  0
  150.6658  133.3148  155.8274 O   0  0  0  0  0  0  0  0  0  0  0  0
  149.5722  132.7577  156.5417 C   0  0  2  0  0  0  0  0  0  0  0  0
  149.8897  131.3050  156.9276 C   0  0  0  0  0  0  0  0  0  0  0  0
  150.1940  130.5496  155.7744 O   0  0  0  0  0  0  0  0  0  0  0  0
  148.4044  132.8805  155.5486 C   0  0  1  0  0  0  0  0  0  0  0  0
  147.1973  133.1130  156.2460 O   0  0  0  0  0  0  0  0  0  0  0  0
  148.7614  134.0802  154.6636 C   0  0  2  0  0  0  0  0  0  0  0  0
  148.6463  133.7314  153.2986 O   0  0  0  0  0  0  0  0  0  0  0  0
  151.6820  142.3051  157.9023 C   0  0  0  0  0  0  0  0  0  0  0  0
  152.1168  141.8247  159.3116 C   0  0  0  0  0  0  0  0  0  0  0  0
  152.9536  142.8730  160.0610 C   0  0  0  0  0  0  0  0  0  0  0  0
  152.1964  144.2003  160.1828 C   0  0  0  0  0  0  0  0  0  0  0  0
  151.7797  144.7104  158.7982 C   0  0  0  0  0  0  0  0  0  0  0  0
  150.9489  143.6639  158.0371 C   0  0  0  0  0  0  0  0  0  0  0  0
  150.8751  134.4920  154.1702 H   0  0  0  0  0  0  0  0  0  0  0  0
  149.3844  133.3550  157.4342 H   0  0  0  0  0  0  0  0  0  0  0  0
  148.3160  131.9698  154.9535 H   0  0  0  0  0  0  0  0  0  0  0  0
  148.1357  134.9550  154.8388 H   0  0  0  0  0  0  0  0  0  0  0  0
  149.3964  140.3788  153.1059 H   0  0  0  0  0  0  0  0  0  0  0  0
  148.5858  140.8701  155.5573 H   0  0  0  0  0  0  0  0  0  0  0  0
  149.7005  139.6280  155.0024 H   0  0  0  0  0  0  0  0  0  0  0  0
  151.6089  141.2262  155.1476 H   0  0  0  0  0  0  0  0  0  0  0  0
  150.4925  142.5274  155.4714 H   0  0  0  0  0  0  0  0  0  0  0  0
  149.8367  141.2698  157.6217 H   0  0  0  0  0  0  0  0  0  0  0  0
  151.7144  139.7129  158.3499 H   0  0  0  0  0  0  0  0  0  0  0  0
  152.9027  138.5779  153.4588 H   0  0  0  0  0  0  0  0  0  0  0  0
  149.2526  135.2323  157.5765 H   0  0  0  0  0  0  0  0  0  0  0  0
  150.7652  131.2745  157.5772 H   0  0  0  0  0  0  0  0  0  0  0  0
  149.0642  130.8488  157.4747 H   0  0  0  0  0  0  0  0  0  0  0  0
  149.6449  130.8484  155.0656 H   0  0  0  0  0  0  0  0  0  0  0  0
  146.4922  133.1471  155.6167 H   0  0  0  0  0  0  0  0  0  0  0  0
  148.5326  134.5230  152.7953 H   0  0  0  0  0  0  0  0  0  0  0  0
  152.5850  142.4740  157.3132 H   0  0  0  0  0  0  0  0  0  0  0  0
  151.2332  141.5783  159.9020 H   0  0  0  0  0  0  0  0  0  0  0  0
  152.7023  140.9075  159.2449 H   0  0  0  0  0  0  0  0  0  0  0  0
  153.2125  142.5014  161.0528 H   0  0  0  0  0  0  0  0  0  0  0  0
  153.8955  143.0342  159.5351 H   0  0  0  0  0  0  0  0  0  0  0  0
  151.3127  144.0645  160.8075 H   0  0  0  0  0  0  0  0  0  0  0  0
  152.8202  144.9421  160.6822 H   0  0  0  0  0  0  0  0  0  0  0  0
  151.2090  145.6338  158.8998 H   0  0  0  0  0  0  0  0  0  0  0  0
  152.6692  144.9603  158.2186 H   0  0  0  0  0  0  0  0  0  0  0  0
  150.7208  144.0811  157.0578 H   0  0  0  0  0  0  0  0  0  0  0  0
  149.9937  143.5177  158.5433 H   0  0  0  0  0  0  0  0  0  0  0  0
  1  2  1  0  0  0  0
  1 34  1  0  0  0  0
  2  3  1  0  0  0  0
  2 35  1  0  0  0  0
  2 36  1  0  0  0  0
  3  4  1  0  0  0  0
  3 37  1  0  0  0  0
  3 38  1  0  0  0  0
  4  5  1  0  0  0  0
  4 24  1  0  0  0  0
  4 39  1  0  0  0  0
  5  6  1  0  0  0  0
  5 40  1  0  0  0  0
  6 11  1  0  0  0  0
  6  7  2  0  0  0  0
  7  8  1  0  0  0  0
  8  9  2  0  0  0  0
  8 41  1  0  0  0  0
  9 10  1  0  0  0  0
 10 14  1  0  0  0  0
 10 11  2  0  0  0  0
 11 12  1  0  0  0  0
 12 13  2  0  0  0  0
 13 14  1  0  0  0  0
 13 42  1  0  0  0  0
 14 15  1  0  0  0  0
 15 30  1  0  0  0  0
 15 22  1  0  0  0  0
 15 16  1  0  0  0  0
 16 17  1  0  0  0  0
 17 31  1  0  0  0  0
 17 18  1  0  0  0  0
 17 20  1  0  0  0  0
 18 19  1  0  0  0  0
 18 43  1  0  0  0  0
 18 44  1  0  0  0  0
 19 45  1  0  0  0  0
 20 32  1  0  0  0  0
 20 21  1  0  0  0  0
 20 22  1  0  0  0  0
 21 46  1  0  0  0  0
 22 33  1  0  0  0  0
 22 23  1  0  0  0  0
 23 47  1  0  0  0  0
 24 29  1  0  0  0  0
 24 25  1  0  0  0  0
 24 48  1  0  0  0  0
 25 26  1  0  0  0  0
 25 49  1  0  0  0  0
 25 50  1  0  0  0  0
 26 27  1  0  0  0  0
 26 51  1  0  0  0  0
 26 52  1  0  0  0  0
 27 28  1  0  0  0  0
 27 53  1  0  0  0  0
 27 54  1  0  0  0  0
 28 29  1  0  0  0  0
 28 55  1  0  0  0  0
 28 56  1  0  0  0  0
 29 57  1  0  0  0  0
 29 58  1  0  0  0  0
M  END
> <s_m_source_file>
AV-unprocessed.smi

> <i_m_source_file_index>
109

> <i_lp_mmshare_version>
43012

> <i_f3d_flags>
0

> <s_epik_input>
W0NIMl0xW0NIMl1bQ0gyXVtDSDJdW0NIMl1bQ0hdMVtDQEhdKFtDSDJdW0NIMl1bT0hdKVtOSF1jKG5bY0hdbjIpYyhjMjMpbltjSF1uM1tDQEBIXTRPW0NASF0oW0NIMl1bT0hdKVtDQEBIXShbT0hdKVtDQEhdNFtPSF0=

> <s_epik_cmdline>
J2VwaWtfcHl0aG9uJywgJy1waCcsICc3LjAnLCAnLXRuJywgJzgnLCAnLW1hJywgJzIwMCcsICctbWV0YWxfYmluZGluZycsICctaW1hZScsICc8aW5maWxlLm1hZT4nLCAnLW9tYWUnLCAnPG91dGZpbGUubWFlPic=

> <r_lp_tautomer_probability>
1

> <r_epik_Ionization_Penalty>
0.000793976

> <r_epik_Ionization_Penalty_Charging>
0

> <r_epik_Ionization_Penalty_Neutral>
0.000793976

> <r_epik_State_Penalty>
-0

> <r_epik_Charging_Adjusted_Penalty>
0

> <i_epik_Tot_Q>
0

> <i_epik_Tot_abs_Q>
0

> <r_epik_Metal_State_Penalty>
-0

> <b_epik_Metal_Only>
0

> <s_epik_Chemistry_Notes>
This compound contains an acetal/aminal-like group ( X-CH(R)-Y where X, Y are N, S, or O) that may be acid/base labile, releasing an aldehyde.

> <s_lp_Force_Field>
OPLS_2005

> <r_lp_Energy>
47.2869

> <b_lp_Chiralities_Consistent>
1

> <s_lp_Variant>
AV-unprocessed.smi:109-20

> <Gold.Version>
5.8.1

> <Gold.Id.Protein>
6NUR|6NUR_protein|mol2

> <Gold.PLP.Fitness>
53.6730

> <Gold.PLP.PLP>
-45.2668

> <Gold.PLP.part.hbond>
-5.0000

> <Gold.PLP.part.metal>
0.0000

> <Gold.PLP.part.buried>
-7.2110

> <Gold.PLP.part.nonpolar>
-33.1703

> <Gold.PLP.part.repulsive>
0.2152

> <Gold.PLP.ligand.clash>
0.4085

> <Gold.PLP.ligand.torsion>
1.1551

> <Gold.PLP.Chemscore.Hbond>
3.5824

> <Gold.PLP.Chemscore.CHOScore>
0.0000

> <Gold.PLP.Chemscore.Metal>
0.0000

> <Gold.Chemscore.Hbonds>
donor molecule, donor type, donor heavy atom, donor atom, acceptor molecule, acceptor atom, score
      L1  H     1    34       P1  7957  0.74
      L1  H    23    47       P1  7948  0.85
      P1  H  8011  8017       L1     1  0.77
      P1  H 10752 10763       L1     9  1.00

> <Gold.PLP.Chemscore.Internal.Correction>
0.3777

> <Gold.Rescore>
     Score         DG    S(hbond)    S(metal)    S(lipo)     H(rot)  DE(clash)    DE(int)     intcor
      6.67     -10.74       2.09        0.00     104.78       5.47       0.37       3.70       ----

> <Gold.Chemscore.Fitness>
6.6677

> <Gold.Chemscore.DG>
-10.7369

> <Gold.Chemscore.ZeroCoef>
-5.4800

> <Gold.Chemscore.Hbond>
2.0932

> <Gold.Chemscore.Metal>
0.0000

> <Gold.Chemscore.Lipo>
104.7783

> <Gold.Chemscore.Internal_Hbond>
0.0000

> <Gold.Chemscore.DEClash>
0.3663

> <Gold.Chemscore.DEInternal>
3.7029

> <Gold.Chemscore.Rot>
5.4662

> <Gold.Chemscore.Internal.Correction>
   9.000000E+99

> <Gold.Chemscore.Hbonds>
donor molecule, donor type, donor heavy atom, donor atom, acceptor molecule, acceptor atom, score
      L1  H     1    34       P1  7957  0.72
      L1  H    23    47       P1  7948  0.14
      P1  H  8011  8017       L1     1  0.11
      P1  H 10752 10763       L1     9  0.49

> <Gold.Chemscore.Hbond.Weighted>
-6.9913

> <Gold.Chemscore.Metal.Weighted>
-0.0000

> <Gold.Chemscore.Lipo.Weighted>
-12.2591

> <Gold.Chemscore.Internal_Hbond.Weighted>
0.0000

> <Gold.Chemscore.DEClash.Weighted>
0.3663

> <Gold.Chemscore.DEInternal.Weighted>
3.7029

> <Gold.Chemscore.Rot.Weighted>
13.9935

> <Gold.Chemscore.Internal.Correction.Weighted>
   9.000000E+99

> <Gold.Protein.RotatedTorsions>
[ 6907 6896 6895 6894 ] final -108.88 input  -60.11 | X-H torsion
[ 7974 7965 7964 7962 ] final -177.77 input  175.53 | X-H torsion
[ 8008 7997 7996 7995 ] final  124.52 input   59.86 | X-H torsion
[ 10167 10162 10161 10158 ] final -168.09 input  -65.29 | X-H torsion
[ 10718 10713 10712 10709 ] final   11.04 input   66.30 | X-H torsion
[ 10763 10752 10751 10750 ] final   30.89 input  -60.55 | X-H torsion
[ 11005 11000 10999 10996 ] final  -33.46 input  -57.11 | X-H torsion

> <Gold.Protein.ActiveResidues>
 VAL166  LYS551  ARG553  GLY616  TRP617  ASP618  TYR619  PRO620  LYS621  CYS622 
 ASP623  PHE694  ASN695  SER759  ASP760  ASP761  ALA762  ILE779  LEU786  VAL792 
 PHE793  MET794  SER795  GLU796  ALA797  LYS798  CYS799  TRP800  GLU811  SER814 

> <Gold.Protein.RotatedAtoms>
  150.7528  133.9612  159.3516 H   0  0  0  0  0  0  0  0  0  0  0  0  # atno 6907 bound_to 6896
  151.7538  135.0824  160.0344 H   0  0  0  0  0  0  0  0  0  0  0  0  # atno 6908 bound_to 6896
  152.3448  133.6072  159.5938 H   0  0  0  0  0  0  0  0  0  0  0  0  # atno 6909 bound_to 6896
  144.7128  140.0969  143.6418 H   0  0  0  0  0  0  0  0  0  0  0  0  # atno 7974 bound_to 7965
  156.2804  140.2738  156.1801 H   0  0  0  0  0  0  0  0  0  0  0  0  # atno 8008 bound_to 7997
  155.0565  140.0386  157.2580 H   0  0  0  0  0  0  0  0  0  0  0  0  # atno 8009 bound_to 7997
  154.7152  140.2677  155.6597 H   0  0  0  0  0  0  0  0  0  0  0  0  # atno 8010 bound_to 7997
  139.6007  144.1016  152.1740 H   0  0  0  0  0  0  0  0  0  0  0  0  # atno 10167 bound_to 10162
  156.9897  130.6038  149.5684 H   0  0  0  0  0  0  0  0  0  0  0  0  # atno 10718 bound_to 10713
  153.0346  135.6453  154.1114 H   0  0  0  0  0  0  0  0  0  0  0  0  # atno 10763 bound_to 10752
  154.0831  135.2872  155.3288 H   0  0  0  0  0  0  0  0  0  0  0  0  # atno 10764 bound_to 10752
  154.6516  135.5424  153.7973 H   0  0  0  0  0  0  0  0  0  0  0  0  # atno 10765 bound_to 10752
  140.9637  133.7149  156.1410 H   0  0  0  0  0  0  0  0  0  0  0  0  # atno 11005 bound_to 11000
  145.9572  139.2775  143.1177 LP  0  0  0  0  0  0  0  0  0  0  0  0  # atno 17320 bound_to 7965
  145.9260  140.9082  143.0381 LP  0  0  0  0  0  0  0  0  0  0  0  0  # atno 17321 bound_to 7965
  140.0612  144.5855  150.7262 LP  0  0  0  0  0  0  0  0  0  0  0  0  # atno 17342 bound_to 10162
  140.7247  143.2624  151.4159 LP  0  0  0  0  0  0  0  0  0  0  0  0  # atno 17343 bound_to 10162
  156.0212  130.5306  150.8280 LP  0  0  0  0  0  0  0  0  0  0  0  0  # atno 17370 bound_to 10713
  157.5467  131.0942  150.9752 LP  0  0  0  0  0  0  0  0  0  0  0  0  # atno 17371 bound_to 10713
  140.7431  134.4128  157.5552 LP  0  0  0  0  0  0  0  0  0  0  0  0  # atno 17394 bound_to 11000
  139.8887  134.8850  156.2461 LP  0  0  0  0  0  0  0  0  0  0  0  0  # atno 17395 bound_to 11000

$$$$
