AV-unprocessed.smi:99|AV-procd|sdf|871|dock10
  -GOLD-   2262017333D 1   1.00000     0.00000
 Structure written by MMmdl.
 53 56  0  0  0  0  0  0  0  0  1 V2000
  147.9134  137.1352  161.0811 O   0  0  0  0  0  0  0  0  0  0  0  0
  148.1405  136.0105  160.6301 C   0  0  0  0  0  0  0  0  0  0  0  0
  149.1005  135.7524  159.7203 O   0  0  0  0  0  0  0  0  0  0  0  0
  149.9403  136.7985  159.2612 C   0  0  0  0  0  0  0  0  0  0  0  0
  149.5891  137.1295  157.8074 C   0  0  2  0  0  0  0  0  0  0  0  0
  149.0683  135.9794  157.1611 O   0  0  0  0  0  0  0  0  0  0  0  0
  149.2557  136.1025  155.7872 C   0  0  2  0  0  0  0  0  0  0  0  0
  149.5659  134.7258  155.2409 N   0  0  0  0  0  0  0  0  0  0  0  0
  150.5794  133.9601  155.8012 C   0  0  0  0  0  0  0  0  0  0  0  0
  150.8956  132.7183  155.3642 C   0  0  0  0  0  0  0  0  0  0  0  0
  150.1621  132.1158  154.2556 C   0  0  0  0  0  0  0  0  0  0  0  0
  150.3726  130.9974  153.7911 O   0  0  0  0  0  0  0  0  0  0  0  0
  149.1536  132.9228  153.7202 N   0  0  0  0  0  0  0  0  0  0  0  0
  148.8206  134.2055  154.1599 C   0  0  0  0  0  0  0  0  0  0  0  0
  147.9189  134.8299  153.6023 O   0  0  0  0  0  0  0  0  0  0  0  0
  150.3859  137.1295  155.5475 C   0  0  2  0  0  0  0  0  0  0  0  0
  151.4899  136.6401  154.8072 O   0  0  0  0  0  0  0  0  0  0  0  0
  150.8111  137.4974  156.9652 C   0  0  1  0  0  0  0  0  0  0  0  0
  151.0570  138.8943  157.0723 O   0  0  0  0  0  0  0  0  0  0  0  0
  151.5924  139.4160  158.1969 C   0  0  0  0  0  0  0  0  0  0  0  0
  152.0199  138.7337  159.1299 O   0  0  0  0  0  0  0  0  0  0  0  0
  151.6183  140.9069  158.1898 C   0  0  0  0  0  0  0  0  0  0  0  0
  150.9834  141.6054  157.1366 C   0  0  0  0  0  0  0  0  0  0  0  0
  150.9855  143.0135  157.1057 C   0  0  0  0  0  0  0  0  0  0  0  0
  151.6216  143.7404  158.1286 C   0  0  0  0  0  0  0  0  0  0  0  0
  152.2568  143.0573  159.1822 C   0  0  0  0  0  0  0  0  0  0  0  0
  152.2569  141.6490  159.2140 C   0  0  0  0  0  0  0  0  0  0  0  0
  147.3802  134.7925  161.0343 C   0  0  0  0  0  0  0  0  0  0  0  0
  146.2375  134.9304  161.8566 C   0  0  0  0  0  0  0  0  0  0  0  0
  145.4999  133.7988  162.2555 C   0  0  0  0  0  0  0  0  0  0  0  0
  145.8963  132.5151  161.8377 C   0  0  0  0  0  0  0  0  0  0  0  0
  147.0315  132.3643  161.0200 C   0  0  0  0  0  0  0  0  0  0  0  0
  147.7702  133.4949  160.6198 C   0  0  0  0  0  0  0  0  0  0  0  0
  148.6234  132.5472  152.9475 H   0  0  0  0  0  0  0  0  0  0  0  0
  149.7854  137.6767  159.8895 H   0  0  0  0  0  0  0  0  0  0  0  0
  150.9905  136.5146  159.3433 H   0  0  0  0  0  0  0  0  0  0  0  0
  148.8451  137.9269  157.7550 H   0  0  0  0  0  0  0  0  0  0  0  0
  148.3070  136.4265  155.3569 H   0  0  0  0  0  0  0  0  0  0  0  0
  151.1527  134.3706  156.6204 H   0  0  0  0  0  0  0  0  0  0  0  0
  151.6962  132.1676  155.8368 H   0  0  0  0  0  0  0  0  0  0  0  0
  149.9525  137.9880  155.0326 H   0  0  0  0  0  0  0  0  0  0  0  0
  151.2013  136.4475  153.9279 H   0  0  0  0  0  0  0  0  0  0  0  0
  151.6614  136.8920  157.2848 H   0  0  0  0  0  0  0  0  0  0  0  0
  150.4872  141.0694  156.3401 H   0  0  0  0  0  0  0  0  0  0  0  0
  150.4973  143.5357  156.2960 H   0  0  0  0  0  0  0  0  0  0  0  0
  151.6216  144.8203  158.1055 H   0  0  0  0  0  0  0  0  0  0  0  0
  152.7442  143.6146  159.9686 H   0  0  0  0  0  0  0  0  0  0  0  0
  152.7512  141.1564  160.0385 H   0  0  0  0  0  0  0  0  0  0  0  0
  145.9135  135.9058  162.1904 H   0  0  0  0  0  0  0  0  0  0  0  0
  144.6288  133.9165  162.8832 H   0  0  0  0  0  0  0  0  0  0  0  0
  145.3308  131.6473  162.1438 H   0  0  0  0  0  0  0  0  0  0  0  0
  147.3367  131.3793  160.6990 H   0  0  0  0  0  0  0  0  0  0  0  0
  148.6368  133.3434  159.9929 H   0  0  0  0  0  0  0  0  0  0  0  0
  1  2  2  0  0  0  0
  2  3  1  0  0  0  0
  2 28  1  0  0  0  0
  3  4  1  0  0  0  0
  4  5  1  0  0  0  0
  4 35  1  0  0  0  0
  4 36  1  0  0  0  0
  5 18  1  0  0  0  0
  5  6  1  0  0  0  0
  5 37  1  0  0  0  0
  6  7  1  0  0  0  0
  7  8  1  0  0  0  0
  7 16  1  0  0  0  0
  7 38  1  0  0  0  0
  8 14  1  0  0  0  0
  8  9  1  0  0  0  0
  9 10  2  0  0  0  0
  9 39  1  0  0  0  0
 10 11  1  0  0  0  0
 10 40  1  0  0  0  0
 11 12  2  0  0  0  0
 11 13  1  0  0  0  0
 13 34  1  0  0  0  0
 13 14  1  0  0  0  0
 14 15  2  0  0  0  0
 16 17  1  0  0  0  0
 16 18  1  0  0  0  0
 16 41  1  0  0  0  0
 17 42  1  0  0  0  0
 18 19  1  0  0  0  0
 18 43  1  0  0  0  0
 19 20  1  0  0  0  0
 20 21  2  0  0  0  0
 20 22  1  0  0  0  0
 22 27  1  0  0  0  0
 22 23  2  0  0  0  0
 23 24  1  0  0  0  0
 23 44  1  0  0  0  0
 24 25  2  0  0  0  0
 24 45  1  0  0  0  0
 25 26  1  0  0  0  0
 25 46  1  0  0  0  0
 26 27  2  0  0  0  0
 26 47  1  0  0  0  0
 27 48  1  0  0  0  0
 28 33  1  0  0  0  0
 28 29  2  0  0  0  0
 29 30  1  0  0  0  0
 29 49  1  0  0  0  0
 30 31  2  0  0  0  0
 30 50  1  0  0  0  0
 31 32  1  0  0  0  0
 31 51  1  0  0  0  0
 32 33  2  0  0  0  0
 32 52  1  0  0  0  0
 33 53  1  0  0  0  0
M  END
> <s_m_source_file>
AV-unprocessed.smi

> <i_m_source_file_index>
99

> <i_lp_mmshare_version>
43012

> <i_f3d_flags>
0

> <s_epik_input>
W2NIXTFbY0hdW2NIXVtjSF1bY0hdYzFDKD1PKU9bQ0gyXVtDQEBIXTJPW0NAQEhdKG4zW2NIXVtjSF1jKD1PKVtuSF1jMz1PKVtDQEBIXShbT0hdKVtDQEhdMk9DKD1PKWM0W2NIXVtjSF1bY0hdW2NIXVtjSF00

> <s_epik_cmdline>
J2VwaWtfcHl0aG9uJywgJy1waCcsICc3LjAnLCAnLXRuJywgJzgnLCAnLW1hJywgJzIwMCcsICctbWV0YWxfYmluZGluZycsICctaW1hZScsICc8aW5maWxlLm1hZT4nLCAnLW9tYWUnLCAnPG91dGZpbGUubWFlPic=

> <r_lp_tautomer_probability>
1

> <r_epik_Ionization_Penalty>
0.00454555

> <r_epik_Ionization_Penalty_Charging>
0.0045191

> <r_epik_Ionization_Penalty_Neutral>
2.64449e-05

> <r_epik_State_Penalty>
-0

> <r_epik_Charging_Adjusted_Penalty>
0.0045191

> <i_epik_Tot_Q>
0

> <i_epik_Tot_abs_Q>
0

> <r_epik_Metal_State_Penalty>
1.27877

> <b_epik_Metal_Only>
0

> <s_epik_Chemistry_Notes>
This compound has an ester and may undergo hydrolysis at high or low pH. This compound contains an acetal/aminal-like group ( X-CH(R)-Y where X, Y are N, S, or O) that may be acid/base labile, releasing an aldehyde.

> <s_lp_Force_Field>
OPLS_2005

> <r_lp_Energy>
38.4241

> <b_lp_Chiralities_Consistent>
1

> <s_lp_Variant>
AV-unprocessed.smi:99-7

> <Gold.Version>
5.8.1

> <Gold.Id.Protein>
6NUR|6NUR_protein|mol2

> <Gold.PLP.Fitness>
55.1517

> <Gold.PLP.PLP>
-48.4976

> <Gold.PLP.part.hbond>
-4.0000

> <Gold.PLP.part.metal>
0.0000

> <Gold.PLP.part.buried>
-5.4253

> <Gold.PLP.part.nonpolar>
-40.2027

> <Gold.PLP.part.repulsive>
1.6537

> <Gold.PLP.ligand.clash>
0.0045

> <Gold.PLP.ligand.torsion>
1.0669

> <Gold.PLP.Chemscore.Hbond>
2.7760

> <Gold.PLP.Chemscore.CHOScore>
0.0000

> <Gold.PLP.Chemscore.Metal>
0.0000

> <Gold.Chemscore.Hbonds>
donor molecule, donor type, donor heavy atom, donor atom, acceptor molecule, acceptor atom, score
      P1  H  6931  6943       L1     1  0.99
      P1  H  6934  6947       L1     1  0.78
      P1  H 10752 10764       L1    17  0.84

> <Gold.PLP.Chemscore.Internal.Correction>
0.4644

> <Gold.Rescore>
     Score         DG    S(hbond)    S(metal)    S(lipo)     H(rot)  DE(clash)    DE(int)     intcor
     14.20     -16.98       1.84        0.00     115.52       3.19       0.50       2.28       ----

> <Gold.Chemscore.Fitness>
14.2048

> <Gold.Chemscore.DG>
-16.9819

> <Gold.Chemscore.ZeroCoef>
-5.4800

> <Gold.Chemscore.Hbond>
1.8424

> <Gold.Chemscore.Metal>
0.0000

> <Gold.Chemscore.Lipo>
115.5169

> <Gold.Chemscore.Internal_Hbond>
0.0000

> <Gold.Chemscore.DEClash>
0.4994

> <Gold.Chemscore.DEInternal>
2.2777

> <Gold.Chemscore.Rot>
3.1903

> <Gold.Chemscore.Internal.Correction>
   9.000000E+99

> <Gold.Chemscore.Hbonds>
donor molecule, donor type, donor heavy atom, donor atom, acceptor molecule, acceptor atom, score
      L1  H    17    42       P1  7949  0.01
      P1  H  6931  6943       L1     1  0.93
      P1  H  6934  6947       L1     1  0.73
      P1  H 10752 10764       L1    17  0.16

> <Gold.Chemscore.Hbond.Weighted>
-6.1535

> <Gold.Chemscore.Metal.Weighted>
-0.0000

> <Gold.Chemscore.Lipo.Weighted>
-13.5155

> <Gold.Chemscore.Internal_Hbond.Weighted>
0.0000

> <Gold.Chemscore.DEClash.Weighted>
0.4994

> <Gold.Chemscore.DEInternal.Weighted>
2.2777

> <Gold.Chemscore.Rot.Weighted>
8.1671

> <Gold.Chemscore.Internal.Correction.Weighted>
   9.000000E+99

> <Gold.Protein.RotatedTorsions>
[ 6907 6896 6895 6894 ] final  -28.71 input  -60.11 | X-H torsion
[ 7974 7965 7964 7962 ] final   33.99 input  175.53 | X-H torsion
[ 8008 7997 7996 7995 ] final  -10.07 input   59.86 | X-H torsion
[ 10167 10162 10161 10158 ] final   56.14 input  -65.29 | X-H torsion
[ 10718 10713 10712 10709 ] final   -0.32 input   66.30 | X-H torsion
[ 10763 10752 10751 10750 ] final  -41.91 input  -60.55 | X-H torsion
[ 11005 11000 10999 10996 ] final  143.49 input  -57.11 | X-H torsion

> <Gold.Protein.ActiveResidues>
 VAL166  LYS551  ARG553  GLY616  TRP617  ASP618  TYR619  PRO620  LYS621  CYS622 
 ASP623  PHE694  ASN695  SER759  ASP760  ASP761  ALA762  ILE779  LEU786  VAL792 
 PHE793  MET794  SER795  GLU796  ALA797  LYS798  CYS799  TRP800  GLU811  SER814 

> <Gold.Protein.RotatedAtoms>
  151.1292  135.0121  159.8574 H   0  0  0  0  0  0  0  0  0  0  0  0  # atno 6907 bound_to 6896
  152.5450  134.1631  159.8576 H   0  0  0  0  0  0  0  0  0  0  0  0  # atno 6908 bound_to 6896
  151.1696  133.4748  159.2627 H   0  0  0  0  0  0  0  0  0  0  0  0  # atno 6909 bound_to 6896
  146.1383  139.6326  142.9180 H   0  0  0  0  0  0  0  0  0  0  0  0  # atno 7974 bound_to 7965
  154.5588  140.2338  155.8367 H   0  0  0  0  0  0  0  0  0  0  0  0  # atno 8008 bound_to 7997
  156.2012  140.3052  155.9490 H   0  0  0  0  0  0  0  0  0  0  0  0  # atno 8009 bound_to 7997
  155.2928  140.0427  157.3015 H   0  0  0  0  0  0  0  0  0  0  0  0  # atno 8010 bound_to 7997
  140.2119  144.3880  150.6485 H   0  0  0  0  0  0  0  0  0  0  0  0  # atno 10167 bound_to 10162
  156.8222  130.5460  149.5696 H   0  0  0  0  0  0  0  0  0  0  0  0  # atno 10718 bound_to 10713
  153.9703  135.6729  153.4747 H   0  0  0  0  0  0  0  0  0  0  0  0  # atno 10763 bound_to 10752
  153.0796  135.4930  154.8472 H   0  0  0  0  0  0  0  0  0  0  0  0  # atno 10764 bound_to 10752
  154.7223  135.3120  154.8988 H   0  0  0  0  0  0  0  0  0  0  0  0  # atno 10765 bound_to 10752
  140.0558  134.9231  157.1097 H   0  0  0  0  0  0  0  0  0  0  0  0  # atno 11005 bound_to 11000
  145.5105  141.0435  143.2490 LP  0  0  0  0  0  0  0  0  0  0  0  0  # atno 17320 bound_to 7965
  144.7764  139.6621  143.7173 LP  0  0  0  0  0  0  0  0  0  0  0  0  # atno 17321 bound_to 7965
  140.6317  143.2188  151.6480 LP  0  0  0  0  0  0  0  0  0  0  0  0  # atno 17342 bound_to 10162
  139.5177  144.3308  152.0828 LP  0  0  0  0  0  0  0  0  0  0  0  0  # atno 17343 bound_to 10162
  156.0982  130.5949  150.9850 LP  0  0  0  0  0  0  0  0  0  0  0  0  # atno 17370 bound_to 10713
  157.6451  131.0905  150.8170 LP  0  0  0  0  0  0  0  0  0  0  0  0  # atno 17371 bound_to 10713
  140.3847  134.2249  155.7169 LP  0  0  0  0  0  0  0  0  0  0  0  0  # atno 17394 bound_to 11000
  141.1951  133.8113  157.0729 LP  0  0  0  0  0  0  0  0  0  0  0  0  # atno 17395 bound_to 11000

$$$$
