AV-unprocessed.smi:2063|AV-procd|sdf|8411|dock4
  -GOLD-   2272011103D 1   1.00000     0.00000
 Structure written by MMmdl.
 39 40  0  0  0  0  0  0  0  0  1 V2000
  155.4948  133.7213  162.3680 C   0  0  0  0  0  0  0  0  0  0  0  0
  155.0092  135.0410  162.9851 C   0  0  0  0  0  0  0  0  0  0  0  0
  154.1624  134.8392  164.2501 C   0  0  0  0  0  0  0  0  0  0  0  0
  154.3243  135.9148  161.9811 C   0  0  0  0  0  0  0  0  0  0  0  0
  154.1872  135.5765  160.6917 N   0  0  0  0  0  0  0  0  0  0  0  0
  153.5205  136.5476  159.9587 N   0  0  0  0  0  0  0  0  0  0  0  0
  153.1725  137.5952  160.7181 C   0  0  0  0  0  0  0  0  0  0  0  0
  152.4854  138.7350  160.2238 N   0  0  0  0  0  0  0  0  0  0  0  0
  152.9340  139.6755  159.3743 C   0  0  0  0  0  0  0  0  0  0  0  0
  154.0464  139.6867  158.8468 O   0  0  0  0  0  0  0  0  0  0  0  0
  152.0038  140.6180  159.1639 N   0  0  0  0  0  0  0  0  0  0  0  0
  152.1603  141.7887  158.3035 C   0  0  1  0  0  0  0  0  0  0  0  0
  150.9281  141.9309  157.3960 C   0  0  0  0  0  0  0  0  0  0  0  0
  152.3871  143.0434  159.1678 C   0  0  1  0  0  0  0  0  0  0  0  0
  152.3045  144.3677  158.4062 C   0  0  0  0  0  0  0  0  0  0  0  0
  151.9316  145.3749  159.4820 C   0  0  0  0  0  0  0  0  0  0  0  0
  151.4290  144.5123  160.6435 C   0  0  0  0  0  0  0  0  0  0  0  0
  151.3501  143.1918  160.1247 O   0  0  0  0  0  0  0  0  0  0  0  0
  153.6355  137.4781  162.4066 S   0  0  0  0  0  0  0  0  0  0  0  0
  156.1593  133.9048  161.5230 H   0  0  0  0  0  0  0  0  0  0  0  0
  154.6589  133.1194  162.0107 H   0  0  0  0  0  0  0  0  0  0  0  0
  156.0446  133.1255  163.0969 H   0  0  0  0  0  0  0  0  0  0  0  0
  155.9044  135.5787  163.2998 H   0  0  0  0  0  0  0  0  0  0  0  0
  153.9049  135.7957  164.7062 H   0  0  0  0  0  0  0  0  0  0  0  0
  154.7020  134.2529  164.9941 H   0  0  0  0  0  0  0  0  0  0  0  0
  153.2326  134.3153  164.0260 H   0  0  0  0  0  0  0  0  0  0  0  0
  151.5427  138.8523  160.5644 H   0  0  0  0  0  0  0  0  0  0  0  0
  151.1181  140.5235  159.6387 H   0  0  0  0  0  0  0  0  0  0  0  0
  153.0400  141.6568  157.6708 H   0  0  0  0  0  0  0  0  0  0  0  0
  151.0294  142.7848  156.7259 H   0  0  0  0  0  0  0  0  0  0  0  0
  150.0184  142.0731  157.9806 H   0  0  0  0  0  0  0  0  0  0  0  0
  150.7910  141.0442  156.7762 H   0  0  0  0  0  0  0  0  0  0  0  0
  153.3432  142.9787  159.6914 H   0  0  0  0  0  0  0  0  0  0  0  0
  153.2338  144.6193  157.8944 H   0  0  0  0  0  0  0  0  0  0  0  0
  151.5109  144.3226  157.6589 H   0  0  0  0  0  0  0  0  0  0  0  0
  152.7955  145.9650  159.7897 H   0  0  0  0  0  0  0  0  0  0  0  0
  151.1645  146.0628  159.1252 H   0  0  0  0  0  0  0  0  0  0  0  0
  152.1400  144.5311  161.4707 H   0  0  0  0  0  0  0  0  0  0  0  0
  150.4603  144.8415  161.0203 H   0  0  0  0  0  0  0  0  0  0  0  0
  1  2  1  0  0  0  0
  1 20  1  0  0  0  0
  1 21  1  0  0  0  0
  1 22  1  0  0  0  0
  2  3  1  0  0  0  0
  2  4  1  0  0  0  0
  2 23  1  0  0  0  0
  3 24  1  0  0  0  0
  3 25  1  0  0  0  0
  3 26  1  0  0  0  0
  4 19  1  0  0  0  0
  4  5  2  0  0  0  0
  5  6  1  0  0  0  0
  6  7  2  0  0  0  0
  7  8  1  0  0  0  0
  7 19  1  0  0  0  0
  8  9  1  0  0  0  0
  8 27  1  0  0  0  0
  9 10  2  0  0  0  0
  9 11  1  0  0  0  0
 11 12  1  0  0  0  0
 11 28  1  0  0  0  0
 12 13  1  0  0  0  0
 12 14  1  0  0  0  0
 12 29  1  0  0  0  0
 13 30  1  0  0  0  0
 13 31  1  0  0  0  0
 13 32  1  0  0  0  0
 14 18  1  0  0  0  0
 14 15  1  0  0  0  0
 14 33  1  0  0  0  0
 15 16  1  0  0  0  0
 15 34  1  0  0  0  0
 15 35  1  0  0  0  0
 16 17  1  0  0  0  0
 16 36  1  0  0  0  0
 16 37  1  0  0  0  0
 17 18  1  0  0  0  0
 17 38  1  0  0  0  0
 17 39  1  0  0  0  0
M  END
> <s_m_source_file>
AV-unprocessed.smi

> <i_m_source_file_index>
2063

> <i_lp_mmshare_version>
43012

> <i_f3d_flags>
0

> <s_epik_input>
W0NIM11bQ0hdKFtDSDNdKWMxbm5jKHMxKVtOSF1DKD1PKVtOSF1bQ0BIXShbQ0gzXSlbQ0BASF0yW0NIMl1bQ0gyXVtDSDJdTzI=

> <s_epik_cmdline>
J2VwaWtfcHl0aG9uJywgJy1waCcsICc3LjAnLCAnLXRuJywgJzgnLCAnLW1hJywgJzIwMCcsICctbWV0YWxfYmluZGluZycsICctaW1hZScsICc8aW5maWxlLm1hZT4nLCAnLW9tYWUnLCAnPG91dGZpbGUubWFlPic=

> <r_lp_tautomer_probability>
1

> <r_epik_Ionization_Penalty>
0.00050567

> <r_epik_Ionization_Penalty_Charging>
0

> <r_epik_Ionization_Penalty_Neutral>
0.00050567

> <r_epik_State_Penalty>
-0

> <r_epik_Charging_Adjusted_Penalty>
0

> <i_epik_Tot_Q>
0

> <i_epik_Tot_abs_Q>
0

> <r_epik_Metal_State_Penalty>
0.219912

> <b_epik_Metal_Only>
0

> <s_lp_Force_Field>
OPLS_2005

> <r_lp_Energy>
10.6247

> <b_lp_Chiralities_Consistent>
1

> <s_lp_Variant>
AV-unprocessed.smi:2063-4

> <Gold.Version>
5.8.1

> <Gold.Id.Protein>
6NUR|6NUR_protein|mol2

> <Gold.PLP.Fitness>
37.8626

> <Gold.PLP.PLP>
-36.7669

> <Gold.PLP.part.hbond>
-3.0773

> <Gold.PLP.part.metal>
0.0000

> <Gold.PLP.part.buried>
-3.4662

> <Gold.PLP.part.nonpolar>
-30.6201

> <Gold.PLP.part.repulsive>
0.2821

> <Gold.PLP.ligand.clash>
0.0000

> <Gold.PLP.ligand.torsion>
1.0033

> <Gold.PLP.Chemscore.Hbond>
1.0000

> <Gold.PLP.Chemscore.CHOScore>
0.0000

> <Gold.PLP.Chemscore.Metal>
0.0000

> <Gold.Chemscore.Hbonds>
donor molecule, donor type, donor heavy atom, donor atom, acceptor molecule, acceptor atom, score
      P1  H  7997  8010       L1    10  1.00

> <Gold.PLP.Chemscore.Internal.Correction>
0.1023

> <Gold.Rescore>
     Score         DG    S(hbond)    S(metal)    S(lipo)     H(rot)  DE(clash)    DE(int)     intcor
     15.75     -16.63       1.00        0.00      97.76       1.42       0.02       0.86       ----

> <Gold.Chemscore.Fitness>
15.7455

> <Gold.Chemscore.DG>
-16.6335

> <Gold.Chemscore.ZeroCoef>
-5.4800

> <Gold.Chemscore.Hbond>
0.9996

> <Gold.Chemscore.Metal>
0.0000

> <Gold.Chemscore.Lipo>
97.7581

> <Gold.Chemscore.Internal_Hbond>
0.0000

> <Gold.Chemscore.DEClash>
0.0234

> <Gold.Chemscore.DEInternal>
0.8646

> <Gold.Chemscore.Rot>
1.4152

> <Gold.Chemscore.Internal.Correction>
   9.000000E+99

> <Gold.Chemscore.Hbonds>
donor molecule, donor type, donor heavy atom, donor atom, acceptor molecule, acceptor atom, score
      P1  H  7997  8010       L1    10  1.00

> <Gold.Chemscore.Hbond.Weighted>
-3.3388

> <Gold.Chemscore.Metal.Weighted>
-0.0000

> <Gold.Chemscore.Lipo.Weighted>
-11.4377

> <Gold.Chemscore.Internal_Hbond.Weighted>
0.0000

> <Gold.Chemscore.DEClash.Weighted>
0.0234

> <Gold.Chemscore.DEInternal.Weighted>
0.8646

> <Gold.Chemscore.Rot.Weighted>
3.6229

> <Gold.Chemscore.Internal.Correction.Weighted>
   9.000000E+99

> <Gold.Protein.RotatedTorsions>
[ 6907 6896 6895 6894 ] final   52.63 input  -60.11 | X-H torsion
[ 7974 7965 7964 7962 ] final -125.05 input  175.53 | X-H torsion
[ 8008 7997 7996 7995 ] final   11.57 input   59.86 | X-H torsion
[ 10167 10162 10161 10158 ] final -107.95 input  -65.29 | X-H torsion
[ 10718 10713 10712 10709 ] final -114.40 input   66.30 | X-H torsion
[ 10763 10752 10751 10750 ] final   81.28 input  -60.55 | X-H torsion
[ 11005 11000 10999 10996 ] final    9.27 input  -57.11 | X-H torsion

> <Gold.Protein.ActiveResidues>
 VAL166  LYS551  ARG553  GLY616  TRP617  ASP618  TYR619  PRO620  LYS621  CYS622 
 ASP623  PHE694  ASN695  SER759  ASP760  ASP761  ALA762  ILE779  LEU786  VAL792 
 PHE793  MET794  SER795  GLU796  ALA797  LYS798  CYS799  TRP800  GLU811  SER814 

> <Gold.Protein.RotatedAtoms>
  152.3253  134.7328  160.0303 H   0  0  0  0  0  0  0  0  0  0  0  0  # atno 6907 bound_to 6896
  151.7763  133.3340  159.3467 H   0  0  0  0  0  0  0  0  0  0  0  0  # atno 6908 bound_to 6896
  150.7392  134.5903  159.6029 H   0  0  0  0  0  0  0  0  0  0  0  0  # atno 6909 bound_to 6896
  145.0017  140.7826  143.4492 H   0  0  0  0  0  0  0  0  0  0  0  0  # atno 7974 bound_to 7965
  154.8088  140.2864  155.5868 H   0  0  0  0  0  0  0  0  0  0  0  0  # atno 8008 bound_to 7997
  156.2986  140.2572  156.2901 H   0  0  0  0  0  0  0  0  0  0  0  0  # atno 8009 bound_to 7997
  154.9472  140.0380  157.2115 H   0  0  0  0  0  0  0  0  0  0  0  0  # atno 8010 bound_to 7997
  140.1714  143.4040  152.1351 H   0  0  0  0  0  0  0  0  0  0  0  0  # atno 10167 bound_to 10162
  156.0828  130.6025  150.8770 H   0  0  0  0  0  0  0  0  0  0  0  0  # atno 10718 bound_to 10713
  153.1103  135.4771  154.9024 H   0  0  0  0  0  0  0  0  0  0  0  0  # atno 10763 bound_to 10752
  154.7474  135.3097  154.8622 H   0  0  0  0  0  0  0  0  0  0  0  0  # atno 10764 bound_to 10752
  153.9213  135.6854  153.4801 H   0  0  0  0  0  0  0  0  0  0  0  0  # atno 10765 bound_to 10752
  140.5276  134.0498  155.7863 H   0  0  0  0  0  0  0  0  0  0  0  0  # atno 11005 bound_to 11000
  145.2145  139.2189  143.5126 LP  0  0  0  0  0  0  0  0  0  0  0  0  # atno 17320 bound_to 7965
  146.3453  140.1989  142.8589 LP  0  0  0  0  0  0  0  0  0  0  0  0  # atno 17321 bound_to 7965
  139.5336  144.7186  151.4970 LP  0  0  0  0  0  0  0  0  0  0  0  0  # atno 17342 bound_to 10162
  140.6579  143.8560  150.6856 LP  0  0  0  0  0  0  0  0  0  0  0  0  # atno 17343 bound_to 10162
  157.5951  131.0943  150.9054 LP  0  0  0  0  0  0  0  0  0  0  0  0  # atno 17370 bound_to 10713
  156.9223  130.5319  149.5279 LP  0  0  0  0  0  0  0  0  0  0  0  0  # atno 17371 bound_to 10713
  141.1299  133.9319  157.2557 LP  0  0  0  0  0  0  0  0  0  0  0  0  # atno 17394 bound_to 11000
  139.9572  135.0163  156.9160 LP  0  0  0  0  0  0  0  0  0  0  0  0  # atno 17395 bound_to 11000

$$$$
