AV-unprocessed.smi:2889|AV-procd|sdf|11115|dock7
  -GOLD-   2272015583D 1   1.00000     0.00000
 Structure written by MMmdl.
 35 36  0  0  0  0  0  0  0  0  2 V2000
  151.7219  145.5961  159.9612 C   0  0  0  0  0  0  0  0  0  0  0  0
  150.9479  144.3315  158.9153 S   0  0  0  0  0  0  0  0  0  0  0  0
  152.1871  142.9959  158.9992 C   0  0  1  0  0  0  0  0  0  0  0  0
  152.6344  142.8115  160.4750 C   0  0  0  0  0  0  0  0  0  0  0  0
  153.6743  141.6886  160.6630 C   0  0  0  0  0  0  0  0  0  0  0  0
  153.1260  140.3801  160.0622 C   0  0  0  0  0  0  0  0  0  0  0  0
  152.6985  140.5466  158.5843 C   0  0  0  0  0  0  0  0  0  0  0  0
  151.6603  141.6764  158.3602 C   0  0  2  0  0  0  0  0  0  0  0  0
  151.4390  141.8536  156.9318 N   0  5  0  0  0  0  0  0  0  0  0  0
  150.6809  140.7001  156.0805 S   0  0  0  0  0  0  0  0  0  0  0  0
  151.5585  140.0485  155.0940 O   0  0  0  0  0  0  0  0  0  0  0  0
  149.8686  139.8237  156.9399 O   0  0  0  0  0  0  0  0  0  0  0  0
  149.4750  141.7180  155.1209 C   0  0  0  0  0  0  0  0  0  0  0  0
  148.5442  140.8366  154.3324 C   0  0  0  0  0  0  0  0  0  0  0  0
  147.3828  141.2083  153.5986 C   0  0  0  0  0  0  0  0  0  0  0  0
  146.9321  140.0243  153.0916 C   0  0  0  0  0  0  0  0  0  0  0  0
  147.7349  139.0033  153.4836 O   0  0  0  0  0  0  0  0  0  0  0  0
  148.7591  139.5307  154.2783 N   0  0  0  0  0  0  0  0  0  0  0  0
  151.0739  146.4693  160.0319 H   0  0  0  0  0  0  0  0  0  0  0  0
  152.6784  145.9122  159.5456 H   0  0  0  0  0  0  0  0  0  0  0  0
  151.8892  145.2090  160.9661 H   0  0  0  0  0  0  0  0  0  0  0  0
  153.0650  143.3262  158.4416 H   0  0  0  0  0  0  0  0  0  0  0  0
  153.0544  143.7474  160.8448 H   0  0  0  0  0  0  0  0  0  0  0  0
  151.7682  142.6066  161.1078 H   0  0  0  0  0  0  0  0  0  0  0  0
  154.6063  141.9614  160.1665 H   0  0  0  0  0  0  0  0  0  0  0  0
  153.9057  141.5557  161.7201 H   0  0  0  0  0  0  0  0  0  0  0  0
  153.8864  139.6022  160.1339 H   0  0  0  0  0  0  0  0  0  0  0  0
  152.2829  140.0284  160.6604 H   0  0  0  0  0  0  0  0  0  0  0  0
  153.5893  140.7481  157.9869 H   0  0  0  0  0  0  0  0  0  0  0  0
  152.3004  139.5990  158.2202 H   0  0  0  0  0  0  0  0  0  0  0  0
  150.7411  141.3998  158.8788 H   0  0  0  0  0  0  0  0  0  0  0  0
  148.9188  142.3258  155.8348 H   0  0  0  0  0  0  0  0  0  0  0  0
  150.0283  142.3990  154.4750 H   0  0  0  0  0  0  0  0  0  0  0  0
  146.9563  142.1908  153.4604 H   0  0  0  0  0  0  0  0  0  0  0  0
  146.0935  139.7566  152.4663 H   0  0  0  0  0  0  0  0  0  0  0  0
  1  2  1  0  0  0  0
  1 19  1  0  0  0  0
  1 20  1  0  0  0  0
  1 21  1  0  0  0  0
  2  3  1  0  0  0  0
  3  8  1  0  0  0  0
  3  4  1  0  0  0  0
  3 22  1  0  0  0  0
  4  5  1  0  0  0  0
  4 23  1  0  0  0  0
  4 24  1  0  0  0  0
  5  6  1  0  0  0  0
  5 25  1  0  0  0  0
  5 26  1  0  0  0  0
  6  7  1  0  0  0  0
  6 27  1  0  0  0  0
  6 28  1  0  0  0  0
  7  8  1  0  0  0  0
  7 29  1  0  0  0  0
  7 30  1  0  0  0  0
  8  9  1  0  0  0  0
  8 31  1  0  0  0  0
  9 10  1  0  0  0  0
 10 11  2  0  0  0  0
 10 12  2  0  0  0  0
 10 13  1  0  0  0  0
 13 14  1  0  0  0  0
 13 32  1  0  0  0  0
 13 33  1  0  0  0  0
 14 18  2  0  0  0  0
 14 15  1  0  0  0  0
 15 16  2  0  0  0  0
 15 34  1  0  0  0  0
 16 17  1  0  0  0  0
 16 35  1  0  0  0  0
 17 18  1  0  0  0  0
M  CHG  1   9  -1
M  END
> <s_m_source_file>
AV-unprocessed.smi

> <i_m_source_file_index>
2889

> <i_lp_mmshare_version>
43012

> <i_f3d_flags>
0

> <s_epik_input>
W0NIM11TW0NAQEhdMVtDSDJdW0NIMl1bQ0gyXVtDSDJdW0NASF0xW05IXVMoPU8pKD1PKVtDSDJdYzJbY0hdW2NIXW9uMg==

> <s_epik_cmdline>
J2VwaWtfcHl0aG9uJywgJy1waCcsICc3LjAnLCAnLXRuJywgJzgnLCAnLW1hJywgJzIwMCcsICctbWV0YWxfYmluZGluZycsICctaW1hZScsICc8aW5maWxlLm1hZT4nLCAnLW9tYWUnLCAnPG91dGZpbGUubWFlPic=

> <r_lp_tautomer_probability>
1

> <r_epik_Ionization_Penalty>
4.65467

> <r_epik_Ionization_Penalty_Charging>
4.65467

> <r_epik_Ionization_Penalty_Neutral>
2.71476e-10

> <r_epik_State_Penalty>
4.65444

> <r_epik_Charging_Adjusted_Penalty>
9.30911

> <i_epik_Tot_Q>
-1

> <i_epik_Tot_abs_Q>
1

> <r_epik_Metal_State_Penalty>
0.901484

> <b_epik_Metal_Only>
1

> <s_lp_Force_Field>
OPLS_2005

> <r_lp_Energy>
9.1096

> <b_lp_Chiralities_Consistent>
1

> <s_lp_Variant>
AV-unprocessed.smi:2889-8

> <Gold.Version>
5.8.1

> <Gold.Id.Protein>
6NUR|6NUR_protein|mol2

> <Gold.PLP.Fitness>
44.0186

> <Gold.PLP.PLP>
-38.6719

> <Gold.PLP.part.hbond>
-1.0000

> <Gold.PLP.part.metal>
0.0000

> <Gold.PLP.part.buried>
-3.8898

> <Gold.PLP.part.nonpolar>
-35.5481

> <Gold.PLP.part.repulsive>
0.4370

> <Gold.PLP.ligand.clash>
0.0000

> <Gold.PLP.ligand.torsion>
0.8191

> <Gold.PLP.Chemscore.Hbond>
1.0000

> <Gold.PLP.Chemscore.CHOScore>
0.9914

> <Gold.PLP.Chemscore.Metal>
0.0000

> <Gold.Chemscore.Hbonds>
donor molecule, donor type, donor heavy atom, donor atom, acceptor molecule, acceptor atom, score
      P1  H  7989  7998       L1    11  1.00
      L1  C    16    35       P1 10175  1.00

> <Gold.PLP.Chemscore.Internal.Correction>
1.0107

> <Gold.Rescore>
     Score         DG    S(hbond)    S(metal)    S(lipo)     H(rot)  DE(clash)    DE(int)     intcor
     14.04     -17.38       0.91        0.00     109.08       1.53       0.14       3.20       ----

> <Gold.Chemscore.Fitness>
14.0400

> <Gold.Chemscore.DG>
-17.3773

> <Gold.Chemscore.ZeroCoef>
-5.4800

> <Gold.Chemscore.Hbond>
0.9147

> <Gold.Chemscore.Metal>
0.0000

> <Gold.Chemscore.Lipo>
109.0824

> <Gold.Chemscore.Internal_Hbond>
0.0000

> <Gold.Chemscore.DEClash>
0.1423

> <Gold.Chemscore.DEInternal>
3.1951

> <Gold.Chemscore.Rot>
1.5314

> <Gold.Chemscore.Internal.Correction>
   9.000000E+99

> <Gold.Chemscore.Hbonds>
donor molecule, donor type, donor heavy atom, donor atom, acceptor molecule, acceptor atom, score
      P1  H  7989  7998       L1    11  0.87

> <Gold.Chemscore.Hbond.Weighted>
-3.0552

> <Gold.Chemscore.Metal.Weighted>
-0.0000

> <Gold.Chemscore.Lipo.Weighted>
-12.7626

> <Gold.Chemscore.Internal_Hbond.Weighted>
0.0000

> <Gold.Chemscore.DEClash.Weighted>
0.1423

> <Gold.Chemscore.DEInternal.Weighted>
3.1951

> <Gold.Chemscore.Rot.Weighted>
3.9205

> <Gold.Chemscore.Internal.Correction.Weighted>
   9.000000E+99

> <Gold.Protein.RotatedTorsions>
[ 6907 6896 6895 6894 ] final   57.85 input  -60.11 | X-H torsion
[ 7974 7965 7964 7962 ] final  172.74 input  175.53 | X-H torsion
[ 8008 7997 7996 7995 ] final  148.45 input   59.86 | X-H torsion
[ 10167 10162 10161 10158 ] final  -56.10 input  -65.29 | X-H torsion
[ 10718 10713 10712 10709 ] final  -83.73 input   66.30 | X-H torsion
[ 10763 10752 10751 10750 ] final  -72.44 input  -60.55 | X-H torsion
[ 11005 11000 10999 10996 ] final  -51.16 input  -57.11 | X-H torsion

> <Gold.Protein.ActiveResidues>
 VAL166  LYS551  ARG553  GLY616  TRP617  ASP618  TYR619  PRO620  LYS621  CYS622 
 ASP623  PHE694  ASN695  SER759  ASP760  ASP761  ALA762  ILE779  LEU786  VAL792 
 PHE793  MET794  SER795  GLU796  ALA797  LYS798  CYS799  TRP800  GLU811  SER814 

> <Gold.Protein.RotatedAtoms>
  152.3770  134.6648  160.0156 H   0  0  0  0  0  0  0  0  0  0  0  0  # atno 6907 bound_to 6896
  151.6923  133.3305  159.3254 H   0  0  0  0  0  0  0  0  0  0  0  0  # atno 6908 bound_to 6896
  150.7717  134.6623  159.6391 H   0  0  0  0  0  0  0  0  0  0  0  0  # atno 6909 bound_to 6896
  144.7260  139.9544  143.6433 H   0  0  0  0  0  0  0  0  0  0  0  0  # atno 7974 bound_to 7965
  156.2791  140.2128  156.5700 H   0  0  0  0  0  0  0  0  0  0  0  0  # atno 8008 bound_to 7997
  154.7143  140.0509  157.0603 H   0  0  0  0  0  0  0  0  0  0  0  0  # atno 8009 bound_to 7997
  155.0563  140.3161  155.4678 H   0  0  0  0  0  0  0  0  0  0  0  0  # atno 8010 bound_to 7997
  140.6337  143.2471  151.5175 H   0  0  0  0  0  0  0  0  0  0  0  0  # atno 10167 bound_to 10162
  156.0014  130.4675  150.4302 H   0  0  0  0  0  0  0  0  0  0  0  0  # atno 10718 bound_to 10713
  154.4456  135.5930  153.6158 H   0  0  0  0  0  0  0  0  0  0  0  0  # atno 10763 bound_to 10752
  152.9809  135.6008  154.3668 H   0  0  0  0  0  0  0  0  0  0  0  0  # atno 10764 bound_to 10752
  154.3523  135.2841  155.2344 H   0  0  0  0  0  0  0  0  0  0  0  0  # atno 10765 bound_to 10752
  141.0856  133.6643  156.3836 H   0  0  0  0  0  0  0  0  0  0  0  0  # atno 11005 bound_to 11000
  146.0686  139.3676  143.0537 LP  0  0  0  0  0  0  0  0  0  0  0  0  # atno 17320 bound_to 7965
  145.7997  140.9776  143.1005 LP  0  0  0  0  0  0  0  0  0  0  0  0  # atno 17321 bound_to 7965
  139.5549  144.2302  152.1594 LP  0  0  0  0  0  0  0  0  0  0  0  0  # atno 17342 bound_to 10162
  140.1552  144.5077  150.6664 LP  0  0  0  0  0  0  0  0  0  0  0  0  # atno 17343 bound_to 10162
  157.2352  131.0513  151.2469 LP  0  0  0  0  0  0  0  0  0  0  0  0  # atno 17370 bound_to 10713
  157.3673  130.7162  149.6541 LP  0  0  0  0  0  0  0  0  0  0  0  0  # atno 17371 bound_to 10713
  140.5371  134.6156  157.5368 LP  0  0  0  0  0  0  0  0  0  0  0  0  # atno 17394 bound_to 11000
  139.9674  134.7351  156.0111 LP  0  0  0  0  0  0  0  0  0  0  0  0  # atno 17395 bound_to 11000

$$$$
