AV-unprocessed.smi:883|AV-procd|sdf|4040|dock3
  -GOLD-   22720 1533D 1   1.00000     0.00000
 Structure written by MMmdl.
 29 31  0  0  0  0  0  0  0  0  1 V2000
  154.3823  135.4244  160.4068 N   0  0  0  0  0  0  0  0  0  0  0  0
  154.2586  136.5684  160.2860 C   0  0  0  0  0  0  0  0  0  0  0  0
  154.1032  138.0047  160.1338 C   0  0  0  0  0  0  0  0  0  0  0  0
  154.2786  138.8706  161.2311 C   0  0  0  0  0  0  0  0  0  0  0  0
  154.1123  140.2557  161.0348 C   0  0  0  0  0  0  0  0  0  0  0  0
  153.7769  140.7262  159.7476 C   0  0  0  0  0  0  0  0  0  0  0  0
  153.6118  142.1059  159.5611 N   0  0  0  0  0  0  0  0  0  0  0  0
  152.3377  142.7626  159.8382 C   0  0  2  0  0  0  0  0  0  0  0  0
  151.2161  142.3172  158.8968 C   0  0  0  0  0  0  0  0  0  0  0  0
  150.7007  143.6609  158.3622 C   0  0  2  0  0  0  0  0  0  0  0  0
  151.6647  144.2644  157.3330 C   0  0  0  0  0  0  0  0  0  0  0  0
  152.8230  144.7154  158.2205 C   0  0  0  0  0  0  0  0  0  0  0  0
  152.3395  144.2890  159.6173 C   0  0  1  0  0  0  0  0  0  0  0  0
  150.9463  144.5079  159.4725 O   0  0  0  0  0  0  0  0  0  0  0  0
  153.6135  139.8946  158.6909 N   0  0  0  0  0  0  0  0  0  0  0  0
  153.7723  138.5675  158.8846 C   0  0  0  0  0  0  0  0  0  0  0  0
  154.5343  138.4863  162.2082 H   0  0  0  0  0  0  0  0  0  0  0  0
  154.2389  140.9407  161.8606 H   0  0  0  0  0  0  0  0  0  0  0  0
  154.4253  142.6835  159.4064 H   0  0  0  0  0  0  0  0  0  0  0  0
  152.0352  142.5441  160.8635 H   0  0  0  0  0  0  0  0  0  0  0  0
  151.5501  141.6603  158.0922 H   0  0  0  0  0  0  0  0  0  0  0  0
  150.4387  141.7961  159.4566 H   0  0  0  0  0  0  0  0  0  0  0  0
  149.6614  143.6376  158.0335 H   0  0  0  0  0  0  0  0  0  0  0  0
  151.9672  143.5434  156.5731 H   0  0  0  0  0  0  0  0  0  0  0  0
  151.2124  145.1208  156.8313 H   0  0  0  0  0  0  0  0  0  0  0  0
  153.7757  144.2654  157.9408 H   0  0  0  0  0  0  0  0  0  0  0  0
  152.9373  145.7988  158.1703 H   0  0  0  0  0  0  0  0  0  0  0  0
  152.7935  144.8548  160.4312 H   0  0  0  0  0  0  0  0  0  0  0  0
  153.6290  137.9421  158.0151 H   0  0  0  0  0  0  0  0  0  0  0  0
  1  2  3  0  0  0  0
  2  3  1  0  0  0  0
  3 16  1  0  0  0  0
  3  4  2  0  0  0  0
  4  5  1  0  0  0  0
  4 17  1  0  0  0  0
  5  6  2  0  0  0  0
  5 18  1  0  0  0  0
  6  7  1  0  0  0  0
  6 15  1  0  0  0  0
  7  8  1  0  0  0  0
  7 19  1  0  0  0  0
  8 13  1  0  0  0  0
  8  9  1  0  0  0  0
  8 20  1  0  0  0  0
  9 10  1  0  0  0  0
  9 21  1  0  0  0  0
  9 22  1  0  0  0  0
 10 14  1  0  0  0  0
 10 11  1  0  0  0  0
 10 23  1  0  0  0  0
 11 12  1  0  0  0  0
 11 24  1  0  0  0  0
 11 25  1  0  0  0  0
 12 13  1  0  0  0  0
 12 26  1  0  0  0  0
 12 27  1  0  0  0  0
 13 14  1  0  0  0  0
 13 28  1  0  0  0  0
 15 16  2  0  0  0  0
 16 29  1  0  0  0  0
M  END
> <s_m_source_file>
AV-unprocessed.smi

> <i_m_source_file_index>
883

> <i_lp_mmshare_version>
43012

> <i_f3d_flags>
0

> <s_epik_input>
TiNDYzFbY0hdW2NIXWMobltjSF0xKVtOSF1bQ0BIXShbQ0gyXVtDQEBIXTIzKVtDQEBIXShPMylbQ0gyXVtDSDJdMg==

> <s_epik_cmdline>
J2VwaWtfcHl0aG9uJywgJy1waCcsICc3LjAnLCAnLXRuJywgJzgnLCAnLW1hJywgJzIwMCcsICctbWV0YWxfYmluZGluZycsICctaW1hZScsICc8aW5maWxlLm1hZT4nLCAnLW9tYWUnLCAnPG91dGZpbGUubWFlPic=

> <r_lp_tautomer_probability>
1

> <r_epik_Ionization_Penalty>
1.50983e-05

> <r_epik_Ionization_Penalty_Charging>
0

> <r_epik_Ionization_Penalty_Neutral>
1.50983e-05

> <r_epik_State_Penalty>
-0

> <r_epik_Charging_Adjusted_Penalty>
0

> <i_epik_Tot_Q>
0

> <i_epik_Tot_abs_Q>
0

> <r_epik_Metal_State_Penalty>
-0

> <b_epik_Metal_Only>
0

> <s_lp_Force_Field>
OPLS_2005

> <r_lp_Energy>
39.3985

> <b_lp_Chiralities_Consistent>
1

> <s_lp_Variant>
AV-unprocessed.smi:883-3

> <Gold.Version>
5.8.1

> <Gold.Id.Protein>
6NUR|6NUR_protein|mol2

> <Gold.PLP.Fitness>
37.4084

> <Gold.PLP.PLP>
-32.9230

> <Gold.PLP.part.hbond>
-2.0000

> <Gold.PLP.part.metal>
0.0000

> <Gold.PLP.part.buried>
-3.5050

> <Gold.PLP.part.nonpolar>
-27.6029

> <Gold.PLP.part.repulsive>
0.1797

> <Gold.PLP.ligand.clash>
0.0000

> <Gold.PLP.ligand.torsion>
0.7618

> <Gold.PLP.Chemscore.Hbond>
2.0000

> <Gold.PLP.Chemscore.CHOScore>
0.0000

> <Gold.PLP.Chemscore.Metal>
0.0000

> <Gold.Chemscore.Hbonds>
donor molecule, donor type, donor heavy atom, donor atom, acceptor molecule, acceptor atom, score
      P1  H  6896  6908       L1     1  0.70
      P1  H  7997  8010       L1    15  0.86

> <Gold.PLP.Chemscore.Internal.Correction>
0.0091

> <Gold.Rescore>
     Score         DG    S(hbond)    S(metal)    S(lipo)     H(rot)  DE(clash)    DE(int)     intcor
     17.54     -18.46       1.20        0.00      98.50       1.00       0.20       0.72       ----

> <Gold.Chemscore.Fitness>
17.5379

> <Gold.Chemscore.DG>
-18.4587

> <Gold.Chemscore.ZeroCoef>
-5.4800

> <Gold.Chemscore.Hbond>
1.2019

> <Gold.Chemscore.Metal>
0.0000

> <Gold.Chemscore.Lipo>
98.4982

> <Gold.Chemscore.Internal_Hbond>
0.0000

> <Gold.Chemscore.DEClash>
0.1968

> <Gold.Chemscore.DEInternal>
0.7240

> <Gold.Chemscore.Rot>
1.0000

> <Gold.Chemscore.Internal.Correction>
   9.000000E+99

> <Gold.Chemscore.Hbonds>
donor molecule, donor type, donor heavy atom, donor atom, acceptor molecule, acceptor atom, score
      P1  H  6896  6908       L1     1  0.18
      P1  H  7997  8010       L1    15  0.16

> <Gold.Chemscore.Hbond.Weighted>
-4.0144

> <Gold.Chemscore.Metal.Weighted>
-0.0000

> <Gold.Chemscore.Lipo.Weighted>
-11.5243

> <Gold.Chemscore.Internal_Hbond.Weighted>
0.0000

> <Gold.Chemscore.DEClash.Weighted>
0.1968

> <Gold.Chemscore.DEInternal.Weighted>
0.7240

> <Gold.Chemscore.Rot.Weighted>
2.5600

> <Gold.Chemscore.Internal.Correction.Weighted>
   9.000000E+99

> <Gold.Protein.RotatedTorsions>
[ 6907 6896 6895 6894 ] final  -70.21 input  -60.11 | X-H torsion
[ 7974 7965 7964 7962 ] final  -93.75 input  175.53 | X-H torsion
[ 8008 7997 7996 7995 ] final   37.43 input   59.86 | X-H torsion
[ 10167 10162 10161 10158 ] final  174.49 input  -65.29 | X-H torsion
[ 10718 10713 10712 10709 ] final  -74.93 input   66.30 | X-H torsion
[ 10763 10752 10751 10750 ] final  -40.71 input  -60.55 | X-H torsion
[ 11005 11000 10999 10996 ] final   17.98 input  -57.11 | X-H torsion

> <Gold.Protein.ActiveResidues>
 VAL166  LYS551  ARG553  GLY616  TRP617  ASP618  TYR619  PRO620  LYS621  CYS622 
 ASP623  PHE694  ASN695  SER759  ASP760  ASP761  ALA762  ILE779  LEU786  VAL792 
 PHE793  MET794  SER795  GLU796  ALA797  LYS798  CYS799  TRP800  GLU811  SER814 

> <Gold.Protein.RotatedAtoms>
  150.7268  134.5486  159.5783 H   0  0  0  0  0  0  0  0  0  0  0  0  # atno 6907 bound_to 6896
  152.2979  134.7642  160.0373 H   0  0  0  0  0  0  0  0  0  0  0  0  # atno 6908 bound_to 6896
  151.8233  133.3362  159.3627 H   0  0  0  0  0  0  0  0  0  0  0  0  # atno 6909 bound_to 6896
  145.3824  140.9519  143.2386 H   0  0  0  0  0  0  0  0  0  0  0  0  # atno 7974 bound_to 7965
  155.2037  140.3318  155.4339 H   0  0  0  0  0  0  0  0  0  0  0  0  # atno 8008 bound_to 7997
  156.2397  140.1889  156.7072 H   0  0  0  0  0  0  0  0  0  0  0  0  # atno 8009 bound_to 7997
  154.6124  140.0607  156.9497 H   0  0  0  0  0  0  0  0  0  0  0  0  # atno 8010 bound_to 7997
  139.5144  144.3140  152.0265 H   0  0  0  0  0  0  0  0  0  0  0  0  # atno 10167 bound_to 10162
  156.0225  130.4428  150.2966 H   0  0  0  0  0  0  0  0  0  0  0  0  # atno 10718 bound_to 10713
  153.9504  135.6751  153.4744 H   0  0  0  0  0  0  0  0  0  0  0  0  # atno 10763 bound_to 10752
  153.0887  135.4885  154.8644 H   0  0  0  0  0  0  0  0  0  0  0  0  # atno 10764 bound_to 10752
  154.7328  135.3142  154.8821 H   0  0  0  0  0  0  0  0  0  0  0  0  # atno 10765 bound_to 10752
  140.4299  134.1431  155.7679 H   0  0  0  0  0  0  0  0  0  0  0  0  # atno 11005 bound_to 11000
  144.8498  139.5339  143.6861 LP  0  0  0  0  0  0  0  0  0  0  0  0  # atno 17320 bound_to 7965
  146.2836  139.6943  142.9211 LP  0  0  0  0  0  0  0  0  0  0  0  0  # atno 17321 bound_to 7965
  140.2584  144.4094  150.6195 LP  0  0  0  0  0  0  0  0  0  0  0  0  # atno 17342 bound_to 10162
  140.6175  143.2173  151.6762 LP  0  0  0  0  0  0  0  0  0  0  0  0  # atno 17343 bound_to 10162
  157.1069  131.0211  151.3063 LP  0  0  0  0  0  0  0  0  0  0  0  0  # atno 17370 bound_to 10713
  157.4736  130.7723  149.7346 LP  0  0  0  0  0  0  0  0  0  0  0  0  # atno 17371 bound_to 10713
  141.1750  133.8533  157.1451 LP  0  0  0  0  0  0  0  0  0  0  0  0  # atno 17394 bound_to 11000
  140.0142  134.9975  157.0458 LP  0  0  0  0  0  0  0  0  0  0  0  0  # atno 17395 bound_to 11000

$$$$
