AV-unprocessed.smi:852|AV-procd|sdf|3952|dock3
  -GOLD-   22720 1423D 1   1.00000     0.00000
 Structure written by MMmdl.
 30 31  0  0  0  0  0  0  0  0  1 V2000
  152.2051  142.2757  160.8245 C   0  0  0  0  0  0  0  0  0  0  0  0
  151.6941  142.6836  159.4287 C   0  0  2  0  0  0  0  0  0  0  0  0
  150.5799  143.6429  159.5817 C   0  0  0  0  0  0  0  0  0  0  0  0
  149.7076  144.3945  159.7009 N   0  0  0  0  0  0  0  0  0  0  0  0
  151.2495  141.4886  158.7091 N   0  0  0  0  0  0  0  0  0  0  0  0
  151.8467  140.2841  158.6730 C   0  0  0  0  0  0  0  0  0  0  0  0
  152.9150  140.0366  159.2298 O   0  0  0  0  0  0  0  0  0  0  0  0
  151.1315  139.1878  157.8786 C   0  0  0  0  0  0  0  0  0  0  0  0
  150.8297  139.6153  156.5233 N   0  0  0  0  0  0  0  0  0  0  0  0
  151.1735  139.0800  155.3471 C   0  0  0  0  0  0  0  0  0  0  0  0
  150.7308  139.7575  154.2955 N   0  0  0  0  0  0  0  0  0  0  0  0
  150.0769  140.7606  154.9503 C   0  0  0  0  0  0  0  0  0  0  0  0
  149.3908  141.8179  154.2274 C   0  0  0  0  0  0  0  0  0  0  0  0
  148.8444  142.6601  153.6519 N   0  0  0  0  0  0  0  0  0  0  0  0
  150.0983  140.7305  156.2811 N   0  0  0  0  0  0  0  0  0  0  0  0
  152.8388  143.3501  158.6687 C   0  0  0  0  0  0  0  0  0  0  0  0
  153.1224  144.8335  158.7568 C   0  0  0  0  0  0  0  0  0  0  0  0
  152.6123  144.2354  157.4637 C   0  0  0  0  0  0  0  0  0  0  0  0
  152.5975  143.1383  161.3643 H   0  0  0  0  0  0  0  0  0  0  0  0
  153.0062  141.5388  160.7558 H   0  0  0  0  0  0  0  0  0  0  0  0
  151.4131  141.8473  161.4392 H   0  0  0  0  0  0  0  0  0  0  0  0
  150.3770  141.5801  158.2097 H   0  0  0  0  0  0  0  0  0  0  0  0
  151.7600  138.2974  157.8386 H   0  0  0  0  0  0  0  0  0  0  0  0
  150.2026  138.9049  158.3766 H   0  0  0  0  0  0  0  0  0  0  0  0
  151.7650  138.1805  155.2591 H   0  0  0  0  0  0  0  0  0  0  0  0
  153.7250  142.7201  158.6123 H   0  0  0  0  0  0  0  0  0  0  0  0
  152.4374  145.4589  159.3257 H   0  0  0  0  0  0  0  0  0  0  0  0
  154.1652  145.1426  158.7893 H   0  0  0  0  0  0  0  0  0  0  0  0
  153.3168  144.1454  156.6396 H   0  0  0  0  0  0  0  0  0  0  0  0
  151.5887  144.4621  157.1732 H   0  0  0  0  0  0  0  0  0  0  0  0
  1  2  1  0  0  0  0
  1 19  1  0  0  0  0
  1 20  1  0  0  0  0
  1 21  1  0  0  0  0
  2  3  1  0  0  0  0
  2  5  1  0  0  0  0
  2 16  1  0  0  0  0
  3  4  3  0  0  0  0
  5  6  1  0  0  0  0
  5 22  1  0  0  0  0
  6  7  2  0  0  0  0
  6  8  1  0  0  0  0
  8  9  1  0  0  0  0
  8 23  1  0  0  0  0
  8 24  1  0  0  0  0
  9 15  1  0  0  0  0
  9 10  1  0  0  0  0
 10 11  2  0  0  0  0
 10 25  1  0  0  0  0
 11 12  1  0  0  0  0
 12 13  1  0  0  0  0
 12 15  2  0  0  0  0
 13 14  3  0  0  0  0
 16 18  1  0  0  0  0
 16 17  1  0  0  0  0
 16 26  1  0  0  0  0
 17 18  1  0  0  0  0
 17 27  1  0  0  0  0
 17 28  1  0  0  0  0
 18 29  1  0  0  0  0
 18 30  1  0  0  0  0
M  END
> <s_m_source_file>
AV-unprocessed.smi

> <i_m_source_file_index>
852

> <i_lp_mmshare_version>
43012

> <i_f3d_flags>
0

> <s_epik_input>
W0NIMl0xW0NIMl1bQ0hdMVtDQF0oW0NIM10pKEMjTilbTkhdQyg9TylbQ0gyXW4yW2NIXW5jKG4yKUMjTg==

> <s_epik_cmdline>
J2VwaWtfcHl0aG9uJywgJy1waCcsICc3LjAnLCAnLXRuJywgJzgnLCAnLW1hJywgJzIwMCcsICctbWV0YWxfYmluZGluZycsICctaW1hZScsICc8aW5maWxlLm1hZT4nLCAnLW9tYWUnLCAnPG91dGZpbGUubWFlPic=

> <r_lp_tautomer_probability>
1

> <r_epik_Ionization_Penalty>
2.64294e-06

> <r_epik_Ionization_Penalty_Charging>
0

> <r_epik_Ionization_Penalty_Neutral>
2.64294e-06

> <r_epik_State_Penalty>
-0

> <r_epik_Charging_Adjusted_Penalty>
0

> <i_epik_Tot_Q>
0

> <i_epik_Tot_abs_Q>
0

> <r_epik_Metal_State_Penalty>
-0

> <b_epik_Metal_Only>
0

> <s_lp_Force_Field>
OPLS_2005

> <r_lp_Energy>
16.3367

> <b_lp_Chiralities_Consistent>
1

> <s_lp_Variant>
AV-unprocessed.smi:852-2

> <Gold.Version>
5.8.1

> <Gold.Id.Protein>
6NUR|6NUR_protein|mol2

> <Gold.PLP.Fitness>
39.3540

> <Gold.PLP.PLP>
-33.8921

> <Gold.PLP.part.hbond>
-3.9427

> <Gold.PLP.part.metal>
0.0000

> <Gold.PLP.part.buried>
-0.7362

> <Gold.PLP.part.nonpolar>
-30.1796

> <Gold.PLP.part.repulsive>
0.5906

> <Gold.PLP.ligand.clash>
0.0000

> <Gold.PLP.ligand.torsion>
1.1873

> <Gold.PLP.Chemscore.Hbond>
2.1027

> <Gold.PLP.Chemscore.CHOScore>
0.0000

> <Gold.PLP.Chemscore.Metal>
0.0000

> <Gold.Chemscore.Hbonds>
donor molecule, donor type, donor heavy atom, donor atom, acceptor molecule, acceptor atom, score
      P1  H  7989  7998       L1    11  0.50
      P1  H  8011  8017       L1    14  0.02
      P1  H  8022  8030       L1    14  0.73

> <Gold.PLP.Chemscore.Internal.Correction>
1.5286

> <Gold.Rescore>
     Score         DG    S(hbond)    S(metal)    S(lipo)     H(rot)  DE(clash)    DE(int)     intcor
      5.27      -9.32       0.71        0.00      66.28       2.46       1.19       2.85       ----

> <Gold.Chemscore.Fitness>
5.2699

> <Gold.Chemscore.DG>
-9.3176

> <Gold.Chemscore.ZeroCoef>
-5.4800

> <Gold.Chemscore.Hbond>
0.7105

> <Gold.Chemscore.Metal>
0.0000

> <Gold.Chemscore.Lipo>
66.2784

> <Gold.Chemscore.Internal_Hbond>
0.0000

> <Gold.Chemscore.DEClash>
1.1937

> <Gold.Chemscore.DEInternal>
2.8540

> <Gold.Chemscore.Rot>
2.4571

> <Gold.Chemscore.Internal.Correction>
   9.000000E+99

> <Gold.Chemscore.Hbonds>
donor molecule, donor type, donor heavy atom, donor atom, acceptor molecule, acceptor atom, score
      P1  H  7989  7998       L1    11  0.02
      P1  H  8022  8030       L1    14  0.71

> <Gold.Chemscore.Hbond.Weighted>
-2.3731

> <Gold.Chemscore.Metal.Weighted>
-0.0000

> <Gold.Chemscore.Lipo.Weighted>
-7.7546

> <Gold.Chemscore.Internal_Hbond.Weighted>
0.0000

> <Gold.Chemscore.DEClash.Weighted>
1.1937

> <Gold.Chemscore.DEInternal.Weighted>
2.8540

> <Gold.Chemscore.Rot.Weighted>
6.2901

> <Gold.Chemscore.Internal.Correction.Weighted>
   9.000000E+99

> <Gold.Protein.RotatedTorsions>
[ 6907 6896 6895 6894 ] final  123.68 input  -60.11 | X-H torsion
[ 7974 7965 7964 7962 ] final  170.86 input  175.53 | X-H torsion
[ 8008 7997 7996 7995 ] final  144.38 input   59.86 | X-H torsion
[ 10167 10162 10161 10158 ] final  -44.91 input  -65.29 | X-H torsion
[ 10718 10713 10712 10709 ] final  -85.78 input   66.30 | X-H torsion
[ 10763 10752 10751 10750 ] final   42.23 input  -60.55 | X-H torsion
[ 11005 11000 10999 10996 ] final  150.72 input  -57.11 | X-H torsion

> <Gold.Protein.ActiveResidues>
 VAL166  LYS551  ARG553  GLY616  TRP617  ASP618  TYR619  PRO620  LYS621  CYS622 
 ASP623  PHE694  ASN695  SER759  ASP760  ASP761  ALA762  ILE779  LEU786  VAL792 
 PHE793  MET794  SER795  GLU796  ALA797  LYS798  CYS799  TRP800  GLU811  SER814 

> <Gold.Protein.RotatedAtoms>
  152.4141  133.7010  159.6423 H   0  0  0  0  0  0  0  0  0  0  0  0  # atno 6907 bound_to 6896
  150.8019  133.8571  159.3230 H   0  0  0  0  0  0  0  0  0  0  0  0  # atno 6908 bound_to 6896
  151.6306  135.1025  160.0172 H   0  0  0  0  0  0  0  0  0  0  0  0  # atno 6909 bound_to 6896
  144.7311  139.9265  143.6422 H   0  0  0  0  0  0  0  0  0  0  0  0  # atno 7974 bound_to 7965
  156.2909  140.2237  156.5044 H   0  0  0  0  0  0  0  0  0  0  0  0  # atno 8008 bound_to 7997
  154.7662  140.0470  157.1035 H   0  0  0  0  0  0  0  0  0  0  0  0  # atno 8009 bound_to 7997
  154.9930  140.3092  155.4901 H   0  0  0  0  0  0  0  0  0  0  0  0  # atno 8010 bound_to 7997
  140.6878  143.2906  151.3563 H   0  0  0  0  0  0  0  0  0  0  0  0  # atno 10167 bound_to 10162
  155.9994  130.4743  150.4615 H   0  0  0  0  0  0  0  0  0  0  0  0  # atno 10718 bound_to 10713
  152.9888  135.6138  154.2916 H   0  0  0  0  0  0  0  0  0  0  0  0  # atno 10763 bound_to 10752
  154.2641  135.2781  155.2768 H   0  0  0  0  0  0  0  0  0  0  0  0  # atno 10764 bound_to 10752
  154.5180  135.5822  153.6715 H   0  0  0  0  0  0  0  0  0  0  0  0  # atno 10765 bound_to 10752
  140.1156  134.8896  157.1999 H   0  0  0  0  0  0  0  0  0  0  0  0  # atno 11005 bound_to 11000
  146.0890  139.3879  143.0417 LP  0  0  0  0  0  0  0  0  0  0  0  0  # atno 17320 bound_to 7965
  145.7737  140.9886  143.1136 LP  0  0  0  0  0  0  0  0  0  0  0  0  # atno 17321 bound_to 7965
  139.6253  144.0827  152.2428 LP  0  0  0  0  0  0  0  0  0  0  0  0  # atno 17342 bound_to 10162
  140.0284  144.6100  150.7508 LP  0  0  0  0  0  0  0  0  0  0  0  0  # atno 17343 bound_to 10162
  157.2639  131.0573  151.2303 LP  0  0  0  0  0  0  0  0  0  0  0  0  # atno 17370 bound_to 10713
  157.3408  130.7032  149.6380 LP  0  0  0  0  0  0  0  0  0  0  0  0  # atno 17371 bound_to 10713
  140.3033  134.3107  155.7284 LP  0  0  0  0  0  0  0  0  0  0  0  0  # atno 17394 bound_to 11000
  141.2140  133.7605  156.9672 LP  0  0  0  0  0  0  0  0  0  0  0  0  # atno 17395 bound_to 11000

$$$$
