AV-unprocessed.smi:2812|AV-procd|sdf|10834|dock2
  -GOLD-   2272015273D 1   1.00000     0.00000
 Structure written by MMmdl.
 55 56  0  0  0  0  0  0  0  0  2 V2000
  144.2152  135.5179  150.6175 C   0  0  0  0  0  0  0  0  0  0  0  0
  144.7263  134.1121  150.8952 C   0  0  0  0  0  0  0  0  0  0  0  0
  144.0025  132.9867  150.3401 C   0  0  0  0  0  0  0  0  0  0  0  0
  144.4153  131.7392  150.6044 C   0  0  0  0  0  0  0  0  0  0  0  0
  145.5368  131.4888  151.4087 N   0  0  0  0  0  0  0  0  0  0  0  0
  145.9086  130.0913  151.6432 C   0  0  0  0  0  0  0  0  0  0  0  0
  146.2726  132.4937  151.9643 C   0  0  0  0  0  0  0  0  0  0  0  0
  147.2523  132.2528  152.6739 O   0  0  0  0  0  0  0  0  0  0  0  0
  145.8244  133.8672  151.6628 C   0  0  0  0  0  0  0  0  0  0  0  0
  146.5830  134.8968  152.2316 N   0  0  0  0  0  0  0  0  0  0  0  0
  146.1321  135.7459  153.1689 C   0  0  0  0  0  0  0  0  0  0  0  0
  145.0073  135.7021  153.6689 O   0  0  0  0  0  0  0  0  0  0  0  0
  147.0594  136.6537  153.5023 N   0  0  0  0  0  0  0  0  0  0  0  0
  146.8803  137.6887  154.5158 C   0  0  0  0  0  0  0  0  0  0  0  0
  147.3658  139.0903  154.0419 C   0  0  1  0  0  0  0  0  0  0  0  0
  146.2443  140.1274  154.3182 C   0  0  0  0  0  0  0  0  0  0  0  0
  146.6637  141.5656  154.0105 C   0  0  0  0  0  0  0  0  0  0  0  0
  147.9257  141.8976  154.8019 C   0  0  0  0  0  0  0  0  0  0  0  0
  149.0362  140.9078  154.4391 C   0  0  0  0  0  0  0  0  0  0  0  0
  148.6501  139.4929  154.7040 N   0  3  2  0  0  0  0  0  0  0  0  0
  149.8038  138.5892  154.4278 C   0  0  0  0  0  0  0  0  0  0  0  0
  151.1124  139.1387  155.0291 C   0  0  0  0  0  0  0  0  0  0  0  0
  152.2823  138.1829  154.7527 C   0  0  0  0  0  0  0  0  0  0  0  0
  150.9833  139.4069  156.5378 C   0  0  0  0  0  0  0  0  0  0  0  0
  143.1816  135.4949  150.2714 H   0  0  0  0  0  0  0  0  0  0  0  0
  144.8159  135.9974  149.8449 H   0  0  0  0  0  0  0  0  0  0  0  0
  144.2472  136.1341  151.5166 H   0  0  0  0  0  0  0  0  0  0  0  0
  143.1359  133.1466  149.7154 H   0  0  0  0  0  0  0  0  0  0  0  0
  143.9158  130.8632  150.2172 H   0  0  0  0  0  0  0  0  0  0  0  0
  146.9172  129.8965  151.2756 H   0  0  0  0  0  0  0  0  0  0  0  0
  145.2401  129.3881  151.1456 H   0  0  0  0  0  0  0  0  0  0  0  0
  145.8848  129.8618  152.7096 H   0  0  0  0  0  0  0  0  0  0  0  0
  147.4786  135.0836  151.8048 H   0  0  0  0  0  0  0  0  0  0  0  0
  147.9533  136.6190  153.0338 H   0  0  0  0  0  0  0  0  0  0  0  0
  145.8190  137.7313  154.7618 H   0  0  0  0  0  0  0  0  0  0  0  0
  147.3790  137.3434  155.4192 H   0  0  0  0  0  0  0  0  0  0  0  0
  147.5545  139.0660  152.9673 H   0  0  0  0  0  0  0  0  0  0  0  0
  145.3565  139.8943  153.7296 H   0  0  0  0  0  0  0  0  0  0  0  0
  145.9402  140.0660  155.3643 H   0  0  0  0  0  0  0  0  0  0  0  0
  146.8469  141.6821  152.9414 H   0  0  0  0  0  0  0  0  0  0  0  0
  145.8613  142.2567  154.2709 H   0  0  0  0  0  0  0  0  0  0  0  0
  148.2472  142.9160  154.5815 H   0  0  0  0  0  0  0  0  0  0  0  0
  147.7217  141.8583  155.8729 H   0  0  0  0  0  0  0  0  0  0  0  0
  149.2929  141.0241  153.3847 H   0  0  0  0  0  0  0  0  0  0  0  0
  149.9329  141.1521  155.0099 H   0  0  0  0  0  0  0  0  0  0  0  0
  149.6411  137.5745  154.7833 H   0  0  0  0  0  0  0  0  0  0  0  0
  149.9204  138.4672  153.3495 H   0  0  0  0  0  0  0  0  0  0  0  0
  151.3471  140.0846  154.5393 H   0  0  0  0  0  0  0  0  0  0  0  0
  152.1152  137.2079  155.2121 H   0  0  0  0  0  0  0  0  0  0  0  0
  153.2175  138.5805  155.1479 H   0  0  0  0  0  0  0  0  0  0  0  0
  152.4201  138.0273  153.6820 H   0  0  0  0  0  0  0  0  0  0  0  0
  150.7292  138.4968  157.0821 H   0  0  0  0  0  0  0  0  0  0  0  0
  150.2113  140.1474  156.7483 H   0  0  0  0  0  0  0  0  0  0  0  0
  151.9179  139.7890  156.9494 H   0  0  0  0  0  0  0  0  0  0  0  0
  148.4720  139.4266  155.6959 H   0  0  0  0  0  0  0  0  0  0  0  0
  1  2  1  0  0  0  0
  1 25  1  0  0  0  0
  1 26  1  0  0  0  0
  1 27  1  0  0  0  0
  2  9  2  0  0  0  0
  2  3  1  0  0  0  0
  3  4  2  0  0  0  0
  3 28  1  0  0  0  0
  4  5  1  0  0  0  0
  4 29  1  0  0  0  0
  5  6  1  0  0  0  0
  5  7  1  0  0  0  0
  6 30  1  0  0  0  0
  6 31  1  0  0  0  0
  6 32  1  0  0  0  0
  7  8  2  0  0  0  0
  7  9  1  0  0  0  0
  9 10  1  0  0  0  0
 10 11  1  0  0  0  0
 10 33  1  0  0  0  0
 11 12  2  0  0  0  0
 11 13  1  0  0  0  0
 13 14  1  0  0  0  0
 13 34  1  0  0  0  0
 14 15  1  0  0  0  0
 14 35  1  0  0  0  0
 14 36  1  0  0  0  0
 15 20  1  0  0  0  0
 15 16  1  0  0  0  0
 15 37  1  0  0  0  0
 16 17  1  0  0  0  0
 16 38  1  0  0  0  0
 16 39  1  0  0  0  0
 17 18  1  0  0  0  0
 17 40  1  0  0  0  0
 17 41  1  0  0  0  0
 18 19  1  0  0  0  0
 18 42  1  0  0  0  0
 18 43  1  0  0  0  0
 19 20  1  0  0  0  0
 19 44  1  0  0  0  0
 19 45  1  0  0  0  0
 20 21  1  0  0  0  0
 20 55  1  0  0  0  0
 21 22  1  0  0  0  0
 21 46  1  0  0  0  0
 21 47  1  0  0  0  0
 22 23  1  0  0  0  0
 22 24  1  0  0  0  0
 22 48  1  0  0  0  0
 23 49  1  0  0  0  0
 23 50  1  0  0  0  0
 23 51  1  0  0  0  0
 24 52  1  0  0  0  0
 24 53  1  0  0  0  0
 24 54  1  0  0  0  0
M  CHG  1  20   1
M  END
> <s_m_source_file>
AV-unprocessed.smi

> <i_m_source_file_index>
2812

> <i_lp_mmshare_version>
43012

> <i_f3d_flags>
0

> <s_epik_input>
W0NIM11jMVtjSF1bY0hdbihbQ0gzXSljKD1PKWMxW05IXUMoPU8pW05IXVtDSDJdW0NAQEhdMltDSDJdW0NIMl1bQ0gyXVtDSDJdTjJbQ0gyXVtDSF0oW0NIM10pW0NIM10=

> <s_epik_cmdline>
J2VwaWtfcHl0aG9uJywgJy1waCcsICc3LjAnLCAnLXRuJywgJzgnLCAnLW1hJywgJzIwMCcsICctbWV0YWxfYmluZGluZycsICctaW1hZScsICc8aW5maWxlLm1hZT4nLCAnLW9tYWUnLCAnPG91dGZpbGUubWFlPic=

> <r_lp_tautomer_probability>
1

> <r_epik_Ionization_Penalty>
0.0010902

> <r_epik_Ionization_Penalty_Charging>
0.00107091

> <r_epik_Ionization_Penalty_Neutral>
1.92854e-05

> <r_epik_State_Penalty>
0.000697184

> <r_epik_Charging_Adjusted_Penalty>
0.0017681

> <i_epik_Tot_Q>
1

> <i_epik_Tot_abs_Q>
1

> <r_epik_Metal_State_Penalty>
-0

> <b_epik_Metal_Only>
0

> <s_lp_Force_Field>
OPLS_2005

> <r_lp_Energy>
40.1667

> <b_lp_Chiralities_Consistent>
1

> <s_lp_Variant>
AV-unprocessed.smi:2812-2

> <Gold.Version>
5.8.1

> <Gold.Id.Protein>
6NUR|6NUR_protein|mol2

> <Gold.PLP.Fitness>
47.0830

> <Gold.PLP.PLP>
-43.3603

> <Gold.PLP.part.hbond>
-1.9146

> <Gold.PLP.part.metal>
0.0000

> <Gold.PLP.part.buried>
-4.4274

> <Gold.PLP.part.nonpolar>
-37.9113

> <Gold.PLP.part.repulsive>
0.2392

> <Gold.PLP.ligand.clash>
0.0000

> <Gold.PLP.ligand.torsion>
1.4576

> <Gold.PLP.Chemscore.Hbond>
1.8800

> <Gold.PLP.Chemscore.CHOScore>
0.0000

> <Gold.PLP.Chemscore.Metal>
0.0000

> <Gold.Chemscore.Hbonds>
donor molecule, donor type, donor heavy atom, donor atom, acceptor molecule, acceptor atom, score
      L1  H    10    33       P1  7948  0.90
      L1  H    13    34       P1  7948  1.00

> <Gold.PLP.Chemscore.Internal.Correction>
0.9978

> <Gold.Rescore>
     Score         DG    S(hbond)    S(metal)    S(lipo)     H(rot)  DE(clash)    DE(int)     intcor
     17.94     -19.54       1.70        0.00     104.74       1.52       0.21       1.39       ----

> <Gold.Chemscore.Fitness>
17.9446

> <Gold.Chemscore.DG>
-19.5385

> <Gold.Chemscore.ZeroCoef>
-5.4800

> <Gold.Chemscore.Hbond>
1.7018

> <Gold.Chemscore.Metal>
0.0000

> <Gold.Chemscore.Lipo>
104.7403

> <Gold.Chemscore.Internal_Hbond>
0.0000

> <Gold.Chemscore.DEClash>
0.2082

> <Gold.Chemscore.DEInternal>
1.3857

> <Gold.Chemscore.Rot>
1.5157

> <Gold.Chemscore.Internal.Correction>
   9.000000E+99

> <Gold.Chemscore.Hbonds>
donor molecule, donor type, donor heavy atom, donor atom, acceptor molecule, acceptor atom, score
      L1  H    10    33       P1  7948  0.78
      L1  H    13    34       P1  7948  0.96

> <Gold.Chemscore.Hbond.Weighted>
-5.6841

> <Gold.Chemscore.Metal.Weighted>
-0.0000

> <Gold.Chemscore.Lipo.Weighted>
-12.2546

> <Gold.Chemscore.Internal_Hbond.Weighted>
0.0000

> <Gold.Chemscore.DEClash.Weighted>
0.2082

> <Gold.Chemscore.DEInternal.Weighted>
1.3857

> <Gold.Chemscore.Rot.Weighted>
3.8803

> <Gold.Chemscore.Internal.Correction.Weighted>
   9.000000E+99

> <Gold.Protein.RotatedTorsions>
[ 6907 6896 6895 6894 ] final  115.62 input  -60.11 | X-H torsion
[ 7974 7965 7964 7962 ] final -177.89 input  175.53 | X-H torsion
[ 8008 7997 7996 7995 ] final   28.71 input   59.86 | X-H torsion
[ 10167 10162 10161 10158 ] final   42.88 input  -65.29 | X-H torsion
[ 10718 10713 10712 10709 ] final -163.09 input   66.30 | X-H torsion
[ 10763 10752 10751 10750 ] final  177.37 input  -60.55 | X-H torsion
[ 11005 11000 10999 10996 ] final   14.74 input  -57.11 | X-H torsion

> <Gold.Protein.ActiveResidues>
 VAL166  LYS551  ARG553  GLY616  TRP617  ASP618  TYR619  PRO620  LYS621  CYS622 
 ASP623  PHE694  ASN695  SER759  ASP760  ASP761  ALA762  ILE779  LEU786  VAL792 
 PHE793  MET794  SER795  GLU796  ALA797  LYS798  CYS799  TRP800  GLU811  SER814 

> <Gold.Protein.RotatedAtoms>
  152.4730  133.8073  159.6984 H   0  0  0  0  0  0  0  0  0  0  0  0  # atno 6907 bound_to 6896
  150.8730  133.7469  159.2962 H   0  0  0  0  0  0  0  0  0  0  0  0  # atno 6908 bound_to 6896
  151.4998  135.1064  159.9878 H   0  0  0  0  0  0  0  0  0  0  0  0  # atno 6909 bound_to 6896
  144.7129  140.0951  143.6419 H   0  0  0  0  0  0  0  0  0  0  0  0  # atno 7974 bound_to 7965
  155.0630  140.3192  155.4654 H   0  0  0  0  0  0  0  0  0  0  0  0  # atno 8008 bound_to 7997
  156.2808  140.2125  156.5702 H   0  0  0  0  0  0  0  0  0  0  0  0  # atno 8009 bound_to 7997
  154.7117  140.0497  157.0543 H   0  0  0  0  0  0  0  0  0  0  0  0  # atno 8010 bound_to 7997
  140.3499  144.2363  150.6146 H   0  0  0  0  0  0  0  0  0  0  0  0  # atno 10167 bound_to 10162
  156.6197  130.8885  151.2955 H   0  0  0  0  0  0  0  0  0  0  0  0  # atno 10718 bound_to 10713
  154.4935  135.2780  155.1477 H   0  0  0  0  0  0  0  0  0  0  0  0  # atno 10763 bound_to 10752
  154.3139  135.6223  153.5481 H   0  0  0  0  0  0  0  0  0  0  0  0  # atno 10764 bound_to 10752
  152.9891  135.5726  154.5362 H   0  0  0  0  0  0  0  0  0  0  0  0  # atno 10765 bound_to 10752
  140.4661  134.1078  155.7724 H   0  0  0  0  0  0  0  0  0  0  0  0  # atno 11005 bound_to 11000
  145.9587  139.2785  143.1169 LP  0  0  0  0  0  0  0  0  0  0  0  0  # atno 17320 bound_to 7965
  145.9245  140.9092  143.0388 LP  0  0  0  0  0  0  0  0  0  0  0  0  # atno 17321 bound_to 7965
  140.5228  143.2261  151.8361 LP  0  0  0  0  0  0  0  0  0  0  0  0  # atno 17342 bound_to 10162
  139.4828  144.4815  151.9300 LP  0  0  0  0  0  0  0  0  0  0  0  0  # atno 17343 bound_to 10162
  157.7231  130.9585  150.1520 LP  0  0  0  0  0  0  0  0  0  0  0  0  # atno 17370 bound_to 10713
  156.2321  130.3683  149.8432 LP  0  0  0  0  0  0  0  0  0  0  0  0  # atno 17371 bound_to 10713
  141.1599  133.8813  157.1877 LP  0  0  0  0  0  0  0  0  0  0  0  0  # atno 17394 bound_to 11000
  139.9914  135.0063  156.9984 LP  0  0  0  0  0  0  0  0  0  0  0  0  # atno 17395 bound_to 11000

$$$$
