AV-unprocessed.smi:2973|AV-procd|sdf|11345|dock5
  -GOLD-   2272016263D 1   1.00000     0.00000
 Structure written by MMmdl.
 48 50  0  0  0  0  0  0  0  0  2 V2000
  150.2198  140.9268  156.5956 C   0  0  0  0  0  0  0  0  0  0  0  0
  149.4374  141.0996  155.2743 C   0  0  2  0  0  0  0  0  0  0  0  0
  148.0520  141.7213  155.5614 C   0  0  0  0  0  0  0  0  0  0  0  0
  147.2596  141.9817  154.2721 C   0  0  0  0  0  0  0  0  0  0  0  0
  147.1009  140.6977  153.4484 C   0  0  0  0  0  0  0  0  0  0  0  0
  148.4709  140.0713  153.1373 C   0  0  0  0  0  0  0  0  0  0  0  0
  149.3306  139.8035  154.4021 C   0  0  1  0  0  0  0  0  0  0  0  0
  150.6507  139.3718  153.9760 N   0  5  0  0  0  0  0  0  0  0  0  0
  150.8732  138.1149  154.4246 C   0  0  0  0  0  0  0  0  0  0  0  0
  151.8897  137.4426  154.2540 O   0  0  0  0  0  0  0  0  0  0  0  0
  149.8138  137.6535  155.1151 N   0  0  0  0  0  0  0  0  0  0  0  0
  149.7418  136.3358  155.7604 C   0  0  0  0  0  0  0  0  0  0  0  0
  148.4215  135.6006  155.4902 C   0  0  0  0  0  0  0  0  0  0  0  0
  147.6704  135.2837  156.4137 O   0  0  0  0  0  0  0  0  0  0  0  0
  148.1436  135.3536  154.2014 N   0  0  0  0  0  0  0  0  0  0  0  0
  146.9525  134.6665  153.7164 C   0  0  0  0  0  0  0  0  0  0  0  0
  147.3112  133.4728  152.8160 C   0  0  0  0  0  0  0  0  0  0  0  0
  146.1598  133.0703  151.9137 C   0  0  0  0  0  0  0  0  0  0  0  0
  145.5957  133.9961  151.0100 C   0  0  0  0  0  0  0  0  0  0  0  0
  144.5355  133.5694  150.1867 C   0  0  0  0  0  0  0  0  0  0  0  0
  144.0837  132.2402  150.2964 C   0  0  0  0  0  0  0  0  0  0  0  0
  144.7152  131.3928  151.2287 C   0  0  0  0  0  0  0  0  0  0  0  0
  145.7321  131.7919  152.0228 N   0  0  0  0  0  0  0  0  0  0  0  0
  148.8451  138.5741  155.1680 C   0  0  0  0  0  0  0  0  0  0  0  0
  147.7553  138.4746  155.7335 O   0  0  0  0  0  0  0  0  0  0  0  0
  149.7165  140.2436  157.2802 H   0  0  0  0  0  0  0  0  0  0  0  0
  150.3260  141.8815  157.1106 H   0  0  0  0  0  0  0  0  0  0  0  0
  151.2251  140.5430  156.4218 H   0  0  0  0  0  0  0  0  0  0  0  0
  149.9909  141.8338  154.6861 H   0  0  0  0  0  0  0  0  0  0  0  0
  147.4749  141.0727  156.2208 H   0  0  0  0  0  0  0  0  0  0  0  0
  148.1753  142.6621  156.0989 H   0  0  0  0  0  0  0  0  0  0  0  0
  146.2787  142.3908  154.5147 H   0  0  0  0  0  0  0  0  0  0  0  0
  147.7717  142.7377  153.6753 H   0  0  0  0  0  0  0  0  0  0  0  0
  146.4720  139.9883  153.9859 H   0  0  0  0  0  0  0  0  0  0  0  0
  146.5793  140.9198  152.5171 H   0  0  0  0  0  0  0  0  0  0  0  0
  148.3225  139.1483  152.5739 H   0  0  0  0  0  0  0  0  0  0  0  0
  149.0122  140.7415  152.4675 H   0  0  0  0  0  0  0  0  0  0  0  0
  150.5625  135.7022  155.4213 H   0  0  0  0  0  0  0  0  0  0  0  0
  149.8821  136.4488  156.8369 H   0  0  0  0  0  0  0  0  0  0  0  0
  148.8141  135.6521  153.5079 H   0  0  0  0  0  0  0  0  0  0  0  0
  146.3892  134.3192  154.5830 H   0  0  0  0  0  0  0  0  0  0  0  0
  146.3053  135.3678  153.1866 H   0  0  0  0  0  0  0  0  0  0  0  0
  148.1766  133.7128  152.1963 H   0  0  0  0  0  0  0  0  0  0  0  0
  147.6019  132.6179  153.4283 H   0  0  0  0  0  0  0  0  0  0  0  0
  145.9669  135.0086  150.9459 H   0  0  0  0  0  0  0  0  0  0  0  0
  144.0782  134.2493  149.4829 H   0  0  0  0  0  0  0  0  0  0  0  0
  143.2738  131.8780  149.6807 H   0  0  0  0  0  0  0  0  0  0  0  0
  144.3955  130.3673  151.3392 H   0  0  0  0  0  0  0  0  0  0  0  0
  1  2  1  0  0  0  0
  1 26  1  0  0  0  0
  1 27  1  0  0  0  0
  1 28  1  0  0  0  0
  2  7  1  0  0  0  0
  2  3  1  0  0  0  0
  2 29  1  0  0  0  0
  3  4  1  0  0  0  0
  3 30  1  0  0  0  0
  3 31  1  0  0  0  0
  4  5  1  0  0  0  0
  4 32  1  0  0  0  0
  4 33  1  0  0  0  0
  5  6  1  0  0  0  0
  5 34  1  0  0  0  0
  5 35  1  0  0  0  0
  6  7  1  0  0  0  0
  6 36  1  0  0  0  0
  6 37  1  0  0  0  0
  7 24  1  0  0  0  0
  7  8  1  0  0  0  0
  8  9  1  0  0  0  0
  9 10  2  0  0  0  0
  9 11  1  0  0  0  0
 11 12  1  0  0  0  0
 11 24  1  0  0  0  0
 12 13  1  0  0  0  0
 12 38  1  0  0  0  0
 12 39  1  0  0  0  0
 13 14  2  0  0  0  0
 13 15  1  0  0  0  0
 15 16  1  0  0  0  0
 15 40  1  0  0  0  0
 16 17  1  0  0  0  0
 16 41  1  0  0  0  0
 16 42  1  0  0  0  0
 17 18  1  0  0  0  0
 17 43  1  0  0  0  0
 17 44  1  0  0  0  0
 18 23  1  0  0  0  0
 18 19  2  0  0  0  0
 19 20  1  0  0  0  0
 19 45  1  0  0  0  0
 20 21  2  0  0  0  0
 20 46  1  0  0  0  0
 21 22  1  0  0  0  0
 21 47  1  0  0  0  0
 22 23  2  0  0  0  0
 22 48  1  0  0  0  0
 24 25  2  0  0  0  0
M  CHG  1   8  -1
M  END
> <s_m_source_file>
AV-unprocessed.smi

> <i_m_source_file_index>
2973

> <i_lp_mmshare_version>
43012

> <i_f3d_flags>
0

> <s_epik_input>
W0NIMl0xW0NIMl1bQ0gyXVtDSDJdW0NAQEhdKFtDSDNdKVtDQF0xMltOSF1DKD1PKU4oQzI9TylbQ0gyXUMoPU8pW05IXVtDSDJdW0NIMl1jM1tjSF1bY0hdW2NIXVtjSF1uMw==

> <s_epik_cmdline>
J2VwaWtfcHl0aG9uJywgJy1waCcsICc3LjAnLCAnLXRuJywgJzgnLCAnLW1hJywgJzIwMCcsICctbWV0YWxfYmluZGluZycsICctaW1hZScsICc8aW5maWxlLm1hZT4nLCAnLW9tYWUnLCAnPG91dGZpbGUubWFlPic=

> <r_lp_tautomer_probability>
1

> <r_epik_Ionization_Penalty>
6.04175

> <r_epik_Ionization_Penalty_Charging>
6.01728

> <r_epik_Ionization_Penalty_Neutral>
0.0244696

> <r_epik_State_Penalty>
6.03712

> <r_epik_Charging_Adjusted_Penalty>
12.0544

> <i_epik_Tot_Q>
-1

> <i_epik_Tot_abs_Q>
1

> <r_epik_Metal_State_Penalty>
2.01153

> <b_epik_Metal_Only>
1

> <s_lp_Force_Field>
OPLS_2005

> <r_lp_Energy>
12.5421

> <b_lp_Chiralities_Consistent>
1

> <s_lp_Variant>
AV-unprocessed.smi:2973-9

> <Gold.Version>
5.8.1

> <Gold.Id.Protein>
6NUR|6NUR_protein|mol2

> <Gold.PLP.Fitness>
44.4607

> <Gold.PLP.PLP>
-36.5993

> <Gold.PLP.part.hbond>
-3.0000

> <Gold.PLP.part.metal>
0.0000

> <Gold.PLP.part.buried>
1.5125

> <Gold.PLP.part.nonpolar>
-35.6289

> <Gold.PLP.part.repulsive>
0.7468

> <Gold.PLP.ligand.clash>
0.0000

> <Gold.PLP.ligand.torsion>
0.2768

> <Gold.PLP.Chemscore.Hbond>
2.7920

> <Gold.PLP.Chemscore.CHOScore>
0.0000

> <Gold.PLP.Chemscore.Metal>
0.0000

> <Gold.Chemscore.Hbonds>
donor molecule, donor type, donor heavy atom, donor atom, acceptor molecule, acceptor atom, score
      L1  H    15    40       P1  7948  0.88
      P1  H  7989  7998       L1     8  1.00
      P1  H 10752 10765       L1    10  0.92

> <Gold.PLP.Chemscore.Internal.Correction>
0.0389

> <Gold.Rescore>
     Score         DG    S(hbond)    S(metal)    S(lipo)     H(rot)  DE(clash)    DE(int)     intcor
     17.00     -20.06       2.53        0.00      91.92       1.81       1.64       1.42       ----

> <Gold.Chemscore.Fitness>
17.0003

> <Gold.Chemscore.DG>
-20.0578

> <Gold.Chemscore.ZeroCoef>
-5.4800

> <Gold.Chemscore.Hbond>
2.5313

> <Gold.Chemscore.Metal>
0.0000

> <Gold.Chemscore.Lipo>
91.9169

> <Gold.Chemscore.Internal_Hbond>
0.0000

> <Gold.Chemscore.DEClash>
1.6366

> <Gold.Chemscore.DEInternal>
1.4210

> <Gold.Chemscore.Rot>
1.8090

> <Gold.Chemscore.Internal.Correction>
   9.000000E+99

> <Gold.Chemscore.Hbonds>
donor molecule, donor type, donor heavy atom, donor atom, acceptor molecule, acceptor atom, score
      L1  H    15    40       P1  7948  0.82
      P1  H  7989  7998       L1     8  0.69
      P1  H 10752 10765       L1    10  0.84

> <Gold.Chemscore.Hbond.Weighted>
-8.4546

> <Gold.Chemscore.Metal.Weighted>
-0.0000

> <Gold.Chemscore.Lipo.Weighted>
-10.7543

> <Gold.Chemscore.Internal_Hbond.Weighted>
0.0000

> <Gold.Chemscore.DEClash.Weighted>
1.6366

> <Gold.Chemscore.DEInternal.Weighted>
1.4210

> <Gold.Chemscore.Rot.Weighted>
4.6310

> <Gold.Chemscore.Internal.Correction.Weighted>
   9.000000E+99

> <Gold.Protein.RotatedTorsions>
[ 6907 6896 6895 6894 ] final  115.50 input  -60.11 | X-H torsion
[ 7974 7965 7964 7962 ] final   39.88 input  175.53 | X-H torsion
[ 8008 7997 7996 7995 ] final  132.25 input   59.86 | X-H torsion
[ 10167 10162 10161 10158 ] final  113.38 input  -65.29 | X-H torsion
[ 10718 10713 10712 10709 ] final -132.03 input   66.30 | X-H torsion
[ 10763 10752 10751 10750 ] final  157.22 input  -60.55 | X-H torsion
[ 11005 11000 10999 10996 ] final  153.45 input  -57.11 | X-H torsion

> <Gold.Protein.ActiveResidues>
 VAL166  LYS551  ARG553  GLY616  TRP617  ASP618  TYR619  PRO620  LYS621  CYS622 
 ASP623  PHE694  ASN695  SER759  ASP760  ASP761  ALA762  ILE779  LEU786  VAL792 
 PHE793  MET794  SER795  GLU796  ALA797  LYS798  CYS799  TRP800  GLU811  SER814 

> <Gold.Protein.RotatedAtoms>
  152.4737  133.8089  159.6992 H   0  0  0  0  0  0  0  0  0  0  0  0  # atno 6907 bound_to 6896
  150.8741  133.7454  159.2958 H   0  0  0  0  0  0  0  0  0  0  0  0  # atno 6908 bound_to 6896
  151.4979  135.1064  159.9873 H   0  0  0  0  0  0  0  0  0  0  0  0  # atno 6909 bound_to 6896
  146.0949  139.5598  142.9452 H   0  0  0  0  0  0  0  0  0  0  0  0  # atno 7974 bound_to 7965
  156.2980  140.2551  156.3058 H   0  0  0  0  0  0  0  0  0  0  0  0  # atno 8008 bound_to 7997
  154.9373  140.0397  157.2098 H   0  0  0  0  0  0  0  0  0  0  0  0  # atno 8009 bound_to 7997
  154.8160  140.2852  155.5824 H   0  0  0  0  0  0  0  0  0  0  0  0  # atno 8010 bound_to 7997
  139.6466  144.7127  151.2131 H   0  0  0  0  0  0  0  0  0  0  0  0  # atno 10167 bound_to 10162
  156.2304  130.7034  151.0852 H   0  0  0  0  0  0  0  0  0  0  0  0  # atno 10718 bound_to 10713
  154.1967  135.2792  155.3004 H   0  0  0  0  0  0  0  0  0  0  0  0  # atno 10763 bound_to 10752
  154.5886  135.5567  153.7259 H   0  0  0  0  0  0  0  0  0  0  0  0  # atno 10764 bound_to 10752
  153.0098  135.6362  154.2106 H   0  0  0  0  0  0  0  0  0  0  0  0  # atno 10765 bound_to 10752
  140.1399  134.8746  157.2317 H   0  0  0  0  0  0  0  0  0  0  0  0  # atno 11005 bound_to 11000
  145.5968  141.0361  143.2040 LP  0  0  0  0  0  0  0  0  0  0  0  0  # atno 17320 bound_to 7965
  144.7388  139.7509  143.7319 LP  0  0  0  0  0  0  0  0  0  0  0  0  # atno 17321 bound_to 7965
  140.7517  143.6221  150.8503 LP  0  0  0  0  0  0  0  0  0  0  0  0  # atno 17342 bound_to 10162
  139.9864  143.5894  152.2925 LP  0  0  0  0  0  0  0  0  0  0  0  0  # atno 17343 bound_to 10162
  157.7130  131.0724  150.6431 LP  0  0  0  0  0  0  0  0  0  0  0  0  # atno 17370 bound_to 10713
  156.6498  130.4482  149.5723 LP  0  0  0  0  0  0  0  0  0  0  0  0  # atno 17371 bound_to 10713
  140.2735  134.3433  155.7366 LP  0  0  0  0  0  0  0  0  0  0  0  0  # atno 17394 bound_to 11000
  141.2184  133.7437  156.9258 LP  0  0  0  0  0  0  0  0  0  0  0  0  # atno 17395 bound_to 11000

$$$$
