AV-unprocessed.smi:1878|AV-procd|sdf|7628|dock5
  -GOLD-   22720 9353D 1   1.00000     0.00000
 Structure written by MMmdl.
 34 35  0  0  0  0  0  0  0  0  2 V2000
  148.9691  141.6614  154.0675 O   0  0  0  0  0  0  0  0  0  0  0  0
  149.4596  140.5342  154.1635 C   0  0  0  0  0  0  0  0  0  0  0  0
  148.7672  139.4682  153.7434 N   0  0  0  0  0  0  0  0  0  0  0  0
  147.4316  139.5138  153.1606 C   0  0  0  0  0  0  0  0  0  0  0  0
  146.5079  138.4705  153.8049 C   0  0  0  0  0  0  0  0  0  0  0  0
  145.7489  137.9125  152.8624 F   0  0  0  0  0  0  0  0  0  0  0  0
  147.2266  137.5156  154.3957 F   0  0  0  0  0  0  0  0  0  0  0  0
  145.7139  139.0461  154.7081 F   0  0  0  0  0  0  0  0  0  0  0  0
  150.6771  140.2298  154.6696 N   0  5  0  0  0  0  0  0  0  0  0  0
  151.0776  140.7689  155.8316 C   0  0  0  0  0  0  0  0  0  0  0  0
  151.8645  140.0446  156.7525 C   0  0  0  0  0  0  0  0  0  0  0  0
  152.2670  140.6485  157.9587 C   0  0  0  0  0  0  0  0  0  0  0  0
  151.8773  141.9822  158.2197 C   0  0  0  0  0  0  0  0  0  0  0  0
  152.2522  142.6274  159.4153 N   0  0  0  0  0  0  0  0  0  0  0  0
  152.5683  141.8817  160.6233 C   0  0  0  0  0  0  0  0  0  0  0  0
  152.7878  142.9525  161.6908 C   0  0  0  0  0  0  0  0  0  0  0  0
  151.8308  144.0664  161.2662 C   0  0  0  0  0  0  0  0  0  0  0  0
  151.8051  143.9756  159.7358 C   0  0  0  0  0  0  0  0  0  0  0  0
  151.1222  142.6849  157.3437 N   0  0  0  0  0  0  0  0  0  0  0  0
  150.7421  142.0929  156.1915 C   0  0  0  0  0  0  0  0  0  0  0  0
  149.1985  138.5603  153.8367 H   0  0  0  0  0  0  0  0  0  0  0  0
  147.0161  140.5135  153.2962 H   0  0  0  0  0  0  0  0  0  0  0  0
  147.4977  139.3361  152.0860 H   0  0  0  0  0  0  0  0  0  0  0  0
  152.1553  139.0261  156.5398 H   0  0  0  0  0  0  0  0  0  0  0  0
  152.8570  140.0809  158.6621 H   0  0  0  0  0  0  0  0  0  0  0  0
  151.7253  141.2414  160.8870 H   0  0  0  0  0  0  0  0  0  0  0  0
  153.4516  141.2557  160.4919 H   0  0  0  0  0  0  0  0  0  0  0  0
  152.6010  142.5889  162.7015 H   0  0  0  0  0  0  0  0  0  0  0  0
  153.8161  143.3136  161.6457 H   0  0  0  0  0  0  0  0  0  0  0  0
  150.8352  143.8586  161.6605 H   0  0  0  0  0  0  0  0  0  0  0  0
  152.1349  145.0496  161.6264 H   0  0  0  0  0  0  0  0  0  0  0  0
  152.4999  144.6902  159.2937 H   0  0  0  0  0  0  0  0  0  0  0  0
  150.8064  144.1829  159.3503 H   0  0  0  0  0  0  0  0  0  0  0  0
  150.1431  142.7027  155.5307 H   0  0  0  0  0  0  0  0  0  0  0  0
  1  2  2  0  0  0  0
  2  3  1  0  0  0  0
  2  9  1  0  0  0  0
  3  4  1  0  0  0  0
  3 21  1  0  0  0  0
  4  5  1  0  0  0  0
  4 22  1  0  0  0  0
  4 23  1  0  0  0  0
  5  6  1  0  0  0  0
  5  7  1  0  0  0  0
  5  8  1  0  0  0  0
  9 10  1  0  0  0  0
 10 20  1  0  0  0  0
 10 11  2  0  0  0  0
 11 12  1  0  0  0  0
 11 24  1  0  0  0  0
 12 13  2  0  0  0  0
 12 25  1  0  0  0  0
 13 14  1  0  0  0  0
 13 19  1  0  0  0  0
 14 18  1  0  0  0  0
 14 15  1  0  0  0  0
 15 16  1  0  0  0  0
 15 26  1  0  0  0  0
 15 27  1  0  0  0  0
 16 17  1  0  0  0  0
 16 28  1  0  0  0  0
 16 29  1  0  0  0  0
 17 18  1  0  0  0  0
 17 30  1  0  0  0  0
 17 31  1  0  0  0  0
 18 32  1  0  0  0  0
 18 33  1  0  0  0  0
 19 20  2  0  0  0  0
 20 34  1  0  0  0  0
M  CHG  1   9  -1
M  END
> <s_m_source_file>
AV-unprocessed.smi

> <i_m_source_file_index>
1878

> <i_lp_mmshare_version>
43012

> <i_f3d_flags>
0

> <s_epik_input>
RkMoRikoRilbQ0gyXVtOSF1DKD1PKVtOSF1jMVtjSF1bY0hdYyhuW2NIXTEpTjJbQ0gyXVtDSDJdW0NIMl1bQ0gyXTI=

> <s_epik_cmdline>
J2VwaWtfcHl0aG9uJywgJy1waCcsICc3LjAnLCAnLXRuJywgJzgnLCAnLW1hJywgJzIwMCcsICctbWV0YWxfYmluZGluZycsICctaW1hZScsICc8aW5maWxlLm1hZT4nLCAnLW9tYWUnLCAnPG91dGZpbGUubWFlPic=

> <r_lp_tautomer_probability>
1

> <r_epik_Ionization_Penalty>
8.41125

> <r_epik_Ionization_Penalty_Charging>
6.79601

> <r_epik_Ionization_Penalty_Neutral>
1.61524

> <r_epik_State_Penalty>
6.86553

> <r_epik_Charging_Adjusted_Penalty>
13.6615

> <i_epik_Tot_Q>
-1

> <i_epik_Tot_abs_Q>
1

> <r_epik_Metal_State_Penalty>
2.85642

> <b_epik_Metal_Only>
1

> <s_lp_Force_Field>
OPLS_2005

> <r_lp_Energy>
22.1987

> <b_lp_Chiralities_Consistent>
1

> <s_lp_Variant>
AV-unprocessed.smi:1878-3

> <Gold.Version>
5.8.1

> <Gold.Id.Protein>
6NUR|6NUR_protein|mol2

> <Gold.PLP.Fitness>
45.2391

> <Gold.PLP.PLP>
-40.4829

> <Gold.PLP.part.hbond>
-3.0000

> <Gold.PLP.part.metal>
0.0000

> <Gold.PLP.part.buried>
-3.0543

> <Gold.PLP.part.nonpolar>
-34.0662

> <Gold.PLP.part.repulsive>
0.4323

> <Gold.PLP.ligand.clash>
0.0000

> <Gold.PLP.ligand.torsion>
1.7028

> <Gold.PLP.Chemscore.Hbond>
1.4664

> <Gold.PLP.Chemscore.CHOScore>
1.0000

> <Gold.PLP.Chemscore.Metal>
0.0000

> <Gold.Chemscore.Hbonds>
donor molecule, donor type, donor heavy atom, donor atom, acceptor molecule, acceptor atom, score
      P1  H  7989  7998       L1     9  0.95
      P1  H  8011  8017       L1     1  0.55
      L1  C    20    34       P1  8028  1.00

> <Gold.PLP.Chemscore.Internal.Correction>
0.7625

> <Gold.Rescore>
     Score         DG    S(hbond)    S(metal)    S(lipo)     H(rot)  DE(clash)    DE(int)     intcor
     11.91     -15.03       0.73        0.00      82.64       1.00       0.42       2.70       ----

> <Gold.Chemscore.Fitness>
11.9099

> <Gold.Chemscore.DG>
-15.0326

> <Gold.Chemscore.ZeroCoef>
-5.4800

> <Gold.Chemscore.Hbond>
0.7317

> <Gold.Chemscore.Metal>
0.0000

> <Gold.Chemscore.Lipo>
82.6397

> <Gold.Chemscore.Internal_Hbond>
0.0000

> <Gold.Chemscore.DEClash>
0.4225

> <Gold.Chemscore.DEInternal>
2.7002

> <Gold.Chemscore.Rot>
1.0000

> <Gold.Chemscore.Internal.Correction>
   9.000000E+99

> <Gold.Chemscore.Hbonds>
donor molecule, donor type, donor heavy atom, donor atom, acceptor molecule, acceptor atom, score
      P1  H  7989  7998       L1     9  0.13
      P1  H  8011  8017       L1     1  0.23

> <Gold.Chemscore.Hbond.Weighted>
-2.4438

> <Gold.Chemscore.Metal.Weighted>
-0.0000

> <Gold.Chemscore.Lipo.Weighted>
-9.6688

> <Gold.Chemscore.Internal_Hbond.Weighted>
0.0000

> <Gold.Chemscore.DEClash.Weighted>
0.4225

> <Gold.Chemscore.DEInternal.Weighted>
2.7002

> <Gold.Chemscore.Rot.Weighted>
2.5600

> <Gold.Chemscore.Internal.Correction.Weighted>
   9.000000E+99

> <Gold.Protein.RotatedTorsions>
[ 6907 6896 6895 6894 ] final  103.70 input  -60.11 | X-H torsion
[ 7974 7965 7964 7962 ] final   56.89 input  175.53 | X-H torsion
[ 8008 7997 7996 7995 ] final -140.01 input   59.86 | X-H torsion
[ 10167 10162 10161 10158 ] final -121.48 input  -65.29 | X-H torsion
[ 10718 10713 10712 10709 ] final  130.86 input   66.30 | X-H torsion
[ 10763 10752 10751 10750 ] final -160.78 input  -60.55 | X-H torsion
[ 11005 11000 10999 10996 ] final  -70.37 input  -57.11 | X-H torsion

> <Gold.Protein.ActiveResidues>
 VAL166  LYS551  ARG553  GLY616  TRP617  ASP618  TYR619  PRO620  LYS621  CYS622 
 ASP623  PHE694  ASN695  SER759  ASP760  ASP761  ALA762  ILE779  LEU786  VAL792 
 PHE793  MET794  SER795  GLU796  ALA797  LYS798  CYS799  TRP800  GLU811  SER814 

> <Gold.Protein.RotatedAtoms>
  152.5287  133.9787  159.7796 H   0  0  0  0  0  0  0  0  0  0  0  0  # atno 6907 bound_to 6896
  151.0045  133.6016  159.2698 H   0  0  0  0  0  0  0  0  0  0  0  0  # atno 6908 bound_to 6896
  151.3113  135.0801  159.9326 H   0  0  0  0  0  0  0  0  0  0  0  0  # atno 6909 bound_to 6896
  145.9350  139.3839  143.0398 H   0  0  0  0  0  0  0  0  0  0  0  0  # atno 7974 bound_to 7965
  155.4544  140.0541  157.2998 H   0  0  0  0  0  0  0  0  0  0  0  0  # atno 8008 bound_to 7997
  154.4764  140.2062  155.9824 H   0  0  0  0  0  0  0  0  0  0  0  0  # atno 8009 bound_to 7997
  156.1138  140.3200  155.8114 H   0  0  0  0  0  0  0  0  0  0  0  0  # atno 8010 bound_to 7997
  140.0245  143.5310  152.2205 H   0  0  0  0  0  0  0  0  0  0  0  0  # atno 10167 bound_to 10162
  157.5022  131.1094  150.9411 H   0  0  0  0  0  0  0  0  0  0  0  0  # atno 10718 bound_to 10713
  154.7361  135.3057  154.8810 H   0  0  0  0  0  0  0  0  0  0  0  0  # atno 10763 bound_to 10752
  153.9638  135.6750  153.4750 H   0  0  0  0  0  0  0  0  0  0  0  0  # atno 10764 bound_to 10752
  153.0963  135.4934  154.8708 H   0  0  0  0  0  0  0  0  0  0  0  0  # atno 10765 bound_to 10752
  141.1572  133.6788  156.6741 H   0  0  0  0  0  0  0  0  0  0  0  0  # atno 11005 bound_to 11000
  145.8376  140.9598  143.0816 LP  0  0  0  0  0  0  0  0  0  0  0  0  # atno 17320 bound_to 7965
  144.6770  140.0243  143.7483 LP  0  0  0  0  0  0  0  0  0  0  0  0  # atno 17321 bound_to 7965
  139.6117  144.7610  151.2937 LP  0  0  0  0  0  0  0  0  0  0  0  0  # atno 17342 bound_to 10162
  140.7328  143.6812  150.7999 LP  0  0  0  0  0  0  0  0  0  0  0  0  # atno 17343 bound_to 10162
  157.0079  130.5625  149.5318 LP  0  0  0  0  0  0  0  0  0  0  0  0  # atno 17370 bound_to 10713
  156.0236  130.5330  150.8344 LP  0  0  0  0  0  0  0  0  0  0  0  0  # atno 17371 bound_to 10713
  140.3152  134.8053  157.4208 LP  0  0  0  0  0  0  0  0  0  0  0  0  # atno 17394 bound_to 11000
  140.1144  134.5302  155.8237 LP  0  0  0  0  0  0  0  0  0  0  0  0  # atno 17395 bound_to 11000

$$$$
