AV-unprocessed.smi:3232|AV-procd|sdf|12344|dock6
  -GOLD-   2272018203D 1   1.00000     0.00000
 Structure written by MMmdl.
 40 41  0  0  0  0  0  0  0  0  2 V2000
  143.7113  139.7398  155.9594 C   0  0  0  0  0  0  0  0  0  0  0  0
  144.3333  138.5635  155.1961 C   0  0  0  0  0  0  0  0  0  0  0  0
  145.1765  139.0219  154.0645 N   0  3  1  0  0  0  0  0  0  0  0  0
  146.3032  139.9140  154.4269 C   0  0  0  0  0  0  0  0  0  0  0  0
  147.4033  139.6769  153.3827 C   0  0  0  0  0  0  0  0  0  0  0  0
  146.7708  138.7422  152.3532 C   0  0  0  0  0  0  0  0  0  0  0  0
  145.7091  137.9782  153.1542 C   0  0  1  0  0  0  0  0  0  0  0  0
  146.2695  136.7431  153.9076 C   0  0  0  0  0  0  0  0  0  0  0  0
  146.7200  135.6939  152.9979 N   0  0  0  0  0  0  0  0  0  0  0  0
  146.1583  134.4802  152.8700 C   0  0  0  0  0  0  0  0  0  0  0  0
  145.2039  134.1095  153.5547 O   0  0  0  0  0  0  0  0  0  0  0  0
  146.7837  133.5466  151.8189 C   0  0  1  0  0  0  0  0  0  0  0  0
  147.5228  132.3448  152.4420 C   0  0  0  0  0  0  0  0  0  0  0  0
  145.7829  133.1215  150.8473 N   0  0  0  0  0  0  0  0  0  0  0  0
  145.9283  132.4537  149.7008 C   0  0  0  0  0  0  0  0  0  0  0  0
  144.7959  132.2683  149.0378 N   0  0  0  0  0  0  0  0  0  0  0  0
  143.9288  132.8941  149.8879 C   0  0  0  0  0  0  0  0  0  0  0  0
  144.4690  133.4306  150.9819 N   0  0  0  0  0  0  0  0  0  0  0  0
  143.0580  139.3808  156.7550 H   0  0  0  0  0  0  0  0  0  0  0  0
  143.1132  140.3676  155.2982 H   0  0  0  0  0  0  0  0  0  0  0  0
  144.4738  140.3678  156.4211 H   0  0  0  0  0  0  0  0  0  0  0  0
  144.9156  137.9431  155.8785 H   0  0  0  0  0  0  0  0  0  0  0  0
  143.5287  137.9396  154.8046 H   0  0  0  0  0  0  0  0  0  0  0  0
  145.9664  140.9511  154.4294 H   0  0  0  0  0  0  0  0  0  0  0  0
  146.6816  139.6830  155.4239 H   0  0  0  0  0  0  0  0  0  0  0  0
  147.7586  140.6043  152.9323 H   0  0  0  0  0  0  0  0  0  0  0  0
  148.2588  139.1878  153.8507 H   0  0  0  0  0  0  0  0  0  0  0  0
  146.2797  139.3381  151.5825 H   0  0  0  0  0  0  0  0  0  0  0  0
  147.5007  138.1104  151.8486 H   0  0  0  0  0  0  0  0  0  0  0  0
  144.9092  137.6464  152.4908 H   0  0  0  0  0  0  0  0  0  0  0  0
  147.0649  137.0366  154.5947 H   0  0  0  0  0  0  0  0  0  0  0  0
  145.4919  136.2926  154.5241 H   0  0  0  0  0  0  0  0  0  0  0  0
  147.5027  135.9157  152.3996 H   0  0  0  0  0  0  0  0  0  0  0  0
  147.5258  134.1358  151.2778 H   0  0  0  0  0  0  0  0  0  0  0  0
  148.3071  132.6739  153.1246 H   0  0  0  0  0  0  0  0  0  0  0  0
  147.9975  131.7386  151.6700 H   0  0  0  0  0  0  0  0  0  0  0  0
  146.8483  131.6954  153.0019 H   0  0  0  0  0  0  0  0  0  0  0  0
  146.8832  132.0998  149.3409 H   0  0  0  0  0  0  0  0  0  0  0  0
  142.8689  132.9618  149.6915 H   0  0  0  0  0  0  0  0  0  0  0  0
  144.5747  139.5820  153.4776 H   0  0  0  0  0  0  0  0  0  0  0  0
  1  2  1  0  0  0  0
  1 19  1  0  0  0  0
  1 20  1  0  0  0  0
  1 21  1  0  0  0  0
  2  3  1  0  0  0  0
  2 22  1  0  0  0  0
  2 23  1  0  0  0  0
  3  7  1  0  0  0  0
  3  4  1  0  0  0  0
  3 40  1  0  0  0  0
  4  5  1  0  0  0  0
  4 24  1  0  0  0  0
  4 25  1  0  0  0  0
  5  6  1  0  0  0  0
  5 26  1  0  0  0  0
  5 27  1  0  0  0  0
  6  7  1  0  0  0  0
  6 28  1  0  0  0  0
  6 29  1  0  0  0  0
  7  8  1  0  0  0  0
  7 30  1  0  0  0  0
  8  9  1  0  0  0  0
  8 31  1  0  0  0  0
  8 32  1  0  0  0  0
  9 10  1  0  0  0  0
  9 33  1  0  0  0  0
 10 11  2  0  0  0  0
 10 12  1  0  0  0  0
 12 13  1  0  0  0  0
 12 14  1  0  0  0  0
 12 34  1  0  0  0  0
 13 35  1  0  0  0  0
 13 36  1  0  0  0  0
 13 37  1  0  0  0  0
 14 18  1  0  0  0  0
 14 15  1  0  0  0  0
 15 16  2  0  0  0  0
 15 38  1  0  0  0  0
 16 17  1  0  0  0  0
 17 18  2  0  0  0  0
 17 39  1  0  0  0  0
M  CHG  1   3   1
M  END
> <s_m_source_file>
AV-unprocessed.smi

> <i_m_source_file_index>
3232

> <i_lp_mmshare_version>
43012

> <i_f3d_flags>
0

> <s_epik_input>
W0NIM11bQ0gyXU4xW0NIMl1bQ0gyXVtDSDJdW0NASF0xW0NIMl1bTkhdQyg9TylbQ0BIXShbQ0gzXSluMltjSF1uW2NIXW4y

> <s_epik_cmdline>
J2VwaWtfcHl0aG9uJywgJy1waCcsICc3LjAnLCAnLXRuJywgJzgnLCAnLW1hJywgJzIwMCcsICctbWV0YWxfYmluZGluZycsICctaW1hZScsICc8aW5maWxlLm1hZT4nLCAnLW9tYWUnLCAnPG91dGZpbGUubWFlPic=

> <r_lp_tautomer_probability>
1

> <r_epik_Ionization_Penalty>
0.00177695

> <r_epik_Ionization_Penalty_Charging>
0.00176881

> <r_epik_Ionization_Penalty_Neutral>
8.13528e-06

> <r_epik_State_Penalty>
0.00119827

> <r_epik_Charging_Adjusted_Penalty>
0.00296709

> <i_epik_Tot_Q>
1

> <i_epik_Tot_abs_Q>
1

> <r_epik_Metal_State_Penalty>
-0

> <b_epik_Metal_Only>
0

> <s_lp_Force_Field>
OPLS_2005

> <r_lp_Energy>
36.9304

> <b_lp_Chiralities_Consistent>
1

> <s_lp_Variant>
AV-unprocessed.smi:3232-6

> <Gold.Version>
5.8.1

> <Gold.Id.Protein>
6NUR|6NUR_protein|mol2

> <Gold.PLP.Fitness>
40.4103

> <Gold.PLP.PLP>
-25.6463

> <Gold.PLP.part.hbond>
-2.4981

> <Gold.PLP.part.metal>
0.0000

> <Gold.PLP.part.buried>
-2.6279

> <Gold.PLP.part.nonpolar>
-21.5986

> <Gold.PLP.part.repulsive>
0.3906

> <Gold.PLP.ligand.clash>
0.0000

> <Gold.PLP.ligand.torsion>
0.1913

> <Gold.PLP.Chemscore.Hbond>
3.0000

> <Gold.PLP.Chemscore.CHOScore>
2.0000

> <Gold.PLP.Chemscore.Metal>
0.0000

> <Gold.Chemscore.Hbonds>
donor molecule, donor type, donor heavy atom, donor atom, acceptor molecule, acceptor atom, score
      L1  H     3    40       P1 10175  2.00
      L1  H     9    33       P1  7948  1.00
      L1  C    15    38       P1 10747  0.87
      L1  C    17    39       P1 10186  1.00

> <Gold.PLP.Chemscore.Internal.Correction>
0.1465

> <Gold.Rescore>
     Score         DG    S(hbond)    S(metal)    S(lipo)     H(rot)  DE(clash)    DE(int)     intcor
     10.25     -11.68       2.49        0.00      36.36       2.49       0.03       1.40       ----

> <Gold.Chemscore.Fitness>
10.2488

> <Gold.Chemscore.DG>
-11.6771

> <Gold.Chemscore.ZeroCoef>
-5.4800

> <Gold.Chemscore.Hbond>
2.4890

> <Gold.Chemscore.Metal>
0.0000

> <Gold.Chemscore.Lipo>
36.3552

> <Gold.Chemscore.Internal_Hbond>
0.0000

> <Gold.Chemscore.DEClash>
0.0294

> <Gold.Chemscore.DEInternal>
1.3989

> <Gold.Chemscore.Rot>
2.4882

> <Gold.Chemscore.Internal.Correction>
   9.000000E+99

> <Gold.Chemscore.Hbonds>
donor molecule, donor type, donor heavy atom, donor atom, acceptor molecule, acceptor atom, score
      L1  H     3    40       P1 10175  0.99
      L1  H     9    33       P1  7948  0.97

> <Gold.Chemscore.Hbond.Weighted>
-8.3133

> <Gold.Chemscore.Metal.Weighted>
-0.0000

> <Gold.Chemscore.Lipo.Weighted>
-4.2536

> <Gold.Chemscore.Internal_Hbond.Weighted>
0.0000

> <Gold.Chemscore.DEClash.Weighted>
0.0294

> <Gold.Chemscore.DEInternal.Weighted>
1.3989

> <Gold.Chemscore.Rot.Weighted>
6.3697

> <Gold.Chemscore.Internal.Correction.Weighted>
   9.000000E+99

> <Gold.Protein.RotatedTorsions>
[ 6907 6896 6895 6894 ] final   60.22 input  -60.11 | X-H torsion
[ 7974 7965 7964 7962 ] final  -62.74 input  175.53 | X-H torsion
[ 8008 7997 7996 7995 ] final -159.52 input   59.86 | X-H torsion
[ 10167 10162 10161 10158 ] final   76.91 input  -65.29 | X-H torsion
[ 10718 10713 10712 10709 ] final    3.18 input   66.30 | X-H torsion
[ 10763 10752 10751 10750 ] final  -12.78 input  -60.55 | X-H torsion
[ 11005 11000 10999 10996 ] final -108.65 input  -57.11 | X-H torsion

> <Gold.Protein.ActiveResidues>
 VAL166  LYS551  ARG553  GLY616  TRP617  ASP618  TYR619  PRO620  LYS621  CYS622 
 ASP623  PHE694  ASN695  SER759  ASP760  ASP761  ALA762  ILE779  LEU786  VAL792 
 PHE793  MET794  SER795  GLU796  ALA797  LYS798  CYS799  TRP800  GLU811  SER814 

> <Gold.Protein.RotatedAtoms>
  152.3984  134.6327  160.0079 H   0  0  0  0  0  0  0  0  0  0  0  0  # atno 6907 bound_to 6896
  151.6540  133.3314  159.3166 H   0  0  0  0  0  0  0  0  0  0  0  0  # atno 6908 bound_to 6896
  150.7888  134.6938  159.6556 H   0  0  0  0  0  0  0  0  0  0  0  0  # atno 6909 bound_to 6896
  145.7876  140.8728  143.0298 H   0  0  0  0  0  0  0  0  0  0  0  0  # atno 7974 bound_to 7965
  155.7638  140.0842  157.2142 H   0  0  0  0  0  0  0  0  0  0  0  0  # atno 8008 bound_to 7997
  154.4001  140.1538  156.2919 H   0  0  0  0  0  0  0  0  0  0  0  0  # atno 8009 bound_to 7997
  155.8814  140.3420  155.5893 H   0  0  0  0  0  0  0  0  0  0  0  0  # atno 8010 bound_to 7997
  139.9872  144.5783  150.7849 H   0  0  0  0  0  0  0  0  0  0  0  0  # atno 10167 bound_to 10162
  156.8739  130.5630  149.5656 H   0  0  0  0  0  0  0  0  0  0  0  0  # atno 10718 bound_to 10713
  153.5036  135.7017  153.5819 H   0  0  0  0  0  0  0  0  0  0  0  0  # atno 10763 bound_to 10752
  153.3939  135.3889  155.1942 H   0  0  0  0  0  0  0  0  0  0  0  0  # atno 10764 bound_to 10752
  154.8709  135.3865  154.4509 H   0  0  0  0  0  0  0  0  0  0  0  0  # atno 10765 bound_to 10752
  141.0890  133.9088  157.2119 H   0  0  0  0  0  0  0  0  0  0  0  0  # atno 11005 bound_to 11000
  144.6786  140.0077  143.7484 LP  0  0  0  0  0  0  0  0  0  0  0  0  # atno 17320 bound_to 7965
  146.0010  139.3091  143.0927 LP  0  0  0  0  0  0  0  0  0  0  0  0  # atno 17321 bound_to 7965
  140.7468  143.2896  151.3367 LP  0  0  0  0  0  0  0  0  0  0  0  0  # atno 17342 bound_to 10162
  139.6366  144.0618  152.2521 LP  0  0  0  0  0  0  0  0  0  0  0  0  # atno 17343 bound_to 10162
  156.0712  130.5744  150.9386 LP  0  0  0  0  0  0  0  0  0  0  0  0  # atno 17370 bound_to 10713
  157.6179  131.0932  150.8676 LP  0  0  0  0  0  0  0  0  0  0  0  0  # atno 17371 bound_to 10713
  139.9713  135.0127  156.9519 LP  0  0  0  0  0  0  0  0  0  0  0  0  # atno 17394 bound_to 11000
  140.5296  134.0827  155.7312 LP  0  0  0  0  0  0  0  0  0  0  0  0  # atno 17395 bound_to 11000

$$$$
