AV-unprocessed.smi:2226|AV-procd|sdf|9011|dock3
  -GOLD-   2272012213D 1   1.00000     0.00000
 Structure written by MMmdl.
 40 42  0  0  0  0  0  0  0  0  2 V2000
  147.2236  142.2121  157.8530 C   0  0  0  0  0  0  0  0  0  0  0  0
  147.3385  142.1565  156.3762 N   0  3  1  0  0  0  0  0  0  0  0  0
  147.9972  140.9382  155.8479 C   0  0  2  0  0  0  0  0  0  0  0  0
  148.4278  141.1891  154.3838 C   0  0  0  0  0  0  0  0  0  0  0  0
  147.2929  141.6997  153.4748 C   0  0  0  0  0  0  0  0  0  0  0  0
  146.4054  142.7484  154.1714 C   0  0  0  0  0  0  0  0  0  0  0  0
  146.0753  142.4100  155.6434 C   0  0  1  0  0  0  0  0  0  0  0  0
  145.0610  141.2557  155.8423 C   0  0  0  0  0  0  0  0  0  0  0  0
  145.6278  139.8180  155.6925 C   0  0  1  0  0  0  0  0  0  0  0  0
  145.3540  139.2311  154.3829 N   0  0  0  0  0  0  0  0  0  0  0  0
  145.6504  137.9819  153.9931 C   0  0  0  0  0  0  0  0  0  0  0  0
  146.2104  137.1836  154.7510 O   0  0  0  0  0  0  0  0  0  0  0  0
  145.2189  137.7807  152.6907 N   0  0  0  0  0  0  0  0  0  0  0  0
  145.5321  136.6833  152.0744 C   0  0  0  0  0  0  0  0  0  0  0  0
  145.1981  136.3156  150.7807 N   0  0  0  0  0  0  0  0  0  0  0  0
  145.7274  135.0777  150.5402 C   0  0  0  0  0  0  0  0  0  0  0  0
  146.3679  134.6813  151.6362 C   0  0  0  0  0  0  0  0  0  0  0  0
  146.2659  135.6426  152.5957 O   0  0  0  0  0  0  0  0  0  0  0  0
  147.1228  139.6791  156.0715 C   0  0  0  0  0  0  0  0  0  0  0  0
  146.5704  141.4336  158.2466 H   0  0  0  0  0  0  0  0  0  0  0  0
  146.8247  143.1772  158.1666 H   0  0  0  0  0  0  0  0  0  0  0  0
  148.2042  142.0951  158.3149 H   0  0  0  0  0  0  0  0  0  0  0  0
  148.9190  140.7909  156.4126 H   0  0  0  0  0  0  0  0  0  0  0  0
  149.2203  141.9387  154.3876 H   0  0  0  0  0  0  0  0  0  0  0  0
  148.8727  140.2896  153.9573 H   0  0  0  0  0  0  0  0  0  0  0  0
  147.7201  142.1300  152.5684 H   0  0  0  0  0  0  0  0  0  0  0  0
  146.6886  140.8716  153.1206 H   0  0  0  0  0  0  0  0  0  0  0  0
  146.9318  143.7036  154.1524 H   0  0  0  0  0  0  0  0  0  0  0  0
  145.4895  142.9029  153.6000 H   0  0  0  0  0  0  0  0  0  0  0  0
  145.6235  143.3089  156.0657 H   0  0  0  0  0  0  0  0  0  0  0  0
  144.6639  141.3416  156.8543 H   0  0  0  0  0  0  0  0  0  0  0  0
  144.1941  141.4066  155.1981 H   0  0  0  0  0  0  0  0  0  0  0  0
  145.0834  139.1885  156.3993 H   0  0  0  0  0  0  0  0  0  0  0  0
  144.8955  139.8273  153.7091 H   0  0  0  0  0  0  0  0  0  0  0  0
  144.6603  136.8344  150.1014 H   0  0  0  0  0  0  0  0  0  0  0  0
  145.5855  134.5997  149.5821 H   0  0  0  0  0  0  0  0  0  0  0  0
  146.9200  133.7858  151.8804 H   0  0  0  0  0  0  0  0  0  0  0  0
  147.5690  138.8173  155.5732 H   0  0  0  0  0  0  0  0  0  0  0  0
  147.1687  139.4335  157.1331 H   0  0  0  0  0  0  0  0  0  0  0  0
  147.9509  142.9231  156.1364 H   0  0  0  0  0  0  0  0  0  0  0  0
  1  2  1  0  0  0  0
  1 20  1  0  0  0  0
  1 21  1  0  0  0  0
  1 22  1  0  0  0  0
  2  7  1  0  0  0  0
  2  3  1  0  0  0  0
  2 40  1  0  0  0  0
  3 19  1  0  0  0  0
  3  4  1  0  0  0  0
  3 23  1  0  0  0  0
  4  5  1  0  0  0  0
  4 24  1  0  0  0  0
  4 25  1  0  0  0  0
  5  6  1  0  0  0  0
  5 26  1  0  0  0  0
  5 27  1  0  0  0  0
  6  7  1  0  0  0  0
  6 28  1  0  0  0  0
  6 29  1  0  0  0  0
  7  8  1  0  0  0  0
  7 30  1  0  0  0  0
  8  9  1  0  0  0  0
  8 31  1  0  0  0  0
  8 32  1  0  0  0  0
  9 10  1  0  0  0  0
  9 19  1  0  0  0  0
  9 33  1  0  0  0  0
 10 34  1  0  0  0  0
 10 11  1  0  0  0  0
 11 13  1  0  0  0  0
 11 12  2  0  0  0  0
 13 14  2  0  0  0  0
 14 18  1  0  0  0  0
 14 15  1  0  0  0  0
 15 35  1  0  0  0  0
 15 16  1  0  0  0  0
 16 36  1  0  0  0  0
 16 17  2  0  0  0  0
 17 37  1  0  0  0  0
 17 18  1  0  0  0  0
 19 38  1  0  0  0  0
 19 39  1  0  0  0  0
M  CHG  1   2   1
M  END
> <s_m_source_file>
AV-unprocessed.smi

> <i_m_source_file_index>
2226

> <i_lp_mmshare_version>
43012

> <i_f3d_flags>
0

> <s_epik_input>
W0NIMl0xW0NIMl1bQ0gyXVtDQEhdKE4oW0NIM10pW0NIXTEyKVtDSDJdW0NASF0oW0NIMl0yKVtOSF1DKD1PKVtOSF1jM25bY0hdW2NIXW8z

> <s_epik_cmdline>
J2VwaWtfcHl0aG9uJywgJy1waCcsICc3LjAnLCAnLXRuJywgJzgnLCAnLW1hJywgJzIwMCcsICctbWV0YWxfYmluZGluZycsICctaW1hZScsICc8aW5maWxlLm1hZT4nLCAnLW9tYWUnLCAnPG91dGZpbGUubWFlPic=

> <r_lp_tautomer_probability>
0.107061

> <r_epik_Ionization_Penalty>
1.08307

> <r_epik_Ionization_Penalty_Charging>
1.08272

> <r_epik_Ionization_Penalty_Neutral>
0.000345913

> <r_epik_State_Penalty>
2.5744

> <r_epik_Charging_Adjusted_Penalty>
3.65713

> <i_epik_Tot_Q>
1

> <i_epik_Tot_abs_Q>
1

> <r_epik_Metal_State_Penalty>
3.72133

> <b_epik_Metal_Only>
0

> <s_lp_Force_Field>
OPLS_2005

> <r_lp_Energy>
58.9845

> <b_lp_Chiralities_Consistent>
1

> <s_lp_Variant>
AV-unprocessed.smi:2226-11

> <Gold.Version>
5.8.1

> <Gold.Id.Protein>
6NUR|6NUR_protein|mol2

> <Gold.PLP.Fitness>
38.2110

> <Gold.PLP.PLP>
-23.6953

> <Gold.PLP.part.hbond>
-3.0000

> <Gold.PLP.part.metal>
0.0000

> <Gold.PLP.part.buried>
-5.6726

> <Gold.PLP.part.nonpolar>
-16.6667

> <Gold.PLP.part.repulsive>
1.3324

> <Gold.PLP.ligand.clash>
0.0000

> <Gold.PLP.ligand.torsion>
0.0406

> <Gold.PLP.Chemscore.Hbond>
3.8480

> <Gold.PLP.Chemscore.CHOScore>
1.0000

> <Gold.PLP.Chemscore.Metal>
0.0000

> <Gold.Chemscore.Hbonds>
donor molecule, donor type, donor heavy atom, donor atom, acceptor molecule, acceptor atom, score
      L1  H     2    40       P1  8028  1.85
      L1  H    10    34       P1 10175  1.00
      L1  H    15    35       P1 10171  0.85
      L1  C    16    36       P1  7921  1.00

> <Gold.PLP.Chemscore.Internal.Correction>
0.0529

> <Gold.Rescore>
     Score         DG    S(hbond)    S(metal)    S(lipo)     H(rot)  DE(clash)    DE(int)     intcor
     13.23     -16.25       2.48        0.00      43.07       1.00       0.48       2.55       ----

> <Gold.Chemscore.Fitness>
13.2289

> <Gold.Chemscore.DG>
-16.2536

> <Gold.Chemscore.ZeroCoef>
-5.4800

> <Gold.Chemscore.Hbond>
2.4832

> <Gold.Chemscore.Metal>
0.0000

> <Gold.Chemscore.Lipo>
43.0741

> <Gold.Chemscore.Internal_Hbond>
0.0000

> <Gold.Chemscore.DEClash>
0.4774

> <Gold.Chemscore.DEInternal>
2.5474

> <Gold.Chemscore.Rot>
1.0000

> <Gold.Chemscore.Internal.Correction>
   9.000000E+99

> <Gold.Chemscore.Hbonds>
donor molecule, donor type, donor heavy atom, donor atom, acceptor molecule, acceptor atom, score
      L1  H     2    40       P1  8028  0.44
      L1  H    10    34       P1 10175  1.00
      L1  H    15    35       P1 10171  0.84

> <Gold.Chemscore.Hbond.Weighted>
-8.2940

> <Gold.Chemscore.Metal.Weighted>
-0.0000

> <Gold.Chemscore.Lipo.Weighted>
-5.0397

> <Gold.Chemscore.Internal_Hbond.Weighted>
0.0000

> <Gold.Chemscore.DEClash.Weighted>
0.4774

> <Gold.Chemscore.DEInternal.Weighted>
2.5474

> <Gold.Chemscore.Rot.Weighted>
2.5600

> <Gold.Chemscore.Internal.Correction.Weighted>
   9.000000E+99

> <Gold.Protein.RotatedTorsions>
[ 6907 6896 6895 6894 ] final  145.22 input  -60.11 | X-H torsion
[ 7974 7965 7964 7962 ] final  117.84 input  175.53 | X-H torsion
[ 8008 7997 7996 7995 ] final   27.60 input   59.86 | X-H torsion
[ 10167 10162 10161 10158 ] final -134.48 input  -65.29 | X-H torsion
[ 10718 10713 10712 10709 ] final -179.46 input   66.30 | X-H torsion
[ 10763 10752 10751 10750 ] final  118.44 input  -60.55 | X-H torsion
[ 11005 11000 10999 10996 ] final  -57.02 input  -57.11 | X-H torsion

> <Gold.Protein.ActiveResidues>
 VAL166  LYS551  ARG553  GLY616  TRP617  ASP618  TYR619  PRO620  LYS621  CYS622 
 ASP623  PHE694  ASN695  SER759  ASP760  ASP761  ALA762  ILE779  LEU786  VAL792 
 PHE793  MET794  SER795  GLU796  ALA797  LYS798  CYS799  TRP800  GLU811  SER814 

> <Gold.Protein.RotatedAtoms>
  152.1837  133.4725  159.4971 H   0  0  0  0  0  0  0  0  0  0  0  0  # atno 6907 bound_to 6896
  150.6939  134.1801  159.4254 H   0  0  0  0  0  0  0  0  0  0  0  0  # atno 6908 bound_to 6896
  151.9713  135.0075  160.0603 H   0  0  0  0  0  0  0  0  0  0  0  0  # atno 6909 bound_to 6896
  145.1625  139.3147  143.4510 H   0  0  0  0  0  0  0  0  0  0  0  0  # atno 7974 bound_to 7965
  155.0455  140.3174  155.4710 H   0  0  0  0  0  0  0  0  0  0  0  0  # atno 8008 bound_to 7997
  156.2845  140.2155  156.5523 H   0  0  0  0  0  0  0  0  0  0  0  0  # atno 8009 bound_to 7997
  154.7254  140.0486  157.0665 H   0  0  0  0  0  0  0  0  0  0  0  0  # atno 8010 bound_to 7997
  139.8876  143.6761  152.2617 H   0  0  0  0  0  0  0  0  0  0  0  0  # atno 10167 bound_to 10162
  156.8595  130.9747  151.3085 H   0  0  0  0  0  0  0  0  0  0  0  0  # atno 10718 bound_to 10713
  153.5676  135.3508  155.2825 H   0  0  0  0  0  0  0  0  0  0  0  0  # atno 10763 bound_to 10752
  154.8686  135.4151  154.2761 H   0  0  0  0  0  0  0  0  0  0  0  0  # atno 10764 bound_to 10752
  153.3520  135.7055  153.6851 H   0  0  0  0  0  0  0  0  0  0  0  0  # atno 10765 bound_to 10752
  141.1146  133.6610  156.4707 H   0  0  0  0  0  0  0  0  0  0  0  0  # atno 11005 bound_to 11000
  146.3480  140.1740  142.8589 LP  0  0  0  0  0  0  0  0  0  0  0  0  # atno 17320 bound_to 7965
  145.0316  140.8875  143.5106 LP  0  0  0  0  0  0  0  0  0  0  0  0  # atno 17321 bound_to 7965
  139.7138  144.7615  151.1067 LP  0  0  0  0  0  0  0  0  0  0  0  0  # atno 17342 bound_to 10162
  140.7733  143.5295  150.9440 LP  0  0  0  0  0  0  0  0  0  0  0  0  # atno 17343 bound_to 10162
  157.6258  130.8690  149.9187 LP  0  0  0  0  0  0  0  0  0  0  0  0  # atno 17370 bound_to 10713
  156.0784  130.3676  150.0630 LP  0  0  0  0  0  0  0  0  0  0  0  0  # atno 17371 bound_to 10713
  140.4681  134.6779  157.5116 LP  0  0  0  0  0  0  0  0  0  0  0  0  # atno 17394 bound_to 11000
  140.0060  134.6763  155.9454 LP  0  0  0  0  0  0  0  0  0  0  0  0  # atno 17395 bound_to 11000

$$$$
