AV-unprocessed.smi:2562|AV-procd|sdf|10044|dock8
  -GOLD-   2272014 93D 1   1.00000     0.00000
 Structure written by MMmdl.
 31 32  0  0  0  0  0  0  0  0  2 V2000
  152.1624  144.6965  159.6042 C   0  0  0  0  0  0  0  0  0  0  0  0
  153.1310  143.5271  159.3965 C   0  0  0  0  0  0  0  0  0  0  0  0
  152.4068  142.1848  159.2169 C   0  0  0  0  0  0  0  0  0  0  0  0
  151.5331  142.1749  158.0061 C   0  0  0  0  0  0  0  0  0  0  0  0
  150.6909  143.1757  157.7536 N   0  0  0  0  0  0  0  0  0  0  0  0
  150.0803  142.7515  156.6275 N   0  0  0  0  0  0  0  0  0  0  0  0
  150.5640  141.5551  156.2856 C   0  0  0  0  0  0  0  0  0  0  0  0
  150.0633  140.8034  155.0931 C   0  0  2  0  0  0  0  0  0  0  0  0
  148.8612  141.4988  154.4249 C   0  0  0  0  0  0  0  0  0  0  0  0
  148.3444  140.6655  153.3219 N   0  3  0  0  0  0  0  0  0  0  0  0
  148.0171  139.3020  153.7837 C   0  0  0  0  0  0  0  0  0  0  0  0
  149.2371  138.6713  154.4778 C   0  0  0  0  0  0  0  0  0  0  0  0
  149.6705  139.5091  155.5443 O   0  0  0  0  0  0  0  0  0  0  0  0
  151.4929  141.1234  157.1336 N   0  0  0  0  0  0  0  0  0  0  0  0
  149.3661  143.2865  156.1541 H   0  0  0  0  0  0  0  0  0  0  0  0
  152.7057  145.6358  159.7094 H   0  0  0  0  0  0  0  0  0  0  0  0
  151.5632  144.5559  160.5044 H   0  0  0  0  0  0  0  0  0  0  0  0
  151.4811  144.7993  158.7594 H   0  0  0  0  0  0  0  0  0  0  0  0
  153.7516  143.7263  158.5220 H   0  0  0  0  0  0  0  0  0  0  0  0
  153.8086  143.4671  160.2490 H   0  0  0  0  0  0  0  0  0  0  0  0
  153.1335  141.3749  159.1402 H   0  0  0  0  0  0  0  0  0  0  0  0
  151.7961  141.9696  160.0946 H   0  0  0  0  0  0  0  0  0  0  0  0
  150.8831  140.7012  154.3791 H   0  0  0  0  0  0  0  0  0  0  0  0
  148.0626  141.6616  155.1505 H   0  0  0  0  0  0  0  0  0  0  0  0
  149.1474  142.4766  154.0366 H   0  0  0  0  0  0  0  0  0  0  0  0
  147.5174  141.0967  152.9335 H   0  0  0  0  0  0  0  0  0  0  0  0
  147.1739  139.3501  154.4741 H   0  0  0  0  0  0  0  0  0  0  0  0
  147.7031  138.6971  152.9329 H   0  0  0  0  0  0  0  0  0  0  0  0
  148.9766  137.6923  154.8804 H   0  0  0  0  0  0  0  0  0  0  0  0
  150.0519  138.5176  153.7684 H   0  0  0  0  0  0  0  0  0  0  0  0
  149.0513  140.6028  152.6031 H   0  0  0  0  0  0  0  0  0  0  0  0
  1  2  1  0  0  0  0
  1 16  1  0  0  0  0
  1 17  1  0  0  0  0
  1 18  1  0  0  0  0
  2  3  1  0  0  0  0
  2 19  1  0  0  0  0
  2 20  1  0  0  0  0
  3  4  1  0  0  0  0
  3 21  1  0  0  0  0
  3 22  1  0  0  0  0
  4 14  1  0  0  0  0
  4  5  2  0  0  0  0
  5  6  1  0  0  0  0
  6 15  1  0  0  0  0
  6  7  1  0  0  0  0
  7  8  1  0  0  0  0
  7 14  2  0  0  0  0
  8 13  1  0  0  0  0
  8  9  1  0  0  0  0
  8 23  1  0  0  0  0
  9 10  1  0  0  0  0
  9 24  1  0  0  0  0
  9 25  1  0  0  0  0
 10 11  1  0  0  0  0
 10 26  1  0  0  0  0
 10 31  1  0  0  0  0
 11 12  1  0  0  0  0
 11 27  1  0  0  0  0
 11 28  1  0  0  0  0
 12 13  1  0  0  0  0
 12 29  1  0  0  0  0
 12 30  1  0  0  0  0
M  CHG  1  10   1
M  END
> <s_m_source_file>
AV-unprocessed.smi

> <i_m_source_file_index>
2562

> <i_lp_mmshare_version>
43012

> <i_f3d_flags>
0

> <s_epik_input>
W0NIM11bQ0gyXVtDSDJdYzFuW25IXWMobjEpW0NAQEhdMltDSDJdW05IXVtDSDJdW0NIMl1PMg==

> <s_epik_cmdline>
J2VwaWtfcHl0aG9uJywgJy1waCcsICc3LjAnLCAnLXRuJywgJzgnLCAnLW1hJywgJzIwMCcsICctbWV0YWxfYmluZGluZycsICctaW1hZScsICc8aW5maWxlLm1hZT4nLCAnLW9tYWUnLCAnPG91dGZpbGUubWFlPic=

> <r_epik_Ionization_Penalty>
0.162344

> <r_epik_Ionization_Penalty_Charging>
0.125708

> <r_epik_Ionization_Penalty_Neutral>
0.0366364

> <r_epik_State_Penalty>
0.771409

> <r_epik_Charging_Adjusted_Penalty>
0.897117

> <i_epik_Tot_Q>
1

> <i_epik_Tot_abs_Q>
1

> <r_epik_Metal_State_Penalty>
0.893868

> <b_epik_Metal_Only>
0

> <s_lp_Force_Field>
OPLS_2005

> <r_lp_Energy>
9.76643

> <b_lp_Chiralities_Consistent>
1

> <s_lp_Variant>
AV-unprocessed.smi:2562-3

> <Gold.Version>
5.8.1

> <Gold.Id.Protein>
6NUR|6NUR_protein|mol2

> <Gold.PLP.Fitness>
33.9548

> <Gold.PLP.PLP>
-28.6356

> <Gold.PLP.part.hbond>
-1.9324

> <Gold.PLP.part.metal>
0.0000

> <Gold.PLP.part.buried>
-2.3695

> <Gold.PLP.part.nonpolar>
-23.8942

> <Gold.PLP.part.repulsive>
0.3965

> <Gold.PLP.ligand.clash>
0.0000

> <Gold.PLP.ligand.torsion>
0.2609

> <Gold.PLP.Chemscore.Hbond>
1.9440

> <Gold.PLP.Chemscore.CHOScore>
0.0000

> <Gold.PLP.Chemscore.Metal>
0.0000

> <Gold.Chemscore.Hbonds>
donor molecule, donor type, donor heavy atom, donor atom, acceptor molecule, acceptor atom, score
      L1  H     6    15       P1  8028  0.93
      L1  H    10    31       P1  7957  1.00

> <Gold.PLP.Chemscore.Internal.Correction>
0.0090

> <Gold.Rescore>
     Score         DG    S(hbond)    S(metal)    S(lipo)     H(rot)  DE(clash)    DE(int)     intcor
     13.74     -15.35       1.92        0.00      62.76       1.51       0.12       1.49       ----

> <Gold.Chemscore.Fitness>
13.7389

> <Gold.Chemscore.DG>
-15.3541

> <Gold.Chemscore.ZeroCoef>
-5.4800

> <Gold.Chemscore.Hbond>
1.9164

> <Gold.Chemscore.Metal>
0.0000

> <Gold.Chemscore.Lipo>
62.7580

> <Gold.Chemscore.Internal_Hbond>
0.0000

> <Gold.Chemscore.DEClash>
0.1232

> <Gold.Chemscore.DEInternal>
1.4920

> <Gold.Chemscore.Rot>
1.5115

> <Gold.Chemscore.Internal.Correction>
   9.000000E+99

> <Gold.Chemscore.Hbonds>
donor molecule, donor type, donor heavy atom, donor atom, acceptor molecule, acceptor atom, score
      L1  H     6    15       P1  8028  0.89
      L1  H    10    31       P1  7957  0.96

> <Gold.Chemscore.Hbond.Weighted>
-6.4009

> <Gold.Chemscore.Metal.Weighted>
-0.0000

> <Gold.Chemscore.Lipo.Weighted>
-7.3427

> <Gold.Chemscore.Internal_Hbond.Weighted>
0.0000

> <Gold.Chemscore.DEClash.Weighted>
0.1232

> <Gold.Chemscore.DEInternal.Weighted>
1.4920

> <Gold.Chemscore.Rot.Weighted>
3.8695

> <Gold.Chemscore.Internal.Correction.Weighted>
   9.000000E+99

> <Gold.Protein.RotatedTorsions>
[ 6907 6896 6895 6894 ] final  124.81 input  -60.11 | X-H torsion
[ 7974 7965 7964 7962 ] final  149.20 input  175.53 | X-H torsion
[ 8008 7997 7996 7995 ] final   26.13 input   59.86 | X-H torsion
[ 10167 10162 10161 10158 ] final -115.37 input  -65.29 | X-H torsion
[ 10718 10713 10712 10709 ] final  152.67 input   66.30 | X-H torsion
[ 10763 10752 10751 10750 ] final  148.32 input  -60.55 | X-H torsion
[ 11005 11000 10999 10996 ] final   55.84 input  -57.11 | X-H torsion

> <Gold.Protein.ActiveResidues>
 VAL166  LYS551  ARG553  GLY616  TRP617  ASP618  TYR619  PRO620  LYS621  CYS622 
 ASP623  PHE694  ASN695  SER759  ASP760  ASP761  ALA762  ILE779  LEU786  VAL792 
 PHE793  MET794  SER795  GLU796  ALA797  LYS798  CYS799  TRP800  GLU811  SER814 

> <Gold.Protein.RotatedAtoms>
  152.4046  133.6869  159.6344 H   0  0  0  0  0  0  0  0  0  0  0  0  # atno 6907 bound_to 6896
  150.7932  133.8732  159.3273 H   0  0  0  0  0  0  0  0  0  0  0  0  # atno 6908 bound_to 6896
  151.6489  135.1005  160.0208 H   0  0  0  0  0  0  0  0  0  0  0  0  # atno 6909 bound_to 6896
  144.8456  139.6250  143.5997 H   0  0  0  0  0  0  0  0  0  0  0  0  # atno 7974 bound_to 7965
  155.0224  140.3149  155.4788 H   0  0  0  0  0  0  0  0  0  0  0  0  # atno 8008 bound_to 7997
  156.2889  140.2195  156.5285 H   0  0  0  0  0  0  0  0  0  0  0  0  # atno 8009 bound_to 7997
  154.7440  140.0471  157.0824 H   0  0  0  0  0  0  0  0  0  0  0  0  # atno 8010 bound_to 7997
  140.0908  143.4701  152.1871 H   0  0  0  0  0  0  0  0  0  0  0  0  # atno 10167 bound_to 10162
  157.2548  131.0786  151.1706 H   0  0  0  0  0  0  0  0  0  0  0  0  # atno 10718 bound_to 10713
  154.0529  135.2880  155.3337 H   0  0  0  0  0  0  0  0  0  0  0  0  # atno 10763 bound_to 10752
  154.6858  135.5246  153.8327 H   0  0  0  0  0  0  0  0  0  0  0  0  # atno 10764 bound_to 10752
  153.0553  135.6593  154.0724 H   0  0  0  0  0  0  0  0  0  0  0  0  # atno 10765 bound_to 10752
  140.0575  134.5649  155.9190 H   0  0  0  0  0  0  0  0  0  0  0  0  # atno 11005 bound_to 11000
  146.2741  139.6709  142.9275 LP  0  0  0  0  0  0  0  0  0  0  0  0  # atno 17320 bound_to 7965
  145.4604  141.0432  143.2755 LP  0  0  0  0  0  0  0  0  0  0  0  0  # atno 17321 bound_to 7965
  139.5726  144.7470  151.3851 LP  0  0  0  0  0  0  0  0  0  0  0  0  # atno 17342 bound_to 10162
  140.7029  143.7586  150.7433 LP  0  0  0  0  0  0  0  0  0  0  0  0  # atno 17343 bound_to 10162
  157.3239  130.6951  149.6285 LP  0  0  0  0  0  0  0  0  0  0  0  0  # atno 17370 bound_to 10713
  155.9665  130.4327  150.4975 LP  0  0  0  0  0  0  0  0  0  0  0  0  # atno 17371 bound_to 10713
  141.1958  133.6589  156.5663 LP  0  0  0  0  0  0  0  0  0  0  0  0  # atno 17394 bound_to 11000
  140.3821  134.7514  157.4668 LP  0  0  0  0  0  0  0  0  0  0  0  0  # atno 17395 bound_to 11000

$$$$
