AV-unprocessed.smi:1728|AV-procd|sdf|6968|dock4
  -GOLD-   22720 8183D 1   1.00000     0.00000
 Structure written by MMmdl.
 47 48  0  0  0  0  0  0  0  0  2 V2000
  151.0224  145.5630  159.7844 C   0  0  0  0  0  0  0  0  0  0  0  0
  151.0111  144.5435  158.7911 O   0  0  0  0  0  0  0  0  0  0  0  0
  151.7403  143.3918  159.0191 C   0  0  0  0  0  0  0  0  0  0  0  0
  152.6341  143.3866  160.0396 N   0  0  0  0  0  0  0  0  0  0  0  0
  153.3430  142.2621  160.2672 C   0  0  0  0  0  0  0  0  0  0  0  0
  153.1964  141.0912  159.5017 C   0  0  0  0  0  0  0  0  0  0  0  0
  152.2698  141.0936  158.4427 C   0  0  0  0  0  0  0  0  0  0  0  0
  151.5272  142.2714  158.1818 C   0  0  0  0  0  0  0  0  0  0  0  0
  150.5532  142.3865  157.1509 N   0  0  0  0  0  0  0  0  0  0  0  0
  150.2387  141.5126  156.1802 C   0  0  0  0  0  0  0  0  0  0  0  0
  150.7644  140.4133  156.0079 O   0  0  0  0  0  0  0  0  0  0  0  0
  149.2750  142.0025  155.3874 N   0  0  0  0  0  0  0  0  0  0  0  0
  148.6897  141.3186  154.2350 C   0  0  0  0  0  0  0  0  0  0  0  0
  147.1361  141.4309  154.1656 C   0  0  0  0  0  0  0  0  0  0  0  0
  146.5492  141.4443  155.5991 C   0  0  0  0  0  0  0  0  0  0  0  0
  146.7162  142.7754  153.5196 C   0  0  0  0  0  0  0  0  0  0  0  0
  146.5393  140.2895  153.3819 N   0  3  0  0  0  0  0  0  0  0  0  0
  147.1547  140.0250  152.0502 C   0  0  0  0  0  0  0  0  0  0  0  0
  146.3449  138.9694  151.2794 C   0  0  0  0  0  0  0  0  0  0  0  0
  146.2678  137.7738  152.0421 O   0  0  0  0  0  0  0  0  0  0  0  0
  145.6015  137.9841  153.2786 C   0  0  0  0  0  0  0  0  0  0  0  0
  146.3829  139.0050  154.1222 C   0  0  0  0  0  0  0  0  0  0  0  0
  150.4017  146.3956  159.4534 H   0  0  0  0  0  0  0  0  0  0  0  0
  152.0295  145.9476  159.9510 H   0  0  0  0  0  0  0  0  0  0  0  0
  150.6154  145.2026  160.7304 H   0  0  0  0  0  0  0  0  0  0  0  0
  154.0430  142.2957  161.0888 H   0  0  0  0  0  0  0  0  0  0  0  0
  153.7777  140.2090  159.7250 H   0  0  0  0  0  0  0  0  0  0  0  0
  152.1416  140.1903  157.8676 H   0  0  0  0  0  0  0  0  0  0  0  0
  150.0749  143.2749  157.1164 H   0  0  0  0  0  0  0  0  0  0  0  0
  148.9083  142.9181  155.6040 H   0  0  0  0  0  0  0  0  0  0  0  0
  149.1519  141.6865  153.3187 H   0  0  0  0  0  0  0  0  0  0  0  0
  148.9918  140.2755  154.3205 H   0  0  0  0  0  0  0  0  0  0  0  0
  146.7993  142.3639  156.1293 H   0  0  0  0  0  0  0  0  0  0  0  0
  146.9324  140.6292  156.2123 H   0  0  0  0  0  0  0  0  0  0  0  0
  145.4612  141.3711  155.5834 H   0  0  0  0  0  0  0  0  0  0  0  0
  146.9428  143.6239  154.1664 H   0  0  0  0  0  0  0  0  0  0  0  0
  145.6439  142.8054  153.3225 H   0  0  0  0  0  0  0  0  0  0  0  0
  147.2365  142.9650  152.5811 H   0  0  0  0  0  0  0  0  0  0  0  0
  147.1912  140.9241  151.4383 H   0  0  0  0  0  0  0  0  0  0  0  0
  148.1797  139.6737  152.1691 H   0  0  0  0  0  0  0  0  0  0  0  0
  145.3433  139.3370  151.0502 H   0  0  0  0  0  0  0  0  0  0  0  0
  146.8281  138.7483  150.3275 H   0  0  0  0  0  0  0  0  0  0  0  0
  144.5790  138.3229  153.1044 H   0  0  0  0  0  0  0  0  0  0  0  0
  145.5350  137.0332  153.8077 H   0  0  0  0  0  0  0  0  0  0  0  0
  147.3600  138.5899  154.3704 H   0  0  0  0  0  0  0  0  0  0  0  0
  145.8437  139.1437  155.0572 H   0  0  0  0  0  0  0  0  0  0  0  0
  145.5967  140.5899  153.1778 H   0  0  0  0  0  0  0  0  0  0  0  0
  1  2  1  0  0  0  0
  1 23  1  0  0  0  0
  1 24  1  0  0  0  0
  1 25  1  0  0  0  0
  2  3  1  0  0  0  0
  3  8  1  0  0  0  0
  3  4  2  0  0  0  0
  4  5  1  0  0  0  0
  5  6  2  0  0  0  0
  5 26  1  0  0  0  0
  6  7  1  0  0  0  0
  6 27  1  0  0  0  0
  7  8  2  0  0  0  0
  7 28  1  0  0  0  0
  8  9  1  0  0  0  0
  9 10  1  0  0  0  0
  9 29  1  0  0  0  0
 10 11  2  0  0  0  0
 10 12  1  0  0  0  0
 12 13  1  0  0  0  0
 12 30  1  0  0  0  0
 13 14  1  0  0  0  0
 13 31  1  0  0  0  0
 13 32  1  0  0  0  0
 14 15  1  0  0  0  0
 14 16  1  0  0  0  0
 14 17  1  0  0  0  0
 15 33  1  0  0  0  0
 15 34  1  0  0  0  0
 15 35  1  0  0  0  0
 16 36  1  0  0  0  0
 16 37  1  0  0  0  0
 16 38  1  0  0  0  0
 17 22  1  0  0  0  0
 17 18  1  0  0  0  0
 17 47  1  0  0  0  0
 18 19  1  0  0  0  0
 18 39  1  0  0  0  0
 18 40  1  0  0  0  0
 19 20  1  0  0  0  0
 19 41  1  0  0  0  0
 19 42  1  0  0  0  0
 20 21  1  0  0  0  0
 21 22  1  0  0  0  0
 21 43  1  0  0  0  0
 21 44  1  0  0  0  0
 22 45  1  0  0  0  0
 22 46  1  0  0  0  0
M  CHG  1  17   1
M  END
> <s_m_source_file>
AV-unprocessed.smi

> <i_m_source_file_index>
1728

> <i_lp_mmshare_version>
43012

> <i_f3d_flags>
0

> <s_epik_input>
W0NIM11PYzFuW2NIXVtjSF1bY0hdYzFbTkhdQyg9TylbTkhdW0NIMl1DKFtDSDNdKShbQ0gzXSlOMltDSDJdW0NIMl1PW0NIMl1bQ0gyXTI=

> <s_epik_cmdline>
J2VwaWtfcHl0aG9uJywgJy1waCcsICc3LjAnLCAnLXRuJywgJzgnLCAnLW1hJywgJzIwMCcsICctbWV0YWxfYmluZGluZycsICctaW1hZScsICc8aW5maWxlLm1hZT4nLCAnLW9tYWUnLCAnPG91dGZpbGUubWFlPic=

> <r_lp_tautomer_probability>
1

> <r_epik_Ionization_Penalty>
0.602608

> <r_epik_Ionization_Penalty_Charging>
0.602531

> <r_epik_Ionization_Penalty_Neutral>
7.74611e-05

> <r_epik_State_Penalty>
0.617039

> <r_epik_Charging_Adjusted_Penalty>
1.21957

> <i_epik_Tot_Q>
1

> <i_epik_Tot_abs_Q>
1

> <r_epik_Metal_State_Penalty>
0.617043

> <b_epik_Metal_Only>
0

> <s_lp_Force_Field>
OPLS_2005

> <r_lp_Energy>
27.5646

> <b_lp_Chiralities_Consistent>
1

> <s_lp_Variant>
AV-unprocessed.smi:1728-2

> <Gold.Version>
5.8.1

> <Gold.Id.Protein>
6NUR|6NUR_protein|mol2

> <Gold.PLP.Fitness>
44.5680

> <Gold.PLP.PLP>
-36.9772

> <Gold.PLP.part.hbond>
-2.3407

> <Gold.PLP.part.metal>
0.0000

> <Gold.PLP.part.buried>
-0.4426

> <Gold.PLP.part.nonpolar>
-35.0422

> <Gold.PLP.part.repulsive>
0.7243

> <Gold.PLP.ligand.clash>
0.0000

> <Gold.PLP.ligand.torsion>
1.0395

> <Gold.PLP.Chemscore.Hbond>
3.1716

> <Gold.PLP.Chemscore.CHOScore>
0.0000

> <Gold.PLP.Chemscore.Metal>
0.0000

> <Gold.Chemscore.Hbonds>
donor molecule, donor type, donor heavy atom, donor atom, acceptor molecule, acceptor atom, score
      L1  H     9    29       P1  8028  0.14
      L1  H    12    30       P1  8028  1.00
      L1  H    17    47       P1 10175  1.98

> <Gold.PLP.Chemscore.Internal.Correction>
0.1550

> <Gold.Rescore>
     Score         DG    S(hbond)    S(metal)    S(lipo)     H(rot)  DE(clash)    DE(int)     intcor
     16.09     -21.08       2.57        0.00      98.30       1.76       2.92       2.08       ----

> <Gold.Chemscore.Fitness>
16.0870

> <Gold.Chemscore.DG>
-21.0792

> <Gold.Chemscore.ZeroCoef>
-5.4800

> <Gold.Chemscore.Hbond>
2.5740

> <Gold.Chemscore.Metal>
0.0000

> <Gold.Chemscore.Lipo>
98.3044

> <Gold.Chemscore.Internal_Hbond>
0.0000

> <Gold.Chemscore.DEClash>
2.9161

> <Gold.Chemscore.DEInternal>
2.0761

> <Gold.Chemscore.Rot>
1.7577

> <Gold.Chemscore.Internal.Correction>
   9.000000E+99

> <Gold.Chemscore.Hbonds>
donor molecule, donor type, donor heavy atom, donor atom, acceptor molecule, acceptor atom, score
      L1  H     9    29       P1  8028  0.15
      L1  H    12    30       P1  8028  0.99
      L1  H    17    47       P1 10175  0.78

> <Gold.Chemscore.Hbond.Weighted>
-8.5973

> <Gold.Chemscore.Metal.Weighted>
-0.0000

> <Gold.Chemscore.Lipo.Weighted>
-11.5016

> <Gold.Chemscore.Internal_Hbond.Weighted>
0.0000

> <Gold.Chemscore.DEClash.Weighted>
2.9161

> <Gold.Chemscore.DEInternal.Weighted>
2.0761

> <Gold.Chemscore.Rot.Weighted>
4.4997

> <Gold.Chemscore.Internal.Correction.Weighted>
   9.000000E+99

> <Gold.Protein.RotatedTorsions>
[ 6907 6896 6895 6894 ] final -169.59 input  -60.11 | X-H torsion
[ 7974 7965 7964 7962 ] final  122.60 input  175.53 | X-H torsion
[ 8008 7997 7996 7995 ] final  -91.32 input   59.86 | X-H torsion
[ 10167 10162 10161 10158 ] final  -81.38 input  -65.29 | X-H torsion
[ 10718 10713 10712 10709 ] final  164.80 input   66.30 | X-H torsion
[ 10763 10752 10751 10750 ] final -157.34 input  -60.55 | X-H torsion
[ 11005 11000 10999 10996 ] final  -75.10 input  -57.11 | X-H torsion

> <Gold.Protein.ActiveResidues>
 VAL166  LYS551  ARG553  GLY616  TRP617  ASP618  TYR619  PRO620  LYS621  CYS622 
 ASP623  PHE694  ASN695  SER759  ASP760  ASP761  ALA762  ILE779  LEU786  VAL792 
 PHE793  MET794  SER795  GLU796  ALA797  LYS798  CYS799  TRP800  GLU811  SER814 

> <Gold.Protein.RotatedAtoms>
  151.4941  133.3518  159.2857 H   0  0  0  0  0  0  0  0  0  0  0  0  # atno 6907 bound_to 6896
  150.8815  134.8209  159.7239 H   0  0  0  0  0  0  0  0  0  0  0  0  # atno 6908 bound_to 6896
  152.4766  134.4839  159.9726 H   0  0  0  0  0  0  0  0  0  0  0  0  # atno 6909 bound_to 6896
  145.1057  139.3487  143.4789 H   0  0  0  0  0  0  0  0  0  0  0  0  # atno 7974 bound_to 7965
  154.7093  140.0521  157.0534 H   0  0  0  0  0  0  0  0  0  0  0  0  # atno 8008 bound_to 7997
  155.0577  140.3186  155.4652 H   0  0  0  0  0  0  0  0  0  0  0  0  # atno 8009 bound_to 7997
  156.2784  140.2104  156.5703 H   0  0  0  0  0  0  0  0  0  0  0  0  # atno 8010 bound_to 7997
  140.4418  143.2512  151.8615 H   0  0  0  0  0  0  0  0  0  0  0  0  # atno 10167 bound_to 10162
  157.0892  131.0413  151.2544 H   0  0  0  0  0  0  0  0  0  0  0  0  # atno 10718 bound_to 10713
  154.7643  135.3126  154.8316 H   0  0  0  0  0  0  0  0  0  0  0  0  # atno 10763 bound_to 10752
  153.9069  135.6810  153.4757 H   0  0  0  0  0  0  0  0  0  0  0  0  # atno 10764 bound_to 10752
  153.1247  135.4806  154.9186 H   0  0  0  0  0  0  0  0  0  0  0  0  # atno 10765 bound_to 10752
  141.1642  133.6934  156.7465 H   0  0  0  0  0  0  0  0  0  0  0  0  # atno 11005 bound_to 11000
  146.3528  140.0953  142.8610 LP  0  0  0  0  0  0  0  0  0  0  0  0  # atno 17320 bound_to 7965
  145.0905  140.9281  143.4772 LP  0  0  0  0  0  0  0  0  0  0  0  0  # atno 17321 bound_to 7965
  139.4790  144.5221  151.8787 LP  0  0  0  0  0  0  0  0  0  0  0  0  # atno 17342 bound_to 10162
  140.4310  144.2116  150.5888 LP  0  0  0  0  0  0  0  0  0  0  0  0  # atno 17343 bound_to 10162
  157.4735  130.7723  149.7346 LP  0  0  0  0  0  0  0  0  0  0  0  0  # atno 17370 bound_to 10713
  155.9902  130.3946  150.3037 LP  0  0  0  0  0  0  0  0  0  0  0  0  # atno 17371 bound_to 10713
  140.2636  134.8447  157.3782 LP  0  0  0  0  0  0  0  0  0  0  0  0  # atno 17394 bound_to 11000
  140.1588  134.4755  155.7909 LP  0  0  0  0  0  0  0  0  0  0  0  0  # atno 17395 bound_to 11000

$$$$
