AV-unprocessed.smi:2822|AV-procd|sdf|10864|dock9
  -GOLD-   2272015313D 1   1.00000     0.00000
 Structure written by MMmdl.
 41 43  0  0  0  0  0  0  0  0  3 V2000
  152.7956  143.3837  160.6280 Cl  0  0  0  0  0  0  0  0  0  0  0  0
  151.9669  142.8190  159.2194 C   0  0  0  0  0  0  0  0  0  0  0  0
  151.2963  143.7473  158.3963 C   0  0  0  0  0  0  0  0  0  0  0  0
  150.6420  143.3240  157.2942 N   0  3  0  0  0  0  0  0  0  0  0  0
  150.5957  142.0260  156.9276 C   0  0  0  0  0  0  0  0  0  0  0  0
  151.2477  141.0508  157.7095 C   0  0  0  0  0  0  0  0  0  0  0  0
  151.9468  141.4437  158.8786 C   0  0  0  0  0  0  0  0  0  0  0  0
  152.6152  140.5212  159.6987 N   0  0  0  0  0  0  0  0  0  0  0  0
  152.6133  139.1009  159.3808 C   0  0  0  0  0  0  0  0  0  0  0  0
  153.8806  138.4027  159.8956 C   0  0  2  0  0  0  0  0  0  0  0  0
  153.5667  137.4435  161.0584 C   0  0  0  0  0  0  0  0  0  0  0  0
  154.8152  136.8471  161.5952 N   0  3  2  0  0  0  0  0  0  0  0  0
  154.5915  135.8617  162.6852 C   0  0  0  0  0  0  0  0  0  0  0  0
  154.2312  136.5408  164.0204 C   0  0  0  0  0  0  0  0  0  0  0  0
  155.2848  137.5863  164.4099 C   0  0  0  0  0  0  0  0  0  0  0  0
  155.4855  138.5943  163.2695 C   0  0  0  0  0  0  0  0  0  0  0  0
  155.8328  137.8758  161.9468 C   0  0  2  0  0  0  0  0  0  0  0  0
  156.0284  138.8549  160.7726 C   0  0  0  0  0  0  0  0  0  0  0  0
  154.7779  139.4011  160.3705 O   0  0  0  0  0  0  0  0  0  0  0  0
  151.2641  144.8102  158.5864 H   0  0  0  0  0  0  0  0  0  0  0  0
  150.0433  141.8069  156.0254 H   0  0  0  0  0  0  0  0  0  0  0  0
  151.2024  140.0183  157.3971 H   0  0  0  0  0  0  0  0  0  0  0  0
  152.8722  140.8012  160.6351 H   0  0  0  0  0  0  0  0  0  0  0  0
  151.7262  138.6268  159.8035 H   0  0  0  0  0  0  0  0  0  0  0  0
  152.5562  138.9917  158.2971 H   0  0  0  0  0  0  0  0  0  0  0  0
  154.3423  137.8460  159.0774 H   0  0  0  0  0  0  0  0  0  0  0  0
  153.0316  137.9775  161.8438 H   0  0  0  0  0  0  0  0  0  0  0  0
  152.9067  136.6466  160.7135 H   0  0  0  0  0  0  0  0  0  0  0  0
  153.8148  135.1534  162.3945 H   0  0  0  0  0  0  0  0  0  0  0  0
  155.5047  135.2788  162.8114 H   0  0  0  0  0  0  0  0  0  0  0  0
  153.2513  137.0138  163.9506 H   0  0  0  0  0  0  0  0  0  0  0  0
  154.1492  135.7893  164.8062 H   0  0  0  0  0  0  0  0  0  0  0  0
  154.9836  138.1035  165.3215 H   0  0  0  0  0  0  0  0  0  0  0  0
  156.2303  137.0899  164.6318 H   0  0  0  0  0  0  0  0  0  0  0  0
  154.5856  139.1988  163.1512 H   0  0  0  0  0  0  0  0  0  0  0  0
  156.2831  139.2885  163.5356 H   0  0  0  0  0  0  0  0  0  0  0  0
  156.7783  137.3529  162.0985 H   0  0  0  0  0  0  0  0  0  0  0  0
  156.6963  139.6668  161.0610 H   0  0  0  0  0  0  0  0  0  0  0  0
  156.4979  138.3510  159.9262 H   0  0  0  0  0  0  0  0  0  0  0  0
  155.2076  136.3223  160.8264 H   0  0  0  0  0  0  0  0  0  0  0  0
  150.1638  144.0140  156.7140 H   0  0  0  0  0  0  0  0  0  0  0  0
  1  2  1  0  0  0  0
  2  7  1  0  0  0  0
  2  3  2  0  0  0  0
  3  4  1  0  0  0  0
  3 20  1  0  0  0  0
  4  5  2  0  0  0  0
  4 41  1  0  0  0  0
  5  6  1  0  0  0  0
  5 21  1  0  0  0  0
  6  7  2  0  0  0  0
  6 22  1  0  0  0  0
  7  8  1  0  0  0  0
  8  9  1  0  0  0  0
  8 23  1  0  0  0  0
  9 10  1  0  0  0  0
  9 24  1  0  0  0  0
  9 25  1  0  0  0  0
 10 19  1  0  0  0  0
 10 11  1  0  0  0  0
 10 26  1  0  0  0  0
 11 12  1  0  0  0  0
 11 27  1  0  0  0  0
 11 28  1  0  0  0  0
 12 17  1  0  0  0  0
 12 13  1  0  0  0  0
 12 40  1  0  0  0  0
 13 14  1  0  0  0  0
 13 29  1  0  0  0  0
 13 30  1  0  0  0  0
 14 15  1  0  0  0  0
 14 31  1  0  0  0  0
 14 32  1  0  0  0  0
 15 16  1  0  0  0  0
 15 33  1  0  0  0  0
 15 34  1  0  0  0  0
 16 17  1  0  0  0  0
 16 35  1  0  0  0  0
 16 36  1  0  0  0  0
 17 18  1  0  0  0  0
 17 37  1  0  0  0  0
 18 19  1  0  0  0  0
 18 38  1  0  0  0  0
 18 39  1  0  0  0  0
M  CHG  1   4   1
M  CHG  1  12   1
M  END
> <s_m_source_file>
AV-unprocessed.smi

> <i_m_source_file_index>
2822

> <i_lp_mmshare_version>
43012

> <i_f3d_flags>
0

> <s_epik_input>
Q2xjMVtjSF1uW2NIXVtjSF1jMVtOSF1bQ0gyXVtDQEhdKFtDSDJdMilPW0NIMl1bQ0BASF0oTjIzKVtDSDJdW0NIMl1bQ0gyXVtDSDJdMw==

> <s_epik_cmdline>
J2VwaWtfcHl0aG9uJywgJy1waCcsICc3LjAnLCAnLXRuJywgJzgnLCAnLW1hJywgJzIwMCcsICctbWV0YWxfYmluZGluZycsICctaW1hZScsICc8aW5maWxlLm1hZT4nLCAnLW9tYWUnLCAnPG91dGZpbGUubWFlPic=

> <r_lp_tautomer_probability>
1

> <r_epik_Ionization_Penalty>
0.254999

> <r_epik_Ionization_Penalty_Charging>
0.254956

> <r_epik_Ionization_Penalty_Neutral>
4.33524e-05

> <r_epik_State_Penalty>
0.230978

> <r_epik_Charging_Adjusted_Penalty>
0.485934

> <i_epik_Tot_Q>
2

> <i_epik_Tot_abs_Q>
2

> <r_epik_Metal_State_Penalty>
3.47007

> <b_epik_Metal_Only>
0

> <s_lp_Force_Field>
OPLS_2005

> <r_lp_Energy>
39.695

> <b_lp_Chiralities_Consistent>
1

> <s_lp_Variant>
AV-unprocessed.smi:2822-5

> <Gold.Version>
5.8.1

> <Gold.Id.Protein>
6NUR|6NUR_protein|mol2

> <Gold.PLP.Fitness>
40.2083

> <Gold.PLP.PLP>
-36.0540

> <Gold.PLP.part.hbond>
-1.0000

> <Gold.PLP.part.metal>
0.0000

> <Gold.PLP.part.buried>
-5.8746

> <Gold.PLP.part.nonpolar>
-30.0502

> <Gold.PLP.part.repulsive>
0.1713

> <Gold.PLP.ligand.clash>
0.0000

> <Gold.PLP.ligand.torsion>
0.8992

> <Gold.PLP.Chemscore.Hbond>
1.9840

> <Gold.PLP.Chemscore.CHOScore>
0.0000

> <Gold.PLP.Chemscore.Metal>
0.0000

> <Gold.Chemscore.Hbonds>
donor molecule, donor type, donor heavy atom, donor atom, acceptor molecule, acceptor atom, score
      L1  H     4    41       P1  8028  2.00

> <Gold.PLP.Chemscore.Internal.Correction>
0.0006

> <Gold.Rescore>
     Score         DG    S(hbond)    S(metal)    S(lipo)     H(rot)  DE(clash)    DE(int)     intcor
     18.30     -19.22       0.94        0.00     116.70       1.20       0.03       0.90       ----

> <Gold.Chemscore.Fitness>
18.2951

> <Gold.Chemscore.DG>
-19.2240

> <Gold.Chemscore.ZeroCoef>
-5.4800

> <Gold.Chemscore.Hbond>
0.9438

> <Gold.Chemscore.Metal>
0.0000

> <Gold.Chemscore.Lipo>
116.7026

> <Gold.Chemscore.Internal_Hbond>
0.0000

> <Gold.Chemscore.DEClash>
0.0309

> <Gold.Chemscore.DEInternal>
0.8980

> <Gold.Chemscore.Rot>
1.1962

> <Gold.Chemscore.Internal.Correction>
   9.000000E+99

> <Gold.Chemscore.Hbonds>
donor molecule, donor type, donor heavy atom, donor atom, acceptor molecule, acceptor atom, score
      L1  H     4    41       P1  8028  0.99

> <Gold.Chemscore.Hbond.Weighted>
-3.1521

> <Gold.Chemscore.Metal.Weighted>
-0.0000

> <Gold.Chemscore.Lipo.Weighted>
-13.6542

> <Gold.Chemscore.Internal_Hbond.Weighted>
0.0000

> <Gold.Chemscore.DEClash.Weighted>
0.0309

> <Gold.Chemscore.DEInternal.Weighted>
0.8980

> <Gold.Chemscore.Rot.Weighted>
3.0623

> <Gold.Chemscore.Internal.Correction.Weighted>
   9.000000E+99

> <Gold.Protein.RotatedTorsions>
[ 6907 6896 6895 6894 ] final    7.43 input  -60.11 | X-H torsion
[ 7974 7965 7964 7962 ] final   43.85 input  175.53 | X-H torsion
[ 8008 7997 7996 7995 ] final  109.90 input   59.86 | X-H torsion
[ 10167 10162 10161 10158 ] final  127.37 input  -65.29 | X-H torsion
[ 10718 10713 10712 10709 ] final  112.85 input   66.30 | X-H torsion
[ 10763 10752 10751 10750 ] final    8.03 input  -60.55 | X-H torsion
[ 11005 11000 10999 10996 ] final  133.58 input  -57.11 | X-H torsion

> <Gold.Protein.ActiveResidues>
 VAL166  LYS551  ARG553  GLY616  TRP617  ASP618  TYR619  PRO620  LYS621  CYS622 
 ASP623  PHE694  ASN695  SER759  ASP760  ASP761  ALA762  ILE779  LEU786  VAL792 
 PHE793  MET794  SER795  GLU796  ALA797  LYS798  CYS799  TRP800  GLU811  SER814 

> <Gold.Protein.RotatedAtoms>
  151.6897  135.0948  160.0231 H   0  0  0  0  0  0  0  0  0  0  0  0  # atno 6907 bound_to 6896
  152.3786  133.6510  159.6151 H   0  0  0  0  0  0  0  0  0  0  0  0  # atno 6908 bound_to 6896
  150.7728  133.9069  159.3399 H   0  0  0  0  0  0  0  0  0  0  0  0  # atno 6909 bound_to 6896
  146.0619  139.5140  142.9652 H   0  0  0  0  0  0  0  0  0  0  0  0  # atno 7974 bound_to 7965
  156.2013  140.3049  155.9533 H   0  0  0  0  0  0  0  0  0  0  0  0  # atno 8008 bound_to 7997
  155.2946  140.0443  157.3042 H   0  0  0  0  0  0  0  0  0  0  0  0  # atno 8009 bound_to 7997
  154.5575  140.2310  155.8396 H   0  0  0  0  0  0  0  0  0  0  0  0  # atno 8010 bound_to 7997
  139.5582  144.6863  151.4121 H   0  0  0  0  0  0  0  0  0  0  0  0  # atno 10167 bound_to 10162
  157.6370  131.0974  150.6955 H   0  0  0  0  0  0  0  0  0  0  0  0  # atno 10718 bound_to 10713
  153.2296  135.6891  153.7905 H   0  0  0  0  0  0  0  0  0  0  0  0  # atno 10763 bound_to 10752
  153.7074  135.3287  155.3239 H   0  0  0  0  0  0  0  0  0  0  0  0  # atno 10764 bound_to 10752
  154.8308  135.4582  154.1176 H   0  0  0  0  0  0  0  0  0  0  0  0  # atno 10765 bound_to 10752
  139.9861  134.9532  156.9746 H   0  0  0  0  0  0  0  0  0  0  0  0  # atno 11005 bound_to 11000
  145.6544  141.0255  143.1742 LP  0  0  0  0  0  0  0  0  0  0  0  0  # atno 17320 bound_to 7965
  144.7180  139.8129  143.7392 LP  0  0  0  0  0  0  0  0  0  0  0  0  # atno 17321 bound_to 7965
  140.6858  143.7978  150.7184 LP  0  0  0  0  0  0  0  0  0  0  0  0  # atno 17342 bound_to 10162
  140.1445  143.4412  152.2172 LP  0  0  0  0  0  0  0  0  0  0  0  0  # atno 17343 bound_to 10162
  156.7285  130.4702  149.5505 LP  0  0  0  0  0  0  0  0  0  0  0  0  # atno 17370 bound_to 10713
  156.1618  130.6379  151.0728 LP  0  0  0  0  0  0  0  0  0  0  0  0  # atno 17371 bound_to 10713
  140.5000  134.1107  155.7248 LP  0  0  0  0  0  0  0  0  0  0  0  0  # atno 17394 bound_to 11000
  141.1526  133.8942  157.2060 LP  0  0  0  0  0  0  0  0  0  0  0  0  # atno 17395 bound_to 11000

$$$$
