AV-unprocessed.smi:3149|AV-procd|sdf|12001|dock2
  -GOLD-   2272017403D 1   1.00000     0.00000
 Structure written by MMmdl.
 38 39  0  0  0  0  0  0  0  0  2 V2000
  151.3302  141.6014  157.1137 C   0  0  0  0  0  0  0  0  0  0  0  0
  150.4300  142.2236  158.2025 C   0  0  2  0  0  0  0  0  0  0  0  0
  149.1607  142.7015  157.6075 N   0  3  0  0  0  0  0  0  0  0  0  0
  148.2495  141.6446  157.1190 C   0  0  0  0  0  0  0  0  0  0  0  0
  146.8397  142.1894  156.8700 C   0  0  0  0  0  0  0  0  0  0  0  0
  146.1558  142.6087  157.8045 O   0  0  0  0  0  0  0  0  0  0  0  0
  146.3338  142.0952  155.5718 N   0  0  0  0  0  0  0  0  0  0  0  0
  145.4579  143.1173  155.0182 C   0  0  0  0  0  0  0  0  0  0  0  0
  146.0629  142.7462  153.6604 C   0  0  0  0  0  0  0  0  0  0  0  0
  147.2205  142.0879  154.4180 C   0  0  0  0  0  0  0  0  0  0  0  0
  151.1193  143.3868  158.9656 C   0  0  1  0  0  0  0  0  0  0  0  0
  150.1085  144.3008  159.6860 C   0  0  0  0  0  0  0  0  0  0  0  0
  152.1225  142.9106  159.9097 N   0  0  0  0  0  0  0  0  0  0  0  0
  153.2824  142.2118  159.6436 C   0  0  0  0  0  0  0  0  0  0  0  0
  153.9017  141.9780  160.8376 C   0  0  0  0  0  0  0  0  0  0  0  0
  153.0373  142.5829  161.7917 C   0  0  0  0  0  0  0  0  0  0  0  0
  151.9746  143.1407  161.2345 N   0  0  0  0  0  0  0  0  0  0  0  0
  152.2416  141.1772  157.5351 H   0  0  0  0  0  0  0  0  0  0  0  0
  151.6238  142.3448  156.3719 H   0  0  0  0  0  0  0  0  0  0  0  0
  150.8291  140.7889  156.5885 H   0  0  0  0  0  0  0  0  0  0  0  0
  150.1903  141.4453  158.9290 H   0  0  0  0  0  0  0  0  0  0  0  0
  148.6598  143.2072  158.3245 H   0  0  0  0  0  0  0  0  0  0  0  0
  148.6442  141.2177  156.1971 H   0  0  0  0  0  0  0  0  0  0  0  0
  148.1872  140.8435  157.8563 H   0  0  0  0  0  0  0  0  0  0  0  0
  144.3950  142.8947  155.1168 H   0  0  0  0  0  0  0  0  0  0  0  0
  145.7096  144.1310  155.3364 H   0  0  0  0  0  0  0  0  0  0  0  0
  145.4561  142.0360  153.0957 H   0  0  0  0  0  0  0  0  0  0  0  0
  146.3555  143.6025  153.0519 H   0  0  0  0  0  0  0  0  0  0  0  0
  148.0889  142.7412  154.5268 H   0  0  0  0  0  0  0  0  0  0  0  0
  147.4847  141.0897  154.0673 H   0  0  0  0  0  0  0  0  0  0  0  0
  151.6503  143.9985  158.2340 H   0  0  0  0  0  0  0  0  0  0  0  0
  149.4254  144.7780  158.9832 H   0  0  0  0  0  0  0  0  0  0  0  0
  150.6198  145.0968  160.2285 H   0  0  0  0  0  0  0  0  0  0  0  0
  149.5068  143.7443  160.4054 H   0  0  0  0  0  0  0  0  0  0  0  0
  153.5670  141.9391  158.6380 H   0  0  0  0  0  0  0  0  0  0  0  0
  154.8318  141.4551  161.0044 H   0  0  0  0  0  0  0  0  0  0  0  0
  153.1492  142.6327  162.8648 H   0  0  0  0  0  0  0  0  0  0  0  0
  149.3654  143.3419  156.8538 H   0  0  0  0  0  0  0  0  0  0  0  0
  1  2  1  0  0  0  0
  1 18  1  0  0  0  0
  1 19  1  0  0  0  0
  1 20  1  0  0  0  0
  2  3  1  0  0  0  0
  2 11  1  0  0  0  0
  2 21  1  0  0  0  0
  3  4  1  0  0  0  0
  3 22  1  0  0  0  0
  3 38  1  0  0  0  0
  4  5  1  0  0  0  0
  4 23  1  0  0  0  0
  4 24  1  0  0  0  0
  5  6  2  0  0  0  0
  5  7  1  0  0  0  0
  7 10  1  0  0  0  0
  7  8  1  0  0  0  0
  8  9  1  0  0  0  0
  8 25  1  0  0  0  0
  8 26  1  0  0  0  0
  9 10  1  0  0  0  0
  9 27  1  0  0  0  0
  9 28  1  0  0  0  0
 10 29  1  0  0  0  0
 10 30  1  0  0  0  0
 11 12  1  0  0  0  0
 11 13  1  0  0  0  0
 11 31  1  0  0  0  0
 12 32  1  0  0  0  0
 12 33  1  0  0  0  0
 12 34  1  0  0  0  0
 13 17  1  0  0  0  0
 13 14  1  0  0  0  0
 14 15  2  0  0  0  0
 14 35  1  0  0  0  0
 15 16  1  0  0  0  0
 15 36  1  0  0  0  0
 16 17  2  0  0  0  0
 16 37  1  0  0  0  0
M  CHG  1   3   1
M  END
> <s_m_source_file>
AV-unprocessed.smi

> <i_m_source_file_index>
3149

> <i_lp_mmshare_version>
43012

> <i_f3d_flags>
0

> <s_epik_input>
bjFbY0hdW2NIXVtjSF1uMVtDQEBIXShbQ0gzXSlbQ0BIXShbQ0gzXSlbTkhdW0NIMl1DKD1PKU4yW0NIMl1bQ0gyXVtDSDJdMg==

> <s_epik_cmdline>
J2VwaWtfcHl0aG9uJywgJy1waCcsICc3LjAnLCAnLXRuJywgJzgnLCAnLW1hJywgJzIwMCcsICctbWV0YWxfYmluZGluZycsICctaW1hZScsICc8aW5maWxlLm1hZT4nLCAnLW9tYWUnLCAnPG91dGZpbGUubWFlPic=

> <r_lp_tautomer_probability>
1

> <r_epik_Ionization_Penalty>
0.141739

> <r_epik_Ionization_Penalty_Charging>
0.141731

> <r_epik_Ionization_Penalty_Neutral>
8.82171e-06

> <r_epik_State_Penalty>
0.131043

> <r_epik_Charging_Adjusted_Penalty>
0.272773

> <i_epik_Tot_Q>
1

> <i_epik_Tot_abs_Q>
1

> <r_epik_Metal_State_Penalty>
0.131384

> <b_epik_Metal_Only>
0

> <s_lp_Force_Field>
OPLS_2005

> <r_lp_Energy>
21.3939

> <b_lp_Chiralities_Consistent>
1

> <s_lp_Variant>
AV-unprocessed.smi:3149-3

> <Gold.Version>
5.8.1

> <Gold.Id.Protein>
6NUR|6NUR_protein|mol2

> <Gold.PLP.Fitness>
44.3619

> <Gold.PLP.PLP>
-39.3467

> <Gold.PLP.part.hbond>
-1.5682

> <Gold.PLP.part.metal>
0.0000

> <Gold.PLP.part.buried>
-6.3040

> <Gold.PLP.part.nonpolar>
-31.9481

> <Gold.PLP.part.repulsive>
0.3153

> <Gold.PLP.ligand.clash>
0.0000

> <Gold.PLP.ligand.torsion>
0.9615

> <Gold.PLP.Chemscore.Hbond>
2.0000

> <Gold.PLP.Chemscore.CHOScore>
0.0000

> <Gold.PLP.Chemscore.Metal>
0.0000

> <Gold.Chemscore.Hbonds>
donor molecule, donor type, donor heavy atom, donor atom, acceptor molecule, acceptor atom, score
      L1  H     3    38       P1  8028  2.00

> <Gold.PLP.Chemscore.Internal.Correction>
0.9381

> <Gold.Rescore>
     Score         DG    S(hbond)    S(metal)    S(lipo)     H(rot)  DE(clash)    DE(int)     intcor
     12.65     -13.42       0.90        0.00      82.64       1.85       0.03       0.74       ----

> <Gold.Chemscore.Fitness>
12.6524

> <Gold.Chemscore.DG>
-13.4211

> <Gold.Chemscore.ZeroCoef>
-5.4800

> <Gold.Chemscore.Hbond>
0.9040

> <Gold.Chemscore.Metal>
0.0000

> <Gold.Chemscore.Lipo>
82.6396

> <Gold.Chemscore.Internal_Hbond>
0.0000

> <Gold.Chemscore.DEClash>
0.0300

> <Gold.Chemscore.DEInternal>
0.7387

> <Gold.Chemscore.Rot>
1.8544

> <Gold.Chemscore.Internal.Correction>
   9.000000E+99

> <Gold.Chemscore.Hbonds>
donor molecule, donor type, donor heavy atom, donor atom, acceptor molecule, acceptor atom, score
      L1  H     3    38       P1  8028  0.93

> <Gold.Chemscore.Hbond.Weighted>
-3.0194

> <Gold.Chemscore.Metal.Weighted>
-0.0000

> <Gold.Chemscore.Lipo.Weighted>
-9.6688

> <Gold.Chemscore.Internal_Hbond.Weighted>
0.0000

> <Gold.Chemscore.DEClash.Weighted>
0.0300

> <Gold.Chemscore.DEInternal.Weighted>
0.7387

> <Gold.Chemscore.Rot.Weighted>
4.7472

> <Gold.Chemscore.Internal.Correction.Weighted>
   9.000000E+99

> <Gold.Protein.RotatedTorsions>
[ 6907 6896 6895 6894 ] final  179.80 input  -60.11 | X-H torsion
[ 7974 7965 7964 7962 ] final  -18.58 input  175.53 | X-H torsion
[ 8008 7997 7996 7995 ] final  117.70 input   59.86 | X-H torsion
[ 10167 10162 10161 10158 ] final  147.88 input  -65.29 | X-H torsion
[ 10718 10713 10712 10709 ] final  -92.72 input   66.30 | X-H torsion
[ 10763 10752 10751 10750 ] final -158.48 input  -60.55 | X-H torsion
[ 11005 11000 10999 10996 ] final -161.80 input  -57.11 | X-H torsion

> <Gold.Protein.ActiveResidues>
 VAL166  LYS551  ARG553  GLY616  TRP617  ASP618  TYR619  PRO620  LYS621  CYS622 
 ASP623  PHE694  ASN695  SER759  ASP760  ASP761  ALA762  ILE779  LEU786  VAL792 
 PHE793  MET794  SER795  GLU796  ALA797  LYS798  CYS799  TRP800  GLU811  SER814 

> <Gold.Protein.RotatedAtoms>
  151.6658  133.3315  159.3184 H   0  0  0  0  0  0  0  0  0  0  0  0  # atno 6907 bound_to 6896
  150.7891  134.6905  159.6503 H   0  0  0  0  0  0  0  0  0  0  0  0  # atno 6908 bound_to 6896
  152.3967  134.6357  160.0138 H   0  0  0  0  0  0  0  0  0  0  0  0  # atno 6909 bound_to 6896
  146.1885  140.3941  142.8467 H   0  0  0  0  0  0  0  0  0  0  0  0  # atno 7974 bound_to 7965
  156.2508  140.2890  156.0719 H   0  0  0  0  0  0  0  0  0  0  0  0  # atno 8008 bound_to 7997
  155.1661  140.0400  157.2870 H   0  0  0  0  0  0  0  0  0  0  0  0  # atno 8009 bound_to 7997
  154.6358  140.2510  155.7386 H   0  0  0  0  0  0  0  0  0  0  0  0  # atno 8010 bound_to 7997
  139.4883  144.5722  151.7034 H   0  0  0  0  0  0  0  0  0  0  0  0  # atno 10167 bound_to 10162
  156.0005  130.4998  150.5668 H   0  0  0  0  0  0  0  0  0  0  0  0  # atno 10718 bound_to 10713
  154.7553  135.3103  154.8482 H   0  0  0  0  0  0  0  0  0  0  0  0  # atno 10763 bound_to 10752
  153.9258  135.6790  153.4751 H   0  0  0  0  0  0  0  0  0  0  0  0  # atno 10764 bound_to 10752
  153.1150  135.4849  154.9029 H   0  0  0  0  0  0  0  0  0  0  0  0  # atno 10765 bound_to 10752
  140.6163  134.4797  157.5220 H   0  0  0  0  0  0  0  0  0  0  0  0  # atno 11005 bound_to 11000
  144.8441  140.6903  143.6210 LP  0  0  0  0  0  0  0  0  0  0  0  0  # atno 17320 bound_to 7965
  145.3866  139.1625  143.4252 LP  0  0  0  0  0  0  0  0  0  0  0  0  # atno 17321 bound_to 7965
  140.5311  144.0729  150.6054 LP  0  0  0  0  0  0  0  0  0  0  0  0  # atno 17342 bound_to 10162
  140.3719  143.2850  152.0268 LP  0  0  0  0  0  0  0  0  0  0  0  0  # atno 17343 bound_to 10162
  157.3569  131.0743  151.1668 LP  0  0  0  0  0  0  0  0  0  0  0  0  # atno 17370 bound_to 10713
  157.2466  130.6594  149.5913 LP  0  0  0  0  0  0  0  0  0  0  0  0  # atno 17371 bound_to 10713
  139.9171  134.8223  156.1329 LP  0  0  0  0  0  0  0  0  0  0  0  0  # atno 17394 bound_to 11000
  141.0773  133.6770  156.2263 LP  0  0  0  0  0  0  0  0  0  0  0  0  # atno 17395 bound_to 11000

$$$$
