AV-unprocessed.smi:2740|AV-procd|sdf|10555|dock8
  -GOLD-   2272015 03D 1   1.00000     0.00000
 Structure written by MMmdl.
 31 32  0  0  0  0  0  0  0  0  1 V2000
  144.7222  130.9116  151.0909 C   0  0  0  0  0  0  0  0  0  0  0  0
  144.9074  132.3902  151.1481 C   0  0  0  0  0  0  0  0  0  0  0  0
  144.0573  133.3612  150.6761 C   0  0  0  0  0  0  0  0  0  0  0  0
  144.5153  134.6645  150.8843 N   0  0  0  0  0  0  0  0  0  0  0  0
  145.6990  134.6864  151.5065 C   0  0  0  0  0  0  0  0  0  0  0  0
  146.4010  135.8709  151.8532 N   0  0  0  0  0  0  0  0  0  0  0  0
  145.9101  136.9991  152.3951 C   0  0  0  0  0  0  0  0  0  0  0  0
  144.7274  137.1979  152.6739 O   0  0  0  0  0  0  0  0  0  0  0  0
  146.8806  137.9023  152.5967 N   0  0  0  0  0  0  0  0  0  0  0  0
  146.6929  139.2327  153.1672 C   0  0  0  0  0  0  0  0  0  0  0  0
  148.0308  139.9648  153.3681 C   0  0  1  0  0  0  0  0  0  0  0  0
  147.9211  141.3627  153.9787 C   0  0  0  0  0  0  0  0  0  0  0  0
  149.2868  141.5303  154.6032 C   0  0  0  0  0  0  0  0  0  0  0  0
  149.5594  140.1261  155.1339 C   0  0  0  0  0  0  0  0  0  0  0  0
  148.8596  139.2345  154.2688 O   0  0  0  0  0  0  0  0  0  0  0  0
  146.3325  133.0897  151.8743 S   0  0  0  0  0  0  0  0  0  0  0  0
  143.6904  130.6546  150.8503 H   0  0  0  0  0  0  0  0  0  0  0  0
  144.9668  130.4523  152.0490 H   0  0  0  0  0  0  0  0  0  0  0  0
  145.3660  130.4710  150.3297 H   0  0  0  0  0  0  0  0  0  0  0  0
  143.1080  133.2150  150.1821 H   0  0  0  0  0  0  0  0  0  0  0  0
  147.3941  135.8538  151.6750 H   0  0  0  0  0  0  0  0  0  0  0  0
  147.8234  137.6519  152.3374 H   0  0  0  0  0  0  0  0  0  0  0  0
  146.0172  139.8320  152.5545 H   0  0  0  0  0  0  0  0  0  0  0  0
  146.1991  139.1111  154.1316 H   0  0  0  0  0  0  0  0  0  0  0  0
  148.5649  140.0304  152.4188 H   0  0  0  0  0  0  0  0  0  0  0  0
  147.6889  142.1328  153.2425 H   0  0  0  0  0  0  0  0  0  0  0  0
  147.1534  141.3861  154.7535 H   0  0  0  0  0  0  0  0  0  0  0  0
  150.0188  141.7931  153.8382 H   0  0  0  0  0  0  0  0  0  0  0  0
  149.3133  142.2938  155.3811 H   0  0  0  0  0  0  0  0  0  0  0  0
  150.6244  139.8953  155.1671 H   0  0  0  0  0  0  0  0  0  0  0  0
  149.1576  140.0158  156.1418 H   0  0  0  0  0  0  0  0  0  0  0  0
  1  2  1  0  0  0  0
  1 17  1  0  0  0  0
  1 18  1  0  0  0  0
  1 19  1  0  0  0  0
  2 16  1  0  0  0  0
  2  3  2  0  0  0  0
  3  4  1  0  0  0  0
  3 20  1  0  0  0  0
  4  5  2  0  0  0  0
  5  6  1  0  0  0  0
  5 16  1  0  0  0  0
  6  7  1  0  0  0  0
  6 21  1  0  0  0  0
  7  8  2  0  0  0  0
  7  9  1  0  0  0  0
  9 10  1  0  0  0  0
  9 22  1  0  0  0  0
 10 11  1  0  0  0  0
 10 23  1  0  0  0  0
 10 24  1  0  0  0  0
 11 15  1  0  0  0  0
 11 12  1  0  0  0  0
 11 25  1  0  0  0  0
 12 13  1  0  0  0  0
 12 26  1  0  0  0  0
 12 27  1  0  0  0  0
 13 14  1  0  0  0  0
 13 28  1  0  0  0  0
 13 29  1  0  0  0  0
 14 15  1  0  0  0  0
 14 30  1  0  0  0  0
 14 31  1  0  0  0  0
M  END
> <s_m_source_file>
AV-unprocessed.smi

> <i_m_source_file_index>
2740

> <i_lp_mmshare_version>
43012

> <i_f3d_flags>
0

> <s_epik_input>
W0NIM11jMVtjSF1uYyhzMSlbTkhdQyg9TylbTkhdW0NIMl1bQ0BASF0yW0NIMl1bQ0gyXVtDSDJdTzI=

> <s_epik_cmdline>
J2VwaWtfcHl0aG9uJywgJy1waCcsICc3LjAnLCAnLXRuJywgJzgnLCAnLW1hJywgJzIwMCcsICctbWV0YWxfYmluZGluZycsICctaW1hZScsICc8aW5maWxlLm1hZT4nLCAnLW9tYWUnLCAnPG91dGZpbGUubWFlPic=

> <r_lp_tautomer_probability>
0.999

> <r_epik_Ionization_Penalty>
0.000387528

> <r_epik_Ionization_Penalty_Charging>
0

> <r_epik_Ionization_Penalty_Neutral>
0.000387528

> <r_epik_State_Penalty>
0.000177984

> <r_epik_Charging_Adjusted_Penalty>
0.000177984

> <i_epik_Tot_Q>
0

> <i_epik_Tot_abs_Q>
0

> <r_epik_Metal_State_Penalty>
0.00626158

> <b_epik_Metal_Only>
0

> <s_lp_Force_Field>
OPLS_2005

> <r_lp_Energy>
15.3507

> <b_lp_Chiralities_Consistent>
1

> <s_lp_Variant>
AV-unprocessed.smi:2740-2

> <Gold.Version>
5.8.1

> <Gold.Id.Protein>
6NUR|6NUR_protein|mol2

> <Gold.PLP.Fitness>
34.2714

> <Gold.PLP.PLP>
-26.2706

> <Gold.PLP.part.hbond>
-2.0000

> <Gold.PLP.part.metal>
0.0000

> <Gold.PLP.part.buried>
-1.0994

> <Gold.PLP.part.nonpolar>
-24.3560

> <Gold.PLP.part.repulsive>
0.6753

> <Gold.PLP.ligand.clash>
0.0000

> <Gold.PLP.ligand.torsion>
0.3684

> <Gold.PLP.Chemscore.Hbond>
1.9120

> <Gold.PLP.Chemscore.CHOScore>
1.0000

> <Gold.PLP.Chemscore.Metal>
0.0000

> <Gold.Chemscore.Hbonds>
donor molecule, donor type, donor heavy atom, donor atom, acceptor molecule, acceptor atom, score
      L1  H     6    21       P1  7948  1.00
      L1  H     9    22       P1  7948  0.91
      L1  C     3    20       P1 10186  1.00

> <Gold.PLP.Chemscore.Internal.Correction>
0.0016

> <Gold.Rescore>
     Score         DG    S(hbond)    S(metal)    S(lipo)     H(rot)  DE(clash)    DE(int)     intcor
     15.47     -16.09       1.92        0.00      63.78       1.27       0.23       0.40       ----

> <Gold.Chemscore.Fitness>
15.4655

> <Gold.Chemscore.DG>
-16.0935

> <Gold.Chemscore.ZeroCoef>
-5.4800

> <Gold.Chemscore.Hbond>
1.9152

> <Gold.Chemscore.Metal>
0.0000

> <Gold.Chemscore.Lipo>
63.7794

> <Gold.Chemscore.Internal_Hbond>
0.0000

> <Gold.Chemscore.DEClash>
0.2265

> <Gold.Chemscore.DEInternal>
0.4015

> <Gold.Chemscore.Rot>
1.2678

> <Gold.Chemscore.Internal.Correction>
   9.000000E+99

> <Gold.Chemscore.Hbonds>
donor molecule, donor type, donor heavy atom, donor atom, acceptor molecule, acceptor atom, score
      L1  H     6    21       P1  7948  0.97
      L1  H     9    22       P1  7948  0.88

> <Gold.Chemscore.Hbond.Weighted>
-6.3968

> <Gold.Chemscore.Metal.Weighted>
-0.0000

> <Gold.Chemscore.Lipo.Weighted>
-7.4622

> <Gold.Chemscore.Internal_Hbond.Weighted>
0.0000

> <Gold.Chemscore.DEClash.Weighted>
0.2265

> <Gold.Chemscore.DEInternal.Weighted>
0.4015

> <Gold.Chemscore.Rot.Weighted>
3.2455

> <Gold.Chemscore.Internal.Correction.Weighted>
   9.000000E+99

> <Gold.Protein.RotatedTorsions>
[ 6907 6896 6895 6894 ] final -109.26 input  -60.11 | X-H torsion
[ 7974 7965 7964 7962 ] final -102.09 input  175.53 | X-H torsion
[ 8008 7997 7996 7995 ] final  135.82 input   59.86 | X-H torsion
[ 10167 10162 10161 10158 ] final   11.49 input  -65.29 | X-H torsion
[ 10718 10713 10712 10709 ] final   60.15 input   66.30 | X-H torsion
[ 10763 10752 10751 10750 ] final  143.93 input  -60.55 | X-H torsion
[ 11005 11000 10999 10996 ] final  171.67 input  -57.11 | X-H torsion

> <Gold.Protein.ActiveResidues>
 VAL166  LYS551  ARG553  GLY616  TRP617  ASP618  TYR619  PRO620  LYS621  CYS622 
 ASP623  PHE694  ASN695  SER759  ASP760  ASP761  ALA762  ILE779  LEU786  VAL792 
 PHE793  MET794  SER795  GLU796  ALA797  LYS798  CYS799  TRP800  GLU811  SER814 

> <Gold.Protein.RotatedAtoms>
  150.7551  133.9556  159.3499 H   0  0  0  0  0  0  0  0  0  0  0  0  # atno 6907 bound_to 6896
  151.7477  135.0838  160.0335 H   0  0  0  0  0  0  0  0  0  0  0  0  # atno 6908 bound_to 6896
  152.3487  133.6116  159.5965 H   0  0  0  0  0  0  0  0  0  0  0  0  # atno 6909 bound_to 6896
  145.2732  140.9305  143.2974 H   0  0  0  0  0  0  0  0  0  0  0  0  # atno 7974 bound_to 7965
  156.3003  140.2461  156.3644 H   0  0  0  0  0  0  0  0  0  0  0  0  # atno 8008 bound_to 7997
  154.8847  140.0411  157.1823 H   0  0  0  0  0  0  0  0  0  0  0  0  # atno 8009 bound_to 7997
  154.8659  140.2927  155.5514 H   0  0  0  0  0  0  0  0  0  0  0  0  # atno 8010 bound_to 7997
  140.6128  143.8371  150.7085 H   0  0  0  0  0  0  0  0  0  0  0  0  # atno 10167 bound_to 10162
  157.5731  130.8922  149.9300 H   0  0  0  0  0  0  0  0  0  0  0  0  # atno 10718 bound_to 10713
  153.9805  135.2942  155.3420 H   0  0  0  0  0  0  0  0  0  0  0  0  # atno 10763 bound_to 10752
  154.7271  135.5084  153.8908 H   0  0  0  0  0  0  0  0  0  0  0  0  # atno 10764 bound_to 10752
  153.0857  135.6692  154.0069 H   0  0  0  0  0  0  0  0  0  0  0  0  # atno 10765 bound_to 10752
  140.3215  134.7433  157.4067 H   0  0  0  0  0  0  0  0  0  0  0  0  # atno 11005 bound_to 11000
  144.9317  139.4291  143.6492 LP  0  0  0  0  0  0  0  0  0  0  0  0  # atno 17320 bound_to 7965
  146.3240  139.8231  142.8923 LP  0  0  0  0  0  0  0  0  0  0  0  0  # atno 17321 bound_to 7965
  140.1943  143.4011  152.1839 LP  0  0  0  0  0  0  0  0  0  0  0  0  # atno 17342 bound_to 10162
  139.5375  144.7224  151.4845 LP  0  0  0  0  0  0  0  0  0  0  0  0  # atno 17343 bound_to 10162
  156.0776  130.3677  150.0646 LP  0  0  0  0  0  0  0  0  0  0  0  0  # atno 17370 bound_to 10713
  156.8797  130.9552  151.3601 LP  0  0  0  0  0  0  0  0  0  0  0  0  # atno 17371 bound_to 10713
  140.0938  134.5566  155.8419 LP  0  0  0  0  0  0  0  0  0  0  0  0  # atno 17394 bound_to 11000
  141.2085  133.6674  156.6377 LP  0  0  0  0  0  0  0  0  0  0  0  0  # atno 17395 bound_to 11000

$$$$
