AV-unprocessed.smi:1721|AV-procd|sdf|6936|dock1
  -GOLD-   22720 8143D 1   1.00000     0.00000
 Structure written by MMmdl.
 44 46  0  0  0  0  0  0  0  0  2 V2000
  151.6753  138.2881  154.5980 C   0  0  0  0  0  0  0  0  0  0  0  0
  150.3055  138.1876  154.2243 O   0  0  0  0  0  0  0  0  0  0  0  0
  149.5209  139.3242  154.2783 C   0  0  0  0  0  0  0  0  0  0  0  0
  150.1021  140.4905  154.6554 N   0  0  0  0  0  0  0  0  0  0  0  0
  149.3380  141.6001  154.7132 C   0  0  0  0  0  0  0  0  0  0  0  0
  147.9657  141.6060  154.4061 C   0  0  0  0  0  0  0  0  0  0  0  0
  147.3600  140.3976  154.0152 C   0  0  0  0  0  0  0  0  0  0  0  0
  148.1507  139.2241  153.9395 C   0  0  0  0  0  0  0  0  0  0  0  0
  147.6531  137.9424  153.5690 N   0  0  0  0  0  0  0  0  0  0  0  0
  146.4884  137.3519  153.8857 C   0  0  0  0  0  0  0  0  0  0  0  0
  145.5922  137.8464  154.5684 O   0  0  0  0  0  0  0  0  0  0  0  0
  146.4106  136.1232  153.3555 N   0  0  0  0  0  0  0  0  0  0  0  0
  145.2767  135.2179  153.5224 C   0  0  1  0  0  0  0  0  0  0  0  0
  143.9707  135.7722  152.9679 C   0  0  0  0  0  0  0  0  0  0  0  0
  143.0982  134.5205  152.8252 C   0  0  0  0  0  0  0  0  0  0  0  0
  144.0199  133.3725  152.6382 N   0  3  1  0  0  0  0  0  0  0  0  0
  143.7571  132.5803  151.4068 C   0  0  0  0  0  0  0  0  0  0  0  0
  144.9543  131.6810  151.0645 C   0  0  0  0  0  0  0  0  0  0  0  0
  146.2204  132.5112  150.7806 C   0  0  0  0  0  0  0  0  0  0  0  0
  146.1771  133.8994  151.4475 C   0  0  0  0  0  0  0  0  0  0  0  0
  145.4179  133.8655  152.7969 C   0  0  1  0  0  0  0  0  0  0  0  0
  152.1481  137.3111  154.4992 H   0  0  0  0  0  0  0  0  0  0  0  0
  151.7839  138.6040  155.6364 H   0  0  0  0  0  0  0  0  0  0  0  0
  152.2149  138.9831  153.9530 H   0  0  0  0  0  0  0  0  0  0  0  0
  149.8347  142.5097  155.0171 H   0  0  0  0  0  0  0  0  0  0  0  0
  147.3894  142.5169  154.4714 H   0  0  0  0  0  0  0  0  0  0  0  0
  146.3050  140.4031  153.7942 H   0  0  0  0  0  0  0  0  0  0  0  0
  148.2600  137.4164  152.9570 H   0  0  0  0  0  0  0  0  0  0  0  0
  147.1878  135.7906  152.8032 H   0  0  0  0  0  0  0  0  0  0  0  0
  145.1298  135.0306  154.5885 H   0  0  0  0  0  0  0  0  0  0  0  0
  143.5219  136.5279  153.6133 H   0  0  0  0  0  0  0  0  0  0  0  0
  144.1359  136.2219  151.9876 H   0  0  0  0  0  0  0  0  0  0  0  0
  142.5354  134.3502  153.7436 H   0  0  0  0  0  0  0  0  0  0  0  0
  142.3738  134.6275  152.0164 H   0  0  0  0  0  0  0  0  0  0  0  0
  142.8569  131.9828  151.5549 H   0  0  0  0  0  0  0  0  0  0  0  0
  143.5595  133.2473  150.5657 H   0  0  0  0  0  0  0  0  0  0  0  0
  145.1403  131.0052  151.9004 H   0  0  0  0  0  0  0  0  0  0  0  0
  144.7249  131.0475  150.2072 H   0  0  0  0  0  0  0  0  0  0  0  0
  147.0934  131.9570  151.1269 H   0  0  0  0  0  0  0  0  0  0  0  0
  146.3517  132.6398  149.7056 H   0  0  0  0  0  0  0  0  0  0  0  0
  147.1973  134.2610  151.5760 H   0  0  0  0  0  0  0  0  0  0  0  0
  145.6881  134.6067  150.7761 H   0  0  0  0  0  0  0  0  0  0  0  0
  145.9463  133.1708  153.4519 H   0  0  0  0  0  0  0  0  0  0  0  0
  143.8595  132.7525  153.4195 H   0  0  0  0  0  0  0  0  0  0  0  0
  1  2  1  0  0  0  0
  1 22  1  0  0  0  0
  1 23  1  0  0  0  0
  1 24  1  0  0  0  0
  2  3  1  0  0  0  0
  3  8  1  0  0  0  0
  3  4  2  0  0  0  0
  4  5  1  0  0  0  0
  5  6  2  0  0  0  0
  5 25  1  0  0  0  0
  6  7  1  0  0  0  0
  6 26  1  0  0  0  0
  7  8  2  0  0  0  0
  7 27  1  0  0  0  0
  8  9  1  0  0  0  0
  9 10  1  0  0  0  0
  9 28  1  0  0  0  0
 10 11  2  0  0  0  0
 10 12  1  0  0  0  0
 12 13  1  0  0  0  0
 12 29  1  0  0  0  0
 13 21  1  0  0  0  0
 13 14  1  0  0  0  0
 13 30  1  0  0  0  0
 14 15  1  0  0  0  0
 14 31  1  0  0  0  0
 14 32  1  0  0  0  0
 15 16  1  0  0  0  0
 15 33  1  0  0  0  0
 15 34  1  0  0  0  0
 16 21  1  0  0  0  0
 16 17  1  0  0  0  0
 16 44  1  0  0  0  0
 17 18  1  0  0  0  0
 17 35  1  0  0  0  0
 17 36  1  0  0  0  0
 18 19  1  0  0  0  0
 18 37  1  0  0  0  0
 18 38  1  0  0  0  0
 19 20  1  0  0  0  0
 19 39  1  0  0  0  0
 19 40  1  0  0  0  0
 20 21  1  0  0  0  0
 20 41  1  0  0  0  0
 20 42  1  0  0  0  0
 21 43  1  0  0  0  0
M  CHG  1  16   1
M  END
> <s_m_source_file>
AV-unprocessed.smi

> <i_m_source_file_index>
1721

> <i_lp_mmshare_version>
43012

> <i_f3d_flags>
0

> <s_epik_input>
W0NIM11PYzFuW2NIXVtjSF1bY0hdYzFbTkhdQyg9TylbTkhdW0NASF0oW0NIMl1bQ0gyXTIpW0NAQEhdKE4yMylbQ0gyXVtDSDJdW0NIMl1bQ0gyXTM=

> <s_epik_cmdline>
J2VwaWtfcHl0aG9uJywgJy1waCcsICc3LjAnLCAnLXRuJywgJzgnLCAnLW1hJywgJzIwMCcsICctbWV0YWxfYmluZGluZycsICctaW1hZScsICc8aW5maWxlLm1hZT4nLCAnLW9tYWUnLCAnPG91dGZpbGUubWFlPic=

> <r_lp_tautomer_probability>
1

> <r_epik_Ionization_Penalty>
0.00104793

> <r_epik_Ionization_Penalty_Charging>
0.000974069

> <r_epik_Ionization_Penalty_Neutral>
7.38649e-05

> <r_epik_State_Penalty>
0.000633842

> <r_epik_Charging_Adjusted_Penalty>
0.00160791

> <i_epik_Tot_Q>
1

> <i_epik_Tot_abs_Q>
1

> <r_epik_Metal_State_Penalty>
-0

> <b_epik_Metal_Only>
0

> <s_lp_Force_Field>
OPLS_2005

> <r_lp_Energy>
43.723

> <b_lp_Chiralities_Consistent>
1

> <s_lp_Variant>
AV-unprocessed.smi:1721-2

> <Gold.Version>
5.8.1

> <Gold.Id.Protein>
6NUR|6NUR_protein|mol2

> <Gold.PLP.Fitness>
51.3645

> <Gold.PLP.PLP>
-35.0729

> <Gold.PLP.part.hbond>
-3.9808

> <Gold.PLP.part.metal>
0.0000

> <Gold.PLP.part.buried>
-5.2598

> <Gold.PLP.part.nonpolar>
-27.3693

> <Gold.PLP.part.repulsive>
0.4355

> <Gold.PLP.ligand.clash>
0.0000

> <Gold.PLP.ligand.torsion>
0.3123

> <Gold.PLP.Chemscore.Hbond>
4.6505

> <Gold.PLP.Chemscore.CHOScore>
0.9872

> <Gold.PLP.Chemscore.Metal>
0.0000

> <Gold.Chemscore.Hbonds>
donor molecule, donor type, donor heavy atom, donor atom, acceptor molecule, acceptor atom, score
      L1  H     9    28       P1  7948  1.00
      L1  H    12    29       P1  7948  0.95
      L1  H    16    44       P1 10957  1.89
      P1  H  7989  7998       L1     4  0.93
      L1  C     5    25       P1  8028  1.00

> <Gold.PLP.Chemscore.Internal.Correction>
0.0032

> <Gold.Rescore>
     Score         DG    S(hbond)    S(metal)    S(lipo)     H(rot)  DE(clash)    DE(int)     intcor
     20.93     -21.50       3.08        0.00      76.45       1.25       0.26       0.32       ----

> <Gold.Chemscore.Fitness>
20.9276

> <Gold.Chemscore.DG>
-21.5047

> <Gold.Chemscore.ZeroCoef>
-5.4800

> <Gold.Chemscore.Hbond>
3.0757

> <Gold.Chemscore.Metal>
0.0000

> <Gold.Chemscore.Lipo>
76.4547

> <Gold.Chemscore.Internal_Hbond>
0.0000

> <Gold.Chemscore.DEClash>
0.2571

> <Gold.Chemscore.DEInternal>
0.3200

> <Gold.Chemscore.Rot>
1.2474

> <Gold.Chemscore.Internal.Correction>
   9.000000E+99

> <Gold.Chemscore.Hbonds>
donor molecule, donor type, donor heavy atom, donor atom, acceptor molecule, acceptor atom, score
      L1  H     9    28       P1  7948  1.00
      L1  H    12    29       P1  7948  0.85
      L1  H    16    44       P1 10957  0.48
      P1  H  7989  7998       L1     4  0.40

> <Gold.Chemscore.Hbond.Weighted>
-10.2730

> <Gold.Chemscore.Metal.Weighted>
-0.0000

> <Gold.Chemscore.Lipo.Weighted>
-8.9452

> <Gold.Chemscore.Internal_Hbond.Weighted>
0.0000

> <Gold.Chemscore.DEClash.Weighted>
0.2571

> <Gold.Chemscore.DEInternal.Weighted>
0.3200

> <Gold.Chemscore.Rot.Weighted>
3.1934

> <Gold.Chemscore.Internal.Correction.Weighted>
   9.000000E+99

> <Gold.Protein.RotatedTorsions>
[ 6907 6896 6895 6894 ] final -156.21 input  -60.11 | X-H torsion
[ 7974 7965 7964 7962 ] final  -87.50 input  175.53 | X-H torsion
[ 8008 7997 7996 7995 ] final -117.67 input   59.86 | X-H torsion
[ 10167 10162 10161 10158 ] final  -67.59 input  -65.29 | X-H torsion
[ 10718 10713 10712 10709 ] final    1.86 input   66.30 | X-H torsion
[ 10763 10752 10751 10750 ] final    0.19 input  -60.55 | X-H torsion
[ 11005 11000 10999 10996 ] final  174.01 input  -57.11 | X-H torsion

> <Gold.Protein.ActiveResidues>
 VAL166  LYS551  ARG553  GLY616  TRP617  ASP618  TYR619  PRO620  LYS621  CYS622 
 ASP623  PHE694  ASN695  SER759  ASP760  ASP761  ALA762  ILE779  LEU786  VAL792 
 PHE793  MET794  SER795  GLU796  ALA797  LYS798  CYS799  TRP800  GLU811  SER814 

> <Gold.Protein.RotatedAtoms>
  151.2842  133.4195  159.2628 H   0  0  0  0  0  0  0  0  0  0  0  0  # atno 6907 bound_to 6896
  151.0334  134.9556  159.8133 H   0  0  0  0  0  0  0  0  0  0  0  0  # atno 6908 bound_to 6896
  152.5350  134.2803  159.9057 H   0  0  0  0  0  0  0  0  0  0  0  0  # atno 6909 bound_to 6896
  145.4657  140.9560  143.1945 H   0  0  0  0  0  0  0  0  0  0  0  0  # atno 7974 bound_to 7965
  155.0875  140.0394  157.2658 H   0  0  0  0  0  0  0  0  0  0  0  0  # atno 8008 bound_to 7997
  154.6858  140.2643  155.6837 H   0  0  0  0  0  0  0  0  0  0  0  0  # atno 8009 bound_to 7997
  156.2711  140.2769  156.1419 H   0  0  0  0  0  0  0  0  0  0  0  0  # atno 8010 bound_to 7997
  140.5571  143.2312  151.6800 H   0  0  0  0  0  0  0  0  0  0  0  0  # atno 10167 bound_to 10162
  156.8544  130.5565  149.5667 H   0  0  0  0  0  0  0  0  0  0  0  0  # atno 10718 bound_to 10713
  153.3238  135.6971  153.7007 H   0  0  0  0  0  0  0  0  0  0  0  0  # atno 10763 bound_to 10752
  153.5836  135.3493  155.2885 H   0  0  0  0  0  0  0  0  0  0  0  0  # atno 10764 bound_to 10752
  154.8603  135.4301  154.2410 H   0  0  0  0  0  0  0  0  0  0  0  0  # atno 10765 bound_to 10752
  140.3467  134.7230  157.4240 H   0  0  0  0  0  0  0  0  0  0  0  0  # atno 11005 bound_to 11000
  144.7975  139.6205  143.7086 LP  0  0  0  0  0  0  0  0  0  0  0  0  # atno 17320 bound_to 7965
  146.2425  139.6031  142.9481 LP  0  0  0  0  0  0  0  0  0  0  0  0  # atno 17321 bound_to 7965
  139.5053  144.3723  152.0458 LP  0  0  0  0  0  0  0  0  0  0  0  0  # atno 17342 bound_to 10162
  140.2846  144.3822  150.6108 LP  0  0  0  0  0  0  0  0  0  0  0  0  # atno 17343 bound_to 10162
  156.0810  130.5821  150.9563 LP  0  0  0  0  0  0  0  0  0  0  0  0  # atno 17370 bound_to 10713
  157.6285  131.0923  150.8487 LP  0  0  0  0  0  0  0  0  0  0  0  0  # atno 17371 bound_to 10713
  140.0736  134.5828  155.8615 LP  0  0  0  0  0  0  0  0  0  0  0  0  # atno 17394 bound_to 11000
  141.2023  133.6624  156.6001 LP  0  0  0  0  0  0  0  0  0  0  0  0  # atno 17395 bound_to 11000

$$$$
