AV-unprocessed.smi:2690|AV-procd|sdf|10389|dock10
  -GOLD-   2272014423D 1   1.00000     0.00000
 Structure written by MMmdl.
 47 49  0  0  0  0  0  0  0  0  1 V2000
  143.4788  134.3065  163.1896 C   0  0  0  0  0  0  0  0  0  0  0  0
  144.8213  135.0502  163.1567 C   0  0  2  0  0  0  0  0  0  0  0  0
  144.8064  136.1901  162.1208 C   0  0  0  0  0  0  0  0  0  0  0  0
  146.1568  136.9260  162.0674 C   0  0  0  0  0  0  0  0  0  0  0  0
  147.3433  135.9733  161.7959 C   0  0  2  0  0  0  0  0  0  0  0  0
  148.5221  136.7259  162.0156 O   0  0  0  0  0  0  0  0  0  0  0  0
  147.3664  135.4870  160.3202 C   0  0  0  0  0  0  0  0  0  0  0  0
  147.6156  136.5412  159.3466 N   0  0  0  0  0  0  0  0  0  0  0  0
  146.6793  137.3730  158.7722 C   0  0  0  0  0  0  0  0  0  0  0  0
  147.1506  138.2423  157.9200 N   0  0  0  0  0  0  0  0  0  0  0  0
  148.5147  137.9833  157.8975 C   0  0  0  0  0  0  0  0  0  0  0  0
  149.6112  138.5492  157.1964 C   0  0  0  0  0  0  0  0  0  0  0  0
  149.4306  139.5707  156.3296 N   0  0  0  0  0  0  0  0  0  0  0  0
  149.8157  139.4570  154.9253 C   0  0  0  0  0  0  0  0  0  0  0  0
  148.8305  138.5711  154.1445 C   0  0  0  0  0  0  0  0  0  0  0  0
  151.2453  138.9107  154.8184 C   0  0  0  0  0  0  0  0  0  0  0  0
  150.8441  138.0240  157.4225 N   0  0  0  0  0  0  0  0  0  0  0  0
  150.9940  137.0116  158.2823 C   0  0  0  0  0  0  0  0  0  0  0  0
  150.0627  136.3867  159.0062 N   0  0  0  0  0  0  0  0  0  0  0  0
  148.8244  136.9125  158.7822 C   0  0  0  0  0  0  0  0  0  0  0  0
  147.3390  134.8261  162.8345 C   0  0  0  0  0  0  0  0  0  0  0  0
  145.9906  134.0859  162.8829 C   0  0  0  0  0  0  0  0  0  0  0  0
  143.2614  133.8386  162.2291 H   0  0  0  0  0  0  0  0  0  0  0  0
  142.6589  134.9866  163.4221 H   0  0  0  0  0  0  0  0  0  0  0  0
  143.4823  133.5232  163.9481 H   0  0  0  0  0  0  0  0  0  0  0  0
  144.9761  135.4932  164.1416 H   0  0  0  0  0  0  0  0  0  0  0  0
  144.5580  135.7947  161.1356 H   0  0  0  0  0  0  0  0  0  0  0  0
  144.0179  136.9021  162.3672 H   0  0  0  0  0  0  0  0  0  0  0  0
  146.1199  137.7125  161.3125 H   0  0  0  0  0  0  0  0  0  0  0  0
  146.3067  137.4321  163.0226 H   0  0  0  0  0  0  0  0  0  0  0  0
  149.2223  136.1297  162.2325 H   0  0  0  0  0  0  0  0  0  0  0  0
  148.1249  134.7169  160.1815 H   0  0  0  0  0  0  0  0  0  0  0  0
  146.4161  135.0155  160.0661 H   0  0  0  0  0  0  0  0  0  0  0  0
  145.6270  137.3178  159.0101 H   0  0  0  0  0  0  0  0  0  0  0  0
  149.0723  140.4710  156.6141 H   0  0  0  0  0  0  0  0  0  0  0  0
  149.8188  140.4522  154.4791 H   0  0  0  0  0  0  0  0  0  0  0  0
  149.1203  138.4951  153.0963 H   0  0  0  0  0  0  0  0  0  0  0  0
  147.8178  138.9736  154.1725 H   0  0  0  0  0  0  0  0  0  0  0  0
  148.7970  137.5609  154.5534 H   0  0  0  0  0  0  0  0  0  0  0  0
  151.5666  138.8543  153.7780 H   0  0  0  0  0  0  0  0  0  0  0  0
  151.3225  137.9101  155.2453 H   0  0  0  0  0  0  0  0  0  0  0  0
  151.9511  139.5536  155.3452 H   0  0  0  0  0  0  0  0  0  0  0  0
  152.0044  136.6516  158.4081 H   0  0  0  0  0  0  0  0  0  0  0  0
  148.1467  134.1195  162.6429 H   0  0  0  0  0  0  0  0  0  0  0  0
  147.5375  135.2356  163.8264 H   0  0  0  0  0  0  0  0  0  0  0  0
  146.0279  133.3190  163.6574 H   0  0  0  0  0  0  0  0  0  0  0  0
  145.8195  133.5609  161.9436 H   0  0  0  0  0  0  0  0  0  0  0  0
  1  2  1  0  0  0  0
  1 23  1  0  0  0  0
  1 24  1  0  0  0  0
  1 25  1  0  0  0  0
  2 22  1  0  0  0  0
  2  3  1  0  0  0  0
  2 26  1  0  0  0  0
  3  4  1  0  0  0  0
  3 27  1  0  0  0  0
  3 28  1  0  0  0  0
  4  5  1  0  0  0  0
  4 29  1  0  0  0  0
  4 30  1  0  0  0  0
  5  6  1  0  0  0  0
  5  7  1  0  0  0  0
  5 21  1  0  0  0  0
  6 31  1  0  0  0  0
  7  8  1  0  0  0  0
  7 32  1  0  0  0  0
  7 33  1  0  0  0  0
  8 20  1  0  0  0  0
  8  9  1  0  0  0  0
  9 10  2  0  0  0  0
  9 34  1  0  0  0  0
 10 11  1  0  0  0  0
 11 20  2  0  0  0  0
 11 12  1  0  0  0  0
 12 13  1  0  0  0  0
 12 17  2  0  0  0  0
 13 14  1  0  0  0  0
 13 35  1  0  0  0  0
 14 15  1  0  0  0  0
 14 16  1  0  0  0  0
 14 36  1  0  0  0  0
 15 37  1  0  0  0  0
 15 38  1  0  0  0  0
 15 39  1  0  0  0  0
 16 40  1  0  0  0  0
 16 41  1  0  0  0  0
 16 42  1  0  0  0  0
 17 18  1  0  0  0  0
 18 19  2  0  0  0  0
 18 43  1  0  0  0  0
 19 20  1  0  0  0  0
 21 22  1  0  0  0  0
 21 44  1  0  0  0  0
 21 45  1  0  0  0  0
 22 46  1  0  0  0  0
 22 47  1  0  0  0  0
M  END
> <s_m_source_file>
AV-unprocessed.smi

> <i_m_source_file_index>
2690

> <i_lp_mmshare_version>
43012

> <i_f3d_flags>
0

> <s_epik_input>
W0NIMl0xW0NIMl1bQ0BIXShbQ0gzXSlbQ0gyXVtDSDJdW0NAQF0xKFtPSF0pW0NIMl1uKFtjSF1uMiljKGMyMyluW2NIXW5jM1tOSF1bQ0hdKFtDSDNdKVtDSDNd

> <s_epik_cmdline>
J2VwaWtfcHl0aG9uJywgJy1waCcsICc3LjAnLCAnLXRuJywgJzgnLCAnLW1hJywgJzIwMCcsICctbWV0YWxfYmluZGluZycsICctaW1hZScsICc8aW5maWxlLm1hZT4nLCAnLW9tYWUnLCAnPG91dGZpbGUubWFlPic=

> <r_lp_tautomer_probability>
1

> <r_epik_Ionization_Penalty>
0.00225104

> <r_epik_Ionization_Penalty_Charging>
0

> <r_epik_Ionization_Penalty_Neutral>
0.00225104

> <r_epik_State_Penalty>
-0

> <r_epik_Charging_Adjusted_Penalty>
0

> <i_epik_Tot_Q>
0

> <i_epik_Tot_abs_Q>
0

> <r_epik_Metal_State_Penalty>
-0

> <b_epik_Metal_Only>
0

> <s_lp_Force_Field>
OPLS_2005

> <r_lp_Energy>
15.1009

> <b_lp_Chiralities_Consistent>
1

> <s_lp_Variant>
AV-unprocessed.smi:2690-2

> <Gold.Version>
5.8.1

> <Gold.Id.Protein>
6NUR|6NUR_protein|mol2

> <Gold.PLP.Fitness>
42.9028

> <Gold.PLP.PLP>
-39.0918

> <Gold.PLP.part.hbond>
-2.0086

> <Gold.PLP.part.metal>
0.0000

> <Gold.PLP.part.buried>
-5.4417

> <Gold.PLP.part.nonpolar>
-32.3424

> <Gold.PLP.part.repulsive>
0.0179

> <Gold.PLP.ligand.clash>
0.0000

> <Gold.PLP.ligand.torsion>
1.1003

> <Gold.PLP.Chemscore.Hbond>
1.9913

> <Gold.PLP.Chemscore.CHOScore>
0.0000

> <Gold.PLP.Chemscore.Metal>
0.0000

> <Gold.Chemscore.Hbonds>
donor molecule, donor type, donor heavy atom, donor atom, acceptor molecule, acceptor atom, score
      P1  H  6896  6907       L1    19  1.00
      P1  H  6931  6943       L1     6  1.00

> <Gold.PLP.Chemscore.Internal.Correction>
0.0378

> <Gold.Rescore>
     Score         DG    S(hbond)    S(metal)    S(lipo)     H(rot)  DE(clash)    DE(int)     intcor
     13.42     -15.84       1.91        0.00      78.85       2.05       0.05       2.37       ----

> <Gold.Chemscore.Fitness>
13.4214

> <Gold.Chemscore.DG>
-15.8398

> <Gold.Chemscore.ZeroCoef>
-5.4800

> <Gold.Chemscore.Hbond>
1.9128

> <Gold.Chemscore.Metal>
0.0000

> <Gold.Chemscore.Lipo>
78.8509

> <Gold.Chemscore.Internal_Hbond>
0.0000

> <Gold.Chemscore.DEClash>
0.0509

> <Gold.Chemscore.DEInternal>
2.3675

> <Gold.Chemscore.Rot>
2.0526

> <Gold.Chemscore.Internal.Correction>
   9.000000E+99

> <Gold.Chemscore.Hbonds>
donor molecule, donor type, donor heavy atom, donor atom, acceptor molecule, acceptor atom, score
      P1  H  6896  6907       L1    19  0.50
      P1  H  6931  6943       L1     6  0.77

> <Gold.Chemscore.Hbond.Weighted>
-6.3888

> <Gold.Chemscore.Metal.Weighted>
-0.0000

> <Gold.Chemscore.Lipo.Weighted>
-9.2256

> <Gold.Chemscore.Internal_Hbond.Weighted>
0.0000

> <Gold.Chemscore.DEClash.Weighted>
0.0509

> <Gold.Chemscore.DEInternal.Weighted>
2.3675

> <Gold.Chemscore.Rot.Weighted>
5.2546

> <Gold.Chemscore.Internal.Correction.Weighted>
   9.000000E+99

> <Gold.Protein.RotatedTorsions>
[ 6907 6896 6895 6894 ] final  -42.17 input  -60.11 | X-H torsion
[ 7974 7965 7964 7962 ] final    2.03 input  175.53 | X-H torsion
[ 8008 7997 7996 7995 ] final  -42.55 input   59.86 | X-H torsion
[ 10167 10162 10161 10158 ] final  158.07 input  -65.29 | X-H torsion
[ 10718 10713 10712 10709 ] final   -9.93 input   66.30 | X-H torsion
[ 10763 10752 10751 10750 ] final  113.47 input  -60.55 | X-H torsion
[ 11005 11000 10999 10996 ] final  159.82 input  -57.11 | X-H torsion

> <Gold.Protein.ActiveResidues>
 VAL166  LYS551  ARG553  GLY616  TRP617  ASP618  TYR619  PRO620  LYS621  CYS622 
 ASP623  PHE694  ASN695  SER759  ASP760  ASP761  ALA762  ILE779  LEU786  VAL792 
 PHE793  MET794  SER795  GLU796  ALA797  LYS798  CYS799  TRP800  GLU811  SER814 

> <Gold.Protein.RotatedAtoms>
  150.9583  134.8974  159.7714 H   0  0  0  0  0  0  0  0  0  0  0  0  # atno 6907 bound_to 6896
  152.5146  134.3709  159.9328 H   0  0  0  0  0  0  0  0  0  0  0  0  # atno 6908 bound_to 6896
  151.3722  133.3810  159.2735 H   0  0  0  0  0  0  0  0  0  0  0  0  # atno 6909 bound_to 6896
  146.2442  140.0898  142.8352 H   0  0  0  0  0  0  0  0  0  0  0  0  # atno 7974 bound_to 7965
  154.3998  140.1470  156.3374 H   0  0  0  0  0  0  0  0  0  0  0  0  # atno 8008 bound_to 7997
  155.8388  140.3463  155.5597 H   0  0  0  0  0  0  0  0  0  0  0  0  # atno 8009 bound_to 7997
  155.8110  140.0884  157.1894 H   0  0  0  0  0  0  0  0  0  0  0  0  # atno 8010 bound_to 7997
  139.4825  144.4858  151.8379 H   0  0  0  0  0  0  0  0  0  0  0  0  # atno 10167 bound_to 10162
  156.6808  130.5036  149.5972 H   0  0  0  0  0  0  0  0  0  0  0  0  # atno 10718 bound_to 10713
  153.4929  135.3655  155.2501 H   0  0  0  0  0  0  0  0  0  0  0  0  # atno 10763 bound_to 10752
  154.8751  135.3981  154.3568 H   0  0  0  0  0  0  0  0  0  0  0  0  # atno 10764 bound_to 10752
  153.4190  135.7080  153.6372 H   0  0  0  0  0  0  0  0  0  0  0  0  # atno 10765 bound_to 10752
  140.1999  134.8346  157.3006 H   0  0  0  0  0  0  0  0  0  0  0  0  # atno 11005 bound_to 11000
  145.0660  140.9122  143.4910 LP  0  0  0  0  0  0  0  0  0  0  0  0  # atno 17320 bound_to 7965
  145.1023  139.2814  143.5680 LP  0  0  0  0  0  0  0  0  0  0  0  0  # atno 17321 bound_to 7965
  140.4338  144.2079  150.5888 LP  0  0  0  0  0  0  0  0  0  0  0  0  # atno 17342 bound_to 10162
  140.4752  143.2398  151.9033 LP  0  0  0  0  0  0  0  0  0  0  0  0  # atno 17343 bound_to 10162
  156.1869  130.6535  151.1016 LP  0  0  0  0  0  0  0  0  0  0  0  0  # atno 17370 bound_to 10713
  157.7044  131.0762  150.6715 LP  0  0  0  0  0  0  0  0  0  0  0  0  # atno 17371 bound_to 10713
  140.2066  134.4190  155.7634 LP  0  0  0  0  0  0  0  0  0  0  0  0  # atno 17394 bound_to 11000
  141.2227  133.7098  156.8270 LP  0  0  0  0  0  0  0  0  0  0  0  0  # atno 17395 bound_to 11000

$$$$
