AV-unprocessed.smi:1491|AV-procd|sdf|6033|dock2
  -GOLD-   22720 6133D 1   1.00000     0.00000
 Structure written by MMmdl.
 39 40  0  0  0  0  0  0  0  0  2 V2000
  145.5480  136.5999  154.7546 O   0  0  0  0  0  0  0  0  0  0  0  0
  146.5045  136.4149  154.0015 C   0  0  0  0  0  0  0  0  0  0  0  0
  146.6319  135.3489  153.1983 N   0  0  0  0  0  0  0  0  0  0  0  0
  145.6695  134.2559  153.0909 C   0  0  0  0  0  0  0  0  0  0  0  0
  146.1563  133.1369  152.1502 C   0  0  0  0  0  0  0  0  0  0  0  0
  145.3058  132.9780  150.9660 N   0  0  0  0  0  0  0  0  0  0  0  0
  145.5559  132.2021  149.8633 C   0  0  0  0  0  0  0  0  0  0  0  0
  144.4808  132.3549  149.0261 C   0  0  0  0  0  0  0  0  0  0  0  0
  143.6239  133.2219  149.6495 N   0  3  0  0  0  0  0  0  0  0  0  0
  144.1292  133.6032  150.8272 C   0  0  0  0  0  0  0  0  0  0  0  0
  147.5339  137.2629  153.8723 N   0  0  0  0  0  0  0  0  0  0  0  0
  147.6681  138.5328  154.5795 C   0  0  2  0  0  0  0  0  0  0  0  0
  146.9396  139.6400  153.7965 C   0  0  0  0  0  0  0  0  0  0  0  0
  147.0885  141.0083  154.4845 C   0  0  0  0  0  0  0  0  0  0  0  0
  148.5629  141.3801  154.7308 C   0  0  2  0  0  0  0  0  0  0  0  0
  149.2015  141.6637  153.5015 O   0  0  0  0  0  0  0  0  0  0  0  0
  149.3153  140.2573  155.4699 C   0  0  0  0  0  0  0  0  0  0  0  0
  149.1540  138.8922  154.7783 C   0  0  0  0  0  0  0  0  0  0  0  0
  147.4571  135.2863  152.6196 H   0  0  0  0  0  0  0  0  0  0  0  0
  145.5328  133.8454  154.0915 H   0  0  0  0  0  0  0  0  0  0  0  0
  144.6907  134.6262  152.7806 H   0  0  0  0  0  0  0  0  0  0  0  0
  147.1829  133.3176  151.8275 H   0  0  0  0  0  0  0  0  0  0  0  0
  146.1542  132.1821  152.6771 H   0  0  0  0  0  0  0  0  0  0  0  0
  146.4525  131.6077  149.7633 H   0  0  0  0  0  0  0  0  0  0  0  0
  144.2665  131.9219  148.0598 H   0  0  0  0  0  0  0  0  0  0  0  0
  143.6703  134.2739  151.5317 H   0  0  0  0  0  0  0  0  0  0  0  0
  148.2754  137.0202  153.2314 H   0  0  0  0  0  0  0  0  0  0  0  0
  147.1930  138.4448  155.5588 H   0  0  0  0  0  0  0  0  0  0  0  0
  147.3350  139.6984  152.7813 H   0  0  0  0  0  0  0  0  0  0  0  0
  145.8814  139.3943  153.6997 H   0  0  0  0  0  0  0  0  0  0  0  0
  146.5971  141.7814  153.8924 H   0  0  0  0  0  0  0  0  0  0  0  0
  146.5649  140.9808  155.4411 H   0  0  0  0  0  0  0  0  0  0  0  0
  148.6053  142.2914  155.3282 H   0  0  0  0  0  0  0  0  0  0  0  0
  149.1899  140.8824  152.9699 H   0  0  0  0  0  0  0  0  0  0  0  0
  150.3727  140.5074  155.5639 H   0  0  0  0  0  0  0  0  0  0  0  0
  148.9301  140.1833  156.4877 H   0  0  0  0  0  0  0  0  0  0  0  0
  149.6512  138.1248  155.3728 H   0  0  0  0  0  0  0  0  0  0  0  0
  149.6630  138.9097  153.8134 H   0  0  0  0  0  0  0  0  0  0  0  0
  142.7347  133.5298  149.2762 H   0  0  0  0  0  0  0  0  0  0  0  0
  1  2  2  0  0  0  0
  2  3  1  0  0  0  0
  2 11  1  0  0  0  0
  3  4  1  0  0  0  0
  3 19  1  0  0  0  0
  4  5  1  0  0  0  0
  4 20  1  0  0  0  0
  4 21  1  0  0  0  0
  5  6  1  0  0  0  0
  5 22  1  0  0  0  0
  5 23  1  0  0  0  0
  6 10  1  0  0  0  0
  6  7  1  0  0  0  0
  7  8  2  0  0  0  0
  7 24  1  0  0  0  0
  8  9  1  0  0  0  0
  8 25  1  0  0  0  0
  9 10  2  0  0  0  0
  9 39  1  0  0  0  0
 10 26  1  0  0  0  0
 11 12  1  0  0  0  0
 11 27  1  0  0  0  0
 12 18  1  0  0  0  0
 12 13  1  0  0  0  0
 12 28  1  0  0  0  0
 13 14  1  0  0  0  0
 13 29  1  0  0  0  0
 13 30  1  0  0  0  0
 14 15  1  0  0  0  0
 14 31  1  0  0  0  0
 14 32  1  0  0  0  0
 15 16  1  0  0  0  0
 15 17  1  0  0  0  0
 15 33  1  0  0  0  0
 16 34  1  0  0  0  0
 17 18  1  0  0  0  0
 17 35  1  0  0  0  0
 17 36  1  0  0  0  0
 18 37  1  0  0  0  0
 18 38  1  0  0  0  0
M  CHG  1   9   1
M  END
> <s_m_source_file>
AV-unprocessed.smi

> <i_m_source_file_index>
1491

> <i_lp_mmshare_version>
43012

> <i_f3d_flags>
0

> <s_epik_input>
W0NIMl0xW0NIMl1bQ0BIXShbT0hdKVtDSDJdW0NIMl1bQ0BIXTFbTkhdQyg9TylbTkhdW0NIMl1bQ0gyXW4yW2NIXVtjSF1uW2NIXTI=

> <s_epik_cmdline>
J2VwaWtfcHl0aG9uJywgJy1waCcsICc3LjAnLCAnLXRuJywgJzgnLCAnLW1hJywgJzIwMCcsICctbWV0YWxfYmluZGluZycsICctaW1hZScsICc8aW5maWxlLm1hZT4nLCAnLW9tYWUnLCAnPG91dGZpbGUubWFlPic=

> <r_lp_tautomer_probability>
1

> <r_epik_Ionization_Penalty>
0.254652

> <r_epik_Ionization_Penalty_Charging>
0

> <r_epik_Ionization_Penalty_Neutral>
0.254652

> <r_epik_State_Penalty>
0.246077

> <r_epik_Charging_Adjusted_Penalty>
0.246077

> <i_epik_Tot_Q>
1

> <i_epik_Tot_abs_Q>
1

> <r_epik_Metal_State_Penalty>
0.536042

> <b_epik_Metal_Only>
0

> <s_lp_Force_Field>
OPLS_2005

> <r_lp_Energy>
9.89821

> <b_lp_Chiralities_Consistent>
1

> <s_lp_Variant>
AV-unprocessed.smi:1491-2

> <Gold.Version>
5.8.1

> <Gold.Id.Protein>
6NUR|6NUR_protein|mol2

> <Gold.PLP.Fitness>
45.5357

> <Gold.PLP.PLP>
-29.0386

> <Gold.PLP.part.hbond>
-5.4102

> <Gold.PLP.part.metal>
0.0000

> <Gold.PLP.part.buried>
-2.5239

> <Gold.PLP.part.nonpolar>
-20.2121

> <Gold.PLP.part.repulsive>
0.1230

> <Gold.PLP.ligand.clash>
0.0000

> <Gold.PLP.ligand.torsion>
0.8268

> <Gold.PLP.Chemscore.Hbond>
5.2179

> <Gold.PLP.Chemscore.CHOScore>
0.8266

> <Gold.PLP.Chemscore.Metal>
0.0000

> <Gold.Chemscore.Hbonds>
donor molecule, donor type, donor heavy atom, donor atom, acceptor molecule, acceptor atom, score
      L1  H     3    19       P1  7948  0.94
      L1  H     9    39       P1 10186  1.98
      L1  H    11    27       P1  7948  1.00
      L1  H    16    34       P1  7957  0.92
      P1  H  8011  8017       L1    16  0.32
      L1  C     7    24       P1 10747  0.66

> <Gold.PLP.Chemscore.Internal.Correction>
0.0172

> <Gold.Rescore>
     Score         DG    S(hbond)    S(metal)    S(lipo)     H(rot)  DE(clash)    DE(int)     intcor
     18.09     -18.98       3.80        0.00      65.01       2.65       0.14       0.74       ----

> <Gold.Chemscore.Fitness>
18.0902

> <Gold.Chemscore.DG>
-18.9759

> <Gold.Chemscore.ZeroCoef>
-5.4800

> <Gold.Chemscore.Hbond>
3.7974

> <Gold.Chemscore.Metal>
0.0000

> <Gold.Chemscore.Lipo>
65.0081

> <Gold.Chemscore.Internal_Hbond>
0.0000

> <Gold.Chemscore.DEClash>
0.1439

> <Gold.Chemscore.DEInternal>
0.7418

> <Gold.Chemscore.Rot>
2.6536

> <Gold.Chemscore.Internal.Correction>
   9.000000E+99

> <Gold.Chemscore.Hbonds>
donor molecule, donor type, donor heavy atom, donor atom, acceptor molecule, acceptor atom, score
      L1  H     3    19       P1  7948  0.92
      L1  H     9    39       P1 10186  0.93
      L1  H    11    27       P1  7948  0.98
      L1  H    16    34       P1  7957  0.83
      P1  H  8011  8017       L1    16  0.01

> <Gold.Chemscore.Hbond.Weighted>
-12.6833

> <Gold.Chemscore.Metal.Weighted>
-0.0000

> <Gold.Chemscore.Lipo.Weighted>
-7.6059

> <Gold.Chemscore.Internal_Hbond.Weighted>
0.0000

> <Gold.Chemscore.DEClash.Weighted>
0.1439

> <Gold.Chemscore.DEInternal.Weighted>
0.7418

> <Gold.Chemscore.Rot.Weighted>
6.7933

> <Gold.Chemscore.Internal.Correction.Weighted>
   9.000000E+99

> <Gold.Protein.RotatedTorsions>
[ 6907 6896 6895 6894 ] final   62.76 input  -60.11 | X-H torsion
[ 7974 7965 7964 7962 ] final -166.54 input  175.53 | X-H torsion
[ 8008 7997 7996 7995 ] final  102.77 input   59.86 | X-H torsion
[ 10167 10162 10161 10158 ] final -156.92 input  -65.29 | X-H torsion
[ 10718 10713 10712 10709 ] final  -94.31 input   66.30 | X-H torsion
[ 10763 10752 10751 10750 ] final  158.72 input  -60.55 | X-H torsion
[ 11005 11000 10999 10996 ] final  -25.30 input  -57.11 | X-H torsion

> <Gold.Protein.ActiveResidues>
 VAL166  LYS551  ARG553  GLY616  TRP617  ASP618  TYR619  PRO620  LYS621  CYS622 
 ASP623  PHE694  ASN695  SER759  ASP760  ASP761  ALA762  ILE779  LEU786  VAL792 
 PHE793  MET794  SER795  GLU796  ALA797  LYS798  CYS799  TRP800  GLU811  SER814 

> <Gold.Protein.RotatedAtoms>
  152.4198  134.5976  159.9990 H   0  0  0  0  0  0  0  0  0  0  0  0  # atno 6907 bound_to 6896
  151.6129  133.3340  159.3079 H   0  0  0  0  0  0  0  0  0  0  0  0  # atno 6908 bound_to 6896
  150.8086  134.7265  159.6733 H   0  0  0  0  0  0  0  0  0  0  0  0  # atno 6909 bound_to 6896
  144.7243  140.2651  143.6259 H   0  0  0  0  0  0  0  0  0  0  0  0  # atno 7974 bound_to 7965
  156.1424  140.3176  155.8516 H   0  0  0  0  0  0  0  0  0  0  0  0  # atno 8008 bound_to 7997
  155.4129  140.0507  157.3047 H   0  0  0  0  0  0  0  0  0  0  0  0  # atno 8009 bound_to 7997
  154.4987  140.2121  155.9404 H   0  0  0  0  0  0  0  0  0  0  0  0  # atno 8010 bound_to 7997
  139.6812  143.9578  152.2337 H   0  0  0  0  0  0  0  0  0  0  0  0  # atno 10167 bound_to 10162
  156.0025  130.5062  150.5907 H   0  0  0  0  0  0  0  0  0  0  0  0  # atno 10718 bound_to 10713
  154.2205  135.2782  155.2926 H   0  0  0  0  0  0  0  0  0  0  0  0  # atno 10763 bound_to 10752
  154.5705  135.5620  153.7094 H   0  0  0  0  0  0  0  0  0  0  0  0  # atno 10764 bound_to 10752
  153.0043  135.6320  154.2345 H   0  0  0  0  0  0  0  0  0  0  0  0  # atno 10765 bound_to 10752
  140.8925  133.7579  156.0439 H   0  0  0  0  0  0  0  0  0  0  0  0  # atno 11005 bound_to 11000
  145.8098  139.1998  143.1999 LP  0  0  0  0  0  0  0  0  0  0  0  0  # atno 17320 bound_to 7965
  146.0606  140.7975  142.9737 LP  0  0  0  0  0  0  0  0  0  0  0  0  # atno 17321 bound_to 7965
  139.9369  144.6706  150.8306 LP  0  0  0  0  0  0  0  0  0  0  0  0  # atno 17342 bound_to 10162
  140.7653  143.3271  151.2492 LP  0  0  0  0  0  0  0  0  0  0  0  0  # atno 17343 bound_to 10162
  157.3772  131.0775  151.1507 LP  0  0  0  0  0  0  0  0  0  0  0  0  # atno 17370 bound_to 10713
  157.2241  130.6495  149.5823 LP  0  0  0  0  0  0  0  0  0  0  0  0  # atno 17371 bound_to 10713
  140.8329  134.3157  157.5342 LP  0  0  0  0  0  0  0  0  0  0  0  0  # atno 17394 bound_to 11000
  139.8731  134.9373  156.3685 LP  0  0  0  0  0  0  0  0  0  0  0  0  # atno 17395 bound_to 11000

$$$$
