AV-unprocessed.smi:344|AV-procd|sdf|2389|dock6
  -GOLD-   2262022313D 1   1.00000     0.00000
 Structure written by MMmdl.
 38 39  0  0  0  0  0  0  0  0  1 V2000
  144.8573  137.8240  152.4194 N   0  0  0  0  0  0  0  0  0  0  0  0
  145.9545  138.1413  153.1118 C   0  0  0  0  0  0  0  0  0  0  0  0
  146.2075  137.6362  154.2038 O   0  0  0  0  0  0  0  0  0  0  0  0
  146.8998  139.1734  152.4904 C   0  0  0  0  0  0  0  0  0  0  0  0
  147.1078  140.3303  153.4253 C   0  0  0  0  0  0  0  0  0  0  0  0
  146.1697  141.2559  153.8161 C   0  0  0  0  0  0  0  0  0  0  0  0
  146.8307  142.4347  154.9169 S   0  0  0  0  0  0  0  0  0  0  0  0
  148.3775  141.6094  154.8105 C   0  0  0  0  0  0  0  0  0  0  0  0
  149.5173  142.0552  155.5297 N   0  0  0  0  0  0  0  0  0  0  0  0
  150.4620  141.3160  156.1407 C   0  0  0  0  0  0  0  0  0  0  0  0
  150.4820  140.0844  156.1563 O   0  0  0  0  0  0  0  0  0  0  0  0
  151.5587  142.1211  156.8473 C   0  0  0  0  0  0  0  0  0  0  0  0
  151.5403  141.9889  158.3831 C   0  0  0  0  0  0  0  0  0  0  0  0
  152.1806  143.1910  159.1000 C   0  0  0  0  0  0  0  0  0  0  0  0
  152.0535  143.1649  160.6273 C   0  0  0  0  0  0  0  0  0  0  0  0
  152.2174  144.6219  161.0786 C   0  0  0  0  0  0  0  0  0  0  0  0
  151.9819  145.4915  159.8348 C   0  0  0  0  0  0  0  0  0  0  0  0
  151.5480  144.5321  158.7236 C   0  0  0  0  0  0  0  0  0  0  0  0
  148.3631  140.5412  154.0055 N   0  0  0  0  0  0  0  0  0  0  0  0
  144.2063  137.1501  152.7962 H   0  0  0  0  0  0  0  0  0  0  0  0
  144.6793  138.2591  151.5260 H   0  0  0  0  0  0  0  0  0  0  0  0
  147.8558  138.7084  152.2454 H   0  0  0  0  0  0  0  0  0  0  0  0
  146.4718  139.5097  151.5452 H   0  0  0  0  0  0  0  0  0  0  0  0
  145.1332  141.3168  153.5198 H   0  0  0  0  0  0  0  0  0  0  0  0
  149.6271  143.0568  155.5898 H   0  0  0  0  0  0  0  0  0  0  0  0
  152.5251  141.7952  156.4607 H   0  0  0  0  0  0  0  0  0  0  0  0
  151.4459  143.1692  156.5676 H   0  0  0  0  0  0  0  0  0  0  0  0
  150.5085  141.8931  158.7243 H   0  0  0  0  0  0  0  0  0  0  0  0
  152.0474  141.0704  158.6826 H   0  0  0  0  0  0  0  0  0  0  0  0
  153.2403  143.2355  158.8430 H   0  0  0  0  0  0  0  0  0  0  0  0
  151.0623  142.8087  160.9113 H   0  0  0  0  0  0  0  0  0  0  0  0
  152.7850  142.5051  161.0948 H   0  0  0  0  0  0  0  0  0  0  0  0
  151.5143  144.8636  161.8760 H   0  0  0  0  0  0  0  0  0  0  0  0
  153.2217  144.7928  161.4676 H   0  0  0  0  0  0  0  0  0  0  0  0
  151.2393  146.2703  160.0107 H   0  0  0  0  0  0  0  0  0  0  0  0
  152.9126  145.9855  159.5528 H   0  0  0  0  0  0  0  0  0  0  0  0
  151.8521  144.8762  157.7345 H   0  0  0  0  0  0  0  0  0  0  0  0
  150.4604  144.4442  158.7234 H   0  0  0  0  0  0  0  0  0  0  0  0
  1  2  1  0  0  0  0
  1 20  1  0  0  0  0
  1 21  1  0  0  0  0
  2  3  2  0  0  0  0
  2  4  1  0  0  0  0
  4  5  1  0  0  0  0
  4 22  1  0  0  0  0
  4 23  1  0  0  0  0
  5 19  1  0  0  0  0
  5  6  2  0  0  0  0
  6  7  1  0  0  0  0
  6 24  1  0  0  0  0
  7  8  1  0  0  0  0
  8  9  1  0  0  0  0
  8 19  2  0  0  0  0
  9 10  1  0  0  0  0
  9 25  1  0  0  0  0
 10 11  2  0  0  0  0
 10 12  1  0  0  0  0
 12 13  1  0  0  0  0
 12 26  1  0  0  0  0
 12 27  1  0  0  0  0
 13 14  1  0  0  0  0
 13 28  1  0  0  0  0
 13 29  1  0  0  0  0
 14 18  1  0  0  0  0
 14 15  1  0  0  0  0
 14 30  1  0  0  0  0
 15 16  1  0  0  0  0
 15 31  1  0  0  0  0
 15 32  1  0  0  0  0
 16 17  1  0  0  0  0
 16 33  1  0  0  0  0
 16 34  1  0  0  0  0
 17 18  1  0  0  0  0
 17 35  1  0  0  0  0
 17 36  1  0  0  0  0
 18 37  1  0  0  0  0
 18 38  1  0  0  0  0
M  END
> <s_m_source_file>
AV-unprocessed.smi

> <i_m_source_file_index>
344

> <i_lp_mmshare_version>
43012

> <i_f3d_flags>
0

> <s_epik_input>
W05IMl1DKD1PKVtDSDJdYzFbY0hdc2MobjEpW05IXUMoPU8pW0NIMl1bQ0gyXVtDSF0yW0NIMl1bQ0gyXVtDSDJdW0NIMl0y

> <s_epik_cmdline>
J2VwaWtfcHl0aG9uJywgJy1waCcsICc3LjAnLCAnLXRuJywgJzgnLCAnLW1hJywgJzIwMCcsICctbWV0YWxfYmluZGluZycsICctaW1hZScsICc8aW5maWxlLm1hZT4nLCAnLW9tYWUnLCAnPG91dGZpbGUubWFlPic=

> <r_lp_tautomer_probability>
1

> <r_epik_Ionization_Penalty>
0.000156249

> <r_epik_Ionization_Penalty_Charging>
0

> <r_epik_Ionization_Penalty_Neutral>
0.000156249

> <r_epik_State_Penalty>
-0

> <r_epik_Charging_Adjusted_Penalty>
0

> <i_epik_Tot_Q>
0

> <i_epik_Tot_abs_Q>
0

> <r_epik_Metal_State_Penalty>
0.0972404

> <b_epik_Metal_Only>
0

> <s_lp_Force_Field>
OPLS_2005

> <r_lp_Energy>
21.4861

> <b_lp_Chiralities_Consistent>
1

> <s_lp_Variant>
AV-unprocessed.smi:344-1

> <Gold.Version>
5.8.1

> <Gold.Id.Protein>
6NUR|6NUR_protein|mol2

> <Gold.PLP.Fitness>
45.8670

> <Gold.PLP.PLP>
-38.3136

> <Gold.PLP.part.hbond>
-3.0000

> <Gold.PLP.part.metal>
0.0000

> <Gold.PLP.part.buried>
-1.1548

> <Gold.PLP.part.nonpolar>
-35.3413

> <Gold.PLP.part.repulsive>
1.1425

> <Gold.PLP.ligand.clash>
0.0000

> <Gold.PLP.ligand.torsion>
0.5537

> <Gold.PLP.Chemscore.Hbond>
2.0000

> <Gold.PLP.Chemscore.CHOScore>
0.8735

> <Gold.PLP.Chemscore.Metal>
0.0000

> <Gold.Chemscore.Hbonds>
donor molecule, donor type, donor heavy atom, donor atom, acceptor molecule, acceptor atom, score
      L1  H     1    21       P1 10171  1.00
      L1  H     9    25       P1  8028  0.99
      L1  C     6    24       P1 10175  0.81

> <Gold.PLP.Chemscore.Internal.Correction>
0.0404

> <Gold.Rescore>
     Score         DG    S(hbond)    S(metal)    S(lipo)     H(rot)  DE(clash)    DE(int)     intcor
     14.11     -17.89       1.91        0.00     104.97       2.44       3.04       0.74       ----

> <Gold.Chemscore.Fitness>
14.1098

> <Gold.Chemscore.DG>
-17.8920

> <Gold.Chemscore.ZeroCoef>
-5.4800

> <Gold.Chemscore.Hbond>
1.9091

> <Gold.Chemscore.Metal>
0.0000

> <Gold.Chemscore.Lipo>
104.9746

> <Gold.Chemscore.Internal_Hbond>
0.0000

> <Gold.Chemscore.DEClash>
3.0405

> <Gold.Chemscore.DEInternal>
0.7417

> <Gold.Chemscore.Rot>
2.4400

> <Gold.Chemscore.Internal.Correction>
   9.000000E+99

> <Gold.Chemscore.Hbonds>
donor molecule, donor type, donor heavy atom, donor atom, acceptor molecule, acceptor atom, score
      L1  H     1    21       P1 10171  0.99
      L1  H     9    25       P1  8028  0.94

> <Gold.Chemscore.Hbond.Weighted>
-6.3764

> <Gold.Chemscore.Metal.Weighted>
-0.0000

> <Gold.Chemscore.Lipo.Weighted>
-12.2820

> <Gold.Chemscore.Internal_Hbond.Weighted>
0.0000

> <Gold.Chemscore.DEClash.Weighted>
3.0405

> <Gold.Chemscore.DEInternal.Weighted>
0.7417

> <Gold.Chemscore.Rot.Weighted>
6.2465

> <Gold.Chemscore.Internal.Correction.Weighted>
   9.000000E+99

> <Gold.Protein.RotatedTorsions>
[ 6907 6896 6895 6894 ] final   57.82 input  -60.11 | X-H torsion
[ 7974 7965 7964 7962 ] final  -76.66 input  175.53 | X-H torsion
[ 8008 7997 7996 7995 ] final   -4.93 input   59.86 | X-H torsion
[ 10167 10162 10161 10158 ] final   69.14 input  -65.29 | X-H torsion
[ 10718 10713 10712 10709 ] final  -22.29 input   66.30 | X-H torsion
[ 10763 10752 10751 10750 ] final  -27.95 input  -60.55 | X-H torsion
[ 11005 11000 10999 10996 ] final  158.74 input  -57.11 | X-H torsion

> <Gold.Protein.ActiveResidues>
 VAL166  LYS551  ARG553  GLY616  TRP617  ASP618  TYR619  PRO620  LYS621  CYS622 
 ASP623  PHE694  ASN695  SER759  ASP760  ASP761  ALA762  ILE779  LEU786  VAL792 
 PHE793  MET794  SER795  GLU796  ALA797  LYS798  CYS799  TRP800  GLU811  SER814 

> <Gold.Protein.RotatedAtoms>
  152.3767  134.6652  160.0157 H   0  0  0  0  0  0  0  0  0  0  0  0  # atno 6907 bound_to 6896
  151.6928  133.3305  159.3255 H   0  0  0  0  0  0  0  0  0  0  0  0  # atno 6908 bound_to 6896
  150.7715  134.6619  159.6389 H   0  0  0  0  0  0  0  0  0  0  0  0  # atno 6909 bound_to 6896
  145.6099  140.9389  143.1195 H   0  0  0  0  0  0  0  0  0  0  0  0  # atno 7974 bound_to 7965
  154.6091  140.2471  155.7692 H   0  0  0  0  0  0  0  0  0  0  0  0  # atno 8008 bound_to 7997
  156.2360  140.2950  156.0263 H   0  0  0  0  0  0  0  0  0  0  0  0  # atno 8009 bound_to 7997
  155.2081  140.0396  157.2919 H   0  0  0  0  0  0  0  0  0  0  0  0  # atno 8010 bound_to 7997
  140.0710  144.5152  150.7227 H   0  0  0  0  0  0  0  0  0  0  0  0  # atno 10167 bound_to 10162
  156.5065  130.4600  149.6672 H   0  0  0  0  0  0  0  0  0  0  0  0  # atno 10718 bound_to 10713
  153.7403  135.6933  153.4968 H   0  0  0  0  0  0  0  0  0  0  0  0  # atno 10763 bound_to 10752
  153.2073  135.4415  155.0337 H   0  0  0  0  0  0  0  0  0  0  0  0  # atno 10764 bound_to 10752
  154.8223  135.3428  154.6929 H   0  0  0  0  0  0  0  0  0  0  0  0  # atno 10765 bound_to 10752
  140.1894  134.8418  157.2895 H   0  0  0  0  0  0  0  0  0  0  0  0  # atno 11005 bound_to 11000
  144.7274  139.7832  143.7360 LP  0  0  0  0  0  0  0  0  0  0  0  0  # atno 17320 bound_to 7965
  146.1512  139.4596  143.0047 LP  0  0  0  0  0  0  0  0  0  0  0  0  # atno 17321 bound_to 7965
  140.7125  143.2517  151.4536 LP  0  0  0  0  0  0  0  0  0  0  0  0  # atno 17342 bound_to 10162
  139.5836  144.1655  152.2000 LP  0  0  0  0  0  0  0  0  0  0  0  0  # atno 17343 bound_to 10162
  156.3282  130.7317  151.2242 LP  0  0  0  0  0  0  0  0  0  0  0  0  # atno 17370 bound_to 10713
  157.7456  131.0437  150.4757 LP  0  0  0  0  0  0  0  0  0  0  0  0  # atno 17371 bound_to 10713
  140.2176  134.4062  155.7581 LP  0  0  0  0  0  0  0  0  0  0  0  0  # atno 17394 bound_to 11000
  141.2226  133.7150  156.8439 LP  0  0  0  0  0  0  0  0  0  0  0  0  # atno 17395 bound_to 11000

$$$$
