AV-unprocessed.smi:27|AV-procd|sdf|188|dock10
  -GOLD-   2262015453D 1   1.00000     0.00000
 Structure written by MMmdl.
 53 56  0  0  0  0  0  0  0  0  1 V2000
  151.0249  137.1854  159.9486 O   0  0  0  0  0  0  0  0  0  0  0  0
  150.3434  137.4193  158.9491 C   0  0  0  0  0  0  0  0  0  0  0  0
  150.7822  138.4671  157.9151 C   0  0  0  0  0  0  0  0  0  0  0  0
  151.5017  139.6155  158.5076 N   0  0  0  0  0  0  0  0  0  0  0  0
  152.7280  139.3781  159.1764 C   0  0  0  0  0  0  0  0  0  0  0  0
  153.2001  138.2434  159.2612 O   0  0  0  0  0  0  0  0  0  0  0  0
  153.3707  140.5555  159.7491 C   0  0  0  0  0  0  0  0  0  0  0  0
  154.5444  140.4262  160.3907 F   0  0  0  0  0  0  0  0  0  0  0  0
  152.8067  141.7765  159.6438 C   0  0  0  0  0  0  0  0  0  0  0  0
  151.6002  141.9909  159.0013 N   0  0  0  0  0  0  0  0  0  0  0  0
  150.9782  143.3675  158.8934 C   0  0  1  0  0  0  0  0  0  0  0  0
  151.2284  144.1787  160.1790 C   0  0  0  0  0  0  0  0  0  0  0  0
  151.7999  145.4784  159.6484 C   0  0  0  0  0  0  0  0  0  0  0  0
  152.4887  145.0205  158.3716 C   0  0  0  0  0  0  0  0  0  0  0  0
  151.5684  144.0759  157.8408 O   0  0  0  0  0  0  0  0  0  0  0  0
  150.9208  140.9021  158.4130 C   0  0  0  0  0  0  0  0  0  0  0  0
  149.8437  141.0722  157.8372 O   0  0  0  0  0  0  0  0  0  0  0  0
  149.1909  136.7874  158.6813 N   0  0  0  0  0  0  0  0  0  0  0  0
  148.5782  135.7490  159.5104 C   0  0  0  0  0  0  0  0  0  0  0  0
  147.8960  134.6619  158.6853 C   0  0  0  0  0  0  0  0  0  0  0  0
  146.8187  134.9658  157.8213 C   0  0  0  0  0  0  0  0  0  0  0  0
  146.1971  133.9470  157.0738 C   0  0  0  0  0  0  0  0  0  0  0  0
  146.6448  132.6171  157.1861 C   0  0  0  0  0  0  0  0  0  0  0  0
  147.7132  132.3059  158.0488 C   0  0  0  0  0  0  0  0  0  0  0  0
  148.3345  133.3245  158.7970 C   0  0  0  0  0  0  0  0  0  0  0  0
  147.6125  136.3392  160.5305 C   0  0  0  0  0  0  0  0  0  0  0  0
  146.3889  136.9195  160.1247 C   0  0  0  0  0  0  0  0  0  0  0  0
  145.5045  137.4559  161.0803 C   0  0  0  0  0  0  0  0  0  0  0  0
  145.8344  137.4140  162.4482 C   0  0  0  0  0  0  0  0  0  0  0  0
  147.0476  136.8307  162.8603 C   0  0  0  0  0  0  0  0  0  0  0  0
  147.9319  136.2930  161.9051 C   0  0  0  0  0  0  0  0  0  0  0  0
  151.3922  137.9693  157.1595 H   0  0  0  0  0  0  0  0  0  0  0  0
  149.9023  138.8020  157.3633 H   0  0  0  0  0  0  0  0  0  0  0  0
  153.3359  142.6061  160.0867 H   0  0  0  0  0  0  0  0  0  0  0  0
  149.9236  143.1983  158.6691 H   0  0  0  0  0  0  0  0  0  0  0  0
  150.3053  144.3130  160.7435 H   0  0  0  0  0  0  0  0  0  0  0  0
  151.9597  143.6711  160.8102 H   0  0  0  0  0  0  0  0  0  0  0  0
  150.9940  146.1737  159.4096 H   0  0  0  0  0  0  0  0  0  0  0  0
  152.4780  145.9655  160.3494 H   0  0  0  0  0  0  0  0  0  0  0  0
  152.6733  145.8375  157.6740 H   0  0  0  0  0  0  0  0  0  0  0  0
  153.4397  144.5357  158.5961 H   0  0  0  0  0  0  0  0  0  0  0  0
  148.6973  137.0429  157.8386 H   0  0  0  0  0  0  0  0  0  0  0  0
  149.3803  135.2740  160.0792 H   0  0  0  0  0  0  0  0  0  0  0  0
  146.4601  135.9803  157.7287 H   0  0  0  0  0  0  0  0  0  0  0  0
  145.3755  134.1861  156.4148 H   0  0  0  0  0  0  0  0  0  0  0  0
  146.1681  131.8361  156.6121 H   0  0  0  0  0  0  0  0  0  0  0  0
  148.0557  131.2856  158.1377 H   0  0  0  0  0  0  0  0  0  0  0  0
  149.1514  133.0751  159.4583 H   0  0  0  0  0  0  0  0  0  0  0  0
  146.1185  136.9513  159.0795 H   0  0  0  0  0  0  0  0  0  0  0  0
  144.5714  137.8979  160.7634 H   0  0  0  0  0  0  0  0  0  0  0  0
  145.1560  137.8258  163.1809 H   0  0  0  0  0  0  0  0  0  0  0  0
  147.3003  136.7947  163.9098 H   0  0  0  0  0  0  0  0  0  0  0  0
  148.8587  135.8449  162.2327 H   0  0  0  0  0  0  0  0  0  0  0  0
  1  2  2  0  0  0  0
  2  3  1  0  0  0  0
  2 18  1  0  0  0  0
  3  4  1  0  0  0  0
  3 32  1  0  0  0  0
  3 33  1  0  0  0  0
  4 16  1  0  0  0  0
  4  5  1  0  0  0  0
  5  6  2  0  0  0  0
  5  7  1  0  0  0  0
  7  8  1  0  0  0  0
  7  9  2  0  0  0  0
  9 10  1  0  0  0  0
  9 34  1  0  0  0  0
 10 11  1  0  0  0  0
 10 16  1  0  0  0  0
 11 15  1  0  0  0  0
 11 12  1  0  0  0  0
 11 35  1  0  0  0  0
 12 13  1  0  0  0  0
 12 36  1  0  0  0  0
 12 37  1  0  0  0  0
 13 14  1  0  0  0  0
 13 38  1  0  0  0  0
 13 39  1  0  0  0  0
 14 15  1  0  0  0  0
 14 40  1  0  0  0  0
 14 41  1  0  0  0  0
 16 17  2  0  0  0  0
 18 19  1  0  0  0  0
 18 42  1  0  0  0  0
 19 20  1  0  0  0  0
 19 26  1  0  0  0  0
 19 43  1  0  0  0  0
 20 25  1  0  0  0  0
 20 21  2  0  0  0  0
 21 22  1  0  0  0  0
 21 44  1  0  0  0  0
 22 23  2  0  0  0  0
 22 45  1  0  0  0  0
 23 24  1  0  0  0  0
 23 46  1  0  0  0  0
 24 25  2  0  0  0  0
 24 47  1  0  0  0  0
 25 48  1  0  0  0  0
 26 31  1  0  0  0  0
 26 27  2  0  0  0  0
 27 28  1  0  0  0  0
 27 49  1  0  0  0  0
 28 29  2  0  0  0  0
 28 50  1  0  0  0  0
 29 30  1  0  0  0  0
 29 51  1  0  0  0  0
 30 31  2  0  0  0  0
 30 52  1  0  0  0  0
 31 53  1  0  0  0  0
M  END
> <s_m_source_file>
AV-unprocessed.smi

> <i_m_source_file_index>
27

> <i_lp_mmshare_version>
43012

> <i_f3d_flags>
0

> <s_epik_input>
W2NIXTFbY0hdW2NIXVtjSF1bY0hdYzFbQ0hdKGMyW2NIXVtjSF1bY0hdW2NIXVtjSF0yKVtOSF1DKD1PKVtDSDJdbjNjKD1PKWMoRilbY0hdbihjMz1PKVtDQEBIXTRbQ0gyXVtDSDJdW0NIMl1PNA==

> <s_epik_cmdline>
J2VwaWtfcHl0aG9uJywgJy1waCcsICc3LjAnLCAnLXRuJywgJzgnLCAnLW1hJywgJzIwMCcsICctbWV0YWxfYmluZGluZycsICctaW1hZScsICc8aW5maWxlLm1hZT4nLCAnLW9tYWUnLCAnPG91dGZpbGUubWFlPic=

> <r_lp_tautomer_probability>
1

> <r_epik_Ionization_Penalty>
5.29953e-08

> <r_epik_Ionization_Penalty_Charging>
3.6115e-09

> <r_epik_Ionization_Penalty_Neutral>
4.93838e-08

> <r_epik_State_Penalty>
-0

> <r_epik_Charging_Adjusted_Penalty>
3.6115e-09

> <i_epik_Tot_Q>
0

> <i_epik_Tot_abs_Q>
0

> <r_epik_Metal_State_Penalty>
-0

> <b_epik_Metal_Only>
0

> <s_epik_Chemistry_Notes>
This compound contains an acetal/aminal-like group ( X-CH(R)-Y where X, Y are N, S, or O) that may be acid/base labile, releasing an aldehyde.

> <s_lp_Force_Field>
OPLS_2005

> <r_lp_Energy>
31.2801

> <b_lp_Chiralities_Consistent>
1

> <s_lp_Variant>
AV-unprocessed.smi:27-2

> <Gold.Version>
5.8.1

> <Gold.Id.Protein>
6NUR|6NUR_protein|mol2

> <Gold.PLP.Fitness>
51.3384

> <Gold.PLP.PLP>
-51.1063

> <Gold.PLP.part.hbond>
-1.0222

> <Gold.PLP.part.metal>
0.0000

> <Gold.PLP.part.buried>
-8.2044

> <Gold.PLP.part.nonpolar>
-42.0089

> <Gold.PLP.part.repulsive>
0.3009

> <Gold.PLP.ligand.clash>
0.0000

> <Gold.PLP.ligand.torsion>
1.4705

> <Gold.PLP.Chemscore.Hbond>
1.0000

> <Gold.PLP.Chemscore.CHOScore>
0.0000

> <Gold.PLP.Chemscore.Metal>
0.0000

> <Gold.Chemscore.Hbonds>
donor molecule, donor type, donor heavy atom, donor atom, acceptor molecule, acceptor atom, score
      P1  H  6896  6909       L1     1  0.94

> <Gold.PLP.Chemscore.Internal.Correction>
0.1732

> <Gold.Rescore>
     Score         DG    S(hbond)    S(metal)    S(lipo)     H(rot)  DE(clash)    DE(int)     intcor
     11.80     -15.63       0.92        0.00     107.86       2.16       0.07       3.76       ----

> <Gold.Chemscore.Fitness>
11.7962

> <Gold.Chemscore.DG>
-15.6288

> <Gold.Chemscore.ZeroCoef>
-5.4800

> <Gold.Chemscore.Hbond>
0.9192

> <Gold.Chemscore.Metal>
0.0000

> <Gold.Chemscore.Lipo>
107.8566

> <Gold.Chemscore.Internal_Hbond>
0.0000

> <Gold.Chemscore.DEClash>
0.0708

> <Gold.Chemscore.DEInternal>
3.7618

> <Gold.Chemscore.Rot>
2.1642

> <Gold.Chemscore.Internal.Correction>
   9.000000E+99

> <Gold.Chemscore.Hbonds>
donor molecule, donor type, donor heavy atom, donor atom, acceptor molecule, acceptor atom, score
      P1  H  6896  6909       L1     1  0.45

> <Gold.Chemscore.Hbond.Weighted>
-3.0700

> <Gold.Chemscore.Metal.Weighted>
-0.0000

> <Gold.Chemscore.Lipo.Weighted>
-12.6192

> <Gold.Chemscore.Internal_Hbond.Weighted>
0.0000

> <Gold.Chemscore.DEClash.Weighted>
0.0708

> <Gold.Chemscore.DEInternal.Weighted>
3.7618

> <Gold.Chemscore.Rot.Weighted>
5.5404

> <Gold.Chemscore.Internal.Correction.Weighted>
   9.000000E+99

> <Gold.Protein.RotatedTorsions>
[ 6907 6896 6895 6894 ] final  105.52 input  -60.11 | X-H torsion
[ 7974 7965 7964 7962 ] final  -19.81 input  175.53 | X-H torsion
[ 8008 7997 7996 7995 ] final   58.16 input   59.86 | X-H torsion
[ 10167 10162 10161 10158 ] final  148.16 input  -65.29 | X-H torsion
[ 10718 10713 10712 10709 ] final   45.30 input   66.30 | X-H torsion
[ 10763 10752 10751 10750 ] final -129.61 input  -60.55 | X-H torsion
[ 11005 11000 10999 10996 ] final  -47.57 input  -57.11 | X-H torsion

> <Gold.Protein.ActiveResidues>
 VAL166  LYS551  ARG553  GLY616  TRP617  ASP618  TYR619  PRO620  LYS621  CYS622 
 ASP623  PHE694  ASN695  SER759  ASP760  ASP761  ALA762  ILE779  LEU786  VAL792 
 PHE793  MET794  SER795  GLU796  ALA797  LYS798  CYS799  TRP800  GLU811  SER814 

> <Gold.Protein.RotatedAtoms>
  152.5227  133.9516  159.7674 H   0  0  0  0  0  0  0  0  0  0  0  0  # atno 6907 bound_to 6896
  150.9825  133.6223  159.2727 H   0  0  0  0  0  0  0  0  0  0  0  0  # atno 6908 bound_to 6896
  151.3395  135.0866  159.9419 H   0  0  0  0  0  0  0  0  0  0  0  0  # atno 6909 bound_to 6896
  146.1821  140.4115  142.8490 H   0  0  0  0  0  0  0  0  0  0  0  0  # atno 7974 bound_to 7965
  155.5455  140.3485  155.4456 H   0  0  0  0  0  0  0  0  0  0  0  0  # atno 8008 bound_to 7997
  156.0621  140.1342  156.9955 H   0  0  0  0  0  0  0  0  0  0  0  0  # atno 8009 bound_to 7997
  154.4485  140.0983  156.6517 H   0  0  0  0  0  0  0  0  0  0  0  0  # atno 8010 bound_to 7997
  139.4879  144.5700  151.7072 H   0  0  0  0  0  0  0  0  0  0  0  0  # atno 10167 bound_to 10162
  157.4360  130.8053  149.7649 H   0  0  0  0  0  0  0  0  0  0  0  0  # atno 10718 bound_to 10713
  154.8757  135.3890  154.3948 H   0  0  0  0  0  0  0  0  0  0  0  0  # atno 10763 bound_to 10752
  153.4679  135.7029  153.6016 H   0  0  0  0  0  0  0  0  0  0  0  0  # atno 10764 bound_to 10752
  153.4486  135.3839  155.2238 H   0  0  0  0  0  0  0  0  0  0  0  0  # atno 10765 bound_to 10752
  141.0649  133.6697  156.3316 H   0  0  0  0  0  0  0  0  0  0  0  0  # atno 11005 bound_to 11000
  144.8333  140.6742  143.6276 LP  0  0  0  0  0  0  0  0  0  0  0  0  # atno 17320 bound_to 7965
  145.4045  139.1591  143.4159 LP  0  0  0  0  0  0  0  0  0  0  0  0  # atno 17321 bound_to 7965
  140.5286  144.0767  150.6046 LP  0  0  0  0  0  0  0  0  0  0  0  0  # atno 17342 bound_to 10162
  140.3749  143.2834  152.0236 LP  0  0  0  0  0  0  0  0  0  0  0  0  # atno 17343 bound_to 10162
  155.9931  130.3927  150.2915 LP  0  0  0  0  0  0  0  0  0  0  0  0  # atno 17370 bound_to 10713
  157.1076  131.0212  151.3061 LP  0  0  0  0  0  0  0  0  0  0  0  0  # atno 17371 bound_to 10713
  140.5794  134.5760  157.5476 LP  0  0  0  0  0  0  0  0  0  0  0  0  # atno 17394 bound_to 11000
  139.9466  134.7690  156.0546 LP  0  0  0  0  0  0  0  0  0  0  0  0  # atno 17395 bound_to 11000

$$$$
