AV-unprocessed.smi:2138|AV-procd|sdf|8711|dock4
  -GOLD-   2272011473D 1   1.00000     0.00000
 Structure written by MMmdl.
 46 47  0  0  0  0  0  0  0  0  1 V2000
  152.0082  140.2074  157.8917 C   0  0  0  0  0  0  0  0  0  0  0  0
  152.6619  139.4822  156.8650 O   0  0  0  0  0  0  0  0  0  0  0  0
  152.2232  139.8595  155.5708 C   0  0  0  0  0  0  0  0  0  0  0  0
  150.8411  139.2527  155.3149 C   0  0  0  0  0  0  0  0  0  0  0  0
  150.1618  140.0527  154.3518 O   0  0  0  0  0  0  0  0  0  0  0  0
  148.9260  139.6347  153.9016 C   0  0  0  0  0  0  0  0  0  0  0  0
  148.2611  140.4153  152.9355 C   0  0  0  0  0  0  0  0  0  0  0  0
  147.0019  139.9941  152.4660 C   0  0  0  0  0  0  0  0  0  0  0  0
  146.4408  138.8022  152.9860 C   0  0  0  0  0  0  0  0  0  0  0  0
  145.1903  138.2509  152.5922 N   0  0  0  0  0  0  0  0  0  0  0  0
  144.3818  137.4016  153.2535 C   0  0  0  0  0  0  0  0  0  0  0  0
  144.6211  136.9201  154.3606 O   0  0  0  0  0  0  0  0  0  0  0  0
  143.0802  137.0231  152.5276 C   0  0  1  0  0  0  0  0  0  0  0  0
  142.7724  135.5193  152.6559 C   0  0  0  0  0  0  0  0  0  0  0  0
  141.5232  135.4692  153.5198 C   0  0  0  0  0  0  0  0  0  0  0  0
  141.0339  134.4098  153.9089 O   0  0  0  0  0  0  0  0  0  0  0  0
  141.0659  136.7019  153.7840 N   0  0  0  0  0  0  0  0  0  0  0  0
  139.8948  137.0795  154.5853 C   0  0  0  0  0  0  0  0  0  0  0  0
  138.6944  137.4458  153.6951 C   0  0  0  0  0  0  0  0  0  0  0  0
  140.2335  138.1952  155.5892 C   0  0  0  0  0  0  0  0  0  0  0  0
  141.8480  137.7359  153.1238 C   0  0  0  0  0  0  0  0  0  0  0  0
  147.1912  138.0920  153.9461 C   0  0  0  0  0  0  0  0  0  0  0  0
  148.3986  138.4894  154.3992 N   0  0  0  0  0  0  0  0  0  0  0  0
  152.3817  139.8838  158.8633 H   0  0  0  0  0  0  0  0  0  0  0  0
  150.9311  140.0364  157.8711 H   0  0  0  0  0  0  0  0  0  0  0  0
  152.1947  141.2782  157.7990 H   0  0  0  0  0  0  0  0  0  0  0  0
  152.1741  140.9466  155.4923 H   0  0  0  0  0  0  0  0  0  0  0  0
  152.9304  139.5051  154.8192 H   0  0  0  0  0  0  0  0  0  0  0  0
  150.9521  138.2313  154.9469 H   0  0  0  0  0  0  0  0  0  0  0  0
  150.2770  139.2173  156.2486 H   0  0  0  0  0  0  0  0  0  0  0  0
  148.7122  141.3202  152.5557 H   0  0  0  0  0  0  0  0  0  0  0  0
  146.5085  140.5888  151.7144 H   0  0  0  0  0  0  0  0  0  0  0  0
  144.8793  138.5161  151.6688 H   0  0  0  0  0  0  0  0  0  0  0  0
  143.1715  137.2863  151.4723 H   0  0  0  0  0  0  0  0  0  0  0  0
  142.5581  135.0779  151.6822 H   0  0  0  0  0  0  0  0  0  0  0  0
  143.5768  134.9430  153.1161 H   0  0  0  0  0  0  0  0  0  0  0  0
  139.6034  136.2043  155.1681 H   0  0  0  0  0  0  0  0  0  0  0  0
  137.8042  137.6238  154.2985 H   0  0  0  0  0  0  0  0  0  0  0  0
  138.4633  136.6399  152.9975 H   0  0  0  0  0  0  0  0  0  0  0  0
  138.8793  138.3485  153.1125 H   0  0  0  0  0  0  0  0  0  0  0  0
  139.3884  138.3943  156.2487 H   0  0  0  0  0  0  0  0  0  0  0  0
  140.4835  139.1306  155.0884 H   0  0  0  0  0  0  0  0  0  0  0  0
  141.0799  137.9145  156.2167 H   0  0  0  0  0  0  0  0  0  0  0  0
  142.1138  138.5244  153.8307 H   0  0  0  0  0  0  0  0  0  0  0  0
  141.2473  138.1919  152.3358 H   0  0  0  0  0  0  0  0  0  0  0  0
  146.8115  137.1725  154.3675 H   0  0  0  0  0  0  0  0  0  0  0  0
  1  2  1  0  0  0  0
  1 24  1  0  0  0  0
  1 25  1  0  0  0  0
  1 26  1  0  0  0  0
  2  3  1  0  0  0  0
  3  4  1  0  0  0  0
  3 27  1  0  0  0  0
  3 28  1  0  0  0  0
  4  5  1  0  0  0  0
  4 29  1  0  0  0  0
  4 30  1  0  0  0  0
  5  6  1  0  0  0  0
  6 23  1  0  0  0  0
  6  7  2  0  0  0  0
  7  8  1  0  0  0  0
  7 31  1  0  0  0  0
  8  9  2  0  0  0  0
  8 32  1  0  0  0  0
  9 10  1  0  0  0  0
  9 22  1  0  0  0  0
 10 11  1  0  0  0  0
 10 33  1  0  0  0  0
 11 12  2  0  0  0  0
 11 13  1  0  0  0  0
 13 21  1  0  0  0  0
 13 14  1  0  0  0  0
 13 34  1  0  0  0  0
 14 15  1  0  0  0  0
 14 35  1  0  0  0  0
 14 36  1  0  0  0  0
 15 16  2  0  0  0  0
 15 17  1  0  0  0  0
 17 18  1  0  0  0  0
 17 21  1  0  0  0  0
 18 19  1  0  0  0  0
 18 20  1  0  0  0  0
 18 37  1  0  0  0  0
 19 38  1  0  0  0  0
 19 39  1  0  0  0  0
 19 40  1  0  0  0  0
 20 41  1  0  0  0  0
 20 42  1  0  0  0  0
 20 43  1  0  0  0  0
 21 44  1  0  0  0  0
 21 45  1  0  0  0  0
 22 23  2  0  0  0  0
 22 46  1  0  0  0  0
M  END
> <s_m_source_file>
AV-unprocessed.smi

> <i_m_source_file_index>
2138

> <i_lp_mmshare_version>
43012

> <i_f3d_flags>
0

> <s_epik_input>
W0NIM11PW0NIMl1bQ0gyXU9jMVtjSF1bY0hdYyhbY0hdbjEpW05IXUMoPU8pW0NAQEhdMltDSDJdQyg9TylOKFtDSDJdMilbQ0hdKFtDSDNdKVtDSDNd

> <s_epik_cmdline>
J2VwaWtfcHl0aG9uJywgJy1waCcsICc3LjAnLCAnLXRuJywgJzgnLCAnLW1hJywgJzIwMCcsICctbWV0YWxfYmluZGluZycsICctaW1hZScsICc8aW5maWxlLm1hZT4nLCAnLW9tYWUnLCAnPG91dGZpbGUubWFlPic=

> <r_lp_tautomer_probability>
1

> <r_epik_Ionization_Penalty>
1.72652e-05

> <r_epik_Ionization_Penalty_Charging>
0

> <r_epik_Ionization_Penalty_Neutral>
1.72652e-05

> <r_epik_State_Penalty>
-0

> <r_epik_Charging_Adjusted_Penalty>
0

> <i_epik_Tot_Q>
0

> <i_epik_Tot_abs_Q>
0

> <r_epik_Metal_State_Penalty>
-0

> <b_epik_Metal_Only>
0

> <s_lp_Force_Field>
OPLS_2005

> <r_lp_Energy>
21.5992

> <b_lp_Chiralities_Consistent>
1

> <s_lp_Variant>
AV-unprocessed.smi:2138-2

> <Gold.Version>
5.8.1

> <Gold.Id.Protein>
6NUR|6NUR_protein|mol2

> <Gold.PLP.Fitness>
44.1592

> <Gold.PLP.PLP>
-35.0217

> <Gold.PLP.part.hbond>
-5.7358

> <Gold.PLP.part.metal>
0.0000

> <Gold.PLP.part.buried>
4.1527

> <Gold.PLP.part.nonpolar>
-34.1781

> <Gold.PLP.part.repulsive>
0.6044

> <Gold.PLP.ligand.clash>
0.0000

> <Gold.PLP.ligand.torsion>
1.0988

> <Gold.PLP.Chemscore.Hbond>
3.7475

> <Gold.PLP.Chemscore.CHOScore>
0.0000

> <Gold.PLP.Chemscore.Metal>
0.0000

> <Gold.Chemscore.Hbonds>
donor molecule, donor type, donor heavy atom, donor atom, acceptor molecule, acceptor atom, score
      L1  H    10    33       P1 10171  0.81
      P1  H  7989  7998       L1     5  1.00
      P1  H  7997  8009       L1     2  1.00
      P1  H 11000 11005       L1    16  1.00

> <Gold.PLP.Chemscore.Internal.Correction>
0.0926

> <Gold.Rescore>
     Score         DG    S(hbond)    S(metal)    S(lipo)     H(rot)  DE(clash)    DE(int)     intcor
     12.16     -17.60       2.43        0.00      77.96       2.00       2.56       2.88       ----

> <Gold.Chemscore.Fitness>
12.1614

> <Gold.Chemscore.DG>
-17.6009

> <Gold.Chemscore.ZeroCoef>
-5.4800

> <Gold.Chemscore.Hbond>
2.4337

> <Gold.Chemscore.Metal>
0.0000

> <Gold.Chemscore.Lipo>
77.9613

> <Gold.Chemscore.Internal_Hbond>
0.0000

> <Gold.Chemscore.DEClash>
2.5637

> <Gold.Chemscore.DEInternal>
2.8758

> <Gold.Chemscore.Rot>
2.0035

> <Gold.Chemscore.Internal.Correction>
   9.000000E+99

> <Gold.Chemscore.Hbonds>
donor molecule, donor type, donor heavy atom, donor atom, acceptor molecule, acceptor atom, score
      L1  H    10    33       P1 10171  0.80
      P1  H  7989  7998       L1     5  0.29
      P1  H  7997  8009       L1     2  0.19
      P1  H 10995 11001       L1    16  0.01
      P1  H 11000 11005       L1    16  0.99

> <Gold.Chemscore.Hbond.Weighted>
-8.1284

> <Gold.Chemscore.Metal.Weighted>
-0.0000

> <Gold.Chemscore.Lipo.Weighted>
-9.1215

> <Gold.Chemscore.Internal_Hbond.Weighted>
0.0000

> <Gold.Chemscore.DEClash.Weighted>
2.5637

> <Gold.Chemscore.DEInternal.Weighted>
2.8758

> <Gold.Chemscore.Rot.Weighted>
5.1290

> <Gold.Chemscore.Internal.Correction.Weighted>
   9.000000E+99

> <Gold.Protein.RotatedTorsions>
[ 6907 6896 6895 6894 ] final   -1.70 input  -60.11 | X-H torsion
[ 7974 7965 7964 7962 ] final  104.51 input  175.53 | X-H torsion
[ 8008 7997 7996 7995 ] final  168.03 input   59.86 | X-H torsion
[ 10167 10162 10161 10158 ] final  146.92 input  -65.29 | X-H torsion
[ 10718 10713 10712 10709 ] final   11.11 input   66.30 | X-H torsion
[ 10763 10752 10751 10750 ] final  164.20 input  -60.55 | X-H torsion
[ 11005 11000 10999 10996 ] final   14.99 input  -57.11 | X-H torsion

> <Gold.Protein.ActiveResidues>
 VAL166  LYS551  ARG553  GLY616  TRP617  ASP618  TYR619  PRO620  LYS621  CYS622 
 ASP623  PHE694  ASN695  SER759  ASP760  ASP761  ALA762  ILE779  LEU786  VAL792 
 PHE793  MET794  SER795  GLU796  ALA797  LYS798  CYS799  TRP800  GLU811  SER814 

> <Gold.Protein.RotatedAtoms>
  151.5418  135.1068  159.9928 H   0  0  0  0  0  0  0  0  0  0  0  0  # atno 6907 bound_to 6896
  152.4532  133.7666  159.6786 H   0  0  0  0  0  0  0  0  0  0  0  0  # atno 6908 bound_to 6896
  150.8466  133.7785  159.3065 H   0  0  0  0  0  0  0  0  0  0  0  0  # atno 6909 bound_to 6896
  145.3319  139.2484  143.3656 H   0  0  0  0  0  0  0  0  0  0  0  0  # atno 7974 bound_to 7965
  156.1583  140.1601  156.8656 H   0  0  0  0  0  0  0  0  0  0  0  0  # atno 8008 bound_to 7997
  154.5136  140.0795  156.8073 H   0  0  0  0  0  0  0  0  0  0  0  0  # atno 8009 bound_to 7997
  155.3759  140.3402  155.4247 H   0  0  0  0  0  0  0  0  0  0  0  0  # atno 8010 bound_to 7997
  139.4899  144.5794  151.6902 H   0  0  0  0  0  0  0  0  0  0  0  0  # atno 10167 bound_to 10162
  156.9907  130.6041  149.5685 H   0  0  0  0  0  0  0  0  0  0  0  0  # atno 10718 bound_to 10713
  154.3053  135.2758  155.2592 H   0  0  0  0  0  0  0  0  0  0  0  0  # atno 10763 bound_to 10752
  154.5010  135.5808  153.6535 H   0  0  0  0  0  0  0  0  0  0  0  0  # atno 10764 bound_to 10752
  152.9895  135.6158  154.3227 H   0  0  0  0  0  0  0  0  0  0  0  0  # atno 10765 bound_to 10752
  140.4633  134.1105  155.7720 H   0  0  0  0  0  0  0  0  0  0  0  0  # atno 11005 bound_to 11000
  146.3042  140.3898  142.8693 LP  0  0  0  0  0  0  0  0  0  0  0  0  # atno 17320 bound_to 7965
  144.8858  140.7459  143.5958 LP  0  0  0  0  0  0  0  0  0  0  0  0  # atno 17321 bound_to 7965
  140.5396  144.0600  150.6083 LP  0  0  0  0  0  0  0  0  0  0  0  0  # atno 17342 bound_to 10162
  140.3618  143.2904  152.0376 LP  0  0  0  0  0  0  0  0  0  0  0  0  # atno 17343 bound_to 10162
  156.0208  130.5303  150.8270 LP  0  0  0  0  0  0  0  0  0  0  0  0  # atno 17370 bound_to 10713
  157.5460  131.0942  150.9761 LP  0  0  0  0  0  0  0  0  0  0  0  0  # atno 17371 bound_to 10713
  141.1611  133.8791  157.1845 LP  0  0  0  0  0  0  0  0  0  0  0  0  # atno 17394 bound_to 11000
  139.9931  135.0057  157.0021 LP  0  0  0  0  0  0  0  0  0  0  0  0  # atno 17395 bound_to 11000

$$$$
