AV-unprocessed.smi:399|AV-procd|sdf|2490|dock2
  -GOLD-   2262022433D 1   1.00000     0.00000
 Structure written by MMmdl.
 46 47  0  0  0  0  0  0  0  0  3 V2000
  152.1817  138.5967  154.7350 C   0  0  0  0  0  0  0  0  0  0  0  0
  150.8725  138.7019  155.5591 C   0  0  0  0  0  0  0  0  0  0  0  0
  149.7252  138.5600  154.5254 C   0  0  0  0  0  0  0  0  0  0  0  0
  150.8042  137.5056  156.5558 C   0  0  0  0  0  0  0  0  0  0  0  0
  149.5717  137.4843  157.3380 N   0  0  0  0  0  0  0  0  0  0  0  0
  149.4977  137.1400  158.6309 C   0  0  0  0  0  0  0  0  0  0  0  0
  150.4806  136.8074  159.2952 O   0  0  0  0  0  0  0  0  0  0  0  0
  148.0993  137.2001  159.2623 C   0  0  0  0  0  0  0  0  0  0  0  0
  147.8204  136.0773  160.1738 N   0  0  0  0  0  0  0  0  0  0  0  0
  147.8411  134.7827  159.6186 C   0  0  0  0  0  0  0  0  0  0  0  0
  147.5925  133.6829  160.3566 C   0  0  0  0  0  0  0  0  0  0  0  0
  147.6109  132.3616  159.7682 N   0  3  0  0  0  0  0  0  0  0  0  0
  147.8536  132.2542  158.5705 O   0  0  0  0  0  0  0  0  0  0  0  0
  147.3830  131.3889  160.4815 O   0  5  0  0  0  0  0  0  0  0  0  0
  147.2998  133.8681  161.7646 C   0  0  0  0  0  0  0  0  0  0  0  0
  147.2738  135.1042  162.3008 C   0  0  0  0  0  0  0  0  0  0  0  0
  147.5388  136.2999  161.4942 C   0  0  0  0  0  0  0  0  0  0  0  0
  147.5092  137.4325  161.9762 O   0  0  0  0  0  0  0  0  0  0  0  0
  150.7952  140.0240  156.2396 N   0  0  0  0  0  0  0  0  0  0  0  0
  149.4530  140.4130  156.6902 C   0  0  0  0  0  0  0  0  0  0  0  0
  149.4260  141.8393  157.2658 C   0  0  0  0  0  0  0  0  0  0  0  0
  150.3597  141.9427  158.3336 O   0  0  0  0  0  0  0  0  0  0  0  0
  151.6865  141.6324  157.9255 C   0  0  0  0  0  0  0  0  0  0  0  0
  151.7330  140.2046  157.3548 C   0  0  0  0  0  0  0  0  0  0  0  0
  152.1801  137.7346  154.0673 H   0  0  0  0  0  0  0  0  0  0  0  0
  153.0606  138.4867  155.3702 H   0  0  0  0  0  0  0  0  0  0  0  0
  152.3287  139.4800  154.1121 H   0  0  0  0  0  0  0  0  0  0  0  0
  149.8643  137.6985  153.8715 H   0  0  0  0  0  0  0  0  0  0  0  0
  149.6612  139.4391  153.8829 H   0  0  0  0  0  0  0  0  0  0  0  0
  148.7544  138.4244  155.0020 H   0  0  0  0  0  0  0  0  0  0  0  0
  150.8717  136.5549  156.0266 H   0  0  0  0  0  0  0  0  0  0  0  0
  151.6450  137.5393  157.2493 H   0  0  0  0  0  0  0  0  0  0  0  0
  148.7211  137.7465  156.8610 H   0  0  0  0  0  0  0  0  0  0  0  0
  148.0049  138.1505  159.7898 H   0  0  0  0  0  0  0  0  0  0  0  0
  147.3498  137.2397  158.4696 H   0  0  0  0  0  0  0  0  0  0  0  0
  148.0613  134.7525  158.5611 H   0  0  0  0  0  0  0  0  0  0  0  0
  147.0988  133.0178  162.3995 H   0  0  0  0  0  0  0  0  0  0  0  0
  147.0528  135.2188  163.3519 H   0  0  0  0  0  0  0  0  0  0  0  0
  148.7392  140.3734  155.8695 H   0  0  0  0  0  0  0  0  0  0  0  0
  149.0960  139.7234  157.4551 H   0  0  0  0  0  0  0  0  0  0  0  0
  149.6621  142.5726  156.4930 H   0  0  0  0  0  0  0  0  0  0  0  0
  148.4302  142.0776  157.6400 H   0  0  0  0  0  0  0  0  0  0  0  0
  152.0262  142.3568  157.1836 H   0  0  0  0  0  0  0  0  0  0  0  0
  152.3517  141.7181  158.7848 H   0  0  0  0  0  0  0  0  0  0  0  0
  151.5071  139.5020  158.1568 H   0  0  0  0  0  0  0  0  0  0  0  0
  152.7562  140.0074  157.0401 H   0  0  0  0  0  0  0  0  0  0  0  0
  1  2  1  0  0  0  0
  1 25  1  0  0  0  0
  1 26  1  0  0  0  0
  1 27  1  0  0  0  0
  2  3  1  0  0  0  0
  2  4  1  0  0  0  0
  2 19  1  0  0  0  0
  3 28  1  0  0  0  0
  3 29  1  0  0  0  0
  3 30  1  0  0  0  0
  4  5  1  0  0  0  0
  4 31  1  0  0  0  0
  4 32  1  0  0  0  0
  5  6  1  0  0  0  0
  5 33  1  0  0  0  0
  6  7  2  0  0  0  0
  6  8  1  0  0  0  0
  8  9  1  0  0  0  0
  8 34  1  0  0  0  0
  8 35  1  0  0  0  0
  9 17  1  0  0  0  0
  9 10  1  0  0  0  0
 10 11  2  0  0  0  0
 10 36  1  0  0  0  0
 11 12  1  0  0  0  0
 11 15  1  0  0  0  0
 12 13  2  0  0  0  0
 12 14  1  0  0  0  0
 15 16  2  0  0  0  0
 15 37  1  0  0  0  0
 16 17  1  0  0  0  0
 16 38  1  0  0  0  0
 17 18  2  0  0  0  0
 19 24  1  0  0  0  0
 19 20  1  0  0  0  0
 20 21  1  0  0  0  0
 20 39  1  0  0  0  0
 20 40  1  0  0  0  0
 21 22  1  0  0  0  0
 21 41  1  0  0  0  0
 21 42  1  0  0  0  0
 22 23  1  0  0  0  0
 23 24  1  0  0  0  0
 23 43  1  0  0  0  0
 23 44  1  0  0  0  0
 24 45  1  0  0  0  0
 24 46  1  0  0  0  0
M  CHG  1  12   1
M  CHG  1  14  -1
M  END
> <s_m_source_file>
AV-unprocessed.smi

> <i_m_source_file_index>
399

> <i_lp_mmshare_version>
43012

> <i_f3d_flags>
0

> <s_epik_input>
W0NIMl0xW0NIMl1PW0NIMl1bQ0gyXU4xQyhbQ0gzXSkoW0NIM10pW0NIMl1bTkhdQyg9TylbQ0gyXW4yW2NIXWMoW04rXSg9TylbTy1dKVtjSF1bY0hdYzI9Tw==

> <s_epik_cmdline>
J2VwaWtfcHl0aG9uJywgJy1waCcsICc3LjAnLCAnLXRuJywgJzgnLCAnLW1hJywgJzIwMCcsICctbWV0YWxfYmluZGluZycsICctaW1hZScsICc8aW5maWxlLm1hZT4nLCAnLW9tYWUnLCAnPG91dGZpbGUubWFlPic=

> <r_lp_tautomer_probability>
1

> <r_epik_Ionization_Penalty>
0.237382

> <r_epik_Ionization_Penalty_Charging>
7.45368e-11

> <r_epik_Ionization_Penalty_Neutral>
0.237382

> <r_epik_State_Penalty>
0.228245

> <r_epik_Charging_Adjusted_Penalty>
0.228245

> <i_epik_Tot_Q>
0

> <i_epik_Tot_abs_Q>
2

> <r_epik_Metal_State_Penalty>
0.22822

> <b_epik_Metal_Only>
0

> <s_lp_Force_Field>
OPLS_2005

> <r_lp_Energy>
50.757

> <b_lp_Chiralities_Consistent>
1

> <s_lp_Variant>
AV-unprocessed.smi:399-1

> <Gold.Version>
5.8.1

> <Gold.Id.Protein>
6NUR|6NUR_protein|mol2

> <Gold.PLP.Fitness>
43.4619

> <Gold.PLP.PLP>
-37.0242

> <Gold.PLP.part.hbond>
-3.0000

> <Gold.PLP.part.metal>
0.0000

> <Gold.PLP.part.buried>
-6.0531

> <Gold.PLP.part.nonpolar>
-28.3154

> <Gold.PLP.part.repulsive>
0.0897

> <Gold.PLP.ligand.clash>
0.0000

> <Gold.PLP.ligand.torsion>
0.6906

> <Gold.PLP.Chemscore.Hbond>
2.5360

> <Gold.PLP.Chemscore.CHOScore>
0.0000

> <Gold.PLP.Chemscore.Metal>
0.0000

> <Gold.Chemscore.Hbonds>
donor molecule, donor type, donor heavy atom, donor atom, acceptor molecule, acceptor atom, score
      P1  H  6896  6908       L1     7  1.00
      P1  H  6931  6943       L1    18  0.82
      P1  H  6934  6947       L1    18  0.62

> <Gold.PLP.Chemscore.Internal.Correction>
0.2109

> <Gold.Rescore>
     Score         DG    S(hbond)    S(metal)    S(lipo)     H(rot)  DE(clash)    DE(int)     intcor
     16.95     -17.94       2.65        0.00      77.07       2.11       0.00       0.99       ----

> <Gold.Chemscore.Fitness>
16.9486

> <Gold.Chemscore.DG>
-17.9429

> <Gold.Chemscore.ZeroCoef>
-5.4800

> <Gold.Chemscore.Hbond>
2.6480

> <Gold.Chemscore.Metal>
0.0000

> <Gold.Chemscore.Lipo>
77.0733

> <Gold.Chemscore.Internal_Hbond>
0.0000

> <Gold.Chemscore.DEClash>
0.0021

> <Gold.Chemscore.DEInternal>
0.9922

> <Gold.Chemscore.Rot>
2.1090

> <Gold.Chemscore.Internal.Correction>
   9.000000E+99

> <Gold.Chemscore.Hbonds>
donor molecule, donor type, donor heavy atom, donor atom, acceptor molecule, acceptor atom, score
      P1  H  6896  6908       L1     7  1.00
      P1  H  6931  6943       L1    18  0.72
      P1  H  6934  6947       L1    18  0.62

> <Gold.Chemscore.Hbond.Weighted>
-8.8442

> <Gold.Chemscore.Metal.Weighted>
-0.0000

> <Gold.Chemscore.Lipo.Weighted>
-9.0176

> <Gold.Chemscore.Internal_Hbond.Weighted>
0.0000

> <Gold.Chemscore.DEClash.Weighted>
0.0021

> <Gold.Chemscore.DEInternal.Weighted>
0.9922

> <Gold.Chemscore.Rot.Weighted>
5.3989

> <Gold.Chemscore.Internal.Correction.Weighted>
   9.000000E+99

> <Gold.Protein.RotatedTorsions>
[ 6907 6896 6895 6894 ] final -145.51 input  -60.11 | X-H torsion
[ 7974 7965 7964 7962 ] final -148.38 input  175.53 | X-H torsion
[ 8008 7997 7996 7995 ] final   87.17 input   59.86 | X-H torsion
[ 10167 10162 10161 10158 ] final  -31.22 input  -65.29 | X-H torsion
[ 10718 10713 10712 10709 ] final  -34.69 input   66.30 | X-H torsion
[ 10763 10752 10751 10750 ] final   74.69 input  -60.55 | X-H torsion
[ 11005 11000 10999 10996 ] final -123.15 input  -57.11 | X-H torsion

> <Gold.Protein.ActiveResidues>
 VAL166  LYS551  ARG553  GLY616  TRP617  ASP618  TYR619  PRO620  LYS621  CYS622 
 ASP623  PHE694  ASN695  SER759  ASP760  ASP761  ALA762  ILE779  LEU786  VAL792 
 PHE793  MET794  SER795  GLU796  ALA797  LYS798  CYS799  TRP800  GLU811  SER814 

> <Gold.Protein.RotatedAtoms>
  151.1288  133.5052  159.2599 H   0  0  0  0  0  0  0  0  0  0  0  0  # atno 6907 bound_to 6896
  151.1781  135.0348  159.8790 H   0  0  0  0  0  0  0  0  0  0  0  0  # atno 6908 bound_to 6896
  152.5459  134.1143  159.8425 H   0  0  0  0  0  0  0  0  0  0  0  0  # atno 6909 bound_to 6896
  144.8033  140.5204  143.5692 H   0  0  0  0  0  0  0  0  0  0  0  0  # atno 7974 bound_to 7965
  155.9719  140.3385  155.6584 H   0  0  0  0  0  0  0  0  0  0  0  0  # atno 8008 bound_to 7997
  155.6663  140.0722  157.2554 H   0  0  0  0  0  0  0  0  0  0  0  0  # atno 8009 bound_to 7997
  154.4169  140.1699  156.1818 H   0  0  0  0  0  0  0  0  0  0  0  0  # atno 8010 bound_to 7997
  140.7239  143.3787  151.1641 H   0  0  0  0  0  0  0  0  0  0  0  0  # atno 10167 bound_to 10162
  156.3475  130.4303  149.7733 H   0  0  0  0  0  0  0  0  0  0  0  0  # atno 10718 bound_to 10713
  153.0604  135.5016  154.8080 H   0  0  0  0  0  0  0  0  0  0  0  0  # atno 10763 bound_to 10752
  154.6874  135.2978  154.9531 H   0  0  0  0  0  0  0  0  0  0  0  0  # atno 10764 bound_to 10752
  154.0297  135.6731  153.4832 H   0  0  0  0  0  0  0  0  0  0  0  0  # atno 10765 bound_to 10752
  140.9941  134.0497  157.3619 H   0  0  0  0  0  0  0  0  0  0  0  0  # atno 11005 bound_to 11000
  145.5499  139.1476  143.3400 LP  0  0  0  0  0  0  0  0  0  0  0  0  # atno 17320 bound_to 7965
  146.2319  140.5638  142.8971 LP  0  0  0  0  0  0  0  0  0  0  0  0  # atno 17321 bound_to 7965
  139.7372  143.8980  152.3039 LP  0  0  0  0  0  0  0  0  0  0  0  0  # atno 17342 bound_to 10162
  139.8789  144.7028  150.8901 LP  0  0  0  0  0  0  0  0  0  0  0  0  # atno 17343 bound_to 10162
  156.4946  130.8101  151.3108 LP  0  0  0  0  0  0  0  0  0  0  0  0  # atno 17370 bound_to 10713
  157.7456  130.9964  150.2779 LP  0  0  0  0  0  0  0  0  0  0  0  0  # atno 17371 bound_to 10713
  139.9006  135.0163  156.7250 LP  0  0  0  0  0  0  0  0  0  0  0  0  # atno 17394 bound_to 11000
  140.6993  133.9320  155.8014 LP  0  0  0  0  0  0  0  0  0  0  0  0  # atno 17395 bound_to 11000

$$$$
