AV-unprocessed.smi:2675|AV-procd|sdf|10363|dock4
  -GOLD-   2272014393D 1   1.00000     0.00000
 Structure written by MMmdl.
 36 37  0  0  0  0  0  0  0  0  1 V2000
  152.8667  146.1646  156.0353 C   0  0  0  0  0  0  0  0  0  0  0  0
  152.3026  145.3242  157.1397 C   0  0  0  0  0  0  0  0  0  0  0  0
  152.2234  145.8234  158.4377 N   0  0  0  0  0  0  0  0  0  0  0  0
  151.6866  144.8285  159.1285 C   0  0  0  0  0  0  0  0  0  0  0  0
  151.4108  143.7341  158.4058 N   0  0  0  0  0  0  0  0  0  0  0  0
  150.8310  142.4968  158.9012 C   0  0  0  0  0  0  0  0  0  0  0  0
  151.7082  141.2979  158.5405 C   0  0  0  0  0  0  0  0  0  0  0  0
  152.7812  141.1305  159.1180 O   0  0  0  0  0  0  0  0  0  0  0  0
  151.2317  140.4812  157.5846 N   0  0  0  0  0  0  0  0  0  0  0  0
  151.8227  139.2428  157.0614 C   0  0  2  0  0  0  0  0  0  0  0  0
  151.5212  138.1564  158.1075 C   0  0  0  0  0  0  0  0  0  0  0  0
  153.2899  139.3482  156.9363 C   0  0  0  0  0  0  0  0  0  0  0  0
  154.4405  139.4316  156.8414 N   0  0  0  0  0  0  0  0  0  0  0  0
  151.2763  138.7786  155.7091 C   0  0  0  0  0  0  0  0  0  0  0  0
  150.1321  137.8022  155.5451 C   0  0  0  0  0  0  0  0  0  0  0  0
  151.5371  137.3929  155.1624 C   0  0  0  0  0  0  0  0  0  0  0  0
  151.8066  144.0364  157.1034 C   0  0  0  0  0  0  0  0  0  0  0  0
  151.6735  143.0739  155.9657 C   0  0  0  0  0  0  0  0  0  0  0  0
  152.8658  145.6405  155.0804 H   0  0  0  0  0  0  0  0  0  0  0  0
  153.8962  146.4520  156.2496 H   0  0  0  0  0  0  0  0  0  0  0  0
  152.2886  147.0799  155.9058 H   0  0  0  0  0  0  0  0  0  0  0  0
  151.4928  144.8957  160.1890 H   0  0  0  0  0  0  0  0  0  0  0  0
  150.7161  142.5657  159.9841 H   0  0  0  0  0  0  0  0  0  0  0  0
  149.8312  142.3718  158.4843 H   0  0  0  0  0  0  0  0  0  0  0  0
  150.3402  140.7341  157.1841 H   0  0  0  0  0  0  0  0  0  0  0  0
  151.9562  137.1980  157.8209 H   0  0  0  0  0  0  0  0  0  0  0  0
  150.4475  138.0065  158.2284 H   0  0  0  0  0  0  0  0  0  0  0  0
  151.9309  138.4202  159.0837 H   0  0  0  0  0  0  0  0  0  0  0  0
  151.2886  139.5745  154.9663 H   0  0  0  0  0  0  0  0  0  0  0  0
  149.7028  137.3314  156.4248 H   0  0  0  0  0  0  0  0  0  0  0  0
  149.4285  137.9915  154.7372 H   0  0  0  0  0  0  0  0  0  0  0  0
  151.7644  137.3078  154.1018 H   0  0  0  0  0  0  0  0  0  0  0  0
  152.0369  136.6692  155.8027 H   0  0  0  0  0  0  0  0  0  0  0  0
  152.0781  143.4852  155.0418 H   0  0  0  0  0  0  0  0  0  0  0  0
  150.6268  142.8280  155.7877 H   0  0  0  0  0  0  0  0  0  0  0  0
  152.2077  142.1473  156.1761 H   0  0  0  0  0  0  0  0  0  0  0  0
  1  2  1  0  0  0  0
  1 19  1  0  0  0  0
  1 20  1  0  0  0  0
  1 21  1  0  0  0  0
  2 17  2  0  0  0  0
  2  3  1  0  0  0  0
  3  4  2  0  0  0  0
  4  5  1  0  0  0  0
  4 22  1  0  0  0  0
  5  6  1  0  0  0  0
  5 17  1  0  0  0  0
  6  7  1  0  0  0  0
  6 23  1  0  0  0  0
  6 24  1  0  0  0  0
  7  8  2  0  0  0  0
  7  9  1  0  0  0  0
  9 10  1  0  0  0  0
  9 25  1  0  0  0  0
 10 11  1  0  0  0  0
 10 12  1  0  0  0  0
 10 14  1  0  0  0  0
 11 26  1  0  0  0  0
 11 27  1  0  0  0  0
 11 28  1  0  0  0  0
 12 13  3  0  0  0  0
 14 16  1  0  0  0  0
 14 15  1  0  0  0  0
 14 29  1  0  0  0  0
 15 16  1  0  0  0  0
 15 30  1  0  0  0  0
 15 31  1  0  0  0  0
 16 32  1  0  0  0  0
 16 33  1  0  0  0  0
 17 18  1  0  0  0  0
 18 34  1  0  0  0  0
 18 35  1  0  0  0  0
 18 36  1  0  0  0  0
M  END
> <s_m_source_file>
AV-unprocessed.smi

> <i_m_source_file_index>
2675

> <i_lp_mmshare_version>
43012

> <i_f3d_flags>
0

> <s_epik_input>
W0NIM11jMW5bY0hdbihjMVtDSDNdKVtDSDJdQyg9TylbTkhdW0NAQF0oW0NIM10pKEMjTilbQ0hdMltDSDJdW0NIMl0y

> <s_epik_cmdline>
J2VwaWtfcHl0aG9uJywgJy1waCcsICc3LjAnLCAnLXRuJywgJzgnLCAnLW1hJywgJzIwMCcsICctbWV0YWxfYmluZGluZycsICctaW1hZScsICc8aW5maWxlLm1hZT4nLCAnLW9tYWUnLCAnPG91dGZpbGUubWFlPic=

> <r_lp_tautomer_probability>
1

> <r_epik_Ionization_Penalty>
0.876174

> <r_epik_Ionization_Penalty_Charging>
0.876172

> <r_epik_Ionization_Penalty_Neutral>
2.64295e-06

> <r_epik_State_Penalty>
0.913958

> <r_epik_Charging_Adjusted_Penalty>
1.79013

> <i_epik_Tot_Q>
0

> <i_epik_Tot_abs_Q>
0

> <r_epik_Metal_State_Penalty>
0.359336

> <b_epik_Metal_Only>
0

> <s_lp_Force_Field>
OPLS_2005

> <r_lp_Energy>
15.5339

> <b_lp_Chiralities_Consistent>
1

> <s_lp_Variant>
AV-unprocessed.smi:2675-4

> <Gold.Version>
5.8.1

> <Gold.Id.Protein>
6NUR|6NUR_protein|mol2

> <Gold.PLP.Fitness>
-16.1645

> <Gold.PLP.PLP>
14.9135

> <Gold.PLP.part.hbond>
6.1806

> <Gold.PLP.part.metal>
0.0000

> <Gold.PLP.part.buried>
9.6090

> <Gold.PLP.part.nonpolar>
6.6989

> <Gold.PLP.part.repulsive>
0.1380

> <Gold.PLP.ligand.clash>
0.0000

> <Gold.PLP.ligand.torsion>
1.3718

> <Gold.PLP.Chemscore.Hbond>
0.0000

> <Gold.PLP.Chemscore.CHOScore>
0.0000

> <Gold.PLP.Chemscore.Metal>
0.0000

> <Gold.PLP.Chemscore.Internal.Correction>
1.4925

> <Gold.Rescore>
     Score         DG    S(hbond)    S(metal)    S(lipo)     H(rot)  DE(clash)    DE(int)     intcor
      6.70     -14.06       0.97        0.00      83.75       1.74       4.70       2.66       ----

> <Gold.Chemscore.Fitness>
6.7011

> <Gold.Chemscore.DG>
-14.0640

> <Gold.Chemscore.ZeroCoef>
-5.4800

> <Gold.Chemscore.Hbond>
0.9721

> <Gold.Chemscore.Metal>
0.0000

> <Gold.Chemscore.Lipo>
83.7513

> <Gold.Chemscore.Internal_Hbond>
0.0000

> <Gold.Chemscore.DEClash>
4.7023

> <Gold.Chemscore.DEInternal>
2.6605

> <Gold.Chemscore.Rot>
1.7429

> <Gold.Chemscore.Internal.Correction>
   9.000000E+99

> <Gold.Chemscore.Hbond.Weighted>
-3.2468

> <Gold.Chemscore.Metal.Weighted>
-0.0000

> <Gold.Chemscore.Lipo.Weighted>
-9.7989

> <Gold.Chemscore.Internal_Hbond.Weighted>
0.0000

> <Gold.Chemscore.DEClash.Weighted>
4.7023

> <Gold.Chemscore.DEInternal.Weighted>
2.6605

> <Gold.Chemscore.Rot.Weighted>
4.4617

> <Gold.Chemscore.Internal.Correction.Weighted>
   9.000000E+99

> <Gold.Protein.RotatedTorsions>
[ 6907 6896 6895 6894 ] final   10.20 input  -60.11 | X-H torsion
[ 7974 7965 7964 7962 ] final -131.04 input  175.53 | X-H torsion
[ 8008 7997 7996 7995 ] final  170.95 input   59.86 | X-H torsion
[ 10167 10162 10161 10158 ] final -124.35 input  -65.29 | X-H torsion
[ 10718 10713 10712 10709 ] final   88.80 input   66.30 | X-H torsion
[ 10763 10752 10751 10750 ] final   67.41 input  -60.55 | X-H torsion
[ 11005 11000 10999 10996 ] final   63.83 input  -57.11 | X-H torsion

> <Gold.Protein.ActiveResidues>
 VAL166  LYS551  ARG553  GLY616  TRP617  ASP618  TYR619  PRO620  LYS621  CYS622 
 ASP623  PHE694  ASN695  SER759  ASP760  ASP761  ALA762  ILE779  LEU786  VAL792 
 PHE793  MET794  SER795  GLU796  ALA797  LYS798  CYS799  TRP800  GLU811  SER814 

> <Gold.Protein.RotatedAtoms>
  151.7344  135.0868  160.0305 H   0  0  0  0  0  0  0  0  0  0  0  0  # atno 6907 bound_to 6896
  152.3520  133.6187  159.5960 H   0  0  0  0  0  0  0  0  0  0  0  0  # atno 6908 bound_to 6896
  150.7546  133.9475  159.3517 H   0  0  0  0  0  0  0  0  0  0  0  0  # atno 6909 bound_to 6896
  144.9417  140.7246  143.4842 H   0  0  0  0  0  0  0  0  0  0  0  0  # atno 7974 bound_to 7965
  156.1317  140.1524  156.9055 H   0  0  0  0  0  0  0  0  0  0  0  0  # atno 8008 bound_to 7997
  154.4914  140.0850  156.7643 H   0  0  0  0  0  0  0  0  0  0  0  0  # atno 8009 bound_to 7997
  155.4244  140.3424  155.4276 H   0  0  0  0  0  0  0  0  0  0  0  0  # atno 8010 bound_to 7997
  139.9937  143.5614  152.2332 H   0  0  0  0  0  0  0  0  0  0  0  0  # atno 10167 bound_to 10162
  157.6951  131.0308  150.3329 H   0  0  0  0  0  0  0  0  0  0  0  0  # atno 10718 bound_to 10713
  153.0185  135.5285  154.6976 H   0  0  0  0  0  0  0  0  0  0  0  0  # atno 10763 bound_to 10752
  154.6093  135.2876  155.0452 H   0  0  0  0  0  0  0  0  0  0  0  0  # atno 10764 bound_to 10752
  154.1479  135.6567  153.5009 H   0  0  0  0  0  0  0  0  0  0  0  0  # atno 10765 bound_to 10752
  139.9999  134.6459  155.9948 H   0  0  0  0  0  0  0  0  0  0  0  0  # atno 11005 bound_to 11000
  145.2980  139.1860  143.4705 LP  0  0  0  0  0  0  0  0  0  0  0  0  # atno 17320 bound_to 7965
  146.3288  140.2967  142.8618 LP  0  0  0  0  0  0  0  0  0  0  0  0  # atno 17321 bound_to 7965
  139.6321  144.7645  151.2513 LP  0  0  0  0  0  0  0  0  0  0  0  0  # atno 17342 bound_to 10162
  140.7445  143.6461  150.8291 LP  0  0  0  0  0  0  0  0  0  0  0  0  # atno 17343 bound_to 10162
  156.3800  130.3879  149.7109 LP  0  0  0  0  0  0  0  0  0  0  0  0  # atno 17370 bound_to 10713
  156.4494  130.7899  151.2921 LP  0  0  0  0  0  0  0  0  0  0  0  0  # atno 17371 bound_to 10713
  141.1633  133.6538  156.4394 LP  0  0  0  0  0  0  0  0  0  0  0  0  # atno 17394 bound_to 11000
  140.4748  134.6719  157.5145 LP  0  0  0  0  0  0  0  0  0  0  0  0  # atno 17395 bound_to 11000

$$$$
