AV-unprocessed.smi:2975|AV-procd|sdf|11356|dock6
  -GOLD-   2272016273D 1   1.00000     0.00000
 Structure written by MMmdl.
 39 41  0  0  0  0  0  0  0  0  1 V2000
  150.5628  136.0106  155.8678 C   0  0  0  0  0  0  0  0  0  0  0  0
  151.2669  137.1627  155.1370 C   0  0  1  0  0  0  0  0  0  0  0  0
  151.8683  136.6514  153.9659 O   0  0  0  0  0  0  0  0  0  0  0  0
  150.3237  138.2938  154.8316 C   0  0  0  0  0  0  0  0  0  0  0  0
  149.2097  138.0880  154.1245 N   0  0  0  0  0  0  0  0  0  0  0  0
  148.6356  139.3414  154.0794 C   0  0  0  0  0  0  0  0  0  0  0  0
  147.4305  139.7781  153.4842 C   0  0  0  0  0  0  0  0  0  0  0  0
  147.0417  141.1308  153.5699 C   0  0  0  0  0  0  0  0  0  0  0  0
  147.8507  142.0637  154.2501 C   0  0  0  0  0  0  0  0  0  0  0  0
  149.0561  141.6489  154.8485 C   0  0  0  0  0  0  0  0  0  0  0  0
  149.4400  140.2969  154.7603 C   0  0  0  0  0  0  0  0  0  0  0  0
  150.5391  139.5786  155.2236 N   0  0  0  0  0  0  0  0  0  0  0  0
  151.6581  140.1472  155.9646 C   0  0  0  0  0  0  0  0  0  0  0  0
  151.2107  141.1993  156.9891 C   0  0  0  0  0  0  0  0  0  0  0  0
  152.1268  141.2414  158.0748 O   0  0  0  0  0  0  0  0  0  0  0  0
  152.0179  142.2778  158.9784 C   0  0  0  0  0  0  0  0  0  0  0  0
  151.3442  143.4970  158.7095 C   0  0  0  0  0  0  0  0  0  0  0  0
  151.2704  144.5043  159.6911 C   0  0  0  0  0  0  0  0  0  0  0  0
  151.8688  144.3105  160.9492 C   0  0  0  0  0  0  0  0  0  0  0  0
  152.5418  143.1063  161.2249 C   0  0  0  0  0  0  0  0  0  0  0  0
  152.6154  142.0977  160.2447 C   0  0  0  0  0  0  0  0  0  0  0  0
  153.2758  140.9486  160.5231 F   0  0  0  0  0  0  0  0  0  0  0  0
  150.0929  136.3603  156.7869 H   0  0  0  0  0  0  0  0  0  0  0  0
  151.2692  135.2240  156.1347 H   0  0  0  0  0  0  0  0  0  0  0  0
  149.7831  135.5616  155.2514 H   0  0  0  0  0  0  0  0  0  0  0  0
  152.0773  137.5098  155.7736 H   0  0  0  0  0  0  0  0  0  0  0  0
  151.2658  136.7725  153.2479 H   0  0  0  0  0  0  0  0  0  0  0  0
  146.8041  139.0705  152.9616 H   0  0  0  0  0  0  0  0  0  0  0  0
  146.1184  141.4539  153.1118 H   0  0  0  0  0  0  0  0  0  0  0  0
  147.5457  143.0980  154.3118 H   0  0  0  0  0  0  0  0  0  0  0  0
  149.6771  142.3620  155.3698 H   0  0  0  0  0  0  0  0  0  0  0  0
  152.2398  139.3560  156.4358 H   0  0  0  0  0  0  0  0  0  0  0  0
  152.3334  140.6134  155.2467 H   0  0  0  0  0  0  0  0  0  0  0  0
  151.1723  142.1764  156.5053 H   0  0  0  0  0  0  0  0  0  0  0  0
  150.2061  140.9591  157.3409 H   0  0  0  0  0  0  0  0  0  0  0  0
  150.8705  143.6840  157.7581 H   0  0  0  0  0  0  0  0  0  0  0  0
  150.7520  145.4277  159.4778 H   0  0  0  0  0  0  0  0  0  0  0  0
  151.8120  145.0838  161.7011 H   0  0  0  0  0  0  0  0  0  0  0  0
  153.0040  142.9555  162.1893 H   0  0  0  0  0  0  0  0  0  0  0  0
  1  2  1  0  0  0  0
  1 23  1  0  0  0  0
  1 24  1  0  0  0  0
  1 25  1  0  0  0  0
  2  3  1  0  0  0  0
  2  4  1  0  0  0  0
  2 26  1  0  0  0  0
  3 27  1  0  0  0  0
  4 12  1  0  0  0  0
  4  5  2  0  0  0  0
  5  6  1  0  0  0  0
  6 11  2  0  0  0  0
  6  7  1  0  0  0  0
  7  8  2  0  0  0  0
  7 28  1  0  0  0  0
  8  9  1  0  0  0  0
  8 29  1  0  0  0  0
  9 10  2  0  0  0  0
  9 30  1  0  0  0  0
 10 11  1  0  0  0  0
 10 31  1  0  0  0  0
 11 12  1  0  0  0  0
 12 13  1  0  0  0  0
 13 14  1  0  0  0  0
 13 32  1  0  0  0  0
 13 33  1  0  0  0  0
 14 15  1  0  0  0  0
 14 34  1  0  0  0  0
 14 35  1  0  0  0  0
 15 16  1  0  0  0  0
 16 21  1  0  0  0  0
 16 17  2  0  0  0  0
 17 18  1  0  0  0  0
 17 36  1  0  0  0  0
 18 19  2  0  0  0  0
 18 37  1  0  0  0  0
 19 20  1  0  0  0  0
 19 38  1  0  0  0  0
 20 21  2  0  0  0  0
 20 39  1  0  0  0  0
 21 22  1  0  0  0  0
M  END
> <s_m_source_file>
AV-unprocessed.smi

> <i_m_source_file_index>
2975

> <i_lp_mmshare_version>
43012

> <i_f3d_flags>
0

> <s_epik_input>
W2NIXTFbY0hdW2NIXVtjSF1jKGMxMiluKGMobjIpW0NASF0oW0NIM10pW09IXSlbQ0gyXVtDSDJdT2MzW2NIXVtjSF1bY0hdW2NIXWMzRg==

> <s_epik_cmdline>
J2VwaWtfcHl0aG9uJywgJy1waCcsICc3LjAnLCAnLXRuJywgJzgnLCAnLW1hJywgJzIwMCcsICctbWV0YWxfYmluZGluZycsICctaW1hZScsICc8aW5maWxlLm1hZT4nLCAnLW9tYWUnLCAnPG91dGZpbGUubWFlPic=

> <r_lp_tautomer_probability>
1

> <r_epik_Ionization_Penalty>
0.0404035

> <r_epik_Ionization_Penalty_Charging>
0

> <r_epik_Ionization_Penalty_Neutral>
0.0404035

> <r_epik_State_Penalty>
0.0340039

> <r_epik_Charging_Adjusted_Penalty>
0.0340039

> <i_epik_Tot_Q>
0

> <i_epik_Tot_abs_Q>
0

> <r_epik_Metal_State_Penalty>
3.49976e-05

> <b_epik_Metal_Only>
0

> <s_lp_Force_Field>
OPLS_2005

> <r_lp_Energy>
14.7518

> <b_lp_Chiralities_Consistent>
1

> <s_lp_Variant>
AV-unprocessed.smi:2975-2

> <Gold.Version>
5.8.1

> <Gold.Id.Protein>
6NUR|6NUR_protein|mol2

> <Gold.PLP.Fitness>
56.4130

> <Gold.PLP.PLP>
-52.9423

> <Gold.PLP.part.hbond>
-1.7741

> <Gold.PLP.part.metal>
0.0000

> <Gold.PLP.part.buried>
-3.0865

> <Gold.PLP.part.nonpolar>
-48.3581

> <Gold.PLP.part.repulsive>
1.1841

> <Gold.PLP.ligand.clash>
0.0000

> <Gold.PLP.ligand.torsion>
0.8175

> <Gold.PLP.Chemscore.Hbond>
1.6793

> <Gold.PLP.Chemscore.CHOScore>
0.0000

> <Gold.PLP.Chemscore.Metal>
0.0000

> <Gold.Chemscore.Hbonds>
donor molecule, donor type, donor heavy atom, donor atom, acceptor molecule, acceptor atom, score
      L1  H     3    27       P1  7949  0.64
      P1  H 10752 10765       L1     3  0.94

> <Gold.PLP.Chemscore.Internal.Correction>
0.0679

> <Gold.Rescore>
     Score         DG    S(hbond)    S(metal)    S(lipo)     H(rot)  DE(clash)    DE(int)     intcor
     18.24     -19.04       1.17        0.00     130.94       2.21       0.25       0.55       ----

> <Gold.Chemscore.Fitness>
18.2391

> <Gold.Chemscore.DG>
-19.0446

> <Gold.Chemscore.ZeroCoef>
-5.4800

> <Gold.Chemscore.Hbond>
1.1654

> <Gold.Chemscore.Metal>
0.0000

> <Gold.Chemscore.Lipo>
130.9365

> <Gold.Chemscore.Internal_Hbond>
0.0000

> <Gold.Chemscore.DEClash>
0.2536

> <Gold.Chemscore.DEInternal>
0.5519

> <Gold.Chemscore.Rot>
2.2060

> <Gold.Chemscore.Internal.Correction>
   9.000000E+99

> <Gold.Chemscore.Hbonds>
donor molecule, donor type, donor heavy atom, donor atom, acceptor molecule, acceptor atom, score
      L1  H     3    27       P1  7949  0.42
      P1  H 10752 10765       L1     3  0.44

> <Gold.Chemscore.Hbond.Weighted>
-3.8924

> <Gold.Chemscore.Metal.Weighted>
-0.0000

> <Gold.Chemscore.Lipo.Weighted>
-15.3196

> <Gold.Chemscore.Internal_Hbond.Weighted>
0.0000

> <Gold.Chemscore.DEClash.Weighted>
0.2536

> <Gold.Chemscore.DEInternal.Weighted>
0.5519

> <Gold.Chemscore.Rot.Weighted>
5.6473

> <Gold.Chemscore.Internal.Correction.Weighted>
   9.000000E+99

> <Gold.Protein.RotatedTorsions>
[ 6907 6896 6895 6894 ] final    1.72 input  -60.11 | X-H torsion
[ 7974 7965 7964 7962 ] final -154.46 input  175.53 | X-H torsion
[ 8008 7997 7996 7995 ] final   32.37 input   59.86 | X-H torsion
[ 10167 10162 10161 10158 ] final  -57.06 input  -65.29 | X-H torsion
[ 10718 10713 10712 10709 ] final   -2.58 input   66.30 | X-H torsion
[ 10763 10752 10751 10750 ] final  174.44 input  -60.55 | X-H torsion
[ 11005 11000 10999 10996 ] final -173.71 input  -57.11 | X-H torsion

> <Gold.Protein.ActiveResidues>
 VAL166  LYS551  ARG553  GLY616  TRP617  ASP618  TYR619  PRO620  LYS621  CYS622 
 ASP623  PHE694  ASN695  SER759  ASP760  ASP761  ALA762  ILE779  LEU786  VAL792 
 PHE793  MET794  SER795  GLU796  ALA797  LYS798  CYS799  TRP800  GLU811  SER814 

> <Gold.Protein.RotatedAtoms>
  151.5972  135.1049  160.0051 H   0  0  0  0  0  0  0  0  0  0  0  0  # atno 6907 bound_to 6896
  152.4276  133.7218  159.6548 H   0  0  0  0  0  0  0  0  0  0  0  0  # atno 6908 bound_to 6896
  150.8166  133.8254  159.3180 H   0  0  0  0  0  0  0  0  0  0  0  0  # atno 6909 bound_to 6896
  144.7688  140.4384  143.5922 H   0  0  0  0  0  0  0  0  0  0  0  0  # atno 7974 bound_to 7965
  155.1214  140.3248  155.4496 H   0  0  0  0  0  0  0  0  0  0  0  0  # atno 8008 bound_to 7997
  156.2662  140.2026  156.6284 H   0  0  0  0  0  0  0  0  0  0  0  0  # atno 8009 bound_to 7997
  154.6681  140.0539  157.0122 H   0  0  0  0  0  0  0  0  0  0  0  0  # atno 8010 bound_to 7997
  140.6280  143.2447  151.5313 H   0  0  0  0  0  0  0  0  0  0  0  0  # atno 10167 bound_to 10162
  156.7887  130.5354  149.5739 H   0  0  0  0  0  0  0  0  0  0  0  0  # atno 10718 bound_to 10713
  154.4539  135.2765  155.1761 H   0  0  0  0  0  0  0  0  0  0  0  0  # atno 10763 bound_to 10752
  154.3577  135.6136  153.5678 H   0  0  0  0  0  0  0  0  0  0  0  0  # atno 10764 bound_to 10752
  152.9849  135.5827  154.4888 H   0  0  0  0  0  0  0  0  0  0  0  0  # atno 10765 bound_to 10752
  140.4827  134.6060  157.4925 H   0  0  0  0  0  0  0  0  0  0  0  0  # atno 11005 bound_to 11000
  145.6387  139.1547  143.2928 LP  0  0  0  0  0  0  0  0  0  0  0  0  # atno 17320 bound_to 7965
  146.1818  140.6485  142.9186 LP  0  0  0  0  0  0  0  0  0  0  0  0  # atno 17321 bound_to 7965
  139.5498  144.2425  152.1509 LP  0  0  0  0  0  0  0  0  0  0  0  0  # atno 17342 bound_to 10162
  140.1662  144.4979  150.6605 LP  0  0  0  0  0  0  0  0  0  0  0  0  # atno 17343 bound_to 10162
  156.1172  130.6084  151.0139 LP  0  0  0  0  0  0  0  0  0  0  0  0  # atno 17370 bound_to 10713
  157.6611  131.0880  150.7836 LP  0  0  0  0  0  0  0  0  0  0  0  0  # atno 17371 bound_to 10713
  139.9817  134.7127  155.9848 LP  0  0  0  0  0  0  0  0  0  0  0  0  # atno 17394 bound_to 11000
  141.1523  133.6547  156.4052 LP  0  0  0  0  0  0  0  0  0  0  0  0  # atno 17395 bound_to 11000

$$$$
