AV-unprocessed.smi:910|AV-procd|sdf|4128|dock2
  -GOLD-   22720 2 33D 1   1.00000     0.00000
 Structure written by MMmdl.
 47 48  0  0  0  0  0  0  0  0  2 V2000
  150.0225  141.5462  155.3407 C   0  0  0  0  0  0  0  0  0  0  0  0
  150.2501  140.0672  155.3440 C   0  0  0  0  0  0  0  0  0  0  0  0
  149.6106  139.0955  154.6102 N   0  3  0  0  0  0  0  0  0  0  0  0
  150.1130  137.9025  154.9191 C   0  0  0  0  0  0  0  0  0  0  0  0
  149.6804  136.6853  154.3449 N   0  0  0  0  0  0  0  0  0  0  0  0
  149.7559  135.4797  154.9284 C   0  0  0  0  0  0  0  0  0  0  0  0
  150.1797  135.2820  156.0675 O   0  0  0  0  0  0  0  0  0  0  0  0
  149.3143  134.5060  154.1178 N   0  0  0  0  0  0  0  0  0  0  0  0
  149.3133  133.0834  154.4457 C   0  0  0  0  0  0  0  0  0  0  0  0
  148.6877  132.2480  153.3195 C   0  0  0  0  0  0  0  0  0  0  0  0
  147.2738  132.3153  153.4148 O   0  0  0  0  0  0  0  0  0  0  0  0
  146.6068  132.4030  152.1641 C   0  0  2  0  0  0  0  0  0  0  0  0
  146.0375  133.8279  152.0464 C   0  0  0  0  0  0  0  0  0  0  0  0
  145.1873  133.9898  150.7778 C   0  0  0  0  0  0  0  0  0  0  0  0
  144.0647  132.9426  150.7316 C   0  0  0  0  0  0  0  0  0  0  0  0
  144.6282  131.5175  150.8514 C   0  0  0  0  0  0  0  0  0  0  0  0
  145.4819  131.3443  152.1239 C   0  0  1  0  0  0  0  0  0  0  0  0
  146.0347  129.9130  152.2195 C   0  0  0  0  0  0  0  0  0  0  0  0
  151.0943  138.0243  155.8532 O   0  0  0  0  0  0  0  0  0  0  0  0
  151.1681  139.3785  156.1069 C   0  0  0  0  0  0  0  0  0  0  0  0
  152.1744  139.8298  157.1114 C   0  0  0  0  0  0  0  0  0  0  0  0
  149.6389  141.8858  156.3031 H   0  0  0  0  0  0  0  0  0  0  0  0
  149.3014  141.8361  154.5762 H   0  0  0  0  0  0  0  0  0  0  0  0
  150.9483  142.0872  155.1436 H   0  0  0  0  0  0  0  0  0  0  0  0
  148.8723  139.2994  153.9483 H   0  0  0  0  0  0  0  0  0  0  0  0
  148.9793  134.7583  153.1994 H   0  0  0  0  0  0  0  0  0  0  0  0
  150.3213  132.7313  154.6718 H   0  0  0  0  0  0  0  0  0  0  0  0
  148.7305  132.9542  155.3579 H   0  0  0  0  0  0  0  0  0  0  0  0
  149.0027  132.6352  152.3495 H   0  0  0  0  0  0  0  0  0  0  0  0
  149.0281  131.2132  153.3866 H   0  0  0  0  0  0  0  0  0  0  0  0
  147.2907  132.2300  151.3299 H   0  0  0  0  0  0  0  0  0  0  0  0
  145.4266  134.0523  152.9220 H   0  0  0  0  0  0  0  0  0  0  0  0
  146.8509  134.5544  152.0435 H   0  0  0  0  0  0  0  0  0  0  0  0
  144.7621  134.9932  150.7404 H   0  0  0  0  0  0  0  0  0  0  0  0
  145.8212  133.8883  149.8961 H   0  0  0  0  0  0  0  0  0  0  0  0
  143.3596  133.1261  151.5433 H   0  0  0  0  0  0  0  0  0  0  0  0
  143.5010  133.0431  149.8037 H   0  0  0  0  0  0  0  0  0  0  0  0
  143.8060  130.8010  150.8533 H   0  0  0  0  0  0  0  0  0  0  0  0
  145.2306  131.2917  149.9701 H   0  0  0  0  0  0  0  0  0  0  0  0
  144.8332  131.5058  152.9863 H   0  0  0  0  0  0  0  0  0  0  0  0
  146.7181  129.6965  151.3978 H   0  0  0  0  0  0  0  0  0  0  0  0
  145.2300  129.1782  152.1854 H   0  0  0  0  0  0  0  0  0  0  0  0
  146.5763  129.7583  153.1528 H   0  0  0  0  0  0  0  0  0  0  0  0
  152.8315  140.5885  156.6861 H   0  0  0  0  0  0  0  0  0  0  0  0
  152.7943  138.9986  157.4488 H   0  0  0  0  0  0  0  0  0  0  0  0
  151.6818  140.2592  157.9840 H   0  0  0  0  0  0  0  0  0  0  0  0
  149.2969  136.7341  153.4127 H   0  0  0  0  0  0  0  0  0  0  0  0
  1 22  1  0  0  0  0
  1 23  1  0  0  0  0
  1 24  1  0  0  0  0
  1  2  1  0  0  0  0
  2  3  1  0  0  0  0
  2 20  2  0  0  0  0
  3 25  1  0  0  0  0
  3  4  2  0  0  0  0
  4 19  1  0  0  0  0
  4  5  1  0  0  0  0
  5  6  1  0  0  0  0
  5 47  1  0  0  0  0
  6  8  1  0  0  0  0
  6  7  2  0  0  0  0
  8  9  1  0  0  0  0
  8 26  1  0  0  0  0
  9 10  1  0  0  0  0
  9 27  1  0  0  0  0
  9 28  1  0  0  0  0
 10 11  1  0  0  0  0
 10 29  1  0  0  0  0
 10 30  1  0  0  0  0
 11 12  1  0  0  0  0
 12 17  1  0  0  0  0
 12 13  1  0  0  0  0
 12 31  1  0  0  0  0
 13 14  1  0  0  0  0
 13 32  1  0  0  0  0
 13 33  1  0  0  0  0
 14 15  1  0  0  0  0
 14 34  1  0  0  0  0
 14 35  1  0  0  0  0
 15 16  1  0  0  0  0
 15 36  1  0  0  0  0
 15 37  1  0  0  0  0
 16 17  1  0  0  0  0
 16 38  1  0  0  0  0
 16 39  1  0  0  0  0
 17 18  1  0  0  0  0
 17 40  1  0  0  0  0
 18 41  1  0  0  0  0
 18 42  1  0  0  0  0
 18 43  1  0  0  0  0
 19 20  1  0  0  0  0
 20 21  1  0  0  0  0
 21 44  1  0  0  0  0
 21 45  1  0  0  0  0
 21 46  1  0  0  0  0
M  CHG  1   3   1
M  END
> <s_m_source_file>
AV-unprocessed.smi

> <i_m_source_file_index>
910

> <i_lp_mmshare_version>
43012

> <i_f3d_flags>
0

> <s_epik_input>
W0NIM11jMW5jKG9jMVtDSDNdKVtOSF1DKD1PKVtOSF1bQ0gyXVtDSDJdT1tDQEBIXTJbQ0gyXVtDSDJdW0NIMl1bQ0gyXVtDQEhdMltDSDNd

> <s_epik_cmdline>
J2VwaWtfcHl0aG9uJywgJy1waCcsICc3LjAnLCAnLXRuJywgJzgnLCAnLW1hJywgJzIwMCcsICctbWV0YWxfYmluZGluZycsICctaW1hZScsICc8aW5maWxlLm1hZT4nLCAnLW9tYWUnLCAnPG91dGZpbGUubWFlPic=

> <r_epik_Ionization_Penalty>
7.32931

> <r_epik_Ionization_Penalty_Charging>
7.12214

> <r_epik_Ionization_Penalty_Neutral>
0.207166

> <r_epik_State_Penalty>
2.61278

> <r_epik_Charging_Adjusted_Penalty>
9.73492

> <i_epik_Tot_Q>
1

> <i_epik_Tot_abs_Q>
1

> <r_epik_Metal_State_Penalty>
2.64585

> <b_epik_Metal_Only>
0

> <s_lp_Force_Field>
OPLS_2005

> <r_lp_Energy>
16.0479

> <b_lp_Chiralities_Consistent>
1

> <s_lp_Variant>
AV-unprocessed.smi:910-13

> <Gold.Version>
5.8.1

> <Gold.Id.Protein>
6NUR|6NUR_protein|mol2

> <Gold.PLP.Fitness>
39.0832

> <Gold.PLP.PLP>
-36.2712

> <Gold.PLP.part.hbond>
-2.0938

> <Gold.PLP.part.metal>
0.0000

> <Gold.PLP.part.buried>
-4.8200

> <Gold.PLP.part.nonpolar>
-29.8727

> <Gold.PLP.part.repulsive>
0.2447

> <Gold.PLP.ligand.clash>
0.0000

> <Gold.PLP.ligand.torsion>
1.2183

> <Gold.PLP.Chemscore.Hbond>
1.7296

> <Gold.PLP.Chemscore.CHOScore>
0.0000

> <Gold.PLP.Chemscore.Metal>
0.0000

> <Gold.Chemscore.Hbonds>
donor molecule, donor type, donor heavy atom, donor atom, acceptor molecule, acceptor atom, score
      L1  H     5    47       P1  7948  1.00
      L1  H     8    26       P1  7948  0.70

> <Gold.PLP.Chemscore.Internal.Correction>
0.0599

> <Gold.Rescore>
     Score         DG    S(hbond)    S(metal)    S(lipo)     H(rot)  DE(clash)    DE(int)     intcor
     13.21     -15.72       1.21        0.00      90.20       1.69       0.09       2.41       ----

> <Gold.Chemscore.Fitness>
13.2125

> <Gold.Chemscore.DG>
-15.7202

> <Gold.Chemscore.ZeroCoef>
-5.4800

> <Gold.Chemscore.Hbond>
1.2055

> <Gold.Chemscore.Metal>
0.0000

> <Gold.Chemscore.Lipo>
90.1955

> <Gold.Chemscore.Internal_Hbond>
0.0000

> <Gold.Chemscore.DEClash>
0.0934

> <Gold.Chemscore.DEInternal>
2.4144

> <Gold.Chemscore.Rot>
1.6949

> <Gold.Chemscore.Internal.Correction>
   9.000000E+99

> <Gold.Chemscore.Hbonds>
donor molecule, donor type, donor heavy atom, donor atom, acceptor molecule, acceptor atom, score
      L1  H     5    47       P1  7948  0.93
      L1  H     8    26       P1  7948  0.10

> <Gold.Chemscore.Hbond.Weighted>
-4.0264

> <Gold.Chemscore.Metal.Weighted>
-0.0000

> <Gold.Chemscore.Lipo.Weighted>
-10.5529

> <Gold.Chemscore.Internal_Hbond.Weighted>
0.0000

> <Gold.Chemscore.DEClash.Weighted>
0.0934

> <Gold.Chemscore.DEInternal.Weighted>
2.4144

> <Gold.Chemscore.Rot.Weighted>
4.3390

> <Gold.Chemscore.Internal.Correction.Weighted>
   9.000000E+99

> <Gold.Protein.RotatedTorsions>
[ 6907 6896 6895 6894 ] final  151.58 input  -60.11 | X-H torsion
[ 7974 7965 7964 7962 ] final  -58.48 input  175.53 | X-H torsion
[ 8008 7997 7996 7995 ] final  -82.72 input   59.86 | X-H torsion
[ 10167 10162 10161 10158 ] final   37.56 input  -65.29 | X-H torsion
[ 10718 10713 10712 10709 ] final -173.24 input   66.30 | X-H torsion
[ 10763 10752 10751 10750 ] final   33.55 input  -60.55 | X-H torsion
[ 11005 11000 10999 10996 ] final  -17.26 input  -57.11 | X-H torsion

> <Gold.Protein.ActiveResidues>
 VAL166  LYS551  ARG553  GLY616  TRP617  ASP618  TYR619  PRO620  LYS621  CYS622 
 ASP623  PHE694  ASN695  SER759  ASP760  ASP761  ALA762  ILE779  LEU786  VAL792 
 PHE793  MET794  SER795  GLU796  ALA797  LYS798  CYS799  TRP800  GLU811  SER814 

> <Gold.Protein.RotatedAtoms>
  152.0987  133.4238  159.4576 H   0  0  0  0  0  0  0  0  0  0  0  0  # atno 6907 bound_to 6896
  150.6863  134.2786  159.4627 H   0  0  0  0  0  0  0  0  0  0  0  0  # atno 6908 bound_to 6896
  152.0644  134.9573  160.0625 H   0  0  0  0  0  0  0  0  0  0  0  0  # atno 6909 bound_to 6896
  145.8388  140.8431  143.0045 H   0  0  0  0  0  0  0  0  0  0  0  0  # atno 7974 bound_to 7965
  154.6116  140.0629  156.9500 H   0  0  0  0  0  0  0  0  0  0  0  0  # atno 8008 bound_to 7997
  155.1964  140.3311  155.4332 H   0  0  0  0  0  0  0  0  0  0  0  0  # atno 8009 bound_to 7997
  156.2380  140.1872  156.7051 H   0  0  0  0  0  0  0  0  0  0  0  0  # atno 8010 bound_to 7997
  140.4021  144.1709  150.6134 H   0  0  0  0  0  0  0  0  0  0  0  0  # atno 10167 bound_to 10162
  156.7674  130.9436  151.3119 H   0  0  0  0  0  0  0  0  0  0  0  0  # atno 10718 bound_to 10713
  153.0206  135.6384  154.1529 H   0  0  0  0  0  0  0  0  0  0  0  0  # atno 10763 bound_to 10752
  154.1264  135.2843  155.3197 H   0  0  0  0  0  0  0  0  0  0  0  0  # atno 10764 bound_to 10752
  154.6226  135.5519  153.7654 H   0  0  0  0  0  0  0  0  0  0  0  0  # atno 10765 bound_to 10752
  140.8150  133.8111  155.9601 H   0  0  0  0  0  0  0  0  0  0  0  0  # atno 11005 bound_to 11000
  144.6735  140.0781  143.7470 LP  0  0  0  0  0  0  0  0  0  0  0  0  # atno 17320 bound_to 7965
  145.9489  139.2720  143.1224 LP  0  0  0  0  0  0  0  0  0  0  0  0  # atno 17321 bound_to 7965
  140.4729  143.2406  151.9064 LP  0  0  0  0  0  0  0  0  0  0  0  0  # atno 17342 bound_to 10162
  139.4784  144.5351  151.8610 LP  0  0  0  0  0  0  0  0  0  0  0  0  # atno 17343 bound_to 10162
  157.6706  130.9048  150.0033 LP  0  0  0  0  0  0  0  0  0  0  0  0  # atno 17370 bound_to 10713
  156.1300  130.3643  149.9748 LP  0  0  0  0  0  0  0  0  0  0  0  0  # atno 17371 bound_to 10713
  140.9158  134.2203  157.4957 LP  0  0  0  0  0  0  0  0  0  0  0  0  # atno 17394 bound_to 11000
  139.8711  134.9770  156.4944 LP  0  0  0  0  0  0  0  0  0  0  0  0  # atno 17395 bound_to 11000

$$$$
