AV-unprocessed.smi:2973|AV-procd|sdf|11349|dock1
  -GOLD-   2272016263D 1   1.00000     0.00000
 Structure written by MMmdl.
 49 51  0  0  0  0  0  0  0  0  3 V2000
  151.1064  140.2665  157.3965 C   0  0  0  0  0  0  0  0  0  0  0  0
  150.2239  140.6931  156.2020 C   0  0  2  0  0  0  0  0  0  0  0  0
  148.8392  141.1530  156.7105 C   0  0  0  0  0  0  0  0  0  0  0  0
  147.9468  141.6602  155.5684 C   0  0  0  0  0  0  0  0  0  0  0  0
  147.7807  140.5947  154.4779 C   0  0  0  0  0  0  0  0  0  0  0  0
  149.1483  140.1307  153.9472 C   0  0  0  0  0  0  0  0  0  0  0  0
  150.1059  139.6271  155.0607 C   0  0  1  0  0  0  0  0  0  0  0  0
  151.4091  139.3763  154.4691 N   0  5  0  0  0  0  0  0  0  0  0  0
  151.7148  138.0656  154.6071 C   0  0  0  0  0  0  0  0  0  0  0  0
  152.7470  137.5076  154.2357 O   0  0  0  0  0  0  0  0  0  0  0  0
  150.7246  137.4018  155.2321 N   0  0  0  0  0  0  0  0  0  0  0  0
  150.7572  135.9733  155.5718 C   0  0  0  0  0  0  0  0  0  0  0  0
  149.3615  135.3351  155.5979 C   0  0  0  0  0  0  0  0  0  0  0  0
  148.7842  135.1152  156.6639 O   0  0  0  0  0  0  0  0  0  0  0  0
  148.8208  135.0549  154.4028 N   0  0  0  0  0  0  0  0  0  0  0  0
  147.5145  134.4404  154.2012 C   0  0  0  0  0  0  0  0  0  0  0  0
  147.5034  133.5262  152.9639 C   0  0  0  0  0  0  0  0  0  0  0  0
  146.4269  133.9185  151.9715 C   0  0  0  0  0  0  0  0  0  0  0  0
  145.3858  133.0371  151.6078 C   0  0  0  0  0  0  0  0  0  0  0  0
  144.4092  133.4676  150.6855 C   0  0  0  0  0  0  0  0  0  0  0  0
  144.4937  134.7685  150.1476 C   0  0  0  0  0  0  0  0  0  0  0  0
  145.5540  135.6076  150.5467 C   0  0  0  0  0  0  0  0  0  0  0  0
  146.4698  135.1590  151.4332 N   0  3  0  0  0  0  0  0  0  0  0  0
  149.7237  138.2309  155.5485 C   0  0  0  0  0  0  0  0  0  0  0  0
  148.6807  137.9451  156.1380 O   0  0  0  0  0  0  0  0  0  0  0  0
  150.6823  139.4178  157.9334 H   0  0  0  0  0  0  0  0  0  0  0  0
  151.2107  141.0828  158.1115 H   0  0  0  0  0  0  0  0  0  0  0  0
  152.1114  139.9903  157.0775 H   0  0  0  0  0  0  0  0  0  0  0  0
  150.7035  141.5720  155.7673 H   0  0  0  0  0  0  0  0  0  0  0  0
  148.3373  140.3382  157.2328 H   0  0  0  0  0  0  0  0  0  0  0  0
  148.9631  141.9491  157.4453 H   0  0  0  0  0  0  0  0  0  0  0  0
  146.9702  141.9470  155.9591 H   0  0  0  0  0  0  0  0  0  0  0  0
  148.3841  142.5607  155.1356 H   0  0  0  0  0  0  0  0  0  0  0  0
  147.2190  139.7477  154.8715 H   0  0  0  0  0  0  0  0  0  0  0  0
  147.1861  140.9969  153.6574 H   0  0  0  0  0  0  0  0  0  0  0  0
  148.9949  139.3539  153.1961 H   0  0  0  0  0  0  0  0  0  0  0  0
  149.6144  140.9640  153.4187 H   0  0  0  0  0  0  0  0  0  0  0  0
  151.3727  135.4265  154.8559 H   0  0  0  0  0  0  0  0  0  0  0  0
  151.2412  135.8383  156.5410 H   0  0  0  0  0  0  0  0  0  0  0  0
  149.3583  135.2760  153.5771 H   0  0  0  0  0  0  0  0  0  0  0  0
  147.2259  133.8810  155.0930 H   0  0  0  0  0  0  0  0  0  0  0  0
  146.7811  135.2386  154.0838 H   0  0  0  0  0  0  0  0  0  0  0  0
  148.4737  133.5571  152.4662 H   0  0  0  0  0  0  0  0  0  0  0  0
  147.3448  132.4884  153.2603 H   0  0  0  0  0  0  0  0  0  0  0  0
  145.3336  132.0444  152.0314 H   0  0  0  0  0  0  0  0  0  0  0  0
  143.6047  132.8078  150.3948 H   0  0  0  0  0  0  0  0  0  0  0  0
  143.7557  135.1177  149.4401 H   0  0  0  0  0  0  0  0  0  0  0  0
  145.6957  136.6164  150.1871 H   0  0  0  0  0  0  0  0  0  0  0  0
  147.2281  135.7840  151.7078 H   0  0  0  0  0  0  0  0  0  0  0  0
  1  2  1  0  0  0  0
  1 26  1  0  0  0  0
  1 27  1  0  0  0  0
  1 28  1  0  0  0  0
  2  7  1  0  0  0  0
  2  3  1  0  0  0  0
  2 29  1  0  0  0  0
  3  4  1  0  0  0  0
  3 30  1  0  0  0  0
  3 31  1  0  0  0  0
  4  5  1  0  0  0  0
  4 32  1  0  0  0  0
  4 33  1  0  0  0  0
  5  6  1  0  0  0  0
  5 34  1  0  0  0  0
  5 35  1  0  0  0  0
  6  7  1  0  0  0  0
  6 36  1  0  0  0  0
  6 37  1  0  0  0  0
  7 24  1  0  0  0  0
  7  8  1  0  0  0  0
  8  9  1  0  0  0  0
  9 10  2  0  0  0  0
  9 11  1  0  0  0  0
 11 12  1  0  0  0  0
 11 24  1  0  0  0  0
 12 13  1  0  0  0  0
 12 38  1  0  0  0  0
 12 39  1  0  0  0  0
 13 14  2  0  0  0  0
 13 15  1  0  0  0  0
 15 16  1  0  0  0  0
 15 40  1  0  0  0  0
 16 17  1  0  0  0  0
 16 41  1  0  0  0  0
 16 42  1  0  0  0  0
 17 18  1  0  0  0  0
 17 43  1  0  0  0  0
 17 44  1  0  0  0  0
 18 23  1  0  0  0  0
 18 19  2  0  0  0  0
 19 20  1  0  0  0  0
 19 45  1  0  0  0  0
 20 21  2  0  0  0  0
 20 46  1  0  0  0  0
 21 22  1  0  0  0  0
 21 47  1  0  0  0  0
 22 23  2  0  0  0  0
 22 48  1  0  0  0  0
 23 49  1  0  0  0  0
 24 25  2  0  0  0  0
M  CHG  1   8  -1
M  CHG  1  23   1
M  END
> <s_m_source_file>
AV-unprocessed.smi

> <i_m_source_file_index>
2973

> <i_lp_mmshare_version>
43012

> <i_f3d_flags>
0

> <s_epik_input>
W0NIMl0xW0NIMl1bQ0gyXVtDSDJdW0NAQEhdKFtDSDNdKVtDQF0xMltOSF1DKD1PKU4oQzI9TylbQ0gyXUMoPU8pW05IXVtDSDJdW0NIMl1jM1tjSF1bY0hdW2NIXVtjSF1uMw==

> <s_epik_cmdline>
J2VwaWtfcHl0aG9uJywgJy1waCcsICc3LjAnLCAnLXRuJywgJzgnLCAnLW1hJywgJzIwMCcsICctbWV0YWxfYmluZGluZycsICctaW1hZScsICc8aW5maWxlLm1hZT4nLCAnLW9tYWUnLCAnPG91dGZpbGUubWFlPic=

> <r_lp_tautomer_probability>
1

> <r_epik_Ionization_Penalty>
7.89073

> <r_epik_Ionization_Penalty_Charging>
7.89073

> <r_epik_Ionization_Penalty_Neutral>
1.56557e-07

> <r_epik_State_Penalty>
8.01193

> <r_epik_Charging_Adjusted_Penalty>
15.9027

> <i_epik_Tot_Q>
0

> <i_epik_Tot_abs_Q>
2

> <r_epik_Metal_State_Penalty>
3.98737

> <b_epik_Metal_Only>
1

> <s_lp_Force_Field>
OPLS_2005

> <r_lp_Energy>
17.4929

> <b_lp_Chiralities_Consistent>
1

> <s_lp_Variant>
AV-unprocessed.smi:2973-13

> <Gold.Version>
5.8.1

> <Gold.Id.Protein>
6NUR|6NUR_protein|mol2

> <Gold.PLP.Fitness>
47.8862

> <Gold.PLP.PLP>
-37.0147

> <Gold.PLP.part.hbond>
-4.0000

> <Gold.PLP.part.metal>
0.0000

> <Gold.PLP.part.buried>
-1.3683

> <Gold.PLP.part.nonpolar>
-31.7203

> <Gold.PLP.part.repulsive>
0.3293

> <Gold.PLP.ligand.clash>
0.0000

> <Gold.PLP.ligand.torsion>
1.1627

> <Gold.PLP.Chemscore.Hbond>
4.3760

> <Gold.PLP.Chemscore.CHOScore>
0.0000

> <Gold.PLP.Chemscore.Metal>
0.0000

> <Gold.Chemscore.Hbonds>
donor molecule, donor type, donor heavy atom, donor atom, acceptor molecule, acceptor atom, score
      L1  H    15    40       P1  7948  0.65
      L1  H    23    49       P1  7948  2.00
      P1  H  7989  7998       L1     8  1.00
      P1  H 10752 10765       L1    10  0.51

> <Gold.PLP.Chemscore.Internal.Correction>
0.0690

> <Gold.Rescore>
     Score         DG    S(hbond)    S(metal)    S(lipo)     H(rot)  DE(clash)    DE(int)     intcor
     14.04     -18.52       2.58        0.00      79.68       1.92       0.34       4.14       ----

> <Gold.Chemscore.Fitness>
14.0418

> <Gold.Chemscore.DG>
-18.5233

> <Gold.Chemscore.ZeroCoef>
-5.4800

> <Gold.Chemscore.Hbond>
2.5838

> <Gold.Chemscore.Metal>
0.0000

> <Gold.Chemscore.Lipo>
79.6767

> <Gold.Chemscore.Internal_Hbond>
0.0000

> <Gold.Chemscore.DEClash>
0.3445

> <Gold.Chemscore.DEInternal>
4.1370

> <Gold.Chemscore.Rot>
1.9175

> <Gold.Chemscore.Internal.Correction>
   9.000000E+99

> <Gold.Chemscore.Hbonds>
donor molecule, donor type, donor heavy atom, donor atom, acceptor molecule, acceptor atom, score
      L1  H    15    40       P1  7948  0.13
      L1  H    23    49       P1  7948  0.96
      P1  H  7989  7998       L1     8  0.35
      P1  H 10752 10765       L1    10  0.52

> <Gold.Chemscore.Hbond.Weighted>
-8.6299

> <Gold.Chemscore.Metal.Weighted>
-0.0000

> <Gold.Chemscore.Lipo.Weighted>
-9.3222

> <Gold.Chemscore.Internal_Hbond.Weighted>
0.0000

> <Gold.Chemscore.DEClash.Weighted>
0.3445

> <Gold.Chemscore.DEInternal.Weighted>
4.1370

> <Gold.Chemscore.Rot.Weighted>
4.9087

> <Gold.Chemscore.Internal.Correction.Weighted>
   9.000000E+99

> <Gold.Protein.RotatedTorsions>
[ 6907 6896 6895 6894 ] final -151.58 input  -60.11 | X-H torsion
[ 7974 7965 7964 7962 ] final   76.62 input  175.53 | X-H torsion
[ 8008 7997 7996 7995 ] final  114.14 input   59.86 | X-H torsion
[ 10167 10162 10161 10158 ] final   11.56 input  -65.29 | X-H torsion
[ 10718 10713 10712 10709 ] final  -51.53 input   66.30 | X-H torsion
[ 10763 10752 10751 10750 ] final  140.42 input  -60.55 | X-H torsion
[ 11005 11000 10999 10996 ] final    7.95 input  -57.11 | X-H torsion

> <Gold.Protein.ActiveResidues>
 VAL166  LYS551  ARG553  GLY616  TRP617  ASP618  TYR619  PRO620  LYS621  CYS622 
 ASP623  PHE694  ASN695  SER759  ASP760  ASP761  ALA762  ILE779  LEU786  VAL792 
 PHE793  MET794  SER795  GLU796  ALA797  LYS798  CYS799  TRP800  GLU811  SER814 

> <Gold.Protein.RotatedAtoms>
  151.2152  133.4533  159.2598 H   0  0  0  0  0  0  0  0  0  0  0  0  # atno 6907 bound_to 6896
  151.0938  134.9932  159.8426 H   0  0  0  0  0  0  0  0  0  0  0  0  # atno 6908 bound_to 6896
  152.5437  134.2083  159.8793 H   0  0  0  0  0  0  0  0  0  0  0  0  # atno 6909 bound_to 6896
  145.7005  139.2581  143.1708 H   0  0  0  0  0  0  0  0  0  0  0  0  # atno 7974 bound_to 7965
  156.2302  140.2965  156.0170 H   0  0  0  0  0  0  0  0  0  0  0  0  # atno 8008 bound_to 7997
  155.2245  140.0417  157.2970 H   0  0  0  0  0  0  0  0  0  0  0  0  # atno 8009 bound_to 7997
  154.5983  140.2420  155.7834 H   0  0  0  0  0  0  0  0  0  0  0  0  # atno 8010 bound_to 7997
  140.6124  143.8380  150.7080 H   0  0  0  0  0  0  0  0  0  0  0  0  # atno 10167 bound_to 10162
  156.1702  130.4149  149.9659 H   0  0  0  0  0  0  0  0  0  0  0  0  # atno 10718 bound_to 10713
  153.9224  135.2999  155.3447 H   0  0  0  0  0  0  0  0  0  0  0  0  # atno 10763 bound_to 10752
  154.7568  135.4953  153.9393 H   0  0  0  0  0  0  0  0  0  0  0  0  # atno 10764 bound_to 10752
  153.1134  135.6765  153.9563 H   0  0  0  0  0  0  0  0  0  0  0  0  # atno 10765 bound_to 10752
  140.5424  134.0361  155.7909 H   0  0  0  0  0  0  0  0  0  0  0  0  # atno 11005 bound_to 11000
  146.0802  140.7772  142.9645 LP  0  0  0  0  0  0  0  0  0  0  0  0  # atno 17320 bound_to 7965
  144.6970  140.3477  143.7187 LP  0  0  0  0  0  0  0  0  0  0  0  0  # atno 17321 bound_to 7965
  140.1951  143.4005  152.1834 LP  0  0  0  0  0  0  0  0  0  0  0  0  # atno 17342 bound_to 10162
  139.5372  144.7221  151.4855 LP  0  0  0  0  0  0  0  0  0  0  0  0  # atno 17343 bound_to 10162
  156.7461  130.9098  151.3635 LP  0  0  0  0  0  0  0  0  0  0  0  0  # atno 17370 bound_to 10713
  157.6797  130.9128  150.0237 LP  0  0  0  0  0  0  0  0  0  0  0  0  # atno 17371 bound_to 10713
  141.1219  133.9447  157.2712 LP  0  0  0  0  0  0  0  0  0  0  0  0  # atno 17394 bound_to 11000
  139.9497  135.0178  156.8957 LP  0  0  0  0  0  0  0  0  0  0  0  0  # atno 17395 bound_to 11000

$$$$
