AV-unprocessed.smi:1898|AV-procd|sdf|7702|dock5
  -GOLD-   22720 9443D 1   1.00000     0.00000
 Structure written by MMmdl.
 47 48  0  0  0  0  0  0  0  0  2 V2000
  141.5455  139.1779  154.6301 C   0  0  0  0  0  0  0  0  0  0  0  0
  142.4575  140.3115  154.6542 N   0  0  0  0  0  0  0  0  0  0  0  0
  142.9236  140.8796  155.7753 C   0  0  0  0  0  0  0  0  0  0  0  0
  142.6158  140.4959  156.9043 O   0  0  0  0  0  0  0  0  0  0  0  0
  143.8660  142.0733  155.5888 C   0  0  0  0  0  0  0  0  0  0  0  0
  145.0646  141.7462  154.7741 N   0  3  2  0  0  0  0  0  0  0  0  0
  145.9593  140.7715  155.4482 C   0  0  0  0  0  0  0  0  0  0  0  0
  147.1101  140.3378  154.5218 C   0  0  0  0  0  0  0  0  0  0  0  0
  147.9121  141.5391  153.9922 C   0  0  2  0  0  0  0  0  0  0  0  0
  148.7206  142.1254  155.0608 N   0  0  0  0  0  0  0  0  0  0  0  0
  149.5885  141.4548  155.8321 C   0  0  0  0  0  0  0  0  0  0  0  0
  149.8208  140.2532  155.7037 O   0  0  0  0  0  0  0  0  0  0  0  0
  150.1700  142.2690  156.7287 N   0  0  0  0  0  0  0  0  0  0  0  0
  151.1264  141.9460  157.7308 C   0  0  0  0  0  0  0  0  0  0  0  0
  151.4962  140.6202  158.0640 C   0  0  0  0  0  0  0  0  0  0  0  0
  152.4367  140.4109  159.0895 C   0  0  0  0  0  0  0  0  0  0  0  0
  152.9682  141.5330  159.7508 C   0  0  0  0  0  0  0  0  0  0  0  0
  152.6157  142.8006  159.4539 N   0  0  0  0  0  0  0  0  0  0  0  0
  151.7084  143.0052  158.4660 C   0  0  0  0  0  0  0  0  0  0  0  0
  151.3437  144.3044  158.1674 O   0  0  0  0  0  0  0  0  0  0  0  0
  151.8989  145.3611  158.9431 C   0  0  0  0  0  0  0  0  0  0  0  0
  146.9525  142.5699  153.3650 C   0  0  0  0  0  0  0  0  0  0  0  0
  145.8105  142.9515  154.3228 C   0  0  0  0  0  0  0  0  0  0  0  0
  141.3232  138.9008  153.5994 H   0  0  0  0  0  0  0  0  0  0  0  0
  140.6060  139.4246  155.1264 H   0  0  0  0  0  0  0  0  0  0  0  0
  141.9858  138.3131  155.1282 H   0  0  0  0  0  0  0  0  0  0  0  0
  142.7490  140.6872  153.7631 H   0  0  0  0  0  0  0  0  0  0  0  0
  143.3334  142.9186  155.1496 H   0  0  0  0  0  0  0  0  0  0  0  0
  144.1745  142.3830  156.5882 H   0  0  0  0  0  0  0  0  0  0  0  0
  146.3527  141.2104  156.3664 H   0  0  0  0  0  0  0  0  0  0  0  0
  145.3886  139.8891  155.7401 H   0  0  0  0  0  0  0  0  0  0  0  0
  147.7694  139.6417  155.0422 H   0  0  0  0  0  0  0  0  0  0  0  0
  146.6954  139.7861  153.6768 H   0  0  0  0  0  0  0  0  0  0  0  0
  148.5918  141.1758  153.2190 H   0  0  0  0  0  0  0  0  0  0  0  0
  148.5944  143.1105  155.2412 H   0  0  0  0  0  0  0  0  0  0  0  0
  149.9455  143.2503  156.6522 H   0  0  0  0  0  0  0  0  0  0  0  0
  151.0683  139.7629  157.5682 H   0  0  0  0  0  0  0  0  0  0  0  0
  152.7385  139.4116  159.3668 H   0  0  0  0  0  0  0  0  0  0  0  0
  153.6903  141.4094  160.5441 H   0  0  0  0  0  0  0  0  0  0  0  0
  151.5137  146.3142  158.5812 H   0  0  0  0  0  0  0  0  0  0  0  0
  152.9860  145.3907  158.8574 H   0  0  0  0  0  0  0  0  0  0  0  0
  151.6242  145.2715  159.9951 H   0  0  0  0  0  0  0  0  0  0  0  0
  147.4952  143.4635  153.0549 H   0  0  0  0  0  0  0  0  0  0  0  0
  146.5248  142.1494  152.4538 H   0  0  0  0  0  0  0  0  0  0  0  0
  145.1369  143.6417  153.8142 H   0  0  0  0  0  0  0  0  0  0  0  0
  146.2066  143.4834  155.1892 H   0  0  0  0  0  0  0  0  0  0  0  0
  144.7186  141.2865  153.9434 H   0  0  0  0  0  0  0  0  0  0  0  0
  1  2  1  0  0  0  0
  1 24  1  0  0  0  0
  1 25  1  0  0  0  0
  1 26  1  0  0  0  0
  2  3  1  0  0  0  0
  2 27  1  0  0  0  0
  3  4  2  0  0  0  0
  3  5  1  0  0  0  0
  5  6  1  0  0  0  0
  5 28  1  0  0  0  0
  5 29  1  0  0  0  0
  6 23  1  0  0  0  0
  6  7  1  0  0  0  0
  6 47  1  0  0  0  0
  7  8  1  0  0  0  0
  7 30  1  0  0  0  0
  7 31  1  0  0  0  0
  8  9  1  0  0  0  0
  8 32  1  0  0  0  0
  8 33  1  0  0  0  0
  9 10  1  0  0  0  0
  9 22  1  0  0  0  0
  9 34  1  0  0  0  0
 10 11  1  0  0  0  0
 10 35  1  0  0  0  0
 11 12  2  0  0  0  0
 11 13  1  0  0  0  0
 13 14  1  0  0  0  0
 13 36  1  0  0  0  0
 14 19  1  0  0  0  0
 14 15  2  0  0  0  0
 15 16  1  0  0  0  0
 15 37  1  0  0  0  0
 16 17  2  0  0  0  0
 16 38  1  0  0  0  0
 17 18  1  0  0  0  0
 17 39  1  0  0  0  0
 18 19  2  0  0  0  0
 19 20  1  0  0  0  0
 20 21  1  0  0  0  0
 21 40  1  0  0  0  0
 21 41  1  0  0  0  0
 21 42  1  0  0  0  0
 22 23  1  0  0  0  0
 22 43  1  0  0  0  0
 22 44  1  0  0  0  0
 23 45  1  0  0  0  0
 23 46  1  0  0  0  0
M  CHG  1   6   1
M  END
> <s_m_source_file>
AV-unprocessed.smi

> <i_m_source_file_index>
1898

> <i_lp_mmshare_version>
43012

> <i_f3d_flags>
0

> <s_epik_input>
W0NIM11bTkhdQyg9TylbQ0gyXU4xW0NIMl1bQ0gyXVtDSF0oW0NIMl1bQ0gyXTEpW05IXUMoPU8pW05IXWMyW2NIXVtjSF1bY0hdbmMyT1tDSDNd

> <s_epik_cmdline>
J2VwaWtfcHl0aG9uJywgJy1waCcsICc3LjAnLCAnLXRuJywgJzgnLCAnLW1hJywgJzIwMCcsICctbWV0YWxfYmluZGluZycsICctaW1hZScsICc8aW5maWxlLm1hZT4nLCAnLW9tYWUnLCAnPG91dGZpbGUubWFlPic=

> <r_lp_tautomer_probability>
1

> <r_epik_Ionization_Penalty>
0.838943

> <r_epik_Ionization_Penalty_Charging>
0.838844

> <r_epik_Ionization_Penalty_Neutral>
9.87395e-05

> <r_epik_State_Penalty>
0.8734

> <r_epik_Charging_Adjusted_Penalty>
1.71224

> <i_epik_Tot_Q>
1

> <i_epik_Tot_abs_Q>
1

> <r_epik_Metal_State_Penalty>
0.877926

> <b_epik_Metal_Only>
0

> <s_lp_Force_Field>
OPLS_2005

> <r_lp_Energy>
16.0451

> <b_lp_Chiralities_Consistent>
1

> <s_lp_Variant>
AV-unprocessed.smi:1898-3

> <Gold.Version>
5.8.1

> <Gold.Id.Protein>
6NUR|6NUR_protein|mol2

> <Gold.PLP.Fitness>
50.6764

> <Gold.PLP.PLP>
-36.1079

> <Gold.PLP.part.hbond>
-4.0000

> <Gold.PLP.part.metal>
0.0000

> <Gold.PLP.part.buried>
-8.5442

> <Gold.PLP.part.nonpolar>
-24.8971

> <Gold.PLP.part.repulsive>
0.4429

> <Gold.PLP.ligand.clash>
0.0000

> <Gold.PLP.ligand.torsion>
0.1118

> <Gold.PLP.Chemscore.Hbond>
4.9199

> <Gold.PLP.Chemscore.CHOScore>
0.0000

> <Gold.PLP.Chemscore.Metal>
0.0000

> <Gold.Chemscore.Hbonds>
donor molecule, donor type, donor heavy atom, donor atom, acceptor molecule, acceptor atom, score
      L1  H     2    27       P1 10175  0.95
      L1  H     6    47       P1 10175  2.00
      L1  H    10    35       P1  8028  1.00
      L1  H    13    36       P1  8028  0.89

> <Gold.PLP.Chemscore.Internal.Correction>
0.0324

> <Gold.Rescore>
     Score         DG    S(hbond)    S(metal)    S(lipo)     H(rot)  DE(clash)    DE(int)     intcor
     18.44     -22.23       3.86        0.00      76.56       2.00       1.38       2.40       ----

> <Gold.Chemscore.Fitness>
18.4447

> <Gold.Chemscore.DG>
-22.2255

> <Gold.Chemscore.ZeroCoef>
-5.4800

> <Gold.Chemscore.Hbond>
3.8618

> <Gold.Chemscore.Metal>
0.0000

> <Gold.Chemscore.Lipo>
76.5623

> <Gold.Chemscore.Internal_Hbond>
0.0000

> <Gold.Chemscore.DEClash>
1.3762

> <Gold.Chemscore.DEInternal>
2.4047

> <Gold.Chemscore.Rot>
1.9963

> <Gold.Chemscore.Internal.Correction>
   9.000000E+99

> <Gold.Chemscore.Hbonds>
donor molecule, donor type, donor heavy atom, donor atom, acceptor molecule, acceptor atom, score
      L1  H     2    27       P1 10175  0.43
      L1  H     6    47       P1 10175  0.49
      L1  H    10    35       P1  8028  1.00
      L1  H    13    36       P1  8028  0.82

> <Gold.Chemscore.Hbond.Weighted>
-12.8983

> <Gold.Chemscore.Metal.Weighted>
-0.0000

> <Gold.Chemscore.Lipo.Weighted>
-8.9578

> <Gold.Chemscore.Internal_Hbond.Weighted>
0.0000

> <Gold.Chemscore.DEClash.Weighted>
1.3762

> <Gold.Chemscore.DEInternal.Weighted>
2.4047

> <Gold.Chemscore.Rot.Weighted>
5.1105

> <Gold.Chemscore.Internal.Correction.Weighted>
   9.000000E+99

> <Gold.Protein.RotatedTorsions>
[ 6907 6896 6895 6894 ] final    0.95 input  -60.11 | X-H torsion
[ 7974 7965 7964 7962 ] final  121.20 input  175.53 | X-H torsion
[ 8008 7997 7996 7995 ] final -120.19 input   59.86 | X-H torsion
[ 10167 10162 10161 10158 ] final  162.43 input  -65.29 | X-H torsion
[ 10718 10713 10712 10709 ] final -125.66 input   66.30 | X-H torsion
[ 10763 10752 10751 10750 ] final  156.43 input  -60.55 | X-H torsion
[ 11005 11000 10999 10996 ] final  -50.42 input  -57.11 | X-H torsion

> <Gold.Protein.ActiveResidues>
 VAL166  LYS551  ARG553  GLY616  TRP617  ASP618  TYR619  PRO620  LYS621  CYS622 
 ASP623  PHE694  ASN695  SER759  ASP760  ASP761  ALA762  ILE779  LEU786  VAL792 
 PHE793  MET794  SER795  GLU796  ALA797  LYS798  CYS799  TRP800  GLU811  SER814 

> <Gold.Protein.RotatedAtoms>
  151.5847  135.1056  160.0024 H   0  0  0  0  0  0  0  0  0  0  0  0  # atno 6907 bound_to 6896
  152.4336  133.7318  159.6602 H   0  0  0  0  0  0  0  0  0  0  0  0  # atno 6908 bound_to 6896
  150.8232  133.8147  159.3153 H   0  0  0  0  0  0  0  0  0  0  0  0  # atno 6909 bound_to 6896
  145.1221  139.3382  143.4709 H   0  0  0  0  0  0  0  0  0  0  0  0  # atno 7974 bound_to 7965
  155.1278  140.0399  157.2767 H   0  0  0  0  0  0  0  0  0  0  0  0  # atno 8008 bound_to 7997
  154.6565  140.2581  155.7129 H   0  0  0  0  0  0  0  0  0  0  0  0  # atno 8009 bound_to 7997
  156.2600  140.2825  156.1020 H   0  0  0  0  0  0  0  0  0  0  0  0  # atno 8010 bound_to 7997
  139.4860  144.4439  151.8917 H   0  0  0  0  0  0  0  0  0  0  0  0  # atno 10167 bound_to 10162
  156.1695  130.6658  151.0161 H   0  0  0  0  0  0  0  0  0  0  0  0  # atno 10718 bound_to 10713
  154.1842  135.2798  155.3042 H   0  0  0  0  0  0  0  0  0  0  0  0  # atno 10763 bound_to 10752
  154.5979  135.5539  153.7347 H   0  0  0  0  0  0  0  0  0  0  0  0  # atno 10764 bound_to 10752
  153.0129  135.6384  154.1981 H   0  0  0  0  0  0  0  0  0  0  0  0  # atno 10765 bound_to 10752
  141.0815  133.6652  156.3728 H   0  0  0  0  0  0  0  0  0  0  0  0  # atno 11005 bound_to 11000
  146.3520  140.1184  142.8601 LP  0  0  0  0  0  0  0  0  0  0  0  0  # atno 17320 bound_to 7965
  145.0729  140.9168  143.4871 LP  0  0  0  0  0  0  0  0  0  0  0  0  # atno 17321 bound_to 7965
  140.3892  144.2638  150.5901 LP  0  0  0  0  0  0  0  0  0  0  0  0  # atno 17342 bound_to 10162
  140.5162  143.2277  151.8459 LP  0  0  0  0  0  0  0  0  0  0  0  0  # atno 17343 bound_to 10162
  157.6792  131.0842  150.7413 LP  0  0  0  0  0  0  0  0  0  0  0  0  # atno 17370 bound_to 10713
  156.7473  130.4757  149.5464 LP  0  0  0  0  0  0  0  0  0  0  0  0  # atno 17371 bound_to 10713
  140.5458  134.6075  157.5393 LP  0  0  0  0  0  0  0  0  0  0  0  0  # atno 17394 bound_to 11000
  139.9629  134.7422  156.0199 LP  0  0  0  0  0  0  0  0  0  0  0  0  # atno 17395 bound_to 11000

$$$$
