AV-unprocessed.smi:2327|AV-procd|sdf|9299|dock2
  -GOLD-   2272012523D 1   1.00000     0.00000
 Structure written by MMmdl.
 40 41  0  0  0  0  0  0  0  0  1 V2000
  148.2742  123.1380  149.3586 C   0  0  0  0  0  0  0  0  0  0  0  0
  148.4183  124.5385  149.8646 C   0  0  0  0  0  0  0  0  0  0  0  0
  149.0158  125.5935  149.2216 C   0  0  0  0  0  0  0  0  0  0  0  0
  148.9660  127.0489  150.1778 S   0  0  0  0  0  0  0  0  0  0  0  0
  148.1192  126.1567  151.4373 C   0  0  0  0  0  0  0  0  0  0  0  0
  147.7110  126.7683  152.7428 C   0  0  1  0  0  0  0  0  0  0  0  0
  147.8547  125.7821  153.9109 C   0  0  0  0  0  0  0  0  0  0  0  0
  148.3923  128.1255  153.0159 C   0  0  0  0  0  0  0  0  0  0  0  0
  147.9108  129.1690  152.1135 N   0  0  0  0  0  0  0  0  0  0  0  0
  146.6359  129.5769  151.9896 C   0  0  0  0  0  0  0  0  0  0  0  0
  145.6974  129.0761  152.6057 O   0  0  0  0  0  0  0  0  0  0  0  0
  146.4528  130.5892  151.1233 N   0  0  0  0  0  0  0  0  0  0  0  0
  145.2021  131.2593  150.7617 C   0  0  0  0  0  0  0  0  0  0  0  0
  145.4343  132.1516  149.5329 C   0  0  0  0  0  0  0  0  0  0  0  0
  144.1820  132.9860  149.2175 C   0  0  0  0  0  0  0  0  0  0  0  0
  143.8109  133.7579  150.3544 O   0  0  0  0  0  0  0  0  0  0  0  0
  143.4664  132.9567  151.4791 C   0  0  0  0  0  0  0  0  0  0  0  0
  144.6797  132.1241  151.9231 C   0  0  0  0  0  0  0  0  0  0  0  0
  147.9118  124.8745  151.1225 N   0  0  0  0  0  0  0  0  0  0  0  0
  148.7004  123.0275  148.3613 H   0  0  0  0  0  0  0  0  0  0  0  0
  147.2253  122.8461  149.3028 H   0  0  0  0  0  0  0  0  0  0  0  0
  148.7808  122.4294  150.0143 H   0  0  0  0  0  0  0  0  0  0  0  0
  149.4826  125.6029  148.2479 H   0  0  0  0  0  0  0  0  0  0  0  0
  146.6435  126.9755  152.6556 H   0  0  0  0  0  0  0  0  0  0  0  0
  147.2840  124.8710  153.7283 H   0  0  0  0  0  0  0  0  0  0  0  0
  147.4904  126.2193  154.8408 H   0  0  0  0  0  0  0  0  0  0  0  0
  148.8964  125.4982  154.0640 H   0  0  0  0  0  0  0  0  0  0  0  0
  148.1873  128.4432  154.0383 H   0  0  0  0  0  0  0  0  0  0  0  0
  149.4761  128.0195  152.9434 H   0  0  0  0  0  0  0  0  0  0  0  0
  148.6083  129.6394  151.5557 H   0  0  0  0  0  0  0  0  0  0  0  0
  147.2740  130.9040  150.6267 H   0  0  0  0  0  0  0  0  0  0  0  0
  144.4490  130.5144  150.4969 H   0  0  0  0  0  0  0  0  0  0  0  0
  146.2736  132.8245  149.7153 H   0  0  0  0  0  0  0  0  0  0  0  0
  145.7041  131.5430  148.6691 H   0  0  0  0  0  0  0  0  0  0  0  0
  144.3824  133.6610  148.3855 H   0  0  0  0  0  0  0  0  0  0  0  0
  143.3530  132.3446  148.9140 H   0  0  0  0  0  0  0  0  0  0  0  0
  143.1439  133.6093  152.2905 H   0  0  0  0  0  0  0  0  0  0  0  0
  142.6210  132.3117  151.2345 H   0  0  0  0  0  0  0  0  0  0  0  0
  144.4075  131.5016  152.7758 H   0  0  0  0  0  0  0  0  0  0  0  0
  145.4673  132.7959  152.2674 H   0  0  0  0  0  0  0  0  0  0  0  0
  1  2  1  0  0  0  0
  1 20  1  0  0  0  0
  1 21  1  0  0  0  0
  1 22  1  0  0  0  0
  2 19  1  0  0  0  0
  2  3  2  0  0  0  0
  3  4  1  0  0  0  0
  3 23  1  0  0  0  0
  4  5  1  0  0  0  0
  5  6  1  0  0  0  0
  5 19  2  0  0  0  0
  6  7  1  0  0  0  0
  6  8  1  0  0  0  0
  6 24  1  0  0  0  0
  7 25  1  0  0  0  0
  7 26  1  0  0  0  0
  7 27  1  0  0  0  0
  8  9  1  0  0  0  0
  8 28  1  0  0  0  0
  8 29  1  0  0  0  0
  9 10  1  0  0  0  0
  9 30  1  0  0  0  0
 10 11  2  0  0  0  0
 10 12  1  0  0  0  0
 12 13  1  0  0  0  0
 12 31  1  0  0  0  0
 13 18  1  0  0  0  0
 13 14  1  0  0  0  0
 13 32  1  0  0  0  0
 14 15  1  0  0  0  0
 14 33  1  0  0  0  0
 14 34  1  0  0  0  0
 15 16  1  0  0  0  0
 15 35  1  0  0  0  0
 15 36  1  0  0  0  0
 16 17  1  0  0  0  0
 17 18  1  0  0  0  0
 17 37  1  0  0  0  0
 17 38  1  0  0  0  0
 18 39  1  0  0  0  0
 18 40  1  0  0  0  0
M  END
> <s_m_source_file>
AV-unprocessed.smi

> <i_m_source_file_index>
2327

> <i_lp_mmshare_version>
43012

> <i_f3d_flags>
0

> <s_epik_input>
W0NIM11jMVtjSF1zYyhuMSlbQ0BIXShbQ0gzXSlbQ0gyXVtOSF1DKD1PKVtOSF1bQ0hdMltDSDJdW0NIMl1PW0NIMl1bQ0gyXTI=

> <s_epik_cmdline>
J2VwaWtfcHl0aG9uJywgJy1waCcsICc3LjAnLCAnLXRuJywgJzgnLCAnLW1hJywgJzIwMCcsICctbWV0YWxfYmluZGluZycsICctaW1hZScsICc8aW5maWxlLm1hZT4nLCAnLW9tYWUnLCAnPG91dGZpbGUubWFlPic=

> <r_epik_Ionization_Penalty>
0.0015425

> <r_epik_Ionization_Penalty_Charging>
0

> <r_epik_Ionization_Penalty_Neutral>
0.0015425

> <r_epik_State_Penalty>
0.000998134

> <r_epik_Charging_Adjusted_Penalty>
0.000998134

> <i_epik_Tot_Q>
0

> <i_epik_Tot_abs_Q>
0

> <r_epik_Metal_State_Penalty>
-0

> <b_epik_Metal_Only>
0

> <s_lp_Force_Field>
OPLS_2005

> <r_lp_Energy>
7.91954

> <b_lp_Chiralities_Consistent>
1

> <s_lp_Variant>
AV-unprocessed.smi:2327-2

> <Gold.Version>
5.8.1

> <Gold.Id.Protein>
6NUR|6NUR_protein|mol2

> <Gold.PLP.Fitness>
42.9138

> <Gold.PLP.PLP>
-36.0215

> <Gold.PLP.part.hbond>
-2.9052

> <Gold.PLP.part.metal>
0.0000

> <Gold.PLP.part.buried>
-4.5702

> <Gold.PLP.part.nonpolar>
-29.8836

> <Gold.PLP.part.repulsive>
1.5831

> <Gold.PLP.ligand.clash>
0.0000

> <Gold.PLP.ligand.torsion>
0.7310

> <Gold.PLP.Chemscore.Hbond>
1.8928

> <Gold.PLP.Chemscore.CHOScore>
0.8567

> <Gold.PLP.Chemscore.Metal>
0.0000

> <Gold.Chemscore.Hbonds>
donor molecule, donor type, donor heavy atom, donor atom, acceptor molecule, acceptor atom, score
      L1  H     9    30       P1 10747  0.84
      L1  H    12    31       P1 10747  1.00
      L1  C     3    23       P1 10769  0.82

> <Gold.PLP.Chemscore.Internal.Correction>
0.1058

> <Gold.Rescore>
     Score         DG    S(hbond)    S(metal)    S(lipo)     H(rot)  DE(clash)    DE(int)     intcor
     14.35     -16.27       1.12        0.00      93.62       1.53       1.00       0.91       ----

> <Gold.Chemscore.Fitness>
14.3513

> <Gold.Chemscore.DG>
-16.2651

> <Gold.Chemscore.ZeroCoef>
-5.4800

> <Gold.Chemscore.Hbond>
1.1243

> <Gold.Chemscore.Metal>
0.0000

> <Gold.Chemscore.Lipo>
93.6177

> <Gold.Chemscore.Internal_Hbond>
0.0000

> <Gold.Chemscore.DEClash>
1.0049

> <Gold.Chemscore.DEInternal>
0.9090

> <Gold.Chemscore.Rot>
1.5325

> <Gold.Chemscore.Internal.Correction>
   9.000000E+99

> <Gold.Chemscore.Hbonds>
donor molecule, donor type, donor heavy atom, donor atom, acceptor molecule, acceptor atom, score
      L1  H     9    30       P1 10747  0.14
      L1  H    12    31       P1 10747  0.96

> <Gold.Chemscore.Hbond.Weighted>
-3.7551

> <Gold.Chemscore.Metal.Weighted>
-0.0000

> <Gold.Chemscore.Lipo.Weighted>
-10.9533

> <Gold.Chemscore.Internal_Hbond.Weighted>
0.0000

> <Gold.Chemscore.DEClash.Weighted>
1.0049

> <Gold.Chemscore.DEInternal.Weighted>
0.9090

> <Gold.Chemscore.Rot.Weighted>
3.9233

> <Gold.Chemscore.Internal.Correction.Weighted>
   9.000000E+99

> <Gold.Protein.RotatedTorsions>
[ 6907 6896 6895 6894 ] final -159.13 input  -60.11 | X-H torsion
[ 7974 7965 7964 7962 ] final   50.97 input  175.53 | X-H torsion
[ 8008 7997 7996 7995 ] final -152.29 input   59.86 | X-H torsion
[ 10167 10162 10161 10158 ] final  101.80 input  -65.29 | X-H torsion
[ 10718 10713 10712 10709 ] final   11.35 input   66.30 | X-H torsion
[ 10763 10752 10751 10750 ] final  -41.08 input  -60.55 | X-H torsion
[ 11005 11000 10999 10996 ] final  -13.28 input  -57.11 | X-H torsion

> <Gold.Protein.ActiveResidues>
 VAL166  LYS551  ARG553  GLY616  TRP617  ASP618  TYR619  PRO620  LYS621  CYS622 
 ASP623  PHE694  ASN695  SER759  ASP760  ASP761  ALA762  ILE779  LEU786  VAL792 
 PHE793  MET794  SER795  GLU796  ALA797  LYS798  CYS799  TRP800  GLU811  SER814 

> <Gold.Protein.RotatedAtoms>
  151.3288  133.4009  159.2660 H   0  0  0  0  0  0  0  0  0  0  0  0  # atno 6907 bound_to 6896
  150.9973  134.9294  159.7944 H   0  0  0  0  0  0  0  0  0  0  0  0  # atno 6908 bound_to 6896
  152.5265  134.3253  159.9215 H   0  0  0  0  0  0  0  0  0  0  0  0  # atno 6909 bound_to 6896
  145.9959  139.4388  143.0045 H   0  0  0  0  0  0  0  0  0  0  0  0  # atno 7974 bound_to 7965
  155.6527  140.0714  157.2581 H   0  0  0  0  0  0  0  0  0  0  0  0  # atno 8008 bound_to 7997
  154.4159  140.1730  156.1742 H   0  0  0  0  0  0  0  0  0  0  0  0  # atno 8009 bound_to 7997
  155.9763  140.3357  155.6625 H   0  0  0  0  0  0  0  0  0  0  0  0  # atno 8010 bound_to 7997
  139.7406  144.7012  151.0581 H   0  0  0  0  0  0  0  0  0  0  0  0  # atno 10167 bound_to 10162
  156.9944  130.6055  149.5689 H   0  0  0  0  0  0  0  0  0  0  0  0  # atno 10718 bound_to 10713
  153.9567  135.6744  153.4744 H   0  0  0  0  0  0  0  0  0  0  0  0  # atno 10763 bound_to 10752
  153.0858  135.4900  154.8590 H   0  0  0  0  0  0  0  0  0  0  0  0  # atno 10764 bound_to 10752
  154.7295  135.3135  154.8874 H   0  0  0  0  0  0  0  0  0  0  0  0  # atno 10765 bound_to 10752
  140.7744  133.8412  155.9236 H   0  0  0  0  0  0  0  0  0  0  0  0  # atno 11005 bound_to 11000
  145.7560  140.9954  143.1225 LP  0  0  0  0  0  0  0  0  0  0  0  0  # atno 17320 bound_to 7965
  144.6903  139.9272  143.7470 LP  0  0  0  0  0  0  0  0  0  0  0  0  # atno 17321 bound_to 7965
  140.7785  143.4929  150.9870 LP  0  0  0  0  0  0  0  0  0  0  0  0  # atno 17342 bound_to 10162
  139.8617  143.7306  152.3173 LP  0  0  0  0  0  0  0  0  0  0  0  0  # atno 17343 bound_to 10162
  156.0195  130.5289  150.8233 LP  0  0  0  0  0  0  0  0  0  0  0  0  # atno 17370 bound_to 10713
  157.5436  131.0941  150.9794 LP  0  0  0  0  0  0  0  0  0  0  0  0  # atno 17371 bound_to 10713
  140.9543  134.1739  157.4704 LP  0  0  0  0  0  0  0  0  0  0  0  0  # atno 17394 bound_to 11000
  139.8751  134.9921  156.5579 LP  0  0  0  0  0  0  0  0  0  0  0  0  # atno 17395 bound_to 11000

$$$$
