AV-unprocessed.smi:3292|AV-procd|sdf|12626|dock8
  -GOLD-   2272018563D 1   1.00000     0.00000
 Structure written by MMmdl.
 38 39  0  0  0  0  0  0  0  0  1 V2000
  144.6856  135.1854  154.2802 C   0  0  0  0  0  0  0  0  0  0  0  0
  145.3411  135.2178  152.8895 C   0  0  1  0  0  0  0  0  0  0  0  0
  144.3234  135.4039  151.7425 C   0  0  0  0  0  0  0  0  0  0  0  0
  144.0373  134.1668  151.0409 N   0  0  0  0  0  0  0  0  0  0  0  0
  143.4711  133.0162  151.5736 C   0  0  0  0  0  0  0  0  0  0  0  0
  143.3934  132.1042  150.5455 C   0  0  0  0  0  0  0  0  0  0  0  0
  143.9079  132.6667  149.3798 N   0  0  0  0  0  0  0  0  0  0  0  0
  144.2725  133.8872  149.7515 C   0  0  0  0  0  0  0  0  0  0  0  0
  146.3401  136.2823  152.8565 N   0  0  0  0  0  0  0  0  0  0  0  0
  146.1490  137.5359  153.2912 C   0  0  0  0  0  0  0  0  0  0  0  0
  145.0980  137.9407  153.7887 O   0  0  0  0  0  0  0  0  0  0  0  0
  147.2396  138.2950  153.1145 N   0  0  0  0  0  0  0  0  0  0  0  0
  147.3545  139.7054  153.4726 C   0  0  0  0  0  0  0  0  0  0  0  0
  148.4738  139.9467  154.5030 C   0  0  2  0  0  0  0  0  0  0  0  0
  148.7802  141.4109  154.7422 C   0  0  0  0  0  0  0  0  0  0  0  0
  150.1594  141.3479  155.3931 C   0  0  0  0  0  0  0  0  0  0  0  0
  150.7868  140.1789  154.8727 O   0  0  0  0  0  0  0  0  0  0  0  0
  149.8555  139.4289  154.0998 C   0  0  0  0  0  0  0  0  0  0  0  0
  143.9992  134.3444  154.3798 H   0  0  0  0  0  0  0  0  0  0  0  0
  144.1232  136.0991  154.4747 H   0  0  0  0  0  0  0  0  0  0  0  0
  145.4363  135.0827  155.0645 H   0  0  0  0  0  0  0  0  0  0  0  0
  145.8514  134.2627  152.7495 H   0  0  0  0  0  0  0  0  0  0  0  0
  143.3869  135.8089  152.1292 H   0  0  0  0  0  0  0  0  0  0  0  0
  144.6962  136.1234  151.0126 H   0  0  0  0  0  0  0  0  0  0  0  0
  143.1772  132.9455  152.6106 H   0  0  0  0  0  0  0  0  0  0  0  0
  143.0116  131.0940  150.5555 H   0  0  0  0  0  0  0  0  0  0  0  0
  144.7171  134.5958  149.0681 H   0  0  0  0  0  0  0  0  0  0  0  0
  147.2399  136.0481  152.4633 H   0  0  0  0  0  0  0  0  0  0  0  0
  148.0524  137.8668  152.6961 H   0  0  0  0  0  0  0  0  0  0  0  0
  147.5075  140.3213  152.5847 H   0  0  0  0  0  0  0  0  0  0  0  0
  146.3993  140.0162  153.8963 H   0  0  0  0  0  0  0  0  0  0  0  0
  148.1936  139.4933  155.4555 H   0  0  0  0  0  0  0  0  0  0  0  0
  148.8402  141.9468  153.7938 H   0  0  0  0  0  0  0  0  0  0  0  0
  148.0390  141.9079  155.3683 H   0  0  0  0  0  0  0  0  0  0  0  0
  150.7524  142.2407  155.1943 H   0  0  0  0  0  0  0  0  0  0  0  0
  150.0660  141.2372  156.4739 H   0  0  0  0  0  0  0  0  0  0  0  0
  149.9694  138.3582  154.2705 H   0  0  0  0  0  0  0  0  0  0  0  0
  150.0487  139.6257  153.0444 H   0  0  0  0  0  0  0  0  0  0  0  0
  1  2  1  0  0  0  0
  1 19  1  0  0  0  0
  1 20  1  0  0  0  0
  1 21  1  0  0  0  0
  2  3  1  0  0  0  0
  2  9  1  0  0  0  0
  2 22  1  0  0  0  0
  3  4  1  0  0  0  0
  3 23  1  0  0  0  0
  3 24  1  0  0  0  0
  4  8  1  0  0  0  0
  4  5  1  0  0  0  0
  5  6  2  0  0  0  0
  5 25  1  0  0  0  0
  6  7  1  0  0  0  0
  6 26  1  0  0  0  0
  7  8  2  0  0  0  0
  8 27  1  0  0  0  0
  9 10  1  0  0  0  0
  9 28  1  0  0  0  0
 10 11  2  0  0  0  0
 10 12  1  0  0  0  0
 12 13  1  0  0  0  0
 12 29  1  0  0  0  0
 13 14  1  0  0  0  0
 13 30  1  0  0  0  0
 13 31  1  0  0  0  0
 14 18  1  0  0  0  0
 14 15  1  0  0  0  0
 14 32  1  0  0  0  0
 15 16  1  0  0  0  0
 15 33  1  0  0  0  0
 15 34  1  0  0  0  0
 16 17  1  0  0  0  0
 16 35  1  0  0  0  0
 16 36  1  0  0  0  0
 17 18  1  0  0  0  0
 18 37  1  0  0  0  0
 18 38  1  0  0  0  0
M  END
> <s_m_source_file>
AV-unprocessed.smi

> <i_m_source_file_index>
3292

> <i_lp_mmshare_version>
43012

> <i_f3d_flags>
0

> <s_epik_input>
W2NIXTFuW2NIXVtjSF1uMVtDSDJdW0NAQEhdKFtDSDNdKVtOSF1DKD1PKVtOSF1bQ0gyXVtDQEBIXTJbQ0gyXVtDSDJdT1tDSDJdMg==

> <s_epik_cmdline>
J2VwaWtfcHl0aG9uJywgJy1waCcsICc3LjAnLCAnLXRuJywgJzgnLCAnLW1hJywgJzIwMCcsICctbWV0YWxfYmluZGluZycsICctaW1hZScsICc8aW5maWxlLm1hZT4nLCAnLW9tYWUnLCAnPG91dGZpbGUubWFlPic=

> <r_lp_tautomer_probability>
1

> <r_epik_Ionization_Penalty>
0.621291

> <r_epik_Ionization_Penalty_Charging>
0.621234

> <r_epik_Ionization_Penalty_Neutral>
5.72199e-05

> <r_epik_State_Penalty>
0.637278

> <r_epik_Charging_Adjusted_Penalty>
1.25851

> <i_epik_Tot_Q>
0

> <i_epik_Tot_abs_Q>
0

> <r_epik_Metal_State_Penalty>
0.306757

> <b_epik_Metal_Only>
0

> <s_lp_Force_Field>
OPLS_2005

> <r_lp_Energy>
18.3972

> <b_lp_Chiralities_Consistent>
1

> <s_lp_Variant>
AV-unprocessed.smi:3292-6

> <Gold.Version>
5.8.1

> <Gold.Id.Protein>
6NUR|6NUR_protein|mol2

> <Gold.PLP.Fitness>
42.7955

> <Gold.PLP.PLP>
-27.4395

> <Gold.PLP.part.hbond>
-3.0000

> <Gold.PLP.part.metal>
0.0000

> <Gold.PLP.part.buried>
-1.9366

> <Gold.PLP.part.nonpolar>
-23.9712

> <Gold.PLP.part.repulsive>
0.5012

> <Gold.PLP.ligand.clash>
0.0000

> <Gold.PLP.ligand.torsion>
0.8454

> <Gold.PLP.Chemscore.Hbond>
2.7913

> <Gold.PLP.Chemscore.CHOScore>
2.8803

> <Gold.PLP.Chemscore.Metal>
0.0000

> <Gold.Chemscore.Hbonds>
donor molecule, donor type, donor heavy atom, donor atom, acceptor molecule, acceptor atom, score
      L1  H     9    28       P1  7948  1.00
      L1  H    12    29       P1  7948  1.00
      P1  H  7989  7998       L1    17  0.80
      L1  C     5    25       P1 10957  0.98
      L1  C     6    26       P1 10952  0.91
      L1  C     8    27       P1  7921  0.99

> <Gold.PLP.Chemscore.Internal.Correction>
0.0323

> <Gold.Rescore>
     Score         DG    S(hbond)    S(metal)    S(lipo)     H(rot)  DE(clash)    DE(int)     intcor
     11.30     -13.58       1.97        0.00      60.30       2.16       0.09       2.19       ----

> <Gold.Chemscore.Fitness>
11.3038

> <Gold.Chemscore.DG>
-13.5763

> <Gold.Chemscore.ZeroCoef>
-5.4800

> <Gold.Chemscore.Hbond>
1.9654

> <Gold.Chemscore.Metal>
0.0000

> <Gold.Chemscore.Lipo>
60.3045

> <Gold.Chemscore.Internal_Hbond>
0.0000

> <Gold.Chemscore.DEClash>
0.0869

> <Gold.Chemscore.DEInternal>
2.1857

> <Gold.Chemscore.Rot>
2.1577

> <Gold.Chemscore.Internal.Correction>
   9.000000E+99

> <Gold.Chemscore.Hbonds>
donor molecule, donor type, donor heavy atom, donor atom, acceptor molecule, acceptor atom, score
      L1  H     9    28       P1  7948  1.00
      L1  H    12    29       P1  7948  0.89
      P1  H  7989  7998       L1    17  0.03

> <Gold.Chemscore.Hbond.Weighted>
-6.5644

> <Gold.Chemscore.Metal.Weighted>
-0.0000

> <Gold.Chemscore.Lipo.Weighted>
-7.0556

> <Gold.Chemscore.Internal_Hbond.Weighted>
0.0000

> <Gold.Chemscore.DEClash.Weighted>
0.0869

> <Gold.Chemscore.DEInternal.Weighted>
2.1857

> <Gold.Chemscore.Rot.Weighted>
5.5237

> <Gold.Chemscore.Internal.Correction.Weighted>
   9.000000E+99

> <Gold.Protein.RotatedTorsions>
[ 6907 6896 6895 6894 ] final  -55.07 input  -60.11 | X-H torsion
[ 7974 7965 7964 7962 ] final   26.82 input  175.53 | X-H torsion
[ 8008 7997 7996 7995 ] final  -52.10 input   59.86 | X-H torsion
[ 10167 10162 10161 10158 ] final   68.35 input  -65.29 | X-H torsion
[ 10718 10713 10712 10709 ] final    1.35 input   66.30 | X-H torsion
[ 10763 10752 10751 10750 ] final -116.47 input  -60.55 | X-H torsion
[ 11005 11000 10999 10996 ] final  108.97 input  -57.11 | X-H torsion

> <Gold.Protein.ActiveResidues>
 VAL166  LYS551  ARG553  GLY616  TRP617  ASP618  TYR619  PRO620  LYS621  CYS622 
 ASP623  PHE694  ASN695  SER759  ASP760  ASP761  ALA762  ILE779  LEU786  VAL792 
 PHE793  MET794  SER795  GLU796  ALA797  LYS798  CYS799  TRP800  GLU811  SER814 

> <Gold.Protein.RotatedAtoms>
  150.8283  134.7524  159.6831 H   0  0  0  0  0  0  0  0  0  0  0  0  # atno 6907 bound_to 6896
  152.4391  134.5624  159.9908 H   0  0  0  0  0  0  0  0  0  0  0  0  # atno 6908 bound_to 6896
  151.5791  133.3342  159.3040 H   0  0  0  0  0  0  0  0  0  0  0  0  # atno 6909 bound_to 6896
  146.1817  139.7275  142.8895 H   0  0  0  0  0  0  0  0  0  0  0  0  # atno 7974 bound_to 7965
  154.4098  140.1232  156.4936 H   0  0  0  0  0  0  0  0  0  0  0  0  # atno 8008 bound_to 7997
  155.6965  140.3495  155.4896 H   0  0  0  0  0  0  0  0  0  0  0  0  # atno 8009 bound_to 7997
  155.9423  140.1089  157.1036 H   0  0  0  0  0  0  0  0  0  0  0  0  # atno 8010 bound_to 7997
  140.0796  144.5082  150.7171 H   0  0  0  0  0  0  0  0  0  0  0  0  # atno 10167 bound_to 10162
  156.8470  130.5540  149.5673 H   0  0  0  0  0  0  0  0  0  0  0  0  # atno 10718 bound_to 10713
  154.8520  135.4344  154.1826 H   0  0  0  0  0  0  0  0  0  0  0  0  # atno 10763 bound_to 10752
  153.2913  135.6961  153.7296 H   0  0  0  0  0  0  0  0  0  0  0  0  # atno 10764 bound_to 10752
  153.6462  135.3459  155.3061 H   0  0  0  0  0  0  0  0  0  0  0  0  # atno 10765 bound_to 10752
  139.8853  134.9445  156.6054 H   0  0  0  0  0  0  0  0  0  0  0  0  # atno 11005 bound_to 11000
  145.4057  141.0390  143.3045 LP  0  0  0  0  0  0  0  0  0  0  0  0  # atno 17320 bound_to 7965
  144.8326  139.5602  143.6936 LP  0  0  0  0  0  0  0  0  0  0  0  0  # atno 17321 bound_to 7965
  140.7084  143.2486  151.4655 LP  0  0  0  0  0  0  0  0  0  0  0  0  # atno 17342 bound_to 10162
  139.5787  144.1758  152.1939 LP  0  0  0  0  0  0  0  0  0  0  0  0  # atno 17343 bound_to 10162
  156.0849  130.5850  150.9630 LP  0  0  0  0  0  0  0  0  0  0  0  0  # atno 17370 bound_to 10713
  157.6324  131.0919  150.8414 LP  0  0  0  0  0  0  0  0  0  0  0  0  # atno 17371 bound_to 10713
  140.7852  133.8627  155.8600 LP  0  0  0  0  0  0  0  0  0  0  0  0  # atno 17394 bound_to 11000
  140.9726  134.1511  157.4563 LP  0  0  0  0  0  0  0  0  0  0  0  0  # atno 17395 bound_to 11000

$$$$
