AV-unprocessed.smi:2473|AV-procd|sdf|9746|dock10
  -GOLD-   2272013383D 1   1.00000     0.00000
 Structure written by MMmdl.
 48 49  0  0  0  0  0  0  0  0  2 V2000
  146.4680  138.6924  151.8780 C   0  0  0  0  0  0  0  0  0  0  0  0
  146.9431  139.4060  153.1518 C   0  0  1  0  0  0  0  0  0  0  0  0
  147.3969  140.8473  152.8442 C   0  0  0  0  0  0  0  0  0  0  0  0
  147.8526  141.6308  154.0967 C   0  0  2  0  0  0  0  0  0  0  0  0
  149.2855  141.3046  154.5588 C   0  0  0  0  0  0  0  0  0  0  0  0
  149.9166  140.3656  154.0729 O   0  0  0  0  0  0  0  0  0  0  0  0
  149.8069  142.1225  155.4852 N   0  0  0  0  0  0  0  0  0  0  0  0
  151.1449  141.9858  156.0423 C   0  0  0  0  0  0  0  0  0  0  0  0
  151.0792  141.7835  157.5612 C   0  0  0  0  0  0  0  0  0  0  0  0
  151.4024  143.0304  158.3239 C   0  0  0  0  0  0  0  0  0  0  0  0
  150.7997  144.2148  158.1661 N   0  3  0  0  0  0  0  0  0  0  0  0
  151.3255  145.1368  159.0298 C   0  0  0  0  0  0  0  0  0  0  0  0
  152.2888  144.4837  159.7535 C   0  0  0  0  0  0  0  0  0  0  0  0
  152.3115  143.1894  159.3004 N   0  0  0  0  0  0  0  0  0  0  0  0
  153.1815  142.1128  159.7788 C   0  0  0  0  0  0  0  0  0  0  0  0
  146.7988  141.5342  155.2295 C   0  0  0  0  0  0  0  0  0  0  0  0
  146.2584  140.1125  155.5460 C   0  0  0  0  0  0  0  0  0  0  0  0
  147.2800  139.2614  156.3324 C   0  0  0  0  0  0  0  0  0  0  0  0
  145.0094  140.2583  156.4391 C   0  0  0  0  0  0  0  0  0  0  0  0
  145.8427  139.4085  154.2314 C   0  0  0  0  0  0  0  0  0  0  0  0
  145.6136  139.2020  151.4312 H   0  0  0  0  0  0  0  0  0  0  0  0
  146.1688  137.6658  152.0916 H   0  0  0  0  0  0  0  0  0  0  0  0
  147.2614  138.6546  151.1312 H   0  0  0  0  0  0  0  0  0  0  0  0
  147.7943  138.8391  153.5255 H   0  0  0  0  0  0  0  0  0  0  0  0
  148.1935  140.8337  152.0985 H   0  0  0  0  0  0  0  0  0  0  0  0
  146.5708  141.3869  152.3790 H   0  0  0  0  0  0  0  0  0  0  0  0
  147.8976  142.6794  153.7982 H   0  0  0  0  0  0  0  0  0  0  0  0
  149.2356  142.8812  155.8288 H   0  0  0  0  0  0  0  0  0  0  0  0
  151.6443  141.1378  155.5706 H   0  0  0  0  0  0  0  0  0  0  0  0
  151.7299  142.8760  155.8074 H   0  0  0  0  0  0  0  0  0  0  0  0
  150.0881  141.4530  157.8736 H   0  0  0  0  0  0  0  0  0  0  0  0
  151.7903  141.0211  157.8825 H   0  0  0  0  0  0  0  0  0  0  0  0
  150.9825  146.1608  159.0653 H   0  0  0  0  0  0  0  0  0  0  0  0
  152.9422  144.8358  160.5387 H   0  0  0  0  0  0  0  0  0  0  0  0
  153.7685  142.4666  160.6269 H   0  0  0  0  0  0  0  0  0  0  0  0
  153.8544  141.8101  158.9765 H   0  0  0  0  0  0  0  0  0  0  0  0
  152.5734  141.2640  160.0928 H   0  0  0  0  0  0  0  0  0  0  0  0
  147.1794  141.9944  156.1425 H   0  0  0  0  0  0  0  0  0  0  0  0
  145.9577  142.1619  154.9308 H   0  0  0  0  0  0  0  0  0  0  0  0
  146.8467  138.3064  156.6314 H   0  0  0  0  0  0  0  0  0  0  0  0
  147.6024  139.7705  157.2412 H   0  0  0  0  0  0  0  0  0  0  0  0
  148.1728  139.0285  155.7577 H   0  0  0  0  0  0  0  0  0  0  0  0
  144.5780  139.2866  156.6824 H   0  0  0  0  0  0  0  0  0  0  0  0
  144.2308  140.8445  155.9498 H   0  0  0  0  0  0  0  0  0  0  0  0
  145.2489  140.7556  157.3797 H   0  0  0  0  0  0  0  0  0  0  0  0
  144.9611  139.9046  153.8220 H   0  0  0  0  0  0  0  0  0  0  0  0
  145.5343  138.3840  154.4446 H   0  0  0  0  0  0  0  0  0  0  0  0
  150.0592  144.3993  157.5009 H   0  0  0  0  0  0  0  0  0  0  0  0
  1  2  1  0  0  0  0
  1 21  1  0  0  0  0
  1 22  1  0  0  0  0
  1 23  1  0  0  0  0
  2 20  1  0  0  0  0
  2  3  1  0  0  0  0
  2 24  1  0  0  0  0
  3  4  1  0  0  0  0
  3 25  1  0  0  0  0
  3 26  1  0  0  0  0
  4  5  1  0  0  0  0
  4 16  1  0  0  0  0
  4 27  1  0  0  0  0
  5  6  2  0  0  0  0
  5  7  1  0  0  0  0
  7  8  1  0  0  0  0
  7 28  1  0  0  0  0
  8  9  1  0  0  0  0
  8 29  1  0  0  0  0
  8 30  1  0  0  0  0
  9 10  1  0  0  0  0
  9 31  1  0  0  0  0
  9 32  1  0  0  0  0
 10 14  1  0  0  0  0
 10 11  2  0  0  0  0
 11 12  1  0  0  0  0
 11 48  1  0  0  0  0
 12 13  2  0  0  0  0
 12 33  1  0  0  0  0
 13 14  1  0  0  0  0
 13 34  1  0  0  0  0
 14 15  1  0  0  0  0
 15 35  1  0  0  0  0
 15 36  1  0  0  0  0
 15 37  1  0  0  0  0
 16 17  1  0  0  0  0
 16 38  1  0  0  0  0
 16 39  1  0  0  0  0
 17 18  1  0  0  0  0
 17 19  1  0  0  0  0
 17 20  1  0  0  0  0
 18 40  1  0  0  0  0
 18 41  1  0  0  0  0
 18 42  1  0  0  0  0
 19 43  1  0  0  0  0
 19 44  1  0  0  0  0
 19 45  1  0  0  0  0
 20 46  1  0  0  0  0
 20 47  1  0  0  0  0
M  CHG  1  11   1
M  END
> <s_m_source_file>
AV-unprocessed.smi

> <i_m_source_file_index>
2473

> <i_lp_mmshare_version>
43012

> <i_f3d_flags>
0

> <s_epik_input>
W0NIM11bQ0BASF0oW0NIMl0xKVtDSDJdW0NASF0oW0NIMl1DMShbQ0gzXSlbQ0gzXSlDKD1PKVtOSF1bQ0gyXVtDSDJdYzJuW2NIXVtjSF1uMltDSDNd

> <s_epik_cmdline>
J2VwaWtfcHl0aG9uJywgJy1waCcsICc3LjAnLCAnLXRuJywgJzgnLCAnLW1hJywgJzIwMCcsICctbWV0YWxfYmluZGluZycsICctaW1hZScsICc8aW5maWxlLm1hZT4nLCAnLW9tYWUnLCAnPG91dGZpbGUubWFlPic=

> <r_lp_tautomer_probability>
1

> <r_epik_Ionization_Penalty>
0.0796112

> <r_epik_Ionization_Penalty_Charging>
0

> <r_epik_Ionization_Penalty_Neutral>
0.0796112

> <r_epik_State_Penalty>
0.0704541

> <r_epik_Charging_Adjusted_Penalty>
0.0704541

> <i_epik_Tot_Q>
1

> <i_epik_Tot_abs_Q>
1

> <r_epik_Metal_State_Penalty>
0.409899

> <b_epik_Metal_Only>
0

> <s_lp_Force_Field>
OPLS_2005

> <r_lp_Energy>
17.0115

> <b_lp_Chiralities_Consistent>
1

> <s_lp_Variant>
AV-unprocessed.smi:2473-4

> <Gold.Version>
5.8.1

> <Gold.Id.Protein>
6NUR|6NUR_protein|mol2

> <Gold.PLP.Fitness>
51.6629

> <Gold.PLP.PLP>
-40.7061

> <Gold.PLP.part.hbond>
-3.0000

> <Gold.PLP.part.metal>
0.0000

> <Gold.PLP.part.buried>
-2.3532

> <Gold.PLP.part.nonpolar>
-35.5401

> <Gold.PLP.part.repulsive>
0.3564

> <Gold.PLP.ligand.clash>
0.0000

> <Gold.PLP.ligand.torsion>
0.4484

> <Gold.PLP.Chemscore.Hbond>
3.9200

> <Gold.PLP.Chemscore.CHOScore>
0.0000

> <Gold.PLP.Chemscore.Metal>
0.0000

> <Gold.Chemscore.Hbonds>
donor molecule, donor type, donor heavy atom, donor atom, acceptor molecule, acceptor atom, score
      L1  H     7    28       P1  8028  0.88
      L1  H    11    48       P1  8028  1.30
      P1  H  7989  7998       L1     6  0.78

> <Gold.PLP.Chemscore.Internal.Correction>
0.0936

> <Gold.Rescore>
     Score         DG    S(hbond)    S(metal)    S(lipo)     H(rot)  DE(clash)    DE(int)     intcor
     16.05     -17.99       1.70        0.00      93.10       1.58       1.46       0.48       ----

> <Gold.Chemscore.Fitness>
16.0460

> <Gold.Chemscore.DG>
-17.9884

> <Gold.Chemscore.ZeroCoef>
-5.4800

> <Gold.Chemscore.Hbond>
1.6962

> <Gold.Chemscore.Metal>
0.0000

> <Gold.Chemscore.Lipo>
93.1002

> <Gold.Chemscore.Internal_Hbond>
0.0000

> <Gold.Chemscore.DEClash>
1.4580

> <Gold.Chemscore.DEInternal>
0.4844

> <Gold.Chemscore.Rot>
1.5818

> <Gold.Chemscore.Internal.Correction>
   9.000000E+99

> <Gold.Chemscore.Hbonds>
donor molecule, donor type, donor heavy atom, donor atom, acceptor molecule, acceptor atom, score
      L1  H     7    28       P1  8028  0.86
      L1  H    11    48       P1  8028  0.22
      P1  H  7989  7998       L1     6  0.64

> <Gold.Chemscore.Hbond.Weighted>
-5.6652

> <Gold.Chemscore.Metal.Weighted>
-0.0000

> <Gold.Chemscore.Lipo.Weighted>
-10.8927

> <Gold.Chemscore.Internal_Hbond.Weighted>
0.0000

> <Gold.Chemscore.DEClash.Weighted>
1.4580

> <Gold.Chemscore.DEInternal.Weighted>
0.4844

> <Gold.Chemscore.Rot.Weighted>
4.0495

> <Gold.Chemscore.Internal.Correction.Weighted>
   9.000000E+99

> <Gold.Protein.RotatedTorsions>
[ 6907 6896 6895 6894 ] final  163.24 input  -60.11 | X-H torsion
[ 7974 7965 7964 7962 ] final  -68.43 input  175.53 | X-H torsion
[ 8008 7997 7996 7995 ] final -128.94 input   59.86 | X-H torsion
[ 10167 10162 10161 10158 ] final   68.14 input  -65.29 | X-H torsion
[ 10718 10713 10712 10709 ] final  115.87 input   66.30 | X-H torsion
[ 10763 10752 10751 10750 ] final   47.94 input  -60.55 | X-H torsion
[ 11005 11000 10999 10996 ] final -170.63 input  -57.11 | X-H torsion

> <Gold.Protein.ActiveResidues>
 VAL166  LYS551  ARG553  GLY616  TRP617  ASP618  TYR619  PRO620  LYS621  CYS622 
 ASP623  PHE694  ASN695  SER759  ASP760  ASP761  ALA762  ILE779  LEU786  VAL792 
 PHE793  MET794  SER795  GLU796  ALA797  LYS798  CYS799  TRP800  GLU811  SER814 

> <Gold.Protein.RotatedAtoms>
  151.9282  133.3604  159.3921 H   0  0  0  0  0  0  0  0  0  0  0  0  # atno 6907 bound_to 6896
  150.7022  134.4565  159.5370 H   0  0  0  0  0  0  0  0  0  0  0  0  # atno 6908 bound_to 6896
  152.2200  134.8421  160.0538 H   0  0  0  0  0  0  0  0  0  0  0  0  # atno 6909 bound_to 6896
  145.7165  140.9056  143.0653 H   0  0  0  0  0  0  0  0  0  0  0  0  # atno 7974 bound_to 7965
  155.2711  140.0440  157.3007 H   0  0  0  0  0  0  0  0  0  0  0  0  # atno 8008 bound_to 7997
  154.5653  140.2358  155.8242 H   0  0  0  0  0  0  0  0  0  0  0  0  # atno 8009 bound_to 7997
  156.2080  140.3007  155.9677 H   0  0  0  0  0  0  0  0  0  0  0  0  # atno 8010 bound_to 7997
  140.0819  144.5063  150.7156 H   0  0  0  0  0  0  0  0  0  0  0  0  # atno 10167 bound_to 10162
  157.6195  131.1018  150.7392 H   0  0  0  0  0  0  0  0  0  0  0  0  # atno 10718 bound_to 10713
  152.9795  135.5960  154.3845 H   0  0  0  0  0  0  0  0  0  0  0  0  # atno 10763 bound_to 10752
  154.3506  135.2767  155.2375 H   0  0  0  0  0  0  0  0  0  0  0  0  # atno 10764 bound_to 10752
  154.4416  135.6011  153.6188 H   0  0  0  0  0  0  0  0  0  0  0  0  # atno 10765 bound_to 10752
  140.5173  134.5744  157.5037 H   0  0  0  0  0  0  0  0  0  0  0  0  # atno 11005 bound_to 11000
  144.6928  139.9145  143.7465 LP  0  0  0  0  0  0  0  0  0  0  0  0  # atno 17320 bound_to 7965
  146.0664  139.3655  143.0549 LP  0  0  0  0  0  0  0  0  0  0  0  0  # atno 17321 bound_to 7965
  140.7073  143.2478  151.4688 LP  0  0  0  0  0  0  0  0  0  0  0  0  # atno 17342 bound_to 10162
  139.5774  144.1787  152.1922 LP  0  0  0  0  0  0  0  0  0  0  0  0  # atno 17343 bound_to 10162
  156.7752  130.4841  149.5411 LP  0  0  0  0  0  0  0  0  0  0  0  0  # atno 17370 bound_to 10713
  156.1334  130.6194  151.0365 LP  0  0  0  0  0  0  0  0  0  0  0  0  # atno 17371 bound_to 10713
  139.9625  134.7428  156.0206 LP  0  0  0  0  0  0  0  0  0  0  0  0  # atno 17394 bound_to 11000
  141.1353  133.6576  156.3577 LP  0  0  0  0  0  0  0  0  0  0  0  0  # atno 17395 bound_to 11000

$$$$
