AV-unprocessed.smi:1814|AV-procd|sdf|7349|dock7
  -GOLD-   22720 9 13D 1   1.00000     0.00000
 Structure written by MMmdl.
 31 32  0  0  0  0  0  0  0  0  1 V2000
  144.6055  136.7741  152.4970 O   0  0  0  0  0  0  0  0  0  0  0  0
  145.7720  136.5161  152.1984 C   0  0  0  0  0  0  0  0  0  0  0  0
  146.1940  135.3734  151.6291 N   0  0  0  0  0  0  0  0  0  0  0  0
  145.4214  134.2446  151.2492 C   0  0  0  0  0  0  0  0  0  0  0  0
  144.0984  134.2673  151.0493 N   0  0  0  0  0  0  0  0  0  0  0  0
  143.6015  133.0142  150.6826 C   0  0  0  0  0  0  0  0  0  0  0  0
  144.5673  132.0414  150.6070 C   0  0  0  0  0  0  0  0  0  0  0  0
  146.1480  132.6639  150.9990 S   0  0  0  0  0  0  0  0  0  0  0  0
  146.7925  137.3618  152.4040 N   0  0  0  0  0  0  0  0  0  0  0  0
  146.6790  138.6907  152.9978 C   0  0  2  0  0  0  0  0  0  0  0  0
  146.9735  139.7825  151.9492 C   0  0  0  0  0  0  0  0  0  0  0  0
  146.9210  141.1904  152.5684 C   0  0  0  0  0  0  0  0  0  0  0  0
  147.8454  141.3268  153.7933 C   0  0  2  0  0  0  0  0  0  0  0  0
  149.1994  141.3079  153.3855 O   0  0  0  0  0  0  0  0  0  0  0  0
  147.5896  140.2108  154.8237 C   0  0  0  0  0  0  0  0  0  0  0  0
  147.6448  138.8092  154.1907 C   0  0  0  0  0  0  0  0  0  0  0  0
  147.1826  135.3055  151.4381 H   0  0  0  0  0  0  0  0  0  0  0  0
  142.5441  132.9042  150.4924 H   0  0  0  0  0  0  0  0  0  0  0  0
  144.4445  131.0009  150.3458 H   0  0  0  0  0  0  0  0  0  0  0  0
  147.7175  137.0670  152.1277 H   0  0  0  0  0  0  0  0  0  0  0  0
  145.6623  138.8259  153.3721 H   0  0  0  0  0  0  0  0  0  0  0  0
  147.9572  139.6153  151.5081 H   0  0  0  0  0  0  0  0  0  0  0  0
  146.2563  139.7211  151.1297 H   0  0  0  0  0  0  0  0  0  0  0  0
  147.1736  141.9399  151.8174 H   0  0  0  0  0  0  0  0  0  0  0  0
  145.8953  141.4017  152.8737 H   0  0  0  0  0  0  0  0  0  0  0  0
  147.6703  142.2940  154.2655 H   0  0  0  0  0  0  0  0  0  0  0  0
  149.3525  140.5192  152.8877 H   0  0  0  0  0  0  0  0  0  0  0  0
  148.3058  140.2809  155.6432 H   0  0  0  0  0  0  0  0  0  0  0  0
  146.6045  140.3575  155.2685 H   0  0  0  0  0  0  0  0  0  0  0  0
  147.4012  138.0592  154.9442 H   0  0  0  0  0  0  0  0  0  0  0  0
  148.6642  138.5973  153.8651 H   0  0  0  0  0  0  0  0  0  0  0  0
  1  2  2  0  0  0  0
  2  3  1  0  0  0  0
  2  9  1  0  0  0  0
  3  4  1  0  0  0  0
  3 17  1  0  0  0  0
  4  8  1  0  0  0  0
  4  5  2  0  0  0  0
  5  6  1  0  0  0  0
  6  7  2  0  0  0  0
  6 18  1  0  0  0  0
  7  8  1  0  0  0  0
  7 19  1  0  0  0  0
  9 10  1  0  0  0  0
  9 20  1  0  0  0  0
 10 16  1  0  0  0  0
 10 11  1  0  0  0  0
 10 21  1  0  0  0  0
 11 12  1  0  0  0  0
 11 22  1  0  0  0  0
 11 23  1  0  0  0  0
 12 13  1  0  0  0  0
 12 24  1  0  0  0  0
 12 25  1  0  0  0  0
 13 14  1  0  0  0  0
 13 15  1  0  0  0  0
 13 26  1  0  0  0  0
 14 27  1  0  0  0  0
 15 16  1  0  0  0  0
 15 28  1  0  0  0  0
 15 29  1  0  0  0  0
 16 30  1  0  0  0  0
 16 31  1  0  0  0  0
M  END
> <s_m_source_file>
AV-unprocessed.smi

> <i_m_source_file_index>
1814

> <i_lp_mmshare_version>
43012

> <i_f3d_flags>
0

> <s_epik_input>
czFbY0hdW2NIXW5jMVtOSF1DKD1PKVtOSF1bQ0BASF0yW0NIMl1bQ0gyXVtDQEBIXShbT0hdKVtDSDJdW0NIMl0y

> <s_epik_cmdline>
J2VwaWtfcHl0aG9uJywgJy1waCcsICc3LjAnLCAnLXRuJywgJzgnLCAnLW1hJywgJzIwMCcsICctbWV0YWxfYmluZGluZycsICctaW1hZScsICc8aW5maWxlLm1hZT4nLCAnLW9tYWUnLCAnPG91dGZpbGUubWFlPic=

> <r_lp_tautomer_probability>
0.999

> <r_epik_Ionization_Penalty>
0.000428518

> <r_epik_Ionization_Penalty_Charging>
0

> <r_epik_Ionization_Penalty_Neutral>
0.000428518

> <r_epik_State_Penalty>
0.000177984

> <r_epik_Charging_Adjusted_Penalty>
0.000177984

> <i_epik_Tot_Q>
0

> <i_epik_Tot_abs_Q>
0

> <r_epik_Metal_State_Penalty>
-0

> <b_epik_Metal_Only>
0

> <s_lp_Force_Field>
OPLS_2005

> <r_lp_Energy>
9.0844

> <b_lp_Chiralities_Consistent>
1

> <s_lp_Variant>
AV-unprocessed.smi:1814-2

> <Gold.Version>
5.8.1

> <Gold.Id.Protein>
6NUR|6NUR_protein|mol2

> <Gold.PLP.Fitness>
39.2601

> <Gold.PLP.PLP>
-25.8568

> <Gold.PLP.part.hbond>
-4.8433

> <Gold.PLP.part.metal>
0.0000

> <Gold.PLP.part.buried>
-1.3045

> <Gold.PLP.part.nonpolar>
-20.3289

> <Gold.PLP.part.repulsive>
0.4659

> <Gold.PLP.ligand.clash>
0.0000

> <Gold.PLP.ligand.torsion>
0.1358

> <Gold.PLP.Chemscore.Hbond>
3.5583

> <Gold.PLP.Chemscore.CHOScore>
0.9991

> <Gold.PLP.Chemscore.Metal>
0.0000

> <Gold.Chemscore.Hbonds>
donor molecule, donor type, donor heavy atom, donor atom, acceptor molecule, acceptor atom, score
      L1  H     3    17       P1  7948  0.86
      L1  H     9    20       P1  7948  0.93
      L1  H    14    27       P1  7957  0.75
      P1  H  8011  8017       L1    14  0.95
      L1  C     6    18       P1 10186  1.00

> <Gold.PLP.Chemscore.Internal.Correction>
0.0028

> <Gold.Rescore>
     Score         DG    S(hbond)    S(metal)    S(lipo)     H(rot)  DE(clash)    DE(int)     intcor
     15.11     -18.96       2.84        0.00      67.07       1.50       2.55       1.31       ----

> <Gold.Chemscore.Fitness>
15.1084

> <Gold.Chemscore.DG>
-18.9647

> <Gold.Chemscore.ZeroCoef>
-5.4800

> <Gold.Chemscore.Hbond>
2.8380

> <Gold.Chemscore.Metal>
0.0000

> <Gold.Chemscore.Lipo>
67.0709

> <Gold.Chemscore.Internal_Hbond>
0.0000

> <Gold.Chemscore.DEClash>
2.5500

> <Gold.Chemscore.DEInternal>
1.3064

> <Gold.Chemscore.Rot>
1.5006

> <Gold.Chemscore.Internal.Correction>
   9.000000E+99

> <Gold.Chemscore.Hbonds>
donor molecule, donor type, donor heavy atom, donor atom, acceptor molecule, acceptor atom, score
      L1  H     3    17       P1  7948  0.74
      L1  H     9    20       P1  7948  0.88
      L1  H    14    27       P1  7957  0.76
      P1  H  8011  8017       L1    14  0.20

> <Gold.Chemscore.Hbond.Weighted>
-9.4790

> <Gold.Chemscore.Metal.Weighted>
-0.0000

> <Gold.Chemscore.Lipo.Weighted>
-7.8473

> <Gold.Chemscore.Internal_Hbond.Weighted>
0.0000

> <Gold.Chemscore.DEClash.Weighted>
2.5500

> <Gold.Chemscore.DEInternal.Weighted>
1.3064

> <Gold.Chemscore.Rot.Weighted>
3.8415

> <Gold.Chemscore.Internal.Correction.Weighted>
   9.000000E+99

> <Gold.Protein.RotatedTorsions>
[ 6907 6896 6895 6894 ] final  -91.40 input  -60.11 | X-H torsion
[ 7974 7965 7964 7962 ] final  167.39 input  175.53 | X-H torsion
[ 8008 7997 7996 7995 ] final -135.16 input   59.86 | X-H torsion
[ 10167 10162 10161 10158 ] final  141.90 input  -65.29 | X-H torsion
[ 10718 10713 10712 10709 ] final  -55.93 input   66.30 | X-H torsion
[ 10763 10752 10751 10750 ] final   16.65 input  -60.55 | X-H torsion
[ 11005 11000 10999 10996 ] final  142.44 input  -57.11 | X-H torsion

> <Gold.Protein.ActiveResidues>
 VAL166  LYS551  ARG553  GLY616  TRP617  ASP618  TYR619  PRO620  LYS621  CYS622 
 ASP623  PHE694  ASN695  SER759  ASP760  ASP761  ALA762  ILE779  LEU786  VAL792 
 PHE793  MET794  SER795  GLU796  ALA797  LYS798  CYS799  TRP800  GLU811  SER814 

> <Gold.Protein.RotatedAtoms>
  150.6892  134.2283  159.4424 H   0  0  0  0  0  0  0  0  0  0  0  0  # atno 6907 bound_to 6896
  152.0235  134.9806  160.0580 H   0  0  0  0  0  0  0  0  0  0  0  0  # atno 6908 bound_to 6896
  152.1374  133.4408  159.4787 H   0  0  0  0  0  0  0  0  0  0  0  0  # atno 6909 bound_to 6896
  144.7426  139.8754  143.6392 H   0  0  0  0  0  0  0  0  0  0  0  0  # atno 7974 bound_to 7965
  155.3740  140.0490  157.3045 H   0  0  0  0  0  0  0  0  0  0  0  0  # atno 8008 bound_to 7997
  154.5116  140.2193  155.9109 H   0  0  0  0  0  0  0  0  0  0  0  0  # atno 8009 bound_to 7997
  156.1588  140.3120  155.8778 H   0  0  0  0  0  0  0  0  0  0  0  0  # atno 8010 bound_to 7997
  139.5008  144.6141  151.6203 H   0  0  0  0  0  0  0  0  0  0  0  0  # atno 10167 bound_to 10162
  156.1329  130.4158  150.0237 H   0  0  0  0  0  0  0  0  0  0  0  0  # atno 10718 bound_to 10713
  153.1411  135.6760  153.9025 H   0  0  0  0  0  0  0  0  0  0  0  0  # atno 10763 bound_to 10752
  153.8482  135.3096  155.3432 H   0  0  0  0  0  0  0  0  0  0  0  0  # atno 10764 bound_to 10752
  154.7788  135.4900  153.9885 H   0  0  0  0  0  0  0  0  0  0  0  0  # atno 10765 bound_to 10752
  140.0477  134.9272  157.0959 H   0  0  0  0  0  0  0  0  0  0  0  0  # atno 11005 bound_to 11000
  146.1250  139.4274  143.0204 LP  0  0  0  0  0  0  0  0  0  0  0  0  # atno 17320 bound_to 7965
  145.7248  141.0062  143.1383 LP  0  0  0  0  0  0  0  0  0  0  0  0  # atno 17321 bound_to 7965
  140.5824  143.9922  150.6276 LP  0  0  0  0  0  0  0  0  0  0  0  0  # atno 17342 bound_to 10162
  140.3076  143.3219  152.0911 LP  0  0  0  0  0  0  0  0  0  0  0  0  # atno 17343 bound_to 10162
  156.8145  130.9336  151.3643 LP  0  0  0  0  0  0  0  0  0  0  0  0  # atno 17370 bound_to 10713
  157.6505  130.8880  149.9623 LP  0  0  0  0  0  0  0  0  0  0  0  0  # atno 17371 bound_to 10713
  140.3968  134.2126  155.7164 LP  0  0  0  0  0  0  0  0  0  0  0  0  # atno 17394 bound_to 11000
  141.1915  133.8194  157.0877 LP  0  0  0  0  0  0  0  0  0  0  0  0  # atno 17395 bound_to 11000

$$$$
