AV-unprocessed.smi:2317|AV-procd|sdf|9274|dock4
  -GOLD-   2272012493D 1   1.00000     0.00000
 Structure written by MMmdl.
 37 38  0  0  0  0  0  0  0  0  1 V2000
  144.4520  136.5324  152.3668 O   0  0  0  0  0  0  0  0  0  0  0  0
  145.6650  136.4153  152.1960 C   0  0  0  0  0  0  0  0  0  0  0  0
  146.5596  137.3302  152.5983 N   0  0  0  0  0  0  0  0  0  0  0  0
  146.2490  138.5651  153.3145 C   0  0  0  0  0  0  0  0  0  0  0  0
  147.4681  139.5120  153.4286 C   0  0  1  0  0  0  0  0  0  0  0  0
  147.0585  140.9189  153.9264 C   0  0  0  0  0  0  0  0  0  0  0  0
  148.2648  141.8557  154.0925 C   0  0  0  0  0  0  0  0  0  0  0  0
  149.3130  141.2475  155.0326 C   0  0  0  0  0  0  0  0  0  0  0  0
  149.7576  139.8690  154.5275 C   0  0  0  0  0  0  0  0  0  0  0  0
  148.5580  138.9183  154.3574 C   0  0  2  0  0  0  0  0  0  0  0  0
  149.0476  137.7013  153.8298 O   0  0  0  0  0  0  0  0  0  0  0  0
  146.2709  135.3877  151.5763 N   0  0  0  0  0  0  0  0  0  0  0  0
  145.6989  134.2131  151.0135 C   0  0  0  0  0  0  0  0  0  0  0  0
  144.4182  134.1547  150.4115 C   0  0  0  0  0  0  0  0  0  0  0  0
  143.9652  132.9196  149.9058 C   0  0  0  0  0  0  0  0  0  0  0  0
  144.6849  131.7797  149.9694 N   0  0  0  0  0  0  0  0  0  0  0  0
  145.8998  131.8360  150.5542 C   0  0  0  0  0  0  0  0  0  0  0  0
  146.4465  133.0188  151.0911 C   0  0  0  0  0  0  0  0  0  0  0  0
  147.6720  133.0037  151.6691 F   0  0  0  0  0  0  0  0  0  0  0  0
  147.5349  137.1541  152.4060 H   0  0  0  0  0  0  0  0  0  0  0  0
  145.4079  139.0863  152.8541 H   0  0  0  0  0  0  0  0  0  0  0  0
  145.9090  138.2707  154.3074 H   0  0  0  0  0  0  0  0  0  0  0  0
  147.9004  139.6268  152.4330 H   0  0  0  0  0  0  0  0  0  0  0  0
  146.3560  141.3795  153.2319 H   0  0  0  0  0  0  0  0  0  0  0  0
  146.5346  140.8315  154.8791 H   0  0  0  0  0  0  0  0  0  0  0  0
  148.7144  142.0506  153.1180 H   0  0  0  0  0  0  0  0  0  0  0  0
  147.9351  142.8202  154.4793 H   0  0  0  0  0  0  0  0  0  0  0  0
  150.1741  141.9116  155.1108 H   0  0  0  0  0  0  0  0  0  0  0  0
  148.8984  141.1557  156.0373 H   0  0  0  0  0  0  0  0  0  0  0  0
  150.2767  139.9861  153.5749 H   0  0  0  0  0  0  0  0  0  0  0  0
  150.4802  139.4397  155.2226 H   0  0  0  0  0  0  0  0  0  0  0  0
  148.1253  138.7112  155.3371 H   0  0  0  0  0  0  0  0  0  0  0  0
  148.7593  137.6252  152.9332 H   0  0  0  0  0  0  0  0  0  0  0  0
  147.2691  135.4741  151.4547 H   0  0  0  0  0  0  0  0  0  0  0  0
  143.7728  135.0154  150.3358 H   0  0  0  0  0  0  0  0  0  0  0  0
  142.9929  132.8449  149.4421 H   0  0  0  0  0  0  0  0  0  0  0  0
  146.4525  130.9093  150.5977 H   0  0  0  0  0  0  0  0  0  0  0  0
  1  2  2  0  0  0  0
  2  3  1  0  0  0  0
  2 12  1  0  0  0  0
  3  4  1  0  0  0  0
  3 20  1  0  0  0  0
  4  5  1  0  0  0  0
  4 21  1  0  0  0  0
  4 22  1  0  0  0  0
  5 10  1  0  0  0  0
  5  6  1  0  0  0  0
  5 23  1  0  0  0  0
  6  7  1  0  0  0  0
  6 24  1  0  0  0  0
  6 25  1  0  0  0  0
  7  8  1  0  0  0  0
  7 26  1  0  0  0  0
  7 27  1  0  0  0  0
  8  9  1  0  0  0  0
  8 28  1  0  0  0  0
  8 29  1  0  0  0  0
  9 10  1  0  0  0  0
  9 30  1  0  0  0  0
  9 31  1  0  0  0  0
 10 11  1  0  0  0  0
 10 32  1  0  0  0  0
 11 33  1  0  0  0  0
 12 13  1  0  0  0  0
 12 34  1  0  0  0  0
 13 18  1  0  0  0  0
 13 14  2  0  0  0  0
 14 15  1  0  0  0  0
 14 35  1  0  0  0  0
 15 16  2  0  0  0  0
 15 36  1  0  0  0  0
 16 17  1  0  0  0  0
 17 18  2  0  0  0  0
 17 37  1  0  0  0  0
 18 19  1  0  0  0  0
M  END
> <s_m_source_file>
AV-unprocessed.smi

> <i_m_source_file_index>
2317

> <i_lp_mmshare_version>
43012

> <i_f3d_flags>
0

> <s_epik_input>
RmMxW2NIXW5bY0hdW2NIXWMxW05IXUMoPU8pW05IXVtDSDJdW0NAQEhdMltDSDJdW0NIMl1bQ0gyXVtDSDJdW0NASF0yW09IXQ==

> <s_epik_cmdline>
J2VwaWtfcHl0aG9uJywgJy1waCcsICc3LjAnLCAnLXRuJywgJzgnLCAnLW1hJywgJzIwMCcsICctbWV0YWxfYmluZGluZycsICctaW1hZScsICc8aW5maWxlLm1hZT4nLCAnLW9tYWUnLCAnPG91dGZpbGUubWFlPic=

> <r_epik_Ionization_Penalty>
0.00317647

> <r_epik_Ionization_Penalty_Charging>
0

> <r_epik_Ionization_Penalty_Neutral>
0.00317647

> <r_epik_State_Penalty>
0.0022093

> <r_epik_Charging_Adjusted_Penalty>
0.0022093

> <i_epik_Tot_Q>
0

> <i_epik_Tot_abs_Q>
0

> <r_epik_Metal_State_Penalty>
-0

> <b_epik_Metal_Only>
0

> <s_lp_Force_Field>
OPLS_2005

> <r_lp_Energy>
17.8728

> <b_lp_Chiralities_Consistent>
1

> <s_lp_Variant>
AV-unprocessed.smi:2317-4

> <Gold.Version>
5.8.1

> <Gold.Id.Protein>
6NUR|6NUR_protein|mol2

> <Gold.PLP.Fitness>
46.2608

> <Gold.PLP.PLP>
-33.8706

> <Gold.PLP.part.hbond>
-3.2390

> <Gold.PLP.part.metal>
0.0000

> <Gold.PLP.part.buried>
-1.5043

> <Gold.PLP.part.nonpolar>
-29.6471

> <Gold.PLP.part.repulsive>
0.4291

> <Gold.PLP.ligand.clash>
0.0000

> <Gold.PLP.ligand.torsion>
0.3202

> <Gold.PLP.Chemscore.Hbond>
2.5760

> <Gold.PLP.Chemscore.CHOScore>
1.7660

> <Gold.PLP.Chemscore.Metal>
0.0000

> <Gold.Chemscore.Hbonds>
donor molecule, donor type, donor heavy atom, donor atom, acceptor molecule, acceptor atom, score
      L1  H     3    20       P1  7948  1.00
      L1  H    11    33       P1  7948  0.54
      L1  H    12    34       P1  7948  1.00
      L1  C    15    36       P1 10186  0.99
      L1  C    17    37       P1 10747  0.82

> <Gold.PLP.Chemscore.Internal.Correction>
0.0047

> <Gold.Rescore>
     Score         DG    S(hbond)    S(metal)    S(lipo)     H(rot)  DE(clash)    DE(int)     intcor
     17.63     -19.40       2.74        0.00      79.70       1.79       0.03       1.73       ----

> <Gold.Chemscore.Fitness>
17.6333

> <Gold.Chemscore.DG>
-19.3995

> <Gold.Chemscore.ZeroCoef>
-5.4800

> <Gold.Chemscore.Hbond>
2.7441

> <Gold.Chemscore.Metal>
0.0000

> <Gold.Chemscore.Lipo>
79.6966

> <Gold.Chemscore.Internal_Hbond>
0.0000

> <Gold.Chemscore.DEClash>
0.0331

> <Gold.Chemscore.DEInternal>
1.7331

> <Gold.Chemscore.Rot>
1.7853

> <Gold.Chemscore.Internal.Correction>
   9.000000E+99

> <Gold.Chemscore.Hbonds>
donor molecule, donor type, donor heavy atom, donor atom, acceptor molecule, acceptor atom, score
      L1  H     3    20       P1  7948  0.99
      L1  H    11    33       P1  7948  0.56
      L1  H    12    34       P1  7948  0.93

> <Gold.Chemscore.Hbond.Weighted>
-9.1655

> <Gold.Chemscore.Metal.Weighted>
-0.0000

> <Gold.Chemscore.Lipo.Weighted>
-9.3245

> <Gold.Chemscore.Internal_Hbond.Weighted>
0.0000

> <Gold.Chemscore.DEClash.Weighted>
0.0331

> <Gold.Chemscore.DEInternal.Weighted>
1.7331

> <Gold.Chemscore.Rot.Weighted>
4.5704

> <Gold.Chemscore.Internal.Correction.Weighted>
   9.000000E+99

> <Gold.Protein.RotatedTorsions>
[ 6907 6896 6895 6894 ] final  -20.30 input  -60.11 | X-H torsion
[ 7974 7965 7964 7962 ] final   97.10 input  175.53 | X-H torsion
[ 8008 7997 7996 7995 ] final  -48.36 input   59.86 | X-H torsion
[ 10167 10162 10161 10158 ] final  -81.92 input  -65.29 | X-H torsion
[ 10718 10713 10712 10709 ] final -143.17 input   66.30 | X-H torsion
[ 10763 10752 10751 10750 ] final  -11.22 input  -60.55 | X-H torsion
[ 11005 11000 10999 10996 ] final  -33.65 input  -57.11 | X-H torsion

> <Gold.Protein.ActiveResidues>
 VAL166  LYS551  ARG553  GLY616  TRP617  ASP618  TYR619  PRO620  LYS621  CYS622 
 ASP623  PHE694  ASN695  SER759  ASP760  ASP761  ALA762  ILE779  LEU786  VAL792 
 PHE793  MET794  SER795  GLU796  ALA797  LYS798  CYS799  TRP800  GLU811  SER814 

> <Gold.Protein.RotatedAtoms>
  151.2503  135.0619  159.9058 H   0  0  0  0  0  0  0  0  0  0  0  0  # atno 6907 bound_to 6896
  152.5381  134.0340  159.8048 H   0  0  0  0  0  0  0  0  0  0  0  0  # atno 6908 bound_to 6896
  151.0547  133.5545  159.2670 H   0  0  0  0  0  0  0  0  0  0  0  0  # atno 6909 bound_to 6896
  145.4300  139.2311  143.3149 H   0  0  0  0  0  0  0  0  0  0  0  0  # atno 7974 bound_to 7965
  154.4028  140.1323  156.4327 H   0  0  0  0  0  0  0  0  0  0  0  0  # atno 8008 bound_to 7997
  155.7535  140.3487  155.5142 H   0  0  0  0  0  0  0  0  0  0  0  0  # atno 8009 bound_to 7997
  155.8927  140.1006  157.1397 H   0  0  0  0  0  0  0  0  0  0  0  0  # atno 8010 bound_to 7997
  140.4368  143.2529  151.8682 H   0  0  0  0  0  0  0  0  0  0  0  0  # atno 10167 bound_to 10162
  156.3547  130.7707  151.1865 H   0  0  0  0  0  0  0  0  0  0  0  0  # atno 10718 bound_to 10713
  153.4806  135.7017  153.5940 H   0  0  0  0  0  0  0  0  0  0  0  0  # atno 10763 bound_to 10752
  153.4155  135.3838  155.2078 H   0  0  0  0  0  0  0  0  0  0  0  0  # atno 10764 bound_to 10752
  154.8722  135.3915  154.4255 H   0  0  0  0  0  0  0  0  0  0  0  0  # atno 10765 bound_to 10752
  140.9652  133.7141  156.1434 H   0  0  0  0  0  0  0  0  0  0  0  0  # atno 11005 bound_to 11000
  146.2612  140.5036  142.8853 LP  0  0  0  0  0  0  0  0  0  0  0  0  # atno 17320 bound_to 7965
  144.8189  140.6515  143.6366 LP  0  0  0  0  0  0  0  0  0  0  0  0  # atno 17321 bound_to 7965
  139.4787  144.5274  151.8715 LP  0  0  0  0  0  0  0  0  0  0  0  0  # atno 17342 bound_to 10162
  140.4365  144.2045  150.5889 LP  0  0  0  0  0  0  0  0  0  0  0  0  # atno 17343 bound_to 10162
  157.7466  131.0417  150.4660 LP  0  0  0  0  0  0  0  0  0  0  0  0  # atno 17370 bound_to 10713
  156.4861  130.4084  149.6433 LP  0  0  0  0  0  0  0  0  0  0  0  0  # atno 17371 bound_to 10713
  140.7409  134.4151  157.5555 LP  0  0  0  0  0  0  0  0  0  0  0  0  # atno 17394 bound_to 11000
  139.8892  134.8836  156.2433 LP  0  0  0  0  0  0  0  0  0  0  0  0  # atno 17395 bound_to 11000

$$$$
