AV-unprocessed.smi:170|AV-procd|sdf|1408|dock4
  -GOLD-   2262019163D 1   1.00000     0.00000
 Structure written by MMmdl.
 57 61  0  0  0  0  0  0  0  0  1 V2000
  152.5899  139.9855  157.1665 O   0  0  0  0  0  0  0  0  0  0  0  0
  151.2003  140.2460  157.0996 C   0  0  2  0  0  0  0  0  0  0  0  0
  150.6558  139.7599  155.7420 C   0  0  0  0  0  0  0  0  0  0  0  0
  150.7317  138.3170  155.5985 N   0  0  0  0  0  0  0  0  0  0  0  0
  151.8745  137.5538  155.5123 C   0  0  0  0  0  0  0  0  0  0  0  0
  151.6777  136.2691  155.3878 N   0  0  0  0  0  0  0  0  0  0  0  0
  150.2945  136.1402  155.3898 C   0  0  0  0  0  0  0  0  0  0  0  0
  149.4069  135.0364  155.2874 C   0  0  0  0  0  0  0  0  0  0  0  0
  149.8601  133.7640  155.1787 N   0  0  0  0  0  0  0  0  0  0  0  0
  150.7402  133.4571  156.3017 C   0  0  0  0  0  0  0  0  0  0  0  0
  151.4020  132.0870  156.1091 C   0  0  0  0  0  0  0  0  0  0  0  0
  150.3863  131.1072  155.9506 O   0  0  0  0  0  0  0  0  0  0  0  0
  149.6008  131.3462  154.7891 C   0  0  0  0  0  0  0  0  0  0  0  0
  148.8767  132.7111  154.8848 C   0  0  2  0  0  0  0  0  0  0  0  0
  148.0726  133.0060  153.5902 C   0  0  0  0  0  0  0  0  0  0  0  0
  146.7380  132.2676  153.4988 C   0  0  0  0  0  0  0  0  0  0  0  0
  146.7191  130.7334  153.4200 C   0  0  0  0  0  0  0  0  0  0  0  0
  145.4954  130.8428  152.5058 C   0  0  0  0  0  0  0  0  0  0  0  0
  145.9493  132.2682  152.1803 C   0  0  0  0  0  0  0  0  0  0  0  0
  148.0717  135.2898  155.3427 N   0  0  0  0  0  0  0  0  0  0  0  0
  147.6341  136.5464  155.4705 C   0  0  0  0  0  0  0  0  0  0  0  0
  148.3444  137.6729  155.5665 N   0  0  0  0  0  0  0  0  0  0  0  0
  149.6838  137.4180  155.5230 C   0  0  0  0  0  0  0  0  0  0  0  0
  150.9256  141.7467  157.3279 C   0  0  2  0  0  0  0  0  0  0  0  0
  151.6701  142.4275  158.4817 C   0  0  0  0  0  0  0  0  0  0  0  0
  150.7495  143.5897  158.7789 C   0  0  0  0  0  0  0  0  0  0  0  0
  149.3755  142.9537  158.5836 C   0  0  0  0  0  0  0  0  0  0  0  0
  149.5381  141.9864  157.5494 O   0  0  0  0  0  0  0  0  0  0  0  0
  152.8671  140.0872  158.0645 H   0  0  0  0  0  0  0  0  0  0  0  0
  150.7125  139.6779  157.8929 H   0  0  0  0  0  0  0  0  0  0  0  0
  149.6134  140.0582  155.6246 H   0  0  0  0  0  0  0  0  0  0  0  0
  151.2057  140.2200  154.9199 H   0  0  0  0  0  0  0  0  0  0  0  0
  152.8650  137.9838  155.5482 H   0  0  0  0  0  0  0  0  0  0  0  0
  151.5111  134.2228  156.3997 H   0  0  0  0  0  0  0  0  0  0  0  0
  150.1619  133.4625  157.2270 H   0  0  0  0  0  0  0  0  0  0  0  0
  152.0682  132.0894  155.2448 H   0  0  0  0  0  0  0  0  0  0  0  0
  152.0067  131.8353  156.9803 H   0  0  0  0  0  0  0  0  0  0  0  0
  150.2325  131.3011  153.9001 H   0  0  0  0  0  0  0  0  0  0  0  0
  148.8813  130.5319  154.7087 H   0  0  0  0  0  0  0  0  0  0  0  0
  148.1826  132.6598  155.7248 H   0  0  0  0  0  0  0  0  0  0  0  0
  147.8779  134.0746  153.5055 H   0  0  0  0  0  0  0  0  0  0  0  0
  148.6862  132.7558  152.7240 H   0  0  0  0  0  0  0  0  0  0  0  0
  146.0683  132.5720  154.3054 H   0  0  0  0  0  0  0  0  0  0  0  0
  147.5897  130.3208  152.9073 H   0  0  0  0  0  0  0  0  0  0  0  0
  146.5362  130.2292  154.3693 H   0  0  0  0  0  0  0  0  0  0  0  0
  145.4943  130.1574  151.6578 H   0  0  0  0  0  0  0  0  0  0  0  0
  144.5526  130.8137  153.0545 H   0  0  0  0  0  0  0  0  0  0  0  0
  145.1470  133.0048  152.1293 H   0  0  0  0  0  0  0  0  0  0  0  0
  146.5946  132.3153  151.3013 H   0  0  0  0  0  0  0  0  0  0  0  0
  146.5611  136.6661  155.5023 H   0  0  0  0  0  0  0  0  0  0  0  0
  151.1647  142.2856  156.4095 H   0  0  0  0  0  0  0  0  0  0  0  0
  151.7372  141.7830  159.3585 H   0  0  0  0  0  0  0  0  0  0  0  0
  152.6791  142.7394  158.2107 H   0  0  0  0  0  0  0  0  0  0  0  0
  150.8894  144.0060  159.7768 H   0  0  0  0  0  0  0  0  0  0  0  0
  150.9028  144.3862  158.0494 H   0  0  0  0  0  0  0  0  0  0  0  0
  149.0654  142.4376  159.4931 H   0  0  0  0  0  0  0  0  0  0  0  0
  148.6077  143.6853  158.3306 H   0  0  0  0  0  0  0  0  0  0  0  0
  1  2  1  0  0  0  0
  1 29  1  0  0  0  0
  2  3  1  0  0  0  0
  2 24  1  0  0  0  0
  2 30  1  0  0  0  0
  3  4  1  0  0  0  0
  3 31  1  0  0  0  0
  3 32  1  0  0  0  0
  4 23  1  0  0  0  0
  4  5  1  0  0  0  0
  5  6  2  0  0  0  0
  5 33  1  0  0  0  0
  6  7  1  0  0  0  0
  7 23  2  0  0  0  0
  7  8  1  0  0  0  0
  8  9  1  0  0  0  0
  8 20  2  0  0  0  0
  9 14  1  0  0  0  0
  9 10  1  0  0  0  0
 10 11  1  0  0  0  0
 10 34  1  0  0  0  0
 10 35  1  0  0  0  0
 11 12  1  0  0  0  0
 11 36  1  0  0  0  0
 11 37  1  0  0  0  0
 12 13  1  0  0  0  0
 13 14  1  0  0  0  0
 13 38  1  0  0  0  0
 13 39  1  0  0  0  0
 14 15  1  0  0  0  0
 14 40  1  0  0  0  0
 15 16  1  0  0  0  0
 15 41  1  0  0  0  0
 15 42  1  0  0  0  0
 16 19  1  0  0  0  0
 16 17  1  0  0  0  0
 16 43  1  0  0  0  0
 17 18  1  0  0  0  0
 17 44  1  0  0  0  0
 17 45  1  0  0  0  0
 18 19  1  0  0  0  0
 18 46  1  0  0  0  0
 18 47  1  0  0  0  0
 19 48  1  0  0  0  0
 19 49  1  0  0  0  0
 20 21  1  0  0  0  0
 21 22  2  0  0  0  0
 21 50  1  0  0  0  0
 22 23  1  0  0  0  0
 24 28  1  0  0  0  0
 24 25  1  0  0  0  0
 24 51  1  0  0  0  0
 25 26  1  0  0  0  0
 25 52  1  0  0  0  0
 25 53  1  0  0  0  0
 26 27  1  0  0  0  0
 26 54  1  0  0  0  0
 26 55  1  0  0  0  0
 27 28  1  0  0  0  0
 27 56  1  0  0  0  0
 27 57  1  0  0  0  0
M  END
> <s_m_source_file>
AV-unprocessed.smi

> <i_m_source_file_index>
170

> <i_lp_mmshare_version>
43012

> <i_f3d_flags>
0

> <s_epik_input>
TzFbQ0gyXVtDSDJdW0NIMl1bQ0BIXTFbQ0BIXShbT0hdKVtDSDJdbihbY0hdbjIpYyhjMjMpbltjSF1uYzNONFtDSDJdW0NIMl1PW0NIMl1bQ0BIXTRbQ0gyXVtDSF01W0NIMl1bQ0gyXVtDSDJdNQ==

> <s_epik_cmdline>
J2VwaWtfcHl0aG9uJywgJy1waCcsICc3LjAnLCAnLXRuJywgJzgnLCAnLW1hJywgJzIwMCcsICctbWV0YWxfYmluZGluZycsICctaW1hZScsICc8aW5maWxlLm1hZT4nLCAnLW9tYWUnLCAnPG91dGZpbGUubWFlPic=

> <r_lp_tautomer_probability>
1

> <r_epik_Ionization_Penalty>
4.98275e-05

> <r_epik_Ionization_Penalty_Charging>
0

> <r_epik_Ionization_Penalty_Neutral>
4.98275e-05

> <r_epik_State_Penalty>
-0

> <r_epik_Charging_Adjusted_Penalty>
0

> <i_epik_Tot_Q>
0

> <i_epik_Tot_abs_Q>
0

> <r_epik_Metal_State_Penalty>
-0

> <b_epik_Metal_Only>
0

> <s_lp_Force_Field>
OPLS_2005

> <r_lp_Energy>
52.7672

> <b_lp_Chiralities_Consistent>
1

> <s_lp_Variant>
AV-unprocessed.smi:170-3

> <Gold.Version>
5.8.1

> <Gold.Id.Protein>
6NUR|6NUR_protein|mol2

> <Gold.PLP.Fitness>
45.1595

> <Gold.PLP.PLP>
-39.9818

> <Gold.PLP.part.hbond>
-1.9447

> <Gold.PLP.part.metal>
0.0000

> <Gold.PLP.part.buried>
-3.7196

> <Gold.PLP.part.nonpolar>
-35.0321

> <Gold.PLP.part.repulsive>
0.7230

> <Gold.PLP.ligand.clash>
0.0000

> <Gold.PLP.ligand.torsion>
0.5469

> <Gold.PLP.Chemscore.Hbond>
2.0000

> <Gold.PLP.Chemscore.CHOScore>
0.0000

> <Gold.PLP.Chemscore.Metal>
0.0000

> <Gold.Chemscore.Hbonds>
donor molecule, donor type, donor heavy atom, donor atom, acceptor molecule, acceptor atom, score
      P1  H  7997  8010       L1     1  0.40
      P1  H 10752 10763       L1     6  1.00

> <Gold.PLP.Chemscore.Internal.Correction>
0.2715

> <Gold.Rescore>
     Score         DG    S(hbond)    S(metal)    S(lipo)     H(rot)  DE(clash)    DE(int)     intcor
     13.40     -15.90       1.64        0.00      99.59       2.61       0.39       2.11       ----

> <Gold.Chemscore.Fitness>
13.3974

> <Gold.Chemscore.DG>
-15.9010

> <Gold.Chemscore.ZeroCoef>
-5.4800

> <Gold.Chemscore.Hbond>
1.6354

> <Gold.Chemscore.Metal>
0.0000

> <Gold.Chemscore.Lipo>
99.5873

> <Gold.Chemscore.Internal_Hbond>
0.0000

> <Gold.Chemscore.DEClash>
0.3941

> <Gold.Chemscore.DEInternal>
2.1096

> <Gold.Chemscore.Rot>
2.6144

> <Gold.Chemscore.Internal.Correction>
   9.000000E+99

> <Gold.Chemscore.Hbonds>
donor molecule, donor type, donor heavy atom, donor atom, acceptor molecule, acceptor atom, score
      P1  H  7997  8010       L1     1  0.01
      P1  H 10752 10763       L1     6  0.77

> <Gold.Chemscore.Hbond.Weighted>
-5.4623

> <Gold.Chemscore.Metal.Weighted>
-0.0000

> <Gold.Chemscore.Lipo.Weighted>
-11.6517

> <Gold.Chemscore.Internal_Hbond.Weighted>
0.0000

> <Gold.Chemscore.DEClash.Weighted>
0.3941

> <Gold.Chemscore.DEInternal.Weighted>
2.1096

> <Gold.Chemscore.Rot.Weighted>
6.6929

> <Gold.Chemscore.Internal.Correction.Weighted>
   9.000000E+99

> <Gold.Protein.RotatedTorsions>
[ 6907 6896 6895 6894 ] final -127.13 input  -60.11 | X-H torsion
[ 7974 7965 7964 7962 ] final  107.93 input  175.53 | X-H torsion
[ 8008 7997 7996 7995 ] final   58.90 input   59.86 | X-H torsion
[ 10167 10162 10161 10158 ] final -124.94 input  -65.29 | X-H torsion
[ 10718 10713 10712 10709 ] final -141.69 input   66.30 | X-H torsion
[ 10763 10752 10751 10750 ] final   84.96 input  -60.55 | X-H torsion
[ 11005 11000 10999 10996 ] final -144.95 input  -57.11 | X-H torsion

> <Gold.Protein.ActiveResidues>
 VAL166  LYS551  ARG553  GLY616  TRP617  ASP618  TYR619  PRO620  LYS621  CYS622 
 ASP623  PHE694  ASN695  SER759  ASP760  ASP761  ALA762  ILE779  LEU786  VAL792 
 PHE793  MET794  SER795  GLU796  ALA797  LYS798  CYS799  TRP800  GLU811  SER814 

> <Gold.Protein.RotatedAtoms>
  150.9041  133.7081  159.2871 H   0  0  0  0  0  0  0  0  0  0  0  0  # atno 6907 bound_to 6896
  151.4589  135.1035  159.9729 H   0  0  0  0  0  0  0  0  0  0  0  0  # atno 6908 bound_to 6896
  152.4893  133.8409  159.7207 H   0  0  0  0  0  0  0  0  0  0  0  0  # atno 6909 bound_to 6896
  145.2872  139.2612  143.3884 H   0  0  0  0  0  0  0  0  0  0  0  0  # atno 7974 bound_to 7965
  155.5575  140.3487  155.4483 H   0  0  0  0  0  0  0  0  0  0  0  0  # atno 8008 bound_to 7997
  156.0538  140.1324  157.0045 H   0  0  0  0  0  0  0  0  0  0  0  0  # atno 8009 bound_to 7997
  154.4447  140.0999  156.6401 H   0  0  0  0  0  0  0  0  0  0  0  0  # atno 8010 bound_to 7997
  139.9874  143.5677  152.2355 H   0  0  0  0  0  0  0  0  0  0  0  0  # atno 10167 bound_to 10162
  156.3371  130.7617  151.1746 H   0  0  0  0  0  0  0  0  0  0  0  0  # atno 10718 bound_to 10713
  153.1430  135.4635  154.9525 H   0  0  0  0  0  0  0  0  0  0  0  0  # atno 10763 bound_to 10752
  154.7763  135.3174  154.8087 H   0  0  0  0  0  0  0  0  0  0  0  0  # atno 10764 bound_to 10752
  153.8606  135.6913  153.4837 H   0  0  0  0  0  0  0  0  0  0  0  0  # atno 10765 bound_to 10752
  140.7972  134.2899  157.4992 H   0  0  0  0  0  0  0  0  0  0  0  0  # atno 11005 bound_to 11000
  146.3197  140.3354  142.8643 LP  0  0  0  0  0  0  0  0  0  0  0  0  # atno 17320 bound_to 7965
  144.9203  140.7860  143.5752 LP  0  0  0  0  0  0  0  0  0  0  0  0  # atno 17321 bound_to 7965
  139.6365  144.7650  151.2427 LP  0  0  0  0  0  0  0  0  0  0  0  0  # atno 17342 bound_to 10162
  140.7467  143.6389  150.8353 LP  0  0  0  0  0  0  0  0  0  0  0  0  # atno 17343 bound_to 10162
  157.7440  131.0465  150.4897 LP  0  0  0  0  0  0  0  0  0  0  0  0  # atno 17370 bound_to 10713
  156.5071  130.4130  149.6321 LP  0  0  0  0  0  0  0  0  0  0  0  0  # atno 17371 bound_to 10713
  139.8725  134.9408  156.3781 LP  0  0  0  0  0  0  0  0  0  0  0  0  # atno 17394 bound_to 11000
  140.9331  133.7565  156.0050 LP  0  0  0  0  0  0  0  0  0  0  0  0  # atno 17395 bound_to 11000

$$$$
