AV-unprocessed.smi:2893|AV-procd|sdf|11123|dock9
  -GOLD-   2272015593D 1   1.00000     0.00000
 Structure written by MMmdl.
 37 39  0  0  0  0  0  0  0  0  1 V2000
  138.8779  141.0760  153.5364 C   0  0  0  0  0  0  0  0  0  0  0  0
  138.2678  139.7304  153.1221 C   0  0  0  0  0  0  0  0  0  0  0  0
  139.2779  138.6811  153.0576 N   0  0  0  0  0  0  0  0  0  0  0  0
  139.2601  137.5412  153.7699 C   0  0  0  0  0  0  0  0  0  0  0  0
  138.3755  137.2663  154.5817 O   0  0  0  0  0  0  0  0  0  0  0  0
  140.4264  136.6143  153.5542 C   0  0  0  0  0  0  0  0  0  0  0  0
  141.6440  137.1138  153.0435 C   0  0  0  0  0  0  0  0  0  0  0  0
  142.7056  136.2086  152.8745 C   0  0  0  0  0  0  0  0  0  0  0  0
  142.4845  134.8654  153.2326 C   0  0  0  0  0  0  0  0  0  0  0  0
  143.5269  133.9416  153.0739 N   0  0  0  0  0  0  0  0  0  0  0  0
  144.5174  134.1078  152.0144 C   0  0  1  0  0  0  0  0  0  0  0  0
  145.9592  134.0346  152.5231 C   0  0  0  0  0  0  0  0  0  0  0  0
  146.5624  132.9581  151.6092 C   0  0  1  0  0  0  0  0  0  0  0  0
  146.0875  131.5539  152.0039 C   0  0  0  0  0  0  0  0  0  0  0  0
  144.6347  131.5744  151.5331 C   0  0  0  0  0  0  0  0  0  0  0  0
  144.5082  132.9925  150.9495 C   0  0  2  0  0  0  0  0  0  0  0  0
  145.8135  133.1587  150.4219 O   0  0  0  0  0  0  0  0  0  0  0  0
  141.2924  134.4444  153.7212 N   0  0  0  0  0  0  0  0  0  0  0  0
  140.2822  135.3053  153.8828 N   0  0  0  0  0  0  0  0  0  0  0  0
  138.1068  141.8426  153.6138 H   0  0  0  0  0  0  0  0  0  0  0  0
  139.6136  141.4199  152.8088 H   0  0  0  0  0  0  0  0  0  0  0  0
  139.3724  141.0028  154.5054 H   0  0  0  0  0  0  0  0  0  0  0  0
  137.5122  139.4308  153.8485 H   0  0  0  0  0  0  0  0  0  0  0  0
  137.7564  139.8242  152.1627 H   0  0  0  0  0  0  0  0  0  0  0  0
  140.0508  138.8263  152.4235 H   0  0  0  0  0  0  0  0  0  0  0  0
  141.7676  138.1557  152.7858 H   0  0  0  0  0  0  0  0  0  0  0  0
  143.6578  136.5386  152.4857 H   0  0  0  0  0  0  0  0  0  0  0  0
  143.4385  133.0314  153.5019 H   0  0  0  0  0  0  0  0  0  0  0  0
  144.3712  135.0749  151.5309 H   0  0  0  0  0  0  0  0  0  0  0  0
  146.4590  134.9930  152.3790 H   0  0  0  0  0  0  0  0  0  0  0  0
  146.0419  133.7668  153.5778 H   0  0  0  0  0  0  0  0  0  0  0  0
  147.6420  133.0400  151.4806 H   0  0  0  0  0  0  0  0  0  0  0  0
  146.6513  130.7875  151.4707 H   0  0  0  0  0  0  0  0  0  0  0  0
  146.1841  131.3676  153.0741 H   0  0  0  0  0  0  0  0  0  0  0  0
  144.4791  130.8256  150.7558 H   0  0  0  0  0  0  0  0  0  0  0  0
  143.9239  131.3759  152.3355 H   0  0  0  0  0  0  0  0  0  0  0  0
  143.7148  133.0936  150.2084 H   0  0  0  0  0  0  0  0  0  0  0  0
  1  2  1  0  0  0  0
  1 20  1  0  0  0  0
  1 21  1  0  0  0  0
  1 22  1  0  0  0  0
  2  3  1  0  0  0  0
  2 23  1  0  0  0  0
  2 24  1  0  0  0  0
  3  4  1  0  0  0  0
  3 25  1  0  0  0  0
  4  5  2  0  0  0  0
  4  6  1  0  0  0  0
  6 19  1  0  0  0  0
  6  7  2  0  0  0  0
  7  8  1  0  0  0  0
  7 26  1  0  0  0  0
  8  9  2  0  0  0  0
  8 27  1  0  0  0  0
  9 10  1  0  0  0  0
  9 18  1  0  0  0  0
 10 11  1  0  0  0  0
 10 28  1  0  0  0  0
 11 16  1  0  0  0  0
 11 12  1  0  0  0  0
 11 29  1  0  0  0  0
 12 13  1  0  0  0  0
 12 30  1  0  0  0  0
 12 31  1  0  0  0  0
 13 17  1  0  0  0  0
 13 14  1  0  0  0  0
 13 32  1  0  0  0  0
 14 15  1  0  0  0  0
 14 33  1  0  0  0  0
 14 34  1  0  0  0  0
 15 16  1  0  0  0  0
 15 35  1  0  0  0  0
 15 36  1  0  0  0  0
 16 17  1  0  0  0  0
 16 37  1  0  0  0  0
 18 19  2  0  0  0  0
M  END
> <s_m_source_file>
AV-unprocessed.smi

> <i_m_source_file_index>
2893

> <i_lp_mmshare_version>
43012

> <i_f3d_flags>
0

> <s_epik_input>
W0NIM11bQ0gyXVtOSF1DKD1PKWMxW2NIXVtjSF1jKG5uMSlbTkhdW0NASF0oW0NIMl1bQ0BASF0yMylbQ0BASF0oTzMpW0NIMl1bQ0gyXTI=

> <s_epik_cmdline>
J2VwaWtfcHl0aG9uJywgJy1waCcsICc3LjAnLCAnLXRuJywgJzgnLCAnLW1hJywgJzIwMCcsICctbWV0YWxfYmluZGluZycsICctaW1hZScsICc8aW5maWxlLm1hZT4nLCAnLW9tYWUnLCAnPG91dGZpbGUubWFlPic=

> <r_lp_tautomer_probability>
1

> <r_epik_Ionization_Penalty>
0.00432031

> <r_epik_Ionization_Penalty_Charging>
0

> <r_epik_Ionization_Penalty_Neutral>
0.00432031

> <r_epik_State_Penalty>
-0

> <r_epik_Charging_Adjusted_Penalty>
0

> <i_epik_Tot_Q>
0

> <i_epik_Tot_abs_Q>
0

> <r_epik_Metal_State_Penalty>
-0

> <b_epik_Metal_Only>
0

> <s_lp_Force_Field>
OPLS_2005

> <r_lp_Energy>
51.8171

> <b_lp_Chiralities_Consistent>
1

> <s_lp_Variant>
AV-unprocessed.smi:2893-2

> <Gold.Version>
5.8.1

> <Gold.Id.Protein>
6NUR|6NUR_protein|mol2

> <Gold.PLP.Fitness>
39.6269

> <Gold.PLP.PLP>
-36.8086

> <Gold.PLP.part.hbond>
-4.2012

> <Gold.PLP.part.metal>
0.0000

> <Gold.PLP.part.buried>
-9.0546

> <Gold.PLP.part.nonpolar>
-23.1977

> <Gold.PLP.part.repulsive>
0.9027

> <Gold.PLP.ligand.clash>
0.0000

> <Gold.PLP.ligand.torsion>
0.4591

> <Gold.PLP.Chemscore.Hbond>
1.2407

> <Gold.PLP.Chemscore.CHOScore>
0.0000

> <Gold.PLP.Chemscore.Metal>
0.0000

> <Gold.Chemscore.Hbonds>
donor molecule, donor type, donor heavy atom, donor atom, acceptor molecule, acceptor atom, score
      L1  H     3    25       P1 10160  0.16
      L1  H    10    28       P1 10957  1.00
      P1  H 11000 11005       L1    18  0.05

> <Gold.PLP.Chemscore.Internal.Correction>
0.0145

> <Gold.Rescore>
     Score         DG    S(hbond)    S(metal)    S(lipo)     H(rot)  DE(clash)    DE(int)     intcor
     14.77     -15.73       1.53        0.00      70.30       1.21       0.35       0.61       ----

> <Gold.Chemscore.Fitness>
14.7666

> <Gold.Chemscore.DG>
-15.7311

> <Gold.Chemscore.ZeroCoef>
-5.4800

> <Gold.Chemscore.Hbond>
1.5310

> <Gold.Chemscore.Metal>
0.0000

> <Gold.Chemscore.Lipo>
70.3001

> <Gold.Chemscore.Internal_Hbond>
0.0000

> <Gold.Chemscore.DEClash>
0.3497

> <Gold.Chemscore.DEInternal>
0.6148

> <Gold.Chemscore.Rot>
1.2061

> <Gold.Chemscore.Internal.Correction>
   9.000000E+99

> <Gold.Chemscore.Hbonds>
donor molecule, donor type, donor heavy atom, donor atom, acceptor molecule, acceptor atom, score
      L1  H     3    25       P1 10160  0.17
      L1  H    10    28       P1 10957  0.87

> <Gold.Chemscore.Hbond.Weighted>
-5.1136

> <Gold.Chemscore.Metal.Weighted>
-0.0000

> <Gold.Chemscore.Lipo.Weighted>
-8.2251

> <Gold.Chemscore.Internal_Hbond.Weighted>
0.0000

> <Gold.Chemscore.DEClash.Weighted>
0.3497

> <Gold.Chemscore.DEInternal.Weighted>
0.6148

> <Gold.Chemscore.Rot.Weighted>
3.0876

> <Gold.Chemscore.Internal.Correction.Weighted>
   9.000000E+99

> <Gold.Protein.RotatedTorsions>
[ 6907 6896 6895 6894 ] final -160.58 input  -60.11 | X-H torsion
[ 7974 7965 7964 7962 ] final  162.81 input  175.53 | X-H torsion
[ 8008 7997 7996 7995 ] final   88.95 input   59.86 | X-H torsion
[ 10167 10162 10161 10158 ] final  151.78 input  -65.29 | X-H torsion
[ 10718 10713 10712 10709 ] final  -53.35 input   66.30 | X-H torsion
[ 10763 10752 10751 10750 ] final -162.69 input  -60.55 | X-H torsion
[ 11005 11000 10999 10996 ] final  -16.49 input  -57.11 | X-H torsion

> <Gold.Protein.ActiveResidues>
 VAL166  LYS551  ARG553  GLY616  TRP617  ASP618  TYR619  PRO620  LYS621  CYS622 
 ASP623  PHE694  ASN695  SER759  ASP760  ASP761  ALA762  ILE779  LEU786  VAL792 
 PHE793  MET794  SER795  GLU796  ALA797  LYS798  CYS799  TRP800  GLU811  SER814 

> <Gold.Protein.RotatedAtoms>
  151.3513  133.3924  159.2680 H   0  0  0  0  0  0  0  0  0  0  0  0  # atno 6907 bound_to 6896
  150.9799  134.9157  159.7848 H   0  0  0  0  0  0  0  0  0  0  0  0  # atno 6908 bound_to 6896
  152.5213  134.3476  159.9292 H   0  0  0  0  0  0  0  0  0  0  0  0  # atno 6909 bound_to 6896
  144.7619  139.8092  143.6329 H   0  0  0  0  0  0  0  0  0  0  0  0  # atno 7974 bound_to 7965
  155.9940  140.3366  155.6780 H   0  0  0  0  0  0  0  0  0  0  0  0  # atno 8008 bound_to 7997
  155.6382  140.0692  157.2645 H   0  0  0  0  0  0  0  0  0  0  0  0  # atno 8009 bound_to 7997
  154.4228  140.1747  156.1532 H   0  0  0  0  0  0  0  0  0  0  0  0  # atno 8010 bound_to 7997
  139.4838  144.5412  151.7561 H   0  0  0  0  0  0  0  0  0  0  0  0  # atno 10167 bound_to 10162
  156.1543  130.4150  149.9895 H   0  0  0  0  0  0  0  0  0  0  0  0  # atno 10718 bound_to 10713
  154.7191  135.3022  154.9076 H   0  0  0  0  0  0  0  0  0  0  0  0  # atno 10763 bound_to 10752
  153.9953  135.6713  153.4760 H   0  0  0  0  0  0  0  0  0  0  0  0  # atno 10764 bound_to 10752
  153.0819  135.5004  154.8436 H   0  0  0  0  0  0  0  0  0  0  0  0  # atno 10765 bound_to 10752
  140.8073  133.8168  155.9528 H   0  0  0  0  0  0  0  0  0  0  0  0  # atno 11005 bound_to 11000
  146.1690  139.4833  142.9939 LP  0  0  0  0  0  0  0  0  0  0  0  0  # atno 17320 bound_to 7965
  145.6592  141.0244  143.1718 LP  0  0  0  0  0  0  0  0  0  0  0  0  # atno 17321 bound_to 7965
  140.4952  144.1251  150.5958 LP  0  0  0  0  0  0  0  0  0  0  0  0  # atno 17342 bound_to 10162
  140.4125  143.2650  151.9815 LP  0  0  0  0  0  0  0  0  0  0  0  0  # atno 17343 bound_to 10162
  156.7743  130.9198  151.3645 LP  0  0  0  0  0  0  0  0  0  0  0  0  # atno 17370 bound_to 10713
  157.6682  130.9027  149.9980 LP  0  0  0  0  0  0  0  0  0  0  0  0  # atno 17371 bound_to 10713
  140.9234  134.2113  157.4912 LP  0  0  0  0  0  0  0  0  0  0  0  0  # atno 17394 bound_to 11000
  139.8717  134.9802  156.5066 LP  0  0  0  0  0  0  0  0  0  0  0  0  # atno 17395 bound_to 11000

$$$$
