AV-unprocessed.smi:183|AV-procd|sdf|1458|dock7
  -GOLD-   2262019263D 1   1.00000     0.00000
 Structure written by MMmdl.
 55 57  0  0  0  0  0  0  0  0  1 V2000
  138.2856  137.2343  153.5614 C   0  0  0  0  0  0  0  0  0  0  0  0
  139.6240  136.6716  154.0270 C   0  0  0  0  0  0  0  0  0  0  0  0
  139.9545  136.7657  155.2093 O   0  0  0  0  0  0  0  0  0  0  0  0
  140.3820  136.0855  153.0862 N   0  0  0  0  0  0  0  0  0  0  0  0
  141.6830  135.4761  153.3343 C   0  0  0  0  0  0  0  0  0  0  0  0
  142.8350  136.4070  152.8960 C   0  0  0  0  0  0  0  0  0  0  0  0
  144.1383  136.0405  153.4608 N   0  0  0  0  0  0  0  0  0  0  0  0
  145.0758  136.9692  153.1436 C   0  0  0  0  0  0  0  0  0  0  0  0
  145.2323  137.2597  151.8269 N   0  0  0  0  0  0  0  0  0  0  0  0
  146.1808  138.1146  151.4346 C   0  0  0  0  0  0  0  0  0  0  0  0
  147.0757  138.7664  152.1787 N   0  0  0  0  0  0  0  0  0  0  0  0
  146.9258  138.4743  153.5024 C   0  0  0  0  0  0  0  0  0  0  0  0
  145.9501  137.6079  154.0709 C   0  0  0  0  0  0  0  0  0  0  0  0
  146.1053  137.5685  155.4521 N   0  0  0  0  0  0  0  0  0  0  0  0
  147.1202  138.3540  155.6837 C   0  0  0  0  0  0  0  0  0  0  0  0
  147.6927  138.9161  154.5659 N   0  0  0  0  0  0  0  0  0  0  0  0
  148.8496  139.7957  154.5289 C   0  0  0  0  0  0  0  0  0  0  0  0
  150.1706  139.1501  155.0247 C   0  0  2  0  0  0  0  0  0  0  0  0
  151.1948  140.0931  154.7582 O   0  0  0  0  0  0  0  0  0  0  0  0
  150.5379  137.8292  154.3620 C   0  0  0  0  0  0  0  0  0  0  0  0
  151.5492  137.2315  155.3351 C   0  0  0  0  0  0  0  0  0  0  0  0
  151.1677  137.6994  156.6247 O   0  0  0  0  0  0  0  0  0  0  0  0
  150.1997  138.7406  156.5133 C   0  0  1  0  0  0  0  0  0  0  0  0
  150.4674  139.8629  157.5278 C   0  0  0  0  0  0  0  0  0  0  0  0
  144.5454  134.6266  153.5181 C   0  0  0  0  0  0  0  0  0  0  0  0
  145.7476  134.4181  154.4581 C   0  0  0  0  0  0  0  0  0  0  0  0
  144.9025  134.0594  152.1267 C   0  0  0  0  0  0  0  0  0  0  0  0
  137.6581  136.4391  153.1581 H   0  0  0  0  0  0  0  0  0  0  0  0
  138.4366  137.9844  152.7848 H   0  0  0  0  0  0  0  0  0  0  0  0
  137.7530  137.7022  154.3901 H   0  0  0  0  0  0  0  0  0  0  0  0
  140.0314  136.0536  152.1398 H   0  0  0  0  0  0  0  0  0  0  0  0
  141.7731  135.2489  154.3965 H   0  0  0  0  0  0  0  0  0  0  0  0
  141.7190  134.5144  152.8238 H   0  0  0  0  0  0  0  0  0  0  0  0
  142.9104  136.4119  151.8072 H   0  0  0  0  0  0  0  0  0  0  0  0
  142.5979  137.4387  153.1543 H   0  0  0  0  0  0  0  0  0  0  0  0
  146.2395  138.2914  150.3709 H   0  0  0  0  0  0  0  0  0  0  0  0
  147.4962  138.5283  156.6813 H   0  0  0  0  0  0  0  0  0  0  0  0
  148.9705  140.1509  153.5046 H   0  0  0  0  0  0  0  0  0  0  0  0
  148.6183  140.6773  155.1285 H   0  0  0  0  0  0  0  0  0  0  0  0
  151.6136  140.3157  155.5757 H   0  0  0  0  0  0  0  0  0  0  0  0
  149.6770  137.1636  154.3158 H   0  0  0  0  0  0  0  0  0  0  0  0
  150.9280  137.9391  153.3495 H   0  0  0  0  0  0  0  0  0  0  0  0
  151.5697  136.1421  155.2967 H   0  0  0  0  0  0  0  0  0  0  0  0
  152.5531  137.5965  155.1154 H   0  0  0  0  0  0  0  0  0  0  0  0
  149.2558  138.2644  156.7740 H   0  0  0  0  0  0  0  0  0  0  0  0
  149.7277  140.6583  157.4355 H   0  0  0  0  0  0  0  0  0  0  0  0
  151.4556  140.3031  157.3926 H   0  0  0  0  0  0  0  0  0  0  0  0
  150.4171  139.4805  158.5472 H   0  0  0  0  0  0  0  0  0  0  0  0
  143.7146  134.0471  153.9198 H   0  0  0  0  0  0  0  0  0  0  0  0
  146.0677  133.3758  154.4584 H   0  0  0  0  0  0  0  0  0  0  0  0
  145.5063  134.6706  155.4904 H   0  0  0  0  0  0  0  0  0  0  0  0
  146.6001  135.0256  154.1524 H   0  0  0  0  0  0  0  0  0  0  0  0
  145.2328  133.0230  152.2018 H   0  0  0  0  0  0  0  0  0  0  0  0
  145.7090  134.6289  151.6639 H   0  0  0  0  0  0  0  0  0  0  0  0
  144.0562  134.0666  151.4407 H   0  0  0  0  0  0  0  0  0  0  0  0
  1  2  1  0  0  0  0
  1 28  1  0  0  0  0
  1 29  1  0  0  0  0
  1 30  1  0  0  0  0
  2  3  2  0  0  0  0
  2  4  1  0  0  0  0
  4  5  1  0  0  0  0
  4 31  1  0  0  0  0
  5  6  1  0  0  0  0
  5 32  1  0  0  0  0
  5 33  1  0  0  0  0
  6  7  1  0  0  0  0
  6 34  1  0  0  0  0
  6 35  1  0  0  0  0
  7  8  1  0  0  0  0
  7 25  1  0  0  0  0
  8 13  1  0  0  0  0
  8  9  2  0  0  0  0
  9 10  1  0  0  0  0
 10 11  2  0  0  0  0
 10 36  1  0  0  0  0
 11 12  1  0  0  0  0
 12 16  1  0  0  0  0
 12 13  2  0  0  0  0
 13 14  1  0  0  0  0
 14 15  2  0  0  0  0
 15 16  1  0  0  0  0
 15 37  1  0  0  0  0
 16 17  1  0  0  0  0
 17 18  1  0  0  0  0
 17 38  1  0  0  0  0
 17 39  1  0  0  0  0
 18 23  1  0  0  0  0
 18 19  1  0  0  0  0
 18 20  1  0  0  0  0
 19 40  1  0  0  0  0
 20 21  1  0  0  0  0
 20 41  1  0  0  0  0
 20 42  1  0  0  0  0
 21 22  1  0  0  0  0
 21 43  1  0  0  0  0
 21 44  1  0  0  0  0
 22 23  1  0  0  0  0
 23 24  1  0  0  0  0
 23 45  1  0  0  0  0
 24 46  1  0  0  0  0
 24 47  1  0  0  0  0
 24 48  1  0  0  0  0
 25 26  1  0  0  0  0
 25 27  1  0  0  0  0
 25 49  1  0  0  0  0
 26 50  1  0  0  0  0
 26 51  1  0  0  0  0
 26 52  1  0  0  0  0
 27 53  1  0  0  0  0
 27 54  1  0  0  0  0
 27 55  1  0  0  0  0
M  END
> <s_m_source_file>
AV-unprocessed.smi

> <i_m_source_file_index>
183

> <i_lp_mmshare_version>
43012

> <i_f3d_flags>
0

> <s_epik_input>
W0NIM11DKD1PKVtOSF1bQ0gyXVtDSDJdTihbQ0hdKFtDSDNdKVtDSDNdKWMobltjSF1uMSljKGMxMiluW2NIXW4yW0NIMl1bQ0BAXTMoW09IXSlbQ0gyXVtDSDJdT1tDQEhdM1tDSDNd

> <s_epik_cmdline>
J2VwaWtfcHl0aG9uJywgJy1waCcsICc3LjAnLCAnLXRuJywgJzgnLCAnLW1hJywgJzIwMCcsICctbWV0YWxfYmluZGluZycsICctaW1hZScsICc8aW5maWxlLm1hZT4nLCAnLW9tYWUnLCAnPG91dGZpbGUubWFlPic=

> <r_lp_tautomer_probability>
1

> <r_epik_Ionization_Penalty>
0.00156158

> <r_epik_Ionization_Penalty_Charging>
0

> <r_epik_Ionization_Penalty_Neutral>
0.00156158

> <r_epik_State_Penalty>
0.000865808

> <r_epik_Charging_Adjusted_Penalty>
0.000865808

> <i_epik_Tot_Q>
0

> <i_epik_Tot_abs_Q>
0

> <r_epik_Metal_State_Penalty>
-0

> <b_epik_Metal_Only>
0

> <s_lp_Force_Field>
OPLS_2005

> <r_lp_Energy>
32.608

> <b_lp_Chiralities_Consistent>
1

> <s_lp_Variant>
AV-unprocessed.smi:183-2

> <Gold.Version>
5.8.1

> <Gold.Id.Protein>
6NUR|6NUR_protein|mol2

> <Gold.PLP.Fitness>
38.5545

> <Gold.PLP.PLP>
-29.6728

> <Gold.PLP.part.hbond>
-2.9469

> <Gold.PLP.part.metal>
0.0000

> <Gold.PLP.part.buried>
-6.1149

> <Gold.PLP.part.nonpolar>
-25.0493

> <Gold.PLP.part.repulsive>
2.7079

> <Gold.PLP.ligand.clash>
0.0000

> <Gold.PLP.ligand.torsion>
0.8648

> <Gold.PLP.Chemscore.Hbond>
2.6000

> <Gold.PLP.Chemscore.CHOScore>
0.5357

> <Gold.PLP.Chemscore.Metal>
0.0000

> <Gold.Chemscore.Hbonds>
donor molecule, donor type, donor heavy atom, donor atom, acceptor molecule, acceptor atom, score
      L1  H     4    31       P1 10187  0.35
      P1  H  7989  7998       L1    19  1.00
      P1  H 11000 11005       L1     3  0.73
      L1  C    10    36       P1 10171  0.44

> <Gold.PLP.Chemscore.Internal.Correction>
1.2042

> <Gold.Rescore>
     Score         DG    S(hbond)    S(metal)    S(lipo)     H(rot)  DE(clash)    DE(int)     intcor
      8.50      -9.72       1.95        0.00      56.07       3.45       0.37       0.84       ----

> <Gold.Chemscore.Fitness>
8.5046

> <Gold.Chemscore.DG>
-9.7185

> <Gold.Chemscore.ZeroCoef>
-5.4800

> <Gold.Chemscore.Hbond>
1.9454

> <Gold.Chemscore.Metal>
0.0000

> <Gold.Chemscore.Lipo>
56.0699

> <Gold.Chemscore.Internal_Hbond>
0.0000

> <Gold.Chemscore.DEClash>
0.3713

> <Gold.Chemscore.DEInternal>
0.8426

> <Gold.Chemscore.Rot>
3.4451

> <Gold.Chemscore.Internal.Correction>
   9.000000E+99

> <Gold.Chemscore.Hbonds>
donor molecule, donor type, donor heavy atom, donor atom, acceptor molecule, acceptor atom, score
      L1  H     4    31       P1 10187  0.01
      P1  H  7989  7998       L1    19  0.89
      P1  H 11000 11005       L1     3  0.60

> <Gold.Chemscore.Hbond.Weighted>
-6.4977

> <Gold.Chemscore.Metal.Weighted>
-0.0000

> <Gold.Chemscore.Lipo.Weighted>
-6.5602

> <Gold.Chemscore.Internal_Hbond.Weighted>
0.0000

> <Gold.Chemscore.DEClash.Weighted>
0.3713

> <Gold.Chemscore.DEInternal.Weighted>
0.8426

> <Gold.Chemscore.Rot.Weighted>
8.8194

> <Gold.Chemscore.Internal.Correction.Weighted>
   9.000000E+99

> <Gold.Protein.RotatedTorsions>
[ 6907 6896 6895 6894 ] final   61.20 input  -60.11 | X-H torsion
[ 7974 7965 7964 7962 ] final   76.94 input  175.53 | X-H torsion
[ 8008 7997 7996 7995 ] final -175.96 input   59.86 | X-H torsion
[ 10167 10162 10161 10158 ] final -152.11 input  -65.29 | X-H torsion
[ 10718 10713 10712 10709 ] final -147.53 input   66.30 | X-H torsion
[ 10763 10752 10751 10750 ] final  -17.49 input  -60.55 | X-H torsion
[ 11005 11000 10999 10996 ] final   87.43 input  -57.11 | X-H torsion

> <Gold.Protein.ActiveResidues>
 VAL166  LYS551  ARG553  GLY616  TRP617  ASP618  TYR619  PRO620  LYS621  CYS622 
 ASP623  PHE694  ASN695  SER759  ASP760  ASP761  ALA762  ILE779  LEU786  VAL792 
 PHE793  MET794  SER795  GLU796  ALA797  LYS798  CYS799  TRP800  GLU811  SER814 

> <Gold.Protein.RotatedAtoms>
  152.4068  134.6193  160.0046 H   0  0  0  0  0  0  0  0  0  0  0  0  # atno 6907 bound_to 6896
  151.6382  133.3322  159.3132 H   0  0  0  0  0  0  0  0  0  0  0  0  # atno 6908 bound_to 6896
  150.7962  134.7065  159.6624 H   0  0  0  0  0  0  0  0  0  0  0  0  # atno 6909 bound_to 6896
  145.6964  139.2568  143.1730 H   0  0  0  0  0  0  0  0  0  0  0  0  # atno 7974 bound_to 7965
  155.9890  140.1197  157.0656 H   0  0  0  0  0  0  0  0  0  0  0  0  # atno 8008 bound_to 7997
  154.4206  140.1129  156.5608 H   0  0  0  0  0  0  0  0  0  0  0  0  # atno 8009 bound_to 7997
  155.6368  140.3473  155.4703 H   0  0  0  0  0  0  0  0  0  0  0  0  # atno 8010 bound_to 7997
  139.7210  143.8958  152.2503 H   0  0  0  0  0  0  0  0  0  0  0  0  # atno 10167 bound_to 10162
  156.4086  130.7970  151.2186 H   0  0  0  0  0  0  0  0  0  0  0  0  # atno 10718 bound_to 10713
  153.5747  135.7006  153.5489 H   0  0  0  0  0  0  0  0  0  0  0  0  # atno 10763 bound_to 10752
  153.3313  135.4046  155.1497 H   0  0  0  0  0  0  0  0  0  0  0  0  # atno 10764 bound_to 10752
  154.8627  135.3719  154.5272 H   0  0  0  0  0  0  0  0  0  0  0  0  # atno 10765 bound_to 10752
  139.8920  134.8422  156.2859 H   0  0  0  0  0  0  0  0  0  0  0  0  # atno 11005 bound_to 11000
  146.0837  140.7735  142.9629 LP  0  0  0  0  0  0  0  0  0  0  0  0  # atno 17320 bound_to 7965
  144.6981  140.3528  143.7178 LP  0  0  0  0  0  0  0  0  0  0  0  0  # atno 17321 bound_to 7965
  139.8853  144.6995  150.8831 LP  0  0  0  0  0  0  0  0  0  0  0  0  # atno 17342 bound_to 10162
  140.7753  143.3628  151.1795 LP  0  0  0  0  0  0  0  0  0  0  0  0  # atno 17343 bound_to 10162
  157.7506  131.0264  150.3962 LP  0  0  0  0  0  0  0  0  0  0  0  0  # atno 17370 bound_to 10713
  156.4256  130.3961  149.6795 LP  0  0  0  0  0  0  0  0  0  0  0  0  # atno 17371 bound_to 10713
  141.0008  133.7152  156.0957 LP  0  0  0  0  0  0  0  0  0  0  0  0  # atno 17394 bound_to 11000
  140.7500  134.4055  157.5542 LP  0  0  0  0  0  0  0  0  0  0  0  0  # atno 17395 bound_to 11000

$$$$
