AV-unprocessed.smi:655|AV-procd|sdf|3215|dock1
  -GOLD-   22720 0153D 1   1.00000     0.00000
 Structure written by MMmdl.
 35 36  0  0  0  0  0  0  0  0  1 V2000
  151.4656  145.2040  159.6260 C   0  0  0  0  0  0  0  0  0  0  0  0
  151.2519  143.6983  159.4167 C   0  0  2  0  0  0  0  0  0  0  0  0
  152.4272  143.0627  158.6534 C   0  0  0  0  0  0  0  0  0  0  0  0
  152.2203  141.5516  158.4382 C   0  0  0  0  0  0  0  0  0  0  0  0
  150.8849  141.2247  157.7263 C   0  0  2  0  0  0  0  0  0  0  0  0
  150.6579  139.8342  157.8634 O   0  0  0  0  0  0  0  0  0  0  0  0
  150.8461  141.5564  156.2039 C   0  0  0  0  0  0  0  0  0  0  0  0
  149.6985  141.0467  155.4768 N   0  0  0  0  0  0  0  0  0  0  0  0
  148.4688  141.6882  155.5202 C   0  0  0  0  0  0  0  0  0  0  0  0
  147.3746  141.2558  154.8488 C   0  0  0  0  0  0  0  0  0  0  0  0
  145.8792  142.1130  154.9623 Cl  0  0  0  0  0  0  0  0  0  0  0  0
  147.4539  140.0552  154.0191 C   0  0  0  0  0  0  0  0  0  0  0  0
  146.5267  139.5738  153.3710 O   0  0  0  0  0  0  0  0  0  0  0  0
  148.7110  139.4455  153.9938 N   0  0  0  0  0  0  0  0  0  0  0  0
  149.8437  139.8857  154.6790 C   0  0  0  0  0  0  0  0  0  0  0  0
  150.8976  139.2625  154.5638 O   0  0  0  0  0  0  0  0  0  0  0  0
  149.7158  141.9035  158.4797 C   0  0  0  0  0  0  0  0  0  0  0  0
  149.9283  143.4130  158.6854 C   0  0  0  0  0  0  0  0  0  0  0  0
  148.8090  138.6156  153.4271 H   0  0  0  0  0  0  0  0  0  0  0  0
  151.5213  145.7329  158.6741 H   0  0  0  0  0  0  0  0  0  0  0  0
  152.3912  145.3968  160.1691 H   0  0  0  0  0  0  0  0  0  0  0  0
  150.6492  145.6409  160.2018 H   0  0  0  0  0  0  0  0  0  0  0  0
  151.1996  143.2338  160.4026 H   0  0  0  0  0  0  0  0  0  0  0  0
  152.5466  143.5676  157.6967 H   0  0  0  0  0  0  0  0  0  0  0  0
  153.3564  143.2253  159.2004 H   0  0  0  0  0  0  0  0  0  0  0  0
  153.0665  141.1284  157.8977 H   0  0  0  0  0  0  0  0  0  0  0  0
  152.2308  141.0704  159.4176 H   0  0  0  0  0  0  0  0  0  0  0  0
  149.8250  139.6267  157.4685 H   0  0  0  0  0  0  0  0  0  0  0  0
  150.8157  142.6370  156.0506 H   0  0  0  0  0  0  0  0  0  0  0  0
  151.7494  141.2295  155.6874 H   0  0  0  0  0  0  0  0  0  0  0  0
  148.3745  142.5808  156.1223 H   0  0  0  0  0  0  0  0  0  0  0  0
  148.7749  141.7309  157.9558 H   0  0  0  0  0  0  0  0  0  0  0  0
  149.5984  141.4432  159.4623 H   0  0  0  0  0  0  0  0  0  0  0  0
  149.0948  143.8194  159.2593 H   0  0  0  0  0  0  0  0  0  0  0  0
  149.9131  143.9278  157.7244 H   0  0  0  0  0  0  0  0  0  0  0  0
  1  2  1  0  0  0  0
  1 20  1  0  0  0  0
  1 21  1  0  0  0  0
  1 22  1  0  0  0  0
  2 18  1  0  0  0  0
  2  3  1  0  0  0  0
  2 23  1  0  0  0  0
  3  4  1  0  0  0  0
  3 24  1  0  0  0  0
  3 25  1  0  0  0  0
  4  5  1  0  0  0  0
  4 26  1  0  0  0  0
  4 27  1  0  0  0  0
  5  6  1  0  0  0  0
  5  7  1  0  0  0  0
  5 17  1  0  0  0  0
  6 28  1  0  0  0  0
  7  8  1  0  0  0  0
  7 29  1  0  0  0  0
  7 30  1  0  0  0  0
  8 15  1  0  0  0  0
  8  9  1  0  0  0  0
  9 10  2  0  0  0  0
  9 31  1  0  0  0  0
 10 11  1  0  0  0  0
 10 12  1  0  0  0  0
 12 13  2  0  0  0  0
 12 14  1  0  0  0  0
 14 19  1  0  0  0  0
 14 15  1  0  0  0  0
 15 16  2  0  0  0  0
 17 18  1  0  0  0  0
 17 32  1  0  0  0  0
 17 33  1  0  0  0  0
 18 34  1  0  0  0  0
 18 35  1  0  0  0  0
M  END
> <s_m_source_file>
AV-unprocessed.smi

> <i_m_source_file_index>
655

> <i_lp_mmshare_version>
43012

> <i_f3d_flags>
0

> <s_epik_input>
W0NIMl0xW0NIMl1bQ0BIXShbQ0gzXSlbQ0gyXVtDSDJdW0NAQF0xKFtPSF0pW0NIMl1uMltjSF1jKENsKWMoPU8pW25IXWMyPU8=

> <s_epik_cmdline>
J2VwaWtfcHl0aG9uJywgJy1waCcsICc3LjAnLCAnLXRuJywgJzgnLCAnLW1hJywgJzIwMCcsICctbWV0YWxfYmluZGluZycsICctaW1hZScsICc8aW5maWxlLm1hZT4nLCAnLW9tYWUnLCAnPG91dGZpbGUubWFlPic=

> <r_lp_tautomer_probability>
0.999537

> <r_epik_Ionization_Penalty>
0.0114762

> <r_epik_Ionization_Penalty_Charging>
0.0114753

> <r_epik_Ionization_Penalty_Neutral>
8.25878e-07

> <r_epik_State_Penalty>
0.00883314

> <r_epik_Charging_Adjusted_Penalty>
0.0203085

> <i_epik_Tot_Q>
0

> <i_epik_Tot_abs_Q>
0

> <r_epik_Metal_State_Penalty>
1.64347

> <b_epik_Metal_Only>
0

> <s_lp_Force_Field>
OPLS_2005

> <r_lp_Energy>
18.8489

> <b_lp_Chiralities_Consistent>
1

> <s_lp_Variant>
AV-unprocessed.smi:655-2

> <Gold.Version>
5.8.1

> <Gold.Id.Protein>
6NUR|6NUR_protein|mol2

> <Gold.PLP.Fitness>
38.0137

> <Gold.PLP.PLP>
-35.2492

> <Gold.PLP.part.hbond>
-2.0000

> <Gold.PLP.part.metal>
0.0000

> <Gold.PLP.part.buried>
-1.8327

> <Gold.PLP.part.nonpolar>
-31.3144

> <Gold.PLP.part.repulsive>
0.4854

> <Gold.PLP.ligand.clash>
0.0000

> <Gold.PLP.ligand.torsion>
0.3200

> <Gold.PLP.Chemscore.Hbond>
0.1500

> <Gold.PLP.Chemscore.CHOScore>
0.9807

> <Gold.PLP.Chemscore.Metal>
0.0000

> <Gold.Chemscore.Hbonds>
donor molecule, donor type, donor heavy atom, donor atom, acceptor molecule, acceptor atom, score
      P1  H  7989  7998       L1    16  0.37
      L1  C     9    31       P1  8028  1.00

> <Gold.PLP.Chemscore.Internal.Correction>
0.0123

> <Gold.Rescore>
     Score         DG    S(hbond)    S(metal)    S(lipo)     H(rot)  DE(clash)    DE(int)     intcor
     10.22     -10.74       0.00        0.00      85.28       1.84       0.13       0.40       ----

> <Gold.Chemscore.Fitness>
10.2154

> <Gold.Chemscore.DG>
-10.7417

> <Gold.Chemscore.ZeroCoef>
-5.4800

> <Gold.Chemscore.Hbond>
0.0000

> <Gold.Chemscore.Metal>
0.0000

> <Gold.Chemscore.Lipo>
85.2827

> <Gold.Chemscore.Internal_Hbond>
0.0000

> <Gold.Chemscore.DEClash>
0.1272

> <Gold.Chemscore.DEInternal>
0.3991

> <Gold.Chemscore.Rot>
1.8424

> <Gold.Chemscore.Internal.Correction>
   9.000000E+99

> <Gold.Chemscore.Hbonds>
donor molecule, donor type, donor heavy atom, donor atom, acceptor molecule, acceptor atom, score
      P1  H  7989  7998       L1    16  0.01

> <Gold.Chemscore.Hbond.Weighted>
-0.0000

> <Gold.Chemscore.Metal.Weighted>
-0.0000

> <Gold.Chemscore.Lipo.Weighted>
-9.9781

> <Gold.Chemscore.Internal_Hbond.Weighted>
0.0000

> <Gold.Chemscore.DEClash.Weighted>
0.1272

> <Gold.Chemscore.DEInternal.Weighted>
0.3991

> <Gold.Chemscore.Rot.Weighted>
4.7164

> <Gold.Chemscore.Internal.Correction.Weighted>
   9.000000E+99

> <Gold.Protein.RotatedTorsions>
[ 6907 6896 6895 6894 ] final  116.99 input  -60.11 | X-H torsion
[ 7974 7965 7964 7962 ] final  -77.68 input  175.53 | X-H torsion
[ 8008 7997 7996 7995 ] final  173.31 input   59.86 | X-H torsion
[ 10167 10162 10161 10158 ] final   47.45 input  -65.29 | X-H torsion
[ 10718 10713 10712 10709 ] final   65.14 input   66.30 | X-H torsion
[ 10763 10752 10751 10750 ] final -160.35 input  -60.55 | X-H torsion
[ 11005 11000 10999 10996 ] final -163.67 input  -57.11 | X-H torsion

> <Gold.Protein.ActiveResidues>
 VAL166  LYS551  ARG553  GLY616  TRP617  ASP618  TYR619  PRO620  LYS621  CYS622 
 ASP623  PHE694  ASN695  SER759  ASP760  ASP761  ALA762  ILE779  LEU786  VAL792 
 PHE793  MET794  SER795  GLU796  ALA797  LYS798  CYS799  TRP800  GLU811  SER814 

> <Gold.Protein.RotatedAtoms>
  152.4642  133.7886  159.6889 H   0  0  0  0  0  0  0  0  0  0  0  0  # atno 6907 bound_to 6896
  150.8598  133.7650  159.3002 H   0  0  0  0  0  0  0  0  0  0  0  0  # atno 6908 bound_to 6896
  151.5219  135.1070  159.9932 H   0  0  0  0  0  0  0  0  0  0  0  0  # atno 6909 bound_to 6896
  145.5965  140.9418  143.1264 H   0  0  0  0  0  0  0  0  0  0  0  0  # atno 7974 bound_to 7965
  156.1088  140.1463  156.9367 H   0  0  0  0  0  0  0  0  0  0  0  0  # atno 8008 bound_to 7997
  154.4752  140.0896  156.7289 H   0  0  0  0  0  0  0  0  0  0  0  0  # atno 8009 bound_to 7997
  155.4632  140.3439  155.4318 H   0  0  0  0  0  0  0  0  0  0  0  0  # atno 8010 bound_to 7997
  140.3035  144.2905  150.6214 H   0  0  0  0  0  0  0  0  0  0  0  0  # atno 10167 bound_to 10162
  157.6086  130.9198  149.9937 H   0  0  0  0  0  0  0  0  0  0  0  0  # atno 10718 bound_to 10713
  154.7398  135.3066  154.8748 H   0  0  0  0  0  0  0  0  0  0  0  0  # atno 10763 bound_to 10752
  153.9567  135.6757  153.4749 H   0  0  0  0  0  0  0  0  0  0  0  0  # atno 10764 bound_to 10752
  153.0997  135.4918  154.8769 H   0  0  0  0  0  0  0  0  0  0  0  0  # atno 10765 bound_to 10752
  140.5954  134.5001  157.5198 H   0  0  0  0  0  0  0  0  0  0  0  0  # atno 11005 bound_to 11000
  144.7328  139.7674  143.7340 LP  0  0  0  0  0  0  0  0  0  0  0  0  # atno 17320 bound_to 7965
  146.1608  139.4721  142.9989 LP  0  0  0  0  0  0  0  0  0  0  0  0  # atno 17321 bound_to 7965
  140.5630  143.2189  151.7732 LP  0  0  0  0  0  0  0  0  0  0  0  0  # atno 17342 bound_to 10162
  139.4909  144.4322  151.9859 LP  0  0  0  0  0  0  0  0  0  0  0  0  # atno 17343 bound_to 10162
  156.1180  130.3647  149.9934 LP  0  0  0  0  0  0  0  0  0  0  0  0  # atno 17370 bound_to 10713
  156.8020  130.9294  151.3646 LP  0  0  0  0  0  0  0  0  0  0  0  0  # atno 17371 bound_to 10713
  139.9255  134.8064  156.1081 LP  0  0  0  0  0  0  0  0  0  0  0  0  # atno 17394 bound_to 11000
  141.0907  133.6715  156.2534 LP  0  0  0  0  0  0  0  0  0  0  0  0  # atno 17395 bound_to 11000

$$$$
