AV-unprocessed.smi:342|AV-procd|sdf|2385|dock7
  -GOLD-   2262022313D 1   1.00000     0.00000
 Structure written by MMmdl.
 41 43  0  0  0  0  0  0  0  0  1 V2000
  148.7684  142.4484  157.2005 O   0  0  0  0  0  0  0  0  0  0  0  0
  149.0395  141.3706  156.3262 C   0  0  1  0  0  0  0  0  0  0  0  0
  148.0456  141.4282  155.1481 C   0  0  0  0  0  0  0  0  0  0  0  0
  147.9228  140.2001  154.3607 N   0  0  0  0  0  0  0  0  0  0  0  0
  147.4090  139.1072  155.1800 C   0  0  0  0  0  0  0  0  0  0  0  0
  147.2694  137.8016  154.3788 C   0  0  0  0  0  0  0  0  0  0  0  0
  146.4243  138.0226  153.2548 O   0  0  0  0  0  0  0  0  0  0  0  0
  146.9107  139.0509  152.3990 C   0  0  0  0  0  0  0  0  0  0  0  0
  147.0576  140.3611  153.1926 C   0  0  0  0  0  0  0  0  0  0  0  0
  150.4991  141.4590  155.8357 C   0  0  0  0  0  0  0  0  0  0  0  0
  151.4647  141.0812  156.8608 N   0  0  0  0  0  0  0  0  0  0  0  0
  152.1506  139.9151  156.9939 C   0  0  0  0  0  0  0  0  0  0  0  0
  151.9814  138.7655  156.0390 C   0  0  0  0  0  0  0  0  0  0  0  0
  152.6980  137.7106  156.4304 F   0  0  0  0  0  0  0  0  0  0  0  0
  150.7034  138.3904  155.9812 F   0  0  0  0  0  0  0  0  0  0  0  0
  152.3875  139.0980  154.8139 F   0  0  0  0  0  0  0  0  0  0  0  0
  152.9715  139.8488  158.0449 N   0  0  0  0  0  0  0  0  0  0  0  0
  152.7986  141.0771  158.6500 C   0  0  0  0  0  0  0  0  0  0  0  0
  153.3915  141.6191  159.8126 C   0  0  0  0  0  0  0  0  0  0  0  0
  153.0483  142.9146  160.2513 C   0  0  0  0  0  0  0  0  0  0  0  0
  152.1079  143.6839  159.5362 C   0  0  0  0  0  0  0  0  0  0  0  0
  151.5061  143.1626  158.3749 C   0  0  0  0  0  0  0  0  0  0  0  0
  151.8557  141.8703  157.9386 C   0  0  0  0  0  0  0  0  0  0  0  0
  148.7977  143.2525  156.7052 H   0  0  0  0  0  0  0  0  0  0  0  0
  148.9209  140.4453  156.8866 H   0  0  0  0  0  0  0  0  0  0  0  0
  147.0673  141.7015  155.5468 H   0  0  0  0  0  0  0  0  0  0  0  0
  148.3285  142.2451  154.4823 H   0  0  0  0  0  0  0  0  0  0  0  0
  148.0727  138.9368  156.0285 H   0  0  0  0  0  0  0  0  0  0  0  0
  146.4373  139.3802  155.5945 H   0  0  0  0  0  0  0  0  0  0  0  0
  148.2455  137.4453  154.0457 H   0  0  0  0  0  0  0  0  0  0  0  0
  146.8374  137.0185  155.0019 H   0  0  0  0  0  0  0  0  0  0  0  0
  147.8671  138.7520  151.9671 H   0  0  0  0  0  0  0  0  0  0  0  0
  146.2137  139.1851  151.5716 H   0  0  0  0  0  0  0  0  0  0  0  0
  146.0706  140.7035  153.5074 H   0  0  0  0  0  0  0  0  0  0  0  0
  147.4542  141.1234  152.5239 H   0  0  0  0  0  0  0  0  0  0  0  0
  150.6423  140.7940  154.9834 H   0  0  0  0  0  0  0  0  0  0  0  0
  150.7157  142.4626  155.4728 H   0  0  0  0  0  0  0  0  0  0  0  0
  154.1106  141.0361  160.3686 H   0  0  0  0  0  0  0  0  0  0  0  0
  153.5074  143.3190  161.1415 H   0  0  0  0  0  0  0  0  0  0  0  0
  151.8487  144.6748  159.8796 H   0  0  0  0  0  0  0  0  0  0  0  0
  150.7853  143.7503  157.8263 H   0  0  0  0  0  0  0  0  0  0  0  0
  1  2  1  0  0  0  0
  1 24  1  0  0  0  0
  2  3  1  0  0  0  0
  2 10  1  0  0  0  0
  2 25  1  0  0  0  0
  3  4  1  0  0  0  0
  3 26  1  0  0  0  0
  3 27  1  0  0  0  0
  4  9  1  0  0  0  0
  4  5  1  0  0  0  0
  5  6  1  0  0  0  0
  5 28  1  0  0  0  0
  5 29  1  0  0  0  0
  6  7  1  0  0  0  0
  6 30  1  0  0  0  0
  6 31  1  0  0  0  0
  7  8  1  0  0  0  0
  8  9  1  0  0  0  0
  8 32  1  0  0  0  0
  8 33  1  0  0  0  0
  9 34  1  0  0  0  0
  9 35  1  0  0  0  0
 10 11  1  0  0  0  0
 10 36  1  0  0  0  0
 10 37  1  0  0  0  0
 11 23  1  0  0  0  0
 11 12  1  0  0  0  0
 12 13  1  0  0  0  0
 12 17  2  0  0  0  0
 13 14  1  0  0  0  0
 13 15  1  0  0  0  0
 13 16  1  0  0  0  0
 17 18  1  0  0  0  0
 18 23  2  0  0  0  0
 18 19  1  0  0  0  0
 19 20  2  0  0  0  0
 19 38  1  0  0  0  0
 20 21  1  0  0  0  0
 20 39  1  0  0  0  0
 21 22  2  0  0  0  0
 21 40  1  0  0  0  0
 22 23  1  0  0  0  0
 22 41  1  0  0  0  0
M  END
> <s_m_source_file>
AV-unprocessed.smi

> <i_m_source_file_index>
342

> <i_lp_mmshare_version>
43012

> <i_f3d_flags>
0

> <s_epik_input>
W2NIXTFbY0hdW2NIXVtjSF1jKGMxMiluKGMobjIpQyhGKShGKUYpW0NIMl1bQ0BIXShbT0hdKVtDSDJdTjNbQ0gyXVtDSDJdT1tDSDJdW0NIMl0z

> <s_epik_cmdline>
J2VwaWtfcHl0aG9uJywgJy1waCcsICc3LjAnLCAnLXRuJywgJzgnLCAnLW1hJywgJzIwMCcsICctbWV0YWxfYmluZGluZycsICctaW1hZScsICc8aW5maWxlLm1hZT4nLCAnLW9tYWUnLCAnPG91dGZpbGUubWFlPic=

> <r_epik_Ionization_Penalty>
0.263195

> <r_epik_Ionization_Penalty_Charging>
0

> <r_epik_Ionization_Penalty_Neutral>
0.263195

> <r_epik_State_Penalty>
0.254683

> <r_epik_Charging_Adjusted_Penalty>
0.254683

> <i_epik_Tot_Q>
0

> <i_epik_Tot_abs_Q>
0

> <r_epik_Metal_State_Penalty>
0.254691

> <b_epik_Metal_Only>
0

> <s_lp_Force_Field>
OPLS_2005

> <r_lp_Energy>
34.5572

> <b_lp_Chiralities_Consistent>
1

> <s_lp_Variant>
AV-unprocessed.smi:342-2

> <Gold.Version>
5.8.1

> <Gold.Id.Protein>
6NUR|6NUR_protein|mol2

> <Gold.PLP.Fitness>
45.5095

> <Gold.PLP.PLP>
-40.4733

> <Gold.PLP.part.hbond>
-2.0000

> <Gold.PLP.part.metal>
0.0000

> <Gold.PLP.part.buried>
-2.9317

> <Gold.PLP.part.nonpolar>
-34.7162

> <Gold.PLP.part.repulsive>
0.3248

> <Gold.PLP.ligand.clash>
0.0000

> <Gold.PLP.ligand.torsion>
0.4948

> <Gold.PLP.Chemscore.Hbond>
1.9920

> <Gold.PLP.Chemscore.CHOScore>
0.0000

> <Gold.PLP.Chemscore.Metal>
0.0000

> <Gold.Chemscore.Hbonds>
donor molecule, donor type, donor heavy atom, donor atom, acceptor molecule, acceptor atom, score
      L1  H     1    24       P1  8028  1.00
      P1  H  7997  8009       L1    17  0.99

> <Gold.PLP.Chemscore.Internal.Correction>
0.0498

> <Gold.Rescore>
     Score         DG    S(hbond)    S(metal)    S(lipo)     H(rot)  DE(clash)    DE(int)     intcor
     15.03     -15.66       0.99        0.00     107.77       2.24       0.11       0.51       ----

> <Gold.Chemscore.Fitness>
15.0308

> <Gold.Chemscore.DG>
-15.6565

> <Gold.Chemscore.ZeroCoef>
-5.4800

> <Gold.Chemscore.Hbond>
0.9903

> <Gold.Chemscore.Metal>
0.0000

> <Gold.Chemscore.Lipo>
107.7676

> <Gold.Chemscore.Internal_Hbond>
0.0000

> <Gold.Chemscore.DEClash>
0.1132

> <Gold.Chemscore.DEInternal>
0.5125

> <Gold.Chemscore.Rot>
2.2421

> <Gold.Chemscore.Internal.Correction>
   9.000000E+99

> <Gold.Chemscore.Hbonds>
donor molecule, donor type, donor heavy atom, donor atom, acceptor molecule, acceptor atom, score
      L1  H     1    24       P1  8028  0.82
      P1  H  7997  8009       L1    17  0.09

> <Gold.Chemscore.Hbond.Weighted>
-3.3076

> <Gold.Chemscore.Metal.Weighted>
-0.0000

> <Gold.Chemscore.Lipo.Weighted>
-12.6088

> <Gold.Chemscore.Internal_Hbond.Weighted>
0.0000

> <Gold.Chemscore.DEClash.Weighted>
0.1132

> <Gold.Chemscore.DEInternal.Weighted>
0.5125

> <Gold.Chemscore.Rot.Weighted>
5.7399

> <Gold.Chemscore.Internal.Correction.Weighted>
   9.000000E+99

> <Gold.Protein.RotatedTorsions>
[ 6907 6896 6895 6894 ] final  117.79 input  -60.11 | X-H torsion
[ 7974 7965 7964 7962 ] final   21.86 input  175.53 | X-H torsion
[ 8008 7997 7996 7995 ] final  145.39 input   59.86 | X-H torsion
[ 10167 10162 10161 10158 ] final  -30.35 input  -65.29 | X-H torsion
[ 10718 10713 10712 10709 ] final  143.48 input   66.30 | X-H torsion
[ 10763 10752 10751 10750 ] final  101.85 input  -60.55 | X-H torsion
[ 11005 11000 10999 10996 ] final   -2.35 input  -57.11 | X-H torsion

> <Gold.Protein.ActiveResidues>
 VAL166  LYS551  ARG553  GLY616  TRP617  ASP618  TYR619  PRO620  LYS621  CYS622 
 ASP623  PHE694  ASN695  SER759  ASP760  ASP761  ALA762  ILE779  LEU786  VAL792 
 PHE793  MET794  SER795  GLU796  ALA797  LYS798  CYS799  TRP800  GLU811  SER814 

> <Gold.Protein.RotatedAtoms>
  152.4588  133.7778  159.6833 H   0  0  0  0  0  0  0  0  0  0  0  0  # atno 6907 bound_to 6896
  150.8524  133.7757  159.3027 H   0  0  0  0  0  0  0  0  0  0  0  0  # atno 6908 bound_to 6896
  151.5348  135.1071  159.9963 H   0  0  0  0  0  0  0  0  0  0  0  0  # atno 6909 bound_to 6896
  146.2053  139.7967  142.8730 H   0  0  0  0  0  0  0  0  0  0  0  0  # atno 7974 bound_to 7965
  156.2884  140.2210  156.5207 H   0  0  0  0  0  0  0  0  0  0  0  0  # atno 8008 bound_to 7997
  154.7531  140.0479  157.0932 H   0  0  0  0  0  0  0  0  0  0  0  0  # atno 8009 bound_to 7997
  155.0085  140.3110  155.4842 H   0  0  0  0  0  0  0  0  0  0  0  0  # atno 8010 bound_to 7997
  140.7250  143.3856  151.1522 H   0  0  0  0  0  0  0  0  0  0  0  0  # atno 10167 bound_to 10162
  157.3684  131.0975  151.0850 H   0  0  0  0  0  0  0  0  0  0  0  0  # atno 10718 bound_to 10713
  153.3320  135.4030  155.1503 H   0  0  0  0  0  0  0  0  0  0  0  0  # atno 10763 bound_to 10752
  154.8625  135.3613  154.5458 H   0  0  0  0  0  0  0  0  0  0  0  0  # atno 10764 bound_to 10752
  153.5897  135.7074  153.5487 H   0  0  0  0  0  0  0  0  0  0  0  0  # atno 10765 bound_to 10752
  140.6573  133.9351  155.8415 H   0  0  0  0  0  0  0  0  0  0  0  0  # atno 11005 bound_to 11000
  145.3340  141.0273  143.3430 LP  0  0  0  0  0  0  0  0  0  0  0  0  # atno 17320 bound_to 7965
  144.8779  139.4946  143.6737 LP  0  0  0  0  0  0  0  0  0  0  0  0  # atno 17321 bound_to 7965
  139.7452  143.8863  152.3061 LP  0  0  0  0  0  0  0  0  0  0  0  0  # atno 17342 bound_to 10162
  139.8697  144.7074  150.9001 LP  0  0  0  0  0  0  0  0  0  0  0  0  # atno 17343 bound_to 10162
  157.1964  130.6375  149.5722 LP  0  0  0  0  0  0  0  0  0  0  0  0  # atno 17370 bound_to 10713
  155.9751  130.4705  150.6433 LP  0  0  0  0  0  0  0  0  0  0  0  0  # atno 17371 bound_to 10713
  141.0491  134.0510  157.3806 LP  0  0  0  0  0  0  0  0  0  0  0  0  # atno 17394 bound_to 11000
  139.9025  135.0169  156.7334 LP  0  0  0  0  0  0  0  0  0  0  0  0  # atno 17395 bound_to 11000

$$$$
