AV-unprocessed.smi:2847|AV-procd|sdf|10953|dock10
  -GOLD-   2272015403D 1   1.00000     0.00000
 Structure written by MMmdl.
 45 46  0  0  0  0  0  0  0  0  1 V2000
  149.6382  142.1327  157.7049 C   0  0  0  0  0  0  0  0  0  0  0  0
  150.8927  141.5452  157.0164 C   0  0  0  0  0  0  0  0  0  0  0  0
  151.3327  142.5918  155.9653 C   0  0  0  0  0  0  0  0  0  0  0  0
  152.0115  141.3579  158.0573 C   0  0  0  0  0  0  0  0  0  0  0  0
  150.5773  140.1931  156.3534 C   0  0  0  0  0  0  0  0  0  0  0  0
  150.4732  140.1787  155.0180 N   0  0  0  0  0  0  0  0  0  0  0  0
  150.0708  139.0311  154.4332 C   0  0  0  0  0  0  0  0  0  0  0  0
  149.7260  137.8910  155.1855 C   0  0  0  0  0  0  0  0  0  0  0  0
  149.3255  136.7117  154.5027 N   0  0  0  0  0  0  0  0  0  0  0  0
  149.1349  135.4801  155.0042 C   0  0  0  0  0  0  0  0  0  0  0  0
  149.2505  135.1745  156.1903 O   0  0  0  0  0  0  0  0  0  0  0  0
  148.7817  134.6198  154.0348 N   0  0  0  0  0  0  0  0  0  0  0  0
  148.4761  133.1867  154.1469 C   0  0  1  0  0  0  0  0  0  0  0  0
  147.3724  133.0701  155.2272 C   0  0  0  0  0  0  0  0  0  0  0  0
  147.9178  132.6550  152.7986 C   0  0  0  0  0  0  0  0  0  0  0  0
  147.6128  131.2741  152.8404 O   0  0  0  0  0  0  0  0  0  0  0  0
  149.7228  132.3587  154.5047 C   0  0  0  0  0  0  0  0  0  0  0  0
  149.6788  131.0442  155.2503 C   0  0  0  0  0  0  0  0  0  0  0  0
  150.3135  132.2635  155.8922 C   0  0  0  0  0  0  0  0  0  0  0  0
  149.8409  138.0232  156.5899 C   0  0  0  0  0  0  0  0  0  0  0  0
  150.2467  139.1771  157.1614 N   0  0  0  0  0  0  0  0  0  0  0  0
  149.8441  143.1127  158.1368 H   0  0  0  0  0  0  0  0  0  0  0  0
  149.2847  141.4994  158.5194 H   0  0  0  0  0  0  0  0  0  0  0  0
  148.8162  142.2524  156.9982 H   0  0  0  0  0  0  0  0  0  0  0  0
  150.5713  142.7260  155.1958 H   0  0  0  0  0  0  0  0  0  0  0  0
  152.2598  142.3066  155.4669 H   0  0  0  0  0  0  0  0  0  0  0  0
  151.5096  143.5653  156.4238 H   0  0  0  0  0  0  0  0  0  0  0  0
  152.2617  142.2995  158.5469 H   0  0  0  0  0  0  0  0  0  0  0  0
  152.9220  140.9748  157.5954 H   0  0  0  0  0  0  0  0  0  0  0  0
  151.7153  140.6518  158.8338 H   0  0  0  0  0  0  0  0  0  0  0  0
  150.0148  139.0288  153.3544 H   0  0  0  0  0  0  0  0  0  0  0  0
  149.1214  136.8281  153.5208 H   0  0  0  0  0  0  0  0  0  0  0  0
  148.7250  134.9966  153.1002 H   0  0  0  0  0  0  0  0  0  0  0  0
  147.0021  132.0504  155.3286 H   0  0  0  0  0  0  0  0  0  0  0  0
  146.5092  133.6901  154.9822 H   0  0  0  0  0  0  0  0  0  0  0  0
  147.7156  133.4023  156.2062 H   0  0  0  0  0  0  0  0  0  0  0  0
  147.0213  133.1966  152.4971 H   0  0  0  0  0  0  0  0  0  0  0  0
  148.6479  132.8136  152.0044 H   0  0  0  0  0  0  0  0  0  0  0  0
  147.9952  130.8598  152.0820 H   0  0  0  0  0  0  0  0  0  0  0  0
  150.4641  132.3724  153.7082 H   0  0  0  0  0  0  0  0  0  0  0  0
  148.7366  130.6980  155.6669 H   0  0  0  0  0  0  0  0  0  0  0  0
  150.3455  130.2554  154.9078 H   0  0  0  0  0  0  0  0  0  0  0  0
  151.3986  132.2793  155.9719 H   0  0  0  0  0  0  0  0  0  0  0  0
  149.7871  132.7213  156.7257 H   0  0  0  0  0  0  0  0  0  0  0  0
  149.6268  137.2169  157.2737 H   0  0  0  0  0  0  0  0  0  0  0  0
  1  2  1  0  0  0  0
  1 22  1  0  0  0  0
  1 23  1  0  0  0  0
  1 24  1  0  0  0  0
  2  3  1  0  0  0  0
  2  4  1  0  0  0  0
  2  5  1  0  0  0  0
  3 25  1  0  0  0  0
  3 26  1  0  0  0  0
  3 27  1  0  0  0  0
  4 28  1  0  0  0  0
  4 29  1  0  0  0  0
  4 30  1  0  0  0  0
  5 21  1  0  0  0  0
  5  6  2  0  0  0  0
  6  7  1  0  0  0  0
  7  8  2  0  0  0  0
  7 31  1  0  0  0  0
  8  9  1  0  0  0  0
  8 20  1  0  0  0  0
  9 10  1  0  0  0  0
  9 32  1  0  0  0  0
 10 11  2  0  0  0  0
 10 12  1  0  0  0  0
 12 13  1  0  0  0  0
 12 33  1  0  0  0  0
 13 14  1  0  0  0  0
 13 15  1  0  0  0  0
 13 17  1  0  0  0  0
 14 34  1  0  0  0  0
 14 35  1  0  0  0  0
 14 36  1  0  0  0  0
 15 16  1  0  0  0  0
 15 37  1  0  0  0  0
 15 38  1  0  0  0  0
 16 39  1  0  0  0  0
 17 19  1  0  0  0  0
 17 18  1  0  0  0  0
 17 40  1  0  0  0  0
 18 19  1  0  0  0  0
 18 41  1  0  0  0  0
 18 42  1  0  0  0  0
 19 43  1  0  0  0  0
 19 44  1  0  0  0  0
 20 21  2  0  0  0  0
 20 45  1  0  0  0  0
M  END
> <s_m_source_file>
AV-unprocessed.smi

> <i_m_source_file_index>
2847

> <i_lp_mmshare_version>
43012

> <i_f3d_flags>
0

> <s_epik_input>
W0NIM11DKFtDSDNdKShbQ0gzXSljMW5bY0hdYyhbY0hdbjEpW05IXUMoPU8pW05IXVtDQEBdKFtDSDNdKShbQ0gyXVtPSF0pW0NIXTJbQ0gyXVtDSDJdMg==

> <s_epik_cmdline>
J2VwaWtfcHl0aG9uJywgJy1waCcsICc3LjAnLCAnLXRuJywgJzgnLCAnLW1hJywgJzIwMCcsICctbWV0YWxfYmluZGluZycsICctaW1hZScsICc8aW5maWxlLm1hZT4nLCAnLW9tYWUnLCAnPG91dGZpbGUubWFlPic=

> <r_lp_tautomer_probability>
1

> <r_epik_Ionization_Penalty>
2.57177e-05

> <r_epik_Ionization_Penalty_Charging>
0

> <r_epik_Ionization_Penalty_Neutral>
2.57177e-05

> <r_epik_State_Penalty>
-0

> <r_epik_Charging_Adjusted_Penalty>
0

> <i_epik_Tot_Q>
0

> <i_epik_Tot_abs_Q>
0

> <r_epik_Metal_State_Penalty>
-0

> <b_epik_Metal_Only>
0

> <s_lp_Force_Field>
OPLS_2005

> <r_lp_Energy>
20.4005

> <b_lp_Chiralities_Consistent>
1

> <s_lp_Variant>
AV-unprocessed.smi:2847-1

> <Gold.Version>
5.8.1

> <Gold.Id.Protein>
6NUR|6NUR_protein|mol2

> <Gold.PLP.Fitness>
39.5178

> <Gold.PLP.PLP>
-25.4377

> <Gold.PLP.part.hbond>
-4.0000

> <Gold.PLP.part.metal>
0.0000

> <Gold.PLP.part.buried>
-3.2992

> <Gold.PLP.part.nonpolar>
-17.6318

> <Gold.PLP.part.repulsive>
0.0981

> <Gold.PLP.ligand.clash>
0.0000

> <Gold.PLP.ligand.torsion>
1.0872

> <Gold.PLP.Chemscore.Hbond>
3.8921

> <Gold.PLP.Chemscore.CHOScore>
1.0000

> <Gold.PLP.Chemscore.Metal>
0.0000

> <Gold.Chemscore.Hbonds>
donor molecule, donor type, donor heavy atom, donor atom, acceptor molecule, acceptor atom, score
      L1  H     9    32       P1  7948  1.00
      L1  H    12    33       P1  7948  1.00
      L1  H    16    39       P1 10747  0.96
      P1  H  7989  7998       L1     6  0.89
      L1  C     7    31       P1  7957  1.00

> <Gold.PLP.Chemscore.Internal.Correction>
1.5780

> <Gold.Rescore>
     Score         DG    S(hbond)    S(metal)    S(lipo)     H(rot)  DE(clash)    DE(int)     intcor
     12.77     -17.01       2.62        0.00      71.15       2.17       0.80       3.44       ----

> <Gold.Chemscore.Fitness>
12.7681

> <Gold.Chemscore.DG>
-17.0094

> <Gold.Chemscore.ZeroCoef>
-5.4800

> <Gold.Chemscore.Hbond>
2.6213

> <Gold.Chemscore.Metal>
0.0000

> <Gold.Chemscore.Lipo>
71.1475

> <Gold.Chemscore.Internal_Hbond>
0.0000

> <Gold.Chemscore.DEClash>
0.7973

> <Gold.Chemscore.DEInternal>
3.4440

> <Gold.Chemscore.Rot>
2.1679

> <Gold.Chemscore.Internal.Correction>
   9.000000E+99

> <Gold.Chemscore.Hbonds>
donor molecule, donor type, donor heavy atom, donor atom, acceptor molecule, acceptor atom, score
      L1  H     9    32       P1  7948  0.96
      L1  H    12    33       P1  7948  0.44
      L1  H    16    39       P1 10747  0.89
      P1  H  7989  7998       L1     6  0.17

> <Gold.Chemscore.Hbond.Weighted>
-8.7550

> <Gold.Chemscore.Metal.Weighted>
-0.0000

> <Gold.Chemscore.Lipo.Weighted>
-8.3243

> <Gold.Chemscore.Internal_Hbond.Weighted>
0.0000

> <Gold.Chemscore.DEClash.Weighted>
0.7973

> <Gold.Chemscore.DEInternal.Weighted>
3.4440

> <Gold.Chemscore.Rot.Weighted>
5.5499

> <Gold.Chemscore.Internal.Correction.Weighted>
   9.000000E+99

> <Gold.Protein.RotatedTorsions>
[ 6907 6896 6895 6894 ] final   41.12 input  -60.11 | X-H torsion
[ 7974 7965 7964 7962 ] final  -62.19 input  175.53 | X-H torsion
[ 8008 7997 7996 7995 ] final   55.98 input   59.86 | X-H torsion
[ 10167 10162 10161 10158 ] final  125.83 input  -65.29 | X-H torsion
[ 10718 10713 10712 10709 ] final   52.26 input   66.30 | X-H torsion
[ 10763 10752 10751 10750 ] final    0.01 input  -60.55 | X-H torsion
[ 11005 11000 10999 10996 ] final  -80.07 input  -57.11 | X-H torsion

> <Gold.Protein.ActiveResidues>
 VAL166  LYS551  ARG553  GLY616  TRP617  ASP618  TYR619  PRO620  LYS621  CYS622 
 ASP623  PHE694  ASN695  SER759  ASP760  ASP761  ALA762  ILE779  LEU786  VAL792 
 PHE793  MET794  SER795  GLU796  ALA797  LYS798  CYS799  TRP800  GLU811  SER814 

> <Gold.Protein.RotatedAtoms>
  152.1912  134.8670  160.0517 H   0  0  0  0  0  0  0  0  0  0  0  0  # atno 6907 bound_to 6896
  151.9558  133.3675  159.4025 H   0  0  0  0  0  0  0  0  0  0  0  0  # atno 6908 bound_to 6896
  150.6935  134.4216  159.5251 H   0  0  0  0  0  0  0  0  0  0  0  0  # atno 6909 bound_to 6896
  145.7943  140.8691  143.0264 H   0  0  0  0  0  0  0  0  0  0  0  0  # atno 7974 bound_to 7965
  155.5100  140.3477  155.4387 H   0  0  0  0  0  0  0  0  0  0  0  0  # atno 8008 bound_to 7997
  156.0856  140.1397  156.9685 H   0  0  0  0  0  0  0  0  0  0  0  0  # atno 8009 bound_to 7997
  154.4604  140.0937  156.6854 H   0  0  0  0  0  0  0  0  0  0  0  0  # atno 8010 bound_to 7997
  139.5664  144.6914  151.3898 H   0  0  0  0  0  0  0  0  0  0  0  0  # atno 10167 bound_to 10162
  157.5058  130.8468  149.8373 H   0  0  0  0  0  0  0  0  0  0  0  0  # atno 10718 bound_to 10713
  153.3261  135.6972  153.6988 H   0  0  0  0  0  0  0  0  0  0  0  0  # atno 10763 bound_to 10752
  153.5809  135.3498  155.2875 H   0  0  0  0  0  0  0  0  0  0  0  0  # atno 10764 bound_to 10752
  154.8608  135.4295  154.2438 H   0  0  0  0  0  0  0  0  0  0  0  0  # atno 10765 bound_to 10752
  141.1668  133.7133  156.8217 H   0  0  0  0  0  0  0  0  0  0  0  0  # atno 11005 bound_to 11000
  144.6777  140.0169  143.7484 LP  0  0  0  0  0  0  0  0  0  0  0  0  # atno 17320 bound_to 7965
  145.9944  139.3040  143.0965 LP  0  0  0  0  0  0  0  0  0  0  0  0  # atno 17321 bound_to 7965
  140.6948  143.7776  150.7309 LP  0  0  0  0  0  0  0  0  0  0  0  0  # atno 17342 bound_to 10162
  140.1269  143.4561  152.2278 LP  0  0  0  0  0  0  0  0  0  0  0  0  # atno 17343 bound_to 10162
  156.0257  130.3780  150.1829 LP  0  0  0  0  0  0  0  0  0  0  0  0  # atno 17370 bound_to 10713
  157.0019  130.9925  151.3389 LP  0  0  0  0  0  0  0  0  0  0  0  0  # atno 17371 bound_to 10713
  140.2114  134.8824  157.3279 LP  0  0  0  0  0  0  0  0  0  0  0  0  # atno 17394 bound_to 11000
  140.2082  134.4171  155.7626 LP  0  0  0  0  0  0  0  0  0  0  0  0  # atno 17395 bound_to 11000

$$$$
