AV-unprocessed.smi:412|AV-procd|sdf|2511|dock3
  -GOLD-   2262022463D 1   1.00000     0.00000
 Structure written by MMmdl.
 36 38  0  0  0  0  0  0  0  0  1 V2000
  154.2143  141.0689  160.3795 C   0  0  0  0  0  0  0  0  0  0  0  0
  153.0371  141.3307  159.5603 N   0  0  0  0  0  0  0  0  0  0  0  0
  152.3605  140.4416  158.7963 C   0  0  0  0  0  0  0  0  0  0  0  0
  152.6294  139.2477  158.6623 O   0  0  0  0  0  0  0  0  0  0  0  0
  151.3292  141.0930  158.2078 N   0  0  0  0  0  0  0  0  0  0  0  0
  150.3382  140.5127  157.3022 C   0  0  0  0  0  0  0  0  0  0  0  0
  150.6074  140.8938  155.8329 C   0  0  1  0  0  0  0  0  0  0  0  0
  151.7728  140.2199  155.3989 O   0  0  0  0  0  0  0  0  0  0  0  0
  149.4093  140.5612  154.9558 C   0  0  0  0  0  0  0  0  0  0  0  0
  148.6115  141.5875  154.4020 C   0  0  0  0  0  0  0  0  0  0  0  0
  147.5086  141.2682  153.5863 C   0  0  0  0  0  0  0  0  0  0  0  0
  147.2000  139.9217  153.3142 C   0  0  0  0  0  0  0  0  0  0  0  0
  147.9959  138.8948  153.8565 C   0  0  0  0  0  0  0  0  0  0  0  0
  149.0974  139.2136  154.6745 C   0  0  0  0  0  0  0  0  0  0  0  0
  151.3436  142.4359  158.6126 C   0  0  0  0  0  0  0  0  0  0  0  0
  150.4923  143.5098  158.2975 C   0  0  0  0  0  0  0  0  0  0  0  0
  150.7849  144.7617  158.8876 C   0  0  0  0  0  0  0  0  0  0  0  0
  151.8940  144.9133  159.7600 C   0  0  0  0  0  0  0  0  0  0  0  0
  152.7335  143.8154  160.0622 C   0  0  0  0  0  0  0  0  0  0  0  0
  152.4194  142.5838  159.4625 C   0  0  0  0  0  0  0  0  0  0  0  0
  154.5478  140.0334  160.3002 H   0  0  0  0  0  0  0  0  0  0  0  0
  153.9955  141.2724  161.4279 H   0  0  0  0  0  0  0  0  0  0  0  0
  155.0387  141.7122  160.0708 H   0  0  0  0  0  0  0  0  0  0  0  0
  150.2740  139.4309  157.4238 H   0  0  0  0  0  0  0  0  0  0  0  0
  149.3622  140.8989  157.6013 H   0  0  0  0  0  0  0  0  0  0  0  0
  150.7989  141.9649  155.7540 H   0  0  0  0  0  0  0  0  0  0  0  0
  152.1286  139.7376  156.1296 H   0  0  0  0  0  0  0  0  0  0  0  0
  148.8437  142.6238  154.5993 H   0  0  0  0  0  0  0  0  0  0  0  0
  146.9003  142.0566  153.1680 H   0  0  0  0  0  0  0  0  0  0  0  0
  146.3548  139.6767  152.6880 H   0  0  0  0  0  0  0  0  0  0  0  0
  147.7623  137.8618  153.6441 H   0  0  0  0  0  0  0  0  0  0  0  0
  149.7037  138.4183  155.0835 H   0  0  0  0  0  0  0  0  0  0  0  0
  149.6472  143.3897  157.6363 H   0  0  0  0  0  0  0  0  0  0  0  0
  150.1556  145.6125  158.6722 H   0  0  0  0  0  0  0  0  0  0  0  0
  152.0989  145.8782  160.1996 H   0  0  0  0  0  0  0  0  0  0  0  0
  153.5785  143.9216  160.7266 H   0  0  0  0  0  0  0  0  0  0  0  0
  1  2  1  0  0  0  0
  1 21  1  0  0  0  0
  1 22  1  0  0  0  0
  1 23  1  0  0  0  0
  2 20  1  0  0  0  0
  2  3  1  0  0  0  0
  3  4  2  0  0  0  0
  3  5  1  0  0  0  0
  5  6  1  0  0  0  0
  5 15  1  0  0  0  0
  6  7  1  0  0  0  0
  6 24  1  0  0  0  0
  6 25  1  0  0  0  0
  7  8  1  0  0  0  0
  7  9  1  0  0  0  0
  7 26  1  0  0  0  0
  8 27  1  0  0  0  0
  9 14  1  0  0  0  0
  9 10  2  0  0  0  0
 10 11  1  0  0  0  0
 10 28  1  0  0  0  0
 11 12  2  0  0  0  0
 11 29  1  0  0  0  0
 12 13  1  0  0  0  0
 12 30  1  0  0  0  0
 13 14  2  0  0  0  0
 13 31  1  0  0  0  0
 14 32  1  0  0  0  0
 15 20  2  0  0  0  0
 15 16  1  0  0  0  0
 16 17  2  0  0  0  0
 16 33  1  0  0  0  0
 17 18  1  0  0  0  0
 17 34  1  0  0  0  0
 18 19  2  0  0  0  0
 18 35  1  0  0  0  0
 19 20  1  0  0  0  0
 19 36  1  0  0  0  0
M  END
> <s_m_source_file>
AV-unprocessed.smi

> <i_m_source_file_index>
412

> <i_lp_mmshare_version>
43012

> <i_f3d_flags>
0

> <s_epik_input>
W2NIXTFbY0hdW2NIXVtjSF1jKGMxMiluKFtDSDNdKWMoPU8pbjJbQ0gyXVtDQEhdKFtPSF0pYzNbY0hdW2NIXVtjSF1bY0hdW2NIXTM=

> <s_epik_cmdline>
J2VwaWtfcHl0aG9uJywgJy1waCcsICc3LjAnLCAnLXRuJywgJzgnLCAnLW1hJywgJzIwMCcsICctbWV0YWxfYmluZGluZycsICctaW1hZScsICc8aW5maWxlLm1hZT4nLCAnLW9tYWUnLCAnPG91dGZpbGUubWFlPic=

> <r_lp_tautomer_probability>
1

> <r_epik_Ionization_Penalty>
1.34619e-06

> <r_epik_Ionization_Penalty_Charging>
2.57375e-09

> <r_epik_Ionization_Penalty_Neutral>
1.34362e-06

> <r_epik_State_Penalty>
-0

> <r_epik_Charging_Adjusted_Penalty>
2.57375e-09

> <i_epik_Tot_Q>
0

> <i_epik_Tot_abs_Q>
0

> <r_epik_Metal_State_Penalty>
-0

> <b_epik_Metal_Only>
0

> <s_lp_Force_Field>
OPLS_2005

> <r_lp_Energy>
43.5229

> <b_lp_Chiralities_Consistent>
1

> <s_lp_Variant>
AV-unprocessed.smi:412-2

> <Gold.Version>
5.8.1

> <Gold.Id.Protein>
6NUR|6NUR_protein|mol2

> <Gold.PLP.Fitness>
49.2226

> <Gold.PLP.PLP>
-47.6615

> <Gold.PLP.part.hbond>
-1.0000

> <Gold.PLP.part.metal>
0.0000

> <Gold.PLP.part.buried>
-4.9613

> <Gold.PLP.part.nonpolar>
-41.3458

> <Gold.PLP.part.repulsive>
0.0000

> <Gold.PLP.ligand.clash>
0.0000

> <Gold.PLP.ligand.torsion>
0.4734

> <Gold.PLP.Chemscore.Hbond>
0.8320

> <Gold.PLP.Chemscore.CHOScore>
0.0000

> <Gold.PLP.Chemscore.Metal>
0.0000

> <Gold.Chemscore.Hbonds>
donor molecule, donor type, donor heavy atom, donor atom, acceptor molecule, acceptor atom, score
      P1  H  7989  7998       L1     8  0.64

> <Gold.PLP.Chemscore.Internal.Correction>
0.0120

> <Gold.Rescore>
     Score         DG    S(hbond)    S(metal)    S(lipo)     H(rot)  DE(clash)    DE(int)     intcor
     17.97     -18.22       0.84        0.00     123.29       1.76       0.06       0.20       ----

> <Gold.Chemscore.Fitness>
17.9663

> <Gold.Chemscore.DG>
-18.2223

> <Gold.Chemscore.ZeroCoef>
-5.4800

> <Gold.Chemscore.Hbond>
0.8417

> <Gold.Chemscore.Metal>
0.0000

> <Gold.Chemscore.Lipo>
123.2926

> <Gold.Chemscore.Internal_Hbond>
0.0000

> <Gold.Chemscore.DEClash>
0.0607

> <Gold.Chemscore.DEInternal>
0.1953

> <Gold.Chemscore.Rot>
1.7555

> <Gold.Chemscore.Internal.Correction>
   9.000000E+99

> <Gold.Chemscore.Hbonds>
donor molecule, donor type, donor heavy atom, donor atom, acceptor molecule, acceptor atom, score
      P1  H  7989  7998       L1     8  0.07

> <Gold.Chemscore.Hbond.Weighted>
-2.8113

> <Gold.Chemscore.Metal.Weighted>
-0.0000

> <Gold.Chemscore.Lipo.Weighted>
-14.4252

> <Gold.Chemscore.Internal_Hbond.Weighted>
0.0000

> <Gold.Chemscore.DEClash.Weighted>
0.0607

> <Gold.Chemscore.DEInternal.Weighted>
0.1953

> <Gold.Chemscore.Rot.Weighted>
4.4942

> <Gold.Chemscore.Internal.Correction.Weighted>
   9.000000E+99

> <Gold.Protein.RotatedTorsions>
[ 6907 6896 6895 6894 ] final  -29.11 input  -60.11 | X-H torsion
[ 7974 7965 7964 7962 ] final -105.14 input  175.53 | X-H torsion
[ 8008 7997 7996 7995 ] final -135.50 input   59.86 | X-H torsion
[ 10167 10162 10161 10158 ] final  130.74 input  -65.29 | X-H torsion
[ 10718 10713 10712 10709 ] final   41.99 input   66.30 | X-H torsion
[ 10763 10752 10751 10750 ] final -143.11 input  -60.55 | X-H torsion
[ 11005 11000 10999 10996 ] final   91.54 input  -57.11 | X-H torsion

> <Gold.Protein.ActiveResidues>
 VAL166  LYS551  ARG553  GLY616  TRP617  ASP618  TYR619  PRO620  LYS621  CYS622 
 ASP623  PHE694  ASN695  SER759  ASP760  ASP761  ALA762  ILE779  LEU786  VAL792 
 PHE793  MET794  SER795  GLU796  ALA797  LYS798  CYS799  TRP800  GLU811  SER814 

> <Gold.Protein.RotatedAtoms>
  151.1237  135.0093  159.8549 H   0  0  0  0  0  0  0  0  0  0  0  0  # atno 6907 bound_to 6896
  152.5449  134.1693  159.8600 H   0  0  0  0  0  0  0  0  0  0  0  0  # atno 6908 bound_to 6896
  151.1753  133.4714  159.2627 H   0  0  0  0  0  0  0  0  0  0  0  0  # atno 6909 bound_to 6896
  145.2343  140.9182  143.3187 H   0  0  0  0  0  0  0  0  0  0  0  0  # atno 7974 bound_to 7965
  155.3798  140.0493  157.3044 H   0  0  0  0  0  0  0  0  0  0  0  0  # atno 8008 bound_to 7997
  154.5088  140.2184  155.9159 H   0  0  0  0  0  0  0  0  0  0  0  0  # atno 8009 bound_to 7997
  156.1558  140.3126  155.8729 H   0  0  0  0  0  0  0  0  0  0  0  0  # atno 8010 bound_to 7997
  139.5416  144.6735  151.4607 H   0  0  0  0  0  0  0  0  0  0  0  0  # atno 10167 bound_to 10162
  157.3998  130.7853  149.7339 H   0  0  0  0  0  0  0  0  0  0  0  0  # atno 10718 bound_to 10713
  154.8483  135.3477  154.6136 H   0  0  0  0  0  0  0  0  0  0  0  0  # atno 10763 bound_to 10752
  153.6744  135.6983  153.5142 H   0  0  0  0  0  0  0  0  0  0  0  0  # atno 10764 bound_to 10752
  153.2717  135.4291  155.0950 H   0  0  0  0  0  0  0  0  0  0  0  0  # atno 10765 bound_to 10752
  139.8837  134.8680  156.3443 H   0  0  0  0  0  0  0  0  0  0  0  0  # atno 11005 bound_to 11000
  144.9648  139.3942  143.6338 LP  0  0  0  0  0  0  0  0  0  0  0  0  # atno 17320 bound_to 7965
  146.3345  139.8718  142.8839 LP  0  0  0  0  0  0  0  0  0  0  0  0  # atno 17321 bound_to 7965
  140.6648  143.8422  150.6929 LP  0  0  0  0  0  0  0  0  0  0  0  0  # atno 17342 bound_to 10162
  140.1827  143.4101  152.1921 LP  0  0  0  0  0  0  0  0  0  0  0  0  # atno 17343 bound_to 10162
  155.9820  130.4014  150.3440 LP  0  0  0  0  0  0  0  0  0  0  0  0  # atno 17370 bound_to 10713
  157.1567  131.0334  151.2860 LP  0  0  0  0  0  0  0  0  0  0  0  0  # atno 17371 bound_to 10713
  140.9637  133.7372  156.0437 LP  0  0  0  0  0  0  0  0  0  0  0  0  # atno 17394 bound_to 11000
  140.7957  134.3566  157.5453 LP  0  0  0  0  0  0  0  0  0  0  0  0  # atno 17395 bound_to 11000

$$$$
