AV-unprocessed.smi:21|AV-procd|sdf|136|dock7
  -GOLD-   2262015333D 1   1.00000     0.00000
 Structure written by MMmdl.
 62 65  0  0  0  0  0  0  0  0  2 V2000
  144.7267  132.4788  150.7145 C   0  0  0  0  0  0  0  0  0  0  0  0
  145.5528  131.9517  151.7407 O   0  0  0  0  0  0  0  0  0  0  0  0
  146.6684  132.7721  152.0528 C   0  0  2  0  0  0  0  0  0  0  0  0
  147.5145  132.2288  153.1983 C   0  0  0  0  0  0  0  0  0  0  0  0
  148.2342  133.4690  153.7537 C   0  0  2  0  0  0  0  0  0  0  0  0
  148.6445  133.3449  155.2459 C   0  0  0  0  0  0  0  0  0  0  0  0
  149.8637  134.0826  155.5838 N   0  0  0  0  0  0  0  0  0  0  0  0
  151.0265  133.3083  156.0097 C   0  0  0  0  0  0  0  0  0  0  0  0
  149.7337  135.3511  156.0583 C   0  0  0  0  0  0  0  0  0  0  0  0
  148.6906  135.6436  156.8812 N   0  0  0  0  0  0  0  0  0  0  0  0
  148.4959  136.8914  157.3149 C   0  0  0  0  0  0  0  0  0  0  0  0
  149.2086  137.9856  157.0474 N   0  0  0  0  0  0  0  0  0  0  0  0
  150.2676  137.7017  156.2375 C   0  0  0  0  0  0  0  0  0  0  0  0
  150.6106  136.4218  155.7147 C   0  0  0  0  0  0  0  0  0  0  0  0
  151.7734  136.5229  154.9592 N   0  0  0  0  0  0  0  0  0  0  0  0
  152.0895  137.7869  155.0190 C   0  0  0  0  0  0  0  0  0  0  0  0
  151.2162  138.5750  155.7331 N   0  0  0  0  0  0  0  0  0  0  0  0
  151.3171  140.0093  155.9432 C   0  0  0  0  0  0  0  0  0  0  0  0
  151.5507  140.4359  157.4205 C   0  0  1  0  0  0  0  0  0  0  0  0
  152.2615  139.2873  158.1759 C   0  0  0  0  0  0  0  0  0  0  0  0
  153.6152  139.1762  157.7870 O   0  0  0  0  0  0  0  0  0  0  0  0
  152.3478  141.7653  157.5737 C   0  0  1  0  0  0  0  0  0  0  0  0
  151.6857  143.0295  157.0451 C   0  0  0  0  0  0  0  0  0  0  0  0
  152.4578  144.1224  157.7691 C   0  0  0  0  0  0  0  0  0  0  0  0
  152.6705  143.6028  159.0713 O   0  0  0  0  0  0  0  0  0  0  0  0
  152.6047  142.1802  159.0333 C   0  0  0  0  0  0  0  0  0  0  0  0
  147.3451  134.6230  153.4211 N   0  3  2  0  0  0  0  0  0  0  0  0
  146.9223  135.5167  154.5251 C   0  0  0  0  0  0  0  0  0  0  0  0
  146.2099  134.1120  152.6197 C   0  0  0  0  0  0  0  0  0  0  0  0
  147.2874  132.9433  151.1700 H   0  0  0  0  0  0  0  0  0  0  0  0
  149.1354  133.6287  153.1604 H   0  0  0  0  0  0  0  0  0  0  0  0
  143.8688  131.8232  150.5656 H   0  0  0  0  0  0  0  0  0  0  0  0
  145.2596  132.5460  149.7655 H   0  0  0  0  0  0  0  0  0  0  0  0
  144.3515  133.4686  150.9776 H   0  0  0  0  0  0  0  0  0  0  0  0
  146.8592  131.8017  153.9591 H   0  0  0  0  0  0  0  0  0  0  0  0
  148.2057  131.4506  152.8739 H   0  0  0  0  0  0  0  0  0  0  0  0
  147.8565  133.7556  155.8770 H   0  0  0  0  0  0  0  0  0  0  0  0
  148.7254  132.2979  155.5283 H   0  0  0  0  0  0  0  0  0  0  0  0
  151.9445  133.8809  155.8715 H   0  0  0  0  0  0  0  0  0  0  0  0
  151.1160  132.3940  155.4226 H   0  0  0  0  0  0  0  0  0  0  0  0
  150.9465  133.0294  157.0610 H   0  0  0  0  0  0  0  0  0  0  0  0
  147.6415  137.0353  157.9600 H   0  0  0  0  0  0  0  0  0  0  0  0
  152.9606  138.1855  154.5192 H   0  0  0  0  0  0  0  0  0  0  0  0
  152.1343  140.3556  155.3105 H   0  0  0  0  0  0  0  0  0  0  0  0
  150.4145  140.4852  155.5579 H   0  0  0  0  0  0  0  0  0  0  0  0
  150.5822  140.5795  157.9003 H   0  0  0  0  0  0  0  0  0  0  0  0
  152.2067  139.4404  159.2543 H   0  0  0  0  0  0  0  0  0  0  0  0
  151.7978  138.3237  157.9688 H   0  0  0  0  0  0  0  0  0  0  0  0
  154.0429  138.5557  158.3575 H   0  0  0  0  0  0  0  0  0  0  0  0
  153.3124  141.6587  157.0747 H   0  0  0  0  0  0  0  0  0  0  0  0
  151.7665  143.1452  155.9659 H   0  0  0  0  0  0  0  0  0  0  0  0
  150.6312  143.0621  157.3232 H   0  0  0  0  0  0  0  0  0  0  0  0
  153.4253  144.2858  157.2922 H   0  0  0  0  0  0  0  0  0  0  0  0
  151.9271  145.0732  157.7944 H   0  0  0  0  0  0  0  0  0  0  0  0
  151.7841  141.8683  159.6811 H   0  0  0  0  0  0  0  0  0  0  0  0
  153.5246  141.7448  159.4248 H   0  0  0  0  0  0  0  0  0  0  0  0
  146.3525  134.9766  155.2821 H   0  0  0  0  0  0  0  0  0  0  0  0
  146.2886  136.3146  154.1363 H   0  0  0  0  0  0  0  0  0  0  0  0
  147.7814  135.9911  154.9992 H   0  0  0  0  0  0  0  0  0  0  0  0
  145.9141  134.8175  151.8427 H   0  0  0  0  0  0  0  0  0  0  0  0
  145.3483  133.9525  153.2710 H   0  0  0  0  0  0  0  0  0  0  0  0
  147.8881  135.1983  152.7928 H   0  0  0  0  0  0  0  0  0  0  0  0
  1  2  1  0  0  0  0
  1 32  1  0  0  0  0
  1 33  1  0  0  0  0
  1 34  1  0  0  0  0
  2  3  1  0  0  0  0
  3 30  1  0  0  0  0
  3 29  1  0  0  0  0
  3  4  1  0  0  0  0
  4  5  1  0  0  0  0
  4 35  1  0  0  0  0
  4 36  1  0  0  0  0
  5 31  1  0  0  0  0
  5  6  1  0  0  0  0
  5 27  1  0  0  0  0
  6  7  1  0  0  0  0
  6 37  1  0  0  0  0
  6 38  1  0  0  0  0
  7  8  1  0  0  0  0
  7  9  1  0  0  0  0
  8 39  1  0  0  0  0
  8 40  1  0  0  0  0
  8 41  1  0  0  0  0
  9 14  1  0  0  0  0
  9 10  2  0  0  0  0
 10 11  1  0  0  0  0
 11 12  2  0  0  0  0
 11 42  1  0  0  0  0
 12 13  1  0  0  0  0
 13 17  1  0  0  0  0
 13 14  2  0  0  0  0
 14 15  1  0  0  0  0
 15 16  2  0  0  0  0
 16 17  1  0  0  0  0
 16 43  1  0  0  0  0
 17 18  1  0  0  0  0
 18 19  1  0  0  0  0
 18 44  1  0  0  0  0
 18 45  1  0  0  0  0
 19 20  1  0  0  0  0
 19 22  1  0  0  0  0
 19 46  1  0  0  0  0
 20 21  1  0  0  0  0
 20 47  1  0  0  0  0
 20 48  1  0  0  0  0
 21 49  1  0  0  0  0
 22 26  1  0  0  0  0
 22 23  1  0  0  0  0
 22 50  1  0  0  0  0
 23 24  1  0  0  0  0
 23 51  1  0  0  0  0
 23 52  1  0  0  0  0
 24 25  1  0  0  0  0
 24 53  1  0  0  0  0
 24 54  1  0  0  0  0
 25 26  1  0  0  0  0
 26 55  1  0  0  0  0
 26 56  1  0  0  0  0
 27 28  1  0  0  0  0
 27 29  1  0  0  0  0
 27 62  1  0  0  0  0
 28 57  1  0  0  0  0
 28 58  1  0  0  0  0
 28 59  1  0  0  0  0
 29 60  1  0  0  0  0
 29 61  1  0  0  0  0
M  CHG  1  27   1
M  END
> <s_m_source_file>
AV-unprocessed.smi

> <i_m_source_file_index>
21

> <i_lp_mmshare_version>
43012

> <i_f3d_flags>
0

> <s_epik_input>
W0NIM11PW0NASF0xW0NIMl1bQ0BIXShOKFtDSDNdKVtDSDJdMSlbQ0gyXU4oW0NIM10pYyhuW2NIXW4yKWMoYzIzKW5bY0hdbjNbQ0gyXVtDQEhdKFtDSDJdW09IXSlbQ0BASF00W0NIMl1bQ0gyXU9bQ0gyXTQ=

> <s_epik_cmdline>
J2VwaWtfcHl0aG9uJywgJy1waCcsICc3LjAnLCAnLXRuJywgJzgnLCAnLW1hJywgJzIwMCcsICctbWV0YWxfYmluZGluZycsICctaW1hZScsICc8aW5maWxlLm1hZT4nLCAnLW9tYWUnLCAnPG91dGZpbGUubWFlPic=

> <r_lp_tautomer_probability>
1

> <r_epik_Ionization_Penalty>
0.0157465

> <r_epik_Ionization_Penalty_Charging>
0.015354

> <r_epik_Ionization_Penalty_Neutral>
0.000392529

> <r_epik_State_Penalty>
0.0120612

> <r_epik_Charging_Adjusted_Penalty>
0.0274152

> <i_epik_Tot_Q>
1

> <i_epik_Tot_abs_Q>
1

> <r_epik_Metal_State_Penalty>
0.0121253

> <b_epik_Metal_Only>
0

> <s_lp_Force_Field>
OPLS_2005

> <r_lp_Energy>
61.1925

> <b_lp_Chiralities_Consistent>
1

> <s_lp_Variant>
AV-unprocessed.smi:21-16

> <Gold.Version>
5.8.1

> <Gold.Id.Protein>
6NUR|6NUR_protein|mol2

> <Gold.PLP.Fitness>
52.8694

> <Gold.PLP.PLP>
-43.7740

> <Gold.PLP.part.hbond>
-3.0000

> <Gold.PLP.part.metal>
0.0000

> <Gold.PLP.part.buried>
-7.3392

> <Gold.PLP.part.nonpolar>
-33.9232

> <Gold.PLP.part.repulsive>
0.2286

> <Gold.PLP.ligand.clash>
0.0000

> <Gold.PLP.ligand.torsion>
1.9863

> <Gold.PLP.Chemscore.Hbond>
4.0000

> <Gold.PLP.Chemscore.CHOScore>
0.0000

> <Gold.PLP.Chemscore.Metal>
0.0000

> <Gold.Chemscore.Hbonds>
donor molecule, donor type, donor heavy atom, donor atom, acceptor molecule, acceptor atom, score
      L1  H    27    62       P1  7948  2.00
      P1  H  7997  8010       L1    21  1.00
      P1  H 10752 10764       L1    15  1.00

> <Gold.PLP.Chemscore.Internal.Correction>
1.0680

> <Gold.Rescore>
     Score         DG    S(hbond)    S(metal)    S(lipo)     H(rot)  DE(clash)    DE(int)     intcor
     17.11     -19.16       2.91        0.00     101.05       3.08       0.00       2.05       ----

> <Gold.Chemscore.Fitness>
17.1058

> <Gold.Chemscore.DG>
-19.1599

> <Gold.Chemscore.ZeroCoef>
-5.4800

> <Gold.Chemscore.Hbond>
2.9135

> <Gold.Chemscore.Metal>
0.0000

> <Gold.Chemscore.Lipo>
101.0514

> <Gold.Chemscore.Internal_Hbond>
0.0000

> <Gold.Chemscore.DEClash>
0.0000

> <Gold.Chemscore.DEInternal>
2.0541

> <Gold.Chemscore.Rot>
3.0758

> <Gold.Chemscore.Internal.Correction>
   9.000000E+99

> <Gold.Chemscore.Hbonds>
donor molecule, donor type, donor heavy atom, donor atom, acceptor molecule, acceptor atom, score
      L1  H    27    62       P1  7948  1.00
      P1  H  7997  8010       L1    21  0.90
      P1  H 10752 10764       L1    15  0.85

> <Gold.Chemscore.Hbond.Weighted>
-9.7311

> <Gold.Chemscore.Metal.Weighted>
-0.0000

> <Gold.Chemscore.Lipo.Weighted>
-11.8230

> <Gold.Chemscore.Internal_Hbond.Weighted>
0.0000

> <Gold.Chemscore.DEClash.Weighted>
0.0000

> <Gold.Chemscore.DEInternal.Weighted>
2.0541

> <Gold.Chemscore.Rot.Weighted>
7.8741

> <Gold.Chemscore.Internal.Correction.Weighted>
   9.000000E+99

> <Gold.Protein.RotatedTorsions>
[ 6907 6896 6895 6894 ] final   60.18 input  -60.11 | X-H torsion
[ 7974 7965 7964 7962 ] final  -43.59 input  175.53 | X-H torsion
[ 8008 7997 7996 7995 ] final   47.44 input   59.86 | X-H torsion
[ 10167 10162 10161 10158 ] final  104.38 input  -65.29 | X-H torsion
[ 10718 10713 10712 10709 ] final   -6.71 input   66.30 | X-H torsion
[ 10763 10752 10751 10750 ] final  -53.78 input  -60.55 | X-H torsion
[ 11005 11000 10999 10996 ] final   -4.63 input  -57.11 | X-H torsion

> <Gold.Protein.ActiveResidues>
 VAL166  LYS551  ARG553  GLY616  TRP617  ASP618  TYR619  PRO620  LYS621  CYS622 
 ASP623  PHE694  ASN695  SER759  ASP760  ASP761  ALA762  ILE779  LEU786  VAL792 
 PHE793  MET794  SER795  GLU796  ALA797  LYS798  CYS799  TRP800  GLU811  SER814 

> <Gold.Protein.RotatedAtoms>
  152.3980  134.6333  160.0080 H   0  0  0  0  0  0  0  0  0  0  0  0  # atno 6907 bound_to 6896
  151.6547  133.3314  159.3168 H   0  0  0  0  0  0  0  0  0  0  0  0  # atno 6908 bound_to 6896
  150.7885  134.6932  159.6553 H   0  0  0  0  0  0  0  0  0  0  0  0  # atno 6909 bound_to 6896
  146.0003  140.7081  142.9273 H   0  0  0  0  0  0  0  0  0  0  0  0  # atno 7974 bound_to 7965
  155.3692  140.3423  155.4243 H   0  0  0  0  0  0  0  0  0  0  0  0  # atno 8008 bound_to 7997
  156.1672  140.1620  156.8545 H   0  0  0  0  0  0  0  0  0  0  0  0  # atno 8009 bound_to 7997
  154.5197  140.0770  156.8130 H   0  0  0  0  0  0  0  0  0  0  0  0  # atno 8010 bound_to 7997
  139.7182  144.7064  151.0916 H   0  0  0  0  0  0  0  0  0  0  0  0  # atno 10167 bound_to 10162
  156.7279  130.5171  149.5852 H   0  0  0  0  0  0  0  0  0  0  0  0  # atno 10718 bound_to 10713
  154.1643  135.6469  153.4993 H   0  0  0  0  0  0  0  0  0  0  0  0  # atno 10763 bound_to 10752
  153.0102  135.5368  154.6678 H   0  0  0  0  0  0  0  0  0  0  0  0  # atno 10764 bound_to 10752
  154.6000  135.2943  155.0517 H   0  0  0  0  0  0  0  0  0  0  0  0  # atno 10765 bound_to 10752
  140.6824  133.9142  155.8564 H   0  0  0  0  0  0  0  0  0  0  0  0  # atno 11005 bound_to 11000
  144.6917  140.3222  143.7230 LP  0  0  0  0  0  0  0  0  0  0  0  0  # atno 17320 bound_to 7965
  145.7497  139.1790  143.2329 LP  0  0  0  0  0  0  0  0  0  0  0  0  # atno 17321 bound_to 7965
  140.7748  143.5202  150.9546 LP  0  0  0  0  0  0  0  0  0  0  0  0  # atno 17342 bound_to 10162
  139.8888  143.6979  152.3148 LP  0  0  0  0  0  0  0  0  0  0  0  0  # atno 17343 bound_to 10162
  156.1549  130.6335  151.0644 LP  0  0  0  0  0  0  0  0  0  0  0  0  # atno 17370 bound_to 10713
  157.6871  131.0821  150.7212 LP  0  0  0  0  0  0  0  0  0  0  0  0  # atno 17371 bound_to 10713
  141.0307  134.0760  157.4017 LP  0  0  0  0  0  0  0  0  0  0  0  0  # atno 17394 bound_to 11000
  139.8948  135.0137  156.6968 LP  0  0  0  0  0  0  0  0  0  0  0  0  # atno 17395 bound_to 11000

$$$$
