AV-unprocessed.smi:2012|AV-procd|sdf|8156|dock10
  -GOLD-   2272010403D 1   1.00000     0.00000
 Structure written by MMmdl.
 50 51  0  0  0  0  0  0  0  0  1 V2000
  148.0951  127.4517  151.0152 C   0  0  0  0  0  0  0  0  0  0  0  0
  147.2270  128.2346  151.9945 C   0  0  0  0  0  0  0  0  0  0  0  0
  146.6849  127.6476  152.9291 O   0  0  0  0  0  0  0  0  0  0  0  0
  147.0999  129.5515  151.7509 N   0  0  0  0  0  0  0  0  0  0  0  0
  146.3651  130.5656  152.5204 C   0  0  1  0  0  0  0  0  0  0  0  0
  146.9699  130.7436  153.9245 C   0  0  0  0  0  0  0  0  0  0  0  0
  148.1410  131.0994  154.0582 O   0  0  0  0  0  0  0  0  0  0  0  0
  146.1503  130.5222  154.9645 N   0  0  0  0  0  0  0  0  0  0  0  0
  146.5178  130.6940  156.3656 C   0  0  0  0  0  0  0  0  0  0  0  0
  146.1426  132.0589  156.9208 C   0  0  0  0  0  0  0  0  0  0  0  0
  145.6533  133.0649  156.0665 C   0  0  0  0  0  0  0  0  0  0  0  0
  145.3129  134.3080  156.6283 C   0  0  0  0  0  0  0  0  0  0  0  0
  145.4355  134.5837  157.9433 N   0  0  0  0  0  0  0  0  0  0  0  0
  145.9125  133.6298  158.7802 C   0  0  0  0  0  0  0  0  0  0  0  0
  146.0077  133.9732  160.1499 N   0  0  0  0  0  0  0  0  0  0  0  0
  145.1006  133.3338  161.1008 C   0  0  0  0  0  0  0  0  0  0  0  0
  145.1198  134.0667  162.4525 C   0  0  0  0  0  0  0  0  0  0  0  0
  146.4557  134.1611  162.9319 O   0  0  0  0  0  0  0  0  0  0  0  0
  147.2743  134.9184  162.0488 C   0  0  0  0  0  0  0  0  0  0  0  0
  147.3491  134.2213  160.6799 C   0  0  0  0  0  0  0  0  0  0  0  0
  146.2822  132.3487  158.2955 C   0  0  0  0  0  0  0  0  0  0  0  0
  146.0801  131.8868  151.7385 C   0  0  0  0  0  0  0  0  0  0  0  0
  145.3242  132.9320  152.5823 C   0  0  0  0  0  0  0  0  0  0  0  0
  145.3041  131.6293  150.4325 C   0  0  0  0  0  0  0  0  0  0  0  0
  148.8338  128.0964  150.5374 H   0  0  0  0  0  0  0  0  0  0  0  0
  147.4740  127.0043  150.2390 H   0  0  0  0  0  0  0  0  0  0  0  0
  148.6272  126.6528  151.5325 H   0  0  0  0  0  0  0  0  0  0  0  0
  147.5847  129.9011  150.9376 H   0  0  0  0  0  0  0  0  0  0  0  0
  145.3897  130.1017  152.6769 H   0  0  0  0  0  0  0  0  0  0  0  0
  145.2004  130.2402  154.7717 H   0  0  0  0  0  0  0  0  0  0  0  0
  146.0009  129.9331  156.9505 H   0  0  0  0  0  0  0  0  0  0  0  0
  147.5859  130.5119  156.4964 H   0  0  0  0  0  0  0  0  0  0  0  0
  145.5340  132.8904  155.0073 H   0  0  0  0  0  0  0  0  0  0  0  0
  144.9302  135.1031  156.0058 H   0  0  0  0  0  0  0  0  0  0  0  0
  144.0791  133.3468  160.7218 H   0  0  0  0  0  0  0  0  0  0  0  0
  145.3932  132.2914  161.2326 H   0  0  0  0  0  0  0  0  0  0  0  0
  144.6832  135.0626  162.3605 H   0  0  0  0  0  0  0  0  0  0  0  0
  144.5184  133.5232  163.1813 H   0  0  0  0  0  0  0  0  0  0  0  0
  146.8811  135.9314  161.9480 H   0  0  0  0  0  0  0  0  0  0  0  0
  148.2721  135.0071  162.4786 H   0  0  0  0  0  0  0  0  0  0  0  0
  147.8709  133.2684  160.7729 H   0  0  0  0  0  0  0  0  0  0  0  0
  147.9401  134.8448  160.0096 H   0  0  0  0  0  0  0  0  0  0  0  0
  146.6732  131.5832  158.9479 H   0  0  0  0  0  0  0  0  0  0  0  0
  147.0279  132.3517  151.4693 H   0  0  0  0  0  0  0  0  0  0  0  0
  144.3854  132.5306  152.9653 H   0  0  0  0  0  0  0  0  0  0  0  0
  145.0892  133.8185  151.9927 H   0  0  0  0  0  0  0  0  0  0  0  0
  145.9179  133.2702  153.4314 H   0  0  0  0  0  0  0  0  0  0  0  0
  144.3399  131.1609  150.6317 H   0  0  0  0  0  0  0  0  0  0  0  0
  145.8548  130.9802  149.7523 H   0  0  0  0  0  0  0  0  0  0  0  0
  145.1152  132.5609  149.8983 H   0  0  0  0  0  0  0  0  0  0  0  0
  1  2  1  0  0  0  0
  1 25  1  0  0  0  0
  1 26  1  0  0  0  0
  1 27  1  0  0  0  0
  2  3  2  0  0  0  0
  2  4  1  0  0  0  0
  4  5  1  0  0  0  0
  4 28  1  0  0  0  0
  5  6  1  0  0  0  0
  5 22  1  0  0  0  0
  5 29  1  0  0  0  0
  6  7  2  0  0  0  0
  6  8  1  0  0  0  0
  8  9  1  0  0  0  0
  8 30  1  0  0  0  0
  9 10  1  0  0  0  0
  9 31  1  0  0  0  0
  9 32  1  0  0  0  0
 10 21  1  0  0  0  0
 10 11  2  0  0  0  0
 11 12  1  0  0  0  0
 11 33  1  0  0  0  0
 12 13  2  0  0  0  0
 12 34  1  0  0  0  0
 13 14  1  0  0  0  0
 14 15  1  0  0  0  0
 14 21  2  0  0  0  0
 15 20  1  0  0  0  0
 15 16  1  0  0  0  0
 16 17  1  0  0  0  0
 16 35  1  0  0  0  0
 16 36  1  0  0  0  0
 17 18  1  0  0  0  0
 17 37  1  0  0  0  0
 17 38  1  0  0  0  0
 18 19  1  0  0  0  0
 19 20  1  0  0  0  0
 19 39  1  0  0  0  0
 19 40  1  0  0  0  0
 20 41  1  0  0  0  0
 20 42  1  0  0  0  0
 21 43  1  0  0  0  0
 22 23  1  0  0  0  0
 22 24  1  0  0  0  0
 22 44  1  0  0  0  0
 23 45  1  0  0  0  0
 23 46  1  0  0  0  0
 23 47  1  0  0  0  0
 24 48  1  0  0  0  0
 24 49  1  0  0  0  0
 24 50  1  0  0  0  0
M  END
> <s_m_source_file>
AV-unprocessed.smi

> <i_m_source_file_index>
2012

> <i_lp_mmshare_version>
43012

> <i_f3d_flags>
0

> <s_epik_input>
W0NIM11DKD1PKVtOSF1bQ0BASF0oW0NIXShbQ0gzXSlbQ0gzXSlDKD1PKVtOSF1bQ0gyXWMxW2NIXVtjSF1uYyhbY0hdMSlOMltDSDJdW0NIMl1PW0NIMl1bQ0gyXTI=

> <s_epik_cmdline>
J2VwaWtfcHl0aG9uJywgJy1waCcsICc3LjAnLCAnLXRuJywgJzgnLCAnLW1hJywgJzIwMCcsICctbWV0YWxfYmluZGluZycsICctaW1hZScsICc8aW5maWxlLm1hZT4nLCAnLW9tYWUnLCAnPG91dGZpbGUubWFlPic=

> <r_lp_tautomer_probability>
1

> <r_epik_Ionization_Penalty>
0.00518786

> <r_epik_Ionization_Penalty_Charging>
0

> <r_epik_Ionization_Penalty_Neutral>
0.00518786

> <r_epik_State_Penalty>
0.00378052

> <r_epik_Charging_Adjusted_Penalty>
0.00378052

> <i_epik_Tot_Q>
0

> <i_epik_Tot_abs_Q>
0

> <r_epik_Metal_State_Penalty>
-0

> <b_epik_Metal_Only>
0

> <s_lp_Force_Field>
OPLS_2005

> <r_lp_Energy>
18.0004

> <b_lp_Chiralities_Consistent>
1

> <s_lp_Variant>
AV-unprocessed.smi:2012-2

> <Gold.Version>
5.8.1

> <Gold.Id.Protein>
6NUR|6NUR_protein|mol2

> <Gold.PLP.Fitness>
38.0407

> <Gold.PLP.PLP>
-32.9312

> <Gold.PLP.part.hbond>
-3.0000

> <Gold.PLP.part.metal>
0.0000

> <Gold.PLP.part.buried>
-7.1877

> <Gold.PLP.part.nonpolar>
-23.7256

> <Gold.PLP.part.repulsive>
0.1582

> <Gold.PLP.ligand.clash>
0.0000

> <Gold.PLP.ligand.torsion>
0.8095

> <Gold.PLP.Chemscore.Hbond>
1.9600

> <Gold.PLP.Chemscore.CHOScore>
0.0000

> <Gold.PLP.Chemscore.Metal>
0.0000

> <Gold.Chemscore.Hbonds>
donor molecule, donor type, donor heavy atom, donor atom, acceptor molecule, acceptor atom, score
      L1  H     4    28       P1 10747  0.96
      L1  H     8    30       P1 10956  0.99

> <Gold.PLP.Chemscore.Internal.Correction>
0.8485

> <Gold.Rescore>
     Score         DG    S(hbond)    S(metal)    S(lipo)     H(rot)  DE(clash)    DE(int)     intcor
     13.22     -14.03       1.82        0.00      68.77       2.18       0.00       0.81       ----

> <Gold.Chemscore.Fitness>
13.2154

> <Gold.Chemscore.DG>
-14.0296

> <Gold.Chemscore.ZeroCoef>
-5.4800

> <Gold.Chemscore.Hbond>
1.8227

> <Gold.Chemscore.Metal>
0.0000

> <Gold.Chemscore.Lipo>
68.7680

> <Gold.Chemscore.Internal_Hbond>
0.0000

> <Gold.Chemscore.DEClash>
0.0015

> <Gold.Chemscore.DEInternal>
0.8127

> <Gold.Chemscore.Rot>
2.1813

> <Gold.Chemscore.Internal.Correction>
   9.000000E+99

> <Gold.Chemscore.Hbonds>
donor molecule, donor type, donor heavy atom, donor atom, acceptor molecule, acceptor atom, score
      L1  H     4    28       P1 10747  0.92
      L1  H     8    30       P1 10956  0.41

> <Gold.Chemscore.Hbond.Weighted>
-6.0879

> <Gold.Chemscore.Metal.Weighted>
-0.0000

> <Gold.Chemscore.Lipo.Weighted>
-8.0459

> <Gold.Chemscore.Internal_Hbond.Weighted>
0.0000

> <Gold.Chemscore.DEClash.Weighted>
0.0015

> <Gold.Chemscore.DEInternal.Weighted>
0.8127

> <Gold.Chemscore.Rot.Weighted>
5.5842

> <Gold.Chemscore.Internal.Correction.Weighted>
   9.000000E+99

> <Gold.Protein.RotatedTorsions>
[ 6907 6896 6895 6894 ] final  171.85 input  -60.11 | X-H torsion
[ 7974 7965 7964 7962 ] final  115.58 input  175.53 | X-H torsion
[ 8008 7997 7996 7995 ] final  -30.40 input   59.86 | X-H torsion
[ 10167 10162 10161 10158 ] final  152.56 input  -65.29 | X-H torsion
[ 10718 10713 10712 10709 ] final  132.87 input   66.30 | X-H torsion
[ 10763 10752 10751 10750 ] final  102.68 input  -60.55 | X-H torsion
[ 11005 11000 10999 10996 ] final   86.29 input  -57.11 | X-H torsion

> <Gold.Protein.ActiveResidues>
 VAL166  LYS551  ARG553  GLY616  TRP617  ASP618  TYR619  PRO620  LYS621  CYS622 
 ASP623  PHE694  ASN695  SER759  ASP760  ASP761  ALA762  ILE779  LEU786  VAL792 
 PHE793  MET794  SER795  GLU796  ALA797  LYS798  CYS799  TRP800  GLU811  SER814 

> <Gold.Protein.RotatedAtoms>
  151.7936  133.3362  159.3506 H   0  0  0  0  0  0  0  0  0  0  0  0  # atno 6907 bound_to 6896
  150.7383  134.5819  159.5952 H   0  0  0  0  0  0  0  0  0  0  0  0  # atno 6908 bound_to 6896
  152.3192  134.7402  160.0369 H   0  0  0  0  0  0  0  0  0  0  0  0  # atno 6909 bound_to 6896
  145.1902  139.3004  143.4372 H   0  0  0  0  0  0  0  0  0  0  0  0  # atno 7974 bound_to 7965
  154.4252  140.1792  156.1401 H   0  0  0  0  0  0  0  0  0  0  0  0  # atno 8008 bound_to 7997
  155.9999  140.3361  155.6810 H   0  0  0  0  0  0  0  0  0  0  0  0  # atno 8009 bound_to 7997
  155.6257  140.0664  157.2655 H   0  0  0  0  0  0  0  0  0  0  0  0  # atno 8010 bound_to 7997
  139.4832  144.5348  151.7663 H   0  0  0  0  0  0  0  0  0  0  0  0  # atno 10167 bound_to 10162
  157.4829  131.1086  150.9658 H   0  0  0  0  0  0  0  0  0  0  0  0  # atno 10718 bound_to 10713
  153.3428  135.4002  155.1585 H   0  0  0  0  0  0  0  0  0  0  0  0  # atno 10763 bound_to 10752
  154.8647  135.3637  154.5324 H   0  0  0  0  0  0  0  0  0  0  0  0  # atno 10764 bound_to 10752
  153.5770  135.7077  153.5539 H   0  0  0  0  0  0  0  0  0  0  0  0  # atno 10765 bound_to 10752
  139.8948  134.8345  156.2700 H   0  0  0  0  0  0  0  0  0  0  0  0  # atno 11005 bound_to 11000
  146.3437  140.2112  142.8590 LP  0  0  0  0  0  0  0  0  0  0  0  0  # atno 17320 bound_to 7965
  145.0049  140.8664  143.5259 LP  0  0  0  0  0  0  0  0  0  0  0  0  # atno 17321 bound_to 7965
  140.4879  144.1354  150.5944 LP  0  0  0  0  0  0  0  0  0  0  0  0  # atno 17342 bound_to 10162
  140.4204  143.2614  151.9722 LP  0  0  0  0  0  0  0  0  0  0  0  0  # atno 17343 bound_to 10162
  157.0386  130.5740  149.5353 LP  0  0  0  0  0  0  0  0  0  0  0  0  # atno 17370 bound_to 10713
  156.0131  130.5224  150.8050 LP  0  0  0  0  0  0  0  0  0  0  0  0  # atno 17371 bound_to 10713
  141.0107  133.7097  156.1106 LP  0  0  0  0  0  0  0  0  0  0  0  0  # atno 17394 bound_to 11000
  140.7372  134.4190  157.5559 LP  0  0  0  0  0  0  0  0  0  0  0  0  # atno 17395 bound_to 11000

$$$$
