AV-unprocessed.smi:1766|AV-procd|sdf|7136|dock2
  -GOLD-   22720 8373D 1   1.00000     0.00000
 Structure written by MMmdl.
 39 41  0  0  0  0  0  0  0  0  1 V2000
  153.7926  138.3201  161.4978 N   0  0  0  0  0  0  0  0  0  0  0  0
  153.2899  137.8633  160.3476 C   0  0  0  0  0  0  0  0  0  0  0  0
  152.5035  136.9196  160.3069 O   0  0  0  0  0  0  0  0  0  0  0  0
  153.7301  138.5706  159.0606 C   0  0  0  0  0  0  0  0  0  0  0  0
  153.2168  139.9870  159.0804 C   0  0  0  0  0  0  0  0  0  0  0  0
  153.7037  140.8952  159.9301 N   0  0  0  0  0  0  0  0  0  0  0  0
  152.9833  142.0299  159.6171 C   0  0  0  0  0  0  0  0  0  0  0  0
  153.0472  143.3349  160.1556 C   0  0  0  0  0  0  0  0  0  0  0  0
  152.2006  144.3511  159.6667 C   0  0  0  0  0  0  0  0  0  0  0  0
  151.2789  144.0767  158.6357 C   0  0  0  0  0  0  0  0  0  0  0  0
  151.1973  142.7821  158.0884 C   0  0  0  0  0  0  0  0  0  0  0  0
  152.0467  141.7711  158.5781 C   0  0  0  0  0  0  0  0  0  0  0  0
  152.2236  140.4262  158.2618 N   0  0  0  0  0  0  0  0  0  0  0  0
  151.4767  139.6871  157.2505 C   0  0  0  0  0  0  0  0  0  0  0  0
  151.5070  140.3714  155.8693 C   0  0  1  0  0  0  0  0  0  0  0  0
  152.5936  139.8423  155.1376 O   0  0  0  0  0  0  0  0  0  0  0  0
  150.1857  140.2290  155.1259 C   0  0  0  0  0  0  0  0  0  0  0  0
  149.7072  138.9462  154.7818 C   0  0  0  0  0  0  0  0  0  0  0  0
  148.5031  138.8056  154.0653 C   0  0  0  0  0  0  0  0  0  0  0  0
  147.7692  139.9469  153.6897 C   0  0  0  0  0  0  0  0  0  0  0  0
  146.6124  139.8117  152.9992 F   0  0  0  0  0  0  0  0  0  0  0  0
  148.2401  141.2291  154.0307 C   0  0  0  0  0  0  0  0  0  0  0  0
  149.4452  141.3704  154.7458 C   0  0  0  0  0  0  0  0  0  0  0  0
  153.5353  137.8771  162.3679 H   0  0  0  0  0  0  0  0  0  0  0  0
  154.4341  139.0999  161.4945 H   0  0  0  0  0  0  0  0  0  0  0  0
  154.8150  138.5311  158.9847 H   0  0  0  0  0  0  0  0  0  0  0  0
  153.3312  138.0583  158.1840 H   0  0  0  0  0  0  0  0  0  0  0  0
  153.7511  143.5550  160.9445 H   0  0  0  0  0  0  0  0  0  0  0  0
  152.2589  145.3455  160.0839 H   0  0  0  0  0  0  0  0  0  0  0  0
  150.6354  144.8608  158.2647 H   0  0  0  0  0  0  0  0  0  0  0  0
  150.4939  142.5722  157.2966 H   0  0  0  0  0  0  0  0  0  0  0  0
  151.8743  138.6740  157.1915 H   0  0  0  0  0  0  0  0  0  0  0  0
  150.4465  139.5751  157.5901 H   0  0  0  0  0  0  0  0  0  0  0  0
  151.7199  141.4315  155.9981 H   0  0  0  0  0  0  0  0  0  0  0  0
  152.3127  139.0394  154.7259 H   0  0  0  0  0  0  0  0  0  0  0  0
  150.2684  138.0649  155.0560 H   0  0  0  0  0  0  0  0  0  0  0  0
  148.1446  137.8217  153.8013 H   0  0  0  0  0  0  0  0  0  0  0  0
  147.6790  142.1051  153.7403 H   0  0  0  0  0  0  0  0  0  0  0  0
  149.8042  142.3588  154.9929 H   0  0  0  0  0  0  0  0  0  0  0  0
  1  2  1  0  0  0  0
  1 24  1  0  0  0  0
  1 25  1  0  0  0  0
  2  3  2  0  0  0  0
  2  4  1  0  0  0  0
  4  5  1  0  0  0  0
  4 26  1  0  0  0  0
  4 27  1  0  0  0  0
  5 13  1  0  0  0  0
  5  6  2  0  0  0  0
  6  7  1  0  0  0  0
  7 12  2  0  0  0  0
  7  8  1  0  0  0  0
  8  9  2  0  0  0  0
  8 28  1  0  0  0  0
  9 10  1  0  0  0  0
  9 29  1  0  0  0  0
 10 11  2  0  0  0  0
 10 30  1  0  0  0  0
 11 12  1  0  0  0  0
 11 31  1  0  0  0  0
 12 13  1  0  0  0  0
 13 14  1  0  0  0  0
 14 15  1  0  0  0  0
 14 32  1  0  0  0  0
 14 33  1  0  0  0  0
 15 16  1  0  0  0  0
 15 17  1  0  0  0  0
 15 34  1  0  0  0  0
 16 35  1  0  0  0  0
 17 23  1  0  0  0  0
 17 18  2  0  0  0  0
 18 19  1  0  0  0  0
 18 36  1  0  0  0  0
 19 20  2  0  0  0  0
 19 37  1  0  0  0  0
 20 21  1  0  0  0  0
 20 22  1  0  0  0  0
 22 23  2  0  0  0  0
 22 38  1  0  0  0  0
 23 39  1  0  0  0  0
M  END
> <s_m_source_file>
AV-unprocessed.smi

> <i_m_source_file_index>
1766

> <i_lp_mmshare_version>
43012

> <i_f3d_flags>
0

> <s_epik_input>
W2NIXTFbY0hdW2NIXVtjSF1jKGMxMiluKGMobjIpW0NIMl1DKD1PKVtOSDJdKVtDSDJdW0NASF0oW09IXSljM1tjSF1bY0hdYyhGKVtjSF1bY0hdMw==

> <s_epik_cmdline>
J2VwaWtfcHl0aG9uJywgJy1waCcsICc3LjAnLCAnLXRuJywgJzgnLCAnLW1hJywgJzIwMCcsICctbWV0YWxfYmluZGluZycsICctaW1hZScsICc8aW5maWxlLm1hZT4nLCAnLW9tYWUnLCAnPG91dGZpbGUubWFlPic=

> <r_epik_Ionization_Penalty>
0.0366901

> <r_epik_Ionization_Penalty_Charging>
0

> <r_epik_Ionization_Penalty_Neutral>
0.0366901

> <r_epik_State_Penalty>
0.0306642

> <r_epik_Charging_Adjusted_Penalty>
0.0306642

> <i_epik_Tot_Q>
0

> <i_epik_Tot_abs_Q>
0

> <r_epik_Metal_State_Penalty>
0.028853

> <b_epik_Metal_Only>
0

> <s_lp_Force_Field>
OPLS_2005

> <r_lp_Energy>
12.7053

> <b_lp_Chiralities_Consistent>
1

> <s_lp_Variant>
AV-unprocessed.smi:1766-2

> <Gold.Version>
5.8.1

> <Gold.Id.Protein>
6NUR|6NUR_protein|mol2

> <Gold.PLP.Fitness>
51.6087

> <Gold.PLP.PLP>
-46.7257

> <Gold.PLP.part.hbond>
-2.9778

> <Gold.PLP.part.metal>
0.0000

> <Gold.PLP.part.buried>
-1.9145

> <Gold.PLP.part.nonpolar>
-41.8986

> <Gold.PLP.part.repulsive>
0.0166

> <Gold.PLP.ligand.clash>
0.0000

> <Gold.PLP.ligand.torsion>
0.6247

> <Gold.PLP.Chemscore.Hbond>
2.0185

> <Gold.PLP.Chemscore.CHOScore>
0.0000

> <Gold.PLP.Chemscore.Metal>
0.0000

> <Gold.Chemscore.Hbonds>
donor molecule, donor type, donor heavy atom, donor atom, acceptor molecule, acceptor atom, score
      P1  H  6896  6907       L1     3  1.00
      P1  H  7989  7998       L1    16  0.03
      P1  H  7997  8010       L1    16  0.99

> <Gold.PLP.Chemscore.Internal.Correction>
0.0770

> <Gold.Rescore>
     Score         DG    S(hbond)    S(metal)    S(lipo)     H(rot)  DE(clash)    DE(int)     intcor
     17.57     -18.45       1.96        0.00     120.40       2.99       0.09       0.79       ----

> <Gold.Chemscore.Fitness>
17.5699

> <Gold.Chemscore.DG>
-18.4532

> <Gold.Chemscore.ZeroCoef>
-5.4800

> <Gold.Chemscore.Hbond>
1.9554

> <Gold.Chemscore.Metal>
0.0000

> <Gold.Chemscore.Lipo>
120.4048

> <Gold.Chemscore.Internal_Hbond>
0.0000

> <Gold.Chemscore.DEClash>
0.0917

> <Gold.Chemscore.DEInternal>
0.7916

> <Gold.Chemscore.Rot>
2.9864

> <Gold.Chemscore.Internal.Correction>
   9.000000E+99

> <Gold.Chemscore.Hbonds>
donor molecule, donor type, donor heavy atom, donor atom, acceptor molecule, acceptor atom, score
      P1  H  6896  6907       L1     3  1.00
      P1  H  7997  8010       L1    16  0.87

> <Gold.Chemscore.Hbond.Weighted>
-6.5310

> <Gold.Chemscore.Metal.Weighted>
-0.0000

> <Gold.Chemscore.Lipo.Weighted>
-14.0874

> <Gold.Chemscore.Internal_Hbond.Weighted>
0.0000

> <Gold.Chemscore.DEClash.Weighted>
0.0917

> <Gold.Chemscore.DEInternal.Weighted>
0.7916

> <Gold.Chemscore.Rot.Weighted>
7.6451

> <Gold.Chemscore.Internal.Correction.Weighted>
   9.000000E+99

> <Gold.Protein.RotatedTorsions>
[ 6907 6896 6895 6894 ] final   20.77 input  -60.11 | X-H torsion
[ 7974 7965 7964 7962 ] final  120.86 input  175.53 | X-H torsion
[ 8008 7997 7996 7995 ] final  105.19 input   59.86 | X-H torsion
[ 10167 10162 10161 10158 ] final  -41.60 input  -65.29 | X-H torsion
[ 10718 10713 10712 10709 ] final -142.70 input   66.30 | X-H torsion
[ 10763 10752 10751 10750 ] final -167.09 input  -60.55 | X-H torsion
[ 11005 11000 10999 10996 ] final  117.43 input  -57.11 | X-H torsion

> <Gold.Protein.ActiveResidues>
 VAL166  LYS551  ARG553  GLY616  TRP617  ASP618  TYR619  PRO620  LYS621  CYS622 
 ASP623  PHE694  ASN695  SER759  ASP760  ASP761  ALA762  ILE779  LEU786  VAL792 
 PHE793  MET794  SER795  GLU796  ALA797  LYS798  CYS799  TRP800  GLU811  SER814 

> <Gold.Protein.RotatedAtoms>
  151.9014  135.0376  160.0506 H   0  0  0  0  0  0  0  0  0  0  0  0  # atno 6907 bound_to 6896
  152.2355  133.5088  159.5248 H   0  0  0  0  0  0  0  0  0  0  0  0  # atno 6908 bound_to 6896
  150.7038  134.1076  159.4031 H   0  0  0  0  0  0  0  0  0  0  0  0  # atno 6909 bound_to 6896
  145.1261  139.3357  143.4689 H   0  0  0  0  0  0  0  0  0  0  0  0  # atno 7974 bound_to 7965
  156.1638  140.3135  155.8853 H   0  0  0  0  0  0  0  0  0  0  0  0  # atno 8008 bound_to 7997
  155.3728  140.0483  157.3062 H   0  0  0  0  0  0  0  0  0  0  0  0  # atno 8009 bound_to 7997
  154.5172  140.2185  155.9054 H   0  0  0  0  0  0  0  0  0  0  0  0  # atno 8010 bound_to 7997
  140.6997  143.3085  151.3090 H   0  0  0  0  0  0  0  0  0  0  0  0  # atno 10167 bound_to 10162
  156.3490  130.7678  151.1828 H   0  0  0  0  0  0  0  0  0  0  0  0  # atno 10718 bound_to 10713
  154.6767  135.2948  154.9669 H   0  0  0  0  0  0  0  0  0  0  0  0  # atno 10763 bound_to 10752
  154.0678  135.6622  153.4824 H   0  0  0  0  0  0  0  0  0  0  0  0  # atno 10764 bound_to 10752
  153.0521  135.5167  154.7789 H   0  0  0  0  0  0  0  0  0  0  0  0  # atno 10765 bound_to 10752
  139.9074  134.9610  156.7350 H   0  0  0  0  0  0  0  0  0  0  0  0  # atno 11005 bound_to 11000
  146.3517  140.1240  142.8599 LP  0  0  0  0  0  0  0  0  0  0  0  0  # atno 17320 bound_to 7965
  145.0687  140.9140  143.4895 LP  0  0  0  0  0  0  0  0  0  0  0  0  # atno 17321 bound_to 7965
  139.6499  144.0381  152.2619 LP  0  0  0  0  0  0  0  0  0  0  0  0  # atno 17342 bound_to 10162
  139.9914  144.6359  150.7811 LP  0  0  0  0  0  0  0  0  0  0  0  0  # atno 17343 bound_to 10162
  157.7458  131.0433  150.4736 LP  0  0  0  0  0  0  0  0  0  0  0  0  # atno 17370 bound_to 10713
  156.4928  130.4099  149.6397 LP  0  0  0  0  0  0  0  0  0  0  0  0  # atno 17371 bound_to 10713
  140.6895  133.9403  155.7958 LP  0  0  0  0  0  0  0  0  0  0  0  0  # atno 17394 bound_to 11000
  141.0452  134.0564  157.3853 LP  0  0  0  0  0  0  0  0  0  0  0  0  # atno 17395 bound_to 11000

$$$$
