AV-unprocessed.smi:49|AV-procd|sdf|480|dock9
  -GOLD-   2262016343D 1   1.00000     0.00000
 Structure written by MMmdl.
 28 29  0  0  0  0  0  0  0  0  2 V2000
  152.7299  143.3767  159.0541 C   0  0  0  0  0  0  0  0  0  0  0  0
  151.6227  143.7574  158.0654 C   0  0  0  0  0  0  0  0  0  0  0  0
  151.1706  142.6007  157.2359 C   0  0  0  0  0  0  0  0  0  0  0  0
  150.2491  142.7348  156.2711 N   0  0  0  0  0  0  0  0  0  0  0  0
  150.1213  141.4860  155.7993 C   0  0  0  0  0  0  0  0  0  0  0  0
  149.1807  141.1664  154.6757 C   0  0  1  0  0  0  0  0  0  0  0  0
  148.0950  140.1418  155.0120 C   0  0  0  0  0  0  0  0  0  0  0  0
  146.9359  140.6002  154.1321 C   0  0  1  0  0  0  0  0  0  0  0  0
  145.6900  140.1413  154.6117 O   0  0  0  0  0  0  0  0  0  0  0  0
  147.0457  142.1287  154.1758 C   0  0  0  0  0  0  0  0  0  0  0  0
  148.4770  142.4321  154.3779 N   0  3  0  0  0  0  0  0  0  0  0  0
  150.9165  140.6096  156.4259 N   0  0  0  0  0  0  0  0  0  0  0  0
  151.6017  141.3441  157.3776 N   0  0  0  0  0  0  0  0  0  0  0  0
  149.7358  140.8589  153.7880 H   0  0  0  0  0  0  0  0  0  0  0  0
  147.0868  140.2470  153.1110 H   0  0  0  0  0  0  0  0  0  0  0  0
  149.7721  143.5739  155.9741 H   0  0  0  0  0  0  0  0  0  0  0  0
  153.0393  144.2412  159.6418 H   0  0  0  0  0  0  0  0  0  0  0  0
  153.6091  142.9971  158.5327 H   0  0  0  0  0  0  0  0  0  0  0  0
  152.3922  142.6057  159.7471 H   0  0  0  0  0  0  0  0  0  0  0  0
  150.7672  144.1660  158.6048 H   0  0  0  0  0  0  0  0  0  0  0  0
  151.9757  144.5468  157.4009 H   0  0  0  0  0  0  0  0  0  0  0  0
  148.4051  139.1122  154.8316 H   0  0  0  0  0  0  0  0  0  0  0  0
  147.8103  140.2286  156.0624 H   0  0  0  0  0  0  0  0  0  0  0  0
  145.1002  140.0389  153.8798 H   0  0  0  0  0  0  0  0  0  0  0  0
  146.6560  142.6020  153.2744 H   0  0  0  0  0  0  0  0  0  0  0  0
  146.4982  142.5307  155.0298 H   0  0  0  0  0  0  0  0  0  0  0  0
  148.5709  143.0596  155.1646 H   0  0  0  0  0  0  0  0  0  0  0  0
  148.8731  142.8583  153.5525 H   0  0  0  0  0  0  0  0  0  0  0  0
  1  2  1  0  0  0  0
  1 17  1  0  0  0  0
  1 18  1  0  0  0  0
  1 19  1  0  0  0  0
  2 20  1  0  0  0  0
  2 21  1  0  0  0  0
  2  3  1  0  0  0  0
  3  4  1  0  0  0  0
  3 13  2  0  0  0  0
  4 16  1  0  0  0  0
  4  5  1  0  0  0  0
  5 12  2  0  0  0  0
  5  6  1  0  0  0  0
  6 14  1  0  0  0  0
  6 11  1  0  0  0  0
  6  7  1  0  0  0  0
  7  8  1  0  0  0  0
  7 22  1  0  0  0  0
  7 23  1  0  0  0  0
  8 15  1  0  0  0  0
  8  9  1  0  0  0  0
  8 10  1  0  0  0  0
  9 24  1  0  0  0  0
 10 11  1  0  0  0  0
 10 25  1  0  0  0  0
 10 26  1  0  0  0  0
 11 27  1  0  0  0  0
 11 28  1  0  0  0  0
 12 13  1  0  0  0  0
M  CHG  1  11   1
M  END
> <s_m_source_file>
AV-unprocessed.smi

> <i_m_source_file_index>
49

> <i_lp_mmshare_version>
43012

> <i_f3d_flags>
0

> <s_epik_input>
W0NIM11bQ0gyXWMxbmMobltuSF0xKVtDQEBIXTJbQ0gyXVtDQEBIXShbT0hdKVtDSDJdW05IXTI=

> <s_epik_cmdline>
J2VwaWtfcHl0aG9uJywgJy1waCcsICc3LjAnLCAnLXRuJywgJzgnLCAnLW1hJywgJzIwMCcsICctbWV0YWxfYmluZGluZycsICctaW1hZScsICc8aW5maWxlLm1hZT4nLCAnLW9tYWUnLCAnPG91dGZpbGUubWFlPic=

> <r_lp_tautomer_probability>
0.0517155

> <r_epik_Ionization_Penalty>
0.939819

> <r_epik_Ionization_Penalty_Charging>
0.0688988

> <r_epik_Ionization_Penalty_Neutral>
0.87092

> <r_epik_State_Penalty>
2.1224

> <r_epik_Charging_Adjusted_Penalty>
2.1913

> <i_epik_Tot_Q>
1

> <i_epik_Tot_abs_Q>
1

> <r_epik_Metal_State_Penalty>
2.39725

> <b_epik_Metal_Only>
0

> <s_lp_Force_Field>
OPLS_2005

> <r_lp_Energy>
21.0642

> <b_lp_Chiralities_Consistent>
1

> <s_lp_Variant>
AV-unprocessed.smi:49-18

> <Gold.Version>
5.8.1

> <Gold.Id.Protein>
6NUR|6NUR_protein|mol2

> <Gold.PLP.Fitness>
37.5465

> <Gold.PLP.PLP>
-25.5853

> <Gold.PLP.part.hbond>
-2.9401

> <Gold.PLP.part.metal>
0.0000

> <Gold.PLP.part.buried>
-5.4373

> <Gold.PLP.part.nonpolar>
-19.7429

> <Gold.PLP.part.repulsive>
2.3835

> <Gold.PLP.ligand.clash>
0.0000

> <Gold.PLP.ligand.torsion>
0.0256

> <Gold.PLP.Chemscore.Hbond>
4.0000

> <Gold.PLP.Chemscore.CHOScore>
0.0000

> <Gold.PLP.Chemscore.Metal>
0.0000

> <Gold.Chemscore.Hbonds>
donor molecule, donor type, donor heavy atom, donor atom, acceptor molecule, acceptor atom, score
      L1  H     4    16       P1  8028  0.88
      L1  H     9    24       P1 10175  0.98
      L1  H    11    27       P1  8028  1.76

> <Gold.PLP.Chemscore.Internal.Correction>
0.0125

> <Gold.Rescore>
     Score         DG    S(hbond)    S(metal)    S(lipo)     H(rot)  DE(clash)    DE(int)     intcor
     15.01     -16.24       2.92        0.00      49.97       1.89       1.20       0.02       ----

> <Gold.Chemscore.Fitness>
15.0091

> <Gold.Chemscore.DG>
-16.2373

> <Gold.Chemscore.ZeroCoef>
-5.4800

> <Gold.Chemscore.Hbond>
2.9178

> <Gold.Chemscore.Metal>
0.0000

> <Gold.Chemscore.Lipo>
49.9661

> <Gold.Chemscore.Internal_Hbond>
0.0000

> <Gold.Chemscore.DEClash>
1.2035

> <Gold.Chemscore.DEInternal>
0.0247

> <Gold.Chemscore.Rot>
1.8883

> <Gold.Chemscore.Internal.Correction>
   9.000000E+99

> <Gold.Chemscore.Hbonds>
donor molecule, donor type, donor heavy atom, donor atom, acceptor molecule, acceptor atom, score
      L1  H     4    16       P1  8028  0.86
      L1  H     9    24       P1 10175  0.91
      L1  H    11    27       P1  8028  0.87

> <Gold.Chemscore.Hbond.Weighted>
-9.7453

> <Gold.Chemscore.Metal.Weighted>
-0.0000

> <Gold.Chemscore.Lipo.Weighted>
-5.8460

> <Gold.Chemscore.Internal_Hbond.Weighted>
0.0000

> <Gold.Chemscore.DEClash.Weighted>
1.2035

> <Gold.Chemscore.DEInternal.Weighted>
0.0247

> <Gold.Chemscore.Rot.Weighted>
4.8340

> <Gold.Chemscore.Internal.Correction.Weighted>
   9.000000E+99

> <Gold.Protein.RotatedTorsions>
[ 6907 6896 6895 6894 ] final  -54.63 input  -60.11 | X-H torsion
[ 7974 7965 7964 7962 ] final -137.72 input  175.53 | X-H torsion
[ 8008 7997 7996 7995 ] final -117.78 input   59.86 | X-H torsion
[ 10167 10162 10161 10158 ] final -172.49 input  -65.29 | X-H torsion
[ 10718 10713 10712 10709 ] final  157.64 input   66.30 | X-H torsion
[ 10763 10752 10751 10750 ] final   43.68 input  -60.55 | X-H torsion
[ 11005 11000 10999 10996 ] final  149.03 input  -57.11 | X-H torsion

> <Gold.Protein.ActiveResidues>
 VAL166  LYS551  ARG553  GLY616  TRP617  ASP618  TYR619  PRO620  LYS621  CYS622 
 ASP623  PHE694  ASN695  SER759  ASP760  ASP761  ALA762  ILE779  LEU786  VAL792 
 PHE793  MET794  SER795  GLU796  ALA797  LYS798  CYS799  TRP800  GLU811  SER814 

> <Gold.Protein.RotatedAtoms>
  150.8321  134.7579  159.6862 H   0  0  0  0  0  0  0  0  0  0  0  0  # atno 6907 bound_to 6896
  152.4424  134.5560  159.9890 H   0  0  0  0  0  0  0  0  0  0  0  0  # atno 6908 bound_to 6896
  151.5719  133.3351  159.3027 H   0  0  0  0  0  0  0  0  0  0  0  0  # atno 6909 bound_to 6896
  144.8818  140.6518  143.5201 H   0  0  0  0  0  0  0  0  0  0  0  0  # atno 7974 bound_to 7965
  155.0891  140.0395  157.2663 H   0  0  0  0  0  0  0  0  0  0  0  0  # atno 8008 bound_to 7997
  154.6846  140.2640  155.6849 H   0  0  0  0  0  0  0  0  0  0  0  0  # atno 8009 bound_to 7997
  156.2707  140.2772  156.1402 H   0  0  0  0  0  0  0  0  0  0  0  0  # atno 8010 bound_to 7997
  139.5741  144.1572  152.1426 H   0  0  0  0  0  0  0  0  0  0  0  0  # atno 10167 bound_to 10162
  157.1887  131.0649  151.2091 H   0  0  0  0  0  0  0  0  0  0  0  0  # atno 10718 bound_to 10713
  152.9856  135.6094  154.3150 H   0  0  0  0  0  0  0  0  0  0  0  0  # atno 10763 bound_to 10752
  154.2863  135.2776  155.2676 H   0  0  0  0  0  0  0  0  0  0  0  0  # atno 10764 bound_to 10752
  154.4992  135.5871  153.6574 H   0  0  0  0  0  0  0  0  0  0  0  0  # atno 10765 bound_to 10752
  140.1010  134.8983  157.1796 H   0  0  0  0  0  0  0  0  0  0  0  0  # atno 11005 bound_to 11000
  145.3940  139.1611  143.4213 LP  0  0  0  0  0  0  0  0  0  0  0  0  # atno 17320 bound_to 7965
  146.2999  140.4032  142.8708 LP  0  0  0  0  0  0  0  0  0  0  0  0  # atno 17321 bound_to 7965
  140.1111  144.5456  150.6924 LP  0  0  0  0  0  0  0  0  0  0  0  0  # atno 17342 bound_to 10162
  140.7025  143.2444  151.4823 LP  0  0  0  0  0  0  0  0  0  0  0  0  # atno 17343 bound_to 10162
  157.3882  130.7268  149.6678 LP  0  0  0  0  0  0  0  0  0  0  0  0  # atno 17370 bound_to 10713
  155.9714  130.4154  150.4178 LP  0  0  0  0  0  0  0  0  0  0  0  0  # atno 17371 bound_to 10713
  140.3220  134.2906  155.7244 LP  0  0  0  0  0  0  0  0  0  0  0  0  # atno 17394 bound_to 11000
  141.2105  133.7716  156.9924 LP  0  0  0  0  0  0  0  0  0  0  0  0  # atno 17395 bound_to 11000

$$$$
