AV-unprocessed.smi:2213|AV-procd|sdf|8957|dock8
  -GOLD-   2272012173D 1   1.00000     0.00000
 Structure written by MMmdl.
 38 39  0  0  0  0  0  0  0  0  1 V2000
  146.3636  137.7560  154.1172 C   0  0  0  0  0  0  0  0  0  0  0  0
  147.7449  138.3319  154.3734 C   0  0  0  0  0  0  0  0  0  0  0  0
  148.6594  137.4630  154.9760 N   0  0  0  0  0  0  0  0  0  0  0  0
  149.8603  137.8676  155.2327 C   0  0  0  0  0  0  0  0  0  0  0  0
  150.2834  139.1691  154.9175 N   0  0  0  0  0  0  0  0  0  0  0  0
  151.6752  139.5036  155.2615 C   0  0  0  0  0  0  0  0  0  0  0  0
  151.9747  139.2790  156.7609 C   0  0  1  0  0  0  0  0  0  0  0  0
  153.3376  138.9549  156.9479 O   0  0  0  0  0  0  0  0  0  0  0  0
  151.6649  140.5101  157.6287 C   0  0  0  0  0  0  0  0  0  0  0  0
  152.6027  140.5928  158.6948 O   0  0  0  0  0  0  0  0  0  0  0  0
  152.5374  141.6734  159.5489 C   0  0  0  0  0  0  0  0  0  0  0  0
  151.8327  142.8697  159.2588 C   0  0  0  0  0  0  0  0  0  0  0  0
  151.8137  143.9308  160.1849 C   0  0  0  0  0  0  0  0  0  0  0  0
  150.9520  145.3797  159.8177 Cl  0  0  0  0  0  0  0  0  0  0  0  0
  152.4959  143.8111  161.4097 C   0  0  0  0  0  0  0  0  0  0  0  0
  153.1974  142.6288  161.7073 C   0  0  0  0  0  0  0  0  0  0  0  0
  153.2182  141.5665  160.7823 C   0  0  0  0  0  0  0  0  0  0  0  0
  154.0888  140.1260  161.1709 Cl  0  0  0  0  0  0  0  0  0  0  0  0
  149.4519  140.0841  154.3403 C   0  0  0  0  0  0  0  0  0  0  0  0
  149.8280  141.2304  154.0874 O   0  0  0  0  0  0  0  0  0  0  0  0
  148.0899  139.6081  154.0496 C   0  0  0  0  0  0  0  0  0  0  0  0
  147.1364  140.5993  153.3940 C   0  0  0  0  0  0  0  0  0  0  0  0
  146.1317  137.7762  153.0520 H   0  0  0  0  0  0  0  0  0  0  0  0
  145.6061  138.3311  154.6505 H   0  0  0  0  0  0  0  0  0  0  0  0
  146.2955  136.7210  154.4547 H   0  0  0  0  0  0  0  0  0  0  0  0
  150.6095  137.2320  155.7081 H   0  0  0  0  0  0  0  0  0  0  0  0
  152.3935  138.9620  154.6419 H   0  0  0  0  0  0  0  0  0  0  0  0
  151.8475  140.5526  155.0132 H   0  0  0  0  0  0  0  0  0  0  0  0
  151.3859  138.4448  157.1445 H   0  0  0  0  0  0  0  0  0  0  0  0
  153.4452  138.0260  156.8109 H   0  0  0  0  0  0  0  0  0  0  0  0
  151.7515  141.4036  157.0086 H   0  0  0  0  0  0  0  0  0  0  0  0
  150.6413  140.4654  158.0055 H   0  0  0  0  0  0  0  0  0  0  0  0
  151.2974  142.9974  158.3304 H   0  0  0  0  0  0  0  0  0  0  0  0
  152.4818  144.6239  162.1210 H   0  0  0  0  0  0  0  0  0  0  0  0
  153.7211  142.5372  162.6475 H   0  0  0  0  0  0  0  0  0  0  0  0
  146.9928  141.4660  154.0399 H   0  0  0  0  0  0  0  0  0  0  0  0
  146.1542  140.1778  153.1865 H   0  0  0  0  0  0  0  0  0  0  0  0
  147.5487  140.9479  152.4464 H   0  0  0  0  0  0  0  0  0  0  0  0
  1  2  1  0  0  0  0
  1 23  1  0  0  0  0
  1 24  1  0  0  0  0
  1 25  1  0  0  0  0
  2 21  2  0  0  0  0
  2  3  1  0  0  0  0
  3  4  2  0  0  0  0
  4  5  1  0  0  0  0
  4 26  1  0  0  0  0
  5  6  1  0  0  0  0
  5 19  1  0  0  0  0
  6  7  1  0  0  0  0
  6 27  1  0  0  0  0
  6 28  1  0  0  0  0
  7  8  1  0  0  0  0
  7  9  1  0  0  0  0
  7 29  1  0  0  0  0
  8 30  1  0  0  0  0
  9 10  1  0  0  0  0
  9 31  1  0  0  0  0
  9 32  1  0  0  0  0
 10 11  1  0  0  0  0
 11 17  1  0  0  0  0
 11 12  2  0  0  0  0
 12 13  1  0  0  0  0
 12 33  1  0  0  0  0
 13 14  1  0  0  0  0
 13 15  2  0  0  0  0
 15 16  1  0  0  0  0
 15 34  1  0  0  0  0
 16 17  2  0  0  0  0
 16 35  1  0  0  0  0
 17 18  1  0  0  0  0
 19 20  2  0  0  0  0
 19 21  1  0  0  0  0
 21 22  1  0  0  0  0
 22 36  1  0  0  0  0
 22 37  1  0  0  0  0
 22 38  1  0  0  0  0
M  END
> <s_m_source_file>
AV-unprocessed.smi

> <i_m_source_file_index>
2213

> <i_lp_mmshare_version>
43012

> <i_f3d_flags>
0

> <s_epik_input>
W0NIM11jMW5bY0hdbihjKD1PKWMxW0NIM10pW0NIMl1bQ0BIXShbT0hdKVtDSDJdT2MyW2NIXWMoQ2wpW2NIXVtjSF1jMkNs

> <s_epik_cmdline>
J2VwaWtfcHl0aG9uJywgJy1waCcsICc3LjAnLCAnLXRuJywgJzgnLCAnLW1hJywgJzIwMCcsICctbWV0YWxfYmluZGluZycsICctaW1hZScsICc8aW5maWxlLm1hZT4nLCAnLW9tYWUnLCAnPG91dGZpbGUubWFlPic=

> <r_lp_tautomer_probability>
1

> <r_epik_Ionization_Penalty>
3.50205e-05

> <r_epik_Ionization_Penalty_Charging>
7.87908e-08

> <r_epik_Ionization_Penalty_Neutral>
3.49418e-05

> <r_epik_State_Penalty>
-0

> <r_epik_Charging_Adjusted_Penalty>
7.87908e-08

> <i_epik_Tot_Q>
0

> <i_epik_Tot_abs_Q>
0

> <r_epik_Metal_State_Penalty>
-0

> <b_epik_Metal_Only>
0

> <s_lp_Force_Field>
OPLS_2005

> <r_lp_Energy>
23.8454

> <b_lp_Chiralities_Consistent>
1

> <s_lp_Variant>
AV-unprocessed.smi:2213-2

> <Gold.Version>
5.8.1

> <Gold.Id.Protein>
6NUR|6NUR_protein|mol2

> <Gold.PLP.Fitness>
48.9952

> <Gold.PLP.PLP>
-45.3198

> <Gold.PLP.part.hbond>
-2.7835

> <Gold.PLP.part.metal>
0.0000

> <Gold.PLP.part.buried>
-3.6282

> <Gold.PLP.part.nonpolar>
-39.3017

> <Gold.PLP.part.repulsive>
0.3235

> <Gold.PLP.ligand.clash>
0.0000

> <Gold.PLP.ligand.torsion>
1.0638

> <Gold.PLP.Chemscore.Hbond>
1.9222

> <Gold.PLP.Chemscore.CHOScore>
0.0000

> <Gold.PLP.Chemscore.Metal>
0.0000

> <Gold.Chemscore.Hbonds>
donor molecule, donor type, donor heavy atom, donor atom, acceptor molecule, acceptor atom, score
      P1  H  7989  7998       L1    20  0.37
      P1  H  7997  8008       L1     8  1.00
      P1  H  8011  8017       L1    20  0.57

> <Gold.PLP.Chemscore.Internal.Correction>
0.0364

> <Gold.Rescore>
     Score         DG    S(hbond)    S(metal)    S(lipo)     H(rot)  DE(clash)    DE(int)     intcor
     17.83     -18.91       1.68        0.00     118.85       2.38       0.10       0.98       ----

> <Gold.Chemscore.Fitness>
17.8298

> <Gold.Chemscore.DG>
-18.9089

> <Gold.Chemscore.ZeroCoef>
-5.4800

> <Gold.Chemscore.Hbond>
1.6834

> <Gold.Chemscore.Metal>
0.0000

> <Gold.Chemscore.Lipo>
118.8528

> <Gold.Chemscore.Internal_Hbond>
0.0000

> <Gold.Chemscore.DEClash>
0.1007

> <Gold.Chemscore.DEInternal>
0.9783

> <Gold.Chemscore.Rot>
2.3826

> <Gold.Chemscore.Internal.Correction>
   9.000000E+99

> <Gold.Chemscore.Hbonds>
donor molecule, donor type, donor heavy atom, donor atom, acceptor molecule, acceptor atom, score
      P1  H  7989  7998       L1    20  0.11
      P1  H  7997  8008       L1     8  0.94
      P1  H  8011  8017       L1    20  0.57

> <Gold.Chemscore.Hbond.Weighted>
-5.6226

> <Gold.Chemscore.Metal.Weighted>
-0.0000

> <Gold.Chemscore.Lipo.Weighted>
-13.9058

> <Gold.Chemscore.Internal_Hbond.Weighted>
0.0000

> <Gold.Chemscore.DEClash.Weighted>
0.1007

> <Gold.Chemscore.DEInternal.Weighted>
0.9783

> <Gold.Chemscore.Rot.Weighted>
6.0996

> <Gold.Chemscore.Internal.Correction.Weighted>
   9.000000E+99

> <Gold.Protein.RotatedTorsions>
[ 6907 6896 6895 6894 ] final  140.22 input  -60.11 | X-H torsion
[ 7974 7965 7964 7962 ] final -137.78 input  175.53 | X-H torsion
[ 8008 7997 7996 7995 ] final  -78.21 input   59.86 | X-H torsion
[ 10167 10162 10161 10158 ] final   49.62 input  -65.29 | X-H torsion
[ 10718 10713 10712 10709 ] final -141.17 input   66.30 | X-H torsion
[ 10763 10752 10751 10750 ] final  -25.87 input  -60.55 | X-H torsion
[ 11005 11000 10999 10996 ] final  102.27 input  -57.11 | X-H torsion

> <Gold.Protein.ActiveResidues>
 VAL166  LYS551  ARG553  GLY616  TRP617  ASP618  TYR619  PRO620  LYS621  CYS622 
 ASP623  PHE694  ASN695  SER759  ASP760  ASP761  ALA762  ILE779  LEU786  VAL792 
 PHE793  MET794  SER795  GLU796  ALA797  LYS798  CYS799  TRP800  GLU811  SER814 

> <Gold.Protein.RotatedAtoms>
  152.2457  133.5172  159.5295 H   0  0  0  0  0  0  0  0  0  0  0  0  # atno 6907 bound_to 6896
  150.7078  134.1029  159.3981 H   0  0  0  0  0  0  0  0  0  0  0  0  # atno 6908 bound_to 6896
  151.8949  135.0401  160.0552 H   0  0  0  0  0  0  0  0  0  0  0  0  # atno 6909 bound_to 6896
  144.8813  140.6512  143.5204 H   0  0  0  0  0  0  0  0  0  0  0  0  # atno 7974 bound_to 7965
  154.5668  140.0698  156.8903 H   0  0  0  0  0  0  0  0  0  0  0  0  # atno 8008 bound_to 7997
  155.2709  140.3365  155.4247 H   0  0  0  0  0  0  0  0  0  0  0  0  # atno 8009 bound_to 7997
  156.2086  140.1750  156.7729 H   0  0  0  0  0  0  0  0  0  0  0  0  # atno 8010 bound_to 7997
  140.2810  144.3157  150.6264 H   0  0  0  0  0  0  0  0  0  0  0  0  # atno 10167 bound_to 10162
  156.3309  130.7585  151.1703 H   0  0  0  0  0  0  0  0  0  0  0  0  # atno 10718 bound_to 10713
  153.7068  135.6953  153.5048 H   0  0  0  0  0  0  0  0  0  0  0  0  # atno 10763 bound_to 10752
  153.2302  135.4340  155.0586 H   0  0  0  0  0  0  0  0  0  0  0  0  # atno 10764 bound_to 10752
  154.8327  135.3482  154.6605 H   0  0  0  0  0  0  0  0  0  0  0  0  # atno 10765 bound_to 10752
  139.8777  134.9217  156.5032 H   0  0  0  0  0  0  0  0  0  0  0  0  # atno 11005 bound_to 11000
  145.3949  139.1609  143.4209 LP  0  0  0  0  0  0  0  0  0  0  0  0  # atno 17320 bound_to 7965
  146.2996  140.4041  142.8709 LP  0  0  0  0  0  0  0  0  0  0  0  0  # atno 17321 bound_to 7965
  140.5812  143.2172  151.7425 LP  0  0  0  0  0  0  0  0  0  0  0  0  # atno 17342 bound_to 10162
  139.4963  144.4077  152.0114 LP  0  0  0  0  0  0  0  0  0  0  0  0  # atno 17343 bound_to 10162
  157.7430  131.0481  150.4980 LP  0  0  0  0  0  0  0  0  0  0  0  0  # atno 17370 bound_to 10713
  156.5146  130.4147  149.6283 LP  0  0  0  0  0  0  0  0  0  0  0  0  # atno 17371 bound_to 10713
  140.8574  133.8086  155.9230 LP  0  0  0  0  0  0  0  0  0  0  0  0  # atno 17394 bound_to 11000
  140.9084  134.2292  157.5001 LP  0  0  0  0  0  0  0  0  0  0  0  0  # atno 17395 bound_to 11000

$$$$
