AV-unprocessed.smi:926|AV-procd|sdf|4184|dock3
  -GOLD-   22720 2 93D 1   1.00000     0.00000
 Structure written by MMmdl.
 37 39  0  0  0  0  0  0  0  0  1 V2000
  152.4389  140.0451  155.4051 O   0  0  0  0  0  0  0  0  0  0  0  0
  151.2942  139.6020  155.3139 C   0  0  0  0  0  0  0  0  0  0  0  0
  151.0280  138.3383  154.4970 C   0  0  0  0  0  0  0  0  0  0  0  0
  150.8308  137.1958  155.3682 N   0  0  0  0  0  0  0  0  0  0  0  0
  149.7574  136.7863  156.0478 C   0  0  0  0  0  0  0  0  0  0  0  0
  150.0094  135.6875  156.7428 N   0  0  0  0  0  0  0  0  0  0  0  0
  151.3383  135.4277  156.4507 N   0  0  0  0  0  0  0  0  0  0  0  0
  151.8312  136.3194  155.6358 N   0  0  0  0  0  0  0  0  0  0  0  0
  150.2279  140.1776  155.8911 N   0  0  0  0  0  0  0  0  0  0  0  0
  150.2612  141.4121  156.6650 C   0  0  0  0  0  0  0  0  0  0  0  0
  151.3096  141.3381  157.7891 C   0  0  0  0  0  0  0  0  0  0  0  0
  151.2031  142.5038  158.7913 C   0  0  1  0  0  0  0  0  0  0  0  0
  152.4274  142.6335  159.7278 C   0  0  0  0  0  0  0  0  0  0  0  0
  152.8854  144.0866  159.5074 C   0  0  2  0  0  0  0  0  0  0  0  0
  151.8476  145.0520  160.1093 C   0  0  0  0  0  0  0  0  0  0  0  0
  150.6679  144.9365  159.1256 C   0  0  0  0  0  0  0  0  0  0  0  0
  151.1729  143.8923  158.1112 C   0  0  1  0  0  0  0  0  0  0  0  0
  152.6509  144.2590  158.0126 C   0  0  0  0  0  0  0  0  0  0  0  0
  150.1347  138.4699  153.8853 H   0  0  0  0  0  0  0  0  0  0  0  0
  151.8595  138.1422  153.8182 H   0  0  0  0  0  0  0  0  0  0  0  0
  148.8023  137.2912  156.0363 H   0  0  0  0  0  0  0  0  0  0  0  0
  149.3248  139.7443  155.7616 H   0  0  0  0  0  0  0  0  0  0  0  0
  150.5015  142.2304  155.9858 H   0  0  0  0  0  0  0  0  0  0  0  0
  149.2704  141.6258  157.0684 H   0  0  0  0  0  0  0  0  0  0  0  0
  151.2243  140.3863  158.3149 H   0  0  0  0  0  0  0  0  0  0  0  0
  152.3040  141.3460  157.3407 H   0  0  0  0  0  0  0  0  0  0  0  0
  150.2930  142.3665  159.3771 H   0  0  0  0  0  0  0  0  0  0  0  0
  152.1754  142.4318  160.7694 H   0  0  0  0  0  0  0  0  0  0  0  0
  153.2234  141.9442  159.4420 H   0  0  0  0  0  0  0  0  0  0  0  0
  153.9062  144.2780  159.8394 H   0  0  0  0  0  0  0  0  0  0  0  0
  151.5698  144.7768  161.1275 H   0  0  0  0  0  0  0  0  0  0  0  0
  152.2305  146.0731  160.1304 H   0  0  0  0  0  0  0  0  0  0  0  0
  149.7425  144.6319  159.6157 H   0  0  0  0  0  0  0  0  0  0  0  0
  150.4846  145.8934  158.6351 H   0  0  0  0  0  0  0  0  0  0  0  0
  150.6288  143.9123  157.1663 H   0  0  0  0  0  0  0  0  0  0  0  0
  152.8215  145.2788  157.6632 H   0  0  0  0  0  0  0  0  0  0  0  0
  153.2346  143.5708  157.3994 H   0  0  0  0  0  0  0  0  0  0  0  0
  1  2  2  0  0  0  0
  2  3  1  0  0  0  0
  2  9  1  0  0  0  0
  3  4  1  0  0  0  0
  3 19  1  0  0  0  0
  3 20  1  0  0  0  0
  4  8  1  0  0  0  0
  4  5  1  0  0  0  0
  5  6  2  0  0  0  0
  5 21  1  0  0  0  0
  6  7  1  0  0  0  0
  7  8  2  0  0  0  0
  9 10  1  0  0  0  0
  9 22  1  0  0  0  0
 10 11  1  0  0  0  0
 10 23  1  0  0  0  0
 10 24  1  0  0  0  0
 11 12  1  0  0  0  0
 11 25  1  0  0  0  0
 11 26  1  0  0  0  0
 12 17  1  0  0  0  0
 12 13  1  0  0  0  0
 12 27  1  0  0  0  0
 13 14  1  0  0  0  0
 13 28  1  0  0  0  0
 13 29  1  0  0  0  0
 14 18  1  0  0  0  0
 14 15  1  0  0  0  0
 14 30  1  0  0  0  0
 15 16  1  0  0  0  0
 15 31  1  0  0  0  0
 15 32  1  0  0  0  0
 16 17  1  0  0  0  0
 16 33  1  0  0  0  0
 16 34  1  0  0  0  0
 17 18  1  0  0  0  0
 17 35  1  0  0  0  0
 18 36  1  0  0  0  0
 18 37  1  0  0  0  0
M  END
> <s_m_source_file>
AV-unprocessed.smi

> <i_m_source_file_index>
926

> <i_lp_mmshare_version>
43012

> <i_f3d_flags>
0

> <s_epik_input>
bjFubltjSF1uMVtDSDJdQyg9TylbTkhdW0NIMl1bQ0gyXVtDQEhdKFtDSDJdW0NASF0yMylbQ0BIXShbQ0gyXTMpW0NIMl1bQ0gyXTI=

> <s_epik_cmdline>
J2VwaWtfcHl0aG9uJywgJy1waCcsICc3LjAnLCAnLXRuJywgJzgnLCAnLW1hJywgJzIwMCcsICctbWV0YWxfYmluZGluZycsICctaW1hZScsICc8aW5maWxlLm1hZT4nLCAnLW9tYWUnLCAnPG91dGZpbGUubWFlPic=

> <r_lp_tautomer_probability>
1

> <r_epik_Ionization_Penalty>
4.22645e-07

> <r_epik_Ionization_Penalty_Charging>
0

> <r_epik_Ionization_Penalty_Neutral>
4.22645e-07

> <r_epik_State_Penalty>
-0

> <r_epik_Charging_Adjusted_Penalty>
0

> <i_epik_Tot_Q>
0

> <i_epik_Tot_abs_Q>
0

> <r_epik_Metal_State_Penalty>
-0

> <b_epik_Metal_Only>
0

> <s_lp_Force_Field>
OPLS_2005

> <r_lp_Energy>
50.6471

> <b_lp_Chiralities_Consistent>
1

> <s_lp_Variant>
AV-unprocessed.smi:926-2

> <Gold.Version>
5.8.1

> <Gold.Id.Protein>
6NUR|6NUR_protein|mol2

> <Gold.PLP.Fitness>
43.7756

> <Gold.PLP.PLP>
-39.0544

> <Gold.PLP.part.hbond>
-3.7951

> <Gold.PLP.part.metal>
0.0000

> <Gold.PLP.part.buried>
-3.7259

> <Gold.PLP.part.nonpolar>
-32.2333

> <Gold.PLP.part.repulsive>
0.1273

> <Gold.PLP.ligand.clash>
0.0000

> <Gold.PLP.ligand.torsion>
0.6407

> <Gold.PLP.Chemscore.Hbond>
1.9913

> <Gold.PLP.Chemscore.CHOScore>
0.0000

> <Gold.PLP.Chemscore.Metal>
0.0000

> <Gold.Chemscore.Hbonds>
donor molecule, donor type, donor heavy atom, donor atom, acceptor molecule, acceptor atom, score
      P1  H  7997  8009       L1     1  0.94
      P1  H 10752 10763       L1     8  1.00

> <Gold.PLP.Chemscore.Internal.Correction>
0.0289

> <Gold.Rescore>
     Score         DG    S(hbond)    S(metal)    S(lipo)     H(rot)  DE(clash)    DE(int)     intcor
     15.44     -17.40       1.94        0.00     102.26       2.54       0.14       1.82       ----

> <Gold.Chemscore.Fitness>
15.4381

> <Gold.Chemscore.DG>
-17.4019

> <Gold.Chemscore.ZeroCoef>
-5.4800

> <Gold.Chemscore.Hbond>
1.9368

> <Gold.Chemscore.Metal>
0.0000

> <Gold.Chemscore.Lipo>
102.2624

> <Gold.Chemscore.Internal_Hbond>
0.0000

> <Gold.Chemscore.DEClash>
0.1422

> <Gold.Chemscore.DEInternal>
1.8216

> <Gold.Chemscore.Rot>
2.5436

> <Gold.Chemscore.Internal.Correction>
   9.000000E+99

> <Gold.Chemscore.Hbonds>
donor molecule, donor type, donor heavy atom, donor atom, acceptor molecule, acceptor atom, score
      P1  H  7997  8009       L1     1  0.90
      P1  H 10752 10763       L1     8  0.69

> <Gold.Chemscore.Hbond.Weighted>
-6.4689

> <Gold.Chemscore.Metal.Weighted>
-0.0000

> <Gold.Chemscore.Lipo.Weighted>
-11.9647

> <Gold.Chemscore.Internal_Hbond.Weighted>
0.0000

> <Gold.Chemscore.DEClash.Weighted>
0.1422

> <Gold.Chemscore.DEInternal.Weighted>
1.8216

> <Gold.Chemscore.Rot.Weighted>
6.5117

> <Gold.Chemscore.Internal.Correction.Weighted>
   9.000000E+99

> <Gold.Protein.RotatedTorsions>
[ 6907 6896 6895 6894 ] final  161.93 input  -60.11 | X-H torsion
[ 7974 7965 7964 7962 ] final   49.56 input  175.53 | X-H torsion
[ 8008 7997 7996 7995 ] final -141.12 input   59.86 | X-H torsion
[ 10167 10162 10161 10158 ] final    3.74 input  -65.29 | X-H torsion
[ 10718 10713 10712 10709 ] final  -98.32 input   66.30 | X-H torsion
[ 10763 10752 10751 10750 ] final   61.14 input  -60.55 | X-H torsion
[ 11005 11000 10999 10996 ] final   87.94 input  -57.11 | X-H torsion

> <Gold.Protein.ActiveResidues>
 VAL166  LYS551  ARG553  GLY616  TRP617  ASP618  TYR619  PRO620  LYS621  CYS622 
 ASP623  PHE694  ASN695  SER759  ASP760  ASP761  ALA762  ILE779  LEU786  VAL792 
 PHE793  MET794  SER795  GLU796  ALA797  LYS798  CYS799  TRP800  GLU811  SER814 

> <Gold.Protein.RotatedAtoms>
  151.9481  133.3658  159.3989 H   0  0  0  0  0  0  0  0  0  0  0  0  # atno 6907 bound_to 6896
  150.6985  134.4368  159.5283 H   0  0  0  0  0  0  0  0  0  0  0  0  # atno 6908 bound_to 6896
  152.2037  134.8565  160.0556 H   0  0  0  0  0  0  0  0  0  0  0  0  # atno 6909 bound_to 6896
  146.0097  139.4529  142.9964 H   0  0  0  0  0  0  0  0  0  0  0  0  # atno 7974 bound_to 7965
  155.4726  140.0554  157.2977 H   0  0  0  0  0  0  0  0  0  0  0  0  # atno 8008 bound_to 7997
  154.4692  140.2032  155.9992 H   0  0  0  0  0  0  0  0  0  0  0  0  # atno 8009 bound_to 7997
  156.1027  140.3216  155.7968 H   0  0  0  0  0  0  0  0  0  0  0  0  # atno 8010 bound_to 7997
  140.6570  143.7401  150.7671 H   0  0  0  0  0  0  0  0  0  0  0  0  # atno 10167 bound_to 10162
  156.0105  130.5233  150.6505 H   0  0  0  0  0  0  0  0  0  0  0  0  # atno 10718 bound_to 10713
  152.9941  135.5511  154.5986 H   0  0  0  0  0  0  0  0  0  0  0  0  # atno 10763 bound_to 10752
  154.5332  135.2815  155.1163 H   0  0  0  0  0  0  0  0  0  0  0  0  # atno 10764 bound_to 10752
  154.2470  135.6406  153.5279 H   0  0  0  0  0  0  0  0  0  0  0  0  # atno 10765 bound_to 10752
  139.8908  134.8455  156.2930 H   0  0  0  0  0  0  0  0  0  0  0  0  # atno 11005 bound_to 11000
  145.7361  141.0025  143.1326 LP  0  0  0  0  0  0  0  0  0  0  0  0  # atno 17320 bound_to 7965
  144.6948  139.9043  143.7460 LP  0  0  0  0  0  0  0  0  0  0  0  0  # atno 17321 bound_to 7965
  140.1063  143.4741  152.2396 LP  0  0  0  0  0  0  0  0  0  0  0  0  # atno 17342 bound_to 10162
  139.5795  144.7503  151.3677 LP  0  0  0  0  0  0  0  0  0  0  0  0  # atno 17343 bound_to 10162
  157.4268  131.0844  151.1078 LP  0  0  0  0  0  0  0  0  0  0  0  0  # atno 17370 bound_to 10713
  157.1663  130.6248  149.5626 LP  0  0  0  0  0  0  0  0  0  0  0  0  # atno 17371 bound_to 10713
  140.9964  133.7178  156.0892 LP  0  0  0  0  0  0  0  0  0  0  0  0  # atno 17394 bound_to 11000
  140.7557  134.3995  157.5534 LP  0  0  0  0  0  0  0  0  0  0  0  0  # atno 17395 bound_to 11000

$$$$
