AV-unprocessed.smi:2772|AV-procd|sdf|10670|dock4
  -GOLD-   2272015113D 1   1.00000     0.00000
 Structure written by MMmdl.
 54 56  0  0  0  0  0  0  0  0  2 V2000
  148.3763  129.5458  153.2319 C   0  0  0  0  0  0  0  0  0  0  0  0
  148.8305  130.9652  153.5008 C   0  0  0  0  0  0  0  0  0  0  0  0
  149.8820  131.2294  154.4019 C   0  0  0  0  0  0  0  0  0  0  0  0
  150.2688  132.5670  154.6125 C   0  0  0  0  0  0  0  0  0  0  0  0
  149.5955  133.5933  153.9067 C   0  0  0  0  0  0  0  0  0  0  0  0
  149.8780  134.9802  154.0405 N   0  0  0  0  0  0  0  0  0  0  0  0
  150.6527  135.5969  154.9495 C   0  0  0  0  0  0  0  0  0  0  0  0
  151.2884  135.0389  155.8435 O   0  0  0  0  0  0  0  0  0  0  0  0
  150.6693  136.9231  154.7523 N   0  0  0  0  0  0  0  0  0  0  0  0
  151.4148  137.8823  155.5626 C   0  0  2  0  0  0  0  0  0  0  0  0
  151.0173  137.7449  157.0375 C   0  0  0  0  0  0  0  0  0  0  0  0
  151.7256  138.7928  157.9141 C   0  0  0  0  0  0  0  0  0  0  0  0
  151.4644  140.1843  157.4411 N   0  3  1  0  0  0  0  0  0  0  0  0
  152.0376  141.2688  158.3042 C   0  0  0  0  0  0  0  0  0  0  0  0
  152.5979  140.7718  159.6593 C   0  0  0  0  0  0  0  0  0  0  0  0
  153.0775  141.9356  160.5441 C   0  0  0  0  0  0  0  0  0  0  0  0
  151.9758  142.8597  160.8002 N   0  0  0  0  0  0  0  0  0  0  0  0
  152.4314  143.9187  161.6898 C   0  0  0  0  0  0  0  0  0  0  0  0
  151.5252  143.4470  159.5411 C   0  0  0  0  0  0  0  0  0  0  0  0
  150.9762  142.3503  158.6129 C   0  0  0  0  0  0  0  0  0  0  0  0
  151.8612  140.3338  156.0111 C   0  0  0  0  0  0  0  0  0  0  0  0
  151.1399  139.3233  155.1059 C   0  0  0  0  0  0  0  0  0  0  0  0
  148.5493  133.2151  153.0387 C   0  0  0  0  0  0  0  0  0  0  0  0
  148.1724  131.9356  152.8313 N   0  0  0  0  0  0  0  0  0  0  0  0
  148.7571  128.8611  153.9903 H   0  0  0  0  0  0  0  0  0  0  0  0
  148.7374  129.2132  152.2585 H   0  0  0  0  0  0  0  0  0  0  0  0
  147.2878  129.4824  153.2355 H   0  0  0  0  0  0  0  0  0  0  0  0
  150.3815  130.4275  154.9249 H   0  0  0  0  0  0  0  0  0  0  0  0
  151.0598  132.7740  155.3158 H   0  0  0  0  0  0  0  0  0  0  0  0
  149.4800  135.5696  153.3241 H   0  0  0  0  0  0  0  0  0  0  0  0
  150.1217  137.2964  153.9906 H   0  0  0  0  0  0  0  0  0  0  0  0
  152.4826  137.6726  155.4721 H   0  0  0  0  0  0  0  0  0  0  0  0
  149.9371  137.8581  157.1427 H   0  0  0  0  0  0  0  0  0  0  0  0
  151.2585  136.7439  157.3971 H   0  0  0  0  0  0  0  0  0  0  0  0
  151.3560  138.6504  158.9285 H   0  0  0  0  0  0  0  0  0  0  0  0
  152.8008  138.6082  157.9317 H   0  0  0  0  0  0  0  0  0  0  0  0
  152.8642  141.7300  157.7607 H   0  0  0  0  0  0  0  0  0  0  0  0
  151.8383  140.1997  160.1946 H   0  0  0  0  0  0  0  0  0  0  0  0
  153.4482  140.1073  159.5056 H   0  0  0  0  0  0  0  0  0  0  0  0
  153.4482  141.5415  161.4913 H   0  0  0  0  0  0  0  0  0  0  0  0
  153.9085  142.4583  160.0675 H   0  0  0  0  0  0  0  0  0  0  0  0
  151.6196  144.6157  161.9014 H   0  0  0  0  0  0  0  0  0  0  0  0
  153.2586  144.4799  161.2525 H   0  0  0  0  0  0  0  0  0  0  0  0
  152.7660  143.5027  162.6408 H   0  0  0  0  0  0  0  0  0  0  0  0
  150.7406  144.1777  159.7415 H   0  0  0  0  0  0  0  0  0  0  0  0
  152.3440  143.9814  159.0560 H   0  0  0  0  0  0  0  0  0  0  0  0
  150.6228  142.8325  157.7034 H   0  0  0  0  0  0  0  0  0  0  0  0
  150.1014  141.8895  159.0744 H   0  0  0  0  0  0  0  0  0  0  0  0
  151.6342  141.3323  155.6437 H   0  0  0  0  0  0  0  0  0  0  0  0
  152.9413  140.2075  155.9197 H   0  0  0  0  0  0  0  0  0  0  0  0
  151.4678  139.4615  154.0748 H   0  0  0  0  0  0  0  0  0  0  0  0
  150.0673  139.5224  155.1181 H   0  0  0  0  0  0  0  0  0  0  0  0
  147.9977  133.9629  152.4879 H   0  0  0  0  0  0  0  0  0  0  0  0
  150.4620  140.3015  157.4795 H   0  0  0  0  0  0  0  0  0  0  0  0
  1  2  1  0  0  0  0
  1 25  1  0  0  0  0
  1 26  1  0  0  0  0
  1 27  1  0  0  0  0
  2 24  1  0  0  0  0
  2  3  2  0  0  0  0
  3  4  1  0  0  0  0
  3 28  1  0  0  0  0
  4  5  2  0  0  0  0
  4 29  1  0  0  0  0
  5  6  1  0  0  0  0
  5 23  1  0  0  0  0
  6  7  1  0  0  0  0
  6 30  1  0  0  0  0
  7  8  2  0  0  0  0
  7  9  1  0  0  0  0
  9 10  1  0  0  0  0
  9 31  1  0  0  0  0
 10 22  1  0  0  0  0
 10 11  1  0  0  0  0
 10 32  1  0  0  0  0
 11 12  1  0  0  0  0
 11 33  1  0  0  0  0
 11 34  1  0  0  0  0
 12 13  1  0  0  0  0
 12 35  1  0  0  0  0
 12 36  1  0  0  0  0
 13 14  1  0  0  0  0
 13 21  1  0  0  0  0
 13 54  1  0  0  0  0
 14 20  1  0  0  0  0
 14 15  1  0  0  0  0
 14 37  1  0  0  0  0
 15 16  1  0  0  0  0
 15 38  1  0  0  0  0
 15 39  1  0  0  0  0
 16 17  1  0  0  0  0
 16 40  1  0  0  0  0
 16 41  1  0  0  0  0
 17 18  1  0  0  0  0
 17 19  1  0  0  0  0
 18 42  1  0  0  0  0
 18 43  1  0  0  0  0
 18 44  1  0  0  0  0
 19 20  1  0  0  0  0
 19 45  1  0  0  0  0
 19 46  1  0  0  0  0
 20 47  1  0  0  0  0
 20 48  1  0  0  0  0
 21 22  1  0  0  0  0
 21 49  1  0  0  0  0
 21 50  1  0  0  0  0
 22 51  1  0  0  0  0
 22 52  1  0  0  0  0
 23 24  2  0  0  0  0
 23 53  1  0  0  0  0
M  CHG  1  13   1
M  END
> <s_m_source_file>
AV-unprocessed.smi

> <i_m_source_file_index>
2772

> <i_lp_mmshare_version>
43012

> <i_f3d_flags>
0

> <s_epik_input>
W0NIM11jMVtjSF1bY0hdYyhbY0hdbjEpW05IXUMoPU8pW05IXVtDSF0yW0NIMl1bQ0gyXU4oW0NIMl1bQ0gyXTIpW0NIXTNbQ0gyXVtDSDJdTihbQ0gzXSlbQ0gyXVtDSDJdMw==

> <s_epik_cmdline>
J2VwaWtfcHl0aG9uJywgJy1waCcsICc3LjAnLCAnLXRuJywgJzgnLCAnLW1hJywgJzIwMCcsICctbWV0YWxfYmluZGluZycsICctaW1hZScsICc8aW5maWxlLm1hZT4nLCAnLW9tYWUnLCAnPG91dGZpbGUubWFlPic=

> <r_epik_Ionization_Penalty>
1.38854

> <r_epik_Ionization_Penalty_Charging>
0.00081195

> <r_epik_Ionization_Penalty_Neutral>
1.38772

> <r_epik_State_Penalty>
1.56122

> <r_epik_Charging_Adjusted_Penalty>
1.56203

> <i_epik_Tot_Q>
1

> <i_epik_Tot_abs_Q>
1

> <r_epik_Metal_State_Penalty>
1.5614

> <b_epik_Metal_Only>
0

> <s_lp_Force_Field>
OPLS_2005

> <r_lp_Energy>
35.3566

> <b_lp_Chiralities_Consistent>
1

> <s_lp_Variant>
AV-unprocessed.smi:2772-7

> <Gold.Version>
5.8.1

> <Gold.Id.Protein>
6NUR|6NUR_protein|mol2

> <Gold.PLP.Fitness>
47.5283

> <Gold.PLP.PLP>
-43.4155

> <Gold.PLP.part.hbond>
-2.8524

> <Gold.PLP.part.metal>
0.0000

> <Gold.PLP.part.buried>
-5.2126

> <Gold.PLP.part.nonpolar>
-34.7500

> <Gold.PLP.part.repulsive>
1.1566

> <Gold.PLP.ligand.clash>
0.0000

> <Gold.PLP.ligand.torsion>
1.3327

> <Gold.PLP.Chemscore.Hbond>
1.4298

> <Gold.PLP.Chemscore.CHOScore>
0.8191

> <Gold.PLP.Chemscore.Metal>
0.0000

> <Gold.Chemscore.Hbonds>
donor molecule, donor type, donor heavy atom, donor atom, acceptor molecule, acceptor atom, score
      L1  H     6    30       P1  7948  0.80
      P1  H 10752 10763       L1     8  0.67
      L1  C    23    53       P1  7948  0.73

> <Gold.PLP.Chemscore.Internal.Correction>
0.0316

> <Gold.Rescore>
     Score         DG    S(hbond)    S(metal)    S(lipo)     H(rot)  DE(clash)    DE(int)     intcor
     17.05     -21.10       1.47        0.00     117.65       1.19       0.43       3.62       ----

> <Gold.Chemscore.Fitness>
17.0463

> <Gold.Chemscore.DG>
-21.0978

> <Gold.Chemscore.ZeroCoef>
-5.4800

> <Gold.Chemscore.Hbond>
1.4676

> <Gold.Chemscore.Metal>
0.0000

> <Gold.Chemscore.Lipo>
117.6490

> <Gold.Chemscore.Internal_Hbond>
0.0000

> <Gold.Chemscore.DEClash>
0.4310

> <Gold.Chemscore.DEInternal>
3.6205

> <Gold.Chemscore.Rot>
1.1910

> <Gold.Chemscore.Internal.Correction>
   9.000000E+99

> <Gold.Chemscore.Hbonds>
donor molecule, donor type, donor heavy atom, donor atom, acceptor molecule, acceptor atom, score
      L1  H     6    30       P1  7948  0.12
      P1  H 10752 10763       L1     8  0.08

> <Gold.Chemscore.Hbond.Weighted>
-4.9017

> <Gold.Chemscore.Metal.Weighted>
-0.0000

> <Gold.Chemscore.Lipo.Weighted>
-13.7649

> <Gold.Chemscore.Internal_Hbond.Weighted>
0.0000

> <Gold.Chemscore.DEClash.Weighted>
0.4310

> <Gold.Chemscore.DEInternal.Weighted>
3.6205

> <Gold.Chemscore.Rot.Weighted>
3.0489

> <Gold.Chemscore.Internal.Correction.Weighted>
   9.000000E+99

> <Gold.Protein.RotatedTorsions>
[ 6907 6896 6895 6894 ] final   28.19 input  -60.11 | X-H torsion
[ 7974 7965 7964 7962 ] final   -6.23 input  175.53 | X-H torsion
[ 8008 7997 7996 7995 ] final -166.64 input   59.86 | X-H torsion
[ 10167 10162 10161 10158 ] final   53.67 input  -65.29 | X-H torsion
[ 10718 10713 10712 10709 ] final  171.58 input   66.30 | X-H torsion
[ 10763 10752 10751 10750 ] final   89.83 input  -60.55 | X-H torsion
[ 11005 11000 10999 10996 ] final   52.23 input  -57.11 | X-H torsion

> <Gold.Protein.ActiveResidues>
 VAL166  LYS551  ARG553  GLY616  TRP617  ASP618  TYR619  PRO620  LYS621  CYS622 
 ASP623  PHE694  ASN695  SER759  ASP760  ASP761  ALA762  ILE779  LEU786  VAL792 
 PHE793  MET794  SER795  GLU796  ALA797  LYS798  CYS799  TRP800  GLU811  SER814 

> <Gold.Protein.RotatedAtoms>
  152.0133  134.9864  160.0568 H   0  0  0  0  0  0  0  0  0  0  0  0  # atno 6907 bound_to 6896
  152.1407  133.4457  159.4774 H   0  0  0  0  0  0  0  0  0  0  0  0  # atno 6908 bound_to 6896
  150.6865  134.2227  159.4446 H   0  0  0  0  0  0  0  0  0  0  0  0  # atno 6909 bound_to 6896
  146.2335  140.2140  142.8336 H   0  0  0  0  0  0  0  0  0  0  0  0  # atno 7974 bound_to 7965
  155.8666  140.0986  157.1578 H   0  0  0  0  0  0  0  0  0  0  0  0  # atno 8008 bound_to 7997
  154.3994  140.1355  156.4089 H   0  0  0  0  0  0  0  0  0  0  0  0  # atno 8009 bound_to 7997
  155.7797  140.3459  155.5293 H   0  0  0  0  0  0  0  0  0  0  0  0  # atno 8010 bound_to 7997
  140.2382  144.3612  150.6389 H   0  0  0  0  0  0  0  0  0  0  0  0  # atno 10167 bound_to 10162
  156.9914  131.0149  151.2855 H   0  0  0  0  0  0  0  0  0  0  0  0  # atno 10718 bound_to 10713
  153.1912  135.4456  155.0151 H   0  0  0  0  0  0  0  0  0  0  0  0  # atno 10763 bound_to 10752
  154.8091  135.3287  154.7355 H   0  0  0  0  0  0  0  0  0  0  0  0  # atno 10764 bound_to 10752
  153.7809  135.6977  153.4944 H   0  0  0  0  0  0  0  0  0  0  0  0  # atno 10765 bound_to 10752
  140.0866  134.5266  155.8893 H   0  0  0  0  0  0  0  0  0  0  0  0  # atno 11005 bound_to 11000
  144.9684  140.8345  143.5470 LP  0  0  0  0  0  0  0  0  0  0  0  0  # atno 17320 bound_to 7965
  145.2119  139.2201  143.5138 LP  0  0  0  0  0  0  0  0  0  0  0  0  # atno 17321 bound_to 7965
  140.6133  143.2171  151.6842 LP  0  0  0  0  0  0  0  0  0  0  0  0  # atno 17342 bound_to 10162
  139.5086  144.3605  152.0567 LP  0  0  0  0  0  0  0  0  0  0  0  0  # atno 17343 bound_to 10162
  157.5456  130.8148  149.8081 LP  0  0  0  0  0  0  0  0  0  0  0  0  # atno 17370 bound_to 10713
  156.0206  130.3797  150.1975 LP  0  0  0  0  0  0  0  0  0  0  0  0  # atno 17371 bound_to 10713
  141.2064  133.6655  156.6243 LP  0  0  0  0  0  0  0  0  0  0  0  0  # atno 17394 bound_to 11000
  140.3411  134.7848  157.4398 LP  0  0  0  0  0  0  0  0  0  0  0  0  # atno 17395 bound_to 11000

$$$$
