AV-unprocessed.smi:1190|AV-procd|sdf|4983|dock3
  -GOLD-   22720 3583D 1   1.00000     0.00000
 Structure written by MMmdl.
 44 45  0  0  0  0  0  0  0  0  2 V2000
  151.3113  141.6607  158.0833 C   0  0  0  0  0  0  0  0  0  0  0  0
  151.3735  141.5026  156.6700 O   0  0  0  0  0  0  0  0  0  0  0  0
  150.9382  140.3122  156.1245 C   0  0  0  0  0  0  0  0  0  0  0  0
  150.6449  139.2406  156.9907 C   0  0  0  0  0  0  0  0  0  0  0  0
  150.1984  138.0255  156.4385 C   0  0  0  0  0  0  0  0  0  0  0  0
  150.0501  137.9164  155.0412 C   0  0  0  0  0  0  0  0  0  0  0  0
  149.6092  136.6709  154.5164 N   0  0  0  0  0  0  0  0  0  0  0  0
  149.4720  135.4927  155.1487 C   0  0  0  0  0  0  0  0  0  0  0  0
  149.7264  135.2839  156.3343 O   0  0  0  0  0  0  0  0  0  0  0  0
  149.0382  134.5406  154.3095 N   0  0  0  0  0  0  0  0  0  0  0  0
  148.7630  133.1521  154.6733 C   0  0  0  0  0  0  0  0  0  0  0  0
  149.0104  132.1522  153.5085 C   0  0  1  0  0  0  0  0  0  0  0  0
  149.4160  130.7635  154.0537 C   0  0  0  0  0  0  0  0  0  0  0  0
  147.8411  132.0159  152.5775 N   0  3  0  0  0  0  0  0  0  0  0  0
  146.6777  131.2505  153.1069 C   0  0  0  0  0  0  0  0  0  0  0  0
  145.5572  131.1450  152.0575 C   0  0  0  0  0  0  0  0  0  0  0  0
  145.1633  132.4423  151.6363 O   0  0  0  0  0  0  0  0  0  0  0  0
  146.2397  133.1398  151.0281 C   0  0  0  0  0  0  0  0  0  0  0  0
  147.3708  133.3271  152.0516 C   0  0  0  0  0  0  0  0  0  0  0  0
  150.3837  139.0463  154.2543 C   0  0  0  0  0  0  0  0  0  0  0  0
  150.8128  140.2143  154.7781 N   0  0  0  0  0  0  0  0  0  0  0  0
  151.6894  142.6465  158.3535 H   0  0  0  0  0  0  0  0  0  0  0  0
  151.9264  140.9192  158.5950 H   0  0  0  0  0  0  0  0  0  0  0  0
  150.2855  141.5889  158.4480 H   0  0  0  0  0  0  0  0  0  0  0  0
  150.7610  139.3486  158.0591 H   0  0  0  0  0  0  0  0  0  0  0  0
  149.9700  137.1898  157.0838 H   0  0  0  0  0  0  0  0  0  0  0  0
  149.4234  136.6652  153.5242 H   0  0  0  0  0  0  0  0  0  0  0  0
  148.8649  134.8006  153.3494 H   0  0  0  0  0  0  0  0  0  0  0  0
  149.3383  132.8611  155.5541 H   0  0  0  0  0  0  0  0  0  0  0  0
  147.7146  133.1400  154.9704 H   0  0  0  0  0  0  0  0  0  0  0  0
  149.8466  132.5460  152.9282 H   0  0  0  0  0  0  0  0  0  0  0  0
  150.3186  130.8157  154.6615 H   0  0  0  0  0  0  0  0  0  0  0  0
  149.6356  130.0455  153.2664 H   0  0  0  0  0  0  0  0  0  0  0  0
  148.6254  130.3405  154.6742 H   0  0  0  0  0  0  0  0  0  0  0  0
  146.9672  130.2344  153.3723 H   0  0  0  0  0  0  0  0  0  0  0  0
  146.3009  131.7330  154.0101 H   0  0  0  0  0  0  0  0  0  0  0  0
  145.8814  130.5533  151.1997 H   0  0  0  0  0  0  0  0  0  0  0  0
  144.6922  130.6366  152.4836 H   0  0  0  0  0  0  0  0  0  0  0  0
  146.5936  132.6013  150.1473 H   0  0  0  0  0  0  0  0  0  0  0  0
  145.8800  134.1100  150.6846 H   0  0  0  0  0  0  0  0  0  0  0  0
  147.0194  133.9466  152.8783 H   0  0  0  0  0  0  0  0  0  0  0  0
  148.1789  133.8745  151.5707 H   0  0  0  0  0  0  0  0  0  0  0  0
  150.3325  139.0330  153.1774 H   0  0  0  0  0  0  0  0  0  0  0  0
  148.1764  131.4861  151.7855 H   0  0  0  0  0  0  0  0  0  0  0  0
  1  2  1  0  0  0  0
  1 22  1  0  0  0  0
  1 23  1  0  0  0  0
  1 24  1  0  0  0  0
  2  3  1  0  0  0  0
  3 21  1  0  0  0  0
  3  4  2  0  0  0  0
  4  5  1  0  0  0  0
  4 25  1  0  0  0  0
  5  6  2  0  0  0  0
  5 26  1  0  0  0  0
  6  7  1  0  0  0  0
  6 20  1  0  0  0  0
  7  8  1  0  0  0  0
  7 27  1  0  0  0  0
  8  9  2  0  0  0  0
  8 10  1  0  0  0  0
 10 11  1  0  0  0  0
 10 28  1  0  0  0  0
 11 12  1  0  0  0  0
 11 29  1  0  0  0  0
 11 30  1  0  0  0  0
 12 13  1  0  0  0  0
 12 14  1  0  0  0  0
 12 31  1  0  0  0  0
 13 32  1  0  0  0  0
 13 33  1  0  0  0  0
 13 34  1  0  0  0  0
 14 19  1  0  0  0  0
 14 15  1  0  0  0  0
 14 44  1  0  0  0  0
 15 16  1  0  0  0  0
 15 35  1  0  0  0  0
 15 36  1  0  0  0  0
 16 17  1  0  0  0  0
 16 37  1  0  0  0  0
 16 38  1  0  0  0  0
 17 18  1  0  0  0  0
 18 19  1  0  0  0  0
 18 39  1  0  0  0  0
 18 40  1  0  0  0  0
 19 41  1  0  0  0  0
 19 42  1  0  0  0  0
 20 21  2  0  0  0  0
 20 43  1  0  0  0  0
M  CHG  1  14   1
M  END
> <s_m_source_file>
AV-unprocessed.smi

> <i_m_source_file_index>
1190

> <i_lp_mmshare_version>
43012

> <i_f3d_flags>
0

> <s_epik_input>
W0NIM11PYzFbY0hdW2NIXWMoW2NIXW4xKVtOSF1DKD1PKVtOSF1bQ0gyXVtDQEhdKFtDSDNdKU4yW0NIMl1bQ0gyXU9bQ0gyXVtDSDJdMg==

> <s_epik_cmdline>
J2VwaWtfcHl0aG9uJywgJy1waCcsICc3LjAnLCAnLXRuJywgJzgnLCAnLW1hJywgJzIwMCcsICctbWV0YWxfYmluZGluZycsICctaW1hZScsICc8aW5maWxlLm1hZT4nLCAnLW9tYWUnLCAnPG91dGZpbGUubWFlPic=

> <r_lp_tautomer_probability>
1

> <r_epik_Ionization_Penalty>
0.602608

> <r_epik_Ionization_Penalty_Charging>
0.602531

> <r_epik_Ionization_Penalty_Neutral>
7.70246e-05

> <r_epik_State_Penalty>
0.617039

> <r_epik_Charging_Adjusted_Penalty>
1.21957

> <i_epik_Tot_Q>
1

> <i_epik_Tot_abs_Q>
1

> <r_epik_Metal_State_Penalty>
0.617043

> <b_epik_Metal_Only>
0

> <s_lp_Force_Field>
OPLS_2005

> <r_lp_Energy>
23.7469

> <b_lp_Chiralities_Consistent>
1

> <s_lp_Variant>
AV-unprocessed.smi:1190-4

> <Gold.Version>
5.8.1

> <Gold.Id.Protein>
6NUR|6NUR_protein|mol2

> <Gold.PLP.Fitness>
45.7396

> <Gold.PLP.PLP>
-32.4539

> <Gold.PLP.part.hbond>
-4.0000

> <Gold.PLP.part.metal>
0.0000

> <Gold.PLP.part.buried>
-5.8957

> <Gold.PLP.part.nonpolar>
-23.0668

> <Gold.PLP.part.repulsive>
0.2758

> <Gold.PLP.ligand.clash>
0.4488

> <Gold.PLP.ligand.torsion>
0.6847

> <Gold.PLP.Chemscore.Hbond>
3.9920

> <Gold.PLP.Chemscore.CHOScore>
1.0000

> <Gold.PLP.Chemscore.Metal>
0.0000

> <Gold.Chemscore.Hbonds>
donor molecule, donor type, donor heavy atom, donor atom, acceptor molecule, acceptor atom, score
      L1  H     7    27       P1  7948  1.00
      L1  H    10    28       P1  7948  0.99
      L1  H    14    44       P1 10747  1.00
      P1  H  7989  7998       L1    21  1.00
      L1  C    20    43       P1  7957  1.00

> <Gold.PLP.Chemscore.Internal.Correction>
0.1279

> <Gold.Rescore>
     Score         DG    S(hbond)    S(metal)    S(lipo)     H(rot)  DE(clash)    DE(int)     intcor
     16.95     -19.06       3.03        0.00      68.58       1.79       0.01       2.10       ----

> <Gold.Chemscore.Fitness>
16.9515

> <Gold.Chemscore.DG>
-19.0622

> <Gold.Chemscore.ZeroCoef>
-5.4800

> <Gold.Chemscore.Hbond>
3.0348

> <Gold.Chemscore.Metal>
0.0000

> <Gold.Chemscore.Lipo>
68.5760

> <Gold.Chemscore.Internal_Hbond>
0.0000

> <Gold.Chemscore.DEClash>
0.0060

> <Gold.Chemscore.DEInternal>
2.1047

> <Gold.Chemscore.Rot>
1.7881

> <Gold.Chemscore.Internal.Correction>
   9.000000E+99

> <Gold.Chemscore.Hbonds>
donor molecule, donor type, donor heavy atom, donor atom, acceptor molecule, acceptor atom, score
      L1  H     7    27       P1  7948  0.85
      L1  H    10    28       P1  7948  0.26
      L1  H    14    44       P1 10747  1.00
      P1  H  7989  7998       L1    21  0.35

> <Gold.Chemscore.Hbond.Weighted>
-10.1363

> <Gold.Chemscore.Metal.Weighted>
-0.0000

> <Gold.Chemscore.Lipo.Weighted>
-8.0234

> <Gold.Chemscore.Internal_Hbond.Weighted>
0.0000

> <Gold.Chemscore.DEClash.Weighted>
0.0060

> <Gold.Chemscore.DEInternal.Weighted>
2.1047

> <Gold.Chemscore.Rot.Weighted>
4.5775

> <Gold.Chemscore.Internal.Correction.Weighted>
   9.000000E+99

> <Gold.Protein.RotatedTorsions>
[ 6907 6896 6895 6894 ] final   66.28 input  -60.11 | X-H torsion
[ 7974 7965 7964 7962 ] final   44.12 input  175.53 | X-H torsion
[ 8008 7997 7996 7995 ] final  -48.53 input   59.86 | X-H torsion
[ 10167 10162 10161 10158 ] final  -34.17 input  -65.29 | X-H torsion
[ 10718 10713 10712 10709 ] final   72.78 input   66.30 | X-H torsion
[ 10763 10752 10751 10750 ] final  -91.86 input  -60.55 | X-H torsion
[ 11005 11000 10999 10996 ] final  117.06 input  -57.11 | X-H torsion

> <Gold.Protein.ActiveResidues>
 VAL166  LYS551  ARG553  GLY616  TRP617  ASP618  TYR619  PRO620  LYS621  CYS622 
 ASP623  PHE694  ASN695  SER759  ASP760  ASP761  ALA762  ILE779  LEU786  VAL792 
 PHE793  MET794  SER795  GLU796  ALA797  LYS798  CYS799  TRP800  GLU811  SER814 

> <Gold.Protein.RotatedAtoms>
  152.4469  134.5475  159.9856 H   0  0  0  0  0  0  0  0  0  0  0  0  # atno 6907 bound_to 6896
  151.5558  133.3405  159.2969 H   0  0  0  0  0  0  0  0  0  0  0  0  # atno 6908 bound_to 6896
  150.8388  134.7704  159.6978 H   0  0  0  0  0  0  0  0  0  0  0  0  # atno 6909 bound_to 6896
  146.0597  139.5110  142.9666 H   0  0  0  0  0  0  0  0  0  0  0  0  # atno 7974 bound_to 7965
  154.4030  140.1319  156.4354 H   0  0  0  0  0  0  0  0  0  0  0  0  # atno 8008 bound_to 7997
  155.7510  140.3488  155.5130 H   0  0  0  0  0  0  0  0  0  0  0  0  # atno 8009 bound_to 7997
  155.8949  140.1009  157.1382 H   0  0  0  0  0  0  0  0  0  0  0  0  # atno 8010 bound_to 7997
  140.7191  143.3567  151.2045 H   0  0  0  0  0  0  0  0  0  0  0  0  # atno 10167 bound_to 10162
  157.6517  130.9596  150.0976 H   0  0  0  0  0  0  0  0  0  0  0  0  # atno 10718 bound_to 10713
  154.6803  135.5252  153.8254 H   0  0  0  0  0  0  0  0  0  0  0  0  # atno 10763 bound_to 10752
  153.0560  135.6551  154.0586 H   0  0  0  0  0  0  0  0  0  0  0  0  # atno 10764 bound_to 10752
  154.0474  135.2972  155.3325 H   0  0  0  0  0  0  0  0  0  0  0  0  # atno 10765 bound_to 10752
  139.9062  134.9606  156.7294 H   0  0  0  0  0  0  0  0  0  0  0  0  # atno 11005 bound_to 11000
  145.6582  141.0247  143.1723 LP  0  0  0  0  0  0  0  0  0  0  0  0  # atno 17320 bound_to 7965
  144.7167  139.8170  143.7396 LP  0  0  0  0  0  0  0  0  0  0  0  0  # atno 17321 bound_to 7965
  139.7110  143.9377  152.2947 LP  0  0  0  0  0  0  0  0  0  0  0  0  # atno 17342 bound_to 10162
  139.9102  144.6861  150.8571 LP  0  0  0  0  0  0  0  0  0  0  0  0  # atno 17343 bound_to 10162
  156.1908  130.3654  149.8913 LP  0  0  0  0  0  0  0  0  0  0  0  0  # atno 17370 bound_to 10713
  156.6841  130.8870  151.3580 LP  0  0  0  0  0  0  0  0  0  0  0  0  # atno 17371 bound_to 10713
  140.6937  133.9367  155.7982 LP  0  0  0  0  0  0  0  0  0  0  0  0  # atno 17394 bound_to 11000
  141.0422  134.0604  157.3887 LP  0  0  0  0  0  0  0  0  0  0  0  0  # atno 17395 bound_to 11000

$$$$
