AV-unprocessed.smi:1817|AV-procd|sdf|7373|dock3
  -GOLD-   22720 9 43D 1   1.00000     0.00000
 Structure written by MMmdl.
 42 43  0  0  0  0  0  0  0  0  1 V2000
  151.8401  144.5137  159.1478 C   0  0  0  0  0  0  0  0  0  0  0  0
  152.3809  143.0795  159.2343 C   0  0  0  0  0  0  0  0  0  0  0  0
  151.6630  142.1013  158.4195 N   0  0  0  0  0  0  0  0  0  0  0  0
  152.5290  140.9813  158.0652 C   0  0  0  0  0  0  0  0  0  0  0  0
  151.7831  139.9259  157.2290 C   0  0  0  0  0  0  0  0  0  0  0  0
  151.2440  140.4775  155.9757 N   0  0  0  0  0  0  0  0  0  0  0  0
  150.5156  139.4673  155.1726 C   0  0  1  0  0  0  0  0  0  0  0  0
  149.4812  140.1010  154.2079 C   0  0  0  0  0  0  0  0  0  0  0  0
  151.4556  138.5357  154.3575 C   0  0  0  0  0  0  0  0  0  0  0  0
  150.7953  137.3036  153.9326 N   0  0  0  0  0  0  0  0  0  0  0  0
  151.0210  136.0800  154.4322 C   0  0  0  0  0  0  0  0  0  0  0  0
  151.8385  135.8453  155.3219 O   0  0  0  0  0  0  0  0  0  0  0  0
  150.2433  135.1643  153.8324 N   0  0  0  0  0  0  0  0  0  0  0  0
  150.1719  133.7731  154.0933 C   0  0  0  0  0  0  0  0  0  0  0  0
  150.7674  133.3103  155.1988 N   0  0  0  0  0  0  0  0  0  0  0  0
  150.6243  131.9343  155.3304 N   0  0  0  0  0  0  0  0  0  0  0  0
  149.9255  131.4130  154.3175 C   0  0  0  0  0  0  0  0  0  0  0  0
  149.3709  132.5504  153.1019 S   0  0  0  0  0  0  0  0  0  0  0  0
  150.3986  141.6272  156.3347 C   0  0  0  0  0  0  0  0  0  0  0  0
  151.1493  142.6754  157.1770 C   0  0  0  0  0  0  0  0  0  0  0  0
  152.3554  145.1599  159.8585 H   0  0  0  0  0  0  0  0  0  0  0  0
  150.7758  144.5474  159.3823 H   0  0  0  0  0  0  0  0  0  0  0  0
  151.9825  144.9448  158.1570 H   0  0  0  0  0  0  0  0  0  0  0  0
  153.4407  143.0734  158.9755 H   0  0  0  0  0  0  0  0  0  0  0  0
  152.3265  142.7729  160.2797 H   0  0  0  0  0  0  0  0  0  0  0  0
  153.3985  141.3398  157.5115 H   0  0  0  0  0  0  0  0  0  0  0  0
  152.9104  140.5108  158.9722 H   0  0  0  0  0  0  0  0  0  0  0  0
  152.4983  139.1322  157.0244 H   0  0  0  0  0  0  0  0  0  0  0  0
  150.9796  139.4858  157.8217 H   0  0  0  0  0  0  0  0  0  0  0  0
  149.9584  138.8312  155.8624 H   0  0  0  0  0  0  0  0  0  0  0  0
  148.9758  139.3569  153.5935 H   0  0  0  0  0  0  0  0  0  0  0  0
  149.9565  140.8132  153.5329 H   0  0  0  0  0  0  0  0  0  0  0  0
  148.6822  140.6182  154.7365 H   0  0  0  0  0  0  0  0  0  0  0  0
  151.8765  139.0820  153.5117 H   0  0  0  0  0  0  0  0  0  0  0  0
  152.2999  138.1981  154.9549 H   0  0  0  0  0  0  0  0  0  0  0  0
  150.1062  137.3938  153.2005 H   0  0  0  0  0  0  0  0  0  0  0  0
  149.6223  135.5019  153.1118 H   0  0  0  0  0  0  0  0  0  0  0  0
  149.7349  130.3504  154.2866 H   0  0  0  0  0  0  0  0  0  0  0  0
  150.0466  142.1374  155.4401 H   0  0  0  0  0  0  0  0  0  0  0  0
  149.5134  141.2871  156.8744 H   0  0  0  0  0  0  0  0  0  0  0  0
  150.4658  143.4948  157.3957 H   0  0  0  0  0  0  0  0  0  0  0  0
  151.9677  143.0984  156.5920 H   0  0  0  0  0  0  0  0  0  0  0  0
  1  2  1  0  0  0  0
  1 21  1  0  0  0  0
  1 22  1  0  0  0  0
  1 23  1  0  0  0  0
  2  3  1  0  0  0  0
  2 24  1  0  0  0  0
  2 25  1  0  0  0  0
  3 20  1  0  0  0  0
  3  4  1  0  0  0  0
  4  5  1  0  0  0  0
  4 26  1  0  0  0  0
  4 27  1  0  0  0  0
  5  6  1  0  0  0  0
  5 28  1  0  0  0  0
  5 29  1  0  0  0  0
  6  7  1  0  0  0  0
  6 19  1  0  0  0  0
  7  8  1  0  0  0  0
  7  9  1  0  0  0  0
  7 30  1  0  0  0  0
  8 31  1  0  0  0  0
  8 32  1  0  0  0  0
  8 33  1  0  0  0  0
  9 10  1  0  0  0  0
  9 34  1  0  0  0  0
  9 35  1  0  0  0  0
 10 11  1  0  0  0  0
 10 36  1  0  0  0  0
 11 12  2  0  0  0  0
 11 13  1  0  0  0  0
 13 14  1  0  0  0  0
 13 37  1  0  0  0  0
 14 18  1  0  0  0  0
 14 15  2  0  0  0  0
 15 16  1  0  0  0  0
 16 17  2  0  0  0  0
 17 18  1  0  0  0  0
 17 38  1  0  0  0  0
 19 20  1  0  0  0  0
 19 39  1  0  0  0  0
 19 40  1  0  0  0  0
 20 41  1  0  0  0  0
 20 42  1  0  0  0  0
M  END
> <s_m_source_file>
AV-unprocessed.smi

> <i_m_source_file_index>
1817

> <i_lp_mmshare_version>
43012

> <i_f3d_flags>
0

> <s_epik_input>
W0NIM11bQ0gyXU4xW0NIMl1bQ0gyXU4oW0NIMl1bQ0gyXTEpW0NASF0oW0NIM10pW0NIMl1bTkhdQyg9TylbTkhdYzJubltjSF1zMg==

> <s_epik_cmdline>
J2VwaWtfcHl0aG9uJywgJy1waCcsICc3LjAnLCAnLXRuJywgJzgnLCAnLW1hJywgJzIwMCcsICctbWV0YWxfYmluZGluZycsICctaW1hZScsICc8aW5maWxlLm1hZT4nLCAnLW9tYWUnLCAnPG91dGZpbGUubWFlPic=

> <r_lp_tautomer_probability>
1

> <r_epik_Ionization_Penalty>
2.44129

> <r_epik_Ionization_Penalty_Charging>
0

> <r_epik_Ionization_Penalty_Neutral>
2.44129

> <r_epik_State_Penalty>
1.7682

> <r_epik_Charging_Adjusted_Penalty>
1.7682

> <i_epik_Tot_Q>
0

> <i_epik_Tot_abs_Q>
0

> <r_epik_Metal_State_Penalty>
2.10306

> <b_epik_Metal_Only>
0

> <s_lp_Force_Field>
OPLS_2005

> <r_lp_Energy>
39.3002

> <b_lp_Chiralities_Consistent>
1

> <s_lp_Variant>
AV-unprocessed.smi:1817-6

> <Gold.Version>
5.8.1

> <Gold.Id.Protein>
6NUR|6NUR_protein|mol2

> <Gold.PLP.Fitness>
44.8115

> <Gold.PLP.PLP>
-38.2343

> <Gold.PLP.part.hbond>
-4.9573

> <Gold.PLP.part.metal>
0.0000

> <Gold.PLP.part.buried>
-1.8680

> <Gold.PLP.part.nonpolar>
-30.9743

> <Gold.PLP.part.repulsive>
0.2167

> <Gold.PLP.ligand.clash>
0.0000

> <Gold.PLP.ligand.torsion>
0.9836

> <Gold.PLP.Chemscore.Hbond>
2.8406

> <Gold.PLP.Chemscore.CHOScore>
0.0000

> <Gold.PLP.Chemscore.Metal>
0.0000

> <Gold.Chemscore.Hbonds>
donor molecule, donor type, donor heavy atom, donor atom, acceptor molecule, acceptor atom, score
      L1  H    10    36       P1  7948  0.67
      L1  H    13    37       P1  7948  0.40
      P1  H 10752 10763       L1    12  0.47

> <Gold.PLP.Chemscore.Internal.Correction>
0.0226

> <Gold.Rescore>
     Score         DG    S(hbond)    S(metal)    S(lipo)     H(rot)  DE(clash)    DE(int)     intcor
     14.76     -17.14       2.11        0.00      80.41       1.87       0.00       2.38       ----

> <Gold.Chemscore.Fitness>
14.7647

> <Gold.Chemscore.DG>
-17.1402

> <Gold.Chemscore.ZeroCoef>
-5.4800

> <Gold.Chemscore.Hbond>
2.1102

> <Gold.Chemscore.Metal>
0.0000

> <Gold.Chemscore.Lipo>
80.4092

> <Gold.Chemscore.Internal_Hbond>
0.0000

> <Gold.Chemscore.DEClash>
0.0000

> <Gold.Chemscore.DEInternal>
2.3756

> <Gold.Chemscore.Rot>
1.8733

> <Gold.Chemscore.Internal.Correction>
   9.000000E+99

> <Gold.Chemscore.Hbonds>
donor molecule, donor type, donor heavy atom, donor atom, acceptor molecule, acceptor atom, score
      L1  H    10    36       P1  7948  0.13
      L1  H    13    37       P1  7948  0.01
      P1  H 10752 10763       L1    12  0.44

> <Gold.Chemscore.Hbond.Weighted>
-7.0480

> <Gold.Chemscore.Metal.Weighted>
-0.0000

> <Gold.Chemscore.Lipo.Weighted>
-9.4079

> <Gold.Chemscore.Internal_Hbond.Weighted>
0.0000

> <Gold.Chemscore.DEClash.Weighted>
0.0000

> <Gold.Chemscore.DEInternal.Weighted>
2.3756

> <Gold.Chemscore.Rot.Weighted>
4.7957

> <Gold.Chemscore.Internal.Correction.Weighted>
   9.000000E+99

> <Gold.Protein.RotatedTorsions>
[ 6907 6896 6895 6894 ] final  -23.14 input  -60.11 | X-H torsion
[ 7974 7965 7964 7962 ] final   -9.45 input  175.53 | X-H torsion
[ 8008 7997 7996 7995 ] final   38.54 input   59.86 | X-H torsion
[ 10167 10162 10161 10158 ] final   21.34 input  -65.29 | X-H torsion
[ 10718 10713 10712 10709 ] final -173.58 input   66.30 | X-H torsion
[ 10763 10752 10751 10750 ] final   80.99 input  -60.55 | X-H torsion
[ 11005 11000 10999 10996 ] final  124.37 input  -57.11 | X-H torsion

> <Gold.Protein.ActiveResidues>
 VAL166  LYS551  ARG553  GLY616  TRP617  ASP618  TYR619  PRO620  LYS621  CYS622 
 ASP623  PHE694  ASN695  SER759  ASP760  ASP761  ALA762  ILE779  LEU786  VAL792 
 PHE793  MET794  SER795  GLU796  ALA797  LYS798  CYS799  TRP800  GLU811  SER814 

> <Gold.Protein.RotatedAtoms>
  151.2084  135.0471  159.8900 H   0  0  0  0  0  0  0  0  0  0  0  0  # atno 6907 bound_to 6896
  152.5427  134.0772  159.8230 H   0  0  0  0  0  0  0  0  0  0  0  0  # atno 6908 bound_to 6896
  151.0922  133.5259  159.2646 H   0  0  0  0  0  0  0  0  0  0  0  0  # atno 6909 bound_to 6896
  146.2251  140.2617  142.8352 H   0  0  0  0  0  0  0  0  0  0  0  0  # atno 7974 bound_to 7965
  155.2219  140.3331  155.4314 H   0  0  0  0  0  0  0  0  0  0  0  0  # atno 8008 bound_to 7997
  156.2330  140.1859  156.7241 H   0  0  0  0  0  0  0  0  0  0  0  0  # atno 8009 bound_to 7997
  154.6010  140.0623  156.9354 H   0  0  0  0  0  0  0  0  0  0  0  0  # atno 8010 bound_to 7997
  140.5434  143.9636  150.6533 H   0  0  0  0  0  0  0  0  0  0  0  0  # atno 10167 bound_to 10162
  156.7724  130.9453  151.3120 H   0  0  0  0  0  0  0  0  0  0  0  0  # atno 10718 bound_to 10713
  153.1079  135.4782  154.8984 H   0  0  0  0  0  0  0  0  0  0  0  0  # atno 10763 bound_to 10752
  154.7450  135.3091  154.8663 H   0  0  0  0  0  0  0  0  0  0  0  0  # atno 10764 bound_to 10752
  153.9260  135.6850  153.4800 H   0  0  0  0  0  0  0  0  0  0  0  0  # atno 10765 bound_to 10752
  139.9355  134.9639  156.8399 H   0  0  0  0  0  0  0  0  0  0  0  0  # atno 11005 bound_to 11000
  144.9334  140.8000  143.5675 LP  0  0  0  0  0  0  0  0  0  0  0  0  # atno 17320 bound_to 7965
  145.2563  139.2011  143.4916 LP  0  0  0  0  0  0  0  0  0  0  0  0  # atno 17321 bound_to 7965
  140.3043  143.3240  152.0941 LP  0  0  0  0  0  0  0  0  0  0  0  0  # atno 17342 bound_to 10162
  139.4998  144.6677  151.6318 LP  0  0  0  0  0  0  0  0  0  0  0  0  # atno 17343 bound_to 10162
  157.6684  130.9029  149.9985 LP  0  0  0  0  0  0  0  0  0  0  0  0  # atno 17370 bound_to 10713
  156.1269  130.3644  149.9794 LP  0  0  0  0  0  0  0  0  0  0  0  0  # atno 17371 bound_to 10713
  140.6086  134.0103  155.7567 LP  0  0  0  0  0  0  0  0  0  0  0  0  # atno 17394 bound_to 11000
  141.0967  133.9832  157.3148 LP  0  0  0  0  0  0  0  0  0  0  0  0  # atno 17395 bound_to 11000

$$$$
