AV-unprocessed.smi:914|AV-procd|sdf|4152|dock8
  -GOLD-   22720 2 53D 1   1.00000     0.00000
 Structure written by MMmdl.
 32 33  0  0  0  0  0  0  0  0  2 V2000
  150.9234  135.6581  154.7909 O   0  0  0  0  0  0  0  0  0  0  0  0
  150.7473  136.8704  154.9040 C   0  0  0  0  0  0  0  0  0  0  0  0
  151.7762  137.7676  154.9019 N   0  5  0  0  0  0  0  0  0  0  0  0
  151.6004  139.1197  155.0239 C   0  0  0  0  0  0  0  0  0  0  0  0
  152.5476  139.9062  155.0254 O   0  0  0  0  0  0  0  0  0  0  0  0
  150.3305  139.6091  155.1497 N   0  0  0  0  0  0  0  0  0  0  0  0
  150.0420  141.0426  155.3033 C   0  0  0  0  0  0  0  0  0  0  0  0
  149.3471  141.3351  156.6422 C   0  0  0  0  0  0  0  0  0  0  0  0
  150.3294  141.4594  157.6548 O   0  0  0  0  0  0  0  0  0  0  0  0
  151.2799  142.4760  157.3963 C   0  0  0  0  0  0  0  0  0  0  0  0
  151.0146  143.6360  158.3626 C   0  0  2  0  0  0  0  0  0  0  0  0
  152.0283  144.7754  158.2561 C   0  0  0  0  0  0  0  0  0  0  0  0
  151.9419  145.3882  159.6342 C   0  0  0  0  0  0  0  0  0  0  0  0
  151.7825  144.1500  160.5113 C   0  0  0  0  0  0  0  0  0  0  0  0
  151.0910  143.1908  159.7150 O   0  0  0  0  0  0  0  0  0  0  0  0
  149.2368  138.7273  155.1644 C   0  0  0  0  0  0  0  0  0  0  0  0
  149.3906  137.3940  155.0484 C   0  0  0  0  0  0  0  0  0  0  0  0
  148.0263  136.3343  155.0748 Cl  0  0  0  0  0  0  0  0  0  0  0  0
  150.9449  141.6477  155.2076 H   0  0  0  0  0  0  0  0  0  0  0  0
  149.3972  141.3669  154.4854 H   0  0  0  0  0  0  0  0  0  0  0  0
  148.7784  142.2632  156.5743 H   0  0  0  0  0  0  0  0  0  0  0  0
  148.6422  140.5373  156.8823 H   0  0  0  0  0  0  0  0  0  0  0  0
  152.2883  142.0861  157.5410 H   0  0  0  0  0  0  0  0  0  0  0  0
  151.2031  142.8200  156.3636 H   0  0  0  0  0  0  0  0  0  0  0  0
  150.0101  144.0313  158.2038 H   0  0  0  0  0  0  0  0  0  0  0  0
  153.0328  144.3859  158.0838 H   0  0  0  0  0  0  0  0  0  0  0  0
  151.7946  145.4792  157.4562 H   0  0  0  0  0  0  0  0  0  0  0  0
  152.8148  145.9873  159.8943 H   0  0  0  0  0  0  0  0  0  0  0  0
  151.0561  146.0206  159.7076 H   0  0  0  0  0  0  0  0  0  0  0  0
  152.7594  143.7411  160.7716 H   0  0  0  0  0  0  0  0  0  0  0  0
  151.2467  144.3624  161.4366 H   0  0  0  0  0  0  0  0  0  0  0  0
  148.2724  139.1998  155.2816 H   0  0  0  0  0  0  0  0  0  0  0  0
  1  2  2  0  0  0  0
  2 17  1  0  0  0  0
  2  3  1  0  0  0  0
  3  4  1  0  0  0  0
  4  5  2  0  0  0  0
  4  6  1  0  0  0  0
  6  7  1  0  0  0  0
  6 16  1  0  0  0  0
  7  8  1  0  0  0  0
  7 19  1  0  0  0  0
  7 20  1  0  0  0  0
  8  9  1  0  0  0  0
  8 21  1  0  0  0  0
  8 22  1  0  0  0  0
  9 10  1  0  0  0  0
 10 11  1  0  0  0  0
 10 23  1  0  0  0  0
 10 24  1  0  0  0  0
 11 15  1  0  0  0  0
 11 12  1  0  0  0  0
 11 25  1  0  0  0  0
 12 13  1  0  0  0  0
 12 26  1  0  0  0  0
 12 27  1  0  0  0  0
 13 14  1  0  0  0  0
 13 28  1  0  0  0  0
 13 29  1  0  0  0  0
 14 15  1  0  0  0  0
 14 30  1  0  0  0  0
 14 31  1  0  0  0  0
 16 17  2  0  0  0  0
 16 32  1  0  0  0  0
 17 18  1  0  0  0  0
M  CHG  1   3  -1
M  END
> <s_m_source_file>
AV-unprocessed.smi

> <i_m_source_file_index>
914

> <i_lp_mmshare_version>
43012

> <i_f3d_flags>
0

> <s_epik_input>
Tz1jMVtuSF1jKD1PKW4oW2NIXWMxQ2wpW0NIMl1bQ0gyXU9bQ0gyXVtDQEBIXTJbQ0gyXVtDSDJdW0NIMl1PMg==

> <s_epik_cmdline>
J2VwaWtfcHl0aG9uJywgJy1waCcsICc3LjAnLCAnLXRuJywgJzgnLCAnLW1hJywgJzIwMCcsICctbWV0YWxfYmluZGluZycsICctaW1hZScsICc8aW5maWxlLm1hZT4nLCAnLW9tYWUnLCAnPG91dGZpbGUubWFlPic=

> <r_epik_Ionization_Penalty>
1.76812

> <r_epik_Ionization_Penalty_Charging>
1.60097e-08

> <r_epik_Ionization_Penalty_Neutral>
1.76812

> <r_epik_State_Penalty>
1.87929

> <r_epik_Charging_Adjusted_Penalty>
1.87929

> <i_epik_Tot_Q>
-1

> <i_epik_Tot_abs_Q>
1

> <r_epik_Metal_State_Penalty>
0.0133872

> <b_epik_Metal_Only>
0

> <s_lp_Force_Field>
OPLS_2005

> <r_lp_Energy>
30.4793

> <b_lp_Chiralities_Consistent>
1

> <s_lp_Variant>
AV-unprocessed.smi:914-3

> <Gold.Version>
5.8.1

> <Gold.Id.Protein>
6NUR|6NUR_protein|mol2

> <Gold.PLP.Fitness>
41.6076

> <Gold.PLP.PLP>
-35.9944

> <Gold.PLP.part.hbond>
-3.5431

> <Gold.PLP.part.metal>
0.0000

> <Gold.PLP.part.buried>
-4.0726

> <Gold.PLP.part.nonpolar>
-28.2143

> <Gold.PLP.part.repulsive>
0.3350

> <Gold.PLP.ligand.clash>
0.0000

> <Gold.PLP.ligand.torsion>
0.4758

> <Gold.PLP.Chemscore.Hbond>
2.1764

> <Gold.PLP.Chemscore.CHOScore>
0.0000

> <Gold.PLP.Chemscore.Metal>
0.0000

> <Gold.Chemscore.Hbonds>
donor molecule, donor type, donor heavy atom, donor atom, acceptor molecule, acceptor atom, score
      P1  H  7989  7998       L1     5  0.26
      P1  H  7997  8010       L1     5  0.81
      P1  H 10752 10764       L1     1  1.00

> <Gold.PLP.Chemscore.Internal.Correction>
0.0357

> <Gold.Rescore>
     Score         DG    S(hbond)    S(metal)    S(lipo)     H(rot)  DE(clash)    DE(int)     intcor
     14.17     -14.98       1.72        0.00      77.28       2.07       0.32       0.49       ----

> <Gold.Chemscore.Fitness>
14.1681

> <Gold.Chemscore.DG>
-14.9766

> <Gold.Chemscore.ZeroCoef>
-5.4800

> <Gold.Chemscore.Hbond>
1.7212

> <Gold.Chemscore.Metal>
0.0000

> <Gold.Chemscore.Lipo>
77.2778

> <Gold.Chemscore.Internal_Hbond>
0.0000

> <Gold.Chemscore.DEClash>
0.3218

> <Gold.Chemscore.DEInternal>
0.4867

> <Gold.Chemscore.Rot>
2.0678

> <Gold.Chemscore.Internal.Correction>
   9.000000E+99

> <Gold.Chemscore.Hbonds>
donor molecule, donor type, donor heavy atom, donor atom, acceptor molecule, acceptor atom, score
      P1  H  7989  7998       L1     5  0.01
      P1  H  7997  8010       L1     5  0.80
      P1  H 10752 10764       L1     1  0.33

> <Gold.Chemscore.Hbond.Weighted>
-5.7487

> <Gold.Chemscore.Metal.Weighted>
-0.0000

> <Gold.Chemscore.Lipo.Weighted>
-9.0415

> <Gold.Chemscore.Internal_Hbond.Weighted>
0.0000

> <Gold.Chemscore.DEClash.Weighted>
0.3218

> <Gold.Chemscore.DEInternal.Weighted>
0.4867

> <Gold.Chemscore.Rot.Weighted>
5.2935

> <Gold.Chemscore.Internal.Correction.Weighted>
   9.000000E+99

> <Gold.Protein.RotatedTorsions>
[ 6907 6896 6895 6894 ] final -106.00 input  -60.11 | X-H torsion
[ 7974 7965 7964 7962 ] final -165.96 input  175.53 | X-H torsion
[ 8008 7997 7996 7995 ] final   99.80 input   59.86 | X-H torsion
[ 10167 10162 10161 10158 ] final -157.57 input  -65.29 | X-H torsion
[ 10718 10713 10712 10709 ] final  -71.31 input   66.30 | X-H torsion
[ 10763 10752 10751 10750 ] final  -58.33 input  -60.55 | X-H torsion
[ 11005 11000 10999 10996 ] final  157.29 input  -57.11 | X-H torsion

> <Gold.Protein.ActiveResidues>
 VAL166  LYS551  ARG553  GLY616  TRP617  ASP618  TYR619  PRO620  LYS621  CYS622 
 ASP623  PHE694  ASN695  SER759  ASP760  ASP761  ALA762  ILE779  LEU786  VAL792 
 PHE793  MET794  SER795  GLU796  ALA797  LYS798  CYS799  TRP800  GLU811  SER814 

> <Gold.Protein.RotatedAtoms>
  150.7366  134.0042  159.3648 H   0  0  0  0  0  0  0  0  0  0  0  0  # atno 6907 bound_to 6896
  151.7998  135.0710  160.0408 H   0  0  0  0  0  0  0  0  0  0  0  0  # atno 6908 bound_to 6896
  152.3149  133.5755  159.5741 H   0  0  0  0  0  0  0  0  0  0  0  0  # atno 6909 bound_to 6896
  144.7257  140.2738  143.6246 H   0  0  0  0  0  0  0  0  0  0  0  0  # atno 7974 bound_to 7965
  156.1140  140.3223  155.8113 H   0  0  0  0  0  0  0  0  0  0  0  0  # atno 8008 bound_to 7997
  155.4622  140.0540  157.3006 H   0  0  0  0  0  0  0  0  0  0  0  0  # atno 8009 bound_to 7997
  154.4780  140.2040  155.9846 H   0  0  0  0  0  0  0  0  0  0  0  0  # atno 8010 bound_to 7997
  139.6760  143.9663  152.2310 H   0  0  0  0  0  0  0  0  0  0  0  0  # atno 10167 bound_to 10162
  156.0368  130.4349  150.2426 H   0  0  0  0  0  0  0  0  0  0  0  0  # atno 10718 bound_to 10713
  154.2365  135.6351  153.5192 H   0  0  0  0  0  0  0  0  0  0  0  0  # atno 10763 bound_to 10752
  152.9938  135.5532  154.5956 H   0  0  0  0  0  0  0  0  0  0  0  0  # atno 10764 bound_to 10752
  154.5452  135.2897  155.1034 H   0  0  0  0  0  0  0  0  0  0  0  0  # atno 10765 bound_to 10752
  140.1756  134.8512  157.2742 H   0  0  0  0  0  0  0  0  0  0  0  0  # atno 11005 bound_to 11000
  145.8017  139.1967  143.2044 LP  0  0  0  0  0  0  0  0  0  0  0  0  # atno 17320 bound_to 7965
  146.0671  140.7909  142.9706 LP  0  0  0  0  0  0  0  0  0  0  0  0  # atno 17321 bound_to 7965
  139.9440  144.6663  150.8238 LP  0  0  0  0  0  0  0  0  0  0  0  0  # atno 17342 bound_to 10162
  140.7635  143.3226  151.2588 LP  0  0  0  0  0  0  0  0  0  0  0  0  # atno 17343 bound_to 10162
  157.0524  131.0066  151.3249 LP  0  0  0  0  0  0  0  0  0  0  0  0  # atno 17370 bound_to 10713
  157.5130  130.7950  149.7726 LP  0  0  0  0  0  0  0  0  0  0  0  0  # atno 17371 bound_to 10713
  140.2327  134.3890  155.7515 LP  0  0  0  0  0  0  0  0  0  0  0  0  # atno 17394 bound_to 11000
  141.2220  133.7223  156.8665 LP  0  0  0  0  0  0  0  0  0  0  0  0  # atno 17395 bound_to 11000

$$$$
