AV-unprocessed.smi:2446|AV-procd|sdf|9641|dock9
  -GOLD-   2272013273D 1   1.00000     0.00000
 Structure written by MMmdl.
 39 40  0  0  0  0  0  0  0  0  1 V2000
  150.5045  137.4744  154.8047 C   0  0  0  0  0  0  0  0  0  0  0  0
  150.1332  138.9470  154.8351 C   0  0  0  0  0  0  0  0  0  0  0  0
  150.8007  139.8231  155.7178 C   0  0  0  0  0  0  0  0  0  0  0  0
  150.5336  141.1424  155.8033 N   0  0  0  0  0  0  0  0  0  0  0  0
  149.5786  141.6444  154.9939 C   0  0  0  0  0  0  0  0  0  0  0  0
  148.8498  140.8623  154.0767 C   0  0  0  0  0  0  0  0  0  0  0  0
  149.1196  139.4746  153.9986 C   0  0  0  0  0  0  0  0  0  0  0  0
  148.4554  138.5944  153.0989 N   0  0  0  0  0  0  0  0  0  0  0  0
  147.2637  138.7391  152.4866 C   0  0  0  0  0  0  0  0  0  0  0  0
  146.5323  139.7209  152.5931 O   0  0  0  0  0  0  0  0  0  0  0  0
  146.9034  137.6860  151.7302 N   0  0  0  0  0  0  0  0  0  0  0  0
  145.6858  137.5028  150.9322 C   0  0  2  0  0  0  0  0  0  0  0  0
  144.4415  137.7813  151.7966 C   0  0  0  0  0  0  0  0  0  0  0  0
  144.2065  136.6837  152.8481 C   0  0  0  0  0  0  0  0  0  0  0  0
  144.1295  135.2932  152.1994 C   0  0  0  0  0  0  0  0  0  0  0  0
  145.3907  134.9821  151.3665 C   0  0  1  0  0  0  0  0  0  0  0  0
  145.3293  133.5801  150.7262 C   0  0  0  0  0  0  0  0  0  0  0  0
  146.4394  133.3254  150.0331 F   0  0  0  0  0  0  0  0  0  0  0  0
  145.1908  132.6523  151.6733 F   0  0  0  0  0  0  0  0  0  0  0  0
  144.2811  133.4975  149.9068 F   0  0  0  0  0  0  0  0  0  0  0  0
  145.6160  136.0889  150.3116 C   0  0  0  0  0  0  0  0  0  0  0  0
  151.3265  137.2593  155.4881 H   0  0  0  0  0  0  0  0  0  0  0  0
  150.8151  137.1791  153.8020 H   0  0  0  0  0  0  0  0  0  0  0  0
  149.6522  136.8612  155.0981 H   0  0  0  0  0  0  0  0  0  0  0  0
  151.5751  139.4568  156.3757 H   0  0  0  0  0  0  0  0  0  0  0  0
  149.3933  142.7052  155.0741 H   0  0  0  0  0  0  0  0  0  0  0  0
  148.1149  141.3436  153.4505 H   0  0  0  0  0  0  0  0  0  0  0  0
  148.9074  137.7024  152.9629 H   0  0  0  0  0  0  0  0  0  0  0  0
  147.5583  136.9181  151.7009 H   0  0  0  0  0  0  0  0  0  0  0  0
  145.6884  138.2391  150.1268 H   0  0  0  0  0  0  0  0  0  0  0  0
  144.5293  138.7530  152.2841 H   0  0  0  0  0  0  0  0  0  0  0  0
  143.5654  137.8459  151.1502 H   0  0  0  0  0  0  0  0  0  0  0  0
  145.0093  136.6994  153.5860 H   0  0  0  0  0  0  0  0  0  0  0  0
  143.2852  136.8874  153.3944 H   0  0  0  0  0  0  0  0  0  0  0  0
  143.9978  134.5401  152.9767 H   0  0  0  0  0  0  0  0  0  0  0  0
  143.2441  135.2377  151.5649 H   0  0  0  0  0  0  0  0  0  0  0  0
  146.2449  134.9876  152.0453 H   0  0  0  0  0  0  0  0  0  0  0  0
  144.8007  136.0639  149.5875 H   0  0  0  0  0  0  0  0  0  0  0  0
  146.5224  135.8826  149.7426 H   0  0  0  0  0  0  0  0  0  0  0  0
  1  2  1  0  0  0  0
  1 22  1  0  0  0  0
  1 23  1  0  0  0  0
  1 24  1  0  0  0  0
  2  7  1  0  0  0  0
  2  3  2  0  0  0  0
  3  4  1  0  0  0  0
  3 25  1  0  0  0  0
  4  5  2  0  0  0  0
  5  6  1  0  0  0  0
  5 26  1  0  0  0  0
  6  7  2  0  0  0  0
  6 27  1  0  0  0  0
  7  8  1  0  0  0  0
  8  9  1  0  0  0  0
  8 28  1  0  0  0  0
  9 10  2  0  0  0  0
  9 11  1  0  0  0  0
 11 12  1  0  0  0  0
 11 29  1  0  0  0  0
 12 21  1  0  0  0  0
 12 13  1  0  0  0  0
 12 30  1  0  0  0  0
 13 14  1  0  0  0  0
 13 31  1  0  0  0  0
 13 32  1  0  0  0  0
 14 15  1  0  0  0  0
 14 33  1  0  0  0  0
 14 34  1  0  0  0  0
 15 16  1  0  0  0  0
 15 35  1  0  0  0  0
 15 36  1  0  0  0  0
 16 17  1  0  0  0  0
 16 21  1  0  0  0  0
 16 37  1  0  0  0  0
 17 18  1  0  0  0  0
 17 19  1  0  0  0  0
 17 20  1  0  0  0  0
 21 38  1  0  0  0  0
 21 39  1  0  0  0  0
M  END
> <s_m_source_file>
AV-unprocessed.smi

> <i_m_source_file_index>
2446

> <i_lp_mmshare_version>
43012

> <i_f3d_flags>
0

> <s_epik_input>
W0NIM11jMVtjSF1uW2NIXVtjSF1jMVtOSF1DKD1PKVtOSF1bQ0BASF0yW0NIMl1bQ0gyXVtDSDJdW0NAQEhdKEMoRikoRilGKVtDSDJdMg==

> <s_epik_cmdline>
J2VwaWtfcHl0aG9uJywgJy1waCcsICc3LjAnLCAnLXRuJywgJzgnLCAnLW1hJywgJzIwMCcsICctbWV0YWxfYmluZGluZycsICctaW1hZScsICc8aW5maWxlLm1hZT4nLCAnLW9tYWUnLCAnPG91dGZpbGUubWFlPic=

> <r_epik_Ionization_Penalty>
0.20168

> <r_epik_Ionization_Penalty_Charging>
0

> <r_epik_Ionization_Penalty_Neutral>
0.20168

> <r_epik_State_Penalty>
0.191514

> <r_epik_Charging_Adjusted_Penalty>
0.191514

> <i_epik_Tot_Q>
0

> <i_epik_Tot_abs_Q>
0

> <r_epik_Metal_State_Penalty>
0.142371

> <b_epik_Metal_Only>
0

> <s_lp_Force_Field>
OPLS_2005

> <r_lp_Energy>
25.5489

> <b_lp_Chiralities_Consistent>
1

> <s_lp_Variant>
AV-unprocessed.smi:2446-1

> <Gold.Version>
5.8.1

> <Gold.Id.Protein>
6NUR|6NUR_protein|mol2

> <Gold.PLP.Fitness>
45.9107

> <Gold.PLP.PLP>
-37.5009

> <Gold.PLP.part.hbond>
-3.6276

> <Gold.PLP.part.metal>
0.0000

> <Gold.PLP.part.buried>
0.3139

> <Gold.PLP.part.nonpolar>
-36.1777

> <Gold.PLP.part.repulsive>
1.2529

> <Gold.PLP.ligand.clash>
0.0000

> <Gold.PLP.ligand.torsion>
0.1493

> <Gold.PLP.Chemscore.Hbond>
1.8960

> <Gold.PLP.Chemscore.CHOScore>
1.0000

> <Gold.PLP.Chemscore.Metal>
0.0000

> <Gold.Chemscore.Hbonds>
donor molecule, donor type, donor heavy atom, donor atom, acceptor molecule, acceptor atom, score
      L1  H     8    28       P1  7948  0.86
      L1  H    11    29       P1  7948  1.00
      L1  C     5    26       P1  8028  1.00

> <Gold.PLP.Chemscore.Internal.Correction>
0.0204

> <Gold.Rescore>
     Score         DG    S(hbond)    S(metal)    S(lipo)     H(rot)  DE(clash)    DE(int)     intcor
     15.24     -17.40       1.93        0.00      68.69       1.00       0.14       2.02       ----

> <Gold.Chemscore.Fitness>
15.2446

> <Gold.Chemscore.DG>
-17.3995

> <Gold.Chemscore.ZeroCoef>
-5.4800

> <Gold.Chemscore.Hbond>
1.9291

> <Gold.Chemscore.Metal>
0.0000

> <Gold.Chemscore.Lipo>
68.6853

> <Gold.Chemscore.Internal_Hbond>
0.0000

> <Gold.Chemscore.DEClash>
0.1380

> <Gold.Chemscore.DEInternal>
2.0169

> <Gold.Chemscore.Rot>
1.0000

> <Gold.Chemscore.Internal.Correction>
   9.000000E+99

> <Gold.Chemscore.Hbonds>
donor molecule, donor type, donor heavy atom, donor atom, acceptor molecule, acceptor atom, score
      L1  H     8    28       P1  7948  0.85
      L1  H    11    29       P1  7948  0.92

> <Gold.Chemscore.Hbond.Weighted>
-6.4433

> <Gold.Chemscore.Metal.Weighted>
-0.0000

> <Gold.Chemscore.Lipo.Weighted>
-8.0362

> <Gold.Chemscore.Internal_Hbond.Weighted>
0.0000

> <Gold.Chemscore.DEClash.Weighted>
0.1380

> <Gold.Chemscore.DEInternal.Weighted>
2.0169

> <Gold.Chemscore.Rot.Weighted>
2.5600

> <Gold.Chemscore.Internal.Correction.Weighted>
   9.000000E+99

> <Gold.Protein.RotatedTorsions>
[ 6907 6896 6895 6894 ] final -111.49 input  -60.11 | X-H torsion
[ 7974 7965 7964 7962 ] final -166.17 input  175.53 | X-H torsion
[ 8008 7997 7996 7995 ] final  129.32 input   59.86 | X-H torsion
[ 10167 10162 10161 10158 ] final  121.68 input  -65.29 | X-H torsion
[ 10718 10713 10712 10709 ] final -105.59 input   66.30 | X-H torsion
[ 10763 10752 10751 10750 ] final   35.56 input  -60.55 | X-H torsion
[ 11005 11000 10999 10996 ] final  179.16 input  -57.11 | X-H torsion

> <Gold.Protein.ActiveResidues>
 VAL166  LYS551  ARG553  GLY616  TRP617  ASP618  TYR619  PRO620  LYS621  CYS622 
 ASP623  PHE694  ASN695  SER759  ASP760  ASP761  ALA762  ILE779  LEU786  VAL792 
 PHE793  MET794  SER795  GLU796  ALA797  LYS798  CYS799  TRP800  GLU811  SER814 

> <Gold.Protein.RotatedAtoms>
  150.7694  133.9227  159.3402 H   0  0  0  0  0  0  0  0  0  0  0  0  # atno 6907 bound_to 6896
  151.7117  135.0909  160.0278 H   0  0  0  0  0  0  0  0  0  0  0  0  # atno 6908 bound_to 6896
  152.3705  133.6375  159.6119 H   0  0  0  0  0  0  0  0  0  0  0  0  # atno 6909 bound_to 6896
  144.7252  140.2706  143.6251 H   0  0  0  0  0  0  0  0  0  0  0  0  # atno 7974 bound_to 7965
  156.2933  140.2623  156.2579 H   0  0  0  0  0  0  0  0  0  0  0  0  # atno 8008 bound_to 7997
  154.9817  140.0389  157.2299 H   0  0  0  0  0  0  0  0  0  0  0  0  # atno 8009 bound_to 7997
  154.7765  140.2787  155.6101 H   0  0  0  0  0  0  0  0  0  0  0  0  # atno 8010 bound_to 7997
  139.5905  144.7023  151.3302 H   0  0  0  0  0  0  0  0  0  0  0  0  # atno 10167 bound_to 10162
  156.0353  130.5571  150.7561 H   0  0  0  0  0  0  0  0  0  0  0  0  # atno 10718 bound_to 10713
  153.0114  135.6330  154.1847 H   0  0  0  0  0  0  0  0  0  0  0  0  # atno 10763 bound_to 10752
  154.1589  135.2824  155.3116 H   0  0  0  0  0  0  0  0  0  0  0  0  # atno 10764 bound_to 10752
  154.5997  135.5591  153.7422 H   0  0  0  0  0  0  0  0  0  0  0  0  # atno 10765 bound_to 10752
  140.4031  134.6759  157.4573 H   0  0  0  0  0  0  0  0  0  0  0  0  # atno 11005 bound_to 11000
  145.8046  139.1978  143.2028 LP  0  0  0  0  0  0  0  0  0  0  0  0  # atno 17320 bound_to 7965
  146.0647  140.7933  142.9717 LP  0  0  0  0  0  0  0  0  0  0  0  0  # atno 17321 bound_to 7965
  140.7169  143.7243  150.7672 LP  0  0  0  0  0  0  0  0  0  0  0  0  # atno 17342 bound_to 10162
  140.0797  143.4980  152.2536 LP  0  0  0  0  0  0  0  0  0  0  0  0  # atno 17343 bound_to 10162
  157.5092  131.0924  151.0219 LP  0  0  0  0  0  0  0  0  0  0  0  0  # atno 17370 bound_to 10713
  157.0579  130.5813  149.5381 LP  0  0  0  0  0  0  0  0  0  0  0  0  # atno 17371 bound_to 10713
  140.0321  134.6390  155.9092 LP  0  0  0  0  0  0  0  0  0  0  0  0  # atno 17394 bound_to 11000
  141.1849  133.6554  156.5176 LP  0  0  0  0  0  0  0  0  0  0  0  0  # atno 17395 bound_to 11000

$$$$
