AV-unprocessed.smi:3303|AV-procd|sdf|12666|dock10
  -GOLD-   2272019 03D 1   1.00000     0.00000
 Structure written by MMmdl.
 45 46  0  0  0  0  0  0  0  0  3 V2000
  145.8791  142.9217  154.5570 C   0  0  0  0  0  0  0  0  0  0  0  0
  146.8472  141.9107  155.1974 C   0  0  1  0  0  0  0  0  0  0  0  0
  146.1386  140.5817  155.5318 C   0  0  0  0  0  0  0  0  0  0  0  0
  145.8156  139.7908  154.3147 N   0  3  2  0  0  0  0  0  0  0  0  0
  144.9965  138.6027  154.6579 C   0  0  0  0  0  0  0  0  0  0  0  0
  147.0347  139.4787  153.5093 C   0  0  1  0  0  0  0  0  0  0  0  0
  146.7138  138.6779  152.2321 C   0  0  0  0  0  0  0  0  0  0  0  0
  147.7780  140.7777  153.1266 C   0  0  0  0  0  0  0  0  0  0  0  0
  148.1051  141.6721  154.3359 C   0  0  2  0  0  0  0  0  0  0  0  0
  149.2015  141.0874  155.1446 N   0  3  0  0  0  0  0  0  0  0  0  0
  149.5149  141.8247  156.3851 C   0  0  0  0  0  0  0  0  0  0  0  0
  150.9886  141.6526  156.7765 C   0  0  0  0  0  0  0  0  0  0  0  0
  151.4080  142.6340  157.8543 C   0  0  0  0  0  0  0  0  0  0  0  0
  151.5238  144.0121  157.5729 C   0  0  0  0  0  0  0  0  0  0  0  0
  151.9289  144.8755  158.6094 C   0  0  0  0  0  0  0  0  0  0  0  0
  152.2028  144.3300  159.8785 C   0  0  0  0  0  0  0  0  0  0  0  0
  152.0583  142.9397  160.0565 C   0  0  0  0  0  0  0  0  0  0  0  0
  151.6709  142.1029  159.0693 N   0  0  0  0  0  0  0  0  0  0  0  0
  145.4793  142.5621  153.6088 H   0  0  0  0  0  0  0  0  0  0  0  0
  146.3748  143.8744  154.3679 H   0  0  0  0  0  0  0  0  0  0  0  0
  145.0331  143.1225  155.2150 H   0  0  0  0  0  0  0  0  0  0  0  0
  147.1669  142.3607  156.1388 H   0  0  0  0  0  0  0  0  0  0  0  0
  146.7670  139.9796  156.1899 H   0  0  0  0  0  0  0  0  0  0  0  0
  145.2246  140.7913  156.0898 H   0  0  0  0  0  0  0  0  0  0  0  0
  145.5898  137.8556  155.1867 H   0  0  0  0  0  0  0  0  0  0  0  0
  144.5686  138.1409  153.7688 H   0  0  0  0  0  0  0  0  0  0  0  0
  144.1575  138.8819  155.2963 H   0  0  0  0  0  0  0  0  0  0  0  0
  147.6973  138.8699  154.1266 H   0  0  0  0  0  0  0  0  0  0  0  0
  147.6053  138.5533  151.6164 H   0  0  0  0  0  0  0  0  0  0  0  0
  145.9624  139.1825  151.6234 H   0  0  0  0  0  0  0  0  0  0  0  0
  146.3512  137.6749  152.4563 H   0  0  0  0  0  0  0  0  0  0  0  0
  148.6967  140.5404  152.5879 H   0  0  0  0  0  0  0  0  0  0  0  0
  147.1653  141.3432  152.4230 H   0  0  0  0  0  0  0  0  0  0  0  0
  148.4463  142.6352  153.9514 H   0  0  0  0  0  0  0  0  0  0  0  0
  148.9482  140.1420  155.3942 H   0  0  0  0  0  0  0  0  0  0  0  0
  149.2886  142.8816  156.2360 H   0  0  0  0  0  0  0  0  0  0  0  0
  148.8728  141.4649  157.1907 H   0  0  0  0  0  0  0  0  0  0  0  0
  151.1662  140.6352  157.1282 H   0  0  0  0  0  0  0  0  0  0  0  0
  151.6285  141.7925  155.9039 H   0  0  0  0  0  0  0  0  0  0  0  0
  151.3098  144.4017  156.5884 H   0  0  0  0  0  0  0  0  0  0  0  0
  152.0293  145.9366  158.4340 H   0  0  0  0  0  0  0  0  0  0  0  0
  152.5164  144.9615  160.6966 H   0  0  0  0  0  0  0  0  0  0  0  0
  152.2607  142.4872  161.0159 H   0  0  0  0  0  0  0  0  0  0  0  0
  150.0383  141.0570  154.5793 H   0  0  0  0  0  0  0  0  0  0  0  0
  145.2296  140.3798  153.7395 H   0  0  0  0  0  0  0  0  0  0  0  0
  1  2  1  0  0  0  0
  1 19  1  0  0  0  0
  1 20  1  0  0  0  0
  1 21  1  0  0  0  0
  2  9  1  0  0  0  0
  2  3  1  0  0  0  0
  2 22  1  0  0  0  0
  3  4  1  0  0  0  0
  3 23  1  0  0  0  0
  3 24  1  0  0  0  0
  4  5  1  0  0  0  0
  4  6  1  0  0  0  0
  4 45  1  0  0  0  0
  5 25  1  0  0  0  0
  5 26  1  0  0  0  0
  5 27  1  0  0  0  0
  6  7  1  0  0  0  0
  6  8  1  0  0  0  0
  6 28  1  0  0  0  0
  7 29  1  0  0  0  0
  7 30  1  0  0  0  0
  7 31  1  0  0  0  0
  8  9  1  0  0  0  0
  8 32  1  0  0  0  0
  8 33  1  0  0  0  0
  9 10  1  0  0  0  0
  9 34  1  0  0  0  0
 10 11  1  0  0  0  0
 10 35  1  0  0  0  0
 10 44  1  0  0  0  0
 11 12  1  0  0  0  0
 11 36  1  0  0  0  0
 11 37  1  0  0  0  0
 12 13  1  0  0  0  0
 12 38  1  0  0  0  0
 12 39  1  0  0  0  0
 13 18  1  0  0  0  0
 13 14  2  0  0  0  0
 14 15  1  0  0  0  0
 14 40  1  0  0  0  0
 15 16  2  0  0  0  0
 15 41  1  0  0  0  0
 16 17  1  0  0  0  0
 16 42  1  0  0  0  0
 17 18  2  0  0  0  0
 17 43  1  0  0  0  0
M  CHG  1   4   1
M  CHG  1  10   1
M  END
> <s_m_source_file>
AV-unprocessed.smi

> <i_m_source_file_index>
3303

> <i_lp_mmshare_version>
43012

> <i_f3d_flags>
0

> <s_epik_input>
W0NIM11bQ0BASF0xW0NIMl1OKFtDSDNdKVtDQEBIXShbQ0gzXSlbQ0gyXVtDQEhdMVtOSF1bQ0gyXVtDSDJdYzJbY0hdW2NIXVtjSF1bY0hdbjI=

> <s_epik_cmdline>
J2VwaWtfcHl0aG9uJywgJy1waCcsICc3LjAnLCAnLXRuJywgJzgnLCAnLW1hJywgJzIwMCcsICctbWV0YWxfYmluZGluZycsICctaW1hZScsICc8aW5maWxlLm1hZT4nLCAnLW9tYWUnLCAnPG91dGZpbGUubWFlPic=

> <r_epik_Ionization_Penalty>
0.0769462

> <r_epik_Ionization_Penalty_Charging>
0.0759813

> <r_epik_Ionization_Penalty_Neutral>
0.000964829

> <r_epik_State_Penalty>
0.0654373

> <r_epik_Charging_Adjusted_Penalty>
0.141419

> <i_epik_Tot_Q>
2

> <i_epik_Tot_abs_Q>
2

> <r_epik_Metal_State_Penalty>
0.0656439

> <b_epik_Metal_Only>
0

> <s_lp_Force_Field>
OPLS_2005

> <r_lp_Energy>
35.1377

> <b_lp_Chiralities_Consistent>
1

> <s_lp_Variant>
AV-unprocessed.smi:3303-10

> <Gold.Version>
5.8.1

> <Gold.Id.Protein>
6NUR|6NUR_protein|mol2

> <Gold.PLP.Fitness>
43.6265

> <Gold.PLP.PLP>
-38.5038

> <Gold.PLP.part.hbond>
-1.0000

> <Gold.PLP.part.metal>
0.0000

> <Gold.PLP.part.buried>
-0.6602

> <Gold.PLP.part.nonpolar>
-37.8225

> <Gold.PLP.part.repulsive>
0.1343

> <Gold.PLP.ligand.clash>
0.0000

> <Gold.PLP.ligand.torsion>
0.3237

> <Gold.PLP.Chemscore.Hbond>
1.9200

> <Gold.PLP.Chemscore.CHOScore>
0.0000

> <Gold.PLP.Chemscore.Metal>
0.0000

> <Gold.Chemscore.Hbonds>
donor molecule, donor type, donor heavy atom, donor atom, acceptor molecule, acceptor atom, score
      L1  H     4    45       P1 10175  1.89

> <Gold.PLP.Chemscore.Internal.Correction>
0.0101

> <Gold.Rescore>
     Score         DG    S(hbond)    S(metal)    S(lipo)     H(rot)  DE(clash)    DE(int)     intcor
     17.06     -18.72       0.89        0.00     117.81       1.37       1.16       0.51       ----

> <Gold.Chemscore.Fitness>
17.0610

> <Gold.Chemscore.DG>
-18.7239

> <Gold.Chemscore.ZeroCoef>
-5.4800

> <Gold.Chemscore.Hbond>
0.8917

> <Gold.Chemscore.Metal>
0.0000

> <Gold.Chemscore.Lipo>
117.8129

> <Gold.Chemscore.Internal_Hbond>
0.0000

> <Gold.Chemscore.DEClash>
1.1561

> <Gold.Chemscore.DEInternal>
0.5068

> <Gold.Chemscore.Rot>
1.3744

> <Gold.Chemscore.Internal.Correction>
   9.000000E+99

> <Gold.Chemscore.Hbonds>
donor molecule, donor type, donor heavy atom, donor atom, acceptor molecule, acceptor atom, score
      L1  H     4    45       P1 10175  0.87

> <Gold.Chemscore.Hbond.Weighted>
-2.9783

> <Gold.Chemscore.Metal.Weighted>
-0.0000

> <Gold.Chemscore.Lipo.Weighted>
-13.7841

> <Gold.Chemscore.Internal_Hbond.Weighted>
0.0000

> <Gold.Chemscore.DEClash.Weighted>
1.1561

> <Gold.Chemscore.DEInternal.Weighted>
0.5068

> <Gold.Chemscore.Rot.Weighted>
3.5185

> <Gold.Chemscore.Internal.Correction.Weighted>
   9.000000E+99

> <Gold.Protein.RotatedTorsions>
[ 6907 6896 6895 6894 ] final  107.11 input  -60.11 | X-H torsion
[ 7974 7965 7964 7962 ] final    3.77 input  175.53 | X-H torsion
[ 8008 7997 7996 7995 ] final  -90.52 input   59.86 | X-H torsion
[ 10167 10162 10161 10158 ] final  -38.89 input  -65.29 | X-H torsion
[ 10718 10713 10712 10709 ] final  179.16 input   66.30 | X-H torsion
[ 10763 10752 10751 10750 ] final  157.01 input  -60.55 | X-H torsion
[ 11005 11000 10999 10996 ] final  -77.38 input  -57.11 | X-H torsion

> <Gold.Protein.ActiveResidues>
 VAL166  LYS551  ARG553  GLY616  TRP617  ASP618  TYR619  PRO620  LYS621  CYS622 
 ASP623  PHE694  ASN695  SER759  ASP760  ASP761  ALA762  ILE779  LEU786  VAL792 
 PHE793  MET794  SER795  GLU796  ALA797  LYS798  CYS799  TRP800  GLU811  SER814 

> <Gold.Protein.RotatedAtoms>
  152.5167  133.9282  159.7567 H   0  0  0  0  0  0  0  0  0  0  0  0  # atno 6907 bound_to 6896
  150.9639  133.6408  159.2756 H   0  0  0  0  0  0  0  0  0  0  0  0  # atno 6908 bound_to 6896
  151.3643  135.0915  159.9497 H   0  0  0  0  0  0  0  0  0  0  0  0  # atno 6909 bound_to 6896
  146.2445  140.0635  142.8367 H   0  0  0  0  0  0  0  0  0  0  0  0  # atno 7974 bound_to 7965
  154.6996  140.0529  157.0445 H   0  0  0  0  0  0  0  0  0  0  0  0  # atno 8008 bound_to 7997
  155.0703  140.3199  155.4614 H   0  0  0  0  0  0  0  0  0  0  0  0  # atno 8009 bound_to 7997
  156.2755  140.2083  156.5830 H   0  0  0  0  0  0  0  0  0  0  0  0  # atno 8010 bound_to 7997
  140.7080  143.3249  151.2704 H   0  0  0  0  0  0  0  0  0  0  0  0  # atno 10167 bound_to 10162
  156.8798  130.9812  151.3063 H   0  0  0  0  0  0  0  0  0  0  0  0  # atno 10718 bound_to 10713
  154.1934  135.2794  155.3014 H   0  0  0  0  0  0  0  0  0  0  0  0  # atno 10763 bound_to 10752
  154.5911  135.5559  153.7283 H   0  0  0  0  0  0  0  0  0  0  0  0  # atno 10764 bound_to 10752
  153.0106  135.6368  154.2072 H   0  0  0  0  0  0  0  0  0  0  0  0  # atno 10765 bound_to 10752
  141.1660  133.7020  156.7812 H   0  0  0  0  0  0  0  0  0  0  0  0  # atno 11005 bound_to 11000
  145.0879  140.9264  143.4787 LP  0  0  0  0  0  0  0  0  0  0  0  0  # atno 17320 bound_to 7965
  145.0802  139.2966  143.5787 LP  0  0  0  0  0  0  0  0  0  0  0  0  # atno 17321 bound_to 7965
  139.6714  144.0014  152.2755 LP  0  0  0  0  0  0  0  0  0  0  0  0  # atno 17342 bound_to 10162
  139.9614  144.6555  150.8076 LP  0  0  0  0  0  0  0  0  0  0  0  0  # atno 17343 bound_to 10162
  157.6147  130.8609  149.9008 LP  0  0  0  0  0  0  0  0  0  0  0  0  # atno 17370 bound_to 10713
  156.0683  130.3689  150.0831 LP  0  0  0  0  0  0  0  0  0  0  0  0  # atno 17371 bound_to 10713
  140.2393  134.8625  157.3557 LP  0  0  0  0  0  0  0  0  0  0  0  0  # atno 17394 bound_to 11000
  140.1812  134.4488  155.7771 LP  0  0  0  0  0  0  0  0  0  0  0  0  # atno 17395 bound_to 11000

$$$$
