AV-unprocessed.smi:890|AV-procd|sdf|4061|dock9
  -GOLD-   22720 1553D 1   1.00000     0.00000
 Structure written by MMmdl.
 53 56  0  0  0  0  0  0  0  0  3 V2000
  150.7926  137.8831  155.3042 O   0  0  0  0  0  0  0  0  0  0  0  0
  150.2157  137.5522  154.2698 C   0  0  0  0  0  0  0  0  0  0  0  0
  150.1886  136.3150  153.7446 N   0  0  0  0  0  0  0  0  0  0  0  0
  150.7983  135.1070  154.1994 C   0  0  0  0  0  0  0  0  0  0  0  0
  152.1051  135.0365  154.7507 C   0  0  0  0  0  0  0  0  0  0  0  0
  152.6230  133.7946  155.1686 C   0  0  0  0  0  0  0  0  0  0  0  0
  151.8329  132.6395  155.0311 C   0  0  0  0  0  0  0  0  0  0  0  0
  150.5957  132.7367  154.5032 N   0  3  0  0  0  0  0  0  0  0  0  0
  150.0500  133.9058  154.0871 C   0  0  0  0  0  0  0  0  0  0  0  0
  148.7524  133.8920  153.5458 N   0  0  0  0  0  0  0  0  0  0  0  0
  147.6930  133.4832  154.4533 C   0  0  0  0  0  0  0  0  0  0  0  0
  146.4867  133.1817  153.5602 C   0  0  0  0  0  0  0  0  0  0  0  0
  147.0810  132.9122  152.1719 C   0  0  0  0  0  0  0  0  0  0  0  0
  148.5922  133.0813  152.3505 C   0  0  0  0  0  0  0  0  0  0  0  0
  149.5192  138.4102  153.5104 N   0  0  0  0  0  0  0  0  0  0  0  0
  149.3488  139.8340  153.7865 C   0  0  2  0  0  0  0  0  0  0  0  0
  150.6810  140.4315  154.2710 C   0  0  0  0  0  0  0  0  0  0  0  0
  150.5193  141.9094  154.6755 C   0  0  0  0  0  0  0  0  0  0  0  0
  149.4541  142.0965  155.6935 N   0  3  2  0  0  0  0  0  0  0  0  0
  149.8494  141.6401  157.0471 C   0  0  0  0  0  0  0  0  0  0  0  0
  149.6689  142.6898  158.1187 C   0  0  0  0  0  0  0  0  0  0  0  0
  151.0529  142.3652  157.6025 C   0  0  0  0  0  0  0  0  0  0  0  0
  148.1512  141.5437  155.2431 C   0  0  0  0  0  0  0  0  0  0  0  0
  148.2560  140.0581  154.8498 C   0  0  0  0  0  0  0  0  0  0  0  0
  149.6550  136.2204  152.8930 H   0  0  0  0  0  0  0  0  0  0  0  0
  152.7352  135.9030  154.8658 H   0  0  0  0  0  0  0  0  0  0  0  0
  153.6163  133.7308  155.5887 H   0  0  0  0  0  0  0  0  0  0  0  0
  152.1503  131.6490  155.3231 H   0  0  0  0  0  0  0  0  0  0  0  0
  147.9821  132.5878  155.0050 H   0  0  0  0  0  0  0  0  0  0  0  0
  147.4711  134.2685  155.1768 H   0  0  0  0  0  0  0  0  0  0  0  0
  145.9102  132.3362  153.9366 H   0  0  0  0  0  0  0  0  0  0  0  0
  145.8209  134.0446  153.5174 H   0  0  0  0  0  0  0  0  0  0  0  0
  146.8304  131.9189  151.7989 H   0  0  0  0  0  0  0  0  0  0  0  0
  146.6986  133.6413  151.4564 H   0  0  0  0  0  0  0  0  0  0  0  0
  149.0481  133.5619  151.4844 H   0  0  0  0  0  0  0  0  0  0  0  0
  149.0656  132.1076  152.4837 H   0  0  0  0  0  0  0  0  0  0  0  0
  149.0728  138.0530  152.6783 H   0  0  0  0  0  0  0  0  0  0  0  0
  149.0607  140.3450  152.8656 H   0  0  0  0  0  0  0  0  0  0  0  0
  151.0621  139.8581  155.1171 H   0  0  0  0  0  0  0  0  0  0  0  0
  151.4329  140.3492  153.4852 H   0  0  0  0  0  0  0  0  0  0  0  0
  151.4640  142.3080  155.0471 H   0  0  0  0  0  0  0  0  0  0  0  0
  150.2622  142.5014  153.7961 H   0  0  0  0  0  0  0  0  0  0  0  0
  149.6884  140.5892  157.2791 H   0  0  0  0  0  0  0  0  0  0  0  0
  149.2403  143.6495  157.8358 H   0  0  0  0  0  0  0  0  0  0  0  0
  149.4177  142.3456  159.1201 H   0  0  0  0  0  0  0  0  0  0  0  0
  151.7136  141.8090  158.2645 H   0  0  0  0  0  0  0  0  0  0  0  0
  151.5418  143.1090  156.9757 H   0  0  0  0  0  0  0  0  0  0  0  0
  147.3999  141.6793  156.0219 H   0  0  0  0  0  0  0  0  0  0  0  0
  147.8103  142.1234  154.3843 H   0  0  0  0  0  0  0  0  0  0  0  0
  147.2910  139.7151  154.4747 H   0  0  0  0  0  0  0  0  0  0  0  0
  148.4683  139.4568  155.7347 H   0  0  0  0  0  0  0  0  0  0  0  0
  149.3200  143.0941  155.7785 H   0  0  0  0  0  0  0  0  0  0  0  0
  150.0424  131.8843  154.4117 H   0  0  0  0  0  0  0  0  0  0  0  0
  1  2  2  0  0  0  0
  2  3  1  0  0  0  0
  2 15  1  0  0  0  0
  3  4  1  0  0  0  0
  3 25  1  0  0  0  0
  4  9  1  0  0  0  0
  4  5  2  0  0  0  0
  5  6  1  0  0  0  0
  5 26  1  0  0  0  0
  6  7  2  0  0  0  0
  6 27  1  0  0  0  0
  7  8  1  0  0  0  0
  7 28  1  0  0  0  0
  8  9  2  0  0  0  0
  8 53  1  0  0  0  0
  9 10  1  0  0  0  0
 10 14  1  0  0  0  0
 10 11  1  0  0  0  0
 11 12  1  0  0  0  0
 11 29  1  0  0  0  0
 11 30  1  0  0  0  0
 12 13  1  0  0  0  0
 12 31  1  0  0  0  0
 12 32  1  0  0  0  0
 13 14  1  0  0  0  0
 13 33  1  0  0  0  0
 13 34  1  0  0  0  0
 14 35  1  0  0  0  0
 14 36  1  0  0  0  0
 15 16  1  0  0  0  0
 15 37  1  0  0  0  0
 16 24  1  0  0  0  0
 16 17  1  0  0  0  0
 16 38  1  0  0  0  0
 17 18  1  0  0  0  0
 17 39  1  0  0  0  0
 17 40  1  0  0  0  0
 18 19  1  0  0  0  0
 18 41  1  0  0  0  0
 18 42  1  0  0  0  0
 19 20  1  0  0  0  0
 19 23  1  0  0  0  0
 19 52  1  0  0  0  0
 20 22  1  0  0  0  0
 20 21  1  0  0  0  0
 20 43  1  0  0  0  0
 21 22  1  0  0  0  0
 21 44  1  0  0  0  0
 21 45  1  0  0  0  0
 22 46  1  0  0  0  0
 22 47  1  0  0  0  0
 23 24  1  0  0  0  0
 23 48  1  0  0  0  0
 23 49  1  0  0  0  0
 24 50  1  0  0  0  0
 24 51  1  0  0  0  0
M  CHG  1   8   1
M  CHG  1  19   1
M  END
> <s_m_source_file>
AV-unprocessed.smi

> <i_m_source_file_index>
890

> <i_lp_mmshare_version>
43012

> <i_f3d_flags>
0

> <s_epik_input>
W0NIMl0xW0NIMl1bQ0hdMU4oW0NIMl1bQ0gyXTIpW0NIMl1bQ0gyXVtDSF0yW05IXUMoPU8pW05IXWMzW2NIXVtjSF1bY0hdbmMzTjRbQ0gyXVtDSDJdW0NIMl1bQ0gyXTQ=

> <s_epik_cmdline>
J2VwaWtfcHl0aG9uJywgJy1waCcsICc3LjAnLCAnLXRuJywgJzgnLCAnLW1hJywgJzIwMCcsICctbWV0YWxfYmluZGluZycsICctaW1hZScsICc8aW5maWxlLm1hZT4nLCAnLW9tYWUnLCAnPG91dGZpbGUubWFlPic=

> <r_lp_tautomer_probability>
0.999994

> <r_epik_Ionization_Penalty>
1.36901

> <r_epik_Ionization_Penalty_Charging>
1.36899

> <r_epik_Ionization_Penalty_Neutral>
1.88098e-05

> <r_epik_State_Penalty>
1.38441

> <r_epik_Charging_Adjusted_Penalty>
2.7534

> <i_epik_Tot_Q>
2

> <i_epik_Tot_abs_Q>
2

> <r_epik_Metal_State_Penalty>
1.45718

> <b_epik_Metal_Only>
0

> <s_lp_Force_Field>
OPLS_2005

> <r_lp_Energy>
67.0325

> <b_lp_Chiralities_Consistent>
1

> <s_lp_Variant>
AV-unprocessed.smi:890-5

> <Gold.Version>
5.8.1

> <Gold.Id.Protein>
6NUR|6NUR_protein|mol2

> <Gold.PLP.Fitness>
43.4689

> <Gold.PLP.PLP>
-33.0736

> <Gold.PLP.part.hbond>
-3.0417

> <Gold.PLP.part.metal>
0.0000

> <Gold.PLP.part.buried>
-2.1959

> <Gold.PLP.part.nonpolar>
-26.7606

> <Gold.PLP.part.repulsive>
0.2852

> <Gold.PLP.ligand.clash>
0.0000

> <Gold.PLP.ligand.torsion>
1.2914

> <Gold.PLP.Chemscore.Hbond>
3.8960

> <Gold.PLP.Chemscore.CHOScore>
0.0000

> <Gold.PLP.Chemscore.Metal>
0.0000

> <Gold.Chemscore.Hbonds>
donor molecule, donor type, donor heavy atom, donor atom, acceptor molecule, acceptor atom, score
      L1  H     3    25       P1  7948  0.11
      L1  H    15    37       P1  7948  0.67
      L1  H    19    52       P1  8028  2.00

> <Gold.PLP.Chemscore.Internal.Correction>
1.2900

> <Gold.Rescore>
     Score         DG    S(hbond)    S(metal)    S(lipo)     H(rot)  DE(clash)    DE(int)     intcor
     17.85     -20.50       2.65        0.00      82.26       1.35       0.54       2.10       ----

> <Gold.Chemscore.Fitness>
17.8531

> <Gold.Chemscore.DG>
-20.5012

> <Gold.Chemscore.ZeroCoef>
-5.4800

> <Gold.Chemscore.Hbond>
2.6496

> <Gold.Chemscore.Metal>
0.0000

> <Gold.Chemscore.Lipo>
82.2645

> <Gold.Chemscore.Internal_Hbond>
0.0000

> <Gold.Chemscore.DEClash>
0.5439

> <Gold.Chemscore.DEInternal>
2.1043

> <Gold.Chemscore.Rot>
1.3489

> <Gold.Chemscore.Internal.Correction>
   9.000000E+99

> <Gold.Chemscore.Hbonds>
donor molecule, donor type, donor heavy atom, donor atom, acceptor molecule, acceptor atom, score
      L1  H     3    25       P1  7948  0.01
      L1  H    15    37       P1  7948  0.66
      L1  H    19    52       P1  8028  1.00

> <Gold.Chemscore.Hbond.Weighted>
-8.8495

> <Gold.Chemscore.Metal.Weighted>
-0.0000

> <Gold.Chemscore.Lipo.Weighted>
-9.6249

> <Gold.Chemscore.Internal_Hbond.Weighted>
0.0000

> <Gold.Chemscore.DEClash.Weighted>
0.5439

> <Gold.Chemscore.DEInternal.Weighted>
2.1043

> <Gold.Chemscore.Rot.Weighted>
3.4532

> <Gold.Chemscore.Internal.Correction.Weighted>
   9.000000E+99

> <Gold.Protein.RotatedTorsions>
[ 6907 6896 6895 6894 ] final  122.22 input  -60.11 | X-H torsion
[ 7974 7965 7964 7962 ] final   47.79 input  175.53 | X-H torsion
[ 8008 7997 7996 7995 ] final -175.39 input   59.86 | X-H torsion
[ 10167 10162 10161 10158 ] final -133.99 input  -65.29 | X-H torsion
[ 10718 10713 10712 10709 ] final  178.42 input   66.30 | X-H torsion
[ 10763 10752 10751 10750 ] final  -18.77 input  -60.55 | X-H torsion
[ 11005 11000 10999 10996 ] final  162.27 input  -57.11 | X-H torsion

> <Gold.Protein.ActiveResidues>
 VAL166  LYS551  ARG553  GLY616  TRP617  ASP618  TYR619  PRO620  LYS621  CYS622 
 ASP623  PHE694  ASN695  SER759  ASP760  ASP761  ALA762  ILE779  LEU786  VAL792 
 PHE793  MET794  SER795  GLU796  ALA797  LYS798  CYS799  TRP800  GLU811  SER814 

> <Gold.Protein.RotatedAtoms>
  152.4260  133.7196  159.6525 H   0  0  0  0  0  0  0  0  0  0  0  0  # atno 6907 bound_to 6896
  150.8137  133.8365  159.3176 H   0  0  0  0  0  0  0  0  0  0  0  0  # atno 6908 bound_to 6896
  151.6068  135.1045  160.0124 H   0  0  0  0  0  0  0  0  0  0  0  0  # atno 6909 bound_to 6896
  146.0264  139.4712  142.9865 H   0  0  0  0  0  0  0  0  0  0  0  0  # atno 7974 bound_to 7965
  155.9819  140.1183  157.0718 H   0  0  0  0  0  0  0  0  0  0  0  0  # atno 8008 bound_to 7997
  154.4185  140.1143  156.5515 H   0  0  0  0  0  0  0  0  0  0  0  0  # atno 8009 bound_to 7997
  155.6459  140.3473  155.4733 H   0  0  0  0  0  0  0  0  0  0  0  0  # atno 8010 bound_to 7997
  139.8926  143.6704  152.2609 H   0  0  0  0  0  0  0  0  0  0  0  0  # atno 10167 bound_to 10162
  156.8908  130.9846  151.3049 H   0  0  0  0  0  0  0  0  0  0  0  0  # atno 10718 bound_to 10713
  153.5945  135.7001  153.5409 H   0  0  0  0  0  0  0  0  0  0  0  0  # atno 10763 bound_to 10752
  153.3150  135.4090  155.1368 H   0  0  0  0  0  0  0  0  0  0  0  0  # atno 10764 bound_to 10752
  154.8594  135.3681  154.5478 H   0  0  0  0  0  0  0  0  0  0  0  0  # atno 10765 bound_to 10752
  140.2241  134.8174  157.3250 H   0  0  0  0  0  0  0  0  0  0  0  0  # atno 11005 bound_to 11000
  145.7110  141.0106  143.1453 LP  0  0  0  0  0  0  0  0  0  0  0  0  # atno 17320 bound_to 7965
  144.7011  139.8758  143.7444 LP  0  0  0  0  0  0  0  0  0  0  0  0  # atno 17321 bound_to 7965
  139.7096  144.7622  151.1135 LP  0  0  0  0  0  0  0  0  0  0  0  0  # atno 17342 bound_to 10162
  140.7723  143.5348  150.9380 LP  0  0  0  0  0  0  0  0  0  0  0  0  # atno 17343 bound_to 10162
  157.6085  130.8565  149.8914 LP  0  0  0  0  0  0  0  0  0  0  0  0  # atno 17370 bound_to 10713
  156.0630  130.3696  150.0940 LP  0  0  0  0  0  0  0  0  0  0  0  0  # atno 17371 bound_to 10713
  140.1819  134.4479  155.7767 LP  0  0  0  0  0  0  0  0  0  0  0  0  # atno 17394 bound_to 11000
  141.2221  133.6987  156.7882 LP  0  0  0  0  0  0  0  0  0  0  0  0  # atno 17395 bound_to 11000

$$$$
