AV-unprocessed.smi:49|AV-procd|sdf|479|dock5
  -GOLD-   2262016343D 1   1.00000     0.00000
 Structure written by MMmdl.
 28 29  0  0  0  0  0  0  0  0  2 V2000
  148.9722  130.0034  154.1119 C   0  0  0  0  0  0  0  0  0  0  0  0
  149.3923  131.4758  154.1735 C   0  0  0  0  0  0  0  0  0  0  0  0
  148.3750  132.3891  153.5720 C   0  0  0  0  0  0  0  0  0  0  0  0
  147.9834  132.2744  152.2948 N   0  0  0  0  0  0  0  0  0  0  0  0
  147.0977  133.2725  152.1583 C   0  0  0  0  0  0  0  0  0  0  0  0
  146.3991  133.5240  150.8526 C   0  0  2  0  0  0  0  0  0  0  0  0
  144.8812  133.2921  150.9022 C   0  0  0  0  0  0  0  0  0  0  0  0
  144.7081  131.8640  150.3880 C   0  0  1  0  0  0  0  0  0  0  0  0
  143.4365  131.6516  149.8123 O   0  0  0  0  0  0  0  0  0  0  0  0
  145.8415  131.7261  149.3719 C   0  0  0  0  0  0  0  0  0  0  0  0
  146.9588  132.5054  149.9356 N   0  3  0  0  0  0  0  0  0  0  0  0
  146.9423  133.9850  153.2818 N   0  0  0  0  0  0  0  0  0  0  0  0
  147.7842  133.4021  154.2121 N   0  0  0  0  0  0  0  0  0  0  0  0
  146.6340  134.5272  150.4943 H   0  0  0  0  0  0  0  0  0  0  0  0
  144.8571  131.1571  151.2057 H   0  0  0  0  0  0  0  0  0  0  0  0
  148.2880  131.6022  151.6052 H   0  0  0  0  0  0  0  0  0  0  0  0
  149.7341  129.3632  154.5567 H   0  0  0  0  0  0  0  0  0  0  0  0
  148.8252  129.6789  153.0814 H   0  0  0  0  0  0  0  0  0  0  0  0
  148.0398  129.8373  154.6522 H   0  0  0  0  0  0  0  0  0  0  0  0
  149.5672  131.7693  155.2091 H   0  0  0  0  0  0  0  0  0  0  0  0
  150.3381  131.6128  153.6481 H   0  0  0  0  0  0  0  0  0  0  0  0
  144.4456  133.4579  151.8883 H   0  0  0  0  0  0  0  0  0  0  0  0
  144.3984  133.9847  150.2108 H   0  0  0  0  0  0  0  0  0  0  0  0
  142.7736  131.9770  150.4022 H   0  0  0  0  0  0  0  0  0  0  0  0
  146.1232  130.6892  149.1874 H   0  0  0  0  0  0  0  0  0  0  0  0
  145.5592  132.1766  148.4193 H   0  0  0  0  0  0  0  0  0  0  0  0
  147.5103  132.9300  149.2041 H   0  0  0  0  0  0  0  0  0  0  0  0
  147.5389  131.8851  150.4834 H   0  0  0  0  0  0  0  0  0  0  0  0
  1  2  1  0  0  0  0
  1 17  1  0  0  0  0
  1 18  1  0  0  0  0
  1 19  1  0  0  0  0
  2 20  1  0  0  0  0
  2 21  1  0  0  0  0
  2  3  1  0  0  0  0
  3  4  1  0  0  0  0
  3 13  2  0  0  0  0
  4 16  1  0  0  0  0
  4  5  1  0  0  0  0
  5 12  2  0  0  0  0
  5  6  1  0  0  0  0
  6 14  1  0  0  0  0
  6 11  1  0  0  0  0
  6  7  1  0  0  0  0
  7  8  1  0  0  0  0
  7 22  1  0  0  0  0
  7 23  1  0  0  0  0
  8 15  1  0  0  0  0
  8  9  1  0  0  0  0
  8 10  1  0  0  0  0
  9 24  1  0  0  0  0
 10 11  1  0  0  0  0
 10 25  1  0  0  0  0
 10 26  1  0  0  0  0
 11 27  1  0  0  0  0
 11 28  1  0  0  0  0
 12 13  1  0  0  0  0
M  CHG  1  11   1
M  END
> <s_m_source_file>
AV-unprocessed.smi

> <i_m_source_file_index>
49

> <i_lp_mmshare_version>
43012

> <i_f3d_flags>
0

> <s_epik_input>
W0NIM11bQ0gyXWMxbmMobltuSF0xKVtDQEBIXTJbQ0gyXVtDQEBIXShbT0hdKVtDSDJdW05IXTI=

> <s_epik_cmdline>
J2VwaWtfcHl0aG9uJywgJy1waCcsICc3LjAnLCAnLXRuJywgJzgnLCAnLW1hJywgJzIwMCcsICctbWV0YWxfYmluZGluZycsICctaW1hZScsICc8aW5maWxlLm1hZT4nLCAnLW9tYWUnLCAnPG91dGZpbGUubWFlPic=

> <r_lp_tautomer_probability>
0.0517155

> <r_epik_Ionization_Penalty>
0.939819

> <r_epik_Ionization_Penalty_Charging>
0.0688988

> <r_epik_Ionization_Penalty_Neutral>
0.87092

> <r_epik_State_Penalty>
2.1224

> <r_epik_Charging_Adjusted_Penalty>
2.1913

> <i_epik_Tot_Q>
1

> <i_epik_Tot_abs_Q>
1

> <r_epik_Metal_State_Penalty>
2.39725

> <b_epik_Metal_Only>
0

> <s_lp_Force_Field>
OPLS_2005

> <r_lp_Energy>
21.4308

> <b_lp_Chiralities_Consistent>
1

> <s_lp_Variant>
AV-unprocessed.smi:49-17

> <Gold.Version>
5.8.1

> <Gold.Id.Protein>
6NUR|6NUR_protein|mol2

> <Gold.PLP.Fitness>
36.1940

> <Gold.PLP.PLP>
-27.7133

> <Gold.PLP.part.hbond>
-4.2739

> <Gold.PLP.part.metal>
0.0000

> <Gold.PLP.part.buried>
-5.1042

> <Gold.PLP.part.nonpolar>
-19.0178

> <Gold.PLP.part.repulsive>
0.6523

> <Gold.PLP.ligand.clash>
0.0000

> <Gold.PLP.ligand.torsion>
0.0401

> <Gold.PLP.Chemscore.Hbond>
2.8480

> <Gold.PLP.Chemscore.CHOScore>
0.0000

> <Gold.PLP.Chemscore.Metal>
0.0000

> <Gold.Chemscore.Hbonds>
donor molecule, donor type, donor heavy atom, donor atom, acceptor molecule, acceptor atom, score
      L1  H     4    16       P1 10747  1.00
      L1  H    11    28       P1 10747  0.77
      P1  H 10785 10796       L1     9  1.00

> <Gold.PLP.Chemscore.Internal.Correction>
0.0169

> <Gold.Rescore>
     Score         DG    S(hbond)    S(metal)    S(lipo)     H(rot)  DE(clash)    DE(int)     intcor
     15.52     -15.59       2.82        0.00      47.19       1.89       0.01       0.07       ----

> <Gold.Chemscore.Fitness>
15.5185

> <Gold.Chemscore.DG>
-15.5919

> <Gold.Chemscore.ZeroCoef>
-5.4800

> <Gold.Chemscore.Hbond>
2.8218

> <Gold.Chemscore.Metal>
0.0000

> <Gold.Chemscore.Lipo>
47.1895

> <Gold.Chemscore.Internal_Hbond>
0.0000

> <Gold.Chemscore.DEClash>
0.0082

> <Gold.Chemscore.DEInternal>
0.0651

> <Gold.Chemscore.Rot>
1.8883

> <Gold.Chemscore.Internal.Correction>
   9.000000E+99

> <Gold.Chemscore.Hbonds>
donor molecule, donor type, donor heavy atom, donor atom, acceptor molecule, acceptor atom, score
      L1  H     4    16       P1 10747  1.00
      L1  H    11    28       P1 10747  0.76
      P1  H 10785 10796       L1     9  0.91

> <Gold.Chemscore.Hbond.Weighted>
-9.4247

> <Gold.Chemscore.Metal.Weighted>
-0.0000

> <Gold.Chemscore.Lipo.Weighted>
-5.5212

> <Gold.Chemscore.Internal_Hbond.Weighted>
0.0000

> <Gold.Chemscore.DEClash.Weighted>
0.0082

> <Gold.Chemscore.DEInternal.Weighted>
0.0651

> <Gold.Chemscore.Rot.Weighted>
4.8340

> <Gold.Chemscore.Internal.Correction.Weighted>
   9.000000E+99

> <Gold.Protein.RotatedTorsions>
[ 6907 6896 6895 6894 ] final   32.62 input  -60.11 | X-H torsion
[ 7974 7965 7964 7962 ] final   70.71 input  175.53 | X-H torsion
[ 8008 7997 7996 7995 ] final  152.15 input   59.86 | X-H torsion
[ 10167 10162 10161 10158 ] final   76.28 input  -65.29 | X-H torsion
[ 10718 10713 10712 10709 ] final   21.73 input   66.30 | X-H torsion
[ 10763 10752 10751 10750 ] final  -13.37 input  -60.55 | X-H torsion
[ 11005 11000 10999 10996 ] final -105.57 input  -57.11 | X-H torsion

> <Gold.Protein.ActiveResidues>
 VAL166  LYS551  ARG553  GLY616  TRP617  ASP618  TYR619  PRO620  LYS621  CYS622 
 ASP623  PHE694  ASN695  SER759  ASP760  ASP761  ALA762  ILE779  LEU786  VAL792 
 PHE793  MET794  SER795  GLU796  ALA797  LYS798  CYS799  TRP800  GLU811  SER814 

> <Gold.Protein.RotatedAtoms>
  152.0770  134.9496  160.0573 H   0  0  0  0  0  0  0  0  0  0  0  0  # atno 6907 bound_to 6896
  152.0800  133.4143  159.4505 H   0  0  0  0  0  0  0  0  0  0  0  0  # atno 6908 bound_to 6896
  150.6836  134.2913  159.4711 H   0  0  0  0  0  0  0  0  0  0  0  0  # atno 6909 bound_to 6896
  145.7749  139.2860  143.1300 H   0  0  0  0  0  0  0  0  0  0  0  0  # atno 7974 bound_to 7965
  156.2642  140.2028  156.6288 H   0  0  0  0  0  0  0  0  0  0  0  0  # atno 8008 bound_to 7997
  154.6699  140.0551  157.0179 H   0  0  0  0  0  0  0  0  0  0  0  0  # atno 8009 bound_to 7997
  155.1152  140.3219  155.4514 H   0  0  0  0  0  0  0  0  0  0  0  0  # atno 8010 bound_to 7997
  139.9940  144.5736  150.7794 H   0  0  0  0  0  0  0  0  0  0  0  0  # atno 10167 bound_to 10162
  157.1426  130.6639  149.5986 H   0  0  0  0  0  0  0  0  0  0  0  0  # atno 10718 bound_to 10713
  153.5123  135.7016  153.5774 H   0  0  0  0  0  0  0  0  0  0  0  0  # atno 10763 bound_to 10752
  153.3859  135.3908  155.1889 H   0  0  0  0  0  0  0  0  0  0  0  0  # atno 10764 bound_to 10752
  154.8702  135.3846  154.4605 H   0  0  0  0  0  0  0  0  0  0  0  0  # atno 10765 bound_to 10752
  141.1047  133.8819  157.1750 H   0  0  0  0  0  0  0  0  0  0  0  0  # atno 11005 bound_to 11000
  146.0133  140.8415  142.9960 LP  0  0  0  0  0  0  0  0  0  0  0  0  # atno 17320 bound_to 7965
  144.6806  140.2521  143.7330 LP  0  0  0  0  0  0  0  0  0  0  0  0  # atno 17321 bound_to 7965
  140.7444  143.2860  151.3462 LP  0  0  0  0  0  0  0  0  0  0  0  0  # atno 17342 bound_to 10162
  139.6320  144.0703  152.2484 LP  0  0  0  0  0  0  0  0  0  0  0  0  # atno 17343 bound_to 10162
  155.9786  130.4772  150.6663 LP  0  0  0  0  0  0  0  0  0  0  0  0  # atno 17370 bound_to 10713
  157.4294  131.0847  151.1054 LP  0  0  0  0  0  0  0  0  0  0  0  0  # atno 17371 bound_to 10713
  139.9912  135.0064  156.9979 LP  0  0  0  0  0  0  0  0  0  0  0  0  # atno 17394 bound_to 11000
  140.4933  134.1171  155.7236 LP  0  0  0  0  0  0  0  0  0  0  0  0  # atno 17395 bound_to 11000

$$$$
