AV-unprocessed.smi:1355|AV-procd|sdf|5537|dock1
  -GOLD-   22720 5133D 1   1.00000     0.00000
 Structure written by MMmdl.
 32 33  0  0  0  0  0  0  0  0  1 V2000
  152.5320  138.7960  154.7025 C   0  0  0  0  0  0  0  0  0  0  0  0
  152.9518  139.5159  155.8478 O   0  0  0  0  0  0  0  0  0  0  0  0
  151.8879  140.2111  156.4750 C   0  0  0  0  0  0  0  0  0  0  0  0
  151.8188  139.8381  157.9625 C   0  0  0  0  0  0  0  0  0  0  0  0
  152.3416  140.8928  158.8226 N   0  0  0  0  0  0  0  0  0  0  0  0
  153.3915  140.8623  159.6880 C   0  0  0  0  0  0  0  0  0  0  0  0
  154.2540  139.6483  159.9083 C   0  0  1  0  0  0  0  0  0  0  0  0
  153.4317  138.4202  160.3267 C   0  0  0  0  0  0  0  0  0  0  0  0
  154.9956  139.3173  158.7529 O   0  0  0  0  0  0  0  0  0  0  0  0
  153.6092  141.9917  160.3664 N   0  0  0  0  0  0  0  0  0  0  0  0
  152.6343  142.8380  159.8798 C   0  0  0  0  0  0  0  0  0  0  0  0
  152.3474  144.1855  160.1955 C   0  0  0  0  0  0  0  0  0  0  0  0
  151.2852  144.8575  159.5563 C   0  0  0  0  0  0  0  0  0  0  0  0
  150.4961  144.1927  158.5954 C   0  0  0  0  0  0  0  0  0  0  0  0
  150.7638  142.8494  158.2689 C   0  0  0  0  0  0  0  0  0  0  0  0
  151.8261  142.1829  158.9095 C   0  0  0  0  0  0  0  0  0  0  0  0
  153.3828  138.2732  154.2665 H   0  0  0  0  0  0  0  0  0  0  0  0
  152.1250  139.4661  153.9444 H   0  0  0  0  0  0  0  0  0  0  0  0
  151.7748  138.0536  154.9573 H   0  0  0  0  0  0  0  0  0  0  0  0
  152.0314  141.2879  156.3706 H   0  0  0  0  0  0  0  0  0  0  0  0
  150.9442  139.9605  155.9883 H   0  0  0  0  0  0  0  0  0  0  0  0
  150.7806  139.6546  158.2402 H   0  0  0  0  0  0  0  0  0  0  0  0
  152.3387  138.9017  158.1588 H   0  0  0  0  0  0  0  0  0  0  0  0
  154.9796  139.8383  160.6952 H   0  0  0  0  0  0  0  0  0  0  0  0
  152.8680  138.6148  161.2389 H   0  0  0  0  0  0  0  0  0  0  0  0
  154.0769  137.5618  160.5162 H   0  0  0  0  0  0  0  0  0  0  0  0
  152.7181  138.1340  159.5531 H   0  0  0  0  0  0  0  0  0  0  0  0
  155.4593  138.5112  158.9217 H   0  0  0  0  0  0  0  0  0  0  0  0
  152.9467  144.7029  160.9298 H   0  0  0  0  0  0  0  0  0  0  0  0
  151.0751  145.8877  159.8041 H   0  0  0  0  0  0  0  0  0  0  0  0
  149.6849  144.7146  158.1094 H   0  0  0  0  0  0  0  0  0  0  0  0
  150.1601  142.3388  157.5334 H   0  0  0  0  0  0  0  0  0  0  0  0
  1  2  1  0  0  0  0
  1 17  1  0  0  0  0
  1 18  1  0  0  0  0
  1 19  1  0  0  0  0
  2  3  1  0  0  0  0
  3  4  1  0  0  0  0
  3 20  1  0  0  0  0
  3 21  1  0  0  0  0
  4  5  1  0  0  0  0
  4 22  1  0  0  0  0
  4 23  1  0  0  0  0
  5 16  1  0  0  0  0
  5  6  1  0  0  0  0
  6  7  1  0  0  0  0
  6 10  2  0  0  0  0
  7  8  1  0  0  0  0
  7  9  1  0  0  0  0
  7 24  1  0  0  0  0
  8 25  1  0  0  0  0
  8 26  1  0  0  0  0
  8 27  1  0  0  0  0
  9 28  1  0  0  0  0
 10 11  1  0  0  0  0
 11 16  2  0  0  0  0
 11 12  1  0  0  0  0
 12 13  2  0  0  0  0
 12 29  1  0  0  0  0
 13 14  1  0  0  0  0
 13 30  1  0  0  0  0
 14 15  2  0  0  0  0
 14 31  1  0  0  0  0
 15 16  1  0  0  0  0
 15 32  1  0  0  0  0
M  END
> <s_m_source_file>
AV-unprocessed.smi

> <i_m_source_file_index>
1355

> <i_lp_mmshare_version>
43012

> <i_f3d_flags>
0

> <s_epik_input>
W0NIM11PW0NIMl1bQ0gyXW4oYyhuMSlbQ0BIXShbQ0gzXSlbT0hdKWMoYzEyKVtjSF1bY0hdW2NIXVtjSF0y

> <s_epik_cmdline>
J2VwaWtfcHl0aG9uJywgJy1waCcsICc3LjAnLCAnLXRuJywgJzgnLCAnLW1hJywgJzIwMCcsICctbWV0YWxfYmluZGluZycsICctaW1hZScsICc8aW5maWxlLm1hZT4nLCAnLW9tYWUnLCAnPG91dGZpbGUubWFlPic=

> <r_epik_Ionization_Penalty>
0.055138

> <r_epik_Ionization_Penalty_Charging>
0

> <r_epik_Ionization_Penalty_Neutral>
0.055138

> <r_epik_State_Penalty>
0.0474756

> <r_epik_Charging_Adjusted_Penalty>
0.0474756

> <i_epik_Tot_Q>
0

> <i_epik_Tot_abs_Q>
0

> <r_epik_Metal_State_Penalty>
4.94275e-05

> <b_epik_Metal_Only>
0

> <s_lp_Force_Field>
OPLS_2005

> <r_lp_Energy>
6.46782

> <b_lp_Chiralities_Consistent>
1

> <s_lp_Variant>
AV-unprocessed.smi:1355-2

> <Gold.Version>
5.8.1

> <Gold.Id.Protein>
6NUR|6NUR_protein|mol2

> <Gold.PLP.Fitness>
40.8737

> <Gold.PLP.PLP>
-36.3111

> <Gold.PLP.part.hbond>
-2.0000

> <Gold.PLP.part.metal>
0.0000

> <Gold.PLP.part.buried>
-6.1825

> <Gold.PLP.part.nonpolar>
-28.7436

> <Gold.PLP.part.repulsive>
0.0000

> <Gold.PLP.ligand.clash>
0.0000

> <Gold.PLP.ligand.torsion>
0.7228

> <Gold.PLP.Chemscore.Hbond>
2.0000

> <Gold.PLP.Chemscore.CHOScore>
0.0000

> <Gold.PLP.Chemscore.Metal>
0.0000

> <Gold.Chemscore.Hbonds>
donor molecule, donor type, donor heavy atom, donor atom, acceptor molecule, acceptor atom, score
      P1  H  7997  8008       L1     9  1.00
      P1  H  7997  8009       L1     2  1.00

> <Gold.PLP.Chemscore.Internal.Correction>
0.0082

> <Gold.Rescore>
     Score         DG    S(hbond)    S(metal)    S(lipo)     H(rot)  DE(clash)    DE(int)     intcor
     17.61     -18.30       1.94        0.00      98.79       2.04       0.01       0.68       ----

> <Gold.Chemscore.Fitness>
17.6082

> <Gold.Chemscore.DG>
-18.3019

> <Gold.Chemscore.ZeroCoef>
-5.4800

> <Gold.Chemscore.Hbond>
1.9412

> <Gold.Chemscore.Metal>
0.0000

> <Gold.Chemscore.Lipo>
98.7885

> <Gold.Chemscore.Internal_Hbond>
0.0000

> <Gold.Chemscore.DEClash>
0.0149

> <Gold.Chemscore.DEInternal>
0.6789

> <Gold.Chemscore.Rot>
2.0390

> <Gold.Chemscore.Internal.Correction>
   9.000000E+99

> <Gold.Chemscore.Hbonds>
donor molecule, donor type, donor heavy atom, donor atom, acceptor molecule, acceptor atom, score
      P1  H  7997  8008       L1     9  0.84
      P1  H  7997  8009       L1     2  0.90

> <Gold.Chemscore.Hbond.Weighted>
-6.4835

> <Gold.Chemscore.Metal.Weighted>
-0.0000

> <Gold.Chemscore.Lipo.Weighted>
-11.5583

> <Gold.Chemscore.Internal_Hbond.Weighted>
0.0000

> <Gold.Chemscore.DEClash.Weighted>
0.0149

> <Gold.Chemscore.DEInternal.Weighted>
0.6789

> <Gold.Chemscore.Rot.Weighted>
5.2199

> <Gold.Chemscore.Internal.Correction.Weighted>
   9.000000E+99

> <Gold.Protein.RotatedTorsions>
[ 6907 6896 6895 6894 ] final -136.76 input  -60.11 | X-H torsion
[ 7974 7965 7964 7962 ] final -170.51 input  175.53 | X-H torsion
[ 8008 7997 7996 7995 ] final -140.74 input   59.86 | X-H torsion
[ 10167 10162 10161 10158 ] final  156.73 input  -65.29 | X-H torsion
[ 10718 10713 10712 10709 ] final   34.71 input   66.30 | X-H torsion
[ 10763 10752 10751 10750 ] final  -98.54 input  -60.55 | X-H torsion
[ 11005 11000 10999 10996 ] final  -35.55 input  -57.11 | X-H torsion

> <Gold.Protein.ActiveResidues>
 VAL166  LYS551  ARG553  GLY616  TRP617  ASP618  TYR619  PRO620  LYS621  CYS622 
 ASP623  PHE694  ASN695  SER759  ASP760  ASP761  ALA762  ILE779  LEU786  VAL792 
 PHE793  MET794  SER795  GLU796  ALA797  LYS798  CYS799  TRP800  GLU811  SER814 

> <Gold.Protein.RotatedAtoms>
  151.0140  133.5938  159.2678 H   0  0  0  0  0  0  0  0  0  0  0  0  # atno 6907 bound_to 6896
  151.3079  135.0785  159.9271 H   0  0  0  0  0  0  0  0  0  0  0  0  # atno 6908 bound_to 6896
  152.5307  133.9810  159.7861 H   0  0  0  0  0  0  0  0  0  0  0  0  # atno 6909 bound_to 6896
  144.7169  140.2061  143.6333 H   0  0  0  0  0  0  0  0  0  0  0  0  # atno 7974 bound_to 7965
  155.4663  140.0549  157.2985 H   0  0  0  0  0  0  0  0  0  0  0  0  # atno 8008 bound_to 7997
  154.4717  140.2043  155.9933 H   0  0  0  0  0  0  0  0  0  0  0  0  # atno 8009 bound_to 7997
  156.1066  140.3211  155.8019 H   0  0  0  0  0  0  0  0  0  0  0  0  # atno 8010 bound_to 7997
  139.4821  144.4982  151.8208 H   0  0  0  0  0  0  0  0  0  0  0  0  # atno 10167 bound_to 10162
  157.3138  130.7412  149.6741 H   0  0  0  0  0  0  0  0  0  0  0  0  # atno 10718 bound_to 10713
  154.7423  135.5005  153.9144 H   0  0  0  0  0  0  0  0  0  0  0  0  # atno 10763 bound_to 10752
  153.1056  135.6696  153.9601 H   0  0  0  0  0  0  0  0  0  0  0  0  # atno 10764 bound_to 10752
  153.9375  135.3071  155.3423 H   0  0  0  0  0  0  0  0  0  0  0  0  # atno 10765 bound_to 10752
  140.9805  133.7059  156.1675 H   0  0  0  0  0  0  0  0  0  0  0  0  # atno 11005 bound_to 11000
  145.8635  139.2235  143.1703 LP  0  0  0  0  0  0  0  0  0  0  0  0  # atno 17320 bound_to 7965
  146.0152  140.8399  142.9951 LP  0  0  0  0  0  0  0  0  0  0  0  0  # atno 17321 bound_to 7965
  140.4473  144.1904  150.5895 LP  0  0  0  0  0  0  0  0  0  0  0  0  # atno 17342 bound_to 10162
  140.4621  143.2445  151.9205 LP  0  0  0  0  0  0  0  0  0  0  0  0  # atno 17343 bound_to 10162
  155.9680  130.4243  150.4604 LP  0  0  0  0  0  0  0  0  0  0  0  0  # atno 17370 bound_to 10713
  157.2607  131.0566  151.2322 LP  0  0  0  0  0  0  0  0  0  0  0  0  # atno 17371 bound_to 10713
  140.7194  134.4375  157.5576 LP  0  0  0  0  0  0  0  0  0  0  0  0  # atno 17394 bound_to 11000
  139.8948  134.8698  156.2160 LP  0  0  0  0  0  0  0  0  0  0  0  0  # atno 17395 bound_to 11000

$$$$
