AV-unprocessed.smi:1586|AV-procd|sdf|6381|dock10
  -GOLD-   22720 7 13D 1   1.00000     0.00000
 Structure written by MMmdl.
 46 47  0  0  0  0  0  0  0  0  3 V2000
  143.8485  132.3829  149.8965 C   0  0  0  0  0  0  0  0  0  0  0  0
  144.1008  133.4254  150.9955 C   0  0  0  0  0  0  0  0  0  0  0  0
  145.2478  134.2825  150.6863 N   0  0  0  0  0  0  0  0  0  0  0  0
  145.4731  135.3854  151.6276 C   0  0  0  0  0  0  0  0  0  0  0  0
  145.9621  134.8870  153.0030 C   0  0  0  0  0  0  0  0  0  0  0  0
  147.2193  134.1019  152.8488 N   0  3  0  0  0  0  0  0  0  0  0  0
  147.9123  133.6892  154.1086 C   0  0  2  0  0  0  0  0  0  0  0  0
  147.1119  132.6422  154.9237 C   0  0  0  0  0  0  0  0  0  0  0  0
  148.3454  134.9369  154.9277 C   0  0  0  0  0  0  0  0  0  0  0  0
  149.4011  134.6003  155.8846 N   0  5  0  0  0  0  0  0  0  0  0  0
  149.2523  134.6048  157.2385 C   0  0  0  0  0  0  0  0  0  0  0  0
  149.6469  133.7482  158.0389 O   0  0  0  0  0  0  0  0  0  0  0  0
  148.5867  135.6890  157.6761 N   0  0  0  0  0  0  0  0  0  0  0  0
  148.2384  136.0407  159.0071 C   0  0  0  0  0  0  0  0  0  0  0  0
  147.8730  135.0418  159.9486 C   0  0  0  0  0  0  0  0  0  0  0  0
  147.6176  135.7628  161.0808 C   0  0  0  0  0  0  0  0  0  0  0  0
  147.1880  135.3761  162.4544 C   0  0  0  0  0  0  0  0  0  0  0  0
  147.8126  137.0895  160.8520 O   0  0  0  0  0  0  0  0  0  0  0  0
  148.2099  137.2614  159.5209 N   0  0  0  0  0  0  0  0  0  0  0  0
  147.0038  132.9830  151.8977 C   0  0  0  0  0  0  0  0  0  0  0  0
  146.4899  133.5187  150.5447 C   0  0  0  0  0  0  0  0  0  0  0  0
  143.0820  131.6752  150.2126 H   0  0  0  0  0  0  0  0  0  0  0  0
  144.7516  131.8124  149.6767 H   0  0  0  0  0  0  0  0  0  0  0  0
  143.5002  132.8397  148.9704 H   0  0  0  0  0  0  0  0  0  0  0  0
  143.1983  134.0076  151.1777 H   0  0  0  0  0  0  0  0  0  0  0  0
  144.3131  132.8899  151.9217 H   0  0  0  0  0  0  0  0  0  0  0  0
  146.2218  136.0540  151.2005 H   0  0  0  0  0  0  0  0  0  0  0  0
  144.5702  135.9841  151.7397 H   0  0  0  0  0  0  0  0  0  0  0  0
  146.1352  135.7497  153.6466 H   0  0  0  0  0  0  0  0  0  0  0  0
  145.1886  134.2914  153.4873 H   0  0  0  0  0  0  0  0  0  0  0  0
  148.8369  133.1991  153.7991 H   0  0  0  0  0  0  0  0  0  0  0  0
  147.6996  132.2374  155.7497 H   0  0  0  0  0  0  0  0  0  0  0  0
  146.8340  131.7933  154.2989 H   0  0  0  0  0  0  0  0  0  0  0  0
  146.1937  133.0497  155.3500 H   0  0  0  0  0  0  0  0  0  0  0  0
  148.6691  135.7171  154.2368 H   0  0  0  0  0  0  0  0  0  0  0  0
  147.4717  135.3512  155.4307 H   0  0  0  0  0  0  0  0  0  0  0  0
  148.2980  136.3421  156.9631 H   0  0  0  0  0  0  0  0  0  0  0  0
  147.8079  133.9721  159.8163 H   0  0  0  0  0  0  0  0  0  0  0  0
  146.8059  134.3554  162.4701 H   0  0  0  0  0  0  0  0  0  0  0  0
  146.3995  136.0371  162.8148 H   0  0  0  0  0  0  0  0  0  0  0  0
  148.0249  135.4354  163.1504 H   0  0  0  0  0  0  0  0  0  0  0  0
  147.9455  132.4604  151.7264 H   0  0  0  0  0  0  0  0  0  0  0  0
  146.3148  132.2526  152.3229 H   0  0  0  0  0  0  0  0  0  0  0  0
  146.3407  132.6972  149.8432 H   0  0  0  0  0  0  0  0  0  0  0  0
  147.2469  134.1657  150.0993 H   0  0  0  0  0  0  0  0  0  0  0  0
  147.8760  134.7146  152.3868 H   0  0  0  0  0  0  0  0  0  0  0  0
  1  2  1  0  0  0  0
  1 22  1  0  0  0  0
  1 23  1  0  0  0  0
  1 24  1  0  0  0  0
  2  3  1  0  0  0  0
  2 25  1  0  0  0  0
  2 26  1  0  0  0  0
  3 21  1  0  0  0  0
  3  4  1  0  0  0  0
  4  5  1  0  0  0  0
  4 27  1  0  0  0  0
  4 28  1  0  0  0  0
  5  6  1  0  0  0  0
  5 29  1  0  0  0  0
  5 30  1  0  0  0  0
  6  7  1  0  0  0  0
  6 20  1  0  0  0  0
  6 46  1  0  0  0  0
  7  8  1  0  0  0  0
  7  9  1  0  0  0  0
  7 31  1  0  0  0  0
  8 32  1  0  0  0  0
  8 33  1  0  0  0  0
  8 34  1  0  0  0  0
  9 10  1  0  0  0  0
  9 35  1  0  0  0  0
  9 36  1  0  0  0  0
 10 11  1  0  0  0  0
 11 12  2  0  0  0  0
 11 13  1  0  0  0  0
 13 14  1  0  0  0  0
 13 37  1  0  0  0  0
 14 19  2  0  0  0  0
 14 15  1  0  0  0  0
 15 16  2  0  0  0  0
 15 38  1  0  0  0  0
 16 17  1  0  0  0  0
 16 18  1  0  0  0  0
 17 39  1  0  0  0  0
 17 40  1  0  0  0  0
 17 41  1  0  0  0  0
 18 19  1  0  0  0  0
 20 21  1  0  0  0  0
 20 42  1  0  0  0  0
 20 43  1  0  0  0  0
 21 44  1  0  0  0  0
 21 45  1  0  0  0  0
M  CHG  1   6   1
M  CHG  1  10  -1
M  END
> <s_m_source_file>
AV-unprocessed.smi

> <i_m_source_file_index>
1586

> <i_lp_mmshare_version>
43012

> <i_f3d_flags>
0

> <s_epik_input>
W0NIM11bQ0gyXU4xW0NIMl1bQ0gyXU4oW0NIMl1bQ0gyXTEpW0NASF0oW0NIM10pW0NIMl1bTkhdQyg9TylbTkhdYzJbY0hdYyhbQ0gzXSlvbjI=

> <s_epik_cmdline>
J2VwaWtfcHl0aG9uJywgJy1waCcsICc3LjAnLCAnLXRuJywgJzgnLCAnLW1hJywgJzIwMCcsICctbWV0YWxfYmluZGluZycsICctaW1hZScsICc8aW5maWxlLm1hZT4nLCAnLW9tYWUnLCAnPG91dGZpbGUubWFlPic=

> <r_epik_Ionization_Penalty>
6.72969

> <r_epik_Ionization_Penalty_Charging>
6.72741

> <r_epik_Ionization_Penalty_Neutral>
0.00227419

> <r_epik_State_Penalty>
7.72748

> <r_epik_Charging_Adjusted_Penalty>
14.4549

> <i_epik_Tot_Q>
0

> <i_epik_Tot_abs_Q>
2

> <r_epik_Metal_State_Penalty>
3.65268

> <b_epik_Metal_Only>
1

> <s_lp_Force_Field>
OPLS_2005

> <r_lp_Energy>
18.0395

> <b_lp_Chiralities_Consistent>
1

> <s_lp_Variant>
AV-unprocessed.smi:1586-9

> <Gold.Version>
5.8.1

> <Gold.Id.Protein>
6NUR|6NUR_protein|mol2

> <Gold.PLP.Fitness>
44.5270

> <Gold.PLP.PLP>
-32.7622

> <Gold.PLP.part.hbond>
-4.7113

> <Gold.PLP.part.metal>
0.0000

> <Gold.PLP.part.buried>
-4.5558

> <Gold.PLP.part.nonpolar>
-23.0352

> <Gold.PLP.part.repulsive>
0.2741

> <Gold.PLP.ligand.clash>
0.0000

> <Gold.PLP.ligand.torsion>
0.8320

> <Gold.PLP.Chemscore.Hbond>
4.3904

> <Gold.PLP.Chemscore.CHOScore>
0.0000

> <Gold.PLP.Chemscore.Metal>
0.0000

> <Gold.Chemscore.Hbonds>
donor molecule, donor type, donor heavy atom, donor atom, acceptor molecule, acceptor atom, score
      L1  H     6    46       P1  7948  2.00
      P1  H  6896  6907       L1    12  1.00
      P1  H  6931  6943       L1    18  0.91
      P1  H  6934  6947       L1    18  0.43

> <Gold.PLP.Chemscore.Internal.Correction>
0.2576

> <Gold.Rescore>
     Score         DG    S(hbond)    S(metal)    S(lipo)     H(rot)  DE(clash)    DE(int)     intcor
     16.48     -18.56       2.79        0.00      69.98       1.73       0.09       1.99       ----

> <Gold.Chemscore.Fitness>
16.4822

> <Gold.Chemscore.DG>
-18.5613

> <Gold.Chemscore.ZeroCoef>
-5.4800

> <Gold.Chemscore.Hbond>
2.7874

> <Gold.Chemscore.Metal>
0.0000

> <Gold.Chemscore.Lipo>
69.9789

> <Gold.Chemscore.Internal_Hbond>
0.0000

> <Gold.Chemscore.DEClash>
0.0905

> <Gold.Chemscore.DEInternal>
1.9885

> <Gold.Chemscore.Rot>
1.7250

> <Gold.Chemscore.Internal.Correction>
   9.000000E+99

> <Gold.Chemscore.Hbonds>
donor molecule, donor type, donor heavy atom, donor atom, acceptor molecule, acceptor atom, score
      L1  H     6    46       P1  7948  0.65
      P1  H  6896  6907       L1    12  0.98
      P1  H  6931  6943       L1    18  0.43
      P1  H  6934  6947       L1    18  0.02

> <Gold.Chemscore.Hbond.Weighted>
-9.3098

> <Gold.Chemscore.Metal.Weighted>
-0.0000

> <Gold.Chemscore.Lipo.Weighted>
-8.1875

> <Gold.Chemscore.Internal_Hbond.Weighted>
0.0000

> <Gold.Chemscore.DEClash.Weighted>
0.0905

> <Gold.Chemscore.DEInternal.Weighted>
1.9885

> <Gold.Chemscore.Rot.Weighted>
4.4161

> <Gold.Chemscore.Internal.Correction.Weighted>
   9.000000E+99

> <Gold.Protein.RotatedTorsions>
[ 6907 6896 6895 6894 ] final  -97.90 input  -60.11 | X-H torsion
[ 7974 7965 7964 7962 ] final -160.21 input  175.53 | X-H torsion
[ 8008 7997 7996 7995 ] final  176.34 input   59.86 | X-H torsion
[ 10167 10162 10161 10158 ] final   80.31 input  -65.29 | X-H torsion
[ 10718 10713 10712 10709 ] final  131.64 input   66.30 | X-H torsion
[ 10763 10752 10751 10750 ] final   50.97 input  -60.55 | X-H torsion
[ 11005 11000 10999 10996 ] final   81.29 input  -57.11 | X-H torsion

> <Gold.Protein.ActiveResidues>
 VAL166  LYS551  ARG553  GLY616  TRP617  ASP618  TYR619  PRO620  LYS621  CYS622 
 ASP623  PHE694  ASN695  SER759  ASP760  ASP761  ALA762  ILE779  LEU786  VAL792 
 PHE793  MET794  SER795  GLU796  ALA797  LYS798  CYS799  TRP800  GLU811  SER814 

> <Gold.Protein.RotatedAtoms>
  150.7030  134.1277  159.4057 H   0  0  0  0  0  0  0  0  0  0  0  0  # atno 6907 bound_to 6896
  151.9263  135.0274  160.0535 H   0  0  0  0  0  0  0  0  0  0  0  0  # atno 6908 bound_to 6896
  152.2214  133.4951  159.5201 H   0  0  0  0  0  0  0  0  0  0  0  0  # atno 6909 bound_to 6896
  144.7435  140.3574  143.6103 H   0  0  0  0  0  0  0  0  0  0  0  0  # atno 7974 bound_to 7965
  156.0775  140.1386  156.9753 H   0  0  0  0  0  0  0  0  0  0  0  0  # atno 8008 bound_to 7997
  154.4566  140.0959  156.6824 H   0  0  0  0  0  0  0  0  0  0  0  0  # atno 8009 bound_to 7997
  155.5129  140.3454  155.4394 H   0  0  0  0  0  0  0  0  0  0  0  0  # atno 8010 bound_to 7997
  139.9511  144.6025  150.8160 H   0  0  0  0  0  0  0  0  0  0  0  0  # atno 10167 bound_to 10162
  157.4948  131.1092  150.9507 H   0  0  0  0  0  0  0  0  0  0  0  0  # atno 10718 bound_to 10713
  152.9785  135.5861  154.4340 H   0  0  0  0  0  0  0  0  0  0  0  0  # atno 10763 bound_to 10752
  154.3949  135.2768  155.2134 H   0  0  0  0  0  0  0  0  0  0  0  0  # atno 10764 bound_to 10752
  154.3990  135.6108  153.5940 H   0  0  0  0  0  0  0  0  0  0  0  0  # atno 10765 bound_to 10752
  139.9103  134.7985  156.2022 H   0  0  0  0  0  0  0  0  0  0  0  0  # atno 11005 bound_to 11000
  145.7213  139.1710  143.2483 LP  0  0  0  0  0  0  0  0  0  0  0  0  # atno 17320 bound_to 7965
  146.1275  140.7229  142.9428 LP  0  0  0  0  0  0  0  0  0  0  0  0  # atno 17321 bound_to 7965
  140.7582  143.3103  151.2861 LP  0  0  0  0  0  0  0  0  0  0  0  0  # atno 17342 bound_to 10162
  139.6628  144.0159  152.2703 LP  0  0  0  0  0  0  0  0  0  0  0  0  # atno 17343 bound_to 10162
  157.0197  130.5669  149.5330 LP  0  0  0  0  0  0  0  0  0  0  0  0  # atno 17370 bound_to 10713
  156.0194  130.5289  150.8232 LP  0  0  0  0  0  0  0  0  0  0  0  0  # atno 17371 bound_to 10713
  141.0518  133.6885  156.1785 LP  0  0  0  0  0  0  0  0  0  0  0  0  # atno 17394 bound_to 11000
  140.6799  134.4778  157.5589 LP  0  0  0  0  0  0  0  0  0  0  0  0  # atno 17395 bound_to 11000

$$$$
