AV-unprocessed.smi:828|AV-procd|sdf|3859|dock1
  -GOLD-   22720 1313D 1   1.00000     0.00000
 Structure written by MMmdl.
 35 36  0  0  0  0  0  0  0  0  2 V2000
  150.1487  141.8318  156.1989 C   0  0  0  0  0  0  0  0  0  0  0  0
  149.8043  140.6549  155.3514 C   0  0  0  0  0  0  0  0  0  0  0  0
  150.7315  139.8532  154.8135 N   0  0  0  0  0  0  0  0  0  0  0  0
  150.1706  138.8271  154.0659 N   0  0  0  0  0  0  0  0  0  0  0  0
  148.8318  138.8868  154.0612 C   0  0  0  0  0  0  0  0  0  0  0  0
  148.0032  137.9602  153.3743 N   0  0  0  0  0  0  0  0  0  0  0  0
  146.6614  137.8737  153.3876 C   0  0  0  0  0  0  0  0  0  0  0  0
  145.9061  138.6121  154.0202 O   0  0  0  0  0  0  0  0  0  0  0  0
  146.2317  136.8642  152.6160 N   0  0  0  0  0  0  0  0  0  0  0  0
  144.8341  136.5004  152.3966 C   0  0  0  0  0  0  0  0  0  0  0  0
  144.6807  135.4306  151.2864 C   0  0  1  0  0  0  0  0  0  0  0  0
  145.9402  134.5823  151.0501 C   0  0  0  0  0  0  0  0  0  0  0  0
  145.4001  133.2921  150.4511 C   0  0  0  0  0  0  0  0  0  0  0  0
  144.0996  133.0964  151.2233 C   0  0  0  0  0  0  0  0  0  0  0  0
  143.5624  134.4551  151.4627 N   0  3  1  0  0  0  0  0  0  0  0  0
  142.7454  134.5489  152.6956 C   0  0  0  0  0  0  0  0  0  0  0  0
  148.1420  140.2169  154.9757 S   0  0  0  0  0  0  0  0  0  0  0  0
  151.1447  141.7165  156.6276 H   0  0  0  0  0  0  0  0  0  0  0  0
  149.4300  141.9314  157.0125 H   0  0  0  0  0  0  0  0  0  0  0  0
  150.1278  142.7413  155.5988 H   0  0  0  0  0  0  0  0  0  0  0  0
  148.4914  137.2873  152.8019 H   0  0  0  0  0  0  0  0  0  0  0  0
  146.9244  136.3111  152.1326 H   0  0  0  0  0  0  0  0  0  0  0  0
  144.3806  136.1642  153.3306 H   0  0  0  0  0  0  0  0  0  0  0  0
  144.3150  137.4151  152.1107 H   0  0  0  0  0  0  0  0  0  0  0  0
  144.4573  135.9503  150.3534 H   0  0  0  0  0  0  0  0  0  0  0  0
  146.6685  135.0748  150.4051 H   0  0  0  0  0  0  0  0  0  0  0  0
  146.4294  134.3586  151.9991 H   0  0  0  0  0  0  0  0  0  0  0  0
  145.1918  133.4292  149.3890 H   0  0  0  0  0  0  0  0  0  0  0  0
  146.0877  132.4526  150.5580 H   0  0  0  0  0  0  0  0  0  0  0  0
  143.3847  132.4711  150.6879 H   0  0  0  0  0  0  0  0  0  0  0  0
  144.3197  132.6122  152.1765 H   0  0  0  0  0  0  0  0  0  0  0  0
  143.3478  134.3813  153.5892 H   0  0  0  0  0  0  0  0  0  0  0  0
  141.9577  133.7951  152.6782 H   0  0  0  0  0  0  0  0  0  0  0  0
  142.2592  135.5212  152.7740 H   0  0  0  0  0  0  0  0  0  0  0  0
  142.9302  134.6414  150.6972 H   0  0  0  0  0  0  0  0  0  0  0  0
  1  2  1  0  0  0  0
  1 18  1  0  0  0  0
  1 19  1  0  0  0  0
  1 20  1  0  0  0  0
  2 17  1  0  0  0  0
  2  3  2  0  0  0  0
  3  4  1  0  0  0  0
  4  5  2  0  0  0  0
  5  6  1  0  0  0  0
  5 17  1  0  0  0  0
  6  7  1  0  0  0  0
  6 21  1  0  0  0  0
  7  8  2  0  0  0  0
  7  9  1  0  0  0  0
  9 10  1  0  0  0  0
  9 22  1  0  0  0  0
 10 11  1  0  0  0  0
 10 23  1  0  0  0  0
 10 24  1  0  0  0  0
 11 15  1  0  0  0  0
 11 12  1  0  0  0  0
 11 25  1  0  0  0  0
 12 13  1  0  0  0  0
 12 26  1  0  0  0  0
 12 27  1  0  0  0  0
 13 14  1  0  0  0  0
 13 28  1  0  0  0  0
 13 29  1  0  0  0  0
 14 15  1  0  0  0  0
 14 30  1  0  0  0  0
 14 31  1  0  0  0  0
 15 16  1  0  0  0  0
 15 35  1  0  0  0  0
 16 32  1  0  0  0  0
 16 33  1  0  0  0  0
 16 34  1  0  0  0  0
M  CHG  1  15   1
M  END
> <s_m_source_file>
AV-unprocessed.smi

> <i_m_source_file_index>
828

> <i_lp_mmshare_version>
43012

> <i_f3d_flags>
0

> <s_epik_input>
W0NIM11jMW5uYyhzMSlbTkhdQyg9TylbTkhdW0NIMl1bQ0BASF0yW0NIMl1bQ0gyXVtDSDJdTjJbQ0gzXQ==

> <s_epik_cmdline>
J2VwaWtfcHl0aG9uJywgJy1waCcsICc3LjAnLCAnLXRuJywgJzgnLCAnLW1hJywgJzIwMCcsICctbWV0YWxfYmluZGluZycsICctaW1hZScsICc8aW5maWxlLm1hZT4nLCAnLW9tYWUnLCAnPG91dGZpbGUubWFlPic=

> <r_lp_tautomer_probability>
1

> <r_epik_Ionization_Penalty>
0.00466477

> <r_epik_Ionization_Penalty_Charging>
0.00372199

> <r_epik_Ionization_Penalty_Neutral>
0.000942783

> <r_epik_State_Penalty>
-0

> <r_epik_Charging_Adjusted_Penalty>
0.00372199

> <i_epik_Tot_Q>
1

> <i_epik_Tot_abs_Q>
1

> <r_epik_Metal_State_Penalty>
0.28212

> <b_epik_Metal_Only>
0

> <s_lp_Force_Field>
OPLS_2005

> <r_lp_Energy>
28.4237

> <b_lp_Chiralities_Consistent>
1

> <s_lp_Variant>
AV-unprocessed.smi:828-2

> <Gold.Version>
5.8.1

> <Gold.Id.Protein>
6NUR|6NUR_protein|mol2

> <Gold.PLP.Fitness>
36.9478

> <Gold.PLP.PLP>
-26.1128

> <Gold.PLP.part.hbond>
-3.6303

> <Gold.PLP.part.metal>
0.0000

> <Gold.PLP.part.buried>
-4.5514

> <Gold.PLP.part.nonpolar>
-19.6496

> <Gold.PLP.part.repulsive>
0.5138

> <Gold.PLP.ligand.clash>
0.0000

> <Gold.PLP.ligand.torsion>
0.5156

> <Gold.PLP.Chemscore.Hbond>
3.9543

> <Gold.PLP.Chemscore.CHOScore>
0.0000

> <Gold.PLP.Chemscore.Metal>
0.0000

> <Gold.Chemscore.Hbonds>
donor molecule, donor type, donor heavy atom, donor atom, acceptor molecule, acceptor atom, score
      L1  H     6    21       P1  7948  0.86
      L1  H     9    22       P1  7948  0.82
      L1  H    15    35       P1 10186  0.98
      P1  H  7989  7998       L1     3  1.00

> <Gold.PLP.Chemscore.Internal.Correction>
0.0034

> <Gold.Rescore>
     Score         DG    S(hbond)    S(metal)    S(lipo)     H(rot)  DE(clash)    DE(int)     intcor
     13.55     -15.29       2.09        0.00      53.31       1.33       0.05       1.69       ----

> <Gold.Chemscore.Fitness>
13.5547

> <Gold.Chemscore.DG>
-15.2948

> <Gold.Chemscore.ZeroCoef>
-5.4800

> <Gold.Chemscore.Hbond>
2.0901

> <Gold.Chemscore.Metal>
0.0000

> <Gold.Chemscore.Lipo>
53.3082

> <Gold.Chemscore.Internal_Hbond>
0.0000

> <Gold.Chemscore.DEClash>
0.0456

> <Gold.Chemscore.DEInternal>
1.6945

> <Gold.Chemscore.Rot>
1.3294

> <Gold.Chemscore.Internal.Correction>
   9.000000E+99

> <Gold.Chemscore.Hbonds>
donor molecule, donor type, donor heavy atom, donor atom, acceptor molecule, acceptor atom, score
      L1  H     6    21       P1  7948  0.84
      L1  H     9    22       P1  7948  0.76
      L1  H    15    35       P1 10186  0.12
      P1  H  7989  7998       L1     3  0.21

> <Gold.Chemscore.Hbond.Weighted>
-6.9810

> <Gold.Chemscore.Metal.Weighted>
-0.0000

> <Gold.Chemscore.Lipo.Weighted>
-6.2371

> <Gold.Chemscore.Internal_Hbond.Weighted>
0.0000

> <Gold.Chemscore.DEClash.Weighted>
0.0456

> <Gold.Chemscore.DEInternal.Weighted>
1.6945

> <Gold.Chemscore.Rot.Weighted>
3.4033

> <Gold.Chemscore.Internal.Correction.Weighted>
   9.000000E+99

> <Gold.Protein.RotatedTorsions>
[ 6907 6896 6895 6894 ] final  -19.39 input  -60.11 | X-H torsion
[ 7974 7965 7964 7962 ] final   12.76 input  175.53 | X-H torsion
[ 8008 7997 7996 7995 ] final   33.39 input   59.86 | X-H torsion
[ 10167 10162 10161 10158 ] final  -91.46 input  -65.29 | X-H torsion
[ 10718 10713 10712 10709 ] final  -53.07 input   66.30 | X-H torsion
[ 10763 10752 10751 10750 ] final  102.93 input  -60.55 | X-H torsion
[ 11005 11000 10999 10996 ] final  144.85 input  -57.11 | X-H torsion

> <Gold.Protein.ActiveResidues>
 VAL166  LYS551  ARG553  GLY616  TRP617  ASP618  TYR619  PRO620  LYS621  CYS622 
 ASP623  PHE694  ASN695  SER759  ASP760  ASP761  ALA762  ILE779  LEU786  VAL792 
 PHE793  MET794  SER795  GLU796  ALA797  LYS798  CYS799  TRP800  GLU811  SER814 

> <Gold.Protein.RotatedAtoms>
  151.2639  135.0663  159.9108 H   0  0  0  0  0  0  0  0  0  0  0  0  # atno 6907 bound_to 6896
  152.5361  134.0202  159.7988 H   0  0  0  0  0  0  0  0  0  0  0  0  # atno 6908 bound_to 6896
  151.0429  133.5640  159.2680 H   0  0  0  0  0  0  0  0  0  0  0  0  # atno 6909 bound_to 6896
  146.2344  139.9288  142.8499 H   0  0  0  0  0  0  0  0  0  0  0  0  # atno 7974 bound_to 7965
  155.1379  140.3263  155.4459 H   0  0  0  0  0  0  0  0  0  0  0  0  # atno 8008 bound_to 7997
  156.2614  140.1999  156.6445 H   0  0  0  0  0  0  0  0  0  0  0  0  # atno 8009 bound_to 7997
  154.6564  140.0552  157.0000 H   0  0  0  0  0  0  0  0  0  0  0  0  # atno 8010 bound_to 7997
  140.3447  143.2923  151.9795 H   0  0  0  0  0  0  0  0  0  0  0  0  # atno 10167 bound_to 10162
  156.1567  130.4150  149.9858 H   0  0  0  0  0  0  0  0  0  0  0  0  # atno 10718 bound_to 10713
  153.3460  135.3994  155.1609 H   0  0  0  0  0  0  0  0  0  0  0  0  # atno 10763 bound_to 10752
  154.8653  135.3645  154.5284 H   0  0  0  0  0  0  0  0  0  0  0  0  # atno 10764 bound_to 10752
  153.5732  135.7078  153.5555 H   0  0  0  0  0  0  0  0  0  0  0  0  # atno 10765 bound_to 10752
  140.0665  134.9176  157.1273 H   0  0  0  0  0  0  0  0  0  0  0  0  # atno 11005 bound_to 11000
  145.2064  140.9877  143.4126 LP  0  0  0  0  0  0  0  0  0  0  0  0  # atno 17320 bound_to 7965
  144.9729  139.3862  143.6300 LP  0  0  0  0  0  0  0  0  0  0  0  0  # atno 17321 bound_to 7965
  139.4835  144.6127  151.7404 LP  0  0  0  0  0  0  0  0  0  0  0  0  # atno 17342 bound_to 10162
  140.5276  144.0781  150.6042 LP  0  0  0  0  0  0  0  0  0  0  0  0  # atno 17343 bound_to 10162
  156.7700  130.9183  151.3644 LP  0  0  0  0  0  0  0  0  0  0  0  0  # atno 17370 bound_to 10713
  157.6700  130.9042  150.0019 LP  0  0  0  0  0  0  0  0  0  0  0  0  # atno 17371 bound_to 10713
  140.3691  134.2410  155.7179 LP  0  0  0  0  0  0  0  0  0  0  0  0  # atno 17394 bound_to 11000
  141.1995  133.8011  157.0534 LP  0  0  0  0  0  0  0  0  0  0  0  0  # atno 17395 bound_to 11000

$$$$
