AV-unprocessed.smi:3350|AV-procd|sdf|12940|dock8
  -GOLD-   2272019373D 1   1.00000     0.00000
 Structure written by MMmdl.
 41 42  0  0  0  0  0  0  0  0  1 V2000
  151.3725  136.2270  156.2173 C   0  0  0  0  0  0  0  0  0  0  0  0
  150.3196  136.9796  155.3887 C   0  0  1  0  0  0  0  0  0  0  0  0
  150.9431  138.1642  154.6254 C   0  0  0  0  0  0  0  0  0  0  0  0
  150.0743  139.3283  154.6058 N   0  0  0  0  0  0  0  0  0  0  0  0
  148.7541  139.4031  154.2146 C   0  0  0  0  0  0  0  0  0  0  0  0
  148.3603  140.7024  154.3602 C   0  0  0  0  0  0  0  0  0  0  0  0
  149.5244  141.3554  154.8530 C   0  0  0  0  0  0  0  0  0  0  0  0
  150.5486  140.5305  155.0000 N   0  0  0  0  0  0  0  0  0  0  0  0
  149.6735  136.0631  154.4517 N   0  0  0  0  0  0  0  0  0  0  0  0
  149.2924  134.8093  154.7297 C   0  0  0  0  0  0  0  0  0  0  0  0
  149.4778  134.2539  155.8127 O   0  0  0  0  0  0  0  0  0  0  0  0
  148.6810  134.2372  153.6839 N   0  0  0  0  0  0  0  0  0  0  0  0
  148.1268  132.8860  153.6612 C   0  0  2  0  0  0  0  0  0  0  0  0
  149.2490  131.8607  153.8887 C   0  0  0  0  0  0  0  0  0  0  0  0
  147.3946  132.6509  152.3267 C   0  0  2  0  0  0  0  0  0  0  0  0
  146.2321  133.6092  152.0572 C   0  0  0  0  0  0  0  0  0  0  0  0
  145.3278  132.8232  151.1202 C   0  0  0  0  0  0  0  0  0  0  0  0
  145.8453  131.3856  151.2183 C   0  0  0  0  0  0  0  0  0  0  0  0
  146.7442  131.3900  152.3181 O   0  0  0  0  0  0  0  0  0  0  0  0
  151.8535  136.8914  156.9356 H   0  0  0  0  0  0  0  0  0  0  0  0
  152.1507  135.8043  155.5809 H   0  0  0  0  0  0  0  0  0  0  0  0
  150.9224  135.4088  156.7805 H   0  0  0  0  0  0  0  0  0  0  0  0
  149.5700  137.3789  156.0749 H   0  0  0  0  0  0  0  0  0  0  0  0
  151.8820  138.4585  155.0962 H   0  0  0  0  0  0  0  0  0  0  0  0
  151.1864  137.8802  153.6001 H   0  0  0  0  0  0  0  0  0  0  0  0
  148.2123  138.5356  153.8674 H   0  0  0  0  0  0  0  0  0  0  0  0
  147.3888  141.1224  154.1462 H   0  0  0  0  0  0  0  0  0  0  0  0
  149.6541  142.3971  155.1066 H   0  0  0  0  0  0  0  0  0  0  0  0
  149.4714  136.4262  153.5315 H   0  0  0  0  0  0  0  0  0  0  0  0
  148.5771  134.7818  152.8404 H   0  0  0  0  0  0  0  0  0  0  0  0
  147.3972  132.7838  154.4669 H   0  0  0  0  0  0  0  0  0  0  0  0
  148.8565  130.8435  153.8962 H   0  0  0  0  0  0  0  0  0  0  0  0
  149.7461  132.0254  154.8453 H   0  0  0  0  0  0  0  0  0  0  0  0
  150.0053  131.9194  153.1053 H   0  0  0  0  0  0  0  0  0  0  0  0
  148.1010  132.6879  151.4947 H   0  0  0  0  0  0  0  0  0  0  0  0
  145.6975  133.8232  152.9840 H   0  0  0  0  0  0  0  0  0  0  0  0
  146.5596  134.5586  151.6328 H   0  0  0  0  0  0  0  0  0  0  0  0
  144.2863  132.8978  151.4346 H   0  0  0  0  0  0  0  0  0  0  0  0
  145.3965  133.1886  150.0948 H   0  0  0  0  0  0  0  0  0  0  0  0
  145.0449  130.6604  151.3666 H   0  0  0  0  0  0  0  0  0  0  0  0
  146.3893  131.1115  150.3132 H   0  0  0  0  0  0  0  0  0  0  0  0
  1  2  1  0  0  0  0
  1 20  1  0  0  0  0
  1 21  1  0  0  0  0
  1 22  1  0  0  0  0
  2  3  1  0  0  0  0
  2  9  1  0  0  0  0
  2 23  1  0  0  0  0
  3  4  1  0  0  0  0
  3 24  1  0  0  0  0
  3 25  1  0  0  0  0
  4  8  1  0  0  0  0
  4  5  1  0  0  0  0
  5  6  2  0  0  0  0
  5 26  1  0  0  0  0
  6  7  1  0  0  0  0
  6 27  1  0  0  0  0
  7  8  2  0  0  0  0
  7 28  1  0  0  0  0
  9 10  1  0  0  0  0
  9 29  1  0  0  0  0
 10 11  2  0  0  0  0
 10 12  1  0  0  0  0
 12 13  1  0  0  0  0
 12 30  1  0  0  0  0
 13 14  1  0  0  0  0
 13 15  1  0  0  0  0
 13 31  1  0  0  0  0
 14 32  1  0  0  0  0
 14 33  1  0  0  0  0
 14 34  1  0  0  0  0
 15 19  1  0  0  0  0
 15 16  1  0  0  0  0
 15 35  1  0  0  0  0
 16 17  1  0  0  0  0
 16 36  1  0  0  0  0
 16 37  1  0  0  0  0
 17 18  1  0  0  0  0
 17 38  1  0  0  0  0
 17 39  1  0  0  0  0
 18 19  1  0  0  0  0
 18 40  1  0  0  0  0
 18 41  1  0  0  0  0
M  END
> <s_m_source_file>
AV-unprocessed.smi

> <i_m_source_file_index>
3350

> <i_lp_mmshare_version>
43012

> <i_f3d_flags>
0

> <s_epik_input>
bjFbY0hdW2NIXVtjSF1uMVtDSDJdW0NAQEhdKFtDSDNdKVtOSF1DKD1PKVtOSF1bQ0BIXShbQ0gzXSlbQ0BASF0yW0NIMl1bQ0gyXVtDSDJdTzI=

> <s_epik_cmdline>
J2VwaWtfcHl0aG9uJywgJy1waCcsICc3LjAnLCAnLXRuJywgJzgnLCAnLW1hJywgJzIwMCcsICctbWV0YWxfYmluZGluZycsICctaW1hZScsICc8aW5maWxlLm1hZT4nLCAnLW9tYWUnLCAnPG91dGZpbGUubWFlPic=

> <r_lp_tautomer_probability>
1

> <r_epik_Ionization_Penalty>
6.42349e-05

> <r_epik_Ionization_Penalty_Charging>
0

> <r_epik_Ionization_Penalty_Neutral>
6.42349e-05

> <r_epik_State_Penalty>
-0

> <r_epik_Charging_Adjusted_Penalty>
0

> <i_epik_Tot_Q>
0

> <i_epik_Tot_abs_Q>
0

> <r_epik_Metal_State_Penalty>
-0

> <b_epik_Metal_Only>
0

> <s_lp_Force_Field>
OPLS_2005

> <r_lp_Energy>
16.0006

> <b_lp_Chiralities_Consistent>
1

> <s_lp_Variant>
AV-unprocessed.smi:3350-2

> <Gold.Version>
5.8.1

> <Gold.Id.Protein>
6NUR|6NUR_protein|mol2

> <Gold.PLP.Fitness>
44.8549

> <Gold.PLP.PLP>
-34.4797

> <Gold.PLP.part.hbond>
-3.0801

> <Gold.PLP.part.metal>
0.0000

> <Gold.PLP.part.buried>
-0.5372

> <Gold.PLP.part.nonpolar>
-29.4090

> <Gold.PLP.part.repulsive>
0.5012

> <Gold.PLP.ligand.clash>
0.0000

> <Gold.PLP.ligand.torsion>
0.8240

> <Gold.PLP.Chemscore.Hbond>
2.9920

> <Gold.PLP.Chemscore.CHOScore>
1.0000

> <Gold.PLP.Chemscore.Metal>
0.0000

> <Gold.Chemscore.Hbonds>
donor molecule, donor type, donor heavy atom, donor atom, acceptor molecule, acceptor atom, score
      L1  H     9    29       P1  7948  1.00
      L1  H    12    30       P1  7948  1.00
      P1  H  7989  7998       L1     8  0.89
      L1  C     7    28       P1  8028  1.00

> <Gold.PLP.Chemscore.Internal.Correction>
0.0471

> <Gold.Rescore>
     Score         DG    S(hbond)    S(metal)    S(lipo)     H(rot)  DE(clash)    DE(int)     intcor
     13.86     -16.34       2.18        0.00      70.44       1.82       0.08       2.40       ----

> <Gold.Chemscore.Fitness>
13.8648

> <Gold.Chemscore.DG>
-16.3449

> <Gold.Chemscore.ZeroCoef>
-5.4800

> <Gold.Chemscore.Hbond>
2.1802

> <Gold.Chemscore.Metal>
0.0000

> <Gold.Chemscore.Lipo>
70.4391

> <Gold.Chemscore.Internal_Hbond>
0.0000

> <Gold.Chemscore.DEClash>
0.0760

> <Gold.Chemscore.DEInternal>
2.4040

> <Gold.Chemscore.Rot>
1.8197

> <Gold.Chemscore.Internal.Correction>
   9.000000E+99

> <Gold.Chemscore.Hbonds>
donor molecule, donor type, donor heavy atom, donor atom, acceptor molecule, acceptor atom, score
      L1  H     9    29       P1  7948  0.72
      L1  H    12    30       P1  7948  0.29
      P1  H  7989  7998       L1     8  0.08

> <Gold.Chemscore.Hbond.Weighted>
-7.2818

> <Gold.Chemscore.Metal.Weighted>
-0.0000

> <Gold.Chemscore.Lipo.Weighted>
-8.2414

> <Gold.Chemscore.Internal_Hbond.Weighted>
0.0000

> <Gold.Chemscore.DEClash.Weighted>
0.0760

> <Gold.Chemscore.DEInternal.Weighted>
2.4040

> <Gold.Chemscore.Rot.Weighted>
4.6583

> <Gold.Chemscore.Internal.Correction.Weighted>
   9.000000E+99

> <Gold.Protein.RotatedTorsions>
[ 6907 6896 6895 6894 ] final   -2.98 input  -60.11 | X-H torsion
[ 7974 7965 7964 7962 ] final  172.77 input  175.53 | X-H torsion
[ 8008 7997 7996 7995 ] final -135.33 input   59.86 | X-H torsion
[ 10167 10162 10161 10158 ] final  110.15 input  -65.29 | X-H torsion
[ 10718 10713 10712 10709 ] final  126.88 input   66.30 | X-H torsion
[ 10763 10752 10751 10750 ] final  -66.16 input  -60.55 | X-H torsion
[ 11005 11000 10999 10996 ] final   86.13 input  -57.11 | X-H torsion

> <Gold.Protein.ActiveResidues>
 VAL166  LYS551  ARG553  GLY616  TRP617  ASP618  TYR619  PRO620  LYS621  CYS622 
 ASP623  PHE694  ASN695  SER759  ASP760  ASP761  ALA762  ILE779  LEU786  VAL792 
 PHE793  MET794  SER795  GLU796  ALA797  LYS798  CYS799  TRP800  GLU811  SER814 

> <Gold.Protein.RotatedAtoms>
  151.5211  135.1067  159.9878 H   0  0  0  0  0  0  0  0  0  0  0  0  # atno 6907 bound_to 6896
  152.4620  133.7838  159.6875 H   0  0  0  0  0  0  0  0  0  0  0  0  # atno 6908 bound_to 6896
  150.8586  133.7613  159.3025 H   0  0  0  0  0  0  0  0  0  0  0  0  # atno 6909 bound_to 6896
  144.7260  139.9548  143.6433 H   0  0  0  0  0  0  0  0  0  0  0  0  # atno 7974 bound_to 7965
  155.3769  140.0491  157.3044 H   0  0  0  0  0  0  0  0  0  0  0  0  # atno 8008 bound_to 7997
  154.5102  140.2189  155.9134 H   0  0  0  0  0  0  0  0  0  0  0  0  # atno 8009 bound_to 7997
  156.1573  140.3123  155.8753 H   0  0  0  0  0  0  0  0  0  0  0  0  # atno 8010 bound_to 7997
  139.6711  144.7125  151.1687 H   0  0  0  0  0  0  0  0  0  0  0  0  # atno 10167 bound_to 10162
  157.5381  131.1097  150.8902 H   0  0  0  0  0  0  0  0  0  0  0  0  # atno 10718 bound_to 10713
  154.3557  135.6127  153.5665 H   0  0  0  0  0  0  0  0  0  0  0  0  # atno 10763 bound_to 10752
  152.9796  135.5803  154.4692 H   0  0  0  0  0  0  0  0  0  0  0  0  # atno 10764 bound_to 10752
  154.4421  135.2850  155.1818 H   0  0  0  0  0  0  0  0  0  0  0  0  # atno 10765 bound_to 10752
  139.8953  134.8334  156.2678 H   0  0  0  0  0  0  0  0  0  0  0  0  # atno 11005 bound_to 11000
  146.0683  139.3673  143.0538 LP  0  0  0  0  0  0  0  0  0  0  0  0  # atno 17320 bound_to 7965
  145.8001  140.9775  143.1003 LP  0  0  0  0  0  0  0  0  0  0  0  0  # atno 17321 bound_to 7965
  140.7618  143.5843  150.8862 LP  0  0  0  0  0  0  0  0  0  0  0  0  # atno 17342 bound_to 10162
  139.9509  143.6274  152.3029 LP  0  0  0  0  0  0  0  0  0  0  0  0  # atno 17343 bound_to 10162
  156.9463  130.5403  149.5281 LP  0  0  0  0  0  0  0  0  0  0  0  0  # atno 17370 bound_to 10713
  156.0475  130.5549  150.8914 LP  0  0  0  0  0  0  0  0  0  0  0  0  # atno 17371 bound_to 10713
  141.0121  133.7090  156.1128 LP  0  0  0  0  0  0  0  0  0  0  0  0  # atno 17394 bound_to 11000
  140.7353  134.4209  157.5561 LP  0  0  0  0  0  0  0  0  0  0  0  0  # atno 17395 bound_to 11000

$$$$
