AV-unprocessed.smi:2481|AV-procd|sdf|9772|dock5
  -GOLD-   2272013413D 1   1.00000     0.00000
 Structure written by MMmdl.
 37 38  0  0  0  0  0  0  0  0  1 V2000
  152.0525  145.0160  157.6857 C   0  0  0  0  0  0  0  0  0  0  0  0
  152.0475  143.8098  158.4906 N   0  0  0  0  0  0  0  0  0  0  0  0
  153.0561  143.5444  159.3539 N   0  0  0  0  0  0  0  0  0  0  0  0
  152.6866  142.3798  159.8875 C   0  0  0  0  0  0  0  0  0  0  0  0
  151.5065  141.8615  159.4356 N   0  0  0  0  0  0  0  0  0  0  0  0
  151.1660  142.8085  158.5671 C   0  0  0  0  0  0  0  0  0  0  0  0
  149.9959  142.8244  157.7616 N   0  0  0  0  0  0  0  0  0  0  0  0
  149.1212  141.8242  157.5613 C   0  0  0  0  0  0  0  0  0  0  0  0
  149.1948  140.7044  158.0680 O   0  0  0  0  0  0  0  0  0  0  0  0
  148.1373  142.2005  156.7321 N   0  0  0  0  0  0  0  0  0  0  0  0
  147.0184  141.3599  156.3020 C   0  0  1  0  0  0  0  0  0  0  0  0
  145.6708  141.9906  156.7142 C   0  0  0  0  0  0  0  0  0  0  0  0
  145.3577  143.2650  155.9125 C   0  0  0  0  0  0  0  0  0  0  0  0
  145.4031  142.9935  154.4020 C   0  0  0  0  0  0  0  0  0  0  0  0
  146.7504  142.3839  153.9827 C   0  0  0  0  0  0  0  0  0  0  0  0
  147.0661  141.0957  154.7731 C   0  0  1  0  0  0  0  0  0  0  0  0
  148.3896  140.4610  154.2955 C   0  0  0  0  0  0  0  0  0  0  0  0
  148.2311  139.8619  153.0265 O   0  0  0  0  0  0  0  0  0  0  0  0
  151.2049  145.6436  157.9627 H   0  0  0  0  0  0  0  0  0  0  0  0
  151.9731  144.7535  156.6304 H   0  0  0  0  0  0  0  0  0  0  0  0
  152.9745  145.5778  157.8415 H   0  0  0  0  0  0  0  0  0  0  0  0
  153.2916  141.8838  160.6321 H   0  0  0  0  0  0  0  0  0  0  0  0
  149.8051  143.6942  157.2867 H   0  0  0  0  0  0  0  0  0  0  0  0
  148.1582  143.1414  156.3679 H   0  0  0  0  0  0  0  0  0  0  0  0
  147.1022  140.3969  156.8088 H   0  0  0  0  0  0  0  0  0  0  0  0
  144.8738  141.2641  156.5517 H   0  0  0  0  0  0  0  0  0  0  0  0
  145.6627  142.2100  157.7827 H   0  0  0  0  0  0  0  0  0  0  0  0
  144.3750  143.6459  156.1915 H   0  0  0  0  0  0  0  0  0  0  0  0
  146.0737  144.0476  156.1666 H   0  0  0  0  0  0  0  0  0  0  0  0
  144.5948  142.3138  154.1291 H   0  0  0  0  0  0  0  0  0  0  0  0
  145.2267  143.9188  153.8530 H   0  0  0  0  0  0  0  0  0  0  0  0
  146.7297  142.1684  152.9138 H   0  0  0  0  0  0  0  0  0  0  0  0
  147.5444  143.1169  154.1306 H   0  0  0  0  0  0  0  0  0  0  0  0
  146.2712  140.3838  154.5431 H   0  0  0  0  0  0  0  0  0  0  0  0
  149.1637  141.2244  154.2107 H   0  0  0  0  0  0  0  0  0  0  0  0
  148.7562  139.7176  155.0036 H   0  0  0  0  0  0  0  0  0  0  0  0
  148.6196  140.4262  152.3757 H   0  0  0  0  0  0  0  0  0  0  0  0
  1  2  1  0  0  0  0
  1 19  1  0  0  0  0
  1 20  1  0  0  0  0
  1 21  1  0  0  0  0
  2  6  1  0  0  0  0
  2  3  1  0  0  0  0
  3  4  2  0  0  0  0
  4  5  1  0  0  0  0
  4 22  1  0  0  0  0
  5  6  2  0  0  0  0
  6  7  1  0  0  0  0
  7  8  1  0  0  0  0
  7 23  1  0  0  0  0
  8  9  2  0  0  0  0
  8 10  1  0  0  0  0
 10 11  1  0  0  0  0
 10 24  1  0  0  0  0
 11 16  1  0  0  0  0
 11 12  1  0  0  0  0
 11 25  1  0  0  0  0
 12 13  1  0  0  0  0
 12 26  1  0  0  0  0
 12 27  1  0  0  0  0
 13 14  1  0  0  0  0
 13 28  1  0  0  0  0
 13 29  1  0  0  0  0
 14 15  1  0  0  0  0
 14 30  1  0  0  0  0
 14 31  1  0  0  0  0
 15 16  1  0  0  0  0
 15 32  1  0  0  0  0
 15 33  1  0  0  0  0
 16 17  1  0  0  0  0
 16 34  1  0  0  0  0
 17 18  1  0  0  0  0
 17 35  1  0  0  0  0
 17 36  1  0  0  0  0
 18 37  1  0  0  0  0
M  END
> <s_m_source_file>
AV-unprocessed.smi

> <i_m_source_file_index>
2481

> <i_lp_mmshare_version>
43012

> <i_f3d_flags>
0

> <s_epik_input>
W0NIM11uMW5bY0hdbmMxW05IXUMoPU8pW05IXVtDQEBIXTJbQ0gyXVtDSDJdW0NIMl1bQ0gyXVtDQEhdMltDSDJdW09IXQ==

> <s_epik_cmdline>
J2VwaWtfcHl0aG9uJywgJy1waCcsICc3LjAnLCAnLXRuJywgJzgnLCAnLW1hJywgJzIwMCcsICctbWV0YWxfYmluZGluZycsICctaW1hZScsICc8aW5maWxlLm1hZT4nLCAnLW9tYWUnLCAnPG91dGZpbGUubWFlPic=

> <r_lp_tautomer_probability>
1

> <r_epik_Ionization_Penalty>
2.32704e-05

> <r_epik_Ionization_Penalty_Charging>
0

> <r_epik_Ionization_Penalty_Neutral>
2.32704e-05

> <r_epik_State_Penalty>
-0

> <r_epik_Charging_Adjusted_Penalty>
0

> <i_epik_Tot_Q>
0

> <i_epik_Tot_abs_Q>
0

> <r_epik_Metal_State_Penalty>
-0

> <b_epik_Metal_Only>
0

> <s_lp_Force_Field>
OPLS_2005

> <r_lp_Energy>
12.0368

> <b_lp_Chiralities_Consistent>
1

> <s_lp_Variant>
AV-unprocessed.smi:2481-2

> <Gold.Version>
5.8.1

> <Gold.Id.Protein>
6NUR|6NUR_protein|mol2

> <Gold.PLP.Fitness>
42.5763

> <Gold.PLP.PLP>
-33.9058

> <Gold.PLP.part.hbond>
-3.7444

> <Gold.PLP.part.metal>
0.0000

> <Gold.PLP.part.buried>
-7.7283

> <Gold.PLP.part.nonpolar>
-22.7760

> <Gold.PLP.part.repulsive>
0.0582

> <Gold.PLP.ligand.clash>
0.0000

> <Gold.PLP.ligand.torsion>
0.1617

> <Gold.PLP.Chemscore.Hbond>
2.9920

> <Gold.PLP.Chemscore.CHOScore>
0.0000

> <Gold.PLP.Chemscore.Metal>
0.0000

> <Gold.Chemscore.Hbonds>
donor molecule, donor type, donor heavy atom, donor atom, acceptor molecule, acceptor atom, score
      L1  H     7    23       P1  8028  0.77
      L1  H    10    24       P1  8028  1.00
      L1  H    18    37       P1  7957  0.59

> <Gold.PLP.Chemscore.Internal.Correction>
0.0179

> <Gold.Rescore>
     Score         DG    S(hbond)    S(metal)    S(lipo)     H(rot)  DE(clash)    DE(int)     intcor
     12.30     -13.86       2.44        0.00      45.38       1.99       0.21       1.35       ----

> <Gold.Chemscore.Fitness>
12.3009

> <Gold.Chemscore.DG>
-13.8567

> <Gold.Chemscore.ZeroCoef>
-5.4800

> <Gold.Chemscore.Hbond>
2.4418

> <Gold.Chemscore.Metal>
0.0000

> <Gold.Chemscore.Lipo>
45.3815

> <Gold.Chemscore.Internal_Hbond>
0.0000

> <Gold.Chemscore.DEClash>
0.2056

> <Gold.Chemscore.DEInternal>
1.3502

> <Gold.Chemscore.Rot>
1.9877

> <Gold.Chemscore.Internal.Correction>
   9.000000E+99

> <Gold.Chemscore.Hbonds>
donor molecule, donor type, donor heavy atom, donor atom, acceptor molecule, acceptor atom, score
      L1  H     7    23       P1  8028  0.63
      L1  H    10    24       P1  8028  0.45
      L1  H    18    37       P1  7957  0.59

> <Gold.Chemscore.Hbond.Weighted>
-8.1556

> <Gold.Chemscore.Metal.Weighted>
-0.0000

> <Gold.Chemscore.Lipo.Weighted>
-5.3096

> <Gold.Chemscore.Internal_Hbond.Weighted>
0.0000

> <Gold.Chemscore.DEClash.Weighted>
0.2056

> <Gold.Chemscore.DEInternal.Weighted>
1.3502

> <Gold.Chemscore.Rot.Weighted>
5.0885

> <Gold.Chemscore.Internal.Correction.Weighted>
   9.000000E+99

> <Gold.Protein.RotatedTorsions>
[ 6907 6896 6895 6894 ] final  104.19 input  -60.11 | X-H torsion
[ 7974 7965 7964 7962 ] final  138.22 input  175.53 | X-H torsion
[ 8008 7997 7996 7995 ] final   -2.65 input   59.86 | X-H torsion
[ 10167 10162 10161 10158 ] final -127.99 input  -65.29 | X-H torsion
[ 10718 10713 10712 10709 ] final  143.73 input   66.30 | X-H torsion
[ 10763 10752 10751 10750 ] final  -47.81 input  -60.55 | X-H torsion
[ 11005 11000 10999 10996 ] final   19.28 input  -57.11 | X-H torsion

> <Gold.Protein.ActiveResidues>
 VAL166  LYS551  ARG553  GLY616  TRP617  ASP618  TYR619  PRO620  LYS621  CYS622 
 ASP623  PHE694  ASN695  SER759  ASP760  ASP761  ALA762  ILE779  LEU786  VAL792 
 PHE793  MET794  SER795  GLU796  ALA797  LYS798  CYS799  TRP800  GLU811  SER814 

> <Gold.Protein.RotatedAtoms>
  152.5272  133.9714  159.7763 H   0  0  0  0  0  0  0  0  0  0  0  0  # atno 6907 bound_to 6896
  150.9985  133.6071  159.2705 H   0  0  0  0  0  0  0  0  0  0  0  0  # atno 6908 bound_to 6896
  151.3189  135.0820  159.9352 H   0  0  0  0  0  0  0  0  0  0  0  0  # atno 6909 bound_to 6896
  144.9393  139.4951  143.5580 H   0  0  0  0  0  0  0  0  0  0  0  0  # atno 7974 bound_to 7965
  154.6334  140.2529  155.7406 H   0  0  0  0  0  0  0  0  0  0  0  0  # atno 8008 bound_to 7997
  156.2491  140.2902  156.0616 H   0  0  0  0  0  0  0  0  0  0  0  0  # atno 8009 bound_to 7997
  155.1709  140.0386  157.2853 H   0  0  0  0  0  0  0  0  0  0  0  0  # atno 8010 bound_to 7997
  139.9550  143.6013  152.2463 H   0  0  0  0  0  0  0  0  0  0  0  0  # atno 10167 bound_to 10162
  157.3655  131.0971  151.0876 H   0  0  0  0  0  0  0  0  0  0  0  0  # atno 10718 bound_to 10713
  154.0675  135.6609  153.4820 H   0  0  0  0  0  0  0  0  0  0  0  0  # atno 10763 bound_to 10752
  153.0403  135.5149  154.7599 H   0  0  0  0  0  0  0  0  0  0  0  0  # atno 10764 bound_to 10752
  154.6655  135.3021  154.9778 H   0  0  0  0  0  0  0  0  0  0  0  0  # atno 10765 bound_to 10752
  140.4154  134.1574  155.7669 H   0  0  0  0  0  0  0  0  0  0  0  0  # atno 11005 bound_to 11000
  146.3279  139.8400  142.8892 LP  0  0  0  0  0  0  0  0  0  0  0  0  # atno 17320 bound_to 7965
  145.3017  141.0196  143.3605 LP  0  0  0  0  0  0  0  0  0  0  0  0  # atno 17321 bound_to 7965
  139.6599  144.7662  151.1984 LP  0  0  0  0  0  0  0  0  0  0  0  0  # atno 17342 bound_to 10162
  140.7571  143.6027  150.8683 LP  0  0  0  0  0  0  0  0  0  0  0  0  # atno 17343 bound_to 10162
  157.1999  130.6390  149.5735 LP  0  0  0  0  0  0  0  0  0  0  0  0  # atno 17370 bound_to 10713
  155.9745  130.4694  150.6394 LP  0  0  0  0  0  0  0  0  0  0  0  0  # atno 17371 bound_to 10713
  141.1805  133.8424  157.1275 LP  0  0  0  0  0  0  0  0  0  0  0  0  # atno 17394 bound_to 11000
  140.0237  134.9934  157.0644 LP  0  0  0  0  0  0  0  0  0  0  0  0  # atno 17395 bound_to 11000

$$$$
