AV-unprocessed.smi:3187|AV-procd|sdf|12178|dock4
  -GOLD-   2272018 13D 1   1.00000     0.00000
 Structure written by MMmdl.
 41 42  0  0  0  0  0  0  0  0  2 V2000
  154.8319  140.2203  160.9437 C   0  0  0  0  0  0  0  0  0  0  0  0
  153.8988  141.4188  161.0161 C   0  0  0  0  0  0  0  0  0  0  0  0
  153.6361  142.0172  162.1947 C   0  0  0  0  0  0  0  0  0  0  0  0
  152.7743  143.2559  162.3656 C   0  0  0  0  0  0  0  0  0  0  0  0
  152.0654  143.6846  161.0700 C   0  0  0  0  0  0  0  0  0  0  0  0
  152.9531  143.4493  159.8351 C   0  0  2  0  0  0  0  0  0  0  0  0
  152.3538  144.0770  158.5649 C   0  0  0  0  0  0  0  0  0  0  0  0
  153.3246  141.9461  159.6939 C   0  0  2  0  0  0  0  0  0  0  0  0
  152.1465  141.0820  159.1714 C   0  0  0  0  0  0  0  0  0  0  0  0
  151.9283  141.2241  157.7194 N   0  3  0  0  0  0  0  0  0  0  0  0
  150.8522  140.3700  157.1781 C   0  0  0  0  0  0  0  0  0  0  0  0
  150.9631  140.2245  155.6525 C   0  0  0  0  0  0  0  0  0  0  0  0
  151.0749  138.8380  155.2409 N   0  0  0  0  0  0  0  0  0  0  0  0
  150.1237  137.8383  155.3975 C   0  0  0  0  0  0  0  0  0  0  0  0
  150.6638  136.6938  154.8553 C   0  0  0  0  0  0  0  0  0  0  0  0
  151.9385  136.9651  154.3637 N   0  0  0  0  0  0  0  0  0  0  0  0
  152.1153  138.2517  154.6325 C   0  0  0  0  0  0  0  0  0  0  0  0
  155.5731  140.3585  160.1562 H   0  0  0  0  0  0  0  0  0  0  0  0
  154.2878  139.2971  160.7531 H   0  0  0  0  0  0  0  0  0  0  0  0
  155.3700  140.0881  161.8832 H   0  0  0  0  0  0  0  0  0  0  0  0
  154.0825  141.6321  163.1001 H   0  0  0  0  0  0  0  0  0  0  0  0
  152.0434  143.0848  163.1563 H   0  0  0  0  0  0  0  0  0  0  0  0
  153.4257  144.0599  162.7091 H   0  0  0  0  0  0  0  0  0  0  0  0
  151.1312  143.1332  160.9640 H   0  0  0  0  0  0  0  0  0  0  0  0
  151.7851  144.7359  161.1447 H   0  0  0  0  0  0  0  0  0  0  0  0
  153.8874  143.9847  160.0142 H   0  0  0  0  0  0  0  0  0  0  0  0
  151.3424  143.7203  158.3703 H   0  0  0  0  0  0  0  0  0  0  0  0
  152.9661  143.8583  157.6896 H   0  0  0  0  0  0  0  0  0  0  0  0
  152.2977  145.1616  158.6610 H   0  0  0  0  0  0  0  0  0  0  0  0
  154.1260  141.8935  158.9556 H   0  0  0  0  0  0  0  0  0  0  0  0
  152.3158  140.0294  159.3992 H   0  0  0  0  0  0  0  0  0  0  0  0
  151.2166  141.3692  159.6610 H   0  0  0  0  0  0  0  0  0  0  0  0
  151.7003  142.1882  157.5217 H   0  0  0  0  0  0  0  0  0  0  0  0
  150.9131  139.3844  157.6411 H   0  0  0  0  0  0  0  0  0  0  0  0
  149.8829  140.7911  157.4489 H   0  0  0  0  0  0  0  0  0  0  0  0
  150.0984  140.6728  155.1610 H   0  0  0  0  0  0  0  0  0  0  0  0
  151.8420  140.7587  155.2896 H   0  0  0  0  0  0  0  0  0  0  0  0
  149.1678  138.0178  155.8676 H   0  0  0  0  0  0  0  0  0  0  0  0
  150.2365  135.7045  154.7820 H   0  0  0  0  0  0  0  0  0  0  0  0
  153.0206  138.7817  154.3739 H   0  0  0  0  0  0  0  0  0  0  0  0
  152.7905  140.9932  157.2469 H   0  0  0  0  0  0  0  0  0  0  0  0
  1  2  1  0  0  0  0
  1 18  1  0  0  0  0
  1 19  1  0  0  0  0
  1 20  1  0  0  0  0
  2  8  1  0  0  0  0
  2  3  2  0  0  0  0
  3  4  1  0  0  0  0
  3 21  1  0  0  0  0
  4  5  1  0  0  0  0
  4 22  1  0  0  0  0
  4 23  1  0  0  0  0
  5  6  1  0  0  0  0
  5 24  1  0  0  0  0
  5 25  1  0  0  0  0
  6  7  1  0  0  0  0
  6  8  1  0  0  0  0
  6 26  1  0  0  0  0
  7 27  1  0  0  0  0
  7 28  1  0  0  0  0
  7 29  1  0  0  0  0
  8  9  1  0  0  0  0
  8 30  1  0  0  0  0
  9 10  1  0  0  0  0
  9 31  1  0  0  0  0
  9 32  1  0  0  0  0
 10 11  1  0  0  0  0
 10 33  1  0  0  0  0
 10 41  1  0  0  0  0
 11 12  1  0  0  0  0
 11 34  1  0  0  0  0
 11 35  1  0  0  0  0
 12 13  1  0  0  0  0
 12 36  1  0  0  0  0
 12 37  1  0  0  0  0
 13 17  1  0  0  0  0
 13 14  1  0  0  0  0
 14 15  2  0  0  0  0
 14 38  1  0  0  0  0
 15 16  1  0  0  0  0
 15 39  1  0  0  0  0
 16 17  2  0  0  0  0
 17 40  1  0  0  0  0
M  CHG  1  10   1
M  END
> <s_m_source_file>
AV-unprocessed.smi

> <i_m_source_file_index>
3187

> <i_lp_mmshare_version>
43012

> <i_f3d_flags>
0

> <s_epik_input>
W0NIM11DMT1bQ0hdW0NIMl1bQ0gyXVtDQEBIXShbQ0gzXSlbQ0BIXTFbQ0gyXVtOSF1bQ0gyXVtDSDJdbjJbY0hdW2NIXW5bY0hdMg==

> <s_epik_cmdline>
J2VwaWtfcHl0aG9uJywgJy1waCcsICc3LjAnLCAnLXRuJywgJzgnLCAnLW1hJywgJzIwMCcsICctbWV0YWxfYmluZGluZycsICctaW1hZScsICc8aW5maWxlLm1hZT4nLCAnLW9tYWUnLCAnPG91dGZpbGUubWFlPic=

> <r_lp_tautomer_probability>
1

> <r_epik_Ionization_Penalty>
0.0501625

> <r_epik_Ionization_Penalty_Charging>
0.0501625

> <r_epik_Ionization_Penalty_Neutral>
0

> <r_epik_State_Penalty>
0.0972392

> <r_epik_Charging_Adjusted_Penalty>
0.147402

> <i_epik_Tot_Q>
1

> <i_epik_Tot_abs_Q>
1

> <r_epik_Metal_State_Penalty>
0.000104376

> <b_epik_Metal_Only>
0

> <s_lp_Force_Field>
OPLS_2005

> <r_lp_Energy>
17.7506

> <b_lp_Chiralities_Consistent>
1

> <s_lp_Variant>
AV-unprocessed.smi:3187-4

> <Gold.Version>
5.8.1

> <Gold.Id.Protein>
6NUR|6NUR_protein|mol2

> <Gold.PLP.Fitness>
48.6114

> <Gold.PLP.PLP>
-46.8661

> <Gold.PLP.part.hbond>
-1.0000

> <Gold.PLP.part.metal>
0.0000

> <Gold.PLP.part.buried>
-3.8270

> <Gold.PLP.part.nonpolar>
-42.0951

> <Gold.PLP.part.repulsive>
0.4501

> <Gold.PLP.ligand.clash>
0.0000

> <Gold.PLP.ligand.torsion>
0.6540

> <Gold.PLP.Chemscore.Hbond>
0.9920

> <Gold.PLP.Chemscore.CHOScore>
0.0000

> <Gold.PLP.Chemscore.Metal>
0.0000

> <Gold.Chemscore.Hbonds>
donor molecule, donor type, donor heavy atom, donor atom, acceptor molecule, acceptor atom, score
      P1  H 10752 10765       L1    16  1.00

> <Gold.PLP.Chemscore.Internal.Correction>
0.0774

> <Gold.Rescore>
     Score         DG    S(hbond)    S(metal)    S(lipo)     H(rot)  DE(clash)    DE(int)     intcor
     17.36     -18.23       0.98        0.00     122.19       1.89       0.13       0.74       ----

> <Gold.Chemscore.Fitness>
17.3629

> <Gold.Chemscore.DG>
-18.2314

> <Gold.Chemscore.ZeroCoef>
-5.4800

> <Gold.Chemscore.Hbond>
0.9826

> <Gold.Chemscore.Metal>
0.0000

> <Gold.Chemscore.Lipo>
122.1852

> <Gold.Chemscore.Internal_Hbond>
0.0000

> <Gold.Chemscore.DEClash>
0.1300

> <Gold.Chemscore.DEInternal>
0.7385

> <Gold.Chemscore.Rot>
1.8853

> <Gold.Chemscore.Internal.Correction>
   9.000000E+99

> <Gold.Chemscore.Hbonds>
donor molecule, donor type, donor heavy atom, donor atom, acceptor molecule, acceptor atom, score
      P1  H 10752 10765       L1    16  0.90

> <Gold.Chemscore.Hbond.Weighted>
-3.2820

> <Gold.Chemscore.Metal.Weighted>
-0.0000

> <Gold.Chemscore.Lipo.Weighted>
-14.2957

> <Gold.Chemscore.Internal_Hbond.Weighted>
0.0000

> <Gold.Chemscore.DEClash.Weighted>
0.1300

> <Gold.Chemscore.DEInternal.Weighted>
0.7385

> <Gold.Chemscore.Rot.Weighted>
4.8263

> <Gold.Chemscore.Internal.Correction.Weighted>
   9.000000E+99

> <Gold.Protein.RotatedTorsions>
[ 6907 6896 6895 6894 ] final -136.90 input  -60.11 | X-H torsion
[ 7974 7965 7964 7962 ] final  105.44 input  175.53 | X-H torsion
[ 8008 7997 7996 7995 ] final   51.35 input   59.86 | X-H torsion
[ 10167 10162 10161 10158 ] final  -92.52 input  -65.29 | X-H torsion
[ 10718 10713 10712 10709 ] final -159.16 input   66.30 | X-H torsion
[ 10763 10752 10751 10750 ] final  159.09 input  -60.55 | X-H torsion
[ 11005 11000 10999 10996 ] final    7.12 input  -57.11 | X-H torsion

> <Gold.Protein.ActiveResidues>
 VAL166  LYS551  ARG553  GLY616  TRP617  ASP618  TYR619  PRO620  LYS621  CYS622 
 ASP623  PHE694  ASN695  SER759  ASP760  ASP761  ALA762  ILE779  LEU786  VAL792 
 PHE793  MET794  SER795  GLU796  ALA797  LYS798  CYS799  TRP800  GLU811  SER814 

> <Gold.Protein.RotatedAtoms>
  151.0158  133.5922  159.2676 H   0  0  0  0  0  0  0  0  0  0  0  0  # atno 6907 bound_to 6896
  151.3057  135.0780  159.9264 H   0  0  0  0  0  0  0  0  0  0  0  0  # atno 6908 bound_to 6896
  152.5311  133.9832  159.7870 H   0  0  0  0  0  0  0  0  0  0  0  0  # atno 6909 bound_to 6896
  145.3196  139.2516  143.3719 H   0  0  0  0  0  0  0  0  0  0  0  0  # atno 7974 bound_to 7965
  155.4339  140.3451  155.4283 H   0  0  0  0  0  0  0  0  0  0  0  0  # atno 8008 bound_to 7997
  156.1320  140.1517  156.9082 H   0  0  0  0  0  0  0  0  0  0  0  0  # atno 8009 bound_to 7997
  154.4902  140.0843  156.7557 H   0  0  0  0  0  0  0  0  0  0  0  0  # atno 8010 bound_to 7997
  140.3339  143.2979  151.9911 H   0  0  0  0  0  0  0  0  0  0  0  0  # atno 10167 bound_to 10162
  156.5642  130.8660  151.2818 H   0  0  0  0  0  0  0  0  0  0  0  0  # atno 10718 bound_to 10713
  154.2263  135.2780  155.2906 H   0  0  0  0  0  0  0  0  0  0  0  0  # atno 10763 bound_to 10752
  154.5660  135.5633  153.7054 H   0  0  0  0  0  0  0  0  0  0  0  0  # atno 10764 bound_to 10752
  153.0030  135.6309  154.2404 H   0  0  0  0  0  0  0  0  0  0  0  0  # atno 10765 bound_to 10752
  140.5518  134.0275  155.7940 H   0  0  0  0  0  0  0  0  0  0  0  0  # atno 11005 bound_to 11000
  146.3087  140.3750  142.8678 LP  0  0  0  0  0  0  0  0  0  0  0  0  # atno 17320 bound_to 7965
  144.8950  140.7571  143.5903 LP  0  0  0  0  0  0  0  0  0  0  0  0  # atno 17321 bound_to 7965
  139.4851  144.6212  151.7251 LP  0  0  0  0  0  0  0  0  0  0  0  0  # atno 17342 bound_to 10162
  140.5371  144.0638  150.6074 LP  0  0  0  0  0  0  0  0  0  0  0  0  # atno 17343 bound_to 10162
  157.7362  130.9775  150.2124 LP  0  0  0  0  0  0  0  0  0  0  0  0  # atno 17370 bound_to 10713
  156.2772  130.3729  149.7971 LP  0  0  0  0  0  0  0  0  0  0  0  0  # atno 17371 bound_to 10713
  141.1167  133.9529  157.2809 LP  0  0  0  0  0  0  0  0  0  0  0  0  # atno 17394 bound_to 11000
  139.9451  135.0185  156.8828 LP  0  0  0  0  0  0  0  0  0  0  0  0  # atno 17395 bound_to 11000

$$$$
