AV-unprocessed.smi:2041|AV-procd|sdf|8290|dock1
  -GOLD-   2272010553D 1   1.00000     0.00000
 Structure written by MMmdl.
 31 32  0  0  0  0  0  0  0  0  1 V2000
  150.1221  140.5040  156.7320 O   0  0  0  0  0  0  0  0  0  0  0  0
  149.8876  141.6231  156.2747 C   0  0  0  0  0  0  0  0  0  0  0  0
  150.4426  142.7703  156.7029 N   0  0  0  0  0  0  0  0  0  0  0  0
  151.3854  142.9545  157.7483 C   0  0  0  0  0  0  0  0  0  0  0  0
  151.7722  141.9930  158.5950 N   0  0  0  0  0  0  0  0  0  0  0  0
  152.7078  142.4572  159.5232 C   0  0  0  0  0  0  0  0  0  0  0  0
  153.0252  143.7835  159.3667 C   0  0  0  0  0  0  0  0  0  0  0  0
  152.1570  144.5066  158.0392 S   0  0  0  0  0  0  0  0  0  0  0  0
  149.0301  141.8474  155.2684 N   0  0  0  0  0  0  0  0  0  0  0  0
  148.2236  140.8332  154.5890 C   0  0  2  0  0  0  0  0  0  0  0  0
  147.0790  140.3349  155.5095 C   0  0  0  0  0  0  0  0  0  0  0  0
  146.5423  138.9172  155.2201 C   0  0  0  0  0  0  0  0  0  0  0  0
  146.0883  138.6609  153.7686 C   0  0  0  0  0  0  0  0  0  0  0  0
  147.1218  138.9559  152.6556 C   0  0  0  0  0  0  0  0  0  0  0  0
  148.5153  138.8867  153.0932 N   0  0  0  0  0  0  0  0  0  0  0  0
  149.0985  139.7298  153.9627 C   0  0  0  0  0  0  0  0  0  0  0  0
  150.2853  139.6171  154.2680 O   0  0  0  0  0  0  0  0  0  0  0  0
  150.1510  143.6130  156.2298 H   0  0  0  0  0  0  0  0  0  0  0  0
  153.0968  141.7736  160.2634 H   0  0  0  0  0  0  0  0  0  0  0  0
  153.7141  144.3763  159.9498 H   0  0  0  0  0  0  0  0  0  0  0  0
  148.8981  142.8000  154.9607 H   0  0  0  0  0  0  0  0  0  0  0  0
  147.7611  141.3398  153.7407 H   0  0  0  0  0  0  0  0  0  0  0  0
  147.4177  140.3489  156.5466 H   0  0  0  0  0  0  0  0  0  0  0  0
  146.2540  141.0466  155.4626 H   0  0  0  0  0  0  0  0  0  0  0  0
  147.2983  138.1807  155.4960 H   0  0  0  0  0  0  0  0  0  0  0  0
  145.7025  138.7208  155.8872 H   0  0  0  0  0  0  0  0  0  0  0  0
  145.7970  137.6125  153.6965 H   0  0  0  0  0  0  0  0  0  0  0  0
  145.1799  139.2288  153.5651 H   0  0  0  0  0  0  0  0  0  0  0  0
  146.9840  138.2508  151.8354 H   0  0  0  0  0  0  0  0  0  0  0  0
  146.9328  139.9386  152.2221 H   0  0  0  0  0  0  0  0  0  0  0  0
  149.0845  138.1550  152.6925 H   0  0  0  0  0  0  0  0  0  0  0  0
  1  2  2  0  0  0  0
  2  3  1  0  0  0  0
  2  9  1  0  0  0  0
  3  4  1  0  0  0  0
  3 18  1  0  0  0  0
  4  8  1  0  0  0  0
  4  5  2  0  0  0  0
  5  6  1  0  0  0  0
  6  7  2  0  0  0  0
  6 19  1  0  0  0  0
  7  8  1  0  0  0  0
  7 20  1  0  0  0  0
  9 10  1  0  0  0  0
  9 21  1  0  0  0  0
 10 16  1  0  0  0  0
 10 11  1  0  0  0  0
 10 22  1  0  0  0  0
 11 12  1  0  0  0  0
 11 23  1  0  0  0  0
 11 24  1  0  0  0  0
 12 13  1  0  0  0  0
 12 25  1  0  0  0  0
 12 26  1  0  0  0  0
 13 14  1  0  0  0  0
 13 27  1  0  0  0  0
 13 28  1  0  0  0  0
 14 15  1  0  0  0  0
 14 29  1  0  0  0  0
 14 30  1  0  0  0  0
 15 16  1  0  0  0  0
 15 31  1  0  0  0  0
 16 17  2  0  0  0  0
M  END
> <s_m_source_file>
AV-unprocessed.smi

> <i_m_source_file_index>
2041

> <i_lp_mmshare_version>
43012

> <i_f3d_flags>
0

> <s_epik_input>
czFbY0hdW2NIXW5jMVtOSF1DKD1PKVtOSF1bQ0BASF0yW0NIMl1bQ0gyXVtDSDJdW0NIMl1bTkhdQzI9Tw==

> <s_epik_cmdline>
J2VwaWtfcHl0aG9uJywgJy1waCcsICc3LjAnLCAnLXRuJywgJzgnLCAnLW1hJywgJzIwMCcsICctbWV0YWxfYmluZGluZycsICctaW1hZScsICc8aW5maWxlLm1hZT4nLCAnLW9tYWUnLCAnPG91dGZpbGUubWFlPic=

> <r_lp_tautomer_probability>
1

> <r_epik_Ionization_Penalty>
0.000247973

> <r_epik_Ionization_Penalty_Charging>
0

> <r_epik_Ionization_Penalty_Neutral>
0.000247973

> <r_epik_State_Penalty>
-0

> <r_epik_Charging_Adjusted_Penalty>
0

> <i_epik_Tot_Q>
0

> <i_epik_Tot_abs_Q>
0

> <r_epik_Metal_State_Penalty>
0.011719

> <b_epik_Metal_Only>
0

> <s_lp_Force_Field>
OPLS_2005

> <r_lp_Energy>
12.9597

> <b_lp_Chiralities_Consistent>
1

> <s_lp_Variant>
AV-unprocessed.smi:2041-1

> <Gold.Version>
5.8.1

> <Gold.Id.Protein>
6NUR|6NUR_protein|mol2

> <Gold.PLP.Fitness>
41.4990

> <Gold.PLP.PLP>
-30.6084

> <Gold.PLP.part.hbond>
-4.8582

> <Gold.PLP.part.metal>
0.0000

> <Gold.PLP.part.buried>
-2.5927

> <Gold.PLP.part.nonpolar>
-23.8284

> <Gold.PLP.part.repulsive>
0.4693

> <Gold.PLP.ligand.clash>
0.0000

> <Gold.PLP.ligand.torsion>
0.0809

> <Gold.PLP.Chemscore.Hbond>
3.6662

> <Gold.PLP.Chemscore.CHOScore>
0.0000

> <Gold.PLP.Chemscore.Metal>
0.0000

> <Gold.Chemscore.Hbonds>
donor molecule, donor type, donor heavy atom, donor atom, acceptor molecule, acceptor atom, score
      L1  H     3    18       P1  8028  1.00
      L1  H     9    21       P1  8028  0.85
      L1  H    15    31       P1  7948  0.80
      P1  H  7989  7998       L1    17  1.00

> <Gold.PLP.Chemscore.Internal.Correction>
0.0538

> <Gold.Rescore>
     Score         DG    S(hbond)    S(metal)    S(lipo)     H(rot)  DE(clash)    DE(int)     intcor
     16.69     -20.81       3.37        0.00      56.73       1.00       0.12       3.99       ----

> <Gold.Chemscore.Fitness>
16.6924

> <Gold.Chemscore.DG>
-20.8081

> <Gold.Chemscore.ZeroCoef>
-5.4800

> <Gold.Chemscore.Hbond>
3.3683

> <Gold.Chemscore.Metal>
0.0000

> <Gold.Chemscore.Lipo>
56.7349

> <Gold.Chemscore.Internal_Hbond>
0.0000

> <Gold.Chemscore.DEClash>
0.1243

> <Gold.Chemscore.DEInternal>
3.9913

> <Gold.Chemscore.Rot>
1.0000

> <Gold.Chemscore.Internal.Correction>
   9.000000E+99

> <Gold.Chemscore.Hbonds>
donor molecule, donor type, donor heavy atom, donor atom, acceptor molecule, acceptor atom, score
      L1  H     3    18       P1  8028  0.96
      L1  H     9    21       P1  8028  0.79
      L1  H    15    31       P1  7948  0.74
      P1  H  7989  7998       L1    17  0.94

> <Gold.Chemscore.Hbond.Weighted>
-11.2501

> <Gold.Chemscore.Metal.Weighted>
-0.0000

> <Gold.Chemscore.Lipo.Weighted>
-6.6380

> <Gold.Chemscore.Internal_Hbond.Weighted>
0.0000

> <Gold.Chemscore.DEClash.Weighted>
0.1243

> <Gold.Chemscore.DEInternal.Weighted>
3.9913

> <Gold.Chemscore.Rot.Weighted>
2.5600

> <Gold.Chemscore.Internal.Correction.Weighted>
   9.000000E+99

> <Gold.Protein.RotatedTorsions>
[ 6907 6896 6895 6894 ] final  126.31 input  -60.11 | X-H torsion
[ 7974 7965 7964 7962 ] final  -46.93 input  175.53 | X-H torsion
[ 8008 7997 7996 7995 ] final -135.61 input   59.86 | X-H torsion
[ 10167 10162 10161 10158 ] final  -66.76 input  -65.29 | X-H torsion
[ 10718 10713 10712 10709 ] final -105.37 input   66.30 | X-H torsion
[ 10763 10752 10751 10750 ] final -168.05 input  -60.55 | X-H torsion
[ 11005 11000 10999 10996 ] final   12.09 input  -57.11 | X-H torsion

> <Gold.Protein.ActiveResidues>
 VAL166  LYS551  ARG553  GLY616  TRP617  ASP618  TYR619  PRO620  LYS621  CYS622 
 ASP623  PHE694  ASN695  SER759  ASP760  ASP761  ALA762  ILE779  LEU786  VAL792 
 PHE793  MET794  SER795  GLU796  ALA797  LYS798  CYS799  TRP800  GLU811  SER814 

> <Gold.Protein.RotatedAtoms>
  152.3914  133.6685  159.6240 H   0  0  0  0  0  0  0  0  0  0  0  0  # atno 6907 bound_to 6896
  150.7822  133.8947  159.3332 H   0  0  0  0  0  0  0  0  0  0  0  0  # atno 6908 bound_to 6896
  151.6733  135.0974  160.0253 H   0  0  0  0  0  0  0  0  0  0  0  0  # atno 6909 bound_to 6896
  145.9669  140.7423  142.9430 H   0  0  0  0  0  0  0  0  0  0  0  0  # atno 7974 bound_to 7965
  155.3815  140.0494  157.3043 H   0  0  0  0  0  0  0  0  0  0  0  0  # atno 8008 bound_to 7997
  154.5080  140.2181  155.9174 H   0  0  0  0  0  0  0  0  0  0  0  0  # atno 8009 bound_to 7997
  156.1549  140.3128  155.8714 H   0  0  0  0  0  0  0  0  0  0  0  0  # atno 8010 bound_to 7997
  140.5633  143.2313  151.6685 H   0  0  0  0  0  0  0  0  0  0  0  0  # atno 10167 bound_to 10162
  156.0343  130.5560  150.7529 H   0  0  0  0  0  0  0  0  0  0  0  0  # atno 10718 bound_to 10713
  154.6668  135.2933  154.9794 H   0  0  0  0  0  0  0  0  0  0  0  0  # atno 10763 bound_to 10752
  154.0835  135.6601  153.4845 H   0  0  0  0  0  0  0  0  0  0  0  0  # atno 10764 bound_to 10752
  153.0462  135.5203  154.7645 H   0  0  0  0  0  0  0  0  0  0  0  0  # atno 10765 bound_to 10752
  140.4959  134.0794  155.7782 H   0  0  0  0  0  0  0  0  0  0  0  0  # atno 11005 bound_to 11000
  144.6827  140.2683  143.7309 LP  0  0  0  0  0  0  0  0  0  0  0  0  # atno 17320 bound_to 7965
  145.7962  139.1946  143.2074 LP  0  0  0  0  0  0  0  0  0  0  0  0  # atno 17321 bound_to 7965
  139.5080  144.3625  152.0548 LP  0  0  0  0  0  0  0  0  0  0  0  0  # atno 17342 bound_to 10162
  140.2754  144.3918  150.6137 LP  0  0  0  0  0  0  0  0  0  0  0  0  # atno 17343 bound_to 10162
  157.5068  131.0922  151.0247 LP  0  0  0  0  0  0  0  0  0  0  0  0  # atno 17370 bound_to 10713
  157.0613  130.5826  149.5386 LP  0  0  0  0  0  0  0  0  0  0  0  0  # atno 17371 bound_to 10713
  141.1460  133.9053  157.2213 LP  0  0  0  0  0  0  0  0  0  0  0  0  # atno 17394 bound_to 11000
  139.9742  135.0119  156.9588 LP  0  0  0  0  0  0  0  0  0  0  0  0  # atno 17395 bound_to 11000

$$$$
