AV-unprocessed.smi:1235|AV-procd|sdf|5178|dock7
  -GOLD-   22720 4253D 1   1.00000     0.00000
 Structure written by MMmdl.
 50 51  0  0  0  0  0  0  0  0  2 V2000
  154.1901  138.3689  158.8613 C   0  0  0  0  0  0  0  0  0  0  0  0
  153.6147  138.8033  157.6416 O   0  0  0  0  0  0  0  0  0  0  0  0
  153.6457  137.8009  156.6401 C   0  0  0  0  0  0  0  0  0  0  0  0
  153.0782  138.3829  155.3364 C   0  0  0  0  0  0  0  0  0  0  0  0
  151.6736  138.0068  155.1456 N   0  0  0  0  0  0  0  0  0  0  0  0
  151.4440  136.6412  155.1826 N   0  0  0  0  0  0  0  0  0  0  0  0
  150.2467  136.1791  155.0178 C   0  0  0  0  0  0  0  0  0  0  0  0
  149.9550  134.7189  155.0547 C   0  0  0  0  0  0  0  0  0  0  0  0
  150.2204  134.0267  156.0391 O   0  0  0  0  0  0  0  0  0  0  0  0
  149.3915  134.2118  153.9431 N   0  0  0  0  0  0  0  0  0  0  0  0
  149.0286  132.8117  153.7541 C   0  0  0  0  0  0  0  0  0  0  0  0
  147.5884  132.6713  153.2162 C   0  0  0  0  0  0  0  0  0  0  0  0
  147.2945  131.3226  152.6501 N   0  3  1  0  0  0  0  0  0  0  0  0
  147.8355  130.2320  153.5134 C   0  0  0  0  0  0  0  0  0  0  0  0
  147.6448  128.8449  152.8846 C   0  0  0  0  0  0  0  0  0  0  0  0
  146.1668  128.5856  152.5986 C   0  0  0  0  0  0  0  0  0  0  0  0
  145.6251  129.7031  151.7054 C   0  0  0  0  0  0  0  0  0  0  0  0
  145.8458  131.1021  152.3233 C   0  0  2  0  0  0  0  0  0  0  0  0
  145.2695  132.1565  151.3544 C   0  0  0  0  0  0  0  0  0  0  0  0
  149.1269  137.0771  154.7907 C   0  0  0  0  0  0  0  0  0  0  0  0
  149.3669  138.4061  154.7556 C   0  0  0  0  0  0  0  0  0  0  0  0
  150.7114  138.9555  154.9370 C   0  0  0  0  0  0  0  0  0  0  0  0
  150.9565  140.1609  154.9012 O   0  0  0  0  0  0  0  0  0  0  0  0
  154.1403  139.1721  159.5962 H   0  0  0  0  0  0  0  0  0  0  0  0
  155.2387  138.0988  158.7291 H   0  0  0  0  0  0  0  0  0  0  0  0
  153.6553  137.5085  159.2662 H   0  0  0  0  0  0  0  0  0  0  0  0
  154.6706  137.4578  156.4900 H   0  0  0  0  0  0  0  0  0  0  0  0
  153.0525  136.9410  156.9563 H   0  0  0  0  0  0  0  0  0  0  0  0
  153.1726  139.4701  155.3546 H   0  0  0  0  0  0  0  0  0  0  0  0
  153.6796  138.0543  154.4869 H   0  0  0  0  0  0  0  0  0  0  0  0
  149.2010  134.8441  153.1783 H   0  0  0  0  0  0  0  0  0  0  0  0
  149.7396  132.3292  153.0812 H   0  0  0  0  0  0  0  0  0  0  0  0
  149.1388  132.3306  154.7245 H   0  0  0  0  0  0  0  0  0  0  0  0
  146.8632  132.9074  153.9965 H   0  0  0  0  0  0  0  0  0  0  0  0
  147.4704  133.4333  152.4506 H   0  0  0  0  0  0  0  0  0  0  0  0
  148.9008  130.3684  153.6876 H   0  0  0  0  0  0  0  0  0  0  0  0
  147.3503  130.2678  154.4901 H   0  0  0  0  0  0  0  0  0  0  0  0
  148.2200  128.7750  151.9603 H   0  0  0  0  0  0  0  0  0  0  0  0
  148.0347  128.0758  153.5521 H   0  0  0  0  0  0  0  0  0  0  0  0
  146.0387  127.6173  152.1137 H   0  0  0  0  0  0  0  0  0  0  0  0
  145.6051  128.5474  153.5329 H   0  0  0  0  0  0  0  0  0  0  0  0
  146.1081  129.6511  150.7282 H   0  0  0  0  0  0  0  0  0  0  0  0
  144.5618  129.5345  151.5300 H   0  0  0  0  0  0  0  0  0  0  0  0
  145.2809  131.1548  153.2557 H   0  0  0  0  0  0  0  0  0  0  0  0
  144.2796  131.8622  151.0040 H   0  0  0  0  0  0  0  0  0  0  0  0
  145.9031  132.2801  150.4759 H   0  0  0  0  0  0  0  0  0  0  0  0
  145.1393  133.1308  151.8239 H   0  0  0  0  0  0  0  0  0  0  0  0
  148.1239  136.7001  154.6527 H   0  0  0  0  0  0  0  0  0  0  0  0
  148.5439  139.0852  154.5882 H   0  0  0  0  0  0  0  0  0  0  0  0
  147.7889  131.2696  151.7709 H   0  0  0  0  0  0  0  0  0  0  0  0
  1  2  1  0  0  0  0
  1 24  1  0  0  0  0
  1 25  1  0  0  0  0
  1 26  1  0  0  0  0
  2  3  1  0  0  0  0
  3  4  1  0  0  0  0
  3 27  1  0  0  0  0
  3 28  1  0  0  0  0
  4  5  1  0  0  0  0
  4 29  1  0  0  0  0
  4 30  1  0  0  0  0
  5 22  1  0  0  0  0
  5  6  1  0  0  0  0
  6  7  2  0  0  0  0
  7  8  1  0  0  0  0
  7 20  1  0  0  0  0
  8  9  2  0  0  0  0
  8 10  1  0  0  0  0
 10 11  1  0  0  0  0
 10 31  1  0  0  0  0
 11 12  1  0  0  0  0
 11 32  1  0  0  0  0
 11 33  1  0  0  0  0
 12 13  1  0  0  0  0
 12 34  1  0  0  0  0
 12 35  1  0  0  0  0
 13 18  1  0  0  0  0
 13 14  1  0  0  0  0
 13 50  1  0  0  0  0
 14 15  1  0  0  0  0
 14 36  1  0  0  0  0
 14 37  1  0  0  0  0
 15 16  1  0  0  0  0
 15 38  1  0  0  0  0
 15 39  1  0  0  0  0
 16 17  1  0  0  0  0
 16 40  1  0  0  0  0
 16 41  1  0  0  0  0
 17 18  1  0  0  0  0
 17 42  1  0  0  0  0
 17 43  1  0  0  0  0
 18 19  1  0  0  0  0
 18 44  1  0  0  0  0
 19 45  1  0  0  0  0
 19 46  1  0  0  0  0
 19 47  1  0  0  0  0
 20 21  2  0  0  0  0
 20 48  1  0  0  0  0
 21 22  1  0  0  0  0
 21 49  1  0  0  0  0
 22 23  2  0  0  0  0
M  CHG  1  13   1
M  END
> <s_m_source_file>
AV-unprocessed.smi

> <i_m_source_file_index>
1235

> <i_lp_mmshare_version>
43012

> <i_f3d_flags>
0

> <s_epik_input>
W0NIM11PW0NIMl1bQ0gyXW4xbmMoW2NIXVtjSF1jMT1PKUMoPU8pW05IXVtDSDJdW0NIMl1OMltDSDJdW0NIMl1bQ0gyXVtDSDJdW0NASF0yW0NIM10=

> <s_epik_cmdline>
J2VwaWtfcHl0aG9uJywgJy1waCcsICc3LjAnLCAnLXRuJywgJzgnLCAnLW1hJywgJzIwMCcsICctbWV0YWxfYmluZGluZycsICctaW1hZScsICc8aW5maWxlLm1hZT4nLCAnLW9tYWUnLCAnPG91dGZpbGUubWFlPic=

> <r_lp_tautomer_probability>
1

> <r_epik_Ionization_Penalty>
0.00271975

> <r_epik_Ionization_Penalty_Charging>
0.00271407

> <r_epik_Ionization_Penalty_Neutral>
5.6803e-06

> <r_epik_State_Penalty>
0.00189271

> <r_epik_Charging_Adjusted_Penalty>
0.00460678

> <i_epik_Tot_Q>
1

> <i_epik_Tot_abs_Q>
1

> <r_epik_Metal_State_Penalty>
-0

> <b_epik_Metal_Only>
0

> <s_lp_Force_Field>
OPLS_2005

> <r_lp_Energy>
40.1633

> <b_lp_Chiralities_Consistent>
1

> <s_lp_Variant>
AV-unprocessed.smi:1235-4

> <Gold.Version>
5.8.1

> <Gold.Id.Protein>
6NUR|6NUR_protein|mol2

> <Gold.PLP.Fitness>
49.6146

> <Gold.PLP.PLP>
-39.0207

> <Gold.PLP.part.hbond>
-5.0000

> <Gold.PLP.part.metal>
0.0000

> <Gold.PLP.part.buried>
-3.0763

> <Gold.PLP.part.nonpolar>
-31.0707

> <Gold.PLP.part.repulsive>
0.1986

> <Gold.PLP.ligand.clash>
0.0000

> <Gold.PLP.ligand.torsion>
1.6006

> <Gold.PLP.Chemscore.Hbond>
4.5500

> <Gold.PLP.Chemscore.CHOScore>
0.0000

> <Gold.PLP.Chemscore.Metal>
0.0000

> <Gold.Chemscore.Hbonds>
donor molecule, donor type, donor heavy atom, donor atom, acceptor molecule, acceptor atom, score
      L1  H    10    31       P1  7948  0.60
      L1  H    13    50       P1 10747  1.00
      P1  H  7989  7998       L1    23  1.00
      P1  H  7997  8009       L1     2  1.00
      P1  H 10752 10763       L1     6  1.00

> <Gold.PLP.Chemscore.Internal.Correction>
0.1452

> <Gold.Rescore>
     Score         DG    S(hbond)    S(metal)    S(lipo)     H(rot)  DE(clash)    DE(int)     intcor
     20.47     -22.92       3.50        0.00      93.03       2.00       0.71       1.75       ----

> <Gold.Chemscore.Fitness>
20.4678

> <Gold.Chemscore.DG>
-22.9249

> <Gold.Chemscore.ZeroCoef>
-5.4800

> <Gold.Chemscore.Hbond>
3.4986

> <Gold.Chemscore.Metal>
0.0000

> <Gold.Chemscore.Lipo>
93.0321

> <Gold.Chemscore.Internal_Hbond>
0.0000

> <Gold.Chemscore.DEClash>
0.7111

> <Gold.Chemscore.DEInternal>
1.7459

> <Gold.Chemscore.Rot>
2.0020

> <Gold.Chemscore.Internal.Correction>
   9.000000E+99

> <Gold.Chemscore.Hbonds>
donor molecule, donor type, donor heavy atom, donor atom, acceptor molecule, acceptor atom, score
      L1  H    10    31       P1  7948  0.04
      L1  H    13    50       P1 10747  0.99
      P1  H  7989  7998       L1    23  0.98
      P1  H  7997  8009       L1     2  0.24
      P1  H 10752 10763       L1     6  0.77

> <Gold.Chemscore.Hbond.Weighted>
-11.6853

> <Gold.Chemscore.Metal.Weighted>
-0.0000

> <Gold.Chemscore.Lipo.Weighted>
-10.8848

> <Gold.Chemscore.Internal_Hbond.Weighted>
0.0000

> <Gold.Chemscore.DEClash.Weighted>
0.7111

> <Gold.Chemscore.DEInternal.Weighted>
1.7459

> <Gold.Chemscore.Rot.Weighted>
5.1252

> <Gold.Chemscore.Internal.Correction.Weighted>
   9.000000E+99

> <Gold.Protein.RotatedTorsions>
[ 6907 6896 6895 6894 ] final  179.31 input  -60.11 | X-H torsion
[ 7974 7965 7964 7962 ] final   46.99 input  175.53 | X-H torsion
[ 8008 7997 7996 7995 ] final  163.07 input   59.86 | X-H torsion
[ 10167 10162 10161 10158 ] final  152.68 input  -65.29 | X-H torsion
[ 10718 10713 10712 10709 ] final  -12.13 input   66.30 | X-H torsion
[ 10763 10752 10751 10750 ] final   47.44 input  -60.55 | X-H torsion
[ 11005 11000 10999 10996 ] final  -93.16 input  -57.11 | X-H torsion

> <Gold.Protein.ActiveResidues>
 VAL166  LYS551  ARG553  GLY616  TRP617  ASP618  TYR619  PRO620  LYS621  CYS622 
 ASP623  PHE694  ASN695  SER759  ASP760  ASP761  ALA762  ILE779  LEU786  VAL792 
 PHE793  MET794  SER795  GLU796  ALA797  LYS798  CYS799  TRP800  GLU811  SER814 

> <Gold.Protein.RotatedAtoms>
  151.6737  133.3313  159.3202 H   0  0  0  0  0  0  0  0  0  0  0  0  # atno 6907 bound_to 6896
  150.7855  134.6840  159.6469 H   0  0  0  0  0  0  0  0  0  0  0  0  # atno 6908 bound_to 6896
  152.3924  134.6423  160.0154 H   0  0  0  0  0  0  0  0  0  0  0  0  # atno 6909 bound_to 6896
  146.0339  139.4796  142.9821 H   0  0  0  0  0  0  0  0  0  0  0  0  # atno 7974 bound_to 7965
  156.1984  140.1733  156.7949 H   0  0  0  0  0  0  0  0  0  0  0  0  # atno 8008 bound_to 7997
  154.5560  140.0708  156.8775 H   0  0  0  0  0  0  0  0  0  0  0  0  # atno 8009 bound_to 7997
  155.2938  140.3357  155.4253 H   0  0  0  0  0  0  0  0  0  0  0  0  # atno 8010 bound_to 7997
  139.4831  144.5337  151.7680 H   0  0  0  0  0  0  0  0  0  0  0  0  # atno 10167 bound_to 10162
  156.6490  130.4949  149.6068 H   0  0  0  0  0  0  0  0  0  0  0  0  # atno 10718 bound_to 10713
  152.9800  135.5976  154.3763 H   0  0  0  0  0  0  0  0  0  0  0  0  # atno 10763 bound_to 10752
  154.3432  135.2767  155.2413 H   0  0  0  0  0  0  0  0  0  0  0  0  # atno 10764 bound_to 10752
  154.4486  135.5995  153.6232 H   0  0  0  0  0  0  0  0  0  0  0  0  # atno 10765 bound_to 10752
  141.1504  133.7869  157.0120 H   0  0  0  0  0  0  0  0  0  0  0  0  # atno 11005 bound_to 11000
  145.6996  141.0140  143.1511 LP  0  0  0  0  0  0  0  0  0  0  0  0  # atno 17320 bound_to 7965
  144.7043  139.8629  143.7435 LP  0  0  0  0  0  0  0  0  0  0  0  0  # atno 17321 bound_to 7965
  140.4867  144.1371  150.5942 LP  0  0  0  0  0  0  0  0  0  0  0  0  # atno 17342 bound_to 10162
  140.4218  143.2608  151.9706 LP  0  0  0  0  0  0  0  0  0  0  0  0  # atno 17343 bound_to 10162
  156.2099  130.6672  151.1258 LP  0  0  0  0  0  0  0  0  0  0  0  0  # atno 17370 bound_to 10713
  157.7147  131.0716  150.6372 LP  0  0  0  0  0  0  0  0  0  0  0  0  # atno 17371 bound_to 10713
  140.0871  134.9614  157.1718 LP  0  0  0  0  0  0  0  0  0  0  0  0  # atno 17394 bound_to 11000
  140.3496  134.2613  155.7200 LP  0  0  0  0  0  0  0  0  0  0  0  0  # atno 17395 bound_to 11000

$$$$
