AV-unprocessed.smi:160|AV-procd|sdf|1359|dock4
  -GOLD-   2262019 63D 1   1.00000     0.00000
 Structure written by MMmdl.
 28 29  0  0  0  0  0  0  0  0  2 V2000
  155.1099  139.8164  158.9969 N   0  5  0  0  0  0  0  0  0  0  0  0
  153.9202  140.4033  159.2529 C   0  0  0  0  0  0  0  0  0  0  0  0
  153.6156  141.0153  160.2761 O   0  0  0  0  0  0  0  0  0  0  0  0
  152.9036  140.2666  158.1446 C   0  0  0  0  0  0  0  0  0  0  0  0
  151.6667  140.8404  158.2559 N   0  0  0  0  0  0  0  0  0  0  0  0
  151.1519  140.4631  157.0929 C   0  0  0  0  0  0  0  0  0  0  0  0
  151.9831  139.7433  156.3340 N   0  0  0  0  0  0  0  0  0  0  0  0
  151.7642  139.1181  154.9941 C   0  0  2  0  0  0  0  0  0  0  0  0
  150.7930  139.8776  154.3368 O   0  0  0  0  0  0  0  0  0  0  0  0
  149.6576  139.0829  153.9975 C   0  0  2  0  0  0  0  0  0  0  0  0
  148.3801  139.9237  154.1473 C   0  0  0  0  0  0  0  0  0  0  0  0
  148.4700  141.0931  153.3616 O   0  0  0  0  0  0  0  0  0  0  0  0
  149.7239  137.9021  154.9687 C   0  0  1  0  0  0  0  0  0  0  0  0
  149.0544  136.7479  154.4944 O   0  0  0  0  0  0  0  0  0  0  0  0
  151.2224  137.6895  155.1409 C   0  0  1  0  0  0  0  0  0  0  0  0
  151.7742  136.8390  154.1522 O   0  0  0  0  0  0  0  0  0  0  0  0
  153.1442  139.5910  157.0170 N   0  0  0  0  0  0  0  0  0  0  0  0
  152.7353  139.1804  154.5009 H   0  0  0  0  0  0  0  0  0  0  0  0
  149.7785  138.7180  152.9755 H   0  0  0  0  0  0  0  0  0  0  0  0
  149.2870  138.1877  155.9264 H   0  0  0  0  0  0  0  0  0  0  0  0
  151.4682  137.2739  156.1194 H   0  0  0  0  0  0  0  0  0  0  0  0
  155.1514  138.7909  158.9623 H   0  0  0  0  0  0  0  0  0  0  0  0
  150.1471  140.7164  156.7882 H   0  0  0  0  0  0  0  0  0  0  0  0
  147.5158  139.3610  153.7944 H   0  0  0  0  0  0  0  0  0  0  0  0
  148.1953  140.1785  155.1915 H   0  0  0  0  0  0  0  0  0  0  0  0
  148.9427  140.8860  152.5698 H   0  0  0  0  0  0  0  0  0  0  0  0
  149.1382  136.7197  153.5536 H   0  0  0  0  0  0  0  0  0  0  0  0
  151.1586  136.7818  153.4374 H   0  0  0  0  0  0  0  0  0  0  0  0
  1  2  1  0  0  0  0
  1 22  1  0  0  0  0
  2  3  2  0  0  0  0
  2  4  1  0  0  0  0
  4 17  2  0  0  0  0
  4  5  1  0  0  0  0
  5  6  2  0  0  0  0
  6  7  1  0  0  0  0
  6 23  1  0  0  0  0
  7  8  1  0  0  0  0
  7 17  1  0  0  0  0
  8 18  1  0  0  0  0
  8 15  1  0  0  0  0
  8  9  1  0  0  0  0
  9 10  1  0  0  0  0
 10 19  1  0  0  0  0
 10 11  1  0  0  0  0
 10 13  1  0  0  0  0
 11 12  1  0  0  0  0
 11 24  1  0  0  0  0
 11 25  1  0  0  0  0
 12 26  1  0  0  0  0
 13 20  1  0  0  0  0
 13 14  1  0  0  0  0
 13 15  1  0  0  0  0
 14 27  1  0  0  0  0
 15 21  1  0  0  0  0
 15 16  1  0  0  0  0
 16 28  1  0  0  0  0
M  CHG  1   1  -1
M  END
> <s_m_source_file>
AV-unprocessed.smi

> <i_m_source_file_index>
160

> <i_lp_mmshare_version>
43012

> <i_f3d_flags>
0

> <s_epik_input>
W05IMl1DKD1PKWMxbltjSF1uKG4xKVtDQEBIXTJPW0NASF0oW0NIMl1bT0hdKVtDQEBIXShbT0hdKVtDQEhdMltPSF0=

> <s_epik_cmdline>
J2VwaWtfcHl0aG9uJywgJy1waCcsICc3LjAnLCAnLXRuJywgJzgnLCAnLW1hJywgJzIwMCcsICctbWV0YWxfYmluZGluZycsICctaW1hZScsICc8aW5maWxlLm1hZT4nLCAnLW9tYWUnLCAnPG91dGZpbGUubWFlPic=

> <r_lp_tautomer_probability>
1

> <r_epik_Ionization_Penalty>
6.6993

> <r_epik_Ionization_Penalty_Charging>
6.6993

> <r_epik_Ionization_Penalty_Neutral>
6.01698e-06

> <r_epik_State_Penalty>
6.69929

> <r_epik_Charging_Adjusted_Penalty>
13.3986

> <i_epik_Tot_Q>
-1

> <i_epik_Tot_abs_Q>
1

> <r_epik_Metal_State_Penalty>
2.62798

> <b_epik_Metal_Only>
1

> <s_epik_Chemistry_Notes>
This compound contains an acetal/aminal-like group ( X-CH(R)-Y where X, Y are N, S, or O) that may be acid/base labile, releasing an aldehyde.

> <s_lp_Force_Field>
OPLS_2005

> <r_lp_Energy>
41.4703

> <b_lp_Chiralities_Consistent>
1

> <s_lp_Variant>
AV-unprocessed.smi:160-17

> <Gold.Version>
5.8.1

> <Gold.Id.Protein>
6NUR|6NUR_protein|mol2

> <Gold.PLP.Fitness>
43.3422

> <Gold.PLP.PLP>
-27.5482

> <Gold.PLP.part.hbond>
-7.9138

> <Gold.PLP.part.metal>
0.0000

> <Gold.PLP.part.buried>
-1.0432

> <Gold.PLP.part.nonpolar>
-17.5300

> <Gold.PLP.part.repulsive>
0.1109

> <Gold.PLP.ligand.clash>
0.0000

> <Gold.PLP.ligand.torsion>
0.7520

> <Gold.PLP.Chemscore.Hbond>
5.7584

> <Gold.PLP.Chemscore.CHOScore>
0.0000

> <Gold.PLP.Chemscore.Metal>
0.0000

> <Gold.Chemscore.Hbonds>
donor molecule, donor type, donor heavy atom, donor atom, acceptor molecule, acceptor atom, score
      L1  H    12    26       P1  7957  1.00
      L1  H    14    27       P1  7948  1.00
      L1  H    16    28       P1  7949  0.60
      P1  H  7989  7998       L1     9  1.00
      P1  H  7997  8008       L1    17  0.65
      P1  H  7997  8010       L1     1  0.39
      P1  H 10752 10764       L1    16  1.00

> <Gold.PLP.Chemscore.Internal.Correction>
0.0227

> <Gold.Rescore>
     Score         DG    S(hbond)    S(metal)    S(lipo)     H(rot)  DE(clash)    DE(int)     intcor
     11.99     -12.90       4.46        0.00      24.43       4.04       0.11       0.80       ----

> <Gold.Chemscore.Fitness>
11.9864

> <Gold.Chemscore.DG>
-12.9003

> <Gold.Chemscore.ZeroCoef>
-5.4800

> <Gold.Chemscore.Hbond>
4.4626

> <Gold.Chemscore.Metal>
0.0000

> <Gold.Chemscore.Lipo>
24.4305

> <Gold.Chemscore.Internal_Hbond>
0.0000

> <Gold.Chemscore.DEClash>
0.1139

> <Gold.Chemscore.DEInternal>
0.8000

> <Gold.Chemscore.Rot>
4.0403

> <Gold.Chemscore.Internal.Correction>
   9.000000E+99

> <Gold.Chemscore.Hbonds>
donor molecule, donor type, donor heavy atom, donor atom, acceptor molecule, acceptor atom, score
      L1  H    12    26       P1  7957  1.00
      L1  H    14    27       P1  7948  0.99
      L1  H    16    28       P1  7949  0.29
      P1  H  7989  7998       L1     9  0.37
      P1  H  7997  8008       L1    17  0.32
      P1  H  7997  8010       L1     1  0.02
      P1  H 10752 10764       L1    16  0.88

> <Gold.Chemscore.Hbond.Weighted>
-14.9050

> <Gold.Chemscore.Metal.Weighted>
-0.0000

> <Gold.Chemscore.Lipo.Weighted>
-2.8584

> <Gold.Chemscore.Internal_Hbond.Weighted>
0.0000

> <Gold.Chemscore.DEClash.Weighted>
0.1139

> <Gold.Chemscore.DEInternal.Weighted>
0.8000

> <Gold.Chemscore.Rot.Weighted>
10.3431

> <Gold.Chemscore.Internal.Correction.Weighted>
   9.000000E+99

> <Gold.Protein.RotatedTorsions>
[ 6907 6896 6895 6894 ] final   65.86 input  -60.11 | X-H torsion
[ 7974 7965 7964 7962 ] final -156.19 input  175.53 | X-H torsion
[ 8008 7997 7996 7995 ] final  -54.05 input   59.86 | X-H torsion
[ 10167 10162 10161 10158 ] final   22.50 input  -65.29 | X-H torsion
[ 10718 10713 10712 10709 ] final  139.41 input   66.30 | X-H torsion
[ 10763 10752 10751 10750 ] final  -89.72 input  -60.55 | X-H torsion
[ 11005 11000 10999 10996 ] final  -70.67 input  -57.11 | X-H torsion

> <Gold.Protein.ActiveResidues>
 VAL166  LYS551  ARG553  GLY616  TRP617  ASP618  TYR619  PRO620  LYS621  CYS622 
 ASP623  PHE694  ASN695  SER759  ASP760  ASP761  ALA762  ILE779  LEU786  VAL792 
 PHE793  MET794  SER795  GLU796  ALA797  LYS798  CYS799  TRP800  GLU811  SER814 

> <Gold.Protein.RotatedAtoms>
  152.4438  134.5536  159.9873 H   0  0  0  0  0  0  0  0  0  0  0  0  # atno 6907 bound_to 6896
  151.5626  133.3395  159.2982 H   0  0  0  0  0  0  0  0  0  0  0  0  # atno 6908 bound_to 6896
  150.8350  134.7653  159.6949 H   0  0  0  0  0  0  0  0  0  0  0  0  # atno 6909 bound_to 6896
  144.7604  140.4144  143.5980 H   0  0  0  0  0  0  0  0  0  0  0  0  # atno 7974 bound_to 7965
  154.4151  140.1185  156.5253 H   0  0  0  0  0  0  0  0  0  0  0  0  # atno 8008 bound_to 7997
  155.6660  140.3496  155.4781 H   0  0  0  0  0  0  0  0  0  0  0  0  # atno 8009 bound_to 7997
  155.9673  140.1134  157.0833 H   0  0  0  0  0  0  0  0  0  0  0  0  # atno 8010 bound_to 7997
  140.5343  143.9787  150.6483 H   0  0  0  0  0  0  0  0  0  0  0  0  # atno 10167 bound_to 10162
  157.4147  131.1032  151.0418 H   0  0  0  0  0  0  0  0  0  0  0  0  # atno 10718 bound_to 10713
  154.6582  135.5330  153.7985 H   0  0  0  0  0  0  0  0  0  0  0  0  # atno 10763 bound_to 10752
  153.0426  135.6499  154.0912 H   0  0  0  0  0  0  0  0  0  0  0  0  # atno 10764 bound_to 10752
  154.0823  135.2946  155.3268 H   0  0  0  0  0  0  0  0  0  0  0  0  # atno 10765 bound_to 10752
  141.1578  133.6796  156.6788 H   0  0  0  0  0  0  0  0  0  0  0  0  # atno 11005 bound_to 11000
  145.6637  139.1586  143.2794 LP  0  0  0  0  0  0  0  0  0  0  0  0  # atno 17320 bound_to 7965
  146.1662  140.6715  142.9254 LP  0  0  0  0  0  0  0  0  0  0  0  0  # atno 17321 bound_to 7965
  140.3170  143.3161  152.0822 LP  0  0  0  0  0  0  0  0  0  0  0  0  # atno 17342 bound_to 10162
  139.4965  144.6599  151.6489 LP  0  0  0  0  0  0  0  0  0  0  0  0  # atno 17343 bound_to 10162
  157.1369  130.6126  149.5544 LP  0  0  0  0  0  0  0  0  0  0  0  0  # atno 17370 bound_to 10713
  155.9861  130.4894  150.7064 LP  0  0  0  0  0  0  0  0  0  0  0  0  # atno 17371 bound_to 10713
  140.3118  134.8079  157.4183 LP  0  0  0  0  0  0  0  0  0  0  0  0  # atno 17394 bound_to 11000
  140.1172  134.5268  155.8215 LP  0  0  0  0  0  0  0  0  0  0  0  0  # atno 17395 bound_to 11000

$$$$
