AV-unprocessed.smi:2506|AV-procd|sdf|9862|dock3
  -GOLD-   2272013493D 1   1.00000     0.00000
 Structure written by MMmdl.
 39 40  0  0  0  0  0  0  0  0  2 V2000
  147.4846  142.0416  154.0965 C   0  0  0  0  0  0  0  0  0  0  0  0
  148.4227  140.8526  154.2120 C   0  0  0  0  0  0  0  0  0  0  0  0
  148.0256  139.7345  153.5592 N   0  0  0  0  0  0  0  0  0  0  0  0
  148.8157  138.6504  153.6255 N   0  3  0  0  0  0  0  0  0  0  0  0
  149.9786  138.6252  154.3174 C   0  0  0  0  0  0  0  0  0  0  0  0
  150.4215  139.7675  155.0088 C   0  0  0  0  0  0  0  0  0  0  0  0
  149.6267  140.9344  154.9501 C   0  0  0  0  0  0  0  0  0  0  0  0
  149.9564  142.1473  155.6175 N   0  0  0  0  0  0  0  0  0  0  0  0
  150.8960  142.3535  156.5555 C   0  0  0  0  0  0  0  0  0  0  0  0
  151.6389  141.4876  157.0172 O   0  0  0  0  0  0  0  0  0  0  0  0
  150.9449  143.6440  156.9142 N   0  0  0  0  0  0  0  0  0  0  0  0
  151.8696  144.2249  157.8856 C   0  0  0  0  0  0  0  0  0  0  0  0
  151.5075  143.8675  159.3489 C   0  0  0  0  0  0  0  0  0  0  0  0
  149.9762  143.7426  159.5201 C   0  0  0  0  0  0  0  0  0  0  0  0
  152.2139  142.5862  159.8264 C   0  0  0  0  0  0  0  0  0  0  0  0
  152.3242  142.7049  161.3507 C   0  0  0  0  0  0  0  0  0  0  0  0
  152.2389  144.2034  161.6703 C   0  0  0  0  0  0  0  0  0  0  0  0
  152.0602  144.9196  160.3258 C   0  0  0  0  0  0  0  0  0  0  0  0
  148.0007  142.8896  153.6453 H   0  0  0  0  0  0  0  0  0  0  0  0
  147.1254  142.3397  155.0820 H   0  0  0  0  0  0  0  0  0  0  0  0
  146.6163  141.8101  153.4781 H   0  0  0  0  0  0  0  0  0  0  0  0
  150.5160  137.6883  154.3002 H   0  0  0  0  0  0  0  0  0  0  0  0
  151.3412  139.7208  155.5717 H   0  0  0  0  0  0  0  0  0  0  0  0
  149.4784  142.9712  155.2822 H   0  0  0  0  0  0  0  0  0  0  0  0
  150.2975  144.2828  156.4756 H   0  0  0  0  0  0  0  0  0  0  0  0
  152.8626  143.8443  157.6442 H   0  0  0  0  0  0  0  0  0  0  0  0
  151.9325  145.3079  157.7663 H   0  0  0  0  0  0  0  0  0  0  0  0
  149.6938  143.5773  160.5600 H   0  0  0  0  0  0  0  0  0  0  0  0
  149.5727  142.9091  158.9453 H   0  0  0  0  0  0  0  0  0  0  0  0
  149.4687  144.6483  159.1865 H   0  0  0  0  0  0  0  0  0  0  0  0
  151.6981  141.6759  159.5186 H   0  0  0  0  0  0  0  0  0  0  0  0
  153.2199  142.5415  159.4064 H   0  0  0  0  0  0  0  0  0  0  0  0
  151.4976  142.1785  161.8294 H   0  0  0  0  0  0  0  0  0  0  0  0
  153.2493  142.2606  161.7192 H   0  0  0  0  0  0  0  0  0  0  0  0
  151.3822  144.3948  162.3179 H   0  0  0  0  0  0  0  0  0  0  0  0
  153.1270  144.5594  162.1935 H   0  0  0  0  0  0  0  0  0  0  0  0
  153.0376  145.2657  159.9867 H   0  0  0  0  0  0  0  0  0  0  0  0
  151.4223  145.8009  160.4062 H   0  0  0  0  0  0  0  0  0  0  0  0
  148.5252  137.8028  153.1372 H   0  0  0  0  0  0  0  0  0  0  0  0
  1  2  1  0  0  0  0
  1 19  1  0  0  0  0
  1 20  1  0  0  0  0
  1 21  1  0  0  0  0
  2  7  1  0  0  0  0
  2  3  2  0  0  0  0
  3  4  1  0  0  0  0
  4  5  2  0  0  0  0
  4 39  1  0  0  0  0
  5  6  1  0  0  0  0
  5 22  1  0  0  0  0
  6  7  2  0  0  0  0
  6 23  1  0  0  0  0
  7  8  1  0  0  0  0
  8  9  1  0  0  0  0
  8 24  1  0  0  0  0
  9 10  2  0  0  0  0
  9 11  1  0  0  0  0
 11 12  1  0  0  0  0
 11 25  1  0  0  0  0
 12 13  1  0  0  0  0
 12 26  1  0  0  0  0
 12 27  1  0  0  0  0
 13 18  1  0  0  0  0
 13 14  1  0  0  0  0
 13 15  1  0  0  0  0
 14 28  1  0  0  0  0
 14 29  1  0  0  0  0
 14 30  1  0  0  0  0
 15 16  1  0  0  0  0
 15 31  1  0  0  0  0
 15 32  1  0  0  0  0
 16 17  1  0  0  0  0
 16 33  1  0  0  0  0
 16 34  1  0  0  0  0
 17 18  1  0  0  0  0
 17 35  1  0  0  0  0
 17 36  1  0  0  0  0
 18 37  1  0  0  0  0
 18 38  1  0  0  0  0
M  CHG  1   4   1
M  END
> <s_m_source_file>
AV-unprocessed.smi

> <i_m_source_file_index>
2506

> <i_lp_mmshare_version>
43012

> <i_f3d_flags>
0

> <s_epik_input>
W0NIM11jMW5uW2NIXVtjSF1jMVtOSF1DKD1PKVtOSF1bQ0gyXUMyKFtDSDNdKVtDSDJdW0NIMl1bQ0gyXVtDSDJdMg==

> <s_epik_cmdline>
J2VwaWtfcHl0aG9uJywgJy1waCcsICc3LjAnLCAnLXRuJywgJzgnLCAnLW1hJywgJzIwMCcsICctbWV0YWxfYmluZGluZycsICctaW1hZScsICc8aW5maWxlLm1hZT4nLCAnLW9tYWUnLCAnPG91dGZpbGUubWFlPic=

> <r_lp_tautomer_probability>
0.5088

> <r_epik_Ionization_Penalty>
1.13414

> <r_epik_Ionization_Penalty_Charging>
1.1341

> <r_epik_Ionization_Penalty_Neutral>
4.35135e-05

> <r_epik_State_Penalty>
2.14502

> <r_epik_Charging_Adjusted_Penalty>
3.27912

> <i_epik_Tot_Q>
1

> <i_epik_Tot_abs_Q>
1

> <r_epik_Metal_State_Penalty>
2.23434

> <b_epik_Metal_Only>
0

> <s_lp_Force_Field>
OPLS_2005

> <r_lp_Energy>
34.1821

> <b_lp_Chiralities_Consistent>
1

> <s_lp_Variant>
AV-unprocessed.smi:2506-2

> <Gold.Version>
5.8.1

> <Gold.Id.Protein>
6NUR|6NUR_protein|mol2

> <Gold.PLP.Fitness>
53.9556

> <Gold.PLP.PLP>
-43.1966

> <Gold.PLP.part.hbond>
-4.0000

> <Gold.PLP.part.metal>
0.0000

> <Gold.PLP.part.buried>
-2.5077

> <Gold.PLP.part.nonpolar>
-37.1202

> <Gold.PLP.part.repulsive>
2.1345

> <Gold.PLP.ligand.clash>
0.0000

> <Gold.PLP.ligand.torsion>
0.6159

> <Gold.PLP.Chemscore.Hbond>
3.9920

> <Gold.PLP.Chemscore.CHOScore>
0.0000

> <Gold.PLP.Chemscore.Metal>
0.0000

> <Gold.Chemscore.Hbonds>
donor molecule, donor type, donor heavy atom, donor atom, acceptor molecule, acceptor atom, score
      L1  H     4    39       P1  7948  1.84
      L1  H     8    24       P1  8028  0.96
      L1  H    11    25       P1  8028  1.00

> <Gold.PLP.Chemscore.Internal.Correction>
0.0149

> <Gold.Rescore>
     Score         DG    S(hbond)    S(metal)    S(lipo)     H(rot)  DE(clash)    DE(int)     intcor
     21.56     -25.14       2.87        0.00     112.78       1.22       1.82       1.76       ----

> <Gold.Chemscore.Fitness>
21.5582

> <Gold.Chemscore.DG>
-25.1363

> <Gold.Chemscore.ZeroCoef>
-5.4800

> <Gold.Chemscore.Hbond>
2.8700

> <Gold.Chemscore.Metal>
0.0000

> <Gold.Chemscore.Lipo>
112.7829

> <Gold.Chemscore.Internal_Hbond>
0.0000

> <Gold.Chemscore.DEClash>
1.8162

> <Gold.Chemscore.DEInternal>
1.7618

> <Gold.Chemscore.Rot>
1.2207

> <Gold.Chemscore.Internal.Correction>
   9.000000E+99

> <Gold.Chemscore.Hbonds>
donor molecule, donor type, donor heavy atom, donor atom, acceptor molecule, acceptor atom, score
      L1  H     4    39       P1  7948  0.84
      L1  H     8    24       P1  8028  0.92
      L1  H    11    25       P1  8028  0.99

> <Gold.Chemscore.Hbond.Weighted>
-9.5857

> <Gold.Chemscore.Metal.Weighted>
-0.0000

> <Gold.Chemscore.Lipo.Weighted>
-13.1956

> <Gold.Chemscore.Internal_Hbond.Weighted>
0.0000

> <Gold.Chemscore.DEClash.Weighted>
1.8162

> <Gold.Chemscore.DEInternal.Weighted>
1.7618

> <Gold.Chemscore.Rot.Weighted>
3.1250

> <Gold.Chemscore.Internal.Correction.Weighted>
   9.000000E+99

> <Gold.Protein.RotatedTorsions>
[ 6907 6896 6895 6894 ] final -119.93 input  -60.11 | X-H torsion
[ 7974 7965 7964 7962 ] final  138.78 input  175.53 | X-H torsion
[ 8008 7997 7996 7995 ] final  -34.04 input   59.86 | X-H torsion
[ 10167 10162 10161 10158 ] final -116.31 input  -65.29 | X-H torsion
[ 10718 10713 10712 10709 ] final  -97.52 input   66.30 | X-H torsion
[ 10763 10752 10751 10750 ] final  -53.37 input  -60.55 | X-H torsion
[ 11005 11000 10999 10996 ] final   75.81 input  -57.11 | X-H torsion

> <Gold.Protein.ActiveResidues>
 VAL166  LYS551  ARG553  GLY616  TRP617  ASP618  TYR619  PRO620  LYS621  CYS622 
 ASP623  PHE694  ASN695  SER759  ASP760  ASP761  ALA762  ILE779  LEU786  VAL792 
 PHE793  MET794  SER795  GLU796  ALA797  LYS798  CYS799  TRP800  GLU811  SER814 

> <Gold.Protein.RotatedAtoms>
  150.8348  133.8032  159.3083 H   0  0  0  0  0  0  0  0  0  0  0  0  # atno 6907 bound_to 6896
  151.5751  135.1059  160.0014 H   0  0  0  0  0  0  0  0  0  0  0  0  # atno 6908 bound_to 6896
  152.4422  133.7427  159.6706 H   0  0  0  0  0  0  0  0  0  0  0  0  # atno 6909 bound_to 6896
  144.9340  139.5012  143.5604 H   0  0  0  0  0  0  0  0  0  0  0  0  # atno 7974 bound_to 7965
  154.4132  140.1694  156.1986 H   0  0  0  0  0  0  0  0  0  0  0  0  # atno 8008 bound_to 7997
  155.9543  140.3398  155.6412 H   0  0  0  0  0  0  0  0  0  0  0  0  # atno 8009 bound_to 7997
  155.6829  140.0725  157.2468 H   0  0  0  0  0  0  0  0  0  0  0  0  # atno 8010 bound_to 7997
  140.0806  143.4791  152.1928 H   0  0  0  0  0  0  0  0  0  0  0  0  # atno 10167 bound_to 10162
  156.0085  130.5198  150.6387 H   0  0  0  0  0  0  0  0  0  0  0  0  # atno 10718 bound_to 10713
  154.1577  135.6479  153.4978 H   0  0  0  0  0  0  0  0  0  0  0  0  # atno 10763 bound_to 10752
  153.0119  135.5353  154.6742 H   0  0  0  0  0  0  0  0  0  0  0  0  # atno 10764 bound_to 10752
  154.6048  135.2947  155.0468 H   0  0  0  0  0  0  0  0  0  0  0  0  # atno 10765 bound_to 10752
  139.9327  134.7548  156.1317 H   0  0  0  0  0  0  0  0  0  0  0  0  # atno 11005 bound_to 11000
  146.3259  139.8311  142.8908 LP  0  0  0  0  0  0  0  0  0  0  0  0  # atno 17320 bound_to 7965
  145.3097  141.0216  143.3562 LP  0  0  0  0  0  0  0  0  0  0  0  0  # atno 17321 bound_to 7965
  139.5782  144.7498  151.3709 LP  0  0  0  0  0  0  0  0  0  0  0  0  # atno 17342 bound_to 10162
  140.7080  143.7465  150.7515 LP  0  0  0  0  0  0  0  0  0  0  0  0  # atno 17343 bound_to 10162
  157.4171  131.0831  151.1166 LP  0  0  0  0  0  0  0  0  0  0  0  0  # atno 17370 bound_to 10713
  157.1780  130.6296  149.5662 LP  0  0  0  0  0  0  0  0  0  0  0  0  # atno 17371 bound_to 10713
  141.0924  133.6709  156.2570 LP  0  0  0  0  0  0  0  0  0  0  0  0  # atno 17394 bound_to 11000
  140.6159  134.5411  157.5540 LP  0  0  0  0  0  0  0  0  0  0  0  0  # atno 17395 bound_to 11000

$$$$
