AV-unprocessed.smi:2012|AV-procd|sdf|8155|dock8
  -GOLD-   2272010393D 1   1.00000     0.00000
 Structure written by MMmdl.
 50 51  0  0  0  0  0  0  0  0  1 V2000
  145.5124  134.7496  151.9975 C   0  0  0  0  0  0  0  0  0  0  0  0
  146.1195  134.6106  153.3887 C   0  0  0  0  0  0  0  0  0  0  0  0
  145.5236  133.9792  154.2609 O   0  0  0  0  0  0  0  0  0  0  0  0
  147.3061  135.2095  153.5823 N   0  0  0  0  0  0  0  0  0  0  0  0
  148.0464  135.2419  154.8460 C   0  0  2  0  0  0  0  0  0  0  0  0
  148.3964  136.7102  155.1498 C   0  0  0  0  0  0  0  0  0  0  0  0
  148.4481  137.1140  156.3128 O   0  0  0  0  0  0  0  0  0  0  0  0
  148.6495  137.4923  154.0892 N   0  0  0  0  0  0  0  0  0  0  0  0
  149.0947  138.8811  154.1618 C   0  0  0  0  0  0  0  0  0  0  0  0
  150.4029  139.0980  154.9164 C   0  0  0  0  0  0  0  0  0  0  0  0
  151.5408  138.3469  154.5636 C   0  0  0  0  0  0  0  0  0  0  0  0
  152.7404  138.5738  155.2642 C   0  0  0  0  0  0  0  0  0  0  0  0
  152.8574  139.4765  156.2604 N   0  0  0  0  0  0  0  0  0  0  0  0
  151.7682  140.1997  156.6198 C   0  0  0  0  0  0  0  0  0  0  0  0
  151.9048  141.1520  157.6534 N   0  0  0  0  0  0  0  0  0  0  0  0
  152.4303  140.7086  158.9429 C   0  0  0  0  0  0  0  0  0  0  0  0
  152.8308  141.9215  159.8006 C   0  0  0  0  0  0  0  0  0  0  0  0
  151.7260  142.8110  159.9262 O   0  0  0  0  0  0  0  0  0  0  0  0
  151.3030  143.3135  158.6626 C   0  0  0  0  0  0  0  0  0  0  0  0
  150.8434  142.1494  157.7689 C   0  0  0  0  0  0  0  0  0  0  0  0
  150.5226  140.0311  155.9713 C   0  0  0  0  0  0  0  0  0  0  0  0
  149.3461  134.3976  154.6959 C   0  0  0  0  0  0  0  0  0  0  0  0
  149.0362  132.9239  154.3681 C   0  0  0  0  0  0  0  0  0  0  0  0
  150.2482  134.4571  155.9463 C   0  0  0  0  0  0  0  0  0  0  0  0
  145.2151  135.7827  151.8165 H   0  0  0  0  0  0  0  0  0  0  0  0
  144.6298  134.1175  151.8947 H   0  0  0  0  0  0  0  0  0  0  0  0
  146.2327  134.4565  151.2332 H   0  0  0  0  0  0  0  0  0  0  0  0
  147.7161  135.7085  152.8061 H   0  0  0  0  0  0  0  0  0  0  0  0
  147.4334  134.8261  155.6487 H   0  0  0  0  0  0  0  0  0  0  0  0
  148.5835  137.0813  153.1693 H   0  0  0  0  0  0  0  0  0  0  0  0
  149.2245  139.2466  153.1431 H   0  0  0  0  0  0  0  0  0  0  0  0
  148.3116  139.4937  154.6121 H   0  0  0  0  0  0  0  0  0  0  0  0
  151.5002  137.6175  153.7681 H   0  0  0  0  0  0  0  0  0  0  0  0
  153.6321  138.0180  155.0144 H   0  0  0  0  0  0  0  0  0  0  0  0
  151.6708  140.1185  159.4577 H   0  0  0  0  0  0  0  0  0  0  0  0
  153.3013  140.0678  158.7993 H   0  0  0  0  0  0  0  0  0  0  0  0
  153.1376  141.5934  160.7938 H   0  0  0  0  0  0  0  0  0  0  0  0
  153.6821  142.4437  159.3607 H   0  0  0  0  0  0  0  0  0  0  0  0
  150.4828  144.0147  158.8162 H   0  0  0  0  0  0  0  0  0  0  0  0
  152.1131  143.8705  158.1885 H   0  0  0  0  0  0  0  0  0  0  0  0
  150.5436  142.5469  156.8013 H   0  0  0  0  0  0  0  0  0  0  0  0
  149.9617  141.6741  158.2007 H   0  0  0  0  0  0  0  0  0  0  0  0
  149.6756  140.6308  156.2626 H   0  0  0  0  0  0  0  0  0  0  0  0
  149.9253  134.7944  153.8600 H   0  0  0  0  0  0  0  0  0  0  0  0
  148.4291  132.4656  155.1494 H   0  0  0  0  0  0  0  0  0  0  0  0
  149.9531  132.3407  154.2776 H   0  0  0  0  0  0  0  0  0  0  0  0
  148.4997  132.8189  153.4250 H   0  0  0  0  0  0  0  0  0  0  0  0
  149.7149  134.1137  156.8334 H   0  0  0  0  0  0  0  0  0  0  0  0
  150.6115  135.4655  156.1452 H   0  0  0  0  0  0  0  0  0  0  0  0
  151.1282  133.8249  155.8246 H   0  0  0  0  0  0  0  0  0  0  0  0
  1  2  1  0  0  0  0
  1 25  1  0  0  0  0
  1 26  1  0  0  0  0
  1 27  1  0  0  0  0
  2  3  2  0  0  0  0
  2  4  1  0  0  0  0
  4  5  1  0  0  0  0
  4 28  1  0  0  0  0
  5  6  1  0  0  0  0
  5 22  1  0  0  0  0
  5 29  1  0  0  0  0
  6  7  2  0  0  0  0
  6  8  1  0  0  0  0
  8  9  1  0  0  0  0
  8 30  1  0  0  0  0
  9 10  1  0  0  0  0
  9 31  1  0  0  0  0
  9 32  1  0  0  0  0
 10 21  1  0  0  0  0
 10 11  2  0  0  0  0
 11 12  1  0  0  0  0
 11 33  1  0  0  0  0
 12 13  2  0  0  0  0
 12 34  1  0  0  0  0
 13 14  1  0  0  0  0
 14 15  1  0  0  0  0
 14 21  2  0  0  0  0
 15 20  1  0  0  0  0
 15 16  1  0  0  0  0
 16 17  1  0  0  0  0
 16 35  1  0  0  0  0
 16 36  1  0  0  0  0
 17 18  1  0  0  0  0
 17 37  1  0  0  0  0
 17 38  1  0  0  0  0
 18 19  1  0  0  0  0
 19 20  1  0  0  0  0
 19 39  1  0  0  0  0
 19 40  1  0  0  0  0
 20 41  1  0  0  0  0
 20 42  1  0  0  0  0
 21 43  1  0  0  0  0
 22 23  1  0  0  0  0
 22 24  1  0  0  0  0
 22 44  1  0  0  0  0
 23 45  1  0  0  0  0
 23 46  1  0  0  0  0
 23 47  1  0  0  0  0
 24 48  1  0  0  0  0
 24 49  1  0  0  0  0
 24 50  1  0  0  0  0
M  END
> <s_m_source_file>
AV-unprocessed.smi

> <i_m_source_file_index>
2012

> <i_lp_mmshare_version>
43012

> <i_f3d_flags>
0

> <s_epik_input>
W0NIM11DKD1PKVtOSF1bQ0BASF0oW0NIXShbQ0gzXSlbQ0gzXSlDKD1PKVtOSF1bQ0gyXWMxW2NIXVtjSF1uYyhbY0hdMSlOMltDSDJdW0NIMl1PW0NIMl1bQ0gyXTI=

> <s_epik_cmdline>
J2VwaWtfcHl0aG9uJywgJy1waCcsICc3LjAnLCAnLXRuJywgJzgnLCAnLW1hJywgJzIwMCcsICctbWV0YWxfYmluZGluZycsICctaW1hZScsICc8aW5maWxlLm1hZT4nLCAnLW9tYWUnLCAnPG91dGZpbGUubWFlPic=

> <r_lp_tautomer_probability>
1

> <r_epik_Ionization_Penalty>
0.00518786

> <r_epik_Ionization_Penalty_Charging>
0

> <r_epik_Ionization_Penalty_Neutral>
0.00518786

> <r_epik_State_Penalty>
0.00378052

> <r_epik_Charging_Adjusted_Penalty>
0.00378052

> <i_epik_Tot_Q>
0

> <i_epik_Tot_abs_Q>
0

> <r_epik_Metal_State_Penalty>
-0

> <b_epik_Metal_Only>
0

> <s_lp_Force_Field>
OPLS_2005

> <r_lp_Energy>
14.5368

> <b_lp_Chiralities_Consistent>
1

> <s_lp_Variant>
AV-unprocessed.smi:2012-1

> <Gold.Version>
5.8.1

> <Gold.Id.Protein>
6NUR|6NUR_protein|mol2

> <Gold.PLP.Fitness>
47.2722

> <Gold.PLP.PLP>
-39.9174

> <Gold.PLP.part.hbond>
-3.0576

> <Gold.PLP.part.metal>
0.0000

> <Gold.PLP.part.buried>
-5.4161

> <Gold.PLP.part.nonpolar>
-31.8031

> <Gold.PLP.part.repulsive>
0.1264

> <Gold.PLP.ligand.clash>
0.0000

> <Gold.PLP.ligand.torsion>
1.0707

> <Gold.PLP.Chemscore.Hbond>
3.0000

> <Gold.PLP.Chemscore.CHOScore>
0.0000

> <Gold.PLP.Chemscore.Metal>
0.0000

> <Gold.Chemscore.Hbonds>
donor molecule, donor type, donor heavy atom, donor atom, acceptor molecule, acceptor atom, score
      L1  H     4    28       P1  7948  1.00
      L1  H     8    30       P1  7948  1.00
      P1  H  7997  8009       L1    13  1.00

> <Gold.PLP.Chemscore.Internal.Correction>
0.4963

> <Gold.Rescore>
     Score         DG    S(hbond)    S(metal)    S(lipo)     H(rot)  DE(clash)    DE(int)     intcor
     19.34     -20.39       2.87        0.00      93.38       2.18       0.00       1.05       ----

> <Gold.Chemscore.Fitness>
19.3376

> <Gold.Chemscore.DG>
-20.3904

> <Gold.Chemscore.ZeroCoef>
-5.4800

> <Gold.Chemscore.Hbond>
2.8652

> <Gold.Chemscore.Metal>
0.0000

> <Gold.Chemscore.Lipo>
93.3751

> <Gold.Chemscore.Internal_Hbond>
0.0000

> <Gold.Chemscore.DEClash>
0.0000

> <Gold.Chemscore.DEInternal>
1.0528

> <Gold.Chemscore.Rot>
2.1813

> <Gold.Chemscore.Internal.Correction>
   9.000000E+99

> <Gold.Chemscore.Hbonds>
donor molecule, donor type, donor heavy atom, donor atom, acceptor molecule, acceptor atom, score
      L1  H     4    28       P1  7948  0.97
      L1  H     8    30       P1  7948  0.98
      P1  H  7997  8009       L1    13  0.59

> <Gold.Chemscore.Hbond.Weighted>
-9.5697

> <Gold.Chemscore.Metal.Weighted>
-0.0000

> <Gold.Chemscore.Lipo.Weighted>
-10.9249

> <Gold.Chemscore.Internal_Hbond.Weighted>
0.0000

> <Gold.Chemscore.DEClash.Weighted>
0.0000

> <Gold.Chemscore.DEInternal.Weighted>
1.0528

> <Gold.Chemscore.Rot.Weighted>
5.5842

> <Gold.Chemscore.Internal.Correction.Weighted>
   9.000000E+99

> <Gold.Protein.RotatedTorsions>
[ 6907 6896 6895 6894 ] final  -59.03 input  -60.11 | X-H torsion
[ 7974 7965 7964 7962 ] final  -68.19 input  175.53 | X-H torsion
[ 8008 7997 7996 7995 ] final -148.35 input   59.86 | X-H torsion
[ 10167 10162 10161 10158 ] final  126.13 input  -65.29 | X-H torsion
[ 10718 10713 10712 10709 ] final -129.18 input   66.30 | X-H torsion
[ 10763 10752 10751 10750 ] final  168.10 input  -60.55 | X-H torsion
[ 11005 11000 10999 10996 ] final -136.48 input  -57.11 | X-H torsion

> <Gold.Protein.ActiveResidues>
 VAL166  LYS551  ARG553  GLY616  TRP617  ASP618  TYR619  PRO620  LYS621  CYS622 
 ASP623  PHE694  ASN695  SER759  ASP760  ASP761  ALA762  ILE779  LEU786  VAL792 
 PHE793  MET794  SER795  GLU796  ALA797  LYS798  CYS799  TRP800  GLU811  SER814 

> <Gold.Protein.RotatedAtoms>
  150.7962  134.7022  159.6556 H   0  0  0  0  0  0  0  0  0  0  0  0  # atno 6907 bound_to 6896
  152.4074  134.6180  160.0053 H   0  0  0  0  0  0  0  0  0  0  0  0  # atno 6908 bound_to 6896
  151.6433  133.3288  159.3171 H   0  0  0  0  0  0  0  0  0  0  0  0  # atno 6909 bound_to 6896
  145.7197  140.9044  143.0637 H   0  0  0  0  0  0  0  0  0  0  0  0  # atno 7974 bound_to 7965
  155.5902  140.0652  157.2760 H   0  0  0  0  0  0  0  0  0  0  0  0  # atno 8008 bound_to 7997
  154.4307  140.1836  156.1113 H   0  0  0  0  0  0  0  0  0  0  0  0  # atno 8009 bound_to 7997
  156.0238  140.3314  155.7071 H   0  0  0  0  0  0  0  0  0  0  0  0  # atno 8010 bound_to 7997
  139.5648  144.6904  151.3942 H   0  0  0  0  0  0  0  0  0  0  0  0  # atno 10167 bound_to 10162
  156.2022  130.6864  151.0552 H   0  0  0  0  0  0  0  0  0  0  0  0  # atno 10718 bound_to 10713
  154.3636  135.2753  155.2306 H   0  0  0  0  0  0  0  0  0  0  0  0  # atno 10763 bound_to 10752
  154.4484  135.5937  153.6178 H   0  0  0  0  0  0  0  0  0  0  0  0  # atno 10764 bound_to 10752
  152.9842  135.6035  154.3859 H   0  0  0  0  0  0  0  0  0  0  0  0  # atno 10765 bound_to 10752
  140.8801  134.1942  157.4596 H   0  0  0  0  0  0  0  0  0  0  0  0  # atno 11005 bound_to 11000
  144.6920  139.9185  143.7467 LP  0  0  0  0  0  0  0  0  0  0  0  0  # atno 17320 bound_to 7965
  146.0637  139.3629  143.0565 LP  0  0  0  0  0  0  0  0  0  0  0  0  # atno 17321 bound_to 7965
  140.6930  143.7815  150.7284 LP  0  0  0  0  0  0  0  0  0  0  0  0  # atno 17342 bound_to 10162
  140.1304  143.4531  152.2258 LP  0  0  0  0  0  0  0  0  0  0  0  0  # atno 17343 bound_to 10162
  157.6992  131.0782  150.6874 LP  0  0  0  0  0  0  0  0  0  0  0  0  # atno 17370 bound_to 10713
  156.6932  130.4601  149.5594 LP  0  0  0  0  0  0  0  0  0  0  0  0  # atno 17371 bound_to 10713
  139.8719  134.9813  156.5112 LP  0  0  0  0  0  0  0  0  0  0  0  0  # atno 17394 bound_to 11000
  140.8471  133.8160  155.9131 LP  0  0  0  0  0  0  0  0  0  0  0  0  # atno 17395 bound_to 11000

$$$$
