AV-unprocessed.smi:740|AV-procd|sdf|3546|dock1
  -GOLD-   22720 0543D 1   1.00000     0.00000
 Structure written by MMmdl.
 44 46  0  0  0  0  0  0  0  0  1 V2000
  153.0122  142.7010  161.2173 C   0  0  0  0  0  0  0  0  0  0  0  0
  152.3081  142.3288  159.9244 C   0  0  0  0  0  0  0  0  0  0  0  0
  152.5156  141.0437  159.3747 C   0  0  0  0  0  0  0  0  0  0  0  0
  151.8836  140.6594  158.1721 C   0  0  0  0  0  0  0  0  0  0  0  0
  151.9455  139.4708  157.4652 N   0  0  0  0  0  0  0  0  0  0  0  0
  151.1468  139.7309  156.4343 C   0  0  0  0  0  0  0  0  0  0  0  0
  150.5730  140.9484  156.3902 N   0  0  0  0  0  0  0  0  0  0  0  0
  149.6781  141.4516  155.3637 C   0  0  0  0  0  0  0  0  0  0  0  0
  149.0838  140.3231  154.4993 C   0  0  2  0  0  0  0  0  0  0  0  0
  150.0718  139.8852  153.5860 O   0  0  0  0  0  0  0  0  0  0  0  0
  147.8507  140.8019  153.7056 C   0  0  0  0  0  0  0  0  0  0  0  0
  146.6530  140.8848  154.5497 N   0  0  0  0  0  0  0  0  0  0  0  0
  146.2121  139.8862  155.3270 C   0  0  0  0  0  0  0  0  0  0  0  0
  146.7347  138.7797  155.4574 O   0  0  0  0  0  0  0  0  0  0  0  0
  144.9354  140.2832  156.0548 C   0  0  0  0  0  0  0  0  0  0  0  0
  144.6870  141.7205  155.5733 C   0  0  1  0  0  0  0  0  0  0  0  0
  144.6477  142.7557  156.7096 C   0  0  0  0  0  0  0  0  0  0  0  0
  145.8590  141.9623  154.6240 C   0  0  0  0  0  0  0  0  0  0  0  0
  146.0180  143.0241  154.0215 O   0  0  0  0  0  0  0  0  0  0  0  0
  151.0312  141.6037  157.5282 C   0  0  0  0  0  0  0  0  0  0  0  0
  150.8151  142.8847  158.0664 C   0  0  0  0  0  0  0  0  0  0  0  0
  151.4545  143.2524  159.2690 C   0  0  0  0  0  0  0  0  0  0  0  0
  151.2166  144.6386  159.8410 C   0  0  0  0  0  0  0  0  0  0  0  0
  153.5985  141.8677  161.6058 H   0  0  0  0  0  0  0  0  0  0  0  0
  152.2876  142.9838  161.9812 H   0  0  0  0  0  0  0  0  0  0  0  0
  153.6895  143.5396  161.0541 H   0  0  0  0  0  0  0  0  0  0  0  0
  153.1662  140.3398  159.8725 H   0  0  0  0  0  0  0  0  0  0  0  0
  150.9699  138.9952  155.6633 H   0  0  0  0  0  0  0  0  0  0  0  0
  148.8792  142.0072  155.8570 H   0  0  0  0  0  0  0  0  0  0  0  0
  150.2188  142.1691  154.7450 H   0  0  0  0  0  0  0  0  0  0  0  0
  148.8140  139.4884  155.1479 H   0  0  0  0  0  0  0  0  0  0  0  0
  149.7019  139.8901  152.7165 H   0  0  0  0  0  0  0  0  0  0  0  0
  148.0442  141.7960  153.2988 H   0  0  0  0  0  0  0  0  0  0  0  0
  147.6819  140.1667  152.8340 H   0  0  0  0  0  0  0  0  0  0  0  0
  144.1177  139.6169  155.7777 H   0  0  0  0  0  0  0  0  0  0  0  0
  145.0831  140.2221  157.1336 H   0  0  0  0  0  0  0  0  0  0  0  0
  143.7597  141.7668  155.0009 H   0  0  0  0  0  0  0  0  0  0  0  0
  144.4664  143.7594  156.3233 H   0  0  0  0  0  0  0  0  0  0  0  0
  145.5850  142.7764  157.2672 H   0  0  0  0  0  0  0  0  0  0  0  0
  143.8482  142.5270  157.4147 H   0  0  0  0  0  0  0  0  0  0  0  0
  150.1654  143.5795  157.5552 H   0  0  0  0  0  0  0  0  0  0  0  0
  150.5469  145.2212  159.2077 H   0  0  0  0  0  0  0  0  0  0  0  0
  152.1566  145.1841  159.9250 H   0  0  0  0  0  0  0  0  0  0  0  0
  150.7653  144.5704  160.8311 H   0  0  0  0  0  0  0  0  0  0  0  0
  1  2  1  0  0  0  0
  1 24  1  0  0  0  0
  1 25  1  0  0  0  0
  1 26  1  0  0  0  0
  2 22  1  0  0  0  0
  2  3  2  0  0  0  0
  3  4  1  0  0  0  0
  3 27  1  0  0  0  0
  4 20  2  0  0  0  0
  4  5  1  0  0  0  0
  5  6  2  0  0  0  0
  6  7  1  0  0  0  0
  6 28  1  0  0  0  0
  7  8  1  0  0  0  0
  7 20  1  0  0  0  0
  8  9  1  0  0  0  0
  8 29  1  0  0  0  0
  8 30  1  0  0  0  0
  9 10  1  0  0  0  0
  9 11  1  0  0  0  0
  9 31  1  0  0  0  0
 10 32  1  0  0  0  0
 11 12  1  0  0  0  0
 11 33  1  0  0  0  0
 11 34  1  0  0  0  0
 12 18  1  0  0  0  0
 12 13  1  0  0  0  0
 13 14  2  0  0  0  0
 13 15  1  0  0  0  0
 15 16  1  0  0  0  0
 15 35  1  0  0  0  0
 15 36  1  0  0  0  0
 16 17  1  0  0  0  0
 16 18  1  0  0  0  0
 16 37  1  0  0  0  0
 17 38  1  0  0  0  0
 17 39  1  0  0  0  0
 17 40  1  0  0  0  0
 18 19  2  0  0  0  0
 20 21  1  0  0  0  0
 21 22  2  0  0  0  0
 21 41  1  0  0  0  0
 22 23  1  0  0  0  0
 23 42  1  0  0  0  0
 23 43  1  0  0  0  0
 23 44  1  0  0  0  0
M  END
> <s_m_source_file>
AV-unprocessed.smi

> <i_m_source_file_index>
740

> <i_lp_mmshare_version>
43012

> <i_f3d_flags>
0

> <s_epik_input>
W0NIM11jKFtjSF0xKWMoW0NIM10pW2NIXWMoYzEyKW4oW2NIXW4yKVtDSDJdW0NASF0oW09IXSlbQ0gyXU4zQyg9TylbQ0gyXVtDQEBIXShbQ0gzXSlDMz1P

> <s_epik_cmdline>
J2VwaWtfcHl0aG9uJywgJy1waCcsICc3LjAnLCAnLXRuJywgJzgnLCAnLW1hJywgJzIwMCcsICctbWV0YWxfYmluZGluZycsICctaW1hZScsICc8aW5maWxlLm1hZT4nLCAnLW9tYWUnLCAnPG91dGZpbGUubWFlPic=

> <r_lp_tautomer_probability>
1

> <r_epik_Ionization_Penalty>
0.104021

> <r_epik_Ionization_Penalty_Charging>
0

> <r_epik_Ionization_Penalty_Neutral>
0.104021

> <r_epik_State_Penalty>
0.0939354

> <r_epik_Charging_Adjusted_Penalty>
0.0939354

> <i_epik_Tot_Q>
0

> <i_epik_Tot_abs_Q>
0

> <r_epik_Metal_State_Penalty>
0.000101783

> <b_epik_Metal_Only>
0

> <s_lp_Force_Field>
OPLS_2005

> <r_lp_Energy>
16.4677

> <b_lp_Chiralities_Consistent>
1

> <s_lp_Variant>
AV-unprocessed.smi:740-1

> <Gold.Version>
5.8.1

> <Gold.Id.Protein>
6NUR|6NUR_protein|mol2

> <Gold.PLP.Fitness>
50.9543

> <Gold.PLP.PLP>
-46.5042

> <Gold.PLP.part.hbond>
-3.0000

> <Gold.PLP.part.metal>
0.0000

> <Gold.PLP.part.buried>
-3.4491

> <Gold.PLP.part.nonpolar>
-40.1964

> <Gold.PLP.part.repulsive>
0.2562

> <Gold.PLP.ligand.clash>
0.0000

> <Gold.PLP.ligand.torsion>
0.5782

> <Gold.PLP.Chemscore.Hbond>
1.8542

> <Gold.PLP.Chemscore.CHOScore>
0.0000

> <Gold.PLP.Chemscore.Metal>
0.0000

> <Gold.Chemscore.Hbonds>
donor molecule, donor type, donor heavy atom, donor atom, acceptor molecule, acceptor atom, score
      L1  H    10    32       P1  7957  1.00
      P1  H  7989  7998       L1    10  0.75

> <Gold.PLP.Chemscore.Internal.Correction>
0.0437

> <Gold.Rescore>
     Score         DG    S(hbond)    S(metal)    S(lipo)     H(rot)  DE(clash)    DE(int)     intcor
     15.30     -17.07       1.57        0.00     104.83       2.31       0.05       1.72       ----

> <Gold.Chemscore.Fitness>
15.2972

> <Gold.Chemscore.DG>
-17.0705

> <Gold.Chemscore.ZeroCoef>
-5.4800

> <Gold.Chemscore.Hbond>
1.5721

> <Gold.Chemscore.Metal>
0.0000

> <Gold.Chemscore.Lipo>
104.8308

> <Gold.Chemscore.Internal_Hbond>
0.0000

> <Gold.Chemscore.DEClash>
0.0487

> <Gold.Chemscore.DEInternal>
1.7246

> <Gold.Chemscore.Rot>
2.3147

> <Gold.Chemscore.Internal.Correction>
   9.000000E+99

> <Gold.Chemscore.Hbonds>
donor molecule, donor type, donor heavy atom, donor atom, acceptor molecule, acceptor atom, score
      L1  H    10    32       P1  7957  0.96
      P1  H  7989  7998       L1    10  0.36

> <Gold.Chemscore.Hbond.Weighted>
-5.2509

> <Gold.Chemscore.Metal.Weighted>
-0.0000

> <Gold.Chemscore.Lipo.Weighted>
-12.2652

> <Gold.Chemscore.Internal_Hbond.Weighted>
0.0000

> <Gold.Chemscore.DEClash.Weighted>
0.0487

> <Gold.Chemscore.DEInternal.Weighted>
1.7246

> <Gold.Chemscore.Rot.Weighted>
5.9256

> <Gold.Chemscore.Internal.Correction.Weighted>
   9.000000E+99

> <Gold.Protein.RotatedTorsions>
[ 6907 6896 6895 6894 ] final  101.36 input  -60.11 | X-H torsion
[ 7974 7965 7964 7962 ] final  108.26 input  175.53 | X-H torsion
[ 8008 7997 7996 7995 ] final   38.74 input   59.86 | X-H torsion
[ 10167 10162 10161 10158 ] final    4.16 input  -65.29 | X-H torsion
[ 10718 10713 10712 10709 ] final  160.12 input   66.30 | X-H torsion
[ 10763 10752 10751 10750 ] final   55.86 input  -60.55 | X-H torsion
[ 11005 11000 10999 10996 ] final   90.45 input  -57.11 | X-H torsion

> <Gold.Protein.ActiveResidues>
 VAL166  LYS551  ARG553  GLY616  TRP617  ASP618  TYR619  PRO620  LYS621  CYS622 
 ASP623  PHE694  ASN695  SER759  ASP760  ASP761  ALA762  ILE779  LEU786  VAL792 
 PHE793  MET794  SER795  GLU796  ALA797  LYS798  CYS799  TRP800  GLU811  SER814 

> <Gold.Protein.RotatedAtoms>
  152.5351  134.0138  159.7950 H   0  0  0  0  0  0  0  0  0  0  0  0  # atno 6907 bound_to 6896
  151.0336  133.5760  159.2665 H   0  0  0  0  0  0  0  0  0  0  0  0  # atno 6908 bound_to 6896
  151.2756  135.0705  159.9204 H   0  0  0  0  0  0  0  0  0  0  0  0  # atno 6909 bound_to 6896
  145.2830  139.2626  143.3905 H   0  0  0  0  0  0  0  0  0  0  0  0  # atno 7974 bound_to 7965
  155.2252  140.3334  155.4310 H   0  0  0  0  0  0  0  0  0  0  0  0  # atno 8008 bound_to 7997
  156.2317  140.1854  156.7271 H   0  0  0  0  0  0  0  0  0  0  0  0  # atno 8009 bound_to 7997
  154.5990  140.0626  156.9327 H   0  0  0  0  0  0  0  0  0  0  0  0  # atno 8010 bound_to 7997
  140.6549  143.7453  150.7636 H   0  0  0  0  0  0  0  0  0  0  0  0  # atno 10167 bound_to 10162
  157.1548  131.0573  151.2262 H   0  0  0  0  0  0  0  0  0  0  0  0  # atno 10718 bound_to 10713
  152.9823  135.5696  154.5136 H   0  0  0  0  0  0  0  0  0  0  0  0  # atno 10763 bound_to 10752
  154.4636  135.2782  155.1697 H   0  0  0  0  0  0  0  0  0  0  0  0  # atno 10764 bound_to 10752
  154.3274  135.6256  153.5589 H   0  0  0  0  0  0  0  0  0  0  0  0  # atno 10765 bound_to 10752
  139.8856  134.8614  156.3287 H   0  0  0  0  0  0  0  0  0  0  0  0  # atno 11005 bound_to 11000
  146.3210  140.3302  142.8640 LP  0  0  0  0  0  0  0  0  0  0  0  0  # atno 17320 bound_to 7965
  144.9237  140.7897  143.5732 LP  0  0  0  0  0  0  0  0  0  0  0  0  # atno 17321 bound_to 7965
  140.1111  143.4699  152.2369 LP  0  0  0  0  0  0  0  0  0  0  0  0  # atno 17342 bound_to 10162
  139.5769  144.7492  151.3740 LP  0  0  0  0  0  0  0  0  0  0  0  0  # atno 17343 bound_to 10162
  157.4187  130.7425  149.6896 LP  0  0  0  0  0  0  0  0  0  0  0  0  # atno 17370 bound_to 10713
  155.9764  130.4076  150.3781 LP  0  0  0  0  0  0  0  0  0  0  0  0  # atno 17371 bound_to 10713
  140.9738  133.7311  156.0572 LP  0  0  0  0  0  0  0  0  0  0  0  0  # atno 17394 bound_to 11000
  140.7837  134.3696  157.5481 LP  0  0  0  0  0  0  0  0  0  0  0  0  # atno 17395 bound_to 11000

$$$$
