AV-unprocessed.smi:3303|AV-procd|sdf|12693|dock1
  -GOLD-   2272019 23D 1   1.00000     0.00000
 Structure written by MMmdl.
 44 45  0  0  0  0  0  0  0  0  2 V2000
  148.8987  140.5912  154.7354 C   0  0  0  0  0  0  0  0  0  0  0  0
  149.4193  139.1855  154.3873 C   0  0  2  0  0  0  0  0  0  0  0  0
  148.4965  138.0711  154.9192 C   0  0  0  0  0  0  0  0  0  0  0  0
  148.9607  136.7326  154.4762 N   0  3  2  0  0  0  0  0  0  0  0  0
  147.9792  135.6616  154.7632 C   0  0  0  0  0  0  0  0  0  0  0  0
  150.3533  136.4148  154.9027 C   0  0  2  0  0  0  0  0  0  0  0  0
  150.4802  136.0878  156.4069 C   0  0  0  0  0  0  0  0  0  0  0  0
  151.3315  137.5178  154.4348 C   0  0  0  0  0  0  0  0  0  0  0  0
  150.8910  138.9559  154.8007 C   0  0  2  0  0  0  0  0  0  0  0  0
  151.0847  139.2541  156.2165 N   0  0  0  0  0  0  0  0  0  0  0  0
  151.6017  140.5957  156.4522 C   0  0  0  0  0  0  0  0  0  0  0  0
  151.9839  140.7772  157.9311 C   0  0  0  0  0  0  0  0  0  0  0  0
  151.9869  142.2322  158.3713 C   0  0  0  0  0  0  0  0  0  0  0  0
  152.5583  142.6050  159.6065 C   0  0  0  0  0  0  0  0  0  0  0  0
  152.5067  143.9595  159.9889 C   0  0  0  0  0  0  0  0  0  0  0  0
  151.8885  144.8848  159.1263 C   0  0  0  0  0  0  0  0  0  0  0  0
  151.3492  144.4130  157.9133 C   0  0  0  0  0  0  0  0  0  0  0  0
  151.3899  143.1161  157.5388 N   0  0  0  0  0  0  0  0  0  0  0  0
  148.8194  140.7396  155.8127 H   0  0  0  0  0  0  0  0  0  0  0  0
  147.9084  140.7561  154.3099 H   0  0  0  0  0  0  0  0  0  0  0  0
  149.5580  141.3637  154.3387 H   0  0  0  0  0  0  0  0  0  0  0  0
  149.3921  139.1173  153.2985 H   0  0  0  0  0  0  0  0  0  0  0  0
  148.4300  138.1088  156.0070 H   0  0  0  0  0  0  0  0  0  0  0  0
  147.4857  138.2351  154.5430 H   0  0  0  0  0  0  0  0  0  0  0  0
  147.7742  135.5830  155.8314 H   0  0  0  0  0  0  0  0  0  0  0  0
  148.3423  134.6965  154.4086 H   0  0  0  0  0  0  0  0  0  0  0  0
  147.0358  135.8663  154.2562 H   0  0  0  0  0  0  0  0  0  0  0  0
  150.6401  135.5069  154.3702 H   0  0  0  0  0  0  0  0  0  0  0  0
  151.5234  135.9324  156.6837 H   0  0  0  0  0  0  0  0  0  0  0  0
  149.9467  135.1737  156.6660 H   0  0  0  0  0  0  0  0  0  0  0  0
  150.0912  136.8825  157.0407 H   0  0  0  0  0  0  0  0  0  0  0  0
  152.3413  137.2992  154.7797 H   0  0  0  0  0  0  0  0  0  0  0  0
  151.3926  137.4648  153.3469 H   0  0  0  0  0  0  0  0  0  0  0  0
  151.5032  139.6619  154.2373 H   0  0  0  0  0  0  0  0  0  0  0  0
  150.2066  139.1561  156.7069 H   0  0  0  0  0  0  0  0  0  0  0  0
  152.4745  140.7936  155.8317 H   0  0  0  0  0  0  0  0  0  0  0  0
  150.8385  141.3245  156.1769 H   0  0  0  0  0  0  0  0  0  0  0  0
  151.2794  140.2272  158.5562 H   0  0  0  0  0  0  0  0  0  0  0  0
  152.9631  140.3352  158.1226 H   0  0  0  0  0  0  0  0  0  0  0  0
  153.0195  141.8703  160.2500 H   0  0  0  0  0  0  0  0  0  0  0  0
  152.9310  144.2819  160.9282 H   0  0  0  0  0  0  0  0  0  0  0  0
  151.8303  145.9311  159.3871 H   0  0  0  0  0  0  0  0  0  0  0  0
  150.8678  145.0943  157.2278 H   0  0  0  0  0  0  0  0  0  0  0  0
  149.0028  136.7879  153.4685 H   0  0  0  0  0  0  0  0  0  0  0  0
  1  2  1  0  0  0  0
  1 19  1  0  0  0  0
  1 20  1  0  0  0  0
  1 21  1  0  0  0  0
  2  9  1  0  0  0  0
  2  3  1  0  0  0  0
  2 22  1  0  0  0  0
  3  4  1  0  0  0  0
  3 23  1  0  0  0  0
  3 24  1  0  0  0  0
  4  5  1  0  0  0  0
  4  6  1  0  0  0  0
  4 44  1  0  0  0  0
  5 25  1  0  0  0  0
  5 26  1  0  0  0  0
  5 27  1  0  0  0  0
  6  7  1  0  0  0  0
  6  8  1  0  0  0  0
  6 28  1  0  0  0  0
  7 29  1  0  0  0  0
  7 30  1  0  0  0  0
  7 31  1  0  0  0  0
  8  9  1  0  0  0  0
  8 32  1  0  0  0  0
  8 33  1  0  0  0  0
  9 10  1  0  0  0  0
  9 34  1  0  0  0  0
 10 11  1  0  0  0  0
 10 35  1  0  0  0  0
 11 12  1  0  0  0  0
 11 36  1  0  0  0  0
 11 37  1  0  0  0  0
 12 13  1  0  0  0  0
 12 38  1  0  0  0  0
 12 39  1  0  0  0  0
 13 18  1  0  0  0  0
 13 14  2  0  0  0  0
 14 15  1  0  0  0  0
 14 40  1  0  0  0  0
 15 16  2  0  0  0  0
 15 41  1  0  0  0  0
 16 17  1  0  0  0  0
 16 42  1  0  0  0  0
 17 18  2  0  0  0  0
 17 43  1  0  0  0  0
M  CHG  1   4   1
M  END
> <s_m_source_file>
AV-unprocessed.smi

> <i_m_source_file_index>
3303

> <i_lp_mmshare_version>
43012

> <i_f3d_flags>
0

> <s_epik_input>
W0NIM11bQ0BASF0xW0NIMl1OKFtDSDNdKVtDQEBIXShbQ0gzXSlbQ0gyXVtDQEhdMVtOSF1bQ0gyXVtDSDJdYzJbY0hdW2NIXVtjSF1bY0hdbjI=

> <s_epik_cmdline>
J2VwaWtfcHl0aG9uJywgJy1waCcsICc3LjAnLCAnLXRuJywgJzgnLCAnLW1hJywgJzIwMCcsICctbWV0YWxfYmluZGluZycsICctaW1hZScsICc8aW5maWxlLm1hZT4nLCAnLW9tYWUnLCAnPG91dGZpbGUubWFlPic=

> <r_epik_Ionization_Penalty>
2.31085

> <r_epik_Ionization_Penalty_Charging>
0.000313057

> <r_epik_Ionization_Penalty_Neutral>
2.31054

> <r_epik_State_Penalty>
2.4087

> <r_epik_Charging_Adjusted_Penalty>
2.40902

> <i_epik_Tot_Q>
1

> <i_epik_Tot_abs_Q>
1

> <r_epik_Metal_State_Penalty>
2.30979

> <b_epik_Metal_Only>
0

> <s_lp_Force_Field>
OPLS_2005

> <r_lp_Energy>
27.6401

> <b_lp_Chiralities_Consistent>
1

> <s_lp_Variant>
AV-unprocessed.smi:3303-37

> <Gold.Version>
5.8.1

> <Gold.Id.Protein>
6NUR|6NUR_protein|mol2

> <Gold.PLP.Fitness>
44.3035

> <Gold.PLP.PLP>
-36.9672

> <Gold.PLP.part.hbond>
-1.0000

> <Gold.PLP.part.metal>
0.0000

> <Gold.PLP.part.buried>
-4.3589

> <Gold.PLP.part.nonpolar>
-33.2898

> <Gold.PLP.part.repulsive>
0.1034

> <Gold.PLP.ligand.clash>
0.0000

> <Gold.PLP.ligand.torsion>
0.8366

> <Gold.PLP.Chemscore.Hbond>
2.0000

> <Gold.PLP.Chemscore.CHOScore>
1.0000

> <Gold.PLP.Chemscore.Metal>
0.0000

> <Gold.Chemscore.Hbonds>
donor molecule, donor type, donor heavy atom, donor atom, acceptor molecule, acceptor atom, score
      L1  H     4    44       P1  7948  2.00
      L1  C    17    43       P1  8028  1.00

> <Gold.PLP.Chemscore.Internal.Correction>
0.0094

> <Gold.Rescore>
     Score         DG    S(hbond)    S(metal)    S(lipo)     H(rot)  DE(clash)    DE(int)     intcor
     18.20     -19.19       0.98        0.00     118.16       1.33       0.07       0.92       ----

> <Gold.Chemscore.Fitness>
18.2002

> <Gold.Chemscore.DG>
-19.1934

> <Gold.Chemscore.ZeroCoef>
-5.4800

> <Gold.Chemscore.Hbond>
0.9839

> <Gold.Chemscore.Metal>
0.0000

> <Gold.Chemscore.Lipo>
118.1614

> <Gold.Chemscore.Internal_Hbond>
0.0000

> <Gold.Chemscore.DEClash>
0.0709

> <Gold.Chemscore.DEInternal>
0.9224

> <Gold.Chemscore.Rot>
1.3272

> <Gold.Chemscore.Internal.Correction>
   9.000000E+99

> <Gold.Chemscore.Hbonds>
donor molecule, donor type, donor heavy atom, donor atom, acceptor molecule, acceptor atom, score
      L1  H     4    44       P1  7948  0.99

> <Gold.Chemscore.Hbond.Weighted>
-3.2862

> <Gold.Chemscore.Metal.Weighted>
-0.0000

> <Gold.Chemscore.Lipo.Weighted>
-13.8249

> <Gold.Chemscore.Internal_Hbond.Weighted>
0.0000

> <Gold.Chemscore.DEClash.Weighted>
0.0709

> <Gold.Chemscore.DEInternal.Weighted>
0.9224

> <Gold.Chemscore.Rot.Weighted>
3.3976

> <Gold.Chemscore.Internal.Correction.Weighted>
   9.000000E+99

> <Gold.Protein.RotatedTorsions>
[ 6907 6896 6895 6894 ] final  -95.40 input  -60.11 | X-H torsion
[ 7974 7965 7964 7962 ] final   17.08 input  175.53 | X-H torsion
[ 8008 7997 7996 7995 ] final  111.02 input   59.86 | X-H torsion
[ 10167 10162 10161 10158 ] final  -85.63 input  -65.29 | X-H torsion
[ 10718 10713 10712 10709 ] final -152.92 input   66.30 | X-H torsion
[ 10763 10752 10751 10750 ] final   82.50 input  -60.55 | X-H torsion
[ 11005 11000 10999 10996 ] final  -48.84 input  -57.11 | X-H torsion

> <Gold.Protein.ActiveResidues>
 VAL166  LYS551  ARG553  GLY616  TRP617  ASP618  TYR619  PRO620  LYS621  CYS622 
 ASP623  PHE694  ASN695  SER759  ASP760  ASP761  ALA762  ILE779  LEU786  VAL792 
 PHE793  MET794  SER795  GLU796  ALA797  LYS798  CYS799  TRP800  GLU811  SER814 

> <Gold.Protein.RotatedAtoms>
  150.6963  134.1664  159.4195 H   0  0  0  0  0  0  0  0  0  0  0  0  # atno 6907 bound_to 6896
  151.9643  135.0106  160.0558 H   0  0  0  0  0  0  0  0  0  0  0  0  # atno 6908 bound_to 6896
  152.1899  133.4730  159.5039 H   0  0  0  0  0  0  0  0  0  0  0  0  # atno 6909 bound_to 6896
  146.2230  139.8654  142.8597 H   0  0  0  0  0  0  0  0  0  0  0  0  # atno 7974 bound_to 7965
  156.2094  140.3027  155.9699 H   0  0  0  0  0  0  0  0  0  0  0  0  # atno 8008 bound_to 7997
  155.2761  140.0436  157.3028 H   0  0  0  0  0  0  0  0  0  0  0  0  # atno 8009 bound_to 7997
  154.5678  140.2339  155.8245 H   0  0  0  0  0  0  0  0  0  0  0  0  # atno 8010 bound_to 7997
  140.4019  143.2659  151.9131 H   0  0  0  0  0  0  0  0  0  0  0  0  # atno 10167 bound_to 10162
  156.4789  130.8294  151.2521 H   0  0  0  0  0  0  0  0  0  0  0  0  # atno 10718 bound_to 10713
  153.1208  135.4726  154.9192 H   0  0  0  0  0  0  0  0  0  0  0  0  # atno 10763 bound_to 10752
  154.7574  135.3122  154.8447 H   0  0  0  0  0  0  0  0  0  0  0  0  # atno 10764 bound_to 10752
  153.9012  135.6875  153.4809 H   0  0  0  0  0  0  0  0  0  0  0  0  # atno 10765 bound_to 10752
  141.0724  133.6675  156.3499 H   0  0  0  0  0  0  0  0  0  0  0  0  # atno 11005 bound_to 11000
  145.2662  141.0093  143.3798 LP  0  0  0  0  0  0  0  0  0  0  0  0  # atno 17320 bound_to 7965
  144.9259  139.4355  143.6518 LP  0  0  0  0  0  0  0  0  0  0  0  0  # atno 17321 bound_to 7965
  139.4784  144.5625  151.8217 LP  0  0  0  0  0  0  0  0  0  0  0  0  # atno 17342 bound_to 10162
  140.4731  144.1558  150.5921 LP  0  0  0  0  0  0  0  0  0  0  0  0  # atno 17343 bound_to 10162
  157.7485  131.0051  150.3102 LP  0  0  0  0  0  0  0  0  0  0  0  0  # atno 17370 bound_to 10713
  156.3542  130.3836  149.7304 LP  0  0  0  0  0  0  0  0  0  0  0  0  # atno 17371 bound_to 10713
  140.5644  134.5902  157.5442 LP  0  0  0  0  0  0  0  0  0  0  0  0  # atno 17394 bound_to 11000
  139.9537  134.7572  156.0389 LP  0  0  0  0  0  0  0  0  0  0  0  0  # atno 17395 bound_to 11000

$$$$
