AV-unprocessed.smi:16|AV-procd|sdf|94|dock4
  -GOLD-   2262015233D 1   1.00000     0.00000
 Structure written by MMmdl.
 60 64  0  0  0  0  0  0  0  0  2 V2000
  150.7683  138.2508  158.1165 C   0  0  0  0  0  0  0  0  0  0  0  0
  149.9664  138.3274  156.8102 C   0  0  0  0  0  0  0  0  0  0  0  0
  150.7695  138.8663  155.6809 N   0  3  2  0  0  0  0  0  0  0  0  0
  151.2565  140.2591  155.8663 C   0  0  0  0  0  0  0  0  0  0  0  0
  150.1426  141.2936  155.6410 C   0  0  0  0  0  0  0  0  0  0  0  0
  149.5102  141.1200  154.2461 C   0  0  2  0  0  0  0  0  0  0  0  0
  148.4733  142.0689  153.9945 O   0  0  0  0  0  0  0  0  0  0  0  0
  147.2785  141.8511  154.7387 C   0  0  0  0  0  0  0  0  0  0  0  0
  146.7384  140.4436  154.4560 C   0  0  0  0  0  0  0  0  0  0  0  0
  147.7562  139.4350  154.7284 N   0  0  0  0  0  0  0  0  0  0  0  0
  147.2139  138.1959  154.6593 C   0  0  0  0  0  0  0  0  0  0  0  0
  147.2624  137.3611  155.7308 N   0  0  0  0  0  0  0  0  0  0  0  0
  146.7353  136.1359  155.6462 C   0  0  0  0  0  0  0  0  0  0  0  0
  146.1293  135.5584  154.6066 N   0  0  0  0  0  0  0  0  0  0  0  0
  146.0874  136.3908  153.5261 C   0  0  0  0  0  0  0  0  0  0  0  0
  146.6059  137.7144  153.4702 C   0  0  0  0  0  0  0  0  0  0  0  0
  146.3837  138.2646  152.2154 N   0  0  0  0  0  0  0  0  0  0  0  0
  145.7708  137.3163  151.5607 C   0  0  0  0  0  0  0  0  0  0  0  0
  145.5498  136.1558  152.2701 N   0  0  0  0  0  0  0  0  0  0  0  0
  144.9037  134.9700  151.7802 C   0  0  0  0  0  0  0  0  0  0  0  0
  145.6016  133.6085  151.7983 C   0  0  0  0  0  0  0  0  0  0  0  0
  144.8400  133.2127  150.5117 C   0  0  0  0  0  0  0  0  0  0  0  0
  145.6910  132.4492  149.4814 C   0  0  0  0  0  0  0  0  0  0  0  0
  146.1189  131.1941  149.9690 O   0  0  0  0  0  0  0  0  0  0  0  0
  143.5357  132.4311  150.7767 C   0  0  0  0  0  0  0  0  0  0  0  0
  142.8784  132.0641  149.5810 O   0  0  0  0  0  0  0  0  0  0  0  0
  144.6954  134.7361  150.2837 C   0  0  0  0  0  0  0  0  0  0  0  0
  149.0144  139.6734  154.0090 C   0  0  2  0  0  0  0  0  0  0  0  0
  150.1497  138.6625  154.3425 C   0  0  0  0  0  0  0  0  0  0  0  0
  150.2897  141.3281  153.5118 H   0  0  0  0  0  0  0  0  0  0  0  0
  148.7872  139.5791  152.9458 H   0  0  0  0  0  0  0  0  0  0  0  0
  150.1831  137.7597  158.8942 H   0  0  0  0  0  0  0  0  0  0  0  0
  151.0373  139.2379  158.4909 H   0  0  0  0  0  0  0  0  0  0  0  0
  151.6864  137.6776  157.9832 H   0  0  0  0  0  0  0  0  0  0  0  0
  149.6449  137.3147  156.5644 H   0  0  0  0  0  0  0  0  0  0  0  0
  149.0579  138.9103  156.9588 H   0  0  0  0  0  0  0  0  0  0  0  0
  151.7011  140.3885  156.8521 H   0  0  0  0  0  0  0  0  0  0  0  0
  152.0608  140.4354  155.1507 H   0  0  0  0  0  0  0  0  0  0  0  0
  149.3986  141.1942  156.4295 H   0  0  0  0  0  0  0  0  0  0  0  0
  150.5516  142.3001  155.7351 H   0  0  0  0  0  0  0  0  0  0  0  0
  147.4460  141.9988  155.8052 H   0  0  0  0  0  0  0  0  0  0  0  0
  146.5420  142.5966  154.4388 H   0  0  0  0  0  0  0  0  0  0  0  0
  145.8513  140.2653  155.0659 H   0  0  0  0  0  0  0  0  0  0  0  0
  146.4284  140.3703  153.4123 H   0  0  0  0  0  0  0  0  0  0  0  0
  146.8111  135.5306  156.5376 H   0  0  0  0  0  0  0  0  0  0  0  0
  145.4620  137.4404  150.5327 H   0  0  0  0  0  0  0  0  0  0  0  0
  143.9461  134.9027  152.3000 H   0  0  0  0  0  0  0  0  0  0  0  0
  146.6802  133.6817  151.6527 H   0  0  0  0  0  0  0  0  0  0  0  0
  145.3730  132.9986  152.6728 H   0  0  0  0  0  0  0  0  0  0  0  0
  145.1206  132.2642  148.5707 H   0  0  0  0  0  0  0  0  0  0  0  0
  146.5647  133.0292  149.1822 H   0  0  0  0  0  0  0  0  0  0  0  0
  147.0635  131.1726  149.9568 H   0  0  0  0  0  0  0  0  0  0  0  0
  143.7285  131.5301  151.3597 H   0  0  0  0  0  0  0  0  0  0  0  0
  142.8352  133.0247  151.3645 H   0  0  0  0  0  0  0  0  0  0  0  0
  142.1709  132.6711  149.4270 H   0  0  0  0  0  0  0  0  0  0  0  0
  143.7229  135.0585  149.9112 H   0  0  0  0  0  0  0  0  0  0  0  0
  145.4988  135.1483  149.6713 H   0  0  0  0  0  0  0  0  0  0  0  0
  150.9433  138.7951  153.6062 H   0  0  0  0  0  0  0  0  0  0  0  0
  149.8323  137.6264  154.2274 H   0  0  0  0  0  0  0  0  0  0  0  0
  151.5979  138.2885  155.6700 H   0  0  0  0  0  0  0  0  0  0  0  0
  1  2  1  0  0  0  0
  1 32  1  0  0  0  0
  1 33  1  0  0  0  0
  1 34  1  0  0  0  0
  2  3  1  0  0  0  0
  2 35  1  0  0  0  0
  2 36  1  0  0  0  0
  3 29  1  0  0  0  0
  3  4  1  0  0  0  0
  3 60  1  0  0  0  0
  4  5  1  0  0  0  0
  4 37  1  0  0  0  0
  4 38  1  0  0  0  0
  5  6  1  0  0  0  0
  5 39  1  0  0  0  0
  5 40  1  0  0  0  0
  6 30  1  0  0  0  0
  6 28  1  0  0  0  0
  6  7  1  0  0  0  0
  7  8  1  0  0  0  0
  8  9  1  0  0  0  0
  8 41  1  0  0  0  0
  8 42  1  0  0  0  0
  9 10  1  0  0  0  0
  9 43  1  0  0  0  0
  9 44  1  0  0  0  0
 10 11  1  0  0  0  0
 10 28  1  0  0  0  0
 11 16  1  0  0  0  0
 11 12  2  0  0  0  0
 12 13  1  0  0  0  0
 13 14  2  0  0  0  0
 13 45  1  0  0  0  0
 14 15  1  0  0  0  0
 15 19  1  0  0  0  0
 15 16  2  0  0  0  0
 16 17  1  0  0  0  0
 17 18  2  0  0  0  0
 18 19  1  0  0  0  0
 18 46  1  0  0  0  0
 19 20  1  0  0  0  0
 20 27  1  0  0  0  0
 20 21  1  0  0  0  0
 20 47  1  0  0  0  0
 21 22  1  0  0  0  0
 21 48  1  0  0  0  0
 21 49  1  0  0  0  0
 22 23  1  0  0  0  0
 22 25  1  0  0  0  0
 22 27  1  0  0  0  0
 23 24  1  0  0  0  0
 23 50  1  0  0  0  0
 23 51  1  0  0  0  0
 24 52  1  0  0  0  0
 25 26  1  0  0  0  0
 25 53  1  0  0  0  0
 25 54  1  0  0  0  0
 26 55  1  0  0  0  0
 27 56  1  0  0  0  0
 27 57  1  0  0  0  0
 28 31  1  0  0  0  0
 28 29  1  0  0  0  0
 29 58  1  0  0  0  0
 29 59  1  0  0  0  0
M  CHG  1   3   1
M  END
> <s_m_source_file>
AV-unprocessed.smi

> <i_m_source_file_index>
16

> <i_lp_mmshare_version>
43012

> <i_f3d_flags>
0

> <s_epik_input>
W0NIM11bQ0gyXU4oW0NIMl1bQ0gyXTEpW0NIMl1bQ0BASF0oW0NAQEhdMTIpTihbQ0gyXVtDSDJdTzIpYyhuW2NIXW4zKWMoYzM0KW5bY0hdbjRbQ0hdKFtDSDJdNSlbQ0gyXUM1KFtDSDJdW09IXSlbQ0gyXVtPSF0=

> <s_epik_cmdline>
J2VwaWtfcHl0aG9uJywgJy1waCcsICc3LjAnLCAnLXRuJywgJzgnLCAnLW1hJywgJzIwMCcsICctbWV0YWxfYmluZGluZycsICctaW1hZScsICc8aW5maWxlLm1hZT4nLCAnLW9tYWUnLCAnPG91dGZpbGUubWFlPic=

> <r_lp_tautomer_probability>
1

> <r_epik_Ionization_Penalty>
0.0135603

> <r_epik_Ionization_Penalty_Charging>
0.0131385

> <r_epik_Ionization_Penalty_Neutral>
0.000421734

> <r_epik_State_Penalty>
0.0102091

> <r_epik_Charging_Adjusted_Penalty>
0.0233476

> <i_epik_Tot_Q>
1

> <i_epik_Tot_abs_Q>
1

> <r_epik_Metal_State_Penalty>
0.0103746

> <b_epik_Metal_Only>
0

> <s_lp_Force_Field>
OPLS_2005

> <r_lp_Energy>
67.696

> <b_lp_Chiralities_Consistent>
1

> <s_lp_Variant>
AV-unprocessed.smi:16-8

> <Gold.Version>
5.8.1

> <Gold.Id.Protein>
6NUR|6NUR_protein|mol2

> <Gold.PLP.Fitness>
51.0102

> <Gold.PLP.PLP>
-41.0076

> <Gold.PLP.part.hbond>
-4.5936

> <Gold.PLP.part.metal>
0.0000

> <Gold.PLP.part.buried>
-0.9180

> <Gold.PLP.part.nonpolar>
-36.4402

> <Gold.PLP.part.repulsive>
0.8700

> <Gold.PLP.ligand.clash>
0.0000

> <Gold.PLP.ligand.torsion>
0.6578

> <Gold.PLP.Chemscore.Hbond>
2.6418

> <Gold.PLP.Chemscore.CHOScore>
0.8919

> <Gold.PLP.Chemscore.Metal>
0.0000

> <Gold.Chemscore.Hbonds>
donor molecule, donor type, donor heavy atom, donor atom, acceptor molecule, acceptor atom, score
      L1  H    24    52       P1 10747  1.00
      L1  H    26    55       P1 10186  0.84
      P1  H 10785 10796       L1    26  0.78
      L1  C    18    46       P1 10171  0.97

> <Gold.PLP.Chemscore.Internal.Correction>
0.7170

> <Gold.Rescore>
     Score         DG    S(hbond)    S(metal)    S(lipo)     H(rot)  DE(clash)    DE(int)     intcor
     15.73     -16.53       2.54        0.00      94.66       3.33       0.39       0.41       ----

> <Gold.Chemscore.Fitness>
15.7281

> <Gold.Chemscore.DG>
-16.5311

> <Gold.Chemscore.ZeroCoef>
-5.4800

> <Gold.Chemscore.Hbond>
2.5412

> <Gold.Chemscore.Metal>
0.0000

> <Gold.Chemscore.Lipo>
94.6645

> <Gold.Chemscore.Internal_Hbond>
0.0000

> <Gold.Chemscore.DEClash>
0.3944

> <Gold.Chemscore.DEInternal>
0.4087

> <Gold.Chemscore.Rot>
3.3251

> <Gold.Chemscore.Internal.Correction>
   9.000000E+99

> <Gold.Chemscore.Hbonds>
donor molecule, donor type, donor heavy atom, donor atom, acceptor molecule, acceptor atom, score
      L1  H    24    52       P1 10747  0.99
      L1  H    26    55       P1 10186  0.82
      P1  H 10785 10796       L1    26  0.75

> <Gold.Chemscore.Hbond.Weighted>
-8.4876

> <Gold.Chemscore.Metal.Weighted>
-0.0000

> <Gold.Chemscore.Lipo.Weighted>
-11.0757

> <Gold.Chemscore.Internal_Hbond.Weighted>
0.0000

> <Gold.Chemscore.DEClash.Weighted>
0.3944

> <Gold.Chemscore.DEInternal.Weighted>
0.4087

> <Gold.Chemscore.Rot.Weighted>
8.5122

> <Gold.Chemscore.Internal.Correction.Weighted>
   9.000000E+99

> <Gold.Protein.RotatedTorsions>
[ 6907 6896 6895 6894 ] final -164.24 input  -60.11 | X-H torsion
[ 7974 7965 7964 7962 ] final  157.12 input  175.53 | X-H torsion
[ 8008 7997 7996 7995 ] final   -8.69 input   59.86 | X-H torsion
[ 10167 10162 10161 10158 ] final  141.90 input  -65.29 | X-H torsion
[ 10718 10713 10712 10709 ] final   25.69 input   66.30 | X-H torsion
[ 10763 10752 10751 10750 ] final  -54.39 input  -60.55 | X-H torsion
[ 11005 11000 10999 10996 ] final  -71.66 input  -57.11 | X-H torsion

> <Gold.Protein.ActiveResidues>
 VAL166  LYS551  ARG553  GLY616  TRP617  ASP618  TYR619  PRO620  LYS621  CYS622 
 ASP623  PHE694  ASN695  SER759  ASP760  ASP761  ALA762  ILE779  LEU786  VAL792 
 PHE793  MET794  SER795  GLU796  ALA797  LYS798  CYS799  TRP800  GLU811  SER814 

> <Gold.Protein.RotatedAtoms>
  151.4088  133.3734  159.2741 H   0  0  0  0  0  0  0  0  0  0  0  0  # atno 6907 bound_to 6896
  150.9379  134.8791  159.7604 H   0  0  0  0  0  0  0  0  0  0  0  0  # atno 6908 bound_to 6896
  152.5058  134.4036  159.9477 H   0  0  0  0  0  0  0  0  0  0  0  0  # atno 6909 bound_to 6896
  144.7922  139.7297  143.6216 H   0  0  0  0  0  0  0  0  0  0  0  0  # atno 7974 bound_to 7965
  154.5718  140.2374  155.8181 H   0  0  0  0  0  0  0  0  0  0  0  0  # atno 8008 bound_to 7997
  156.2112  140.3025  155.9695 H   0  0  0  0  0  0  0  0  0  0  0  0  # atno 8009 bound_to 7997
  155.2699  140.0418  157.2996 H   0  0  0  0  0  0  0  0  0  0  0  0  # atno 8010 bound_to 7997
  139.5008  144.6141  151.6203 H   0  0  0  0  0  0  0  0  0  0  0  0  # atno 10167 bound_to 10162
  157.1968  130.6871  149.6172 H   0  0  0  0  0  0  0  0  0  0  0  0  # atno 10718 bound_to 10713
  154.1741  135.6454  153.5017 H   0  0  0  0  0  0  0  0  0  0  0  0  # atno 10763 bound_to 10752
  153.0076  135.5390  154.6582 H   0  0  0  0  0  0  0  0  0  0  0  0  # atno 10764 bound_to 10752
  154.5929  135.2936  155.0589 H   0  0  0  0  0  0  0  0  0  0  0  0  # atno 10765 bound_to 10752
  141.1596  133.6824  156.6939 H   0  0  0  0  0  0  0  0  0  0  0  0  # atno 11005 bound_to 11000
  146.2178  139.5580  142.9638 LP  0  0  0  0  0  0  0  0  0  0  0  0  # atno 17320 bound_to 7965
  145.5765  141.0388  143.2145 LP  0  0  0  0  0  0  0  0  0  0  0  0  # atno 17321 bound_to 7965
  140.5825  143.9922  150.6276 LP  0  0  0  0  0  0  0  0  0  0  0  0  # atno 17342 bound_to 10162
  140.3075  143.3219  152.0911 LP  0  0  0  0  0  0  0  0  0  0  0  0  # atno 17343 bound_to 10162
  155.9705  130.4596  150.6043 LP  0  0  0  0  0  0  0  0  0  0  0  0  # atno 17370 bound_to 10713
  157.3807  131.0780  151.1479 LP  0  0  0  0  0  0  0  0  0  0  0  0  # atno 17371 bound_to 10713
  140.3009  134.8164  157.4097 LP  0  0  0  0  0  0  0  0  0  0  0  0  # atno 17394 bound_to 11000
  140.1262  134.5154  155.8142 LP  0  0  0  0  0  0  0  0  0  0  0  0  # atno 17395 bound_to 11000

$$$$
