AV-unprocessed.smi:102|AV-procd|sdf|959|dock7
  -GOLD-   2262017503D 1   1.00000     0.00000
 Structure written by MMmdl.
 44 45  0  0  0  0  0  0  0  0  1 V2000
  151.6047  144.6123  160.1093 C   0  0  0  0  0  0  0  0  0  0  0  0
  151.7612  143.1778  159.6229 C   0  0  0  0  0  0  0  0  0  0  0  0
  152.8492  142.6027  159.6476 O   0  0  0  0  0  0  0  0  0  0  0  0
  150.6066  142.6622  159.1851 O   0  0  0  0  0  0  0  0  0  0  0  0
  150.5859  141.3876  158.5647 C   0  0  0  0  0  0  0  0  0  0  0  0
  151.6374  141.3019  157.4414 C   0  0  2  0  0  0  0  0  0  0  0  0
  150.9825  141.4879  156.1892 O   0  0  0  0  0  0  0  0  0  0  0  0
  151.2271  140.4121  155.3323 C   0  0  2  0  0  0  0  0  0  0  0  0
  149.9528  140.0604  154.5957 N   0  0  0  0  0  0  0  0  0  0  0  0
  148.8256  140.8715  154.6453 C   0  0  0  0  0  0  0  0  0  0  0  0
  147.6636  140.5533  154.0280 C   0  0  0  0  0  0  0  0  0  0  0  0
  146.6121  141.3840  154.1260 F   0  0  0  0  0  0  0  0  0  0  0  0
  147.5397  139.3137  153.2663 C   0  0  0  0  0  0  0  0  0  0  0  0
  146.5313  138.9415  152.6700 O   0  0  0  0  0  0  0  0  0  0  0  0
  148.6943  138.5252  153.2549 N   0  0  0  0  0  0  0  0  0  0  0  0
  149.8959  138.8382  153.8926 C   0  0  0  0  0  0  0  0  0  0  0  0
  150.8470  138.0601  153.8363 O   0  0  0  0  0  0  0  0  0  0  0  0
  151.7563  139.2435  156.1819 C   0  0  2  0  0  0  0  0  0  0  0  0
  150.6823  138.4074  156.6125 O   0  0  0  0  0  0  0  0  0  0  0  0
  150.7195  137.0807  156.4104 C   0  0  0  0  0  0  0  0  0  0  0  0
  149.5387  136.3664  157.0532 C   0  0  0  0  0  0  0  0  0  0  0  0
  151.5869  136.4636  155.7927 O   0  0  0  0  0  0  0  0  0  0  0  0
  152.4298  139.9871  157.3274 C   0  0  2  0  0  0  0  0  0  0  0  0
  152.4922  139.2096  158.5191 O   0  0  0  0  0  0  0  0  0  0  0  0
  153.5476  138.4136  158.7574 C   0  0  0  0  0  0  0  0  0  0  0  0
  153.3962  137.6244  160.0505 C   0  0  0  0  0  0  0  0  0  0  0  0
  154.5494  138.3069  158.0500 O   0  0  0  0  0  0  0  0  0  0  0  0
  148.6523  137.6531  152.7478 H   0  0  0  0  0  0  0  0  0  0  0  0
  150.9326  145.1667  159.4534 H   0  0  0  0  0  0  0  0  0  0  0  0
  152.5699  145.1190  160.1213 H   0  0  0  0  0  0  0  0  0  0  0  0
  151.1934  144.6249  161.1187 H   0  0  0  0  0  0  0  0  0  0  0  0
  150.7810  140.6112  159.3059 H   0  0  0  0  0  0  0  0  0  0  0  0
  149.5900  141.2024  158.1605 H   0  0  0  0  0  0  0  0  0  0  0  0
  152.3415  142.1227  157.5801 H   0  0  0  0  0  0  0  0  0  0  0  0
  151.9423  140.7486  154.5789 H   0  0  0  0  0  0  0  0  0  0  0  0
  148.8517  141.7957  155.2022 H   0  0  0  0  0  0  0  0  0  0  0  0
  152.4758  138.6780  155.5876 H   0  0  0  0  0  0  0  0  0  0  0  0
  149.7095  136.2445  158.1230 H   0  0  0  0  0  0  0  0  0  0  0  0
  149.4009  135.3801  156.6096 H   0  0  0  0  0  0  0  0  0  0  0  0
  148.6223  136.9396  156.9111 H   0  0  0  0  0  0  0  0  0  0  0  0
  153.4401  140.2279  156.9923 H   0  0  0  0  0  0  0  0  0  0  0  0
  152.4665  137.0550  160.0401 H   0  0  0  0  0  0  0  0  0  0  0  0
  153.3802  138.3003  160.9056 H   0  0  0  0  0  0  0  0  0  0  0  0
  154.2263  136.9285  160.1748 H   0  0  0  0  0  0  0  0  0  0  0  0
  1  2  1  0  0  0  0
  1 29  1  0  0  0  0
  1 30  1  0  0  0  0
  1 31  1  0  0  0  0
  2  3  2  0  0  0  0
  2  4  1  0  0  0  0
  4  5  1  0  0  0  0
  5  6  1  0  0  0  0
  5 32  1  0  0  0  0
  5 33  1  0  0  0  0
  6 23  1  0  0  0  0
  6  7  1  0  0  0  0
  6 34  1  0  0  0  0
  7  8  1  0  0  0  0
  8  9  1  0  0  0  0
  8 18  1  0  0  0  0
  8 35  1  0  0  0  0
  9 16  1  0  0  0  0
  9 10  1  0  0  0  0
 10 11  2  0  0  0  0
 10 36  1  0  0  0  0
 11 12  1  0  0  0  0
 11 13  1  0  0  0  0
 13 14  2  0  0  0  0
 13 15  1  0  0  0  0
 15 28  1  0  0  0  0
 15 16  1  0  0  0  0
 16 17  2  0  0  0  0
 18 19  1  0  0  0  0
 18 23  1  0  0  0  0
 18 37  1  0  0  0  0
 19 20  1  0  0  0  0
 20 21  1  0  0  0  0
 20 22  2  0  0  0  0
 21 38  1  0  0  0  0
 21 39  1  0  0  0  0
 21 40  1  0  0  0  0
 23 24  1  0  0  0  0
 23 41  1  0  0  0  0
 24 25  1  0  0  0  0
 25 26  1  0  0  0  0
 25 27  2  0  0  0  0
 26 42  1  0  0  0  0
 26 43  1  0  0  0  0
 26 44  1  0  0  0  0
M  END
> <s_m_source_file>
AV-unprocessed.smi

> <i_m_source_file_index>
102

> <i_lp_mmshare_version>
43012

> <i_f3d_flags>
0

> <s_epik_input>
W0NIM11DKD1PKU9bQ0gyXVtDQEBIXTFPW0NASF0oW0NAQEhdKE9DKD1PKVtDSDNdKVtDQEhdMU9DKD1PKVtDSDNdKW4yW2NIXWMoRiljKD1PKVtuSF1jMj1P

> <s_epik_cmdline>
J2VwaWtfcHl0aG9uJywgJy1waCcsICc3LjAnLCAnLXRuJywgJzgnLCAnLW1hJywgJzIwMCcsICctbWV0YWxfYmluZGluZycsICctaW1hZScsICc8aW5maWxlLm1hZT4nLCAnLW9tYWUnLCAnPG91dGZpbGUubWFlPic=

> <r_lp_tautomer_probability>
0.999537

> <r_epik_Ionization_Penalty>
0.058267

> <r_epik_Ionization_Penalty_Charging>
0.058267

> <r_epik_Ionization_Penalty_Neutral>
6.57791e-16

> <r_epik_State_Penalty>
0.0503774

> <r_epik_Charging_Adjusted_Penalty>
0.108644

> <i_epik_Tot_Q>
0

> <i_epik_Tot_abs_Q>
0

> <r_epik_Metal_State_Penalty>
2.6644

> <b_epik_Metal_Only>
0

> <s_epik_Chemistry_Notes>
This compound has an ester and may undergo hydrolysis at high or low pH. This compound contains an acetal/aminal-like group ( X-CH(R)-Y where X, Y are N, S, or O) that may be acid/base labile, releasing an aldehyde.

> <s_lp_Force_Field>
OPLS_2005

> <r_lp_Energy>
17.4488

> <b_lp_Chiralities_Consistent>
1

> <s_lp_Variant>
AV-unprocessed.smi:102-15

> <Gold.Version>
5.8.1

> <Gold.Id.Protein>
6NUR|6NUR_protein|mol2

> <Gold.PLP.Fitness>
42.9512

> <Gold.PLP.PLP>
-37.7370

> <Gold.PLP.part.hbond>
-4.3660

> <Gold.PLP.part.metal>
0.0000

> <Gold.PLP.part.buried>
-2.2501

> <Gold.PLP.part.nonpolar>
-30.5270

> <Gold.PLP.part.repulsive>
0.6830

> <Gold.PLP.ligand.clash>
0.0000

> <Gold.PLP.ligand.torsion>
1.9975

> <Gold.PLP.Chemscore.Hbond>
3.0000

> <Gold.PLP.Chemscore.CHOScore>
0.0000

> <Gold.PLP.Chemscore.Metal>
0.0000

> <Gold.Chemscore.Hbonds>
donor molecule, donor type, donor heavy atom, donor atom, acceptor molecule, acceptor atom, score
      L1  H    15    28       P1  7948  1.00
      P1  H  7997  8008       L1    27  0.90
      P1  H 10752 10763       L1    22  1.00

> <Gold.PLP.Chemscore.Internal.Correction>
0.2092

> <Gold.Rescore>
     Score         DG    S(hbond)    S(metal)    S(lipo)     H(rot)  DE(clash)    DE(int)     intcor
      4.71     -10.68       2.84        0.00      52.10       4.05       1.32       4.65       ----

> <Gold.Chemscore.Fitness>
4.7079

> <Gold.Chemscore.DG>
-10.6777

> <Gold.Chemscore.ZeroCoef>
-5.4800

> <Gold.Chemscore.Hbond>
2.8367

> <Gold.Chemscore.Metal>
0.0000

> <Gold.Chemscore.Lipo>
52.1045

> <Gold.Chemscore.Internal_Hbond>
0.0000

> <Gold.Chemscore.DEClash>
1.3213

> <Gold.Chemscore.DEInternal>
4.6484

> <Gold.Chemscore.Rot>
4.0520

> <Gold.Chemscore.Internal.Correction>
   9.000000E+99

> <Gold.Chemscore.Hbonds>
donor molecule, donor type, donor heavy atom, donor atom, acceptor molecule, acceptor atom, score
      L1  H    15    28       P1  7948  1.00
      P1  H  7997  8008       L1    27  0.72
      P1  H 10752 10763       L1    22  0.99

> <Gold.Chemscore.Hbond.Weighted>
-9.4746

> <Gold.Chemscore.Metal.Weighted>
-0.0000

> <Gold.Chemscore.Lipo.Weighted>
-6.0962

> <Gold.Chemscore.Internal_Hbond.Weighted>
0.0000

> <Gold.Chemscore.DEClash.Weighted>
1.3213

> <Gold.Chemscore.DEInternal.Weighted>
4.6484

> <Gold.Chemscore.Rot.Weighted>
10.3732

> <Gold.Chemscore.Internal.Correction.Weighted>
   9.000000E+99

> <Gold.Protein.RotatedTorsions>
[ 6907 6896 6895 6894 ] final  -68.27 input  -60.11 | X-H torsion
[ 7974 7965 7964 7962 ] final  -68.84 input  175.53 | X-H torsion
[ 8008 7997 7996 7995 ] final -119.43 input   59.86 | X-H torsion
[ 10167 10162 10161 10158 ] final  -69.15 input  -65.29 | X-H torsion
[ 10718 10713 10712 10709 ] final  -77.75 input   66.30 | X-H torsion
[ 10763 10752 10751 10750 ] final   81.31 input  -60.55 | X-H torsion
[ 11005 11000 10999 10996 ] final   77.87 input  -57.11 | X-H torsion

> <Gold.Protein.ActiveResidues>
 VAL166  LYS551  ARG553  GLY616  TRP617  ASP618  TYR619  PRO620  LYS621  CYS622 
 ASP623  PHE694  ASN695  SER759  ASP760  ASP761  ALA762  ILE779  LEU786  VAL792 
 PHE793  MET794  SER795  GLU796  ALA797  LYS798  CYS799  TRP800  GLU811  SER814 

> <Gold.Protein.RotatedAtoms>
  150.7365  134.5763  159.5915 H   0  0  0  0  0  0  0  0  0  0  0  0  # atno 6907 bound_to 6896
  152.3189  134.7402  160.0327 H   0  0  0  0  0  0  0  0  0  0  0  0  # atno 6908 bound_to 6896
  151.7925  133.3325  159.3540 H   0  0  0  0  0  0  0  0  0  0  0  0  # atno 6909 bound_to 6896
  145.7113  140.9077  143.0679 H   0  0  0  0  0  0  0  0  0  0  0  0  # atno 7974 bound_to 7965
  155.1157  140.0398  157.2736 H   0  0  0  0  0  0  0  0  0  0  0  0  # atno 8008 bound_to 7997
  154.6652  140.2600  155.7040 H   0  0  0  0  0  0  0  0  0  0  0  0  # atno 8009 bound_to 7997
  156.2635  140.2809  156.1139 H   0  0  0  0  0  0  0  0  0  0  0  0  # atno 8010 bound_to 7997
  140.5453  143.2313  151.7014 H   0  0  0  0  0  0  0  0  0  0  0  0  # atno 10167 bound_to 10162
  156.0136  130.4500  150.3393 H   0  0  0  0  0  0  0  0  0  0  0  0  # atno 10718 bound_to 10713
  153.1106  135.4770  154.9028 H   0  0  0  0  0  0  0  0  0  0  0  0  # atno 10763 bound_to 10752
  154.7477  135.3098  154.8618 H   0  0  0  0  0  0  0  0  0  0  0  0  # atno 10764 bound_to 10752
  153.9208  135.6855  153.4801 H   0  0  0  0  0  0  0  0  0  0  0  0  # atno 10765 bound_to 10752
  139.9236  134.7718  156.1577 H   0  0  0  0  0  0  0  0  0  0  0  0  # atno 11005 bound_to 11000
  144.6941  139.9079  143.7462 LP  0  0  0  0  0  0  0  0  0  0  0  0  # atno 17320 bound_to 7965
  146.0709  139.3699  143.0523 LP  0  0  0  0  0  0  0  0  0  0  0  0  # atno 17321 bound_to 7965
  139.5005  144.3905  152.0284 LP  0  0  0  0  0  0  0  0  0  0  0  0  # atno 17342 bound_to 10162
  140.3017  144.3639  150.6058 LP  0  0  0  0  0  0  0  0  0  0  0  0  # atno 17343 bound_to 10162
  157.1488  131.0315  151.2894 LP  0  0  0  0  0  0  0  0  0  0  0  0  # atno 17370 bound_to 10713
  157.4409  130.7543  149.7069 LP  0  0  0  0  0  0  0  0  0  0  0  0  # atno 17371 bound_to 10713
  141.0777  133.6768  156.2270 LP  0  0  0  0  0  0  0  0  0  0  0  0  # atno 17394 bound_to 11000
  140.6401  134.5174  157.5568 LP  0  0  0  0  0  0  0  0  0  0  0  0  # atno 17395 bound_to 11000

$$$$
