AV-unprocessed.smi:3240|AV-procd|sdf|12382|dock9
  -GOLD-   2272018243D 1   1.00000     0.00000
 Structure written by MMmdl.
 44 45  0  0  0  0  0  0  0  0  2 V2000
  144.3139  131.9147  151.1589 C   0  0  0  0  0  0  0  0  0  0  0  0
  144.1496  133.3742  151.4715 C   0  0  0  0  0  0  0  0  0  0  0  0
  144.6045  134.4893  150.7119 C   0  0  0  0  0  0  0  0  0  0  0  0
  144.2968  135.6496  151.2685 N   0  0  0  0  0  0  0  0  0  0  0  0
  143.6385  135.3183  152.3990 N   0  0  0  0  0  0  0  0  0  0  0  0
  143.1392  136.3573  153.2809 C   0  0  0  0  0  0  0  0  0  0  0  0
  144.2575  136.9722  154.1586 C   0  0  1  0  0  0  0  0  0  0  0  0
  145.1099  135.8788  154.8187 C   0  0  0  0  0  0  0  0  0  0  0  0
  145.1378  137.8672  153.3743 N   0  3  0  0  0  0  0  0  0  0  0  0
  146.4474  138.1723  153.9911 C   0  0  0  0  0  0  0  0  0  0  0  0
  147.3699  138.9767  153.0434 C   0  0  0  0  0  0  0  0  0  0  0  0
  147.4541  138.2515  151.8310 O   0  0  0  0  0  0  0  0  0  0  0  0
  146.8394  140.3970  152.7260 C   0  0  0  0  0  0  0  0  0  0  0  0
  146.9265  141.3401  153.9390 C   0  0  0  0  0  0  0  0  0  0  0  0
  148.3614  141.4138  154.4843 C   0  0  0  0  0  0  0  0  0  0  0  0
  148.9095  140.0172  154.8162 C   0  0  0  0  0  0  0  0  0  0  0  0
  148.8086  139.0731  153.6040 C   0  0  0  0  0  0  0  0  0  0  0  0
  143.5342  133.9515  152.5458 C   0  0  0  0  0  0  0  0  0  0  0  0
  144.7972  131.7574  150.1944 H   0  0  0  0  0  0  0  0  0  0  0  0
  143.3532  131.4003  151.1240 H   0  0  0  0  0  0  0  0  0  0  0  0
  144.9232  131.4097  151.9085 H   0  0  0  0  0  0  0  0  0  0  0  0
  145.1468  134.4892  149.7777 H   0  0  0  0  0  0  0  0  0  0  0  0
  142.6746  137.1211  152.6556 H   0  0  0  0  0  0  0  0  0  0  0  0
  142.3303  135.9464  153.8880 H   0  0  0  0  0  0  0  0  0  0  0  0
  143.8178  137.5616  154.9656 H   0  0  0  0  0  0  0  0  0  0  0  0
  144.4975  135.2300  155.4461 H   0  0  0  0  0  0  0  0  0  0  0  0
  145.8836  136.3117  155.4537 H   0  0  0  0  0  0  0  0  0  0  0  0
  145.6024  135.2529  154.0734 H   0  0  0  0  0  0  0  0  0  0  0  0
  145.3282  137.4183  152.4896 H   0  0  0  0  0  0  0  0  0  0  0  0
  146.2816  138.7304  154.9098 H   0  0  0  0  0  0  0  0  0  0  0  0
  146.9295  137.2362  154.2771 H   0  0  0  0  0  0  0  0  0  0  0  0
  148.0293  138.7164  151.2417 H   0  0  0  0  0  0  0  0  0  0  0  0
  147.4269  140.8284  151.9139 H   0  0  0  0  0  0  0  0  0  0  0  0
  145.8134  140.3596  152.3589 H   0  0  0  0  0  0  0  0  0  0  0  0
  146.5905  142.3378  153.6547 H   0  0  0  0  0  0  0  0  0  0  0  0
  146.2493  141.0043  154.7249 H   0  0  0  0  0  0  0  0  0  0  0  0
  149.0067  141.8906  153.7453 H   0  0  0  0  0  0  0  0  0  0  0  0
  148.3907  142.0460  155.3724 H   0  0  0  0  0  0  0  0  0  0  0  0
  149.9494  140.0967  155.1345 H   0  0  0  0  0  0  0  0  0  0  0  0
  148.3666  139.5999  155.6645 H   0  0  0  0  0  0  0  0  0  0  0  0
  149.1798  138.0838  153.8749 H   0  0  0  0  0  0  0  0  0  0  0  0
  149.4793  139.4423  152.8260 H   0  0  0  0  0  0  0  0  0  0  0  0
  143.0361  133.5060  153.3945 H   0  0  0  0  0  0  0  0  0  0  0  0
  144.6487  138.7321  153.1941 H   0  0  0  0  0  0  0  0  0  0  0  0
  1  2  1  0  0  0  0
  1 19  1  0  0  0  0
  1 20  1  0  0  0  0
  1 21  1  0  0  0  0
  2 18  2  0  0  0  0
  2  3  1  0  0  0  0
  3  4  2  0  0  0  0
  3 22  1  0  0  0  0
  4  5  1  0  0  0  0
  5  6  1  0  0  0  0
  5 18  1  0  0  0  0
  6  7  1  0  0  0  0
  6 23  1  0  0  0  0
  6 24  1  0  0  0  0
  7  8  1  0  0  0  0
  7  9  1  0  0  0  0
  7 25  1  0  0  0  0
  8 26  1  0  0  0  0
  8 27  1  0  0  0  0
  8 28  1  0  0  0  0
  9 10  1  0  0  0  0
  9 29  1  0  0  0  0
  9 44  1  0  0  0  0
 10 11  1  0  0  0  0
 10 30  1  0  0  0  0
 10 31  1  0  0  0  0
 11 17  1  0  0  0  0
 11 12  1  0  0  0  0
 11 13  1  0  0  0  0
 12 32  1  0  0  0  0
 13 14  1  0  0  0  0
 13 33  1  0  0  0  0
 13 34  1  0  0  0  0
 14 15  1  0  0  0  0
 14 35  1  0  0  0  0
 14 36  1  0  0  0  0
 15 16  1  0  0  0  0
 15 37  1  0  0  0  0
 15 38  1  0  0  0  0
 16 17  1  0  0  0  0
 16 39  1  0  0  0  0
 16 40  1  0  0  0  0
 17 41  1  0  0  0  0
 17 42  1  0  0  0  0
 18 43  1  0  0  0  0
M  CHG  1   9   1
M  END
> <s_m_source_file>
AV-unprocessed.smi

> <i_m_source_file_index>
3240

> <i_lp_mmshare_version>
43012

> <i_f3d_flags>
0

> <s_epik_input>
W0NIM11jMVtjSF1ubihbY0hdMSlbQ0gyXVtDQEhdKFtDSDNdKVtOSF1bQ0gyXUMyKFtPSF0pW0NIMl1bQ0gyXVtDSDJdW0NIMl1bQ0gyXTI=

> <s_epik_cmdline>
J2VwaWtfcHl0aG9uJywgJy1waCcsICc3LjAnLCAnLXRuJywgJzgnLCAnLW1hJywgJzIwMCcsICctbWV0YWxfYmluZGluZycsICctaW1hZScsICc8aW5maWxlLm1hZT4nLCAnLW9tYWUnLCAnPG91dGZpbGUubWFlPic=

> <r_lp_tautomer_probability>
1

> <r_epik_Ionization_Penalty>
0.0111573

> <r_epik_Ionization_Penalty_Charging>
0.0111472

> <r_epik_Ionization_Penalty_Neutral>
1.01652e-05

> <r_epik_State_Penalty>
0.00856328

> <r_epik_Charging_Adjusted_Penalty>
0.0197104

> <i_epik_Tot_Q>
1

> <i_epik_Tot_abs_Q>
1

> <r_epik_Metal_State_Penalty>
0.00856448

> <b_epik_Metal_Only>
0

> <s_lp_Force_Field>
OPLS_2005

> <r_lp_Energy>
18.8853

> <b_lp_Chiralities_Consistent>
1

> <s_lp_Variant>
AV-unprocessed.smi:3240-2

> <Gold.Version>
5.8.1

> <Gold.Id.Protein>
6NUR|6NUR_protein|mol2

> <Gold.PLP.Fitness>
44.5904

> <Gold.PLP.PLP>
-30.8446

> <Gold.PLP.part.hbond>
-3.7907

> <Gold.PLP.part.metal>
0.0000

> <Gold.PLP.part.buried>
-2.1246

> <Gold.PLP.part.nonpolar>
-26.7735

> <Gold.PLP.part.repulsive>
0.2855

> <Gold.PLP.ligand.clash>
0.0000

> <Gold.PLP.ligand.torsion>
0.5637

> <Gold.PLP.Chemscore.Hbond>
3.0000

> <Gold.PLP.Chemscore.CHOScore>
1.9467

> <Gold.PLP.Chemscore.Metal>
0.0000

> <Gold.Chemscore.Hbonds>
donor molecule, donor type, donor heavy atom, donor atom, acceptor molecule, acceptor atom, score
      L1  H     9    44       P1 10175  1.62
      L1  H    12    32       P1  7957  0.91
      L1  C     3    22       P1  7921  1.00
      L1  C    18    43       P1 10957  1.00

> <Gold.PLP.Chemscore.Internal.Correction>
0.0331

> <Gold.Rescore>
     Score         DG    S(hbond)    S(metal)    S(lipo)     H(rot)  DE(clash)    DE(int)     intcor
     14.43     -15.00       1.94        0.00      72.27       2.12       0.04       0.52       ----

> <Gold.Chemscore.Fitness>
14.4314

> <Gold.Chemscore.DG>
-14.9993

> <Gold.Chemscore.ZeroCoef>
-5.4800

> <Gold.Chemscore.Hbond>
1.9429

> <Gold.Chemscore.Metal>
0.0000

> <Gold.Chemscore.Lipo>
72.2694

> <Gold.Chemscore.Internal_Hbond>
0.0000

> <Gold.Chemscore.DEClash>
0.0434

> <Gold.Chemscore.DEInternal>
0.5246

> <Gold.Chemscore.Rot>
2.1193

> <Gold.Chemscore.Internal.Correction>
   9.000000E+99

> <Gold.Chemscore.Hbonds>
donor molecule, donor type, donor heavy atom, donor atom, acceptor molecule, acceptor atom, score
      L1  H     9    44       P1 10175  0.79
      L1  H    12    32       P1  7957  0.26

> <Gold.Chemscore.Hbond.Weighted>
-6.4892

> <Gold.Chemscore.Metal.Weighted>
-0.0000

> <Gold.Chemscore.Lipo.Weighted>
-8.4555

> <Gold.Chemscore.Internal_Hbond.Weighted>
0.0000

> <Gold.Chemscore.DEClash.Weighted>
0.0434

> <Gold.Chemscore.DEInternal.Weighted>
0.5246

> <Gold.Chemscore.Rot.Weighted>
5.4254

> <Gold.Chemscore.Internal.Correction.Weighted>
   9.000000E+99

> <Gold.Protein.RotatedTorsions>
[ 6907 6896 6895 6894 ] final  -68.27 input  -60.11 | X-H torsion
[ 7974 7965 7964 7962 ] final  -97.73 input  175.53 | X-H torsion
[ 8008 7997 7996 7995 ] final  117.94 input   59.86 | X-H torsion
[ 10167 10162 10161 10158 ] final -163.40 input  -65.29 | X-H torsion
[ 10718 10713 10712 10709 ] final   -1.08 input   66.30 | X-H torsion
[ 10763 10752 10751 10750 ] final  100.67 input  -60.55 | X-H torsion
[ 11005 11000 10999 10996 ] final  100.49 input  -57.11 | X-H torsion

> <Gold.Protein.ActiveResidues>
 VAL166  LYS551  ARG553  GLY616  TRP617  ASP618  TYR619  PRO620  LYS621  CYS622 
 ASP623  PHE694  ASN695  SER759  ASP760  ASP761  ALA762  ILE779  LEU786  VAL792 
 PHE793  MET794  SER795  GLU796  ALA797  LYS798  CYS799  TRP800  GLU811  SER814 

> <Gold.Protein.RotatedAtoms>
  150.7365  134.5763  159.5915 H   0  0  0  0  0  0  0  0  0  0  0  0  # atno 6907 bound_to 6896
  152.3189  134.7402  160.0327 H   0  0  0  0  0  0  0  0  0  0  0  0  # atno 6908 bound_to 6896
  151.7925  133.3325  159.3540 H   0  0  0  0  0  0  0  0  0  0  0  0  # atno 6909 bound_to 6896
  145.3299  140.9439  143.2667 H   0  0  0  0  0  0  0  0  0  0  0  0  # atno 7974 bound_to 7965
  156.2521  140.2885  156.0757 H   0  0  0  0  0  0  0  0  0  0  0  0  # atno 8008 bound_to 7997
  155.1621  140.0400  157.2862 H   0  0  0  0  0  0  0  0  0  0  0  0  # atno 8009 bound_to 7997
  154.6385  140.2516  155.7356 H   0  0  0  0  0  0  0  0  0  0  0  0  # atno 8010 bound_to 7997
  139.6323  144.0416  152.2026 H   0  0  0  0  0  0  0  0  0  0  0  0  # atno 10167 bound_to 10162
  156.8109  130.5424  149.5709 H   0  0  0  0  0  0  0  0  0  0  0  0  # atno 10718 bound_to 10713
  153.3169  135.4071  155.1384 H   0  0  0  0  0  0  0  0  0  0  0  0  # atno 10763 bound_to 10752
  154.8590  135.3578  154.5648 H   0  0  0  0  0  0  0  0  0  0  0  0  # atno 10764 bound_to 10752
  153.6079  135.7069  153.5417 H   0  0  0  0  0  0  0  0  0  0  0  0  # atno 10765 bound_to 10752
  139.8771  134.9142  156.4764 H   0  0  0  0  0  0  0  0  0  0  0  0  # atno 11005 bound_to 11000
  144.8872  139.4823  143.6695 LP  0  0  0  0  0  0  0  0  0  0  0  0  # atno 17320 bound_to 7965
  146.3049  139.7548  142.9063 LP  0  0  0  0  0  0  0  0  0  0  0  0  # atno 17321 bound_to 7965
  140.0084  144.6242  150.7668 LP  0  0  0  0  0  0  0  0  0  0  0  0  # atno 17342 bound_to 10162
  140.7446  143.2863  151.3455 LP  0  0  0  0  0  0  0  0  0  0  0  0  # atno 17343 bound_to 10162
  156.1045  130.5994  150.9948 LP  0  0  0  0  0  0  0  0  0  0  0  0  # atno 17370 bound_to 10713
  157.6506  131.0897  150.8059 LP  0  0  0  0  0  0  0  0  0  0  0  0  # atno 17371 bound_to 10713
  140.8758  133.7954  155.9413 LP  0  0  0  0  0  0  0  0  0  0  0  0  # atno 17394 bound_to 11000
  140.8905  134.2501  157.5097 LP  0  0  0  0  0  0  0  0  0  0  0  0  # atno 17395 bound_to 11000

$$$$
