AV-unprocessed.smi:3006|AV-procd|sdf|11445|dock3
  -GOLD-   2272016373D 1   1.00000     0.00000
 Structure written by MMmdl.
 44 45  0  0  0  0  0  0  0  0  1 V2000
  152.4020  143.5112  161.7227 C   0  0  0  0  0  0  0  0  0  0  0  0
  152.0143  143.4017  160.2880 C   0  0  0  0  0  0  0  0  0  0  0  0
  151.7906  142.2369  159.6744 N   0  0  0  0  0  0  0  0  0  0  0  0
  151.4505  142.3944  158.3270 C   0  0  0  0  0  0  0  0  0  0  0  0
  151.1727  141.1907  157.4787 C   0  0  0  0  0  0  0  0  0  0  0  0
  150.7767  141.5718  156.0429 C   0  0  0  0  0  0  0  0  0  0  0  0
  149.3296  141.6782  155.8965 N   0  0  0  0  0  0  0  0  0  0  0  0
  148.6641  141.6562  154.7293 C   0  0  0  0  0  0  0  0  0  0  0  0
  149.2394  141.5171  153.6489 O   0  0  0  0  0  0  0  0  0  0  0  0
  147.3162  141.7439  154.8465 N   0  0  0  0  0  0  0  0  0  0  0  0
  146.5391  141.7262  156.0906 C   0  0  0  0  0  0  0  0  0  0  0  0
  146.0024  143.1454  156.3600 C   0  0  0  0  0  0  0  0  0  0  0  0
  145.1485  143.6161  155.2553 N   0  0  0  0  0  0  0  0  0  0  0  0
  144.6281  144.9739  155.5162 C   0  0  0  0  0  0  0  0  0  0  0  0
  143.6726  144.9941  156.7296 C   0  0  0  0  0  0  0  0  0  0  0  0
  143.8764  145.5500  154.2960 C   0  0  0  0  0  0  0  0  0  0  0  0
  145.9176  143.5596  154.0001 C   0  0  0  0  0  0  0  0  0  0  0  0
  146.4507  142.1389  153.7361 C   0  0  0  0  0  0  0  0  0  0  0  0
  151.4158  143.7075  157.9280 C   0  0  0  0  0  0  0  0  0  0  0  0
  151.8134  144.7938  159.2307 S   0  0  0  0  0  0  0  0  0  0  0  0
  151.7802  142.8558  162.3329 H   0  0  0  0  0  0  0  0  0  0  0  0
  152.2755  144.5360  162.0720 H   0  0  0  0  0  0  0  0  0  0  0  0
  153.4459  143.2240  161.8493 H   0  0  0  0  0  0  0  0  0  0  0  0
  152.0506  140.5439  157.4547 H   0  0  0  0  0  0  0  0  0  0  0  0
  150.3776  140.5974  157.9320 H   0  0  0  0  0  0  0  0  0  0  0  0
  151.2546  142.5086  155.7507 H   0  0  0  0  0  0  0  0  0  0  0  0
  151.1309  140.8130  155.3445 H   0  0  0  0  0  0  0  0  0  0  0  0
  148.7912  141.7746  156.7452 H   0  0  0  0  0  0  0  0  0  0  0  0
  145.7103  141.0236  155.9901 H   0  0  0  0  0  0  0  0  0  0  0  0
  147.1054  141.3861  156.9574 H   0  0  0  0  0  0  0  0  0  0  0  0
  145.4402  143.1045  157.2909 H   0  0  0  0  0  0  0  0  0  0  0  0
  146.8309  143.8390  156.5134 H   0  0  0  0  0  0  0  0  0  0  0  0
  145.4697  145.6329  155.7352 H   0  0  0  0  0  0  0  0  0  0  0  0
  143.1822  145.9632  156.8252 H   0  0  0  0  0  0  0  0  0  0  0  0
  144.1917  144.8298  157.6731 H   0  0  0  0  0  0  0  0  0  0  0  0
  142.8900  144.2407  156.6331 H   0  0  0  0  0  0  0  0  0  0  0  0
  143.3719  146.4823  154.5517 H   0  0  0  0  0  0  0  0  0  0  0  0
  143.1172  144.8576  153.9306 H   0  0  0  0  0  0  0  0  0  0  0  0
  144.5463  145.7916  153.4713 H   0  0  0  0  0  0  0  0  0  0  0  0
  145.2906  143.8294  153.1521 H   0  0  0  0  0  0  0  0  0  0  0  0
  146.7429  144.2727  154.0335 H   0  0  0  0  0  0  0  0  0  0  0  0
  146.9655  142.1095  152.7747 H   0  0  0  0  0  0  0  0  0  0  0  0
  145.6225  141.4336  153.6489 H   0  0  0  0  0  0  0  0  0  0  0  0
  151.1834  144.1000  156.9490 H   0  0  0  0  0  0  0  0  0  0  0  0
  1  2  1  0  0  0  0
  1 21  1  0  0  0  0
  1 22  1  0  0  0  0
  1 23  1  0  0  0  0
  2 20  1  0  0  0  0
  2  3  2  0  0  0  0
  3  4  1  0  0  0  0
  4  5  1  0  0  0  0
  4 19  2  0  0  0  0
  5  6  1  0  0  0  0
  5 24  1  0  0  0  0
  5 25  1  0  0  0  0
  6  7  1  0  0  0  0
  6 26  1  0  0  0  0
  6 27  1  0  0  0  0
  7  8  1  0  0  0  0
  7 28  1  0  0  0  0
  8  9  2  0  0  0  0
  8 10  1  0  0  0  0
 10 18  1  0  0  0  0
 10 11  1  0  0  0  0
 11 12  1  0  0  0  0
 11 29  1  0  0  0  0
 11 30  1  0  0  0  0
 12 13  1  0  0  0  0
 12 31  1  0  0  0  0
 12 32  1  0  0  0  0
 13 14  1  0  0  0  0
 13 17  1  0  0  0  0
 14 15  1  0  0  0  0
 14 16  1  0  0  0  0
 14 33  1  0  0  0  0
 15 34  1  0  0  0  0
 15 35  1  0  0  0  0
 15 36  1  0  0  0  0
 16 37  1  0  0  0  0
 16 38  1  0  0  0  0
 16 39  1  0  0  0  0
 17 18  1  0  0  0  0
 17 40  1  0  0  0  0
 17 41  1  0  0  0  0
 18 42  1  0  0  0  0
 18 43  1  0  0  0  0
 19 20  1  0  0  0  0
 19 44  1  0  0  0  0
M  END
> <s_m_source_file>
AV-unprocessed.smi

> <i_m_source_file_index>
3006

> <i_lp_mmshare_version>
43012

> <i_f3d_flags>
0

> <s_epik_input>
W0NIM11jMW5jKFtjSF1zMSlbQ0gyXVtDSDJdW05IXUMoPU8pTjJbQ0gyXVtDSDJdTihbQ0hdKFtDSDNdKVtDSDNdKVtDSDJdW0NIMl0y

> <s_epik_cmdline>
J2VwaWtfcHl0aG9uJywgJy1waCcsICc3LjAnLCAnLXRuJywgJzgnLCAnLW1hJywgJzIwMCcsICctbWV0YWxfYmluZGluZycsICctaW1hZScsICc8aW5maWxlLm1hZT4nLCAnLW9tYWUnLCAnPG91dGZpbGUubWFlPic=

> <r_epik_Ionization_Penalty>
0.875753

> <r_epik_Ionization_Penalty_Charging>
0

> <r_epik_Ionization_Penalty_Neutral>
0.875753

> <r_epik_State_Penalty>
0.930306

> <r_epik_Charging_Adjusted_Penalty>
0.930306

> <i_epik_Tot_Q>
0

> <i_epik_Tot_abs_Q>
0

> <r_epik_Metal_State_Penalty>
0.928801

> <b_epik_Metal_Only>
0

> <s_lp_Force_Field>
OPLS_2005

> <r_lp_Energy>
38.048

> <b_lp_Chiralities_Consistent>
1

> <s_lp_Variant>
AV-unprocessed.smi:3006-2

> <Gold.Version>
5.8.1

> <Gold.Id.Protein>
6NUR|6NUR_protein|mol2

> <Gold.PLP.Fitness>
47.2867

> <Gold.PLP.PLP>
-42.8622

> <Gold.PLP.part.hbond>
-2.9735

> <Gold.PLP.part.metal>
0.0000

> <Gold.PLP.part.buried>
-6.8638

> <Gold.PLP.part.nonpolar>
-34.6269

> <Gold.PLP.part.repulsive>
1.7435

> <Gold.PLP.ligand.clash>
0.0000

> <Gold.PLP.ligand.torsion>
0.4995

> <Gold.PLP.Chemscore.Hbond>
0.7840

> <Gold.PLP.Chemscore.CHOScore>
0.9984

> <Gold.PLP.Chemscore.Metal>
0.0000

> <Gold.Chemscore.Hbonds>
donor molecule, donor type, donor heavy atom, donor atom, acceptor molecule, acceptor atom, score
      P1  H  8011  8017       L1     9  0.78
      L1  C    19    44       P1  8028  0.63

> <Gold.PLP.Chemscore.Internal.Correction>
0.0762

> <Gold.Rescore>
     Score         DG    S(hbond)    S(metal)    S(lipo)     H(rot)  DE(clash)    DE(int)     intcor
     16.91     -17.58       0.97        0.00     106.17       1.39       0.11       0.57       ----

> <Gold.Chemscore.Fitness>
16.9095

> <Gold.Chemscore.DG>
-17.5809

> <Gold.Chemscore.ZeroCoef>
-5.4800

> <Gold.Chemscore.Hbond>
0.9662

> <Gold.Chemscore.Metal>
0.0000

> <Gold.Chemscore.Lipo>
106.1722

> <Gold.Chemscore.Internal_Hbond>
0.0000

> <Gold.Chemscore.DEClash>
0.1054

> <Gold.Chemscore.DEInternal>
0.5659

> <Gold.Chemscore.Rot>
1.3861

> <Gold.Chemscore.Internal.Correction>
   9.000000E+99

> <Gold.Chemscore.Hbonds>
donor molecule, donor type, donor heavy atom, donor atom, acceptor molecule, acceptor atom, score
      P1  H  7989  7998       L1     9  0.01
      P1  H  8011  8017       L1     9  0.78

> <Gold.Chemscore.Hbond.Weighted>
-3.2272

> <Gold.Chemscore.Metal.Weighted>
-0.0000

> <Gold.Chemscore.Lipo.Weighted>
-12.4222

> <Gold.Chemscore.Internal_Hbond.Weighted>
0.0000

> <Gold.Chemscore.DEClash.Weighted>
0.1054

> <Gold.Chemscore.DEInternal.Weighted>
0.5659

> <Gold.Chemscore.Rot.Weighted>
3.5484

> <Gold.Chemscore.Internal.Correction.Weighted>
   9.000000E+99

> <Gold.Protein.RotatedTorsions>
[ 6907 6896 6895 6894 ] final  -73.42 input  -60.11 | X-H torsion
[ 7974 7965 7964 7962 ] final   97.49 input  175.53 | X-H torsion
[ 8008 7997 7996 7995 ] final  115.11 input   59.86 | X-H torsion
[ 10167 10162 10161 10158 ] final   38.16 input  -65.29 | X-H torsion
[ 10718 10713 10712 10709 ] final  -52.62 input   66.30 | X-H torsion
[ 10763 10752 10751 10750 ] final   31.66 input  -60.55 | X-H torsion
[ 11005 11000 10999 10996 ] final -165.46 input  -57.11 | X-H torsion

> <Gold.Protein.ActiveResidues>
 VAL166  LYS551  ARG553  GLY616  TRP617  ASP618  TYR619  PRO620  LYS621  CYS622 
 ASP623  PHE694  ASN695  SER759  ASP760  ASP761  ALA762  ILE779  LEU786  VAL792 
 PHE793  MET794  SER795  GLU796  ALA797  LYS798  CYS799  TRP800  GLU811  SER814 

> <Gold.Protein.RotatedAtoms>
  150.7131  134.5019  159.5565 H   0  0  0  0  0  0  0  0  0  0  0  0  # atno 6907 bound_to 6896
  152.2614  134.8026  160.0439 H   0  0  0  0  0  0  0  0  0  0  0  0  # atno 6908 bound_to 6896
  151.8739  133.3446  159.3780 H   0  0  0  0  0  0  0  0  0  0  0  0  # atno 6909 bound_to 6896
  145.4248  139.2317  143.3176 H   0  0  0  0  0  0  0  0  0  0  0  0  # atno 7974 bound_to 7965
  156.2362  140.2945  156.0319 H   0  0  0  0  0  0  0  0  0  0  0  0  # atno 8008 bound_to 7997
  155.2085  140.0412  157.2946 H   0  0  0  0  0  0  0  0  0  0  0  0  # atno 8009 bound_to 7997
  154.6083  140.2445  155.7709 H   0  0  0  0  0  0  0  0  0  0  0  0  # atno 8010 bound_to 7997
  140.3963  144.1784  150.6132 H   0  0  0  0  0  0  0  0  0  0  0  0  # atno 10167 bound_to 10162
  156.1605  130.4150  149.9800 H   0  0  0  0  0  0  0  0  0  0  0  0  # atno 10718 bound_to 10713
  153.0303  135.6433  154.1234 H   0  0  0  0  0  0  0  0  0  0  0  0  # atno 10763 bound_to 10752
  154.0957  135.2863  155.3264 H   0  0  0  0  0  0  0  0  0  0  0  0  # atno 10764 bound_to 10752
  154.6433  135.5452  153.7879 H   0  0  0  0  0  0  0  0  0  0  0  0  # atno 10765 bound_to 10752
  140.5755  134.5195  157.5169 H   0  0  0  0  0  0  0  0  0  0  0  0  # atno 11005 bound_to 11000
  146.2638  140.4978  142.8842 LP  0  0  0  0  0  0  0  0  0  0  0  0  # atno 17320 bound_to 7965
  144.8221  140.6567  143.6346 LP  0  0  0  0  0  0  0  0  0  0  0  0  # atno 17321 bound_to 7965
  140.4787  143.2387  151.8987 LP  0  0  0  0  0  0  0  0  0  0  0  0  # atno 17342 bound_to 10162
  139.4786  144.5293  151.8690 LP  0  0  0  0  0  0  0  0  0  0  0  0  # atno 17343 bound_to 10162
  156.7631  130.9158  151.3642 LP  0  0  0  0  0  0  0  0  0  0  0  0  # atno 17370 bound_to 10713
  157.6729  130.9067  150.0082 LP  0  0  0  0  0  0  0  0  0  0  0  0  # atno 17371 bound_to 10713
  139.9342  134.7907  156.0848 LP  0  0  0  0  0  0  0  0  0  0  0  0  # atno 17394 bound_to 11000
  141.1029  133.6670  156.2797 LP  0  0  0  0  0  0  0  0  0  0  0  0  # atno 17395 bound_to 11000

$$$$
