AV-unprocessed.smi:1966|AV-procd|sdf|7948|dock1
  -GOLD-   2272010113D 1   1.00000     0.00000
 Structure written by MMmdl.
 53 54  0  0  0  0  0  0  0  0  1 V2000
  144.9930  136.4551  152.1852 C   0  0  0  0  0  0  0  0  0  0  0  0
  145.5222  135.6441  153.3627 C   0  0  0  0  0  0  0  0  0  0  0  0
  144.7399  135.1290  154.1611 O   0  0  0  0  0  0  0  0  0  0  0  0
  146.8569  135.5387  153.4577 N   0  0  0  0  0  0  0  0  0  0  0  0
  147.5805  134.8234  154.5114 C   0  0  2  0  0  0  0  0  0  0  0  0
  148.2364  135.8547  155.4507 C   0  0  0  0  0  0  0  0  0  0  0  0
  148.1251  135.7332  156.6716 O   0  0  0  0  0  0  0  0  0  0  0  0
  148.9086  136.8494  154.8427 N   0  0  0  0  0  0  0  0  0  0  0  0
  149.5884  137.9469  155.4354 C   0  0  0  0  0  0  0  0  0  0  0  0
  150.0918  139.0537  154.7139 C   0  0  0  0  0  0  0  0  0  0  0  0
  150.7662  140.0734  155.4125 C   0  0  0  0  0  0  0  0  0  0  0  0
  150.9308  139.9623  156.8135 C   0  0  0  0  0  0  0  0  0  0  0  0
  151.5945  140.9787  157.5344 N   0  0  0  0  0  0  0  0  0  0  0  0
  152.0516  140.6201  158.8741 C   0  0  0  0  0  0  0  0  0  0  0  0
  153.0400  141.6767  159.4034 C   0  0  2  0  0  0  0  0  0  0  0  0
  153.4538  141.4043  160.8535 C   0  0  0  0  0  0  0  0  0  0  0  0
  152.4278  142.9625  159.3471 O   0  0  0  0  0  0  0  0  0  0  0  0
  152.0865  143.3453  158.0175 C   0  0  2  0  0  0  0  0  0  0  0  0
  151.5270  144.7712  158.0543 C   0  0  0  0  0  0  0  0  0  0  0  0
  151.0693  142.3393  157.4474 C   0  0  0  0  0  0  0  0  0  0  0  0
  150.4567  138.8932  157.4993 N   0  0  0  0  0  0  0  0  0  0  0  0
  149.8136  137.9167  156.8258 C   0  0  0  0  0  0  0  0  0  0  0  0
  148.6752  133.9321  153.8529 C   0  0  0  0  0  0  0  0  0  0  0  0
  148.0655  132.8868  152.8982 C   0  0  0  0  0  0  0  0  0  0  0  0
  149.5699  133.2112  154.8832 C   0  0  0  0  0  0  0  0  0  0  0  0
  145.3533  137.4830  152.2391 H   0  0  0  0  0  0  0  0  0  0  0  0
  143.9027  136.4745  152.1858 H   0  0  0  0  0  0  0  0  0  0  0  0
  145.3270  136.0202  151.2428 H   0  0  0  0  0  0  0  0  0  0  0  0
  147.4187  136.0031  152.7590 H   0  0  0  0  0  0  0  0  0  0  0  0
  146.8873  134.1923  155.0721 H   0  0  0  0  0  0  0  0  0  0  0  0
  148.9972  136.7739  153.8396 H   0  0  0  0  0  0  0  0  0  0  0  0
  149.9846  139.1360  153.6434 H   0  0  0  0  0  0  0  0  0  0  0  0
  151.1347  140.9306  154.8692 H   0  0  0  0  0  0  0  0  0  0  0  0
  151.1841  140.5543  159.5322 H   0  0  0  0  0  0  0  0  0  0  0  0
  152.5331  139.6434  158.8875 H   0  0  0  0  0  0  0  0  0  0  0  0
  153.9378  141.6806  158.7826 H   0  0  0  0  0  0  0  0  0  0  0  0
  153.9392  140.4324  160.9469 H   0  0  0  0  0  0  0  0  0  0  0  0
  152.5903  141.4129  161.5192 H   0  0  0  0  0  0  0  0  0  0  0  0
  154.1546  142.1609  161.2069 H   0  0  0  0  0  0  0  0  0  0  0  0
  152.9883  143.3438  157.4023 H   0  0  0  0  0  0  0  0  0  0  0  0
  151.2624  145.1147  157.0540 H   0  0  0  0  0  0  0  0  0  0  0  0
  152.2611  145.4670  158.4611 H   0  0  0  0  0  0  0  0  0  0  0  0
  150.6331  144.8286  158.6761 H   0  0  0  0  0  0  0  0  0  0  0  0
  150.8543  142.5931  156.4084 H   0  0  0  0  0  0  0  0  0  0  0  0
  150.1300  142.3976  157.9995 H   0  0  0  0  0  0  0  0  0  0  0  0
  149.4611  137.0868  157.4208 H   0  0  0  0  0  0  0  0  0  0  0  0
  149.3259  134.5701  153.2521 H   0  0  0  0  0  0  0  0  0  0  0  0
  147.3710  132.2308  153.4241 H   0  0  0  0  0  0  0  0  0  0  0  0
  148.8400  132.2605  152.4545 H   0  0  0  0  0  0  0  0  0  0  0  0
  147.5245  133.3515  152.0738 H   0  0  0  0  0  0  0  0  0  0  0  0
  148.9760  132.5928  155.5567 H   0  0  0  0  0  0  0  0  0  0  0  0
  150.1445  133.9101  155.4911 H   0  0  0  0  0  0  0  0  0  0  0  0
  150.2917  132.5612  154.3880 H   0  0  0  0  0  0  0  0  0  0  0  0
  1  2  1  0  0  0  0
  1 26  1  0  0  0  0
  1 27  1  0  0  0  0
  1 28  1  0  0  0  0
  2  3  2  0  0  0  0
  2  4  1  0  0  0  0
  4  5  1  0  0  0  0
  4 29  1  0  0  0  0
  5  6  1  0  0  0  0
  5 23  1  0  0  0  0
  5 30  1  0  0  0  0
  6  7  2  0  0  0  0
  6  8  1  0  0  0  0
  8  9  1  0  0  0  0
  8 31  1  0  0  0  0
  9 22  1  0  0  0  0
  9 10  2  0  0  0  0
 10 11  1  0  0  0  0
 10 32  1  0  0  0  0
 11 12  2  0  0  0  0
 11 33  1  0  0  0  0
 12 13  1  0  0  0  0
 12 21  1  0  0  0  0
 13 20  1  0  0  0  0
 13 14  1  0  0  0  0
 14 15  1  0  0  0  0
 14 34  1  0  0  0  0
 14 35  1  0  0  0  0
 15 16  1  0  0  0  0
 15 17  1  0  0  0  0
 15 36  1  0  0  0  0
 16 37  1  0  0  0  0
 16 38  1  0  0  0  0
 16 39  1  0  0  0  0
 17 18  1  0  0  0  0
 18 19  1  0  0  0  0
 18 20  1  0  0  0  0
 18 40  1  0  0  0  0
 19 41  1  0  0  0  0
 19 42  1  0  0  0  0
 19 43  1  0  0  0  0
 20 44  1  0  0  0  0
 20 45  1  0  0  0  0
 21 22  2  0  0  0  0
 22 46  1  0  0  0  0
 23 24  1  0  0  0  0
 23 25  1  0  0  0  0
 23 47  1  0  0  0  0
 24 48  1  0  0  0  0
 24 49  1  0  0  0  0
 24 50  1  0  0  0  0
 25 51  1  0  0  0  0
 25 52  1  0  0  0  0
 25 53  1  0  0  0  0
M  END
> <s_m_source_file>
AV-unprocessed.smi

> <i_m_source_file_index>
1966

> <i_lp_mmshare_version>
43012

> <i_f3d_flags>
0

> <s_epik_input>
W0NIM11DKD1PKVtOSF1bQ0BASF0oW0NIXShbQ0gzXSlbQ0gzXSlDKD1PKVtOSF1jMVtjSF1bY0hdYyhuW2NIXTEpTjJbQ0gyXVtDQEBIXShbQ0gzXSlPW0NAQEhdKFtDSDNdKVtDSDJdMg==

> <s_epik_cmdline>
J2VwaWtfcHl0aG9uJywgJy1waCcsICc3LjAnLCAnLXRuJywgJzgnLCAnLW1hJywgJzIwMCcsICctbWV0YWxfYmluZGluZycsICctaW1hZScsICc8aW5maWxlLm1hZT4nLCAnLW9tYWUnLCAnPG91dGZpbGUubWFlPic=

> <r_lp_tautomer_probability>
1

> <r_epik_Ionization_Penalty>
0.000679699

> <r_epik_Ionization_Penalty_Charging>
0

> <r_epik_Ionization_Penalty_Neutral>
0.000679699

> <r_epik_State_Penalty>
0.000430485

> <r_epik_Charging_Adjusted_Penalty>
0.000430485

> <i_epik_Tot_Q>
0

> <i_epik_Tot_abs_Q>
0

> <r_epik_Metal_State_Penalty>
-0

> <b_epik_Metal_Only>
0

> <s_lp_Force_Field>
OPLS_2005

> <r_lp_Energy>
25.1321

> <b_lp_Chiralities_Consistent>
1

> <s_lp_Variant>
AV-unprocessed.smi:1966-1

> <Gold.Version>
5.8.1

> <Gold.Id.Protein>
6NUR|6NUR_protein|mol2

> <Gold.PLP.Fitness>
44.1791

> <Gold.PLP.PLP>
-39.1663

> <Gold.PLP.part.hbond>
-1.9380

> <Gold.PLP.part.metal>
0.0000

> <Gold.PLP.part.buried>
-4.1293

> <Gold.PLP.part.nonpolar>
-32.7391

> <Gold.PLP.part.repulsive>
0.0792

> <Gold.PLP.ligand.clash>
0.0000

> <Gold.PLP.ligand.torsion>
0.6848

> <Gold.PLP.Chemscore.Hbond>
1.9913

> <Gold.PLP.Chemscore.CHOScore>
0.0000

> <Gold.PLP.Chemscore.Metal>
0.0000

> <Gold.Chemscore.Hbonds>
donor molecule, donor type, donor heavy atom, donor atom, acceptor molecule, acceptor atom, score
      L1  H     4    29       P1  7948  1.00
      L1  H     8    31       P1  7948  0.99

> <Gold.PLP.Chemscore.Internal.Correction>
0.4086

> <Gold.Rescore>
     Score         DG    S(hbond)    S(metal)    S(lipo)     H(rot)  DE(clash)    DE(int)     intcor
     17.47     -20.03       1.95        0.00     105.49       1.68       0.03       2.53       ----

> <Gold.Chemscore.Fitness>
17.4691

> <Gold.Chemscore.DG>
-20.0330

> <Gold.Chemscore.ZeroCoef>
-5.4800

> <Gold.Chemscore.Hbond>
1.9465

> <Gold.Chemscore.Metal>
0.0000

> <Gold.Chemscore.Lipo>
105.4851

> <Gold.Chemscore.Internal_Hbond>
0.0000

> <Gold.Chemscore.DEClash>
0.0321

> <Gold.Chemscore.DEInternal>
2.5317

> <Gold.Chemscore.Rot>
1.6759

> <Gold.Chemscore.Internal.Correction>
   9.000000E+99

> <Gold.Chemscore.Hbonds>
donor molecule, donor type, donor heavy atom, donor atom, acceptor molecule, acceptor atom, score
      L1  H     4    29       P1  7948  0.96
      L1  H     8    31       P1  7948  0.92

> <Gold.Chemscore.Hbond.Weighted>
-6.5014

> <Gold.Chemscore.Metal.Weighted>
-0.0000

> <Gold.Chemscore.Lipo.Weighted>
-12.3418

> <Gold.Chemscore.Internal_Hbond.Weighted>
0.0000

> <Gold.Chemscore.DEClash.Weighted>
0.0321

> <Gold.Chemscore.DEInternal.Weighted>
2.5317

> <Gold.Chemscore.Rot.Weighted>
4.2902

> <Gold.Chemscore.Internal.Correction.Weighted>
   9.000000E+99

> <Gold.Protein.RotatedTorsions>
[ 6907 6896 6895 6894 ] final  167.43 input  -60.11 | X-H torsion
[ 7974 7965 7964 7962 ] final -132.63 input  175.53 | X-H torsion
[ 8008 7997 7996 7995 ] final   88.98 input   59.86 | X-H torsion
[ 10167 10162 10161 10158 ] final  149.37 input  -65.29 | X-H torsion
[ 10718 10713 10712 10709 ] final -170.62 input   66.30 | X-H torsion
[ 10763 10752 10751 10750 ] final  -76.80 input  -60.55 | X-H torsion
[ 11005 11000 10999 10996 ] final   -9.42 input  -57.11 | X-H torsion

> <Gold.Protein.ActiveResidues>
 VAL166  LYS551  ARG553  GLY616  TRP617  ASP618  TYR619  PRO620  LYS621  CYS622 
 ASP623  PHE694  ASN695  SER759  ASP760  ASP761  ALA762  ILE779  LEU786  VAL792 
 PHE793  MET794  SER795  GLU796  ALA797  LYS798  CYS799  TRP800  GLU811  SER814 

> <Gold.Protein.RotatedAtoms>
  151.8634  133.3461  159.3710 H   0  0  0  0  0  0  0  0  0  0  0  0  # atno 6907 bound_to 6896
  150.7172  134.5184  159.5651 H   0  0  0  0  0  0  0  0  0  0  0  0  # atno 6908 bound_to 6896
  152.2702  134.7942  160.0466 H   0  0  0  0  0  0  0  0  0  0  0  0  # atno 6909 bound_to 6896
  144.9267  140.7080  143.4931 H   0  0  0  0  0  0  0  0  0  0  0  0  # atno 7974 bound_to 7965
  155.9944  140.3365  155.6784 H   0  0  0  0  0  0  0  0  0  0  0  0  # atno 8008 bound_to 7997
  155.6376  140.0692  157.2647 H   0  0  0  0  0  0  0  0  0  0  0  0  # atno 8009 bound_to 7997
  154.4229  140.1748  156.1526 H   0  0  0  0  0  0  0  0  0  0  0  0  # atno 8010 bound_to 7997
  139.4862  144.5607  151.7236 H   0  0  0  0  0  0  0  0  0  0  0  0  # atno 10167 bound_to 10162
  156.7289  130.9298  151.3103 H   0  0  0  0  0  0  0  0  0  0  0  0  # atno 10718 bound_to 10713
  154.5046  135.5785  153.6557 H   0  0  0  0  0  0  0  0  0  0  0  0  # atno 10763 bound_to 10752
  152.9885  135.6144  154.2958 H   0  0  0  0  0  0  0  0  0  0  0  0  # atno 10764 bound_to 10752
  154.2868  135.2849  155.2652 H   0  0  0  0  0  0  0  0  0  0  0  0  # atno 10765 bound_to 10752
  140.7340  133.8725  155.8915 H   0  0  0  0  0  0  0  0  0  0  0  0  # atno 11005 bound_to 11000
  145.3207  139.1789  143.4589 LP  0  0  0  0  0  0  0  0  0  0  0  0  # atno 17320 bound_to 7965
  146.3229  140.3224  142.8634 LP  0  0  0  0  0  0  0  0  0  0  0  0  # atno 17321 bound_to 7965
  140.5176  144.0928  150.6013 LP  0  0  0  0  0  0  0  0  0  0  0  0  # atno 17342 bound_to 10162
  140.3875  143.2769  152.0098 LP  0  0  0  0  0  0  0  0  0  0  0  0  # atno 17343 bound_to 10162
  157.6867  130.9192  150.0405 LP  0  0  0  0  0  0  0  0  0  0  0  0  # atno 17370 bound_to 10713
  156.1543  130.3643  149.9392 LP  0  0  0  0  0  0  0  0  0  0  0  0  # atno 17371 bound_to 10713
  140.9896  134.1296  157.4420 LP  0  0  0  0  0  0  0  0  0  0  0  0  # atno 17394 bound_to 11000
  139.8820  135.0036  156.6198 LP  0  0  0  0  0  0  0  0  0  0  0  0  # atno 17395 bound_to 11000

$$$$
