AV-unprocessed.smi:1803|AV-procd|sdf|7293|dock7
  -GOLD-   22720 8553D 1   1.00000     0.00000
 Structure written by MMmdl.
 35 37  0  0  0  0  0  0  0  0  3 V2000
  148.2629  135.9135  157.6608 O   0  0  0  0  0  0  0  0  0  0  0  0
  149.2883  136.2748  158.2367 C   0  0  0  0  0  0  0  0  0  0  0  0
  149.4223  136.2830  159.5882 N   0  5  0  0  0  0  0  0  0  0  0  0
  148.3917  136.0467  160.4212 C   0  0  0  0  0  0  0  0  0  0  0  0
  147.7235  137.0344  161.0387 N   0  0  0  0  0  0  0  0  0  0  0  0
  146.7026  136.5731  161.8582 N   0  0  0  0  0  0  0  0  0  0  0  0
  146.6174  135.2435  161.8268 C   0  0  0  0  0  0  0  0  0  0  0  0
  147.7826  134.4341  160.8004 S   0  0  0  0  0  0  0  0  0  0  0  0
  150.3329  136.6972  157.4987 N   0  0  0  0  0  0  0  0  0  0  0  0
  150.3542  136.8191  156.0448 C   0  0  2  0  0  0  0  0  0  0  0  0
  151.6048  137.5081  155.5150 C   0  0  0  0  0  0  0  0  0  0  0  0
  151.1852  137.9482  154.1085 C   0  0  0  0  0  0  0  0  0  0  0  0
  149.7110  138.1161  154.1319 N   0  3  2  0  0  0  0  0  0  0  0  0
  149.2466  139.4580  153.6884 C   0  0  0  0  0  0  0  0  0  0  0  0
  147.7931  139.7068  154.1182 C   0  0  0  0  0  0  0  0  0  0  0  0
  147.6506  139.6939  155.6519 C   0  0  0  0  0  0  0  0  0  0  0  0
  148.7560  138.8696  156.3393 C   0  0  0  0  0  0  0  0  0  0  0  0
  149.2124  137.6746  155.4651 C   0  0  2  0  0  0  0  0  0  0  0  0
  145.8648  134.7363  162.4119 H   0  0  0  0  0  0  0  0  0  0  0  0
  151.1639  136.9869  157.9937 H   0  0  0  0  0  0  0  0  0  0  0  0
  150.3117  135.8221  155.6011 H   0  0  0  0  0  0  0  0  0  0  0  0
  151.8408  138.3838  156.1217 H   0  0  0  0  0  0  0  0  0  0  0  0
  152.4795  136.8569  155.5105 H   0  0  0  0  0  0  0  0  0  0  0  0
  151.7165  138.8480  153.7955 H   0  0  0  0  0  0  0  0  0  0  0  0
  151.4203  137.1656  153.3865 H   0  0  0  0  0  0  0  0  0  0  0  0
  149.8822  140.2366  154.1140 H   0  0  0  0  0  0  0  0  0  0  0  0
  149.3450  139.5270  152.6047 H   0  0  0  0  0  0  0  0  0  0  0  0
  147.4319  140.6545  153.7179 H   0  0  0  0  0  0  0  0  0  0  0  0
  147.1580  138.9318  153.6866 H   0  0  0  0  0  0  0  0  0  0  0  0
  147.6777  140.7129  156.0400 H   0  0  0  0  0  0  0  0  0  0  0  0
  146.6696  139.2961  155.9142 H   0  0  0  0  0  0  0  0  0  0  0  0
  149.6124  139.5134  156.5444 H   0  0  0  0  0  0  0  0  0  0  0  0
  148.3929  138.5335  157.3110 H   0  0  0  0  0  0  0  0  0  0  0  0
  148.3427  137.0355  155.3047 H   0  0  0  0  0  0  0  0  0  0  0  0
  149.3411  137.4485  153.4705 H   0  0  0  0  0  0  0  0  0  0  0  0
  1  2  2  0  0  0  0
  2  3  1  0  0  0  0
  2  9  1  0  0  0  0
  3  4  1  0  0  0  0
  4  8  1  0  0  0  0
  4  5  2  0  0  0  0
  5  6  1  0  0  0  0
  6  7  2  0  0  0  0
  7  8  1  0  0  0  0
  7 19  1  0  0  0  0
  9 10  1  0  0  0  0
  9 20  1  0  0  0  0
 10 18  1  0  0  0  0
 10 11  1  0  0  0  0
 10 21  1  0  0  0  0
 11 12  1  0  0  0  0
 11 22  1  0  0  0  0
 11 23  1  0  0  0  0
 12 13  1  0  0  0  0
 12 24  1  0  0  0  0
 12 25  1  0  0  0  0
 13 18  1  0  0  0  0
 13 14  1  0  0  0  0
 13 35  1  0  0  0  0
 14 15  1  0  0  0  0
 14 26  1  0  0  0  0
 14 27  1  0  0  0  0
 15 16  1  0  0  0  0
 15 28  1  0  0  0  0
 15 29  1  0  0  0  0
 16 17  1  0  0  0  0
 16 30  1  0  0  0  0
 16 31  1  0  0  0  0
 17 18  1  0  0  0  0
 17 32  1  0  0  0  0
 17 33  1  0  0  0  0
 18 34  1  0  0  0  0
M  CHG  1   3  -1
M  CHG  1  13   1
M  END
> <s_m_source_file>
AV-unprocessed.smi

> <i_m_source_file_index>
1803

> <i_lp_mmshare_version>
43012

> <i_f3d_flags>
0

> <s_epik_input>
czFbY0hdbm5jMVtOSF1DKD1PKVtOSF1bQ0BIXShbQ0gyXVtDSDJdMilbQ0BASF0oTjIzKVtDSDJdW0NIMl1bQ0gyXVtDSDJdMw==

> <s_epik_cmdline>
J2VwaWtfcHl0aG9uJywgJy1waCcsICc3LjAnLCAnLXRuJywgJzgnLCAnLW1hJywgJzIwMCcsICctbWV0YWxfYmluZGluZycsICctaW1hZScsICc8aW5maWxlLm1hZT4nLCAnLW9tYWUnLCAnPG91dGZpbGUubWFlPic=

> <r_lp_tautomer_probability>
1

> <r_epik_Ionization_Penalty>
3.78828

> <r_epik_Ionization_Penalty_Charging>
3.7591

> <r_epik_Ionization_Penalty_Neutral>
0.0291838

> <r_epik_State_Penalty>
3.757

> <r_epik_Charging_Adjusted_Penalty>
7.51609

> <i_epik_Tot_Q>
0

> <i_epik_Tot_abs_Q>
2

> <r_epik_Metal_State_Penalty>
0.558016

> <b_epik_Metal_Only>
1

> <s_lp_Force_Field>
OPLS_2005

> <r_lp_Energy>
34.1757

> <b_lp_Chiralities_Consistent>
1

> <s_lp_Variant>
AV-unprocessed.smi:1803-15

> <Gold.Version>
5.8.1

> <Gold.Id.Protein>
6NUR|6NUR_protein|mol2

> <Gold.PLP.Fitness>
35.6621

> <Gold.PLP.PLP>
-19.8027

> <Gold.PLP.part.hbond>
-4.0000

> <Gold.PLP.part.metal>
0.0000

> <Gold.PLP.part.buried>
-0.6840

> <Gold.PLP.part.nonpolar>
-15.9087

> <Gold.PLP.part.repulsive>
0.1020

> <Gold.PLP.ligand.clash>
0.0000

> <Gold.PLP.ligand.torsion>
0.7915

> <Gold.PLP.Chemscore.Hbond>
5.8112

> <Gold.PLP.Chemscore.CHOScore>
0.0000

> <Gold.PLP.Chemscore.Metal>
0.0000

> <Gold.Chemscore.Hbonds>
donor molecule, donor type, donor heavy atom, donor atom, acceptor molecule, acceptor atom, score
      L1  H    13    35       P1  7948  2.00
      P1  H  6896  6909       L1     3  2.00
      P1  H  6931  6943       L1     5  0.98
      P1  H  6934  6947       L1     5  0.79

> <Gold.PLP.Chemscore.Internal.Correction>
0.0089

> <Gold.Rescore>
     Score         DG    S(hbond)    S(metal)    S(lipo)     H(rot)  DE(clash)    DE(int)     intcor
     13.35     -16.69       2.38        0.00      49.64       1.00       1.42       1.92       ----

> <Gold.Chemscore.Fitness>
13.3535

> <Gold.Chemscore.DG>
-16.6894

> <Gold.Chemscore.ZeroCoef>
-5.4800

> <Gold.Chemscore.Hbond>
2.3838

> <Gold.Chemscore.Metal>
0.0000

> <Gold.Chemscore.Lipo>
49.6363

> <Gold.Chemscore.Internal_Hbond>
0.0000

> <Gold.Chemscore.DEClash>
1.4194

> <Gold.Chemscore.DEInternal>
1.9164

> <Gold.Chemscore.Rot>
1.0000

> <Gold.Chemscore.Internal.Correction>
   9.000000E+99

> <Gold.Chemscore.Hbonds>
donor molecule, donor type, donor heavy atom, donor atom, acceptor molecule, acceptor atom, score
      L1  H    13    35       P1  7948  0.91
      P1  H  6896  6909       L1     3  0.21
      P1  H  6931  6943       L1     5  0.59
      P1  H  6934  6947       L1     5  0.17

> <Gold.Chemscore.Hbond.Weighted>
-7.9619

> <Gold.Chemscore.Metal.Weighted>
-0.0000

> <Gold.Chemscore.Lipo.Weighted>
-5.8075

> <Gold.Chemscore.Internal_Hbond.Weighted>
0.0000

> <Gold.Chemscore.DEClash.Weighted>
1.4194

> <Gold.Chemscore.DEInternal.Weighted>
1.9164

> <Gold.Chemscore.Rot.Weighted>
2.5600

> <Gold.Chemscore.Internal.Correction.Weighted>
   9.000000E+99

> <Gold.Protein.RotatedTorsions>
[ 6907 6896 6895 6894 ] final   81.72 input  -60.11 | X-H torsion
[ 7974 7965 7964 7962 ] final  154.60 input  175.53 | X-H torsion
[ 8008 7997 7996 7995 ] final  -15.86 input   59.86 | X-H torsion
[ 10167 10162 10161 10158 ] final  176.68 input  -65.29 | X-H torsion
[ 10718 10713 10712 10709 ] final   91.27 input   66.30 | X-H torsion
[ 10763 10752 10751 10750 ] final   81.69 input  -60.55 | X-H torsion
[ 11005 11000 10999 10996 ] final   97.47 input  -57.11 | X-H torsion

> <Gold.Protein.ActiveResidues>
 VAL166  LYS551  ARG553  GLY616  TRP617  ASP618  TYR619  PRO620  LYS621  CYS622 
 ASP623  PHE694  ASN695  SER759  ASP760  ASP761  ALA762  ILE779  LEU786  VAL792 
 PHE793  MET794  SER795  GLU796  ALA797  LYS798  CYS799  TRP800  GLU811  SER814 

> <Gold.Protein.RotatedAtoms>
  152.5277  134.3160  159.9130 H   0  0  0  0  0  0  0  0  0  0  0  0  # atno 6907 bound_to 6896
  151.3109  133.4074  159.2654 H   0  0  0  0  0  0  0  0  0  0  0  0  # atno 6908 bound_to 6896
  151.0039  134.9361  159.8027 H   0  0  0  0  0  0  0  0  0  0  0  0  # atno 6909 bound_to 6896
  144.8078  139.6955  143.6154 H   0  0  0  0  0  0  0  0  0  0  0  0  # atno 7974 bound_to 7965
  154.5097  140.2185  155.9180 H   0  0  0  0  0  0  0  0  0  0  0  0  # atno 8008 bound_to 7997
  156.1537  140.3156  155.8657 H   0  0  0  0  0  0  0  0  0  0  0  0  # atno 8009 bound_to 7997
  155.3888  140.0477  157.3032 H   0  0  0  0  0  0  0  0  0  0  0  0  # atno 8010 bound_to 7997
  139.5223  144.2887  152.0483 H   0  0  0  0  0  0  0  0  0  0  0  0  # atno 10167 bound_to 10162
  157.6960  131.0401  150.3704 H   0  0  0  0  0  0  0  0  0  0  0  0  # atno 10718 bound_to 10713
  153.1138  135.4756  154.9081 H   0  0  0  0  0  0  0  0  0  0  0  0  # atno 10763 bound_to 10752
  154.7508  135.3105  154.8564 H   0  0  0  0  0  0  0  0  0  0  0  0  # atno 10764 bound_to 10752
  153.9146  135.6861  153.4803 H   0  0  0  0  0  0  0  0  0  0  0  0  # atno 10765 bound_to 10752
  139.8776  134.9002  156.4312 H   0  0  0  0  0  0  0  0  0  0  0  0  # atno 11005 bound_to 11000
  146.2373  139.5930  142.9515 LP  0  0  0  0  0  0  0  0  0  0  0  0  # atno 17320 bound_to 7965
  145.5395  141.0422  143.2338 LP  0  0  0  0  0  0  0  0  0  0  0  0  # atno 17321 bound_to 7965
  140.2339  144.4340  150.6288 LP  0  0  0  0  0  0  0  0  0  0  0  0  # atno 17342 bound_to 10162
  140.6336  143.2191  151.6442 LP  0  0  0  0  0  0  0  0  0  0  0  0  # atno 17343 bound_to 10162
  156.4129  130.3937  149.6878 LP  0  0  0  0  0  0  0  0  0  0  0  0  # atno 17370 bound_to 10713
  156.4156  130.7743  151.2759 LP  0  0  0  0  0  0  0  0  0  0  0  0  # atno 17371 bound_to 10713
  140.9065  133.7742  155.9741 LP  0  0  0  0  0  0  0  0  0  0  0  0  # atno 17394 bound_to 11000
  140.8593  134.2859  157.5241 LP  0  0  0  0  0  0  0  0  0  0  0  0  # atno 17395 bound_to 11000

$$$$
