AV-unprocessed.smi:160|AV-procd|sdf|1347|dock10
  -GOLD-   2262019 53D 1   1.00000     0.00000
 Structure written by MMmdl.
 29 30  0  0  0  0  0  0  0  0  1 V2000
  150.4904  137.6002  159.0024 N   0  0  0  0  0  0  0  0  0  0  0  0
  149.7117  136.7695  158.3023 C   0  0  0  0  0  0  0  0  0  0  0  0
  149.2859  135.7141  158.7690 O   0  0  0  0  0  0  0  0  0  0  0  0
  149.3805  137.1992  156.9002 C   0  0  0  0  0  0  0  0  0  0  0  0
  148.6173  136.4309  156.0651 N   0  0  0  0  0  0  0  0  0  0  0  0
  148.6151  137.2229  155.0007 C   0  0  0  0  0  0  0  0  0  0  0  0
  149.3270  138.3463  155.1512 N   0  0  0  0  0  0  0  0  0  0  0  0
  149.5207  139.5118  154.2328 C   0  0  2  0  0  0  0  0  0  0  0  0
  150.4717  140.3634  154.8036 O   0  0  0  0  0  0  0  0  0  0  0  0
  149.8552  141.5181  155.3695 C   0  0  2  0  0  0  0  0  0  0  0  0
  149.4637  141.2545  156.8423 C   0  0  0  0  0  0  0  0  0  0  0  0
  148.7806  142.3738  157.3645 O   0  0  0  0  0  0  0  0  0  0  0  0
  148.6793  141.7373  154.4070 C   0  0  2  0  0  0  0  0  0  0  0  0
  147.6353  142.5053  154.9725 O   0  0  0  0  0  0  0  0  0  0  0  0
  148.2205  140.3237  154.0705 C   0  0  1  0  0  0  0  0  0  0  0  0
  147.7378  140.2819  152.7429 O   0  0  0  0  0  0  0  0  0  0  0  0
  149.8145  138.3626  156.4164 N   0  0  0  0  0  0  0  0  0  0  0  0
  149.9014  139.0711  153.3104 H   0  0  0  0  0  0  0  0  0  0  0  0
  150.5377  142.3678  155.3234 H   0  0  0  0  0  0  0  0  0  0  0  0
  149.0506  142.2385  153.5112 H   0  0  0  0  0  0  0  0  0  0  0  0
  147.4613  139.9796  154.7751 H   0  0  0  0  0  0  0  0  0  0  0  0
  150.7499  137.3692  159.9500 H   0  0  0  0  0  0  0  0  0  0  0  0
  150.8147  138.4558  158.5751 H   0  0  0  0  0  0  0  0  0  0  0  0
  148.0856  136.9776  154.0916 H   0  0  0  0  0  0  0  0  0  0  0  0
  148.7739  140.4133  156.9090 H   0  0  0  0  0  0  0  0  0  0  0  0
  150.3196  141.0057  157.4676 H   0  0  0  0  0  0  0  0  0  0  0  0
  148.9320  143.1112  156.7932 H   0  0  0  0  0  0  0  0  0  0  0  0
  148.0138  143.2791  155.3617 H   0  0  0  0  0  0  0  0  0  0  0  0
  148.4595  140.0718  152.1696 H   0  0  0  0  0  0  0  0  0  0  0  0
  1  2  1  0  0  0  0
  1 22  1  0  0  0  0
  1 23  1  0  0  0  0
  2  3  2  0  0  0  0
  2  4  1  0  0  0  0
  4 17  2  0  0  0  0
  4  5  1  0  0  0  0
  5  6  2  0  0  0  0
  6  7  1  0  0  0  0
  6 24  1  0  0  0  0
  7  8  1  0  0  0  0
  7 17  1  0  0  0  0
  8 18  1  0  0  0  0
  8 15  1  0  0  0  0
  8  9  1  0  0  0  0
  9 10  1  0  0  0  0
 10 19  1  0  0  0  0
 10 11  1  0  0  0  0
 10 13  1  0  0  0  0
 11 12  1  0  0  0  0
 11 25  1  0  0  0  0
 11 26  1  0  0  0  0
 12 27  1  0  0  0  0
 13 20  1  0  0  0  0
 13 14  1  0  0  0  0
 13 15  1  0  0  0  0
 14 28  1  0  0  0  0
 15 21  1  0  0  0  0
 15 16  1  0  0  0  0
 16 29  1  0  0  0  0
M  END
> <s_m_source_file>
AV-unprocessed.smi

> <i_m_source_file_index>
160

> <i_lp_mmshare_version>
43012

> <i_f3d_flags>
0

> <s_epik_input>
W05IMl1DKD1PKWMxbltjSF1uKG4xKVtDQEBIXTJPW0NASF0oW0NIMl1bT0hdKVtDQEBIXShbT0hdKVtDQEhdMltPSF0=

> <s_epik_cmdline>
J2VwaWtfcHl0aG9uJywgJy1waCcsICc3LjAnLCAnLXRuJywgJzgnLCAnLW1hJywgJzIwMCcsICctbWV0YWxfYmluZGluZycsICctaW1hZScsICc8aW5maWxlLm1hZT4nLCAnLW9tYWUnLCAnPG91dGZpbGUubWFlPic=

> <r_lp_tautomer_probability>
1

> <r_epik_Ionization_Penalty>
1.06932e-05

> <r_epik_Ionization_Penalty_Charging>
0

> <r_epik_Ionization_Penalty_Neutral>
1.06932e-05

> <r_epik_State_Penalty>
-0

> <r_epik_Charging_Adjusted_Penalty>
0

> <i_epik_Tot_Q>
0

> <i_epik_Tot_abs_Q>
0

> <r_epik_Metal_State_Penalty>
0.0142097

> <b_epik_Metal_Only>
0

> <s_epik_Chemistry_Notes>
This compound contains an acetal/aminal-like group ( X-CH(R)-Y where X, Y are N, S, or O) that may be acid/base labile, releasing an aldehyde.

> <s_lp_Force_Field>
OPLS_2005

> <r_lp_Energy>
36.3531

> <b_lp_Chiralities_Consistent>
1

> <s_lp_Variant>
AV-unprocessed.smi:160-5

> <Gold.Version>
5.8.1

> <Gold.Id.Protein>
6NUR|6NUR_protein|mol2

> <Gold.PLP.Fitness>
39.3479

> <Gold.PLP.PLP>
-21.7509

> <Gold.PLP.part.hbond>
-4.7668

> <Gold.PLP.part.metal>
0.0000

> <Gold.PLP.part.buried>
-3.2315

> <Gold.PLP.part.nonpolar>
-13.8689

> <Gold.PLP.part.repulsive>
0.3010

> <Gold.PLP.ligand.clash>
0.0000

> <Gold.PLP.ligand.torsion>
0.2259

> <Gold.PLP.Chemscore.Hbond>
5.0000

> <Gold.PLP.Chemscore.CHOScore>
0.9975

> <Gold.PLP.Chemscore.Metal>
0.0000

> <Gold.Chemscore.Hbonds>
donor molecule, donor type, donor heavy atom, donor atom, acceptor molecule, acceptor atom, score
      L1  H    12    27       P1  8028  1.00
      L1  H    14    28       P1  8028  1.00
      L1  H    16    29       P1  7957  0.96
      P1  H  6896  6908       L1     3  1.00
      P1  H  7989  7998       L1     9  1.00
      L1  C     6    24       P1  7948  1.00

> <Gold.PLP.Chemscore.Internal.Correction>
0.0565

> <Gold.Rescore>
     Score         DG    S(hbond)    S(metal)    S(lipo)     H(rot)  DE(clash)    DE(int)     intcor
     12.17     -12.37       4.23        0.00      27.02       4.06       0.14       0.06       ----

> <Gold.Chemscore.Fitness>
12.1669

> <Gold.Chemscore.DG>
-12.3660

> <Gold.Chemscore.ZeroCoef>
-5.4800

> <Gold.Chemscore.Hbond>
4.2270

> <Gold.Chemscore.Metal>
0.0000

> <Gold.Chemscore.Lipo>
27.0200

> <Gold.Chemscore.Internal_Hbond>
0.0000

> <Gold.Chemscore.DEClash>
0.1417

> <Gold.Chemscore.DEInternal>
0.0574

> <Gold.Chemscore.Rot>
4.0600

> <Gold.Chemscore.Internal.Correction>
   9.000000E+99

> <Gold.Chemscore.Hbonds>
donor molecule, donor type, donor heavy atom, donor atom, acceptor molecule, acceptor atom, score
      L1  H    12    27       P1  8028  0.89
      L1  H    14    28       P1  8028  0.74
      L1  H    16    29       P1  7957  0.91
      P1  H  6896  6908       L1     3  0.89
      P1  H  7989  7998       L1     9  0.45

> <Gold.Chemscore.Hbond.Weighted>
-14.1182

> <Gold.Chemscore.Metal.Weighted>
-0.0000

> <Gold.Chemscore.Lipo.Weighted>
-3.1613

> <Gold.Chemscore.Internal_Hbond.Weighted>
0.0000

> <Gold.Chemscore.DEClash.Weighted>
0.1417

> <Gold.Chemscore.DEInternal.Weighted>
0.0574

> <Gold.Chemscore.Rot.Weighted>
10.3936

> <Gold.Chemscore.Internal.Correction.Weighted>
   9.000000E+99

> <Gold.Protein.RotatedTorsions>
[ 6907 6896 6895 6894 ] final  164.96 input  -60.11 | X-H torsion
[ 7974 7965 7964 7962 ] final   33.59 input  175.53 | X-H torsion
[ 8008 7997 7996 7995 ] final  176.46 input   59.86 | X-H torsion
[ 10167 10162 10161 10158 ] final   91.52 input  -65.29 | X-H torsion
[ 10718 10713 10712 10709 ] final  -27.11 input   66.30 | X-H torsion
[ 10763 10752 10751 10750 ] final    3.24 input  -60.55 | X-H torsion
[ 11005 11000 10999 10996 ] final   95.16 input  -57.11 | X-H torsion

> <Gold.Protein.ActiveResidues>
 VAL166  LYS551  ARG553  GLY616  TRP617  ASP618  TYR619  PRO620  LYS621  CYS622 
 ASP623  PHE694  ASN695  SER759  ASP760  ASP761  ALA762  ILE779  LEU786  VAL792 
 PHE793  MET794  SER795  GLU796  ALA797  LYS798  CYS799  TRP800  GLU811  SER814 

> <Gold.Protein.RotatedAtoms>
  151.9018  133.3540  159.3832 H   0  0  0  0  0  0  0  0  0  0  0  0  # atno 6907 bound_to 6896
  150.7078  134.4821  159.5484 H   0  0  0  0  0  0  0  0  0  0  0  0  # atno 6908 bound_to 6896
  152.2410  134.8228  160.0511 H   0  0  0  0  0  0  0  0  0  0  0  0  # atno 6909 bound_to 6896
  146.1411  139.6378  142.9163 H   0  0  0  0  0  0  0  0  0  0  0  0  # atno 7974 bound_to 7965
  156.0763  140.1383  156.9768 H   0  0  0  0  0  0  0  0  0  0  0  0  # atno 8008 bound_to 7997
  154.4559  140.0961  156.6806 H   0  0  0  0  0  0  0  0  0  0  0  0  # atno 8009 bound_to 7997
  155.5148  140.3454  155.4397 H   0  0  0  0  0  0  0  0  0  0  0  0  # atno 8010 bound_to 7997
  139.8366  144.6661  150.9334 H   0  0  0  0  0  0  0  0  0  0  0  0  # atno 10167 bound_to 10162
  156.4425  130.4467  149.7043 H   0  0  0  0  0  0  0  0  0  0  0  0  # atno 10718 bound_to 10713
  153.2858  135.6944  153.7341 H   0  0  0  0  0  0  0  0  0  0  0  0  # atno 10763 bound_to 10752
  153.6311  135.3410  155.3043 H   0  0  0  0  0  0  0  0  0  0  0  0  # atno 10764 bound_to 10752
  154.8509  135.4409  154.1925 H   0  0  0  0  0  0  0  0  0  0  0  0  # atno 10765 bound_to 10752
  139.8791  134.8884  156.3970 H   0  0  0  0  0  0  0  0  0  0  0  0  # atno 11005 bound_to 11000
  145.5045  141.0437  143.2522 LP  0  0  0  0  0  0  0  0  0  0  0  0  # atno 17320 bound_to 7965
  144.7793  139.6561  143.7161 LP  0  0  0  0  0  0  0  0  0  0  0  0  # atno 17321 bound_to 7965
  140.7802  143.3951  151.1243 LP  0  0  0  0  0  0  0  0  0  0  0  0  # atno 17342 bound_to 10162
  139.7601  143.8648  152.3098 LP  0  0  0  0  0  0  0  0  0  0  0  0  # atno 17343 bound_to 10162
  156.3902  130.7623  151.2624 LP  0  0  0  0  0  0  0  0  0  0  0  0  # atno 17370 bound_to 10713
  157.7506  131.0270  150.3986 LP  0  0  0  0  0  0  0  0  0  0  0  0  # atno 17371 bound_to 10713
  140.9293  133.7590  156.0004 LP  0  0  0  0  0  0  0  0  0  0  0  0  # atno 17394 bound_to 11000
  140.8349  134.3135  157.5335 LP  0  0  0  0  0  0  0  0  0  0  0  0  # atno 17395 bound_to 11000

$$$$
