AV-unprocessed.smi:922|AV-procd|sdf|4175|dock3
  -GOLD-   22720 2 83D 1   1.00000     0.00000
 Structure written by MMmdl.
 33 34  0  0  0  0  0  0  0  0  1 V2000
  152.2216  145.4011  158.5032 C   0  0  0  0  0  0  0  0  0  0  0  0
  152.5626  143.9213  158.7042 C   0  0  2  0  0  0  0  0  0  0  0  0
  151.5279  142.9986  158.0334 C   0  0  0  0  0  0  0  0  0  0  0  0
  151.8158  141.6037  158.3408 N   0  0  0  0  0  0  0  0  0  0  0  0
  151.9640  140.5854  157.3978 C   0  0  0  0  0  0  0  0  0  0  0  0
  152.9480  139.5308  157.6205 C   0  0  0  0  0  0  0  0  0  0  0  0
  153.1411  138.5583  156.7975 N   0  0  0  0  0  0  0  0  0  0  0  0
  152.3821  138.5115  155.6563 N   0  0  0  0  0  0  0  0  0  0  0  0
  151.4318  139.3994  155.2836 C   0  0  0  0  0  0  0  0  0  0  0  0
  150.8101  139.2646  154.2313 O   0  0  0  0  0  0  0  0  0  0  0  0
  151.2384  140.4987  156.2413 C   0  0  0  0  0  0  0  0  0  0  0  0
  150.0798  141.7057  155.7926 Cl  0  0  0  0  0  0  0  0  0  0  0  0
  151.8221  141.3813  159.7825 C   0  0  0  0  0  0  0  0  0  0  0  0
  152.8481  142.3019  160.4828 C   0  0  0  0  0  0  0  0  0  0  0  0
  152.6387  142.2496  162.0041 C   0  0  0  0  0  0  0  0  0  0  0  0
  154.3030  141.9014  160.1568 C   0  0  0  0  0  0  0  0  0  0  0  0
  152.5902  143.6605  160.1082 O   0  0  0  0  0  0  0  0  0  0  0  0
  152.5821  137.7228  155.0582 H   0  0  0  0  0  0  0  0  0  0  0  0
  152.2010  145.6580  157.4438 H   0  0  0  0  0  0  0  0  0  0  0  0
  152.9617  146.0401  158.9855 H   0  0  0  0  0  0  0  0  0  0  0  0
  151.2460  145.6428  158.9261 H   0  0  0  0  0  0  0  0  0  0  0  0
  153.5516  143.7465  158.2827 H   0  0  0  0  0  0  0  0  0  0  0  0
  150.5274  143.2331  158.3990 H   0  0  0  0  0  0  0  0  0  0  0  0
  151.5033  143.1614  156.9561 H   0  0  0  0  0  0  0  0  0  0  0  0
  153.5212  139.6087  158.5445 H   0  0  0  0  0  0  0  0  0  0  0  0
  150.8183  141.5737  160.1637 H   0  0  0  0  0  0  0  0  0  0  0  0
  152.0490  140.3397  160.0120 H   0  0  0  0  0  0  0  0  0  0  0  0
  152.7957  141.2427  162.3924 H   0  0  0  0  0  0  0  0  0  0  0  0
  151.6270  142.5544  162.2744 H   0  0  0  0  0  0  0  0  0  0  0  0
  153.3300  142.9161  162.5209 H   0  0  0  0  0  0  0  0  0  0  0  0
  154.5284  140.9071  160.5432 H   0  0  0  0  0  0  0  0  0  0  0  0
  155.0117  142.5980  160.6054 H   0  0  0  0  0  0  0  0  0  0  0  0
  154.4998  141.8747  159.0857 H   0  0  0  0  0  0  0  0  0  0  0  0
  1  2  1  0  0  0  0
  1 19  1  0  0  0  0
  1 20  1  0  0  0  0
  1 21  1  0  0  0  0
  2 17  1  0  0  0  0
  2  3  1  0  0  0  0
  2 22  1  0  0  0  0
  3  4  1  0  0  0  0
  3 23  1  0  0  0  0
  3 24  1  0  0  0  0
  4  5  1  0  0  0  0
  4 13  1  0  0  0  0
  5 11  2  0  0  0  0
  5  6  1  0  0  0  0
  6  7  2  0  0  0  0
  6 25  1  0  0  0  0
  7  8  1  0  0  0  0
  8 18  1  0  0  0  0
  8  9  1  0  0  0  0
  9 10  2  0  0  0  0
  9 11  1  0  0  0  0
 11 12  1  0  0  0  0
 13 14  1  0  0  0  0
 13 26  1  0  0  0  0
 13 27  1  0  0  0  0
 14 15  1  0  0  0  0
 14 16  1  0  0  0  0
 14 17  1  0  0  0  0
 15 28  1  0  0  0  0
 15 29  1  0  0  0  0
 15 30  1  0  0  0  0
 16 31  1  0  0  0  0
 16 32  1  0  0  0  0
 16 33  1  0  0  0  0
M  END
> <s_m_source_file>
AV-unprocessed.smi

> <i_m_source_file_index>
922

> <i_lp_mmshare_version>
43012

> <i_f3d_flags>
0

> <s_epik_input>
W0NIM11bQ0BASF0oTzEpW0NIMl1OKFtDSDJdQzEoW0NIM10pW0NIM10pYzJbY0hdbltuSF1jKD1PKWMyQ2w=

> <s_epik_cmdline>
J2VwaWtfcHl0aG9uJywgJy1waCcsICc3LjAnLCAnLXRuJywgJzgnLCAnLW1hJywgJzIwMCcsICctbWV0YWxfYmluZGluZycsICctaW1hZScsICc8aW5maWxlLm1hZT4nLCAnLW9tYWUnLCAnPG91dGZpbGUubWFlPic=

> <r_lp_tautomer_probability>
0.986175

> <r_epik_Ionization_Penalty>
0.00909695

> <r_epik_Ionization_Penalty_Charging>
0.00909694

> <r_epik_Ionization_Penalty_Neutral>
4.87729e-09

> <r_epik_State_Penalty>
1.54226

> <r_epik_Charging_Adjusted_Penalty>
1.55136

> <i_epik_Tot_Q>
0

> <i_epik_Tot_abs_Q>
0

> <r_epik_Metal_State_Penalty>
3.93934

> <b_epik_Metal_Only>
0

> <s_lp_Force_Field>
OPLS_2005

> <r_lp_Energy>
35.5656

> <b_lp_Chiralities_Consistent>
1

> <s_lp_Variant>
AV-unprocessed.smi:922-3

> <Gold.Version>
5.8.1

> <Gold.Id.Protein>
6NUR|6NUR_protein|mol2

> <Gold.PLP.Fitness>
34.6345

> <Gold.PLP.PLP>
-34.2435

> <Gold.PLP.part.hbond>
-2.0000

> <Gold.PLP.part.metal>
0.0000

> <Gold.PLP.part.buried>
-1.4074

> <Gold.PLP.part.nonpolar>
-31.0469

> <Gold.PLP.part.repulsive>
0.3582

> <Gold.PLP.ligand.clash>
1.1660

> <Gold.PLP.ligand.torsion>
0.5920

> <Gold.PLP.Chemscore.Hbond>
0.6000

> <Gold.PLP.Chemscore.CHOScore>
0.0000

> <Gold.PLP.Chemscore.Metal>
0.0000

> <Gold.Chemscore.Hbonds>
donor molecule, donor type, donor heavy atom, donor atom, acceptor molecule, acceptor atom, score
      P1  H  7989  7998       L1    10  0.60

> <Gold.PLP.Chemscore.Internal.Correction>
0.9408

> <Gold.Rescore>
     Score         DG    S(hbond)    S(metal)    S(lipo)     H(rot)  DE(clash)    DE(int)     intcor
     17.58     -19.70       0.60        0.00     104.35       0.00       0.44       1.68       ----

> <Gold.Chemscore.Fitness>
17.5820

> <Gold.Chemscore.DG>
-19.7043

> <Gold.Chemscore.ZeroCoef>
-5.4800

> <Gold.Chemscore.Hbond>
0.6034

> <Gold.Chemscore.Metal>
0.0000

> <Gold.Chemscore.Lipo>
104.3510

> <Gold.Chemscore.Internal_Hbond>
0.0000

> <Gold.Chemscore.DEClash>
0.4432

> <Gold.Chemscore.DEInternal>
1.6791

> <Gold.Chemscore.Rot>
0.0000

> <Gold.Chemscore.Internal.Correction>
   9.000000E+99

> <Gold.Chemscore.Hbonds>
donor molecule, donor type, donor heavy atom, donor atom, acceptor molecule, acceptor atom, score
      P1  H  7989  7998       L1    10  0.04

> <Gold.Chemscore.Hbond.Weighted>
-2.0153

> <Gold.Chemscore.Metal.Weighted>
-0.0000

> <Gold.Chemscore.Lipo.Weighted>
-12.2091

> <Gold.Chemscore.Internal_Hbond.Weighted>
0.0000

> <Gold.Chemscore.DEClash.Weighted>
0.4432

> <Gold.Chemscore.DEInternal.Weighted>
1.6791

> <Gold.Chemscore.Rot.Weighted>
0.0000

> <Gold.Chemscore.Internal.Correction.Weighted>
   9.000000E+99

> <Gold.Protein.RotatedTorsions>
[ 6907 6896 6895 6894 ] final   79.01 input  -60.11 | X-H torsion
[ 7974 7965 7964 7962 ] final  134.15 input  175.53 | X-H torsion
[ 8008 7997 7996 7995 ] final   -5.32 input   59.86 | X-H torsion
[ 10167 10162 10161 10158 ] final -100.14 input  -65.29 | X-H torsion
[ 10718 10713 10712 10709 ] final -172.81 input   66.30 | X-H torsion
[ 10763 10752 10751 10750 ] final   61.26 input  -60.55 | X-H torsion
[ 11005 11000 10999 10996 ] final   -1.15 input  -57.11 | X-H torsion

> <Gold.Protein.ActiveResidues>
 VAL166  LYS551  ARG553  GLY616  TRP617  ASP618  TYR619  PRO620  LYS621  CYS622 
 ASP623  PHE694  ASN695  SER759  ASP760  ASP761  ALA762  ILE779  LEU786  VAL792 
 PHE793  MET794  SER795  GLU796  ALA797  LYS798  CYS799  TRP800  GLU811  SER814 

> <Gold.Protein.RotatedAtoms>
  152.5182  134.3577  159.9273 H   0  0  0  0  0  0  0  0  0  0  0  0  # atno 6907 bound_to 6896
  151.3529  133.3912  159.2689 H   0  0  0  0  0  0  0  0  0  0  0  0  # atno 6908 bound_to 6896
  150.9713  134.9104  159.7847 H   0  0  0  0  0  0  0  0  0  0  0  0  # atno 6909 bound_to 6896
  144.9793  139.4522  143.5394 H   0  0  0  0  0  0  0  0  0  0  0  0  # atno 7974 bound_to 7965
  154.6051  140.2461  155.7742 H   0  0  0  0  0  0  0  0  0  0  0  0  # atno 8008 bound_to 7997
  156.2335  140.2958  156.0203 H   0  0  0  0  0  0  0  0  0  0  0  0  # atno 8009 bound_to 7997
  155.2146  140.0398  157.2929 H   0  0  0  0  0  0  0  0  0  0  0  0  # atno 8010 bound_to 7997
  140.2551  143.3446  152.0679 H   0  0  0  0  0  0  0  0  0  0  0  0  # atno 10167 bound_to 10162
  156.7611  130.9414  151.3118 H   0  0  0  0  0  0  0  0  0  0  0  0  # atno 10718 bound_to 10713
  152.9945  135.5507  154.6006 H   0  0  0  0  0  0  0  0  0  0  0  0  # atno 10763 bound_to 10752
  154.5348  135.2816  155.1150 H   0  0  0  0  0  0  0  0  0  0  0  0  # atno 10764 bound_to 10752
  154.2451  135.6409  153.5273 H   0  0  0  0  0  0  0  0  0  0  0  0  # atno 10765 bound_to 10752
  140.6441  133.9463  155.8343 H   0  0  0  0  0  0  0  0  0  0  0  0  # atno 11005 bound_to 11000
  146.3404  139.9055  142.8788 LP  0  0  0  0  0  0  0  0  0  0  0  0  # atno 17320 bound_to 7965
  145.2445  141.0021  143.3917 LP  0  0  0  0  0  0  0  0  0  0  0  0  # atno 17321 bound_to 7965
  139.5034  144.6755  151.6140 LP  0  0  0  0  0  0  0  0  0  0  0  0  # atno 17342 bound_to 10162
  140.6010  143.9609  150.6386 LP  0  0  0  0  0  0  0  0  0  0  0  0  # atno 17343 bound_to 10162
  157.6734  130.9072  150.0093 LP  0  0  0  0  0  0  0  0  0  0  0  0  # atno 17370 bound_to 10713
  156.1338  130.3643  149.9689 LP  0  0  0  0  0  0  0  0  0  0  0  0  # atno 17371 bound_to 10713
  141.0585  134.0381  157.3690 LP  0  0  0  0  0  0  0  0  0  0  0  0  # atno 17394 bound_to 11000
  139.9069  135.0181  156.7526 LP  0  0  0  0  0  0  0  0  0  0  0  0  # atno 17395 bound_to 11000

$$$$
