AV-unprocessed.smi:1853|AV-procd|sdf|7528|dock3
  -GOLD-   22720 9233D 1   1.00000     0.00000
 Structure written by MMmdl.
 43 45  0  0  0  0  0  0  0  0  2 V2000
  153.7539  142.3723  162.4265 C   0  0  0  0  0  0  0  0  0  0  0  0
  153.0997  142.3826  161.0603 C   0  0  0  0  0  0  0  0  0  0  0  0
  152.2398  143.4350  160.6891 C   0  0  0  0  0  0  0  0  0  0  0  0
  151.6349  143.4366  159.4178 C   0  0  0  0  0  0  0  0  0  0  0  0
  151.8760  142.3935  158.5004 C   0  0  0  0  0  0  0  0  0  0  0  0
  151.2459  142.4774  157.2777 O   0  0  0  0  0  0  0  0  0  0  0  0
  151.5869  141.5265  156.2777 C   0  0  0  0  0  0  0  0  0  0  0  0
  150.8260  140.2197  156.5422 C   0  0  0  0  0  0  0  0  0  0  0  0
  150.0731  139.7646  155.3645 N   0  0  0  0  0  0  0  0  0  0  0  0
  150.2341  138.6575  154.5829 C   0  0  0  0  0  0  0  0  0  0  0  0
  151.2689  137.5848  154.7546 C   0  0  0  0  0  0  0  0  0  0  0  0
  150.8756  136.2824  154.2245 N   0  0  0  0  0  0  0  0  0  0  0  0
  150.3960  135.2671  154.9577 C   0  0  0  0  0  0  0  0  0  0  0  0
  150.1808  135.3259  156.1669 O   0  0  0  0  0  0  0  0  0  0  0  0
  149.2762  138.7114  153.6122 N   0  3  0  0  0  0  0  0  0  0  0  0
  148.4869  139.8480  153.7859 C   0  0  0  0  0  0  0  0  0  0  0  0
  147.3955  140.3197  153.0630 C   0  0  0  0  0  0  0  0  0  0  0  0
  146.8102  141.5214  153.5132 C   0  0  0  0  0  0  0  0  0  0  0  0
  147.3110  142.2048  154.6406 C   0  0  0  0  0  0  0  0  0  0  0  0
  148.4190  141.7168  155.3646 C   0  0  0  0  0  0  0  0  0  0  0  0
  148.9920  140.5286  154.9119 C   0  0  0  0  0  0  0  0  0  0  0  0
  152.7392  141.3355  158.8821 C   0  0  0  0  0  0  0  0  0  0  0  0
  153.3453  141.3331  160.1535 C   0  0  0  0  0  0  0  0  0  0  0  0
  153.7041  143.3555  162.8957 H   0  0  0  0  0  0  0  0  0  0  0  0
  154.8039  142.0894  162.3456 H   0  0  0  0  0  0  0  0  0  0  0  0
  153.2537  141.6553  163.0776 H   0  0  0  0  0  0  0  0  0  0  0  0
  152.0400  144.2443  161.3762 H   0  0  0  0  0  0  0  0  0  0  0  0
  150.9756  144.2472  159.1456 H   0  0  0  0  0  0  0  0  0  0  0  0
  151.3301  141.9075  155.2882 H   0  0  0  0  0  0  0  0  0  0  0  0
  152.6601  141.3309  156.2962 H   0  0  0  0  0  0  0  0  0  0  0  0
  151.5072  139.4273  156.8531 H   0  0  0  0  0  0  0  0  0  0  0  0
  150.1190  140.3547  157.3612 H   0  0  0  0  0  0  0  0  0  0  0  0
  152.1827  137.9010  154.2513 H   0  0  0  0  0  0  0  0  0  0  0  0
  151.5158  137.4790  155.8116 H   0  0  0  0  0  0  0  0  0  0  0  0
  151.0144  136.1303  153.2358 H   0  0  0  0  0  0  0  0  0  0  0  0
  150.2184  134.3790  154.3316 H   0  0  0  0  0  0  0  0  0  0  0  0
  147.0089  139.7966  152.2007 H   0  0  0  0  0  0  0  0  0  0  0  0
  145.9591  141.9259  152.9847 H   0  0  0  0  0  0  0  0  0  0  0  0
  146.8351  143.1215  154.9573 H   0  0  0  0  0  0  0  0  0  0  0  0
  148.7932  142.2462  156.2283 H   0  0  0  0  0  0  0  0  0  0  0  0
  152.9545  140.5129  158.2173 H   0  0  0  0  0  0  0  0  0  0  0  0
  154.0014  140.5208  160.4309 H   0  0  0  0  0  0  0  0  0  0  0  0
  149.1657  138.0091  152.8924 H   0  0  0  0  0  0  0  0  0  0  0  0
  1  2  1  0  0  0  0
  1 24  1  0  0  0  0
  1 25  1  0  0  0  0
  1 26  1  0  0  0  0
  2 23  1  0  0  0  0
  2  3  2  0  0  0  0
  3  4  1  0  0  0  0
  3 27  1  0  0  0  0
  4  5  2  0  0  0  0
  4 28  1  0  0  0  0
  5  6  1  0  0  0  0
  5 22  1  0  0  0  0
  6  7  1  0  0  0  0
  7  8  1  0  0  0  0
  7 29  1  0  0  0  0
  7 30  1  0  0  0  0
  8  9  1  0  0  0  0
  8 31  1  0  0  0  0
  8 32  1  0  0  0  0
  9 21  1  0  0  0  0
  9 10  1  0  0  0  0
 10 11  1  0  0  0  0
 10 15  2  0  0  0  0
 11 12  1  0  0  0  0
 11 33  1  0  0  0  0
 11 34  1  0  0  0  0
 12 13  1  0  0  0  0
 12 35  1  0  0  0  0
 13 14  2  0  0  0  0
 13 36  1  0  0  0  0
 15 16  1  0  0  0  0
 15 43  1  0  0  0  0
 16 21  2  0  0  0  0
 16 17  1  0  0  0  0
 17 18  2  0  0  0  0
 17 37  1  0  0  0  0
 18 19  1  0  0  0  0
 18 38  1  0  0  0  0
 19 20  2  0  0  0  0
 19 39  1  0  0  0  0
 20 21  1  0  0  0  0
 20 40  1  0  0  0  0
 22 23  2  0  0  0  0
 22 41  1  0  0  0  0
 23 42  1  0  0  0  0
M  CHG  1  15   1
M  END
> <s_m_source_file>
AV-unprocessed.smi

> <i_m_source_file_index>
1853

> <i_lp_mmshare_version>
43012

> <i_f3d_flags>
0

> <s_epik_input>
W0NIM11jMVtjSF1bY0hdYyhbY0hdW2NIXTEpT1tDSDJdW0NIMl1uKGMobjIpW0NIMl1bTkhdW0NIXT1PKWMoYzIzKVtjSF1bY0hdW2NIXVtjSF0z

> <s_epik_cmdline>
J2VwaWtfcHl0aG9uJywgJy1waCcsICc3LjAnLCAnLXRuJywgJzgnLCAnLW1hJywgJzIwMCcsICctbWV0YWxfYmluZGluZycsICctaW1hZScsICc8aW5maWxlLm1hZT4nLCAnLW9tYWUnLCAnPG91dGZpbGUubWFlPic=

> <r_lp_tautomer_probability>
1

> <r_epik_Ionization_Penalty>
1.39966

> <r_epik_Ionization_Penalty_Charging>
1.39966

> <r_epik_Ionization_Penalty_Neutral>
7.38905e-08

> <r_epik_State_Penalty>
1.4817

> <r_epik_Charging_Adjusted_Penalty>
2.88136

> <i_epik_Tot_Q>
1

> <i_epik_Tot_abs_Q>
1

> <r_epik_Metal_State_Penalty>
1.53574

> <b_epik_Metal_Only>
0

> <s_lp_Force_Field>
OPLS_2005

> <r_lp_Energy>
13.1997

> <b_lp_Chiralities_Consistent>
1

> <s_lp_Variant>
AV-unprocessed.smi:1853-2

> <Gold.Version>
5.8.1

> <Gold.Id.Protein>
6NUR|6NUR_protein|mol2

> <Gold.PLP.Fitness>
54.7089

> <Gold.PLP.PLP>
-47.7148

> <Gold.PLP.part.hbond>
-3.7773

> <Gold.PLP.part.metal>
0.0000

> <Gold.PLP.part.buried>
-2.1027

> <Gold.PLP.part.nonpolar>
-42.3735

> <Gold.PLP.part.repulsive>
0.2812

> <Gold.PLP.ligand.clash>
0.0000

> <Gold.PLP.ligand.torsion>
1.0588

> <Gold.PLP.Chemscore.Hbond>
3.0000

> <Gold.PLP.Chemscore.CHOScore>
0.0000

> <Gold.PLP.Chemscore.Metal>
0.0000

> <Gold.Chemscore.Hbonds>
donor molecule, donor type, donor heavy atom, donor atom, acceptor molecule, acceptor atom, score
      L1  H    12    35       P1  7949  0.90
      L1  H    15    43       P1  7948  1.98

> <Gold.PLP.Chemscore.Internal.Correction>
0.1117

> <Gold.Rescore>
     Score         DG    S(hbond)    S(metal)    S(lipo)     H(rot)  DE(clash)    DE(int)     intcor
     18.05     -19.88       1.67        0.00     129.18       2.46       0.86       0.97       ----

> <Gold.Chemscore.Fitness>
18.0487

> <Gold.Chemscore.DG>
-19.8777

> <Gold.Chemscore.ZeroCoef>
-5.4800

> <Gold.Chemscore.Hbond>
1.6713

> <Gold.Chemscore.Metal>
0.0000

> <Gold.Chemscore.Lipo>
129.1793

> <Gold.Chemscore.Internal_Hbond>
0.0000

> <Gold.Chemscore.DEClash>
0.8560

> <Gold.Chemscore.DEInternal>
0.9731

> <Gold.Chemscore.Rot>
2.4603

> <Gold.Chemscore.Internal.Correction>
   9.000000E+99

> <Gold.Chemscore.Hbonds>
donor molecule, donor type, donor heavy atom, donor atom, acceptor molecule, acceptor atom, score
      L1  H    12    35       P1  7949  0.18
      L1  H    15    43       P1  7948  0.91

> <Gold.Chemscore.Hbond.Weighted>
-5.5820

> <Gold.Chemscore.Metal.Weighted>
-0.0000

> <Gold.Chemscore.Lipo.Weighted>
-15.1140

> <Gold.Chemscore.Internal_Hbond.Weighted>
0.0000

> <Gold.Chemscore.DEClash.Weighted>
0.8560

> <Gold.Chemscore.DEInternal.Weighted>
0.9731

> <Gold.Chemscore.Rot.Weighted>
6.2983

> <Gold.Chemscore.Internal.Correction.Weighted>
   9.000000E+99

> <Gold.Protein.RotatedTorsions>
[ 6907 6896 6895 6894 ] final   53.23 input  -60.11 | X-H torsion
[ 7974 7965 7964 7962 ] final   17.17 input  175.53 | X-H torsion
[ 8008 7997 7996 7995 ] final  130.34 input   59.86 | X-H torsion
[ 10167 10162 10161 10158 ] final   21.21 input  -65.29 | X-H torsion
[ 10718 10713 10712 10709 ] final  177.95 input   66.30 | X-H torsion
[ 10763 10752 10751 10750 ] final  -52.37 input  -60.55 | X-H torsion
[ 11005 11000 10999 10996 ] final   53.27 input  -57.11 | X-H torsion

> <Gold.Protein.ActiveResidues>
 VAL166  LYS551  ARG553  GLY616  TRP617  ASP618  TYR619  PRO620  LYS621  CYS622 
 ASP623  PHE694  ASN695  SER759  ASP760  ASP761  ALA762  ILE779  LEU786  VAL792 
 PHE793  MET794  SER795  GLU796  ALA797  LYS798  CYS799  TRP800  GLU811  SER814 

> <Gold.Protein.RotatedAtoms>
  152.3315  134.7253  160.0287 H   0  0  0  0  0  0  0  0  0  0  0  0  # atno 6907 bound_to 6896
  151.7668  133.3332  159.3441 H   0  0  0  0  0  0  0  0  0  0  0  0  # atno 6908 bound_to 6896
  150.7426  134.5987  159.6070 H   0  0  0  0  0  0  0  0  0  0  0  0  # atno 6909 bound_to 6896
  146.2227  139.8642  142.8599 H   0  0  0  0  0  0  0  0  0  0  0  0  # atno 7974 bound_to 7965
  156.2953  140.2598  156.2747 H   0  0  0  0  0  0  0  0  0  0  0  0  # atno 8008 bound_to 7997
  154.9661  140.0392  157.2231 H   0  0  0  0  0  0  0  0  0  0  0  0  # atno 8009 bound_to 7997
  154.7902  140.2810  155.6002 H   0  0  0  0  0  0  0  0  0  0  0  0  # atno 8010 bound_to 7997
  140.5444  143.9620  150.6539 H   0  0  0  0  0  0  0  0  0  0  0  0  # atno 10167 bound_to 10162
  156.8978  130.9869  151.3040 H   0  0  0  0  0  0  0  0  0  0  0  0  # atno 10718 bound_to 10713
  154.1416  135.6504  153.4943 H   0  0  0  0  0  0  0  0  0  0  0  0  # atno 10763 bound_to 10752
  153.0164  135.5317  154.6899 H   0  0  0  0  0  0  0  0  0  0  0  0  # atno 10764 bound_to 10752
  154.6162  135.2959  155.0348 H   0  0  0  0  0  0  0  0  0  0  0  0  # atno 10765 bound_to 10752
  140.0781  134.5377  155.8975 H   0  0  0  0  0  0  0  0  0  0  0  0  # atno 11005 bound_to 11000
  145.2674  141.0097  143.3791 LP  0  0  0  0  0  0  0  0  0  0  0  0  # atno 17320 bound_to 7965
  144.9250  139.4365  143.6522 LP  0  0  0  0  0  0  0  0  0  0  0  0  # atno 17321 bound_to 7965
  140.3029  143.3248  152.0954 LP  0  0  0  0  0  0  0  0  0  0  0  0  # atno 17342 bound_to 10162
  139.5001  144.6685  151.6299 LP  0  0  0  0  0  0  0  0  0  0  0  0  # atno 17343 bound_to 10162
  157.6044  130.8536  149.8853 LP  0  0  0  0  0  0  0  0  0  0  0  0  # atno 17370 bound_to 10713
  156.0597  130.3702  150.1011 LP  0  0  0  0  0  0  0  0  0  0  0  0  # atno 17371 bound_to 10713
  141.2037  133.6633  156.6076 LP  0  0  0  0  0  0  0  0  0  0  0  0  # atno 17394 bound_to 11000
  140.3528  134.7754  157.4479 LP  0  0  0  0  0  0  0  0  0  0  0  0  # atno 17395 bound_to 11000

$$$$
