AV-unprocessed.smi:2079|AV-procd|sdf|8483|dock1
  -GOLD-   2272011183D 1   1.00000     0.00000
 Structure written by MMmdl.
 41 42  0  0  0  0  0  0  0  0  3 V2000
  153.1463  138.7536  155.0568 C   0  0  0  0  0  0  0  0  0  0  0  0
  151.6769  138.7087  154.8097 C   0  0  0  0  0  0  0  0  0  0  0  0
  150.7799  137.6804  154.7408 C   0  0  0  0  0  0  0  0  0  0  0  0
  149.5508  138.3430  154.4811 C   0  0  0  0  0  0  0  0  0  0  0  0
  148.3474  137.6045  154.3329 N   0  0  0  0  0  0  0  0  0  0  0  0
  147.8970  136.5731  155.0694 C   0  0  0  0  0  0  0  0  0  0  0  0
  148.5776  136.1227  155.9987 O   0  0  0  0  0  0  0  0  0  0  0  0
  146.6649  136.1522  154.6704 N   0  5  0  0  0  0  0  0  0  0  0  0
  146.4113  135.0676  153.7184 C   0  0  0  0  0  0  0  0  0  0  0  0
  145.3090  134.1188  154.2411 C   0  0  0  0  0  0  0  0  0  0  0  0
  144.8964  133.1087  153.2207 N   0  3  2  0  0  0  0  0  0  0  0  0
  146.0185  132.1798  152.8961 C   0  0  0  0  0  0  0  0  0  0  0  0
  145.5788  131.0411  151.9694 C   0  0  0  0  0  0  0  0  0  0  0  0
  145.0028  131.6131  150.6752 C   0  0  0  0  0  0  0  0  0  0  0  0
  143.8390  132.5470  151.0144 C   0  0  0  0  0  0  0  0  0  0  0  0
  144.2435  133.6736  151.9936 C   0  0  1  0  0  0  0  0  0  0  0  0
  142.9754  134.4987  152.3069 C   0  0  0  0  0  0  0  0  0  0  0  0
  149.6871  139.6580  154.3937 N   0  0  0  0  0  0  0  0  0  0  0  0
  151.0496  139.8990  154.6062 O   0  0  0  0  0  0  0  0  0  0  0  0
  153.6747  138.1045  154.3586 H   0  0  0  0  0  0  0  0  0  0  0  0
  153.3769  138.4209  156.0689 H   0  0  0  0  0  0  0  0  0  0  0  0
  153.5355  139.7650  154.9372 H   0  0  0  0  0  0  0  0  0  0  0  0
  150.9730  136.6248  154.8602 H   0  0  0  0  0  0  0  0  0  0  0  0
  147.7460  137.8992  153.5778 H   0  0  0  0  0  0  0  0  0  0  0  0
  146.0888  135.4691  152.7581 H   0  0  0  0  0  0  0  0  0  0  0  0
  147.3086  134.4879  153.4981 H   0  0  0  0  0  0  0  0  0  0  0  0
  145.6449  133.6598  155.1680 H   0  0  0  0  0  0  0  0  0  0  0  0
  144.4431  134.7116  154.5397 H   0  0  0  0  0  0  0  0  0  0  0  0
  146.8304  132.7410  152.4304 H   0  0  0  0  0  0  0  0  0  0  0  0
  146.4209  131.7502  153.8144 H   0  0  0  0  0  0  0  0  0  0  0  0
  146.4266  130.3926  151.7464 H   0  0  0  0  0  0  0  0  0  0  0  0
  144.8336  130.4212  152.4702 H   0  0  0  0  0  0  0  0  0  0  0  0
  145.7736  132.1581  150.1288 H   0  0  0  0  0  0  0  0  0  0  0  0
  144.6631  130.8072  150.0239 H   0  0  0  0  0  0  0  0  0  0  0  0
  143.4431  132.9771  150.0935 H   0  0  0  0  0  0  0  0  0  0  0  0
  143.0288  131.9593  151.4493 H   0  0  0  0  0  0  0  0  0  0  0  0
  144.9685  134.3216  151.4985 H   0  0  0  0  0  0  0  0  0  0  0  0
  142.4909  134.8236  151.3858 H   0  0  0  0  0  0  0  0  0  0  0  0
  143.1747  135.4030  152.8785 H   0  0  0  0  0  0  0  0  0  0  0  0
  142.2463  133.9081  152.8621 H   0  0  0  0  0  0  0  0  0  0  0  0
  144.1845  132.5525  153.6748 H   0  0  0  0  0  0  0  0  0  0  0  0
  1  2  1  0  0  0  0
  1 20  1  0  0  0  0
  1 21  1  0  0  0  0
  1 22  1  0  0  0  0
  2 19  1  0  0  0  0
  2  3  2  0  0  0  0
  3  4  1  0  0  0  0
  3 23  1  0  0  0  0
  4  5  1  0  0  0  0
  4 18  2  0  0  0  0
  5  6  1  0  0  0  0
  5 24  1  0  0  0  0
  6  7  2  0  0  0  0
  6  8  1  0  0  0  0
  8  9  1  0  0  0  0
  9 10  1  0  0  0  0
  9 25  1  0  0  0  0
  9 26  1  0  0  0  0
 10 11  1  0  0  0  0
 10 27  1  0  0  0  0
 10 28  1  0  0  0  0
 11 16  1  0  0  0  0
 11 12  1  0  0  0  0
 11 41  1  0  0  0  0
 12 13  1  0  0  0  0
 12 29  1  0  0  0  0
 12 30  1  0  0  0  0
 13 14  1  0  0  0  0
 13 31  1  0  0  0  0
 13 32  1  0  0  0  0
 14 15  1  0  0  0  0
 14 33  1  0  0  0  0
 14 34  1  0  0  0  0
 15 16  1  0  0  0  0
 15 35  1  0  0  0  0
 15 36  1  0  0  0  0
 16 17  1  0  0  0  0
 16 37  1  0  0  0  0
 17 38  1  0  0  0  0
 17 39  1  0  0  0  0
 17 40  1  0  0  0  0
 18 19  1  0  0  0  0
M  CHG  1   8  -1
M  CHG  1  11   1
M  END
> <s_m_source_file>
AV-unprocessed.smi

> <i_m_source_file_index>
2079

> <i_lp_mmshare_version>
43012

> <i_f3d_flags>
0

> <s_epik_input>
W0NIM11jMVtjSF1jKG5vMSlbTkhdQyg9TylbTkhdW0NIMl1bQ0gyXU4yW0NIMl1bQ0gyXVtDSDJdW0NIMl1bQ0BIXTJbQ0gzXQ==

> <s_epik_cmdline>
J2VwaWtfcHl0aG9uJywgJy1waCcsICc3LjAnLCAnLXRuJywgJzgnLCAnLW1hJywgJzIwMCcsICctbWV0YWxfYmluZGluZycsICctaW1hZScsICc8aW5maWxlLm1hZT4nLCAnLW9tYWUnLCAnPG91dGZpbGUubWFlPic=

> <r_epik_Ionization_Penalty>
6.7666

> <r_epik_Ionization_Penalty_Charging>
6.7666

> <r_epik_Ionization_Penalty_Neutral>
5.77131e-06

> <r_epik_State_Penalty>
6.79217

> <r_epik_Charging_Adjusted_Penalty>
13.5588

> <i_epik_Tot_Q>
0

> <i_epik_Tot_abs_Q>
2

> <r_epik_Metal_State_Penalty>
2.72569

> <b_epik_Metal_Only>
1

> <s_lp_Force_Field>
OPLS_2005

> <r_lp_Energy>
12.5834

> <b_lp_Chiralities_Consistent>
1

> <s_lp_Variant>
AV-unprocessed.smi:2079-9

> <Gold.Version>
5.8.1

> <Gold.Id.Protein>
6NUR|6NUR_protein|mol2

> <Gold.PLP.Fitness>
38.2976

> <Gold.PLP.PLP>
-31.5473

> <Gold.PLP.part.hbond>
-3.0000

> <Gold.PLP.part.metal>
0.0000

> <Gold.PLP.part.buried>
-6.0487

> <Gold.PLP.part.nonpolar>
-23.7031

> <Gold.PLP.part.repulsive>
0.3309

> <Gold.PLP.ligand.clash>
0.0000

> <Gold.PLP.ligand.torsion>
1.2098

> <Gold.PLP.Chemscore.Hbond>
3.0000

> <Gold.PLP.Chemscore.CHOScore>
0.0000

> <Gold.PLP.Chemscore.Metal>
0.0000

> <Gold.Chemscore.Hbonds>
donor molecule, donor type, donor heavy atom, donor atom, acceptor molecule, acceptor atom, score
      L1  H    11    41       P1 10957  2.00
      P1  H  7989  7998       L1    19  1.00

> <Gold.PLP.Chemscore.Internal.Correction>
0.1699

> <Gold.Rescore>
     Score         DG    S(hbond)    S(metal)    S(lipo)     H(rot)  DE(clash)    DE(int)     intcor
     13.12     -15.30       1.75        0.00      67.71       1.54       0.08       2.09       ----

> <Gold.Chemscore.Fitness>
13.1250

> <Gold.Chemscore.DG>
-15.3005

> <Gold.Chemscore.ZeroCoef>
-5.4800

> <Gold.Chemscore.Hbond>
1.7496

> <Gold.Chemscore.Metal>
0.0000

> <Gold.Chemscore.Lipo>
67.7061

> <Gold.Chemscore.Internal_Hbond>
0.0000

> <Gold.Chemscore.DEClash>
0.0810

> <Gold.Chemscore.DEInternal>
2.0945

> <Gold.Chemscore.Rot>
1.5409

> <Gold.Chemscore.Internal.Correction>
   9.000000E+99

> <Gold.Chemscore.Hbonds>
donor molecule, donor type, donor heavy atom, donor atom, acceptor molecule, acceptor atom, score
      L1  H    11    41       P1 10957  0.42
      P1  H  7989  7998       L1    19  0.74

> <Gold.Chemscore.Hbond.Weighted>
-5.8435

> <Gold.Chemscore.Metal.Weighted>
-0.0000

> <Gold.Chemscore.Lipo.Weighted>
-7.9216

> <Gold.Chemscore.Internal_Hbond.Weighted>
0.0000

> <Gold.Chemscore.DEClash.Weighted>
0.0810

> <Gold.Chemscore.DEInternal.Weighted>
2.0945

> <Gold.Chemscore.Rot.Weighted>
3.9446

> <Gold.Chemscore.Internal.Correction.Weighted>
   9.000000E+99

> <Gold.Protein.RotatedTorsions>
[ 6907 6896 6895 6894 ] final  109.32 input  -60.11 | X-H torsion
[ 7974 7965 7964 7962 ] final   99.26 input  175.53 | X-H torsion
[ 8008 7997 7996 7995 ] final  -48.19 input   59.86 | X-H torsion
[ 10167 10162 10161 10158 ] final  176.13 input  -65.29 | X-H torsion
[ 10718 10713 10712 10709 ] final   89.77 input   66.30 | X-H torsion
[ 10763 10752 10751 10750 ] final  150.42 input  -60.55 | X-H torsion
[ 11005 11000 10999 10996 ] final  -79.97 input  -57.11 | X-H torsion

> <Gold.Protein.ActiveResidues>
 VAL166  LYS551  ARG553  GLY616  TRP617  ASP618  TYR619  PRO620  LYS621  CYS622 
 ASP623  PHE694  ASN695  SER759  ASP760  ASP761  ALA762  ILE779  LEU786  VAL792 
 PHE793  MET794  SER795  GLU796  ALA797  LYS798  CYS799  TRP800  GLU811  SER814 

> <Gold.Protein.RotatedAtoms>
  152.5073  133.8962  159.7417 H   0  0  0  0  0  0  0  0  0  0  0  0  # atno 6907 bound_to 6896
  150.9388  133.6671  159.2802 H   0  0  0  0  0  0  0  0  0  0  0  0  # atno 6908 bound_to 6896
  151.3990  135.0973  159.9602 H   0  0  0  0  0  0  0  0  0  0  0  0  # atno 6909 bound_to 6896
  145.4012  139.2347  143.3299 H   0  0  0  0  0  0  0  0  0  0  0  0  # atno 7974 bound_to 7965
  154.4026  140.1327  156.4299 H   0  0  0  0  0  0  0  0  0  0  0  0  # atno 8008 bound_to 7997
  155.7561  140.3487  155.5154 H   0  0  0  0  0  0  0  0  0  0  0  0  # atno 8009 bound_to 7997
  155.8903  140.1002  157.1413 H   0  0  0  0  0  0  0  0  0  0  0  0  # atno 8010 bound_to 7997
  139.5203  144.2951  152.0429 H   0  0  0  0  0  0  0  0  0  0  0  0  # atno 10167 bound_to 10162
  157.6957  131.0346  150.3476 H   0  0  0  0  0  0  0  0  0  0  0  0  # atno 10718 bound_to 10713
  154.0871  135.2855  155.3279 H   0  0  0  0  0  0  0  0  0  0  0  0  # atno 10763 bound_to 10752
  154.6645  135.5322  153.8062 H   0  0  0  0  0  0  0  0  0  0  0  0  # atno 10764 bound_to 10752
  153.0427  135.6542  154.1043 H   0  0  0  0  0  0  0  0  0  0  0  0  # atno 10765 bound_to 10752
  141.1668  133.7129  156.8203 H   0  0  0  0  0  0  0  0  0  0  0  0  # atno 11005 bound_to 11000
  146.2751  140.4710  142.8799 LP  0  0  0  0  0  0  0  0  0  0  0  0  # atno 17320 bound_to 7965
  144.8373  140.6801  143.6252 LP  0  0  0  0  0  0  0  0  0  0  0  0  # atno 17321 bound_to 7965
  140.2401  144.4278  150.6264 LP  0  0  0  0  0  0  0  0  0  0  0  0  # atno 17342 bound_to 10162
  140.6297  143.2186  151.6522 LP  0  0  0  0  0  0  0  0  0  0  0  0  # atno 17343 bound_to 10162
  156.3929  130.3901  149.7016 LP  0  0  0  0  0  0  0  0  0  0  0  0  # atno 17370 bound_to 10713
  156.4360  130.7838  151.2859 LP  0  0  0  0  0  0  0  0  0  0  0  0  # atno 17371 bound_to 10713
  140.2124  134.8818  157.3289 LP  0  0  0  0  0  0  0  0  0  0  0  0  # atno 17394 bound_to 11000
  140.2073  134.4181  155.7631 LP  0  0  0  0  0  0  0  0  0  0  0  0  # atno 17395 bound_to 11000

$$$$
