AV-unprocessed.smi:1047|AV-procd|sdf|4566|dock9
  -GOLD-   22720 3 13D 1   1.00000     0.00000
 Structure written by MMmdl.
 57 59  0  0  0  0  0  0  0  0  3 V2000
  146.1159  130.6482  152.0488 C   0  0  0  0  0  0  0  0  0  0  0  0
  147.0938  131.2697  153.0557 C   0  0  0  0  0  0  0  0  0  0  0  0
  147.8973  132.3719  152.4628 N   0  3  1  0  0  0  0  0  0  0  0  0
  147.0724  133.4776  151.9180 C   0  0  0  0  0  0  0  0  0  0  0  0
  146.5528  134.3896  153.0430 C   0  0  0  0  0  0  0  0  0  0  0  0
  147.6531  134.8845  153.7965 O   0  0  0  0  0  0  0  0  0  0  0  0
  148.3993  133.8508  154.4308 C   0  0  2  0  0  0  0  0  0  0  0  0
  149.4983  134.5310  155.2645 C   0  0  0  0  0  0  0  0  0  0  0  0
  150.0797  135.6994  154.5711 N   0  3  0  0  0  0  0  0  0  0  0  0
  150.0068  136.9539  155.3476 C   0  0  0  0  0  0  0  0  0  0  0  0
  150.8108  138.0792  154.6754 C   0  0  1  0  0  0  0  0  0  0  0  0
  150.4240  138.1594  153.3165 O   0  0  0  0  0  0  0  0  0  0  0  0
  150.5706  139.4399  155.3579 C   0  0  0  0  0  0  0  0  0  0  0  0
  151.3319  139.5912  156.5856 N   0  0  0  0  0  0  0  0  0  0  0  0
  152.1659  138.6887  157.1369 C   0  0  0  0  0  0  0  0  0  0  0  0
  152.7674  139.0291  158.2727 N   0  0  0  0  0  0  0  0  0  0  0  0
  152.2595  140.2987  158.4879 C   0  0  0  0  0  0  0  0  0  0  0  0
  152.4985  141.2158  159.5344 C   0  0  0  0  0  0  0  0  0  0  0  0
  151.8606  142.4765  159.5535 C   0  0  0  0  0  0  0  0  0  0  0  0
  152.1439  143.4300  160.7011 C   0  0  0  0  0  0  0  0  0  0  0  0
  150.9672  142.8362  158.5126 C   0  0  0  0  0  0  0  0  0  0  0  0
  150.2686  144.1846  158.5132 C   0  0  0  0  0  0  0  0  0  0  0  0
  150.7189  141.9328  157.4580 C   0  0  0  0  0  0  0  0  0  0  0  0
  151.3582  140.6802  157.4511 C   0  0  0  0  0  0  0  0  0  0  0  0
  148.9683  132.9095  153.3422 C   0  0  0  0  0  0  0  0  0  0  0  0
  145.4764  129.9146  152.5402 H   0  0  0  0  0  0  0  0  0  0  0  0
  146.6307  130.1336  151.2382 H   0  0  0  0  0  0  0  0  0  0  0  0
  145.4674  131.4070  151.6097 H   0  0  0  0  0  0  0  0  0  0  0  0
  146.5041  131.6679  153.8823 H   0  0  0  0  0  0  0  0  0  0  0  0
  147.7375  130.5017  153.4843 H   0  0  0  0  0  0  0  0  0  0  0  0
  147.6907  134.0638  151.2368 H   0  0  0  0  0  0  0  0  0  0  0  0
  146.2472  133.0876  151.3210 H   0  0  0  0  0  0  0  0  0  0  0  0
  146.0116  135.2348  152.6176 H   0  0  0  0  0  0  0  0  0  0  0  0
  145.8538  133.8619  153.6937 H   0  0  0  0  0  0  0  0  0  0  0  0
  147.7385  133.3041  155.1055 H   0  0  0  0  0  0  0  0  0  0  0  0
  149.1034  134.8369  156.2343 H   0  0  0  0  0  0  0  0  0  0  0  0
  150.2985  133.8155  155.4592 H   0  0  0  0  0  0  0  0  0  0  0  0
  151.0496  135.5094  154.3629 H   0  0  0  0  0  0  0  0  0  0  0  0
  148.9651  137.2542  155.4711 H   0  0  0  0  0  0  0  0  0  0  0  0
  150.4034  136.7626  156.3457 H   0  0  0  0  0  0  0  0  0  0  0  0
  151.8753  137.8439  154.7169 H   0  0  0  0  0  0  0  0  0  0  0  0
  150.1303  137.3048  153.0365 H   0  0  0  0  0  0  0  0  0  0  0  0
  150.8282  140.2571  154.6828 H   0  0  0  0  0  0  0  0  0  0  0  0
  149.5133  139.5591  155.5984 H   0  0  0  0  0  0  0  0  0  0  0  0
  152.3441  137.7279  156.6762 H   0  0  0  0  0  0  0  0  0  0  0  0
  153.1781  140.9410  160.3278 H   0  0  0  0  0  0  0  0  0  0  0  0
  151.2425  143.5906  161.2926 H   0  0  0  0  0  0  0  0  0  0  0  0
  152.4880  144.3935  160.3253 H   0  0  0  0  0  0  0  0  0  0  0  0
  152.9149  143.0369  161.3643 H   0  0  0  0  0  0  0  0  0  0  0  0
  149.5756  144.2744  157.6763 H   0  0  0  0  0  0  0  0  0  0  0  0
  150.9975  144.9910  158.4327 H   0  0  0  0  0  0  0  0  0  0  0  0
  149.7001  144.3215  159.4329 H   0  0  0  0  0  0  0  0  0  0  0  0
  150.0410  142.1966  156.6596 H   0  0  0  0  0  0  0  0  0  0  0  0
  149.5461  132.1013  153.7882 H   0  0  0  0  0  0  0  0  0  0  0  0
  149.6660  133.4656  152.7143 H   0  0  0  0  0  0  0  0  0  0  0  0
  149.5835  135.8424  153.7025 H   0  0  0  0  0  0  0  0  0  0  0  0
  148.3588  131.9574  151.6650 H   0  0  0  0  0  0  0  0  0  0  0  0
  1  2  1  0  0  0  0
  1 26  1  0  0  0  0
  1 27  1  0  0  0  0
  1 28  1  0  0  0  0
  2  3  1  0  0  0  0
  2 29  1  0  0  0  0
  2 30  1  0  0  0  0
  3 25  1  0  0  0  0
  3  4  1  0  0  0  0
  3 57  1  0  0  0  0
  4  5  1  0  0  0  0
  4 31  1  0  0  0  0
  4 32  1  0  0  0  0
  5  6  1  0  0  0  0
  5 33  1  0  0  0  0
  5 34  1  0  0  0  0
  6  7  1  0  0  0  0
  7  8  1  0  0  0  0
  7 25  1  0  0  0  0
  7 35  1  0  0  0  0
  8  9  1  0  0  0  0
  8 36  1  0  0  0  0
  8 37  1  0  0  0  0
  9 10  1  0  0  0  0
  9 38  1  0  0  0  0
  9 56  1  0  0  0  0
 10 11  1  0  0  0  0
 10 39  1  0  0  0  0
 10 40  1  0  0  0  0
 11 12  1  0  0  0  0
 11 13  1  0  0  0  0
 11 41  1  0  0  0  0
 12 42  1  0  0  0  0
 13 14  1  0  0  0  0
 13 43  1  0  0  0  0
 13 44  1  0  0  0  0
 14 24  1  0  0  0  0
 14 15  1  0  0  0  0
 15 16  2  0  0  0  0
 15 45  1  0  0  0  0
 16 17  1  0  0  0  0
 17 24  2  0  0  0  0
 17 18  1  0  0  0  0
 18 19  2  0  0  0  0
 18 46  1  0  0  0  0
 19 20  1  0  0  0  0
 19 21  1  0  0  0  0
 20 47  1  0  0  0  0
 20 48  1  0  0  0  0
 20 49  1  0  0  0  0
 21 22  1  0  0  0  0
 21 23  2  0  0  0  0
 22 50  1  0  0  0  0
 22 51  1  0  0  0  0
 22 52  1  0  0  0  0
 23 24  1  0  0  0  0
 23 53  1  0  0  0  0
 25 54  1  0  0  0  0
 25 55  1  0  0  0  0
M  CHG  1   3   1
M  CHG  1   9   1
M  END
> <s_m_source_file>
AV-unprocessed.smi

> <i_m_source_file_index>
1047

> <i_lp_mmshare_version>
43012

> <i_f3d_flags>
0

> <s_epik_input>
W0NIM11bQ0gyXU4xW0NIMl1bQ0gyXU9bQ0BIXShbQ0gyXTEpW0NIMl1bTkhdW0NIMl1bQ0BIXShbT0hdKVtDSDJdbihbY0hdbjIpYyhjMjMpW2NIXWMoW0NIM10pYyhbY0hdMylbQ0gzXQ==

> <s_epik_cmdline>
J2VwaWtfcHl0aG9uJywgJy1waCcsICc3LjAnLCAnLXRuJywgJzgnLCAnLW1hJywgJzIwMCcsICctbWV0YWxfYmluZGluZycsICctaW1hZScsICc8aW5maWxlLm1hZT4nLCAnLW9tYWUnLCAnPG91dGZpbGUubWFlPic=

> <r_epik_Ionization_Penalty>
0.528991

> <r_epik_Ionization_Penalty_Charging>
0.438567

> <r_epik_Ionization_Penalty_Neutral>
0.0904237

> <r_epik_State_Penalty>
0.533036

> <r_epik_Charging_Adjusted_Penalty>
0.971603

> <i_epik_Tot_Q>
2

> <i_epik_Tot_abs_Q>
2

> <r_epik_Metal_State_Penalty>
0.448985

> <b_epik_Metal_Only>
0

> <s_lp_Force_Field>
OPLS_2005

> <r_lp_Energy>
33.3507

> <b_lp_Chiralities_Consistent>
1

> <s_lp_Variant>
AV-unprocessed.smi:1047-7

> <Gold.Version>
5.8.1

> <Gold.Id.Protein>
6NUR|6NUR_protein|mol2

> <Gold.PLP.Fitness>
60.2641

> <Gold.PLP.PLP>
-46.6728

> <Gold.PLP.part.hbond>
-5.9397

> <Gold.PLP.part.metal>
0.0000

> <Gold.PLP.part.buried>
-5.3603

> <Gold.PLP.part.nonpolar>
-36.1859

> <Gold.PLP.part.repulsive>
1.5135

> <Gold.PLP.ligand.clash>
0.0000

> <Gold.PLP.ligand.torsion>
0.8186

> <Gold.PLP.Chemscore.Hbond>
5.0000

> <Gold.PLP.Chemscore.CHOScore>
0.0000

> <Gold.PLP.Chemscore.Metal>
0.0000

> <Gold.Chemscore.Hbonds>
donor molecule, donor type, donor heavy atom, donor atom, acceptor molecule, acceptor atom, score
      L1  H     3    57       P1 10747  1.00
      L1  H     9    56       P1  7948  2.00
      L1  H    12    42       P1  7948  0.68

> <Gold.PLP.Chemscore.Internal.Correction>
0.2286

> <Gold.Rescore>
     Score         DG    S(hbond)    S(metal)    S(lipo)     H(rot)  DE(clash)    DE(int)     intcor
     21.64     -23.91       3.52        0.00     116.03       2.70       1.38       0.88       ----

> <Gold.Chemscore.Fitness>
21.6430

> <Gold.Chemscore.DG>
-23.9104

> <Gold.Chemscore.ZeroCoef>
-5.4800

> <Gold.Chemscore.Hbond>
3.5218

> <Gold.Chemscore.Metal>
0.0000

> <Gold.Chemscore.Lipo>
116.0324

> <Gold.Chemscore.Internal_Hbond>
0.0000

> <Gold.Chemscore.DEClash>
1.3849

> <Gold.Chemscore.DEInternal>
0.8824

> <Gold.Chemscore.Rot>
2.6985

> <Gold.Chemscore.Internal.Correction>
   9.000000E+99

> <Gold.Chemscore.Hbonds>
donor molecule, donor type, donor heavy atom, donor atom, acceptor molecule, acceptor atom, score
      L1  H     3    57       P1 10747  1.00
      L1  H     9    56       P1  7948  0.30
      L1  H    12    42       P1  7948  0.07

> <Gold.Chemscore.Hbond.Weighted>
-11.7627

> <Gold.Chemscore.Metal.Weighted>
-0.0000

> <Gold.Chemscore.Lipo.Weighted>
-13.5758

> <Gold.Chemscore.Internal_Hbond.Weighted>
0.0000

> <Gold.Chemscore.DEClash.Weighted>
1.3849

> <Gold.Chemscore.DEInternal.Weighted>
0.8824

> <Gold.Chemscore.Rot.Weighted>
6.9081

> <Gold.Chemscore.Internal.Correction.Weighted>
   9.000000E+99

> <Gold.Protein.RotatedTorsions>
[ 6907 6896 6895 6894 ] final -130.68 input  -60.11 | X-H torsion
[ 7974 7965 7964 7962 ] final  163.58 input  175.53 | X-H torsion
[ 8008 7997 7996 7995 ] final  -84.93 input   59.86 | X-H torsion
[ 10167 10162 10161 10158 ] final -171.64 input  -65.29 | X-H torsion
[ 10718 10713 10712 10709 ] final   65.75 input   66.30 | X-H torsion
[ 10763 10752 10751 10750 ] final  121.61 input  -60.55 | X-H torsion
[ 11005 11000 10999 10996 ] final  -19.11 input  -57.11 | X-H torsion

> <Gold.Protein.ActiveResidues>
 VAL166  LYS551  ARG553  GLY616  TRP617  ASP618  TYR619  PRO620  LYS621  CYS622 
 ASP623  PHE694  ASN695  SER759  ASP760  ASP761  ALA762  ILE779  LEU786  VAL792 
 PHE793  MET794  SER795  GLU796  ALA797  LYS798  CYS799  TRP800  GLU811  SER814 

> <Gold.Protein.RotatedAtoms>
  150.9425  133.6640  159.2787 H   0  0  0  0  0  0  0  0  0  0  0  0  # atno 6907 bound_to 6896
  151.4025  135.0972  159.9570 H   0  0  0  0  0  0  0  0  0  0  0  0  # atno 6908 bound_to 6896
  152.5075  133.8916  159.7451 H   0  0  0  0  0  0  0  0  0  0  0  0  # atno 6909 bound_to 6896
  144.7583  139.8203  143.6342 H   0  0  0  0  0  0  0  0  0  0  0  0  # atno 7974 bound_to 7965
  154.6352  140.0598  156.9780 H   0  0  0  0  0  0  0  0  0  0  0  0  # atno 8008 bound_to 7997
  155.1603  140.3282  155.4394 H   0  0  0  0  0  0  0  0  0  0  0  0  # atno 8009 bound_to 7997
  156.2503  140.1932  156.6710 H   0  0  0  0  0  0  0  0  0  0  0  0  # atno 8010 bound_to 7997
  139.5790  144.1466  152.1490 H   0  0  0  0  0  0  0  0  0  0  0  0  # atno 10167 bound_to 10162
  157.6125  130.9231  150.0017 H   0  0  0  0  0  0  0  0  0  0  0  0  # atno 10718 bound_to 10713
  153.6168  135.3420  155.2997 H   0  0  0  0  0  0  0  0  0  0  0  0  # atno 10763 bound_to 10752
  154.8608  135.4263  154.2251 H   0  0  0  0  0  0  0  0  0  0  0  0  # atno 10764 bound_to 10752
  153.3114  135.7032  153.7185 H   0  0  0  0  0  0  0  0  0  0  0  0  # atno 10765 bound_to 10752
  140.8334  133.7980  155.9783 H   0  0  0  0  0  0  0  0  0  0  0  0  # atno 11005 bound_to 11000
  146.1619  139.4736  142.9983 LP  0  0  0  0  0  0  0  0  0  0  0  0  # atno 17320 bound_to 7965
  145.6703  141.0218  143.1661 LP  0  0  0  0  0  0  0  0  0  0  0  0  # atno 17321 bound_to 7965
  140.1015  144.5535  150.6986 LP  0  0  0  0  0  0  0  0  0  0  0  0  # atno 17342 bound_to 10162
  140.7070  143.2476  151.4695 LP  0  0  0  0  0  0  0  0  0  0  0  0  # atno 17343 bound_to 10162
  156.1234  130.3645  149.9850 LP  0  0  0  0  0  0  0  0  0  0  0  0  # atno 17370 bound_to 10713
  156.7925  130.9261  151.3646 LP  0  0  0  0  0  0  0  0  0  0  0  0  # atno 17371 bound_to 10713
  140.8973  134.2421  157.5061 LP  0  0  0  0  0  0  0  0  0  0  0  0  # atno 17394 bound_to 11000
  139.8704  134.9690  156.4651 LP  0  0  0  0  0  0  0  0  0  0  0  0  # atno 17395 bound_to 11000

$$$$
