AV-unprocessed.smi:158|AV-procd|sdf|1332|dock6
  -GOLD-   2262019 33D 1   1.00000     0.00000
 Structure written by MMmdl.
 31 33  0  0  0  0  0  0  0  0  1 V2000
  148.1807  141.1078  152.9835 N   0  0  0  0  0  0  0  0  0  0  0  0
  148.3124  141.4339  154.2770 C   0  0  0  0  0  0  0  0  0  0  0  0
  147.2846  142.0666  154.8890 N   0  0  0  0  0  0  0  0  0  0  0  0
  147.3751  142.4111  156.1796 C   0  0  0  0  0  0  0  0  0  0  0  0
  146.0073  143.2130  156.8572 Cl  0  0  0  0  0  0  0  0  0  0  0  0
  148.4078  142.2047  157.0032 N   0  0  0  0  0  0  0  0  0  0  0  0
  149.4471  141.5668  156.3899 C   0  0  0  0  0  0  0  0  0  0  0  0
  149.4758  141.1482  155.0327 C   0  0  0  0  0  0  0  0  0  0  0  0
  150.6878  140.5318  154.7523 N   0  0  0  0  0  0  0  0  0  0  0  0
  151.3365  140.5854  155.8852 C   0  0  0  0  0  0  0  0  0  0  0  0
  150.6645  141.1922  156.9235 N   0  0  0  0  0  0  0  0  0  0  0  0
  151.1477  141.4020  158.3236 C   0  0  1  0  0  0  0  0  0  0  0  0
  152.4554  140.9224  158.4403 O   0  0  0  0  0  0  0  0  0  0  0  0
  153.2872  141.9027  159.0635 C   0  0  2  0  0  0  0  0  0  0  0  0
  154.2615  141.2042  160.0243 C   0  0  0  0  0  0  0  0  0  0  0  0
  154.8364  140.0697  159.4113 O   0  0  0  0  0  0  0  0  0  0  0  0
  152.2964  142.8626  159.7334 C   0  0  1  0  0  0  0  0  0  0  0  0
  152.8167  144.1570  159.9632 O   0  0  0  0  0  0  0  0  0  0  0  0
  151.1649  142.8805  158.7247 C   0  0  1  0  0  0  0  0  0  0  0  0
  151.4728  143.6383  157.6674 F   0  0  0  0  0  0  0  0  0  0  0  0
  150.4858  140.7999  158.9474 H   0  0  0  0  0  0  0  0  0  0  0  0
  153.8349  142.4163  158.2710 H   0  0  0  0  0  0  0  0  0  0  0  0
  151.9421  142.4430  160.6761 H   0  0  0  0  0  0  0  0  0  0  0  0
  150.2033  143.2049  159.1233 H   0  0  0  0  0  0  0  0  0  0  0  0
  148.9342  140.6356  152.5047 H   0  0  0  0  0  0  0  0  0  0  0  0
  147.3298  141.3358  152.4900 H   0  0  0  0  0  0  0  0  0  0  0  0
  152.3318  140.1801  155.9952 H   0  0  0  0  0  0  0  0  0  0  0  0
  155.0492  141.8851  160.3484 H   0  0  0  0  0  0  0  0  0  0  0  0
  153.7309  140.8765  160.9187 H   0  0  0  0  0  0  0  0  0  0  0  0
  155.2655  139.5538  160.0769 H   0  0  0  0  0  0  0  0  0  0  0  0
  153.4464  144.1049  160.6665 H   0  0  0  0  0  0  0  0  0  0  0  0
  1  2  1  0  0  0  0
  1 25  1  0  0  0  0
  1 26  1  0  0  0  0
  2  8  1  0  0  0  0
  2  3  2  0  0  0  0
  3  4  1  0  0  0  0
  4  5  1  0  0  0  0
  4  6  2  0  0  0  0
  6  7  1  0  0  0  0
  7 11  1  0  0  0  0
  7  8  2  0  0  0  0
  8  9  1  0  0  0  0
  9 10  2  0  0  0  0
 10 11  1  0  0  0  0
 10 27  1  0  0  0  0
 11 12  1  0  0  0  0
 12 21  1  0  0  0  0
 12 19  1  0  0  0  0
 12 13  1  0  0  0  0
 13 14  1  0  0  0  0
 14 22  1  0  0  0  0
 14 15  1  0  0  0  0
 14 17  1  0  0  0  0
 15 16  1  0  0  0  0
 15 28  1  0  0  0  0
 15 29  1  0  0  0  0
 16 30  1  0  0  0  0
 17 23  1  0  0  0  0
 17 18  1  0  0  0  0
 17 19  1  0  0  0  0
 18 31  1  0  0  0  0
 19 24  1  0  0  0  0
 19 20  1  0  0  0  0
M  END
> <s_m_source_file>
AV-unprocessed.smi

> <i_m_source_file_index>
158

> <i_lp_mmshare_version>
43012

> <i_f3d_flags>
0

> <s_epik_input>
Q2xjKG4xKW5jKFtOSDJdKWMoYzEyKW5bY0hdbjJbQ0BASF0zT1tDQEhdKFtDSDJdW09IXSlbQ0BASF0oW09IXSlbQ0BASF0zRg==

> <s_epik_cmdline>
J2VwaWtfcHl0aG9uJywgJy1waCcsICc3LjAnLCAnLXRuJywgJzgnLCAnLW1hJywgJzIwMCcsICctbWV0YWxfYmluZGluZycsICctaW1hZScsICc8aW5maWxlLm1hZT4nLCAnLW9tYWUnLCAnPG91dGZpbGUubWFlPic=

> <r_lp_tautomer_probability>
1

> <r_epik_Ionization_Penalty>
6.51543e-05

> <r_epik_Ionization_Penalty_Charging>
0

> <r_epik_Ionization_Penalty_Neutral>
6.51543e-05

> <r_epik_State_Penalty>
-0

> <r_epik_Charging_Adjusted_Penalty>
0

> <i_epik_Tot_Q>
0

> <i_epik_Tot_abs_Q>
0

> <r_epik_Metal_State_Penalty>
-0

> <b_epik_Metal_Only>
0

> <s_epik_Chemistry_Notes>
This compound contains an acetal/aminal-like group ( X-CH(R)-Y where X, Y are N, S, or O) that may be acid/base labile, releasing an aldehyde.

> <s_lp_Force_Field>
OPLS_2005

> <r_lp_Energy>
35.9633

> <b_lp_Chiralities_Consistent>
1

> <s_lp_Variant>
AV-unprocessed.smi:158-10

> <Gold.Version>
5.8.1

> <Gold.Id.Protein>
6NUR|6NUR_protein|mol2

> <Gold.PLP.Fitness>
41.5231

> <Gold.PLP.PLP>
-32.9389

> <Gold.PLP.part.hbond>
-3.0000

> <Gold.PLP.part.metal>
0.0000

> <Gold.PLP.part.buried>
-4.1941

> <Gold.PLP.part.nonpolar>
-25.7949

> <Gold.PLP.part.repulsive>
0.4884

> <Gold.PLP.ligand.clash>
0.0000

> <Gold.PLP.ligand.torsion>
0.1377

> <Gold.PLP.Chemscore.Hbond>
2.9520

> <Gold.PLP.Chemscore.CHOScore>
0.0000

> <Gold.PLP.Chemscore.Metal>
0.0000

> <Gold.Chemscore.Hbonds>
donor molecule, donor type, donor heavy atom, donor atom, acceptor molecule, acceptor atom, score
      L1  H     1    25       P1  7957  1.00
      P1  H  7989  7998       L1     9  1.00
      P1  H  7997  8008       L1    16  0.80

> <Gold.PLP.Chemscore.Internal.Correction>
0.0037

> <Gold.Rescore>
     Score         DG    S(hbond)    S(metal)    S(lipo)     H(rot)  DE(clash)    DE(int)     intcor
     11.84     -11.92       2.71        0.00      45.91       3.12       0.01       0.08       ----

> <Gold.Chemscore.Fitness>
11.8403

> <Gold.Chemscore.DG>
-11.9243

> <Gold.Chemscore.ZeroCoef>
-5.4800

> <Gold.Chemscore.Hbond>
2.7148

> <Gold.Chemscore.Metal>
0.0000

> <Gold.Chemscore.Lipo>
45.9128

> <Gold.Chemscore.Internal_Hbond>
0.0000

> <Gold.Chemscore.DEClash>
0.0081

> <Gold.Chemscore.DEInternal>
0.0759

> <Gold.Chemscore.Rot>
3.1230

> <Gold.Chemscore.Internal.Correction>
   9.000000E+99

> <Gold.Chemscore.Hbonds>
donor molecule, donor type, donor heavy atom, donor atom, acceptor molecule, acceptor atom, score
      L1  H     1    25       P1  7957  0.93
      P1  H  7989  7998       L1     9  0.77
      P1  H  7997  8008       L1    16  0.75

> <Gold.Chemscore.Hbond.Weighted>
-9.0675

> <Gold.Chemscore.Metal.Weighted>
-0.0000

> <Gold.Chemscore.Lipo.Weighted>
-5.3718

> <Gold.Chemscore.Internal_Hbond.Weighted>
0.0000

> <Gold.Chemscore.DEClash.Weighted>
0.0081

> <Gold.Chemscore.DEInternal.Weighted>
0.0759

> <Gold.Chemscore.Rot.Weighted>
7.9950

> <Gold.Chemscore.Internal.Correction.Weighted>
   9.000000E+99

> <Gold.Protein.RotatedTorsions>
[ 6907 6896 6895 6894 ] final   41.28 input  -60.11 | X-H torsion
[ 7974 7965 7964 7962 ] final  162.12 input  175.53 | X-H torsion
[ 8008 7997 7996 7995 ] final -133.11 input   59.86 | X-H torsion
[ 10167 10162 10161 10158 ] final  159.09 input  -65.29 | X-H torsion
[ 10718 10713 10712 10709 ] final -116.86 input   66.30 | X-H torsion
[ 10763 10752 10751 10750 ] final  102.60 input  -60.55 | X-H torsion
[ 11005 11000 10999 10996 ] final -129.44 input  -57.11 | X-H torsion

> <Gold.Protein.ActiveResidues>
 VAL166  LYS551  ARG553  GLY616  TRP617  ASP618  TYR619  PRO620  LYS621  CYS622 
 ASP623  PHE694  ASN695  SER759  ASP760  ASP761  ALA762  ILE779  LEU786  VAL792 
 PHE793  MET794  SER795  GLU796  ALA797  LYS798  CYS799  TRP800  GLU811  SER814 

> <Gold.Protein.RotatedAtoms>
  152.1932  134.8653  160.0515 H   0  0  0  0  0  0  0  0  0  0  0  0  # atno 6907 bound_to 6896
  151.9534  133.3668  159.4016 H   0  0  0  0  0  0  0  0  0  0  0  0  # atno 6908 bound_to 6896
  150.6939  134.4240  159.5262 H   0  0  0  0  0  0  0  0  0  0  0  0  # atno 6909 bound_to 6896
  144.7652  139.7995  143.6318 H   0  0  0  0  0  0  0  0  0  0  0  0  # atno 7974 bound_to 7965
  155.3400  140.0471  157.3044 H   0  0  0  0  0  0  0  0  0  0  0  0  # atno 8008 bound_to 7997
  154.5282  140.2248  155.8816 H   0  0  0  0  0  0  0  0  0  0  0  0  # atno 8009 bound_to 7997
  156.1762  140.3084  155.9069 H   0  0  0  0  0  0  0  0  0  0  0  0  # atno 8010 bound_to 7997
  139.4830  144.4763  151.8507 H   0  0  0  0  0  0  0  0  0  0  0  0  # atno 10167 bound_to 10162
  156.0993  130.6159  150.9090 H   0  0  0  0  0  0  0  0  0  0  0  0  # atno 10718 bound_to 10713
  153.3416  135.4005  155.1576 H   0  0  0  0  0  0  0  0  0  0  0  0  # atno 10763 bound_to 10752
  154.8645  135.3635  154.5338 H   0  0  0  0  0  0  0  0  0  0  0  0  # atno 10764 bound_to 10752
  153.5783  135.7077  153.5534 H   0  0  0  0  0  0  0  0  0  0  0  0  # atno 10765 bound_to 10752
  140.9431  134.1166  157.4132 H   0  0  0  0  0  0  0  0  0  0  0  0  # atno 11005 bound_to 11000
  146.1752  139.4920  142.9902 LP  0  0  0  0  0  0  0  0  0  0  0  0  # atno 17320 bound_to 7965
  145.6493  141.0267  143.1769 LP  0  0  0  0  0  0  0  0  0  0  0  0  # atno 17321 bound_to 7965
  140.4235  144.2211  150.5887 LP  0  0  0  0  0  0  0  0  0  0  0  0  # atno 17342 bound_to 10162
  140.4850  143.2366  151.8901 LP  0  0  0  0  0  0  0  0  0  0  0  0  # atno 17343 bound_to 10162
  157.6160  131.0933  150.8709 LP  0  0  0  0  0  0  0  0  0  0  0  0  # atno 17370 bound_to 10713
  156.8840  130.5189  149.5289 LP  0  0  0  0  0  0  0  0  0  0  0  0  # atno 17371 bound_to 10713
  139.8826  135.0043  156.6240 LP  0  0  0  0  0  0  0  0  0  0  0  0  # atno 17394 bound_to 11000
  140.7706  133.8741  155.8489 LP  0  0  0  0  0  0  0  0  0  0  0  0  # atno 17395 bound_to 11000

$$$$
