AV-unprocessed.smi:2501|AV-procd|sdf|9843|dock4
  -GOLD-   2272013463D 1   1.00000     0.00000
 Structure written by MMmdl.
 43 44  0  0  0  0  0  0  0  0  1 V2000
  153.8028  141.5536  160.3356 C   0  0  0  0  0  0  0  0  0  0  0  0
  152.8619  142.1737  159.3178 C   0  0  0  0  0  0  0  0  0  0  0  0
  152.8946  143.5672  159.0918 C   0  0  0  0  0  0  0  0  0  0  0  0
  152.0967  144.2002  158.2061 N   0  0  0  0  0  0  0  0  0  0  0  0
  151.2210  143.4538  157.5021 C   0  0  0  0  0  0  0  0  0  0  0  0
  151.1035  142.0580  157.6471 C   0  0  0  0  0  0  0  0  0  0  0  0
  151.9397  141.3978  158.5719 C   0  0  0  0  0  0  0  0  0  0  0  0
  151.8231  139.8909  158.7397 C   0  0  0  0  0  0  0  0  0  0  0  0
  152.0674  139.1373  157.4250 C   0  0  0  0  0  0  0  0  0  0  0  0
  150.8595  139.1276  156.6108 N   0  0  0  0  0  0  0  0  0  0  0  0
  150.7213  139.7546  155.4313 C   0  0  0  0  0  0  0  0  0  0  0  0
  151.6389  140.4012  154.9242 O   0  0  0  0  0  0  0  0  0  0  0  0
  149.5016  139.6151  154.8521 N   0  0  0  0  0  0  0  0  0  0  0  0
  148.4020  138.7559  155.3204 C   0  0  0  0  0  0  0  0  0  0  0  0
  147.3032  139.6449  155.9338 C   0  0  0  0  0  0  0  0  0  0  0  0
  146.8056  140.7337  154.9472 C   0  0  0  0  0  0  0  0  0  0  0  0
  146.0662  140.0852  153.9268 O   0  0  0  0  0  0  0  0  0  0  0  0
  145.8464  141.7331  155.6376 C   0  0  0  0  0  0  0  0  0  0  0  0
  145.4846  142.6893  154.7814 F   0  0  0  0  0  0  0  0  0  0  0  0
  144.7430  141.1140  156.0596 F   0  0  0  0  0  0  0  0  0  0  0  0
  146.4456  142.3135  156.6787 F   0  0  0  0  0  0  0  0  0  0  0  0
  148.0001  141.4582  154.2741 C   0  0  0  0  0  0  0  0  0  0  0  0
  149.0618  140.4734  153.7465 C   0  0  0  0  0  0  0  0  0  0  0  0
  154.3605  142.3200  160.8747 H   0  0  0  0  0  0  0  0  0  0  0  0
  154.5226  140.9014  159.8405 H   0  0  0  0  0  0  0  0  0  0  0  0
  153.2506  140.9679  161.0701 H   0  0  0  0  0  0  0  0  0  0  0  0
  153.5830  144.1964  159.6368 H   0  0  0  0  0  0  0  0  0  0  0  0
  150.5938  143.9850  156.8016 H   0  0  0  0  0  0  0  0  0  0  0  0
  150.3836  141.5081  157.0587 H   0  0  0  0  0  0  0  0  0  0  0  0
  152.5471  139.5659  159.4883 H   0  0  0  0  0  0  0  0  0  0  0  0
  150.8441  139.6369  159.1465 H   0  0  0  0  0  0  0  0  0  0  0  0
  152.8859  139.6038  156.8749 H   0  0  0  0  0  0  0  0  0  0  0  0
  152.3644  138.1077  157.6287 H   0  0  0  0  0  0  0  0  0  0  0  0
  150.0691  138.6114  156.9688 H   0  0  0  0  0  0  0  0  0  0  0  0
  148.0019  138.1952  154.4744 H   0  0  0  0  0  0  0  0  0  0  0  0
  148.7087  137.9981  156.0413 H   0  0  0  0  0  0  0  0  0  0  0  0
  146.4703  139.0260  156.2695 H   0  0  0  0  0  0  0  0  0  0  0  0
  147.7051  140.1209  156.8289 H   0  0  0  0  0  0  0  0  0  0  0  0
  145.1649  140.3629  153.9884 H   0  0  0  0  0  0  0  0  0  0  0  0
  147.6495  142.0953  153.4612 H   0  0  0  0  0  0  0  0  0  0  0  0
  148.4749  142.1240  154.9959 H   0  0  0  0  0  0  0  0  0  0  0  0
  149.8833  141.0253  153.2879 H   0  0  0  0  0  0  0  0  0  0  0  0
  148.6449  139.8562  152.9495 H   0  0  0  0  0  0  0  0  0  0  0  0
  1  2  1  0  0  0  0
  1 24  1  0  0  0  0
  1 25  1  0  0  0  0
  1 26  1  0  0  0  0
  2  7  1  0  0  0  0
  2  3  2  0  0  0  0
  3  4  1  0  0  0  0
  3 27  1  0  0  0  0
  4  5  2  0  0  0  0
  5  6  1  0  0  0  0
  5 28  1  0  0  0  0
  6  7  2  0  0  0  0
  6 29  1  0  0  0  0
  7  8  1  0  0  0  0
  8  9  1  0  0  0  0
  8 30  1  0  0  0  0
  8 31  1  0  0  0  0
  9 10  1  0  0  0  0
  9 32  1  0  0  0  0
  9 33  1  0  0  0  0
 10 11  1  0  0  0  0
 10 34  1  0  0  0  0
 11 12  2  0  0  0  0
 11 13  1  0  0  0  0
 13 23  1  0  0  0  0
 13 14  1  0  0  0  0
 14 15  1  0  0  0  0
 14 35  1  0  0  0  0
 14 36  1  0  0  0  0
 15 16  1  0  0  0  0
 15 37  1  0  0  0  0
 15 38  1  0  0  0  0
 16 17  1  0  0  0  0
 16 18  1  0  0  0  0
 16 22  1  0  0  0  0
 17 39  1  0  0  0  0
 18 19  1  0  0  0  0
 18 20  1  0  0  0  0
 18 21  1  0  0  0  0
 22 23  1  0  0  0  0
 22 40  1  0  0  0  0
 22 41  1  0  0  0  0
 23 42  1  0  0  0  0
 23 43  1  0  0  0  0
M  END
> <s_m_source_file>
AV-unprocessed.smi

> <i_m_source_file_index>
2501

> <i_lp_mmshare_version>
43012

> <i_f3d_flags>
0

> <s_epik_input>
W0NIM11jMVtjSF1uW2NIXVtjSF1jMVtDSDJdW0NIMl1bTkhdQyg9TylOKFtDSDJdW0NIMl0yKVtDSDJdW0NIMl1DMihbT0hdKUMoRikoRilG

> <s_epik_cmdline>
J2VwaWtfcHl0aG9uJywgJy1waCcsICc3LjAnLCAnLXRuJywgJzgnLCAnLW1hJywgJzIwMCcsICctbWV0YWxfYmluZGluZycsICctaW1hZScsICc8aW5maWxlLm1hZT4nLCAnLW9tYWUnLCAnPG91dGZpbGUubWFlPic=

> <r_epik_Ionization_Penalty>
0.105852

> <r_epik_Ionization_Penalty_Charging>
0

> <r_epik_Ionization_Penalty_Neutral>
0.105852

> <r_epik_State_Penalty>
0.0956543

> <r_epik_Charging_Adjusted_Penalty>
0.0956543

> <i_epik_Tot_Q>
0

> <i_epik_Tot_abs_Q>
0

> <r_epik_Metal_State_Penalty>
0.0810448

> <b_epik_Metal_Only>
0

> <s_lp_Force_Field>
OPLS_2005

> <r_lp_Energy>
37.1862

> <b_lp_Chiralities_Consistent>
1

> <s_lp_Variant>
AV-unprocessed.smi:2501-1

> <Gold.Version>
5.8.1

> <Gold.Id.Protein>
6NUR|6NUR_protein|mol2

> <Gold.PLP.Fitness>
47.8440

> <Gold.PLP.PLP>
-40.0252

> <Gold.PLP.part.hbond>
-2.0000

> <Gold.PLP.part.metal>
0.0000

> <Gold.PLP.part.buried>
-0.5958

> <Gold.PLP.part.nonpolar>
-37.4642

> <Gold.PLP.part.repulsive>
0.1209

> <Gold.PLP.ligand.clash>
0.0000

> <Gold.PLP.ligand.torsion>
0.2633

> <Gold.PLP.Chemscore.Hbond>
1.7600

> <Gold.PLP.Chemscore.CHOScore>
1.0000

> <Gold.PLP.Chemscore.Metal>
0.0000

> <Gold.Chemscore.Hbonds>
donor molecule, donor type, donor heavy atom, donor atom, acceptor molecule, acceptor atom, score
      L1  H    17    39       P1 10175  0.47
      P1  H  7989  7998       L1    12  0.80
      L1  C     5    28       P1  8028  1.00

> <Gold.PLP.Chemscore.Internal.Correction>
0.0654

> <Gold.Rescore>
     Score         DG    S(hbond)    S(metal)    S(lipo)     H(rot)  DE(clash)    DE(int)     intcor
     16.19     -18.20       1.83        0.00      99.16       1.95       1.82       0.19       ----

> <Gold.Chemscore.Fitness>
16.1880

> <Gold.Chemscore.DG>
-18.2025

> <Gold.Chemscore.ZeroCoef>
-5.4800

> <Gold.Chemscore.Hbond>
1.8299

> <Gold.Chemscore.Metal>
0.0000

> <Gold.Chemscore.Lipo>
99.1569

> <Gold.Chemscore.Internal_Hbond>
0.0000

> <Gold.Chemscore.DEClash>
1.8211

> <Gold.Chemscore.DEInternal>
0.1933

> <Gold.Chemscore.Rot>
1.9495

> <Gold.Chemscore.Internal.Correction>
   9.000000E+99

> <Gold.Chemscore.Hbonds>
donor molecule, donor type, donor heavy atom, donor atom, acceptor molecule, acceptor atom, score
      L1  H    17    39       P1 10175  0.46
      P1  H  7989  7998       L1    12  0.77

> <Gold.Chemscore.Hbond.Weighted>
-6.1118

> <Gold.Chemscore.Metal.Weighted>
-0.0000

> <Gold.Chemscore.Lipo.Weighted>
-11.6014

> <Gold.Chemscore.Internal_Hbond.Weighted>
0.0000

> <Gold.Chemscore.DEClash.Weighted>
1.8211

> <Gold.Chemscore.DEInternal.Weighted>
0.1933

> <Gold.Chemscore.Rot.Weighted>
4.9907

> <Gold.Chemscore.Internal.Correction.Weighted>
   9.000000E+99

> <Gold.Protein.RotatedTorsions>
[ 6907 6896 6895 6894 ] final   50.40 input  -60.11 | X-H torsion
[ 7974 7965 7964 7962 ] final   17.29 input  175.53 | X-H torsion
[ 8008 7997 7996 7995 ] final  102.84 input   59.86 | X-H torsion
[ 10167 10162 10161 10158 ] final -161.71 input  -65.29 | X-H torsion
[ 10718 10713 10712 10709 ] final  -23.91 input   66.30 | X-H torsion
[ 10763 10752 10751 10750 ] final  158.57 input  -60.55 | X-H torsion
[ 11005 11000 10999 10996 ] final   50.31 input  -57.11 | X-H torsion

> <Gold.Protein.ActiveResidues>
 VAL166  LYS551  ARG553  GLY616  TRP617  ASP618  TYR619  PRO620  LYS621  CYS622 
 ASP623  PHE694  ASN695  SER759  ASP760  ASP761  ALA762  ILE779  LEU786  VAL792 
 PHE793  MET794  SER795  GLU796  ALA797  LYS798  CYS799  TRP800  GLU811  SER814 

> <Gold.Protein.RotatedAtoms>
  152.3014  134.7606  160.0356 H   0  0  0  0  0  0  0  0  0  0  0  0  # atno 6907 bound_to 6896
  151.8118  133.3377  159.3566 H   0  0  0  0  0  0  0  0  0  0  0  0  # atno 6908 bound_to 6896
  150.7275  134.5586  159.5875 H   0  0  0  0  0  0  0  0  0  0  0  0  # atno 6909 bound_to 6896
  146.2223  139.8623  142.8602 H   0  0  0  0  0  0  0  0  0  0  0  0  # atno 7974 bound_to 7965
  156.1430  140.3174  155.8525 H   0  0  0  0  0  0  0  0  0  0  0  0  # atno 8008 bound_to 7997
  155.4118  140.0506  157.3048 H   0  0  0  0  0  0  0  0  0  0  0  0  # atno 8009 bound_to 7997
  154.4992  140.2123  155.9394 H   0  0  0  0  0  0  0  0  0  0  0  0  # atno 8010 bound_to 7997
  139.6445  144.0197  152.2117 H   0  0  0  0  0  0  0  0  0  0  0  0  # atno 10167 bound_to 10162
  156.4847  130.4553  149.6791 H   0  0  0  0  0  0  0  0  0  0  0  0  # atno 10718 bound_to 10713
  154.2182  135.2783  155.2934 H   0  0  0  0  0  0  0  0  0  0  0  0  # atno 10763 bound_to 10752
  154.5723  135.5614  153.7110 H   0  0  0  0  0  0  0  0  0  0  0  0  # atno 10764 bound_to 10752
  153.0048  135.6324  154.2322 H   0  0  0  0  0  0  0  0  0  0  0  0  # atno 10765 bound_to 10752
  140.1028  134.5058  155.8747 H   0  0  0  0  0  0  0  0  0  0  0  0  # atno 11005 bound_to 11000
  145.2692  141.0103  143.3782 LP  0  0  0  0  0  0  0  0  0  0  0  0  # atno 17320 bound_to 7965
  144.9237  139.4381  143.6528 LP  0  0  0  0  0  0  0  0  0  0  0  0  # atno 17321 bound_to 7965
  139.9895  144.6371  150.7827 LP  0  0  0  0  0  0  0  0  0  0  0  0  # atno 17342 bound_to 10162
  140.7508  143.2961  151.3201 LP  0  0  0  0  0  0  0  0  0  0  0  0  # atno 17343 bound_to 10162
  156.3486  130.7420  151.2376 LP  0  0  0  0  0  0  0  0  0  0  0  0  # atno 17370 bound_to 10713
  157.7480  131.0383  150.4498 LP  0  0  0  0  0  0  0  0  0  0  0  0  # atno 17371 bound_to 10713
  141.2110  133.6701  156.6552 LP  0  0  0  0  0  0  0  0  0  0  0  0  # atno 17394 bound_to 11000
  140.3196  134.8018  157.4242 LP  0  0  0  0  0  0  0  0  0  0  0  0  # atno 17395 bound_to 11000

$$$$
