AV-unprocessed.smi:2639|AV-procd|sdf|10267|dock3
  -GOLD-   2272014273D 1   1.00000     0.00000
 Structure written by MMmdl.
 44 45  0  0  0  0  0  0  0  0  2 V2000
  143.6480  136.7159  152.0932 C   0  0  0  0  0  0  0  0  0  0  0  0
  144.8655  135.8130  152.4213 C   0  0  2  0  0  0  0  0  0  0  0  0
  144.6218  135.0951  153.7769 C   0  0  0  0  0  0  0  0  0  0  0  0
  143.2849  134.6521  153.9139 O   0  0  0  0  0  0  0  0  0  0  0  0
  146.0612  136.6517  152.6088 N   0  0  0  0  0  0  0  0  0  0  0  0
  146.1691  137.8406  153.2264 C   0  0  0  0  0  0  0  0  0  0  0  0
  145.2262  138.4373  153.7446 O   0  0  0  0  0  0  0  0  0  0  0  0
  147.4419  138.2722  153.2139 N   0  0  0  0  0  0  0  0  0  0  0  0
  147.9716  139.4871  153.7278 C   0  0  0  0  0  0  0  0  0  0  0  0
  147.1635  140.6424  153.6369 C   0  0  0  0  0  0  0  0  0  0  0  0
  147.6393  141.8665  154.1495 C   0  0  0  0  0  0  0  0  0  0  0  0
  148.8562  141.9243  154.7316 N   0  3  0  0  0  0  0  0  0  0  0  0
  149.6582  140.8449  154.8550 C   0  0  0  0  0  0  0  0  0  0  0  0
  149.2364  139.5937  154.3607 C   0  0  0  0  0  0  0  0  0  0  0  0
  145.1109  134.7740  151.2673 C   0  0  0  0  0  0  0  0  0  0  0  0
  143.8849  133.8867  150.9306 C   0  0  0  0  0  0  0  0  0  0  0  0
  144.1503  132.9843  149.7144 C   0  0  0  0  0  0  0  0  0  0  0  0
  145.3899  132.1058  149.9325 C   0  0  0  0  0  0  0  0  0  0  0  0
  146.6176  132.9649  150.2640 C   0  0  0  0  0  0  0  0  0  0  0  0
  146.3546  133.8697  151.4785 C   0  0  0  0  0  0  0  0  0  0  0  0
  142.7075  136.1737  152.1896 H   0  0  0  0  0  0  0  0  0  0  0  0
  143.6913  137.1084  151.0773 H   0  0  0  0  0  0  0  0  0  0  0  0
  143.5886  137.5712  152.7674 H   0  0  0  0  0  0  0  0  0  0  0  0
  145.2600  134.2183  153.8780 H   0  0  0  0  0  0  0  0  0  0  0  0
  144.8445  135.7491  154.6198 H   0  0  0  0  0  0  0  0  0  0  0  0
  143.2934  133.7843  154.2881 H   0  0  0  0  0  0  0  0  0  0  0  0
  146.9129  136.2602  152.2340 H   0  0  0  0  0  0  0  0  0  0  0  0
  148.1214  137.6301  152.8327 H   0  0  0  0  0  0  0  0  0  0  0  0
  146.1883  140.5962  153.1738 H   0  0  0  0  0  0  0  0  0  0  0  0
  147.0857  142.7935  154.1136 H   0  0  0  0  0  0  0  0  0  0  0  0
  150.6046  141.0109  155.3486 H   0  0  0  0  0  0  0  0  0  0  0  0
  149.8849  138.7407  154.4885 H   0  0  0  0  0  0  0  0  0  0  0  0
  145.3067  135.3503  150.3626 H   0  0  0  0  0  0  0  0  0  0  0  0
  143.6243  133.2566  151.7806 H   0  0  0  0  0  0  0  0  0  0  0  0
  143.0093  134.4984  150.7176 H   0  0  0  0  0  0  0  0  0  0  0  0
  143.2800  132.3562  149.5219 H   0  0  0  0  0  0  0  0  0  0  0  0
  144.2892  133.5996  148.8244 H   0  0  0  0  0  0  0  0  0  0  0  0
  145.2033  131.4027  150.7452 H   0  0  0  0  0  0  0  0  0  0  0  0
  145.5840  131.5064  149.0426 H   0  0  0  0  0  0  0  0  0  0  0  0
  147.4770  132.3230  150.4590 H   0  0  0  0  0  0  0  0  0  0  0  0
  146.8794  133.5782  149.4009 H   0  0  0  0  0  0  0  0  0  0  0  0
  147.2477  134.4670  151.6601 H   0  0  0  0  0  0  0  0  0  0  0  0
  146.2202  133.2425  152.3595 H   0  0  0  0  0  0  0  0  0  0  0  0
  149.1815  142.8194  155.0983 H   0  0  0  0  0  0  0  0  0  0  0  0
  1  2  1  0  0  0  0
  1 21  1  0  0  0  0
  1 22  1  0  0  0  0
  1 23  1  0  0  0  0
  2  3  1  0  0  0  0
  2  5  1  0  0  0  0
  2 15  1  0  0  0  0
  3  4  1  0  0  0  0
  3 24  1  0  0  0  0
  3 25  1  0  0  0  0
  4 26  1  0  0  0  0
  5  6  1  0  0  0  0
  5 27  1  0  0  0  0
  6  7  2  0  0  0  0
  6  8  1  0  0  0  0
  8  9  1  0  0  0  0
  8 28  1  0  0  0  0
  9 14  1  0  0  0  0
  9 10  2  0  0  0  0
 10 11  1  0  0  0  0
 10 29  1  0  0  0  0
 11 12  2  0  0  0  0
 11 30  1  0  0  0  0
 12 13  1  0  0  0  0
 12 44  1  0  0  0  0
 13 14  2  0  0  0  0
 13 31  1  0  0  0  0
 14 32  1  0  0  0  0
 15 20  1  0  0  0  0
 15 16  1  0  0  0  0
 15 33  1  0  0  0  0
 16 17  1  0  0  0  0
 16 34  1  0  0  0  0
 16 35  1  0  0  0  0
 17 18  1  0  0  0  0
 17 36  1  0  0  0  0
 17 37  1  0  0  0  0
 18 19  1  0  0  0  0
 18 38  1  0  0  0  0
 18 39  1  0  0  0  0
 19 20  1  0  0  0  0
 19 40  1  0  0  0  0
 19 41  1  0  0  0  0
 20 42  1  0  0  0  0
 20 43  1  0  0  0  0
M  CHG  1  12   1
M  END
> <s_m_source_file>
AV-unprocessed.smi

> <i_m_source_file_index>
2639

> <i_lp_mmshare_version>
43012

> <i_f3d_flags>
0

> <s_epik_input>
W0NIMl0xW0NIMl1bQ0gyXVtDSDJdW0NIMl1bQ0hdMVtDQF0oW0NIM10pKFtDSDJdW09IXSlbTkhdQyg9TylbTkhdYzJbY0hdW2NIXW5bY0hdW2NIXTI=

> <s_epik_cmdline>
J2VwaWtfcHl0aG9uJywgJy1waCcsICc3LjAnLCAnLXRuJywgJzgnLCAnLW1hJywgJzIwMCcsICctbWV0YWxfYmluZGluZycsICctaW1hZScsICc8aW5maWxlLm1hZT4nLCAnLW9tYWUnLCAnPG91dGZpbGUubWFlPic=

> <r_epik_Ionization_Penalty>
1.0096

> <r_epik_Ionization_Penalty_Charging>
1.00958

> <r_epik_Ionization_Penalty_Neutral>
2.00022e-05

> <r_epik_State_Penalty>
1.05889

> <r_epik_Charging_Adjusted_Penalty>
2.06847

> <i_epik_Tot_Q>
1

> <i_epik_Tot_abs_Q>
1

> <r_epik_Metal_State_Penalty>
1.15945

> <b_epik_Metal_Only>
0

> <s_lp_Force_Field>
OPLS_2005

> <r_lp_Energy>
31.9269

> <b_lp_Chiralities_Consistent>
1

> <s_lp_Variant>
AV-unprocessed.smi:2639-4

> <Gold.Version>
5.8.1

> <Gold.Id.Protein>
6NUR|6NUR_protein|mol2

> <Gold.PLP.Fitness>
48.6405

> <Gold.PLP.PLP>
-35.5615

> <Gold.PLP.part.hbond>
-4.0000

> <Gold.PLP.part.metal>
0.0000

> <Gold.PLP.part.buried>
-3.0403

> <Gold.PLP.part.nonpolar>
-29.0506

> <Gold.PLP.part.repulsive>
0.8528

> <Gold.PLP.ligand.clash>
0.0000

> <Gold.PLP.ligand.torsion>
0.9794

> <Gold.PLP.Chemscore.Hbond>
4.9913

> <Gold.PLP.Chemscore.CHOScore>
0.0000

> <Gold.PLP.Chemscore.Metal>
0.0000

> <Gold.Chemscore.Hbonds>
donor molecule, donor type, donor heavy atom, donor atom, acceptor molecule, acceptor atom, score
      L1  H     4    26       P1 10957  0.65
      L1  H     5    27       P1  7948  0.93
      L1  H     8    28       P1  7948  1.00
      L1  H    12    44       P1  8028  2.00

> <Gold.PLP.Chemscore.Internal.Correction>
0.0640

> <Gold.Rescore>
     Score         DG    S(hbond)    S(metal)    S(lipo)     H(rot)  DE(clash)    DE(int)     intcor
     19.30     -23.65       3.82        0.00      90.35       2.02       0.81       3.54       ----

> <Gold.Chemscore.Fitness>
19.3037

> <Gold.Chemscore.DG>
-23.6518

> <Gold.Chemscore.ZeroCoef>
-5.4800

> <Gold.Chemscore.Hbond>
3.8211

> <Gold.Chemscore.Metal>
0.0000

> <Gold.Chemscore.Lipo>
90.3544

> <Gold.Chemscore.Internal_Hbond>
0.0000

> <Gold.Chemscore.DEClash>
0.8092

> <Gold.Chemscore.DEInternal>
3.5389

> <Gold.Chemscore.Rot>
2.0165

> <Gold.Chemscore.Internal.Correction>
   9.000000E+99

> <Gold.Chemscore.Hbonds>
donor molecule, donor type, donor heavy atom, donor atom, acceptor molecule, acceptor atom, score
      L1  H     4    26       P1 10957  0.64
      L1  H     5    27       P1  7948  0.87
      L1  H     8    28       P1  7948  1.00
      L1  H    12    44       P1  8028  0.93

> <Gold.Chemscore.Hbond.Weighted>
-12.7625

> <Gold.Chemscore.Metal.Weighted>
-0.0000

> <Gold.Chemscore.Lipo.Weighted>
-10.5715

> <Gold.Chemscore.Internal_Hbond.Weighted>
0.0000

> <Gold.Chemscore.DEClash.Weighted>
0.8092

> <Gold.Chemscore.DEInternal.Weighted>
3.5389

> <Gold.Chemscore.Rot.Weighted>
5.1622

> <Gold.Chemscore.Internal.Correction.Weighted>
   9.000000E+99

> <Gold.Protein.RotatedTorsions>
[ 6907 6896 6895 6894 ] final   36.12 input  -60.11 | X-H torsion
[ 7974 7965 7964 7962 ] final  -78.56 input  175.53 | X-H torsion
[ 8008 7997 7996 7995 ] final  150.15 input   59.86 | X-H torsion
[ 10167 10162 10161 10158 ] final -156.50 input  -65.29 | X-H torsion
[ 10718 10713 10712 10709 ] final   77.94 input   66.30 | X-H torsion
[ 10763 10752 10751 10750 ] final   20.21 input  -60.55 | X-H torsion
[ 11005 11000 10999 10996 ] final -115.68 input  -57.11 | X-H torsion

> <Gold.Protein.ActiveResidues>
 VAL166  LYS551  ARG553  GLY616  TRP617  ASP618  TYR619  PRO620  LYS621  CYS622 
 ASP623  PHE694  ASN695  SER759  ASP760  ASP761  ALA762  ILE779  LEU786  VAL792 
 PHE793  MET794  SER795  GLU796  ALA797  LYS798  CYS799  TRP800  GLU811  SER814 

> <Gold.Protein.RotatedAtoms>
  152.1255  134.9174  160.0560 H   0  0  0  0  0  0  0  0  0  0  0  0  # atno 6907 bound_to 6896
  152.0299  133.3928  159.4301 H   0  0  0  0  0  0  0  0  0  0  0  0  # atno 6908 bound_to 6896
  150.6852  134.3454  159.4929 H   0  0  0  0  0  0  0  0  0  0  0  0  # atno 6909 bound_to 6896
  145.5849  140.9441  143.1324 H   0  0  0  0  0  0  0  0  0  0  0  0  # atno 7974 bound_to 7965
  156.2727  140.2082  156.5971 H   0  0  0  0  0  0  0  0  0  0  0  0  # atno 8008 bound_to 7997
  154.6936  140.0528  157.0412 H   0  0  0  0  0  0  0  0  0  0  0  0  # atno 8009 bound_to 7997
  155.0832  140.3189  155.4598 H   0  0  0  0  0  0  0  0  0  0  0  0  # atno 8010 bound_to 7997
  139.6845  143.9525  152.2354 H   0  0  0  0  0  0  0  0  0  0  0  0  # atno 10167 bound_to 10162
  157.6728  130.9845  150.1714 H   0  0  0  0  0  0  0  0  0  0  0  0  # atno 10718 bound_to 10713
  153.1096  135.6693  153.9524 H   0  0  0  0  0  0  0  0  0  0  0  0  # atno 10763 bound_to 10752
  153.9071  135.3029  155.3450 H   0  0  0  0  0  0  0  0  0  0  0  0  # atno 10764 bound_to 10752
  154.7516  135.5032  153.9377 H   0  0  0  0  0  0  0  0  0  0  0  0  # atno 10765 bound_to 10752
  141.0472  133.9744  157.2898 H   0  0  0  0  0  0  0  0  0  0  0  0  # atno 11005 bound_to 11000
  144.7377  139.7537  143.7323 LP  0  0  0  0  0  0  0  0  0  0  0  0  # atno 17320 bound_to 7965
  146.1689  139.4832  142.9940 LP  0  0  0  0  0  0  0  0  0  0  0  0  # atno 17321 bound_to 7965
  139.9324  144.6733  150.8349 LP  0  0  0  0  0  0  0  0  0  0  0  0  # atno 17342 bound_to 10162
  140.7663  143.3300  151.2432 LP  0  0  0  0  0  0  0  0  0  0  0  0  # atno 17343 bound_to 10162
  156.2467  130.3696  149.8277 LP  0  0  0  0  0  0  0  0  0  0  0  0  # atno 17370 bound_to 10713
  156.6062  130.8567  151.3443 LP  0  0  0  0  0  0  0  0  0  0  0  0  # atno 17371 bound_to 10713
  139.9321  135.0199  156.8435 LP  0  0  0  0  0  0  0  0  0  0  0  0  # atno 17394 bound_to 11000
  140.6124  134.0070  155.7582 LP  0  0  0  0  0  0  0  0  0  0  0  0  # atno 17395 bound_to 11000

$$$$
