AV-unprocessed.smi:1522|AV-procd|sdf|6136|dock7
  -GOLD-   22720 6283D 1   1.00000     0.00000
 Structure written by MMmdl.
 34 35  0  0  0  0  0  0  0  0  3 V2000
  148.1896  138.5887  153.4929 C   0  0  0  0  0  0  0  0  0  0  0  0
  146.6763  138.8641  153.3466 C   0  0  2  0  0  0  0  0  0  0  0  0
  146.1798  138.3983  151.9557 C   0  0  0  0  0  0  0  0  0  0  0  0
  146.3907  136.9676  151.7387 N   0  0  0  0  0  0  0  0  0  0  0  0
  145.4446  136.0352  151.5600 C   0  0  0  0  0  0  0  0  0  0  0  0
  144.2531  136.3420  151.6306 O   0  0  0  0  0  0  0  0  0  0  0  0
  145.9391  134.8068  151.2924 N   0  5  0  0  0  0  0  0  0  0  0  0
  145.1034  133.8020  150.9821 C   0  0  0  0  0  0  0  0  0  0  0  0
  145.4630  132.7947  150.1701 N   0  0  0  0  0  0  0  0  0  0  0  0
  144.4534  131.8615  149.9786 N   0  0  0  0  0  0  0  0  0  0  0  0
  143.3561  132.1855  150.6625 C   0  0  0  0  0  0  0  0  0  0  0  0
  143.4560  133.6605  151.6011 S   0  0  0  0  0  0  0  0  0  0  0  0
  146.3325  140.2950  153.5939 N   0  3  0  0  0  0  0  0  0  0  0  0
  146.2816  140.6867  155.0178 C   0  0  0  0  0  0  0  0  0  0  0  0
  146.2453  142.2122  155.0006 C   0  0  0  0  0  0  0  0  0  0  0  0
  147.0332  142.6020  153.7474 C   0  0  0  0  0  0  0  0  0  0  0  0
  147.2025  141.3030  152.9477 C   0  0  0  0  0  0  0  0  0  0  0  0
  148.4245  137.5583  153.2244 H   0  0  0  0  0  0  0  0  0  0  0  0
  148.5349  138.7305  154.5168 H   0  0  0  0  0  0  0  0  0  0  0  0
  148.7823  139.2395  152.8487 H   0  0  0  0  0  0  0  0  0  0  0  0
  146.1682  138.2647  154.1034 H   0  0  0  0  0  0  0  0  0  0  0  0
  145.1082  138.5831  151.8751 H   0  0  0  0  0  0  0  0  0  0  0  0
  146.6335  138.9837  151.1552 H   0  0  0  0  0  0  0  0  0  0  0  0
  147.3503  136.6575  151.6842 H   0  0  0  0  0  0  0  0  0  0  0  0
  142.4832  131.5517  150.6153 H   0  0  0  0  0  0  0  0  0  0  0  0
  145.4277  140.2651  155.5461 H   0  0  0  0  0  0  0  0  0  0  0  0
  147.1873  140.3470  155.5229 H   0  0  0  0  0  0  0  0  0  0  0  0
  145.2129  142.5519  154.9044 H   0  0  0  0  0  0  0  0  0  0  0  0
  146.6558  142.6495  155.9112 H   0  0  0  0  0  0  0  0  0  0  0  0
  146.4928  143.3554  153.1728 H   0  0  0  0  0  0  0  0  0  0  0  0
  148.0062  143.0211  154.0065 H   0  0  0  0  0  0  0  0  0  0  0  0
  148.2438  140.9820  153.0059 H   0  0  0  0  0  0  0  0  0  0  0  0
  146.9453  141.4339  151.8959 H   0  0  0  0  0  0  0  0  0  0  0  0
  145.4046  140.4444  153.2211 H   0  0  0  0  0  0  0  0  0  0  0  0
  1  2  1  0  0  0  0
  1 18  1  0  0  0  0
  1 19  1  0  0  0  0
  1 20  1  0  0  0  0
  2  3  1  0  0  0  0
  2 13  1  0  0  0  0
  2 21  1  0  0  0  0
  3  4  1  0  0  0  0
  3 22  1  0  0  0  0
  3 23  1  0  0  0  0
  4  5  1  0  0  0  0
  4 24  1  0  0  0  0
  5  6  2  0  0  0  0
  5  7  1  0  0  0  0
  7  8  1  0  0  0  0
  8 12  1  0  0  0  0
  8  9  2  0  0  0  0
  9 10  1  0  0  0  0
 10 11  2  0  0  0  0
 11 12  1  0  0  0  0
 11 25  1  0  0  0  0
 13 17  1  0  0  0  0
 13 14  1  0  0  0  0
 13 34  1  0  0  0  0
 14 15  1  0  0  0  0
 14 26  1  0  0  0  0
 14 27  1  0  0  0  0
 15 16  1  0  0  0  0
 15 28  1  0  0  0  0
 15 29  1  0  0  0  0
 16 17  1  0  0  0  0
 16 30  1  0  0  0  0
 16 31  1  0  0  0  0
 17 32  1  0  0  0  0
 17 33  1  0  0  0  0
M  CHG  1   7  -1
M  CHG  1  13   1
M  END
> <s_m_source_file>
AV-unprocessed.smi

> <i_m_source_file_index>
1522

> <i_lp_mmshare_version>
43012

> <i_f3d_flags>
0

> <s_epik_input>
W0NIMl0xW0NIMl1bQ0gyXVtDSDJdTjFbQ0BIXShbQ0gzXSlbQ0gyXVtOSF1DKD1PKVtOSF1jMm5uW2NIXXMy

> <s_epik_cmdline>
J2VwaWtfcHl0aG9uJywgJy1waCcsICc3LjAnLCAnLXRuJywgJzgnLCAnLW1hJywgJzIwMCcsICctbWV0YWxfYmluZGluZycsICctaW1hZScsICc8aW5maWxlLm1hZT4nLCAnLW9tYWUnLCAnPG91dGZpbGUubWFlPic=

> <r_lp_tautomer_probability>
1

> <r_epik_Ionization_Penalty>
3.04208

> <r_epik_Ionization_Penalty_Charging>
3.00964

> <r_epik_Ionization_Penalty_Neutral>
0.0324455

> <r_epik_State_Penalty>
3.0051

> <r_epik_Charging_Adjusted_Penalty>
6.01474

> <i_epik_Tot_Q>
0

> <i_epik_Tot_abs_Q>
2

> <r_epik_Metal_State_Penalty>
0.454155

> <b_epik_Metal_Only>
1

> <s_lp_Force_Field>
OPLS_2005

> <r_lp_Energy>
27.863

> <b_lp_Chiralities_Consistent>
1

> <s_lp_Variant>
AV-unprocessed.smi:1522-3

> <Gold.Version>
5.8.1

> <Gold.Id.Protein>
6NUR|6NUR_protein|mol2

> <Gold.PLP.Fitness>
38.6250

> <Gold.PLP.PLP>
-27.6502

> <Gold.PLP.part.hbond>
-2.0000

> <Gold.PLP.part.metal>
0.0000

> <Gold.PLP.part.buried>
-7.5927

> <Gold.PLP.part.nonpolar>
-20.2768

> <Gold.PLP.part.repulsive>
1.3829

> <Gold.PLP.ligand.clash>
0.0000

> <Gold.PLP.ligand.torsion>
0.5485

> <Gold.PLP.Chemscore.Hbond>
3.0000

> <Gold.PLP.Chemscore.CHOScore>
1.0000

> <Gold.PLP.Chemscore.Metal>
0.0000

> <Gold.Chemscore.Hbonds>
donor molecule, donor type, donor heavy atom, donor atom, acceptor molecule, acceptor atom, score
      L1  H     4    24       P1  7948  1.00
      L1  H    13    34       P1 10175  2.00
      L1  C    11    25       P1 10952  1.00

> <Gold.PLP.Chemscore.Internal.Correction>
0.0717

> <Gold.Rescore>
     Score         DG    S(hbond)    S(metal)    S(lipo)     H(rot)  DE(clash)    DE(int)     intcor
     11.96     -13.98       1.99        0.00      52.44       1.68       0.03       1.99       ----

> <Gold.Chemscore.Fitness>
11.9576

> <Gold.Chemscore.DG>
-13.9774

> <Gold.Chemscore.ZeroCoef>
-5.4800

> <Gold.Chemscore.Hbond>
1.9920

> <Gold.Chemscore.Metal>
0.0000

> <Gold.Chemscore.Lipo>
52.4380

> <Gold.Chemscore.Internal_Hbond>
0.0000

> <Gold.Chemscore.DEClash>
0.0318

> <Gold.Chemscore.DEInternal>
1.9880

> <Gold.Chemscore.Rot>
1.6762

> <Gold.Chemscore.Internal.Correction>
   9.000000E+99

> <Gold.Chemscore.Hbonds>
donor molecule, donor type, donor heavy atom, donor atom, acceptor molecule, acceptor atom, score
      L1  H     4    24       P1  7948  1.00
      L1  H    13    34       P1 10175  0.96

> <Gold.Chemscore.Hbond.Weighted>
-6.6531

> <Gold.Chemscore.Metal.Weighted>
-0.0000

> <Gold.Chemscore.Lipo.Weighted>
-6.1352

> <Gold.Chemscore.Internal_Hbond.Weighted>
0.0000

> <Gold.Chemscore.DEClash.Weighted>
0.0318

> <Gold.Chemscore.DEInternal.Weighted>
1.9880

> <Gold.Chemscore.Rot.Weighted>
4.2910

> <Gold.Chemscore.Internal.Correction.Weighted>
   9.000000E+99

> <Gold.Protein.RotatedTorsions>
[ 6907 6896 6895 6894 ] final  -51.74 input  -60.11 | X-H torsion
[ 7974 7965 7964 7962 ] final -126.85 input  175.53 | X-H torsion
[ 8008 7997 7996 7995 ] final   90.15 input   59.86 | X-H torsion
[ 10167 10162 10161 10158 ] final  -37.87 input  -65.29 | X-H torsion
[ 10718 10713 10712 10709 ] final -157.44 input   66.30 | X-H torsion
[ 10763 10752 10751 10750 ] final -172.98 input  -60.55 | X-H torsion
[ 11005 11000 10999 10996 ] final -144.06 input  -57.11 | X-H torsion

> <Gold.Protein.ActiveResidues>
 VAL166  LYS551  ARG553  GLY616  TRP617  ASP618  TYR619  PRO620  LYS621  CYS622 
 ASP623  PHE694  ASN695  SER759  ASP760  ASP761  ALA762  ILE779  LEU786  VAL792 
 PHE793  MET794  SER795  GLU796  ALA797  LYS798  CYS799  TRP800  GLU811  SER814 

> <Gold.Protein.RotatedAtoms>
  150.8583  134.7928  159.7062 H   0  0  0  0  0  0  0  0  0  0  0  0  # atno 6907 bound_to 6896
  152.4628  134.5142  159.9773 H   0  0  0  0  0  0  0  0  0  0  0  0  # atno 6908 bound_to 6896
  151.5251  133.3421  159.2944 H   0  0  0  0  0  0  0  0  0  0  0  0  # atno 6909 bound_to 6896
  144.9831  140.7660  143.4600 H   0  0  0  0  0  0  0  0  0  0  0  0  # atno 7974 bound_to 7965
  156.0086  140.3352  155.6917 H   0  0  0  0  0  0  0  0  0  0  0  0  # atno 8008 bound_to 7997
  155.6190  140.0673  157.2701 H   0  0  0  0  0  0  0  0  0  0  0  0  # atno 8009 bound_to 7997
  154.4273  140.1780  156.1339 H   0  0  0  0  0  0  0  0  0  0  0  0  # atno 8010 bound_to 7997
  140.7107  143.3314  151.2561 H   0  0  0  0  0  0  0  0  0  0  0  0  # atno 10167 bound_to 10162
  156.5403  130.8560  151.2746 H   0  0  0  0  0  0  0  0  0  0  0  0  # atno 10718 bound_to 10713
  154.6131  135.2866  155.0410 H   0  0  0  0  0  0  0  0  0  0  0  0  # atno 10763 bound_to 10752
  154.1633  135.6484  153.4995 H   0  0  0  0  0  0  0  0  0  0  0  0  # atno 10764 bound_to 10752
  153.0203  135.5383  154.6892 H   0  0  0  0  0  0  0  0  0  0  0  0  # atno 10765 bound_to 10752
  140.8063  134.2798  157.4959 H   0  0  0  0  0  0  0  0  0  0  0  0  # atno 11005 bound_to 11000
  145.2392  139.2080  143.5001 LP  0  0  0  0  0  0  0  0  0  0  0  0  # atno 17320 bound_to 7965
  146.3413  140.2284  142.8593 LP  0  0  0  0  0  0  0  0  0  0  0  0  # atno 17321 bound_to 7965
  139.6797  143.9877  152.2801 LP  0  0  0  0  0  0  0  0  0  0  0  0  # atno 17342 bound_to 10162
  139.9502  144.6625  150.8179 LP  0  0  0  0  0  0  0  0  0  0  0  0  # atno 17343 bound_to 10162
  157.7406  130.9854  150.2391 LP  0  0  0  0  0  0  0  0  0  0  0  0  # atno 17370 bound_to 10713
  156.2977  130.3754  149.7780 LP  0  0  0  0  0  0  0  0  0  0  0  0  # atno 17371 bound_to 10713
  139.8717  134.9458  156.3919 LP  0  0  0  0  0  0  0  0  0  0  0  0  # atno 17394 bound_to 11000
  140.9244  133.7623  155.9946 LP  0  0  0  0  0  0  0  0  0  0  0  0  # atno 17395 bound_to 11000

$$$$
