AV-unprocessed.smi:3183|AV-procd|sdf|12158|dock8
  -GOLD-   2272017593D 1   1.00000     0.00000
 Structure written by MMmdl.
 43 44  0  0  0  0  0  0  0  0  2 V2000
  152.2779  143.2370  161.6848 C   0  0  0  0  0  0  0  0  0  0  0  0
  152.3616  143.3156  160.1500 C   0  0  1  0  0  0  0  0  0  0  0  0
  151.8941  141.9816  159.5335 C   0  0  0  0  0  0  0  0  0  0  0  0
  151.9706  141.9935  157.9989 C   0  0  0  0  0  0  0  0  0  0  0  0
  151.1815  143.1649  157.3915 C   0  0  1  0  0  0  0  0  0  0  0  0
  149.7237  142.9590  157.5483 N   0  3  0  0  0  0  0  0  0  0  0  0
  149.2287  141.6408  157.1048 C   0  0  0  0  0  0  0  0  0  0  0  0
  149.6423  141.3571  155.6532 C   0  0  0  0  0  0  0  0  0  0  0  0
  148.5288  140.8610  154.7809 C   0  0  0  0  0  0  0  0  0  0  0  0
  147.4399  141.5091  154.2638 C   0  0  0  0  0  0  0  0  0  0  0  0
  146.7566  140.5080  153.5208 C   0  0  0  0  0  0  0  0  0  0  0  0
  147.3661  139.3372  153.5705 N   0  0  0  0  0  0  0  0  0  0  0  0
  148.4528  139.5492  154.3418 N   0  0  0  0  0  0  0  0  0  0  0  0
  149.3468  138.4347  154.5931 C   0  0  0  0  0  0  0  0  0  0  0  0
  151.6187  144.5019  158.0171 C   0  0  0  0  0  0  0  0  0  0  0  0
  151.5564  144.5045  159.5611 C   0  0  2  0  0  0  0  0  0  0  0  0
  152.0280  145.8683  160.0971 C   0  0  0  0  0  0  0  0  0  0  0  0
  151.2432  143.1743  162.0235 H   0  0  0  0  0  0  0  0  0  0  0  0
  152.7356  144.1037  162.1609 H   0  0  0  0  0  0  0  0  0  0  0  0
  152.8025  142.3584  162.0612 H   0  0  0  0  0  0  0  0  0  0  0  0
  153.4115  143.4520  159.8858 H   0  0  0  0  0  0  0  0  0  0  0  0
  152.5062  141.1632  159.9147 H   0  0  0  0  0  0  0  0  0  0  0  0
  150.8721  141.7674  159.8492 H   0  0  0  0  0  0  0  0  0  0  0  0
  153.0163  142.0724  157.6982 H   0  0  0  0  0  0  0  0  0  0  0  0
  151.6115  141.0450  157.5973 H   0  0  0  0  0  0  0  0  0  0  0  0
  151.4139  143.2042  156.3259 H   0  0  0  0  0  0  0  0  0  0  0  0
  149.4919  143.0750  158.5246 H   0  0  0  0  0  0  0  0  0  0  0  0
  149.6278  140.8699  157.7655 H   0  0  0  0  0  0  0  0  0  0  0  0
  148.1416  141.6202  157.1952 H   0  0  0  0  0  0  0  0  0  0  0  0
  150.0558  142.2670  155.2162 H   0  0  0  0  0  0  0  0  0  0  0  0
  150.4487  140.6224  155.6502 H   0  0  0  0  0  0  0  0  0  0  0  0
  147.1668  142.5458  154.3936 H   0  0  0  0  0  0  0  0  0  0  0  0
  145.8432  140.5963  152.9513 H   0  0  0  0  0  0  0  0  0  0  0  0
  150.1783  138.7365  155.2288 H   0  0  0  0  0  0  0  0  0  0  0  0
  149.7451  138.0636  153.6483 H   0  0  0  0  0  0  0  0  0  0  0  0
  148.8012  137.6309  155.0882 H   0  0  0  0  0  0  0  0  0  0  0  0
  152.6416  144.7168  157.7038 H   0  0  0  0  0  0  0  0  0  0  0  0
  151.0074  145.3114  157.6152 H   0  0  0  0  0  0  0  0  0  0  0  0
  150.5125  144.3846  159.8548 H   0  0  0  0  0  0  0  0  0  0  0  0
  153.0916  146.0218  159.9118 H   0  0  0  0  0  0  0  0  0  0  0  0
  151.8571  145.9638  161.1692 H   0  0  0  0  0  0  0  0  0  0  0  0
  151.4882  146.6856  159.6183 H   0  0  0  0  0  0  0  0  0  0  0  0
  149.2452  143.6746  157.0201 H   0  0  0  0  0  0  0  0  0  0  0  0
  1  2  1  0  0  0  0
  1 18  1  0  0  0  0
  1 19  1  0  0  0  0
  1 20  1  0  0  0  0
  2 16  1  0  0  0  0
  2  3  1  0  0  0  0
  2 21  1  0  0  0  0
  3  4  1  0  0  0  0
  3 22  1  0  0  0  0
  3 23  1  0  0  0  0
  4  5  1  0  0  0  0
  4 24  1  0  0  0  0
  4 25  1  0  0  0  0
  5  6  1  0  0  0  0
  5 15  1  0  0  0  0
  5 26  1  0  0  0  0
  6  7  1  0  0  0  0
  6 27  1  0  0  0  0
  6 43  1  0  0  0  0
  7  8  1  0  0  0  0
  7 28  1  0  0  0  0
  7 29  1  0  0  0  0
  8  9  1  0  0  0  0
  8 30  1  0  0  0  0
  8 31  1  0  0  0  0
  9 13  1  0  0  0  0
  9 10  2  0  0  0  0
 10 11  1  0  0  0  0
 10 32  1  0  0  0  0
 11 12  2  0  0  0  0
 11 33  1  0  0  0  0
 12 13  1  0  0  0  0
 13 14  1  0  0  0  0
 14 34  1  0  0  0  0
 14 35  1  0  0  0  0
 14 36  1  0  0  0  0
 15 16  1  0  0  0  0
 15 37  1  0  0  0  0
 15 38  1  0  0  0  0
 16 17  1  0  0  0  0
 16 39  1  0  0  0  0
 17 40  1  0  0  0  0
 17 41  1  0  0  0  0
 17 42  1  0  0  0  0
M  CHG  1   6   1
M  END
> <s_m_source_file>
AV-unprocessed.smi

> <i_m_source_file_index>
3183

> <i_lp_mmshare_version>
43012

> <i_f3d_flags>
0

> <s_epik_input>
W0NIM11bQ0BASF0xW0NIMl1bQ0gyXVtDQEhdKFtDSDJdW0NASF0xW0NIM10pW05IXVtDSDJdW0NIMl1jMltjSF1bY0hdbm4yW0NIM10=

> <s_epik_cmdline>
J2VwaWtfcHl0aG9uJywgJy1waCcsICc3LjAnLCAnLXRuJywgJzgnLCAnLW1hJywgJzIwMCcsICctbWV0YWxfYmluZGluZycsICctaW1hZScsICc8aW5maWxlLm1hZT4nLCAnLW9tYWUnLCAnPG91dGZpbGUubWFlPic=

> <r_lp_tautomer_probability>
1

> <r_epik_Ionization_Penalty>
0.000327718

> <r_epik_Ionization_Penalty_Charging>
0.000294043

> <r_epik_Ionization_Penalty_Neutral>
3.36755e-05

> <r_epik_State_Penalty>
-0

> <r_epik_Charging_Adjusted_Penalty>
0.000294043

> <i_epik_Tot_Q>
1

> <i_epik_Tot_abs_Q>
1

> <r_epik_Metal_State_Penalty>
-0

> <b_epik_Metal_Only>
0

> <s_lp_Force_Field>
OPLS_2005

> <r_lp_Energy>
17.888

> <b_lp_Chiralities_Consistent>
1

> <s_lp_Variant>
AV-unprocessed.smi:3183-6

> <Gold.Version>
5.8.1

> <Gold.Id.Protein>
6NUR|6NUR_protein|mol2

> <Gold.PLP.Fitness>
51.3348

> <Gold.PLP.PLP>
-43.3335

> <Gold.PLP.part.hbond>
-1.0000

> <Gold.PLP.part.metal>
0.0000

> <Gold.PLP.part.buried>
-4.6215

> <Gold.PLP.part.nonpolar>
-38.4940

> <Gold.PLP.part.repulsive>
1.6109

> <Gold.PLP.ligand.clash>
0.0000

> <Gold.PLP.ligand.torsion>
0.5047

> <Gold.PLP.Chemscore.Hbond>
2.0000

> <Gold.PLP.Chemscore.CHOScore>
1.0000

> <Gold.PLP.Chemscore.Metal>
0.0000

> <Gold.Chemscore.Hbonds>
donor molecule, donor type, donor heavy atom, donor atom, acceptor molecule, acceptor atom, score
      L1  H     6    43       P1  8028  2.00
      L1  C    11    33       P1 10175  1.00

> <Gold.PLP.Chemscore.Internal.Correction>
0.0107

> <Gold.Rescore>
     Score         DG    S(hbond)    S(metal)    S(lipo)     H(rot)  DE(clash)    DE(int)     intcor
     19.71     -20.21       0.96        0.00     128.70       1.38       0.13       0.37       ----

> <Gold.Chemscore.Fitness>
19.7108

> <Gold.Chemscore.DG>
-20.2113

> <Gold.Chemscore.ZeroCoef>
-5.4800

> <Gold.Chemscore.Hbond>
0.9576

> <Gold.Chemscore.Metal>
0.0000

> <Gold.Chemscore.Lipo>
128.6970

> <Gold.Chemscore.Internal_Hbond>
0.0000

> <Gold.Chemscore.DEClash>
0.1330

> <Gold.Chemscore.DEInternal>
0.3675

> <Gold.Chemscore.Rot>
1.3768

> <Gold.Chemscore.Internal.Correction>
   9.000000E+99

> <Gold.Chemscore.Hbonds>
donor molecule, donor type, donor heavy atom, donor atom, acceptor molecule, acceptor atom, score
      L1  H     6    43       P1  8028  0.70

> <Gold.Chemscore.Hbond.Weighted>
-3.1985

> <Gold.Chemscore.Metal.Weighted>
-0.0000

> <Gold.Chemscore.Lipo.Weighted>
-15.0575

> <Gold.Chemscore.Internal_Hbond.Weighted>
0.0000

> <Gold.Chemscore.DEClash.Weighted>
0.1330

> <Gold.Chemscore.DEInternal.Weighted>
0.3675

> <Gold.Chemscore.Rot.Weighted>
3.5247

> <Gold.Chemscore.Internal.Correction.Weighted>
   9.000000E+99

> <Gold.Protein.RotatedTorsions>
[ 6907 6896 6895 6894 ] final  -16.42 input  -60.11 | X-H torsion
[ 7974 7965 7964 7962 ] final   -3.85 input  175.53 | X-H torsion
[ 8008 7997 7996 7995 ] final -170.12 input   59.86 | X-H torsion
[ 10167 10162 10161 10158 ] final  -94.06 input  -65.29 | X-H torsion
[ 10718 10713 10712 10709 ] final   97.32 input   66.30 | X-H torsion
[ 10763 10752 10751 10750 ] final   98.62 input  -60.55 | X-H torsion
[ 11005 11000 10999 10996 ] final -118.21 input  -57.11 | X-H torsion

> <Gold.Protein.ActiveResidues>
 VAL166  LYS551  ARG553  GLY616  TRP617  ASP618  TYR619  PRO620  LYS621  CYS622 
 ASP623  PHE694  ASN695  SER759  ASP760  ASP761  ALA762  ILE779  LEU786  VAL792 
 PHE793  MET794  SER795  GLU796  ALA797  LYS798  CYS799  TRP800  GLU811  SER814 

> <Gold.Protein.RotatedAtoms>
  151.3089  135.0789  159.9265 H   0  0  0  0  0  0  0  0  0  0  0  0  # atno 6907 bound_to 6896
  152.5282  133.9756  159.7793 H   0  0  0  0  0  0  0  0  0  0  0  0  # atno 6908 bound_to 6896
  151.0056  133.5962  159.2719 H   0  0  0  0  0  0  0  0  0  0  0  0  # atno 6909 bound_to 6896
  146.2382  140.1784  142.8332 H   0  0  0  0  0  0  0  0  0  0  0  0  # atno 7974 bound_to 7965
  155.9141  140.1062  157.1257 H   0  0  0  0  0  0  0  0  0  0  0  0  # atno 8008 bound_to 7997
  154.4044  140.1268  156.4660 H   0  0  0  0  0  0  0  0  0  0  0  0  # atno 8009 bound_to 7997
  155.7274  140.3469  155.5046 H   0  0  0  0  0  0  0  0  0  0  0  0  # atno 8010 bound_to 7997
  140.3183  143.3064  152.0074 H   0  0  0  0  0  0  0  0  0  0  0  0  # atno 10167 bound_to 10162
  157.6914  131.0605  150.4625 H   0  0  0  0  0  0  0  0  0  0  0  0  # atno 10718 bound_to 10713
  153.2913  135.4142  155.1170 H   0  0  0  0  0  0  0  0  0  0  0  0  # atno 10763 bound_to 10752
  154.8521  135.3519  154.5977 H   0  0  0  0  0  0  0  0  0  0  0  0  # atno 10764 bound_to 10752
  153.6399  135.7057  153.5303 H   0  0  0  0  0  0  0  0  0  0  0  0  # atno 10765 bound_to 10752
  141.0301  133.9994  157.3155 H   0  0  0  0  0  0  0  0  0  0  0  0  # atno 11005 bound_to 11000
  144.9955  140.8585  143.5314 LP  0  0  0  0  0  0  0  0  0  0  0  0  # atno 17320 bound_to 7965
  145.1795  139.2359  143.5299 LP  0  0  0  0  0  0  0  0  0  0  0  0  # atno 17321 bound_to 7965
  139.4879  144.6331  151.7031 LP  0  0  0  0  0  0  0  0  0  0  0  0  # atno 17342 bound_to 10162
  140.5506  144.0431  150.6125 LP  0  0  0  0  0  0  0  0  0  0  0  0  # atno 17343 bound_to 10162
  156.4969  130.4108  149.6375 LP  0  0  0  0  0  0  0  0  0  0  0  0  # atno 17370 bound_to 10713
  156.3365  130.7359  151.2297 LP  0  0  0  0  0  0  0  0  0  0  0  0  # atno 17371 bound_to 10713
  139.9202  135.0200  156.8036 LP  0  0  0  0  0  0  0  0  0  0  0  0  # atno 17394 bound_to 11000
  140.6421  133.9808  155.7713 LP  0  0  0  0  0  0  0  0  0  0  0  0  # atno 17395 bound_to 11000

$$$$
