AV-unprocessed.smi:2083|AV-procd|sdf|8512|dock4
  -GOLD-   2272011223D 1   1.00000     0.00000
 Structure written by MMmdl.
 44 45  0  0  0  0  0  0  0  0  3 V2000
  147.1622  135.8665  162.5038 C   0  0  0  0  0  0  0  0  0  0  0  0
  147.4429  136.2084  161.0803 C   0  0  0  0  0  0  0  0  0  0  0  0
  147.9246  135.4803  160.0293 C   0  0  0  0  0  0  0  0  0  0  0  0
  147.9406  136.4221  158.9663 C   0  0  0  0  0  0  0  0  0  0  0  0
  148.3848  136.0445  157.6716 N   0  0  0  0  0  0  0  0  0  0  0  0
  149.1272  134.9813  157.3126 C   0  0  0  0  0  0  0  0  0  0  0  0
  149.5063  134.1670  158.1630 O   0  0  0  0  0  0  0  0  0  0  0  0
  149.3763  134.9539  155.9738 N   0  5  0  0  0  0  0  0  0  0  0  0
  148.3783  135.2037  154.9322 C   0  0  0  0  0  0  0  0  0  0  0  0
  148.0783  133.9135  154.1188 C   0  0  2  0  0  0  0  0  0  0  0  0
  149.3277  133.0494  153.8126 C   0  0  0  0  0  0  0  0  0  0  0  0
  147.2807  134.2376  152.8945 N   0  3  2  0  0  0  0  0  0  0  0  0
  146.1174  135.1227  153.1701 C   0  0  0  0  0  0  0  0  0  0  0  0
  145.4958  135.6371  151.8616 C   0  0  0  0  0  0  0  0  0  0  0  0
  145.0988  134.4757  150.9414 C   0  0  0  0  0  0  0  0  0  0  0  0
  146.3048  133.5541  150.6928 C   0  0  2  0  0  0  0  0  0  0  0  0
  145.9291  132.3688  149.7923 C   0  0  0  0  0  0  0  0  0  0  0  0
  146.8913  133.0788  152.0361 C   0  0  0  0  0  0  0  0  0  0  0  0
  147.5061  137.6177  159.3363 N   0  0  0  0  0  0  0  0  0  0  0  0
  147.1849  137.4869  160.6926 O   0  0  0  0  0  0  0  0  0  0  0  0
  147.9562  135.2432  162.9154 H   0  0  0  0  0  0  0  0  0  0  0  0
  146.2233  135.3197  162.5901 H   0  0  0  0  0  0  0  0  0  0  0  0
  147.0879  136.7654  163.1161 H   0  0  0  0  0  0  0  0  0  0  0  0
  148.2183  134.4412  160.0236 H   0  0  0  0  0  0  0  0  0  0  0  0
  148.1073  136.6580  156.9199 H   0  0  0  0  0  0  0  0  0  0  0  0
  147.4450  135.5774  155.3566 H   0  0  0  0  0  0  0  0  0  0  0  0
  148.7092  135.9849  154.2477 H   0  0  0  0  0  0  0  0  0  0  0  0
  147.4328  133.3059  154.7547 H   0  0  0  0  0  0  0  0  0  0  0  0
  149.8051  132.6900  154.7258 H   0  0  0  0  0  0  0  0  0  0  0  0
  150.0861  133.5887  153.2424 H   0  0  0  0  0  0  0  0  0  0  0  0
  149.0546  132.1641  153.2382 H   0  0  0  0  0  0  0  0  0  0  0  0
  145.3742  134.5807  153.7568 H   0  0  0  0  0  0  0  0  0  0  0  0
  146.4300  135.9803  153.7671 H   0  0  0  0  0  0  0  0  0  0  0  0
  144.6232  136.2533  152.0805 H   0  0  0  0  0  0  0  0  0  0  0  0
  146.2092  136.2836  151.3483 H   0  0  0  0  0  0  0  0  0  0  0  0
  144.2846  133.9097  151.3964 H   0  0  0  0  0  0  0  0  0  0  0  0
  144.7180  134.8649  149.9964 H   0  0  0  0  0  0  0  0  0  0  0  0
  147.0724  134.1308  150.1740 H   0  0  0  0  0  0  0  0  0  0  0  0
  145.1631  131.7456  150.2548 H   0  0  0  0  0  0  0  0  0  0  0  0
  146.7955  131.7377  149.5922 H   0  0  0  0  0  0  0  0  0  0  0  0
  145.5440  132.7121  148.8316 H   0  0  0  0  0  0  0  0  0  0  0  0
  147.7569  132.4447  151.8420 H   0  0  0  0  0  0  0  0  0  0  0  0
  146.1581  132.4606  152.5561 H   0  0  0  0  0  0  0  0  0  0  0  0
  147.9065  134.7988  152.3342 H   0  0  0  0  0  0  0  0  0  0  0  0
  1  2  1  0  0  0  0
  1 21  1  0  0  0  0
  1 22  1  0  0  0  0
  1 23  1  0  0  0  0
  2 20  1  0  0  0  0
  2  3  2  0  0  0  0
  3  4  1  0  0  0  0
  3 24  1  0  0  0  0
  4  5  1  0  0  0  0
  4 19  2  0  0  0  0
  5  6  1  0  0  0  0
  5 25  1  0  0  0  0
  6  7  2  0  0  0  0
  6  8  1  0  0  0  0
  8  9  1  0  0  0  0
  9 10  1  0  0  0  0
  9 26  1  0  0  0  0
  9 27  1  0  0  0  0
 10 11  1  0  0  0  0
 10 12  1  0  0  0  0
 10 28  1  0  0  0  0
 11 29  1  0  0  0  0
 11 30  1  0  0  0  0
 11 31  1  0  0  0  0
 12 18  1  0  0  0  0
 12 13  1  0  0  0  0
 12 44  1  0  0  0  0
 13 14  1  0  0  0  0
 13 32  1  0  0  0  0
 13 33  1  0  0  0  0
 14 15  1  0  0  0  0
 14 34  1  0  0  0  0
 14 35  1  0  0  0  0
 15 16  1  0  0  0  0
 15 36  1  0  0  0  0
 15 37  1  0  0  0  0
 16 17  1  0  0  0  0
 16 18  1  0  0  0  0
 16 38  1  0  0  0  0
 17 39  1  0  0  0  0
 17 40  1  0  0  0  0
 17 41  1  0  0  0  0
 18 42  1  0  0  0  0
 18 43  1  0  0  0  0
 19 20  1  0  0  0  0
M  CHG  1   8  -1
M  CHG  1  12   1
M  END
> <s_m_source_file>
AV-unprocessed.smi

> <i_m_source_file_index>
2083

> <i_lp_mmshare_version>
43012

> <i_f3d_flags>
0

> <s_epik_input>
W0NIM11jMVtjSF1jKG5vMSlbTkhdQyg9TylbTkhdW0NIMl1bQ0BIXShbQ0gzXSlOMltDSDJdW0NIMl1bQ0gyXVtDQEBIXShbQ0gzXSlbQ0gyXTI=

> <s_epik_cmdline>
J2VwaWtfcHl0aG9uJywgJy1waCcsICc3LjAnLCAnLXRuJywgJzgnLCAnLW1hJywgJzIwMCcsICctbWV0YWxfYmluZGluZycsICctaW1hZScsICc8aW5maWxlLm1hZT4nLCAnLW9tYWUnLCAnPG91dGZpbGUubWFlPic=

> <r_epik_Ionization_Penalty>
6.76934

> <r_epik_Ionization_Penalty_Charging>
6.76934

> <r_epik_Ionization_Penalty_Neutral>
5.77849e-06

> <r_epik_State_Penalty>
6.79457

> <r_epik_Charging_Adjusted_Penalty>
13.5639

> <i_epik_Tot_Q>
0

> <i_epik_Tot_abs_Q>
2

> <r_epik_Metal_State_Penalty>
2.72837

> <b_epik_Metal_Only>
1

> <s_lp_Force_Field>
OPLS_2005

> <r_lp_Energy>
16.9315

> <b_lp_Chiralities_Consistent>
1

> <s_lp_Variant>
AV-unprocessed.smi:2083-23

> <Gold.Version>
5.8.1

> <Gold.Id.Protein>
6NUR|6NUR_protein|mol2

> <Gold.PLP.Fitness>
46.5197

> <Gold.PLP.PLP>
-34.1500

> <Gold.PLP.part.hbond>
-4.9372

> <Gold.PLP.part.metal>
0.0000

> <Gold.PLP.part.buried>
-3.4738

> <Gold.PLP.part.nonpolar>
-26.1889

> <Gold.PLP.part.repulsive>
0.0836

> <Gold.PLP.ligand.clash>
0.0000

> <Gold.PLP.ligand.torsion>
0.6581

> <Gold.PLP.Chemscore.Hbond>
4.5088

> <Gold.PLP.Chemscore.CHOScore>
0.0000

> <Gold.PLP.Chemscore.Metal>
0.0000

> <Gold.Chemscore.Hbonds>
donor molecule, donor type, donor heavy atom, donor atom, acceptor molecule, acceptor atom, score
      L1  H    12    44       P1  7948  2.00
      P1  H  6896  6908       L1     7  1.00
      P1  H  6931  6943       L1    20  0.08
      P1  H  6934  6947       L1    20  0.65

> <Gold.PLP.Chemscore.Internal.Correction>
0.1596

> <Gold.Rescore>
     Score         DG    S(hbond)    S(metal)    S(lipo)     H(rot)  DE(clash)    DE(int)     intcor
     16.28     -18.22       2.49        0.00      71.13       1.52       0.00       1.93       ----

> <Gold.Chemscore.Fitness>
16.2828

> <Gold.Chemscore.DG>
-18.2189

> <Gold.Chemscore.ZeroCoef>
-5.4800

> <Gold.Chemscore.Hbond>
2.4867

> <Gold.Chemscore.Metal>
0.0000

> <Gold.Chemscore.Lipo>
71.1271

> <Gold.Chemscore.Internal_Hbond>
0.0000

> <Gold.Chemscore.DEClash>
0.0021

> <Gold.Chemscore.DEInternal>
1.9339

> <Gold.Chemscore.Rot>
1.5190

> <Gold.Chemscore.Internal.Correction>
   9.000000E+99

> <Gold.Chemscore.Hbonds>
donor molecule, donor type, donor heavy atom, donor atom, acceptor molecule, acceptor atom, score
      L1  H    12    44       P1  7948  0.70
      P1  H  6896  6908       L1     7  0.95
      P1  H  6934  6947       L1    20  0.05

> <Gold.Chemscore.Hbond.Weighted>
-8.3056

> <Gold.Chemscore.Metal.Weighted>
-0.0000

> <Gold.Chemscore.Lipo.Weighted>
-8.3219

> <Gold.Chemscore.Internal_Hbond.Weighted>
0.0000

> <Gold.Chemscore.DEClash.Weighted>
0.0021

> <Gold.Chemscore.DEInternal.Weighted>
1.9339

> <Gold.Chemscore.Rot.Weighted>
3.8886

> <Gold.Chemscore.Internal.Correction.Weighted>
   9.000000E+99

> <Gold.Protein.RotatedTorsions>
[ 6907 6896 6895 6894 ] final  119.92 input  -60.11 | X-H torsion
[ 7974 7965 7964 7962 ] final   89.90 input  175.53 | X-H torsion
[ 8008 7997 7996 7995 ] final  165.64 input   59.86 | X-H torsion
[ 10167 10162 10161 10158 ] final -167.64 input  -65.29 | X-H torsion
[ 10718 10713 10712 10709 ] final  142.80 input   66.30 | X-H torsion
[ 10763 10752 10751 10750 ] final -157.25 input  -60.55 | X-H torsion
[ 11005 11000 10999 10996 ] final    7.22 input  -57.11 | X-H torsion

> <Gold.Protein.ActiveResidues>
 VAL166  LYS551  ARG553  GLY616  TRP617  ASP618  TYR619  PRO620  LYS621  CYS622 
 ASP623  PHE694  ASN695  SER759  ASP760  ASP761  ALA762  ILE779  LEU786  VAL792 
 PHE793  MET794  SER795  GLU796  ALA797  LYS798  CYS799  TRP800  GLU811  SER814 

> <Gold.Protein.RotatedAtoms>
  152.4436  133.7495  159.6685 H   0  0  0  0  0  0  0  0  0  0  0  0  # atno 6907 bound_to 6896
  150.8332  133.8046  159.3096 H   0  0  0  0  0  0  0  0  0  0  0  0  # atno 6908 bound_to 6896
  151.5694  135.1065  160.0043 H   0  0  0  0  0  0  0  0  0  0  0  0  # atno 6909 bound_to 6896
  145.5262  139.2281  143.2644 H   0  0  0  0  0  0  0  0  0  0  0  0  # atno 7974 bound_to 7965
  156.1784  140.1664  156.8321 H   0  0  0  0  0  0  0  0  0  0  0  0  # atno 8008 bound_to 7997
  154.5332  140.0752  156.8415 H   0  0  0  0  0  0  0  0  0  0  0  0  # atno 8009 bound_to 7997
  155.3364  140.3382  155.4241 H   0  0  0  0  0  0  0  0  0  0  0  0  # atno 8010 bound_to 7997
  139.6036  144.0959  152.1769 H   0  0  0  0  0  0  0  0  0  0  0  0  # atno 10167 bound_to 10162
  157.3763  131.0986  151.0781 H   0  0  0  0  0  0  0  0  0  0  0  0  # atno 10718 bound_to 10713
  154.7650  135.3128  154.8304 H   0  0  0  0  0  0  0  0  0  0  0  0  # atno 10763 bound_to 10752
  153.9054  135.6811  153.4757 H   0  0  0  0  0  0  0  0  0  0  0  0  # atno 10764 bound_to 10752
  153.1255  135.4803  154.9198 H   0  0  0  0  0  0  0  0  0  0  0  0  # atno 10765 bound_to 10752
  140.5507  134.0286  155.7936 H   0  0  0  0  0  0  0  0  0  0  0  0  # atno 11005 bound_to 11000
  146.2074  140.6076  142.9075 LP  0  0  0  0  0  0  0  0  0  0  0  0  # atno 17320 bound_to 7965
  144.7650  140.5509  143.6709 LP  0  0  0  0  0  0  0  0  0  0  0  0  # atno 17321 bound_to 7965
  140.0561  144.5894  150.7298 LP  0  0  0  0  0  0  0  0  0  0  0  0  # atno 17342 bound_to 10162
  140.7268  143.2645  151.4092 LP  0  0  0  0  0  0  0  0  0  0  0  0  # atno 17343 bound_to 10162
  157.1866  130.6333  149.5690 LP  0  0  0  0  0  0  0  0  0  0  0  0  # atno 17370 bound_to 10713
  155.9766  130.4736  150.6539 LP  0  0  0  0  0  0  0  0  0  0  0  0  # atno 17371 bound_to 10713
  141.1173  133.9519  157.2797 LP  0  0  0  0  0  0  0  0  0  0  0  0  # atno 17394 bound_to 11000
  139.9457  135.0184  156.8843 LP  0  0  0  0  0  0  0  0  0  0  0  0  # atno 17395 bound_to 11000

$$$$
