AV-unprocessed.smi:1211|AV-procd|sdf|5080|dock4
  -GOLD-   22720 4133D 1   1.00000     0.00000
 Structure written by MMmdl.
 48 50  0  0  0  0  0  0  0  0  2 V2000
  147.5958  132.7195  152.4511 C   0  0  0  0  0  0  0  0  0  0  0  0
  146.2467  132.8512  151.7631 C   0  0  0  0  0  0  0  0  0  0  0  0
  145.6122  131.6945  151.2619 C   0  0  0  0  0  0  0  0  0  0  0  0
  144.3658  131.8174  150.6246 C   0  0  0  0  0  0  0  0  0  0  0  0
  143.8031  133.1001  150.5143 C   0  0  0  0  0  0  0  0  0  0  0  0
  144.4025  134.2110  150.9897 N   0  0  0  0  0  0  0  0  0  0  0  0
  145.6051  134.1094  151.6095 C   0  0  0  0  0  0  0  0  0  0  0  0
  146.2935  135.2376  152.1388 N   0  0  0  0  0  0  0  0  0  0  0  0
  145.8002  136.2473  152.8776 C   0  0  0  0  0  0  0  0  0  0  0  0
  144.6293  136.3620  153.2392 O   0  0  0  0  0  0  0  0  0  0  0  0
  146.7553  137.1400  153.1763 N   0  0  0  0  0  0  0  0  0  0  0  0
  146.5653  138.3503  153.9760 C   0  0  0  0  0  0  0  0  0  0  0  0
  147.8997  139.0885  154.3183 C   0  0  1  0  0  0  0  0  0  0  0  0
  149.0327  138.0916  154.2608 N   0  3  0  0  0  0  0  0  0  0  0  0
  150.4188  138.6382  154.2591 C   0  0  0  0  0  0  0  0  0  0  0  0
  151.4574  137.5153  154.0867 C   0  0  0  0  0  0  0  0  0  0  0  0
  151.2852  136.5273  155.0915 O   0  0  0  0  0  0  0  0  0  0  0  0
  150.0052  135.9195  155.0079 C   0  0  0  0  0  0  0  0  0  0  0  0
  148.9246  136.9835  155.2516 C   0  0  0  0  0  0  0  0  0  0  0  0
  148.0952  140.3016  153.3654 C   0  0  0  0  0  0  0  0  0  0  0  0
  147.0611  141.3738  153.7224 C   0  0  0  0  0  0  0  0  0  0  0  0
  146.8267  141.3010  155.5151 S   0  0  0  0  0  0  0  0  0  0  0  0
  147.7778  139.7670  155.7032 C   0  0  0  0  0  0  0  0  0  0  0  0
  147.9276  131.6810  152.4787 H   0  0  0  0  0  0  0  0  0  0  0  0
  147.5369  133.0794  153.4787 H   0  0  0  0  0  0  0  0  0  0  0  0
  148.3526  133.2991  151.9215 H   0  0  0  0  0  0  0  0  0  0  0  0
  146.0728  130.7226  151.3625 H   0  0  0  0  0  0  0  0  0  0  0  0
  143.8547  130.9513  150.2308 H   0  0  0  0  0  0  0  0  0  0  0  0
  142.8470  133.2392  150.0320 H   0  0  0  0  0  0  0  0  0  0  0  0
  147.2787  135.2771  151.9248 H   0  0  0  0  0  0  0  0  0  0  0  0
  147.6920  136.9542  152.8496 H   0  0  0  0  0  0  0  0  0  0  0  0
  145.8454  139.0107  153.4927 H   0  0  0  0  0  0  0  0  0  0  0  0
  146.0605  138.0417  154.8906 H   0  0  0  0  0  0  0  0  0  0  0  0
  150.5676  139.3268  153.4288 H   0  0  0  0  0  0  0  0  0  0  0  0
  150.6060  139.1846  155.1840 H   0  0  0  0  0  0  0  0  0  0  0  0
  151.3755  137.0603  153.0982 H   0  0  0  0  0  0  0  0  0  0  0  0
  152.4655  137.9229  154.1634 H   0  0  0  0  0  0  0  0  0  0  0  0
  149.8723  135.4379  154.0377 H   0  0  0  0  0  0  0  0  0  0  0  0
  149.9377  135.1372  155.7642 H   0  0  0  0  0  0  0  0  0  0  0  0
  149.0340  137.3726  156.2644 H   0  0  0  0  0  0  0  0  0  0  0  0
  147.9489  136.5038  155.1992 H   0  0  0  0  0  0  0  0  0  0  0  0
  149.0606  140.7775  153.5318 H   0  0  0  0  0  0  0  0  0  0  0  0
  148.0578  140.0311  152.3108 H   0  0  0  0  0  0  0  0  0  0  0  0
  147.3854  142.3685  153.4154 H   0  0  0  0  0  0  0  0  0  0  0  0
  146.1081  141.1772  153.2311 H   0  0  0  0  0  0  0  0  0  0  0  0
  147.3143  139.1249  156.4528 H   0  0  0  0  0  0  0  0  0  0  0  0
  148.7615  140.0473  156.0811 H   0  0  0  0  0  0  0  0  0  0  0  0
  148.9356  137.6564  153.3547 H   0  0  0  0  0  0  0  0  0  0  0  0
  1  2  1  0  0  0  0
  1 24  1  0  0  0  0
  1 25  1  0  0  0  0
  1 26  1  0  0  0  0
  2  7  1  0  0  0  0
  2  3  2  0  0  0  0
  3  4  1  0  0  0  0
  3 27  1  0  0  0  0
  4  5  2  0  0  0  0
  4 28  1  0  0  0  0
  5  6  1  0  0  0  0
  5 29  1  0  0  0  0
  6  7  2  0  0  0  0
  7  8  1  0  0  0  0
  8  9  1  0  0  0  0
  8 30  1  0  0  0  0
  9 10  2  0  0  0  0
  9 11  1  0  0  0  0
 11 12  1  0  0  0  0
 11 31  1  0  0  0  0
 12 13  1  0  0  0  0
 12 32  1  0  0  0  0
 12 33  1  0  0  0  0
 13 23  1  0  0  0  0
 13 14  1  0  0  0  0
 13 20  1  0  0  0  0
 14 19  1  0  0  0  0
 14 15  1  0  0  0  0
 14 48  1  0  0  0  0
 15 16  1  0  0  0  0
 15 34  1  0  0  0  0
 15 35  1  0  0  0  0
 16 17  1  0  0  0  0
 16 36  1  0  0  0  0
 16 37  1  0  0  0  0
 17 18  1  0  0  0  0
 18 19  1  0  0  0  0
 18 38  1  0  0  0  0
 18 39  1  0  0  0  0
 19 40  1  0  0  0  0
 19 41  1  0  0  0  0
 20 21  1  0  0  0  0
 20 42  1  0  0  0  0
 20 43  1  0  0  0  0
 21 22  1  0  0  0  0
 21 44  1  0  0  0  0
 21 45  1  0  0  0  0
 22 23  1  0  0  0  0
 23 46  1  0  0  0  0
 23 47  1  0  0  0  0
M  CHG  1  14   1
M  END
> <s_m_source_file>
AV-unprocessed.smi

> <i_m_source_file_index>
1211

> <i_lp_mmshare_version>
43012

> <i_f3d_flags>
0

> <s_epik_input>
W0NIM11jMVtjSF1bY0hdW2NIXW5jMVtOSF1DKD1PKVtOSF1bQ0gyXVtDQF0yKFtDSDJdW0NIMl1TW0NIMl0yKU4zW0NIMl1bQ0gyXU9bQ0gyXVtDSDJdMw==

> <s_epik_cmdline>
J2VwaWtfcHl0aG9uJywgJy1waCcsICc3LjAnLCAnLXRuJywgJzgnLCAnLW1hJywgJzIwMCcsICctbWV0YWxfYmluZGluZycsICctaW1hZScsICc8aW5maWxlLm1hZT4nLCAnLW9tYWUnLCAnPG91dGZpbGUubWFlPic=

> <r_epik_Ionization_Penalty>
2.03223

> <r_epik_Ionization_Penalty_Charging>
2.03219

> <r_epik_Ionization_Penalty_Neutral>
4.05816e-05

> <r_epik_State_Penalty>
2.16328

> <r_epik_Charging_Adjusted_Penalty>
4.19546

> <i_epik_Tot_Q>
1

> <i_epik_Tot_abs_Q>
1

> <r_epik_Metal_State_Penalty>
2.16328

> <b_epik_Metal_Only>
0

> <s_lp_Force_Field>
OPLS_2005

> <r_lp_Energy>
45.8952

> <b_lp_Chiralities_Consistent>
1

> <s_lp_Variant>
AV-unprocessed.smi:1211-3

> <Gold.Version>
5.8.1

> <Gold.Id.Protein>
6NUR|6NUR_protein|mol2

> <Gold.PLP.Fitness>
48.8316

> <Gold.PLP.PLP>
-33.3313

> <Gold.PLP.part.hbond>
-4.0000

> <Gold.PLP.part.metal>
0.0000

> <Gold.PLP.part.buried>
-1.1379

> <Gold.PLP.part.nonpolar>
-29.1735

> <Gold.PLP.part.repulsive>
0.4298

> <Gold.PLP.ligand.clash>
0.0000

> <Gold.PLP.ligand.torsion>
1.2953

> <Gold.PLP.Chemscore.Hbond>
4.9825

> <Gold.PLP.Chemscore.CHOScore>
1.0000

> <Gold.PLP.Chemscore.Metal>
0.0000

> <Gold.Chemscore.Hbonds>
donor molecule, donor type, donor heavy atom, donor atom, acceptor molecule, acceptor atom, score
      L1  H     8    30       P1  7948  1.00
      L1  H    11    31       P1  7948  1.00
      L1  H    14    48       P1  7948  1.92
      P1  H 10752 10764       L1    17  0.80
      L1  C     5    29       P1 10186  1.00

> <Gold.PLP.Chemscore.Internal.Correction>
0.1435

> <Gold.Rescore>
     Score         DG    S(hbond)    S(metal)    S(lipo)     H(rot)  DE(clash)    DE(int)     intcor
     20.62     -23.47       3.24        0.00      93.72       1.48       1.47       1.38       ----

> <Gold.Chemscore.Fitness>
20.6172

> <Gold.Chemscore.DG>
-23.4729

> <Gold.Chemscore.ZeroCoef>
-5.4800

> <Gold.Chemscore.Hbond>
3.2401

> <Gold.Chemscore.Metal>
0.0000

> <Gold.Chemscore.Lipo>
93.7167

> <Gold.Chemscore.Internal_Hbond>
0.0000

> <Gold.Chemscore.DEClash>
1.4723

> <Gold.Chemscore.DEInternal>
1.3834

> <Gold.Chemscore.Rot>
1.4820

> <Gold.Chemscore.Internal.Correction>
   9.000000E+99

> <Gold.Chemscore.Hbonds>
donor molecule, donor type, donor heavy atom, donor atom, acceptor molecule, acceptor atom, score
      L1  H     8    30       P1  7948  0.95
      L1  H    11    31       P1  7948  0.99
      L1  H    14    48       P1  7948  0.91
      P1  H 10752 10764       L1    17  0.11

> <Gold.Chemscore.Hbond.Weighted>
-10.8219

> <Gold.Chemscore.Metal.Weighted>
-0.0000

> <Gold.Chemscore.Lipo.Weighted>
-10.9649

> <Gold.Chemscore.Internal_Hbond.Weighted>
0.0000

> <Gold.Chemscore.DEClash.Weighted>
1.4723

> <Gold.Chemscore.DEInternal.Weighted>
1.3834

> <Gold.Chemscore.Rot.Weighted>
3.7939

> <Gold.Chemscore.Internal.Correction.Weighted>
   9.000000E+99

> <Gold.Protein.RotatedTorsions>
[ 6907 6896 6895 6894 ] final  151.97 input  -60.11 | X-H torsion
[ 7974 7965 7964 7962 ] final  -82.64 input  175.53 | X-H torsion
[ 8008 7997 7996 7995 ] final  -57.92 input   59.86 | X-H torsion
[ 10167 10162 10161 10158 ] final -168.84 input  -65.29 | X-H torsion
[ 10718 10713 10712 10709 ] final  -61.89 input   66.30 | X-H torsion
[ 10763 10752 10751 10750 ] final  -49.96 input  -60.55 | X-H torsion
[ 11005 11000 10999 10996 ] final -102.09 input  -57.11 | X-H torsion

> <Gold.Protein.ActiveResidues>
 VAL166  LYS551  ARG553  GLY616  TRP617  ASP618  TYR619  PRO620  LYS621  CYS622 
 ASP623  PHE694  ASN695  SER759  ASP760  ASP761  ALA762  ILE779  LEU786  VAL792 
 PHE793  MET794  SER795  GLU796  ALA797  LYS798  CYS799  TRP800  GLU811  SER814 

> <Gold.Protein.RotatedAtoms>
  152.0933  133.4211  159.4553 H   0  0  0  0  0  0  0  0  0  0  0  0  # atno 6907 bound_to 6896
  150.6863  134.2847  159.4651 H   0  0  0  0  0  0  0  0  0  0  0  0  # atno 6908 bound_to 6896
  152.0700  134.9539  160.0625 H   0  0  0  0  0  0  0  0  0  0  0  0  # atno 6909 bound_to 6896
  145.5306  140.9521  143.1605 H   0  0  0  0  0  0  0  0  0  0  0  0  # atno 7974 bound_to 7965
  154.4287  140.1096  156.5874 H   0  0  0  0  0  0  0  0  0  0  0  0  # atno 8008 bound_to 7997
  155.6048  140.3493  155.4586 H   0  0  0  0  0  0  0  0  0  0  0  0  # atno 8009 bound_to 7997
  156.0145  140.1226  157.0410 H   0  0  0  0  0  0  0  0  0  0  0  0  # atno 8010 bound_to 7997
  139.5960  144.1111  152.1689 H   0  0  0  0  0  0  0  0  0  0  0  0  # atno 10167 bound_to 10162
  156.0891  130.4203  150.1058 H   0  0  0  0  0  0  0  0  0  0  0  0  # atno 10718 bound_to 10713
  154.1026  135.6561  153.4871 H   0  0  0  0  0  0  0  0  0  0  0  0  # atno 10763 bound_to 10752
  153.0283  135.5229  154.7271 H   0  0  0  0  0  0  0  0  0  0  0  0  # atno 10764 bound_to 10752
  154.6427  135.2990  155.0052 H   0  0  0  0  0  0  0  0  0  0  0  0  # atno 10765 bound_to 10752
  141.1204  133.8530  157.1315 H   0  0  0  0  0  0  0  0  0  0  0  0  # atno 11005 bound_to 11000
  144.7628  139.6916  143.7227 LP  0  0  0  0  0  0  0  0  0  0  0  0  # atno 17320 bound_to 7965
  146.2046  139.5363  142.9720 LP  0  0  0  0  0  0  0  0  0  0  0  0  # atno 17321 bound_to 7965
  140.0697  144.5790  150.7201 LP  0  0  0  0  0  0  0  0  0  0  0  0  # atno 17342 bound_to 10162
  140.7212  143.2591  151.4272 LP  0  0  0  0  0  0  0  0  0  0  0  0  # atno 17343 bound_to 10162
  156.9072  130.9640  151.3568 LP  0  0  0  0  0  0  0  0  0  0  0  0  # atno 17370 bound_to 10713
  157.6035  130.8530  149.8839 LP  0  0  0  0  0  0  0  0  0  0  0  0  # atno 17371 bound_to 10713
  140.0157  134.9968  157.0487 LP  0  0  0  0  0  0  0  0  0  0  0  0  # atno 17394 bound_to 11000
  140.4524  134.1568  155.7183 LP  0  0  0  0  0  0  0  0  0  0  0  0  # atno 17395 bound_to 11000

$$$$
