AV-unprocessed.smi:657|AV-procd|sdf|3220|dock7
  -GOLD-   22720 0163D 1   1.00000     0.00000
 Structure written by MMmdl.
 47 48  0  0  0  0  0  0  0  0  2 V2000
  145.6892  136.3158  150.5393 C   0  0  0  0  0  0  0  0  0  0  0  0
  145.6500  134.9791  151.3069 C   0  0  0  0  0  0  0  0  0  0  0  0
  144.2350  134.6642  151.8227 C   0  0  0  0  0  0  0  0  0  0  0  0
  146.6711  134.8825  152.4051 N   0  3  2  0  0  0  0  0  0  0  0  0
  147.0608  133.4746  152.7172 C   0  0  0  0  0  0  0  0  0  0  0  0
  148.2385  133.4040  153.6969 C   0  0  0  0  0  0  0  0  0  0  0  0
  147.8835  134.1216  154.9984 C   0  0  0  0  0  0  0  0  0  0  0  0
  147.5009  135.5685  154.6840 C   0  0  0  0  0  0  0  0  0  0  0  0
  146.3542  135.6681  153.6466 C   0  0  1  0  0  0  0  0  0  0  0  0
  146.1224  137.1658  153.3843 C   0  0  0  0  0  0  0  0  0  0  0  0
  145.0417  137.6864  153.6627 O   0  0  0  0  0  0  0  0  0  0  0  0
  147.1354  137.8314  152.8103 N   0  0  0  0  0  0  0  0  0  0  0  0
  147.0897  139.2250  152.3779 C   0  0  0  0  0  0  0  0  0  0  0  0
  146.9368  140.2068  153.5579 C   0  0  0  0  0  0  0  0  0  0  0  0
  148.2184  140.3986  154.3274 C   0  0  0  0  0  0  0  0  0  0  0  0
  149.4235  139.6458  154.2292 C   0  0  0  0  0  0  0  0  0  0  0  0
  150.3796  140.1004  155.0225 N   0  0  0  0  0  0  0  0  0  0  0  0
  149.8186  141.1493  155.6584 N   0  0  0  0  0  0  0  0  0  0  0  0
  150.5976  141.9019  156.6182 C   0  0  0  0  0  0  0  0  0  0  0  0
  148.5132  141.3480  155.2649 C   0  0  0  0  0  0  0  0  0  0  0  0
  145.0044  136.2891  149.6911 H   0  0  0  0  0  0  0  0  0  0  0  0
  146.6818  136.5265  150.1420 H   0  0  0  0  0  0  0  0  0  0  0  0
  145.3879  137.1575  151.1630 H   0  0  0  0  0  0  0  0  0  0  0  0
  145.8438  134.1999  150.5722 H   0  0  0  0  0  0  0  0  0  0  0  0
  143.5352  134.5709  150.9917 H   0  0  0  0  0  0  0  0  0  0  0  0
  143.8476  135.4435  152.4783 H   0  0  0  0  0  0  0  0  0  0  0  0
  144.2162  133.7215  152.3705 H   0  0  0  0  0  0  0  0  0  0  0  0
  146.2135  132.9406  153.1489 H   0  0  0  0  0  0  0  0  0  0  0  0
  147.3393  132.9427  151.8090 H   0  0  0  0  0  0  0  0  0  0  0  0
  148.4891  132.3632  153.9041 H   0  0  0  0  0  0  0  0  0  0  0  0
  149.1247  133.8551  153.2485 H   0  0  0  0  0  0  0  0  0  0  0  0
  147.0556  133.6142  155.4954 H   0  0  0  0  0  0  0  0  0  0  0  0
  148.7284  134.0962  155.6872 H   0  0  0  0  0  0  0  0  0  0  0  0
  147.2161  136.0708  155.6100 H   0  0  0  0  0  0  0  0  0  0  0  0
  148.3858  136.0911  154.3151 H   0  0  0  0  0  0  0  0  0  0  0  0
  145.4513  135.2460  154.0906 H   0  0  0  0  0  0  0  0  0  0  0  0
  147.9847  137.3233  152.6086 H   0  0  0  0  0  0  0  0  0  0  0  0
  147.9684  139.4731  151.7806 H   0  0  0  0  0  0  0  0  0  0  0  0
  146.2295  139.3239  151.7154 H   0  0  0  0  0  0  0  0  0  0  0  0
  146.5846  141.1646  153.1730 H   0  0  0  0  0  0  0  0  0  0  0  0
  146.1425  139.8516  154.2148 H   0  0  0  0  0  0  0  0  0  0  0  0
  149.6341  138.7958  153.5972 H   0  0  0  0  0  0  0  0  0  0  0  0
  150.0385  142.7776  156.9486 H   0  0  0  0  0  0  0  0  0  0  0  0
  151.5318  142.2304  156.1618 H   0  0  0  0  0  0  0  0  0  0  0  0
  150.8208  141.2758  157.4824 H   0  0  0  0  0  0  0  0  0  0  0  0
  147.9113  142.1485  155.6691 H   0  0  0  0  0  0  0  0  0  0  0  0
  147.5001  135.3220  152.0308 H   0  0  0  0  0  0  0  0  0  0  0  0
  1  2  1  0  0  0  0
  1 21  1  0  0  0  0
  1 22  1  0  0  0  0
  1 23  1  0  0  0  0
  2  3  1  0  0  0  0
  2  4  1  0  0  0  0
  2 24  1  0  0  0  0
  3 25  1  0  0  0  0
  3 26  1  0  0  0  0
  3 27  1  0  0  0  0
  4  9  1  0  0  0  0
  4  5  1  0  0  0  0
  4 47  1  0  0  0  0
  5  6  1  0  0  0  0
  5 28  1  0  0  0  0
  5 29  1  0  0  0  0
  6  7  1  0  0  0  0
  6 30  1  0  0  0  0
  6 31  1  0  0  0  0
  7  8  1  0  0  0  0
  7 32  1  0  0  0  0
  7 33  1  0  0  0  0
  8  9  1  0  0  0  0
  8 34  1  0  0  0  0
  8 35  1  0  0  0  0
  9 10  1  0  0  0  0
  9 36  1  0  0  0  0
 10 11  2  0  0  0  0
 10 12  1  0  0  0  0
 12 13  1  0  0  0  0
 12 37  1  0  0  0  0
 13 14  1  0  0  0  0
 13 38  1  0  0  0  0
 13 39  1  0  0  0  0
 14 15  1  0  0  0  0
 14 40  1  0  0  0  0
 14 41  1  0  0  0  0
 15 20  2  0  0  0  0
 15 16  1  0  0  0  0
 16 17  2  0  0  0  0
 16 42  1  0  0  0  0
 17 18  1  0  0  0  0
 18 19  1  0  0  0  0
 18 20  1  0  0  0  0
 19 43  1  0  0  0  0
 19 44  1  0  0  0  0
 19 45  1  0  0  0  0
 20 46  1  0  0  0  0
M  CHG  1   4   1
M  END
> <s_m_source_file>
AV-unprocessed.smi

> <i_m_source_file_index>
657

> <i_lp_mmshare_version>
43012

> <i_f3d_flags>
0

> <s_epik_input>
W0NIM11bQ0hdKFtDSDNdKU4xW0NIMl1bQ0gyXVtDSDJdW0NIMl1bQ0BIXTFDKD1PKVtOSF1bQ0gyXVtDSDJdYzJbY0hdbm4oW0NIM10pW2NIXTI=

> <s_epik_cmdline>
J2VwaWtfcHl0aG9uJywgJy1waCcsICc3LjAnLCAnLXRuJywgJzgnLCAnLW1hJywgJzIwMCcsICctbWV0YWxfYmluZGluZycsICctaW1hZScsICc8aW5maWxlLm1hZT4nLCAnLW9tYWUnLCAnPG91dGZpbGUubWFlPic=

> <r_lp_tautomer_probability>
1

> <r_epik_Ionization_Penalty>
0.0244317

> <r_epik_Ionization_Penalty_Charging>
0.0240236

> <r_epik_Ionization_Penalty_Neutral>
0.00040815

> <r_epik_State_Penalty>
0.0194773

> <r_epik_Charging_Adjusted_Penalty>
0.0435009

> <i_epik_Tot_Q>
1

> <i_epik_Tot_abs_Q>
1

> <r_epik_Metal_State_Penalty>
0.0361957

> <b_epik_Metal_Only>
0

> <s_lp_Force_Field>
OPLS_2005

> <r_lp_Energy>
17.8505

> <b_lp_Chiralities_Consistent>
1

> <s_lp_Variant>
AV-unprocessed.smi:657-1

> <Gold.Version>
5.8.1

> <Gold.Id.Protein>
6NUR|6NUR_protein|mol2

> <Gold.PLP.Fitness>
46.2496

> <Gold.PLP.PLP>
-31.7373

> <Gold.PLP.part.hbond>
-3.0000

> <Gold.PLP.part.metal>
0.0000

> <Gold.PLP.part.buried>
3.1023

> <Gold.PLP.part.nonpolar>
-29.5558

> <Gold.PLP.part.repulsive>
0.2630

> <Gold.PLP.ligand.clash>
0.0000

> <Gold.PLP.ligand.torsion>
0.5309

> <Gold.PLP.Chemscore.Hbond>
4.0000

> <Gold.PLP.Chemscore.CHOScore>
1.1433

> <Gold.PLP.Chemscore.Metal>
0.0000

> <Gold.Chemscore.Hbonds>
donor molecule, donor type, donor heavy atom, donor atom, acceptor molecule, acceptor atom, score
      L1  H     4    47       P1  7948  2.00
      L1  H    12    37       P1  7948  1.00
      P1  H  7989  7998       L1    17  0.66
      L1  C    16    42       P1  7957  0.20
      L1  C    20    46       P1  8028  0.40

> <Gold.PLP.Chemscore.Internal.Correction>
0.1439

> <Gold.Rescore>
     Score         DG    S(hbond)    S(metal)    S(lipo)     H(rot)  DE(clash)    DE(int)     intcor
     17.76     -18.74       2.72        0.00      71.26       1.63       0.18       0.81       ----

> <Gold.Chemscore.Fitness>
17.7626

> <Gold.Chemscore.DG>
-18.7442

> <Gold.Chemscore.ZeroCoef>
-5.4800

> <Gold.Chemscore.Hbond>
2.7230

> <Gold.Chemscore.Metal>
0.0000

> <Gold.Chemscore.Lipo>
71.2556

> <Gold.Chemscore.Internal_Hbond>
0.0000

> <Gold.Chemscore.DEClash>
0.1762

> <Gold.Chemscore.DEInternal>
0.8054

> <Gold.Chemscore.Rot>
1.6279

> <Gold.Chemscore.Internal.Correction>
   9.000000E+99

> <Gold.Chemscore.Hbonds>
donor molecule, donor type, donor heavy atom, donor atom, acceptor molecule, acceptor atom, score
      L1  H     4    47       P1  7948  0.99
      L1  H    12    37       P1  7948  0.98
      P1  H  7989  7998       L1    17  0.07

> <Gold.Chemscore.Hbond.Weighted>
-9.0947

> <Gold.Chemscore.Metal.Weighted>
-0.0000

> <Gold.Chemscore.Lipo.Weighted>
-8.3369

> <Gold.Chemscore.Internal_Hbond.Weighted>
0.0000

> <Gold.Chemscore.DEClash.Weighted>
0.1762

> <Gold.Chemscore.DEInternal.Weighted>
0.8054

> <Gold.Chemscore.Rot.Weighted>
4.1673

> <Gold.Chemscore.Internal.Correction.Weighted>
   9.000000E+99

> <Gold.Protein.RotatedTorsions>
[ 6907 6896 6895 6894 ] final   90.69 input  -60.11 | X-H torsion
[ 7974 7965 7964 7962 ] final  -77.98 input  175.53 | X-H torsion
[ 8008 7997 7996 7995 ] final  -96.22 input   59.86 | X-H torsion
[ 10167 10162 10161 10158 ] final -144.06 input  -65.29 | X-H torsion
[ 10718 10713 10712 10709 ] final   93.32 input   66.30 | X-H torsion
[ 10763 10752 10751 10750 ] final   32.62 input  -60.55 | X-H torsion
[ 11005 11000 10999 10996 ] final   11.52 input  -57.11 | X-H torsion

> <Gold.Protein.ActiveResidues>
 VAL166  LYS551  ARG553  GLY616  TRP617  ASP618  TYR619  PRO620  LYS621  CYS622 
 ASP623  PHE694  ASN695  SER759  ASP760  ASP761  ALA762  ILE779  LEU786  VAL792 
 PHE793  MET794  SER795  GLU796  ALA797  LYS798  CYS799  TRP800  GLU811  SER814 

> <Gold.Protein.RotatedAtoms>
  152.5446  134.1772  159.8620 H   0  0  0  0  0  0  0  0  0  0  0  0  # atno 6907 bound_to 6896
  151.1777  133.4737  159.2601 H   0  0  0  0  0  0  0  0  0  0  0  0  # atno 6908 bound_to 6896
  151.1210  135.0090  159.8593 H   0  0  0  0  0  0  0  0  0  0  0  0  # atno 6909 bound_to 6896
  145.5925  140.9426  143.1284 H   0  0  0  0  0  0  0  0  0  0  0  0  # atno 7974 bound_to 7965
  154.7716  140.0473  157.1055 H   0  0  0  0  0  0  0  0  0  0  0  0  # atno 8008 bound_to 7997
  154.9814  140.3102  155.4925 H   0  0  0  0  0  0  0  0  0  0  0  0  # atno 8009 bound_to 7997
  156.2922  140.2235  156.4913 H   0  0  0  0  0  0  0  0  0  0  0  0  # atno 8010 bound_to 7997
  139.7935  143.7933  152.2652 H   0  0  0  0  0  0  0  0  0  0  0  0  # atno 10167 bound_to 10162
  157.6955  131.0474  150.4017 H   0  0  0  0  0  0  0  0  0  0  0  0  # atno 10718 bound_to 10713
  153.0253  135.6408  154.1384 H   0  0  0  0  0  0  0  0  0  0  0  0  # atno 10763 bound_to 10752
  154.1114  135.2853  155.3231 H   0  0  0  0  0  0  0  0  0  0  0  0  # atno 10764 bound_to 10752
  154.6329  135.5486  153.7763 H   0  0  0  0  0  0  0  0  0  0  0  0  # atno 10765 bound_to 10752
  140.5023  134.0734  155.7797 H   0  0  0  0  0  0  0  0  0  0  0  0  # atno 11005 bound_to 11000
  144.7345  139.7627  143.7334 LP  0  0  0  0  0  0  0  0  0  0  0  0  # atno 17320 bound_to 7965
  146.1636  139.4759  142.9972 LP  0  0  0  0  0  0  0  0  0  0  0  0  # atno 17321 bound_to 7965
  139.8032  144.7366  150.9797 LP  0  0  0  0  0  0  0  0  0  0  0  0  # atno 17342 bound_to 10162
  140.7820  143.4324  151.0674 LP  0  0  0  0  0  0  0  0  0  0  0  0  # atno 17343 bound_to 10162
  156.4409  130.3991  149.6698 LP  0  0  0  0  0  0  0  0  0  0  0  0  # atno 17370 bound_to 10713
  156.3881  130.7613  151.2612 LP  0  0  0  0  0  0  0  0  0  0  0  0  # atno 17371 bound_to 10713
  141.1429  133.9106  157.2284 LP  0  0  0  0  0  0  0  0  0  0  0  0  # atno 17394 bound_to 11000
  139.9706  135.0129  156.9502 LP  0  0  0  0  0  0  0  0  0  0  0  0  # atno 17395 bound_to 11000

$$$$
