AV-unprocessed.smi:3250|AV-procd|sdf|12430|dock1
  -GOLD-   2272018313D 1   1.00000     0.00000
 Structure written by MMmdl.
 38 39  0  0  0  0  0  0  0  0  1 V2000
  153.9699  141.3203  161.0681 C   0  0  0  0  0  0  0  0  0  0  0  0
  153.1088  142.5792  161.2438 C   0  0  0  0  0  0  0  0  0  0  0  0
  152.6803  143.2117  159.9976 N   0  0  0  0  0  0  0  0  0  0  0  0
  151.7473  144.3136  160.2201 C   0  0  0  0  0  0  0  0  0  0  0  0
  151.2787  144.9427  158.8973 C   0  0  0  0  0  0  0  0  0  0  0  0
  150.7011  143.9377  158.0713 O   0  0  0  0  0  0  0  0  0  0  0  0
  151.6032  142.8735  157.7767 C   0  0  2  0  0  0  0  0  0  0  0  0
  150.8801  141.8580  156.8825 C   0  0  0  0  0  0  0  0  0  0  0  0
  151.8197  141.0213  156.1514 N   0  0  0  0  0  0  0  0  0  0  0  0
  151.5126  139.7719  155.6471 C   0  0  0  0  0  0  0  0  0  0  0  0
  150.7192  139.7633  154.5737 N   0  0  0  0  0  0  0  0  0  0  0  0
  150.3965  138.5569  154.0592 C   0  0  0  0  0  0  0  0  0  0  0  0
  150.8725  137.3568  154.6238 C   0  0  0  0  0  0  0  0  0  0  0  0
  151.7062  137.4812  155.7537 C   0  0  0  0  0  0  0  0  0  0  0  0
  152.2103  136.3458  156.3532 O   0  0  0  0  0  0  0  0  0  0  0  0
  153.0700  136.5063  157.4762 C   0  0  0  0  0  0  0  0  0  0  0  0
  152.0227  138.6985  156.2620 N   0  0  0  0  0  0  0  0  0  0  0  0
  152.0590  142.2385  159.1052 C   0  0  0  0  0  0  0  0  0  0  0  0
  154.1638  140.8523  162.0333 H   0  0  0  0  0  0  0  0  0  0  0  0
  154.9368  141.5468  160.6196 H   0  0  0  0  0  0  0  0  0  0  0  0
  153.4676  140.5848  160.4391 H   0  0  0  0  0  0  0  0  0  0  0  0
  152.2246  142.2919  161.8140 H   0  0  0  0  0  0  0  0  0  0  0  0
  153.6421  143.3019  161.8629 H   0  0  0  0  0  0  0  0  0  0  0  0
  150.8795  143.9576  160.7773 H   0  0  0  0  0  0  0  0  0  0  0  0
  152.2137  145.0883  160.8276 H   0  0  0  0  0  0  0  0  0  0  0  0
  150.5367  145.7183  159.0878 H   0  0  0  0  0  0  0  0  0  0  0  0
  152.1126  145.4166  158.3771 H   0  0  0  0  0  0  0  0  0  0  0  0
  152.4732  143.2684  157.2480 H   0  0  0  0  0  0  0  0  0  0  0  0
  150.2513  141.2123  157.4965 H   0  0  0  0  0  0  0  0  0  0  0  0
  150.2240  142.3722  156.1792 H   0  0  0  0  0  0  0  0  0  0  0  0
  152.7209  141.4094  155.9131 H   0  0  0  0  0  0  0  0  0  0  0  0
  149.7544  138.5484  153.1912 H   0  0  0  0  0  0  0  0  0  0  0  0
  150.6129  136.3931  154.2114 H   0  0  0  0  0  0  0  0  0  0  0  0
  153.3880  135.5261  157.8307 H   0  0  0  0  0  0  0  0  0  0  0  0
  152.5607  137.0075  158.3006 H   0  0  0  0  0  0  0  0  0  0  0  0
  153.9666  137.0703  157.2145 H   0  0  0  0  0  0  0  0  0  0  0  0
  152.7631  141.4328  158.8940 H   0  0  0  0  0  0  0  0  0  0  0  0
  151.2013  141.7800  159.6005 H   0  0  0  0  0  0  0  0  0  0  0  0
  1  2  1  0  0  0  0
  1 19  1  0  0  0  0
  1 20  1  0  0  0  0
  1 21  1  0  0  0  0
  2  3  1  0  0  0  0
  2 22  1  0  0  0  0
  2 23  1  0  0  0  0
  3 18  1  0  0  0  0
  3  4  1  0  0  0  0
  4  5  1  0  0  0  0
  4 24  1  0  0  0  0
  4 25  1  0  0  0  0
  5  6  1  0  0  0  0
  5 26  1  0  0  0  0
  5 27  1  0  0  0  0
  6  7  1  0  0  0  0
  7  8  1  0  0  0  0
  7 18  1  0  0  0  0
  7 28  1  0  0  0  0
  8  9  1  0  0  0  0
  8 29  1  0  0  0  0
  8 30  1  0  0  0  0
  9 10  1  0  0  0  0
  9 31  1  0  0  0  0
 10 17  1  0  0  0  0
 10 11  2  0  0  0  0
 11 12  1  0  0  0  0
 12 13  2  0  0  0  0
 12 32  1  0  0  0  0
 13 14  1  0  0  0  0
 13 33  1  0  0  0  0
 14 15  1  0  0  0  0
 14 17  2  0  0  0  0
 15 16  1  0  0  0  0
 16 34  1  0  0  0  0
 16 35  1  0  0  0  0
 16 36  1  0  0  0  0
 18 37  1  0  0  0  0
 18 38  1  0  0  0  0
M  END
> <s_m_source_file>
AV-unprocessed.smi

> <i_m_source_file_index>
3250

> <i_lp_mmshare_version>
43012

> <i_f3d_flags>
0

> <s_epik_input>
W0NIM11bQ0gyXU4xW0NIMl1bQ0gyXU9bQ0BIXShbQ0gyXTEpW0NIMl1bTkhdYzJuW2NIXVtjSF1jKG4yKU9bQ0gzXQ==

> <s_epik_cmdline>
J2VwaWtfcHl0aG9uJywgJy1waCcsICc3LjAnLCAnLXRuJywgJzgnLCAnLW1hJywgJzIwMCcsICctbWV0YWxfYmluZGluZycsICctaW1hZScsICc8aW5maWxlLm1hZT4nLCAnLW9tYWUnLCAnPG91dGZpbGUubWFlPic=

> <r_lp_tautomer_probability>
1

> <r_epik_Ionization_Penalty>
0.832605

> <r_epik_Ionization_Penalty_Charging>
0

> <r_epik_Ionization_Penalty_Neutral>
0.832605

> <r_epik_State_Penalty>
0.927194

> <r_epik_Charging_Adjusted_Penalty>
0.927194

> <i_epik_Tot_Q>
0

> <i_epik_Tot_abs_Q>
0

> <r_epik_Metal_State_Penalty>
0.908632

> <b_epik_Metal_Only>
0

> <s_lp_Force_Field>
OPLS_2005

> <r_lp_Energy>
15.3414

> <b_lp_Chiralities_Consistent>
1

> <s_lp_Variant>
AV-unprocessed.smi:3250-6

> <Gold.Version>
5.8.1

> <Gold.Id.Protein>
6NUR|6NUR_protein|mol2

> <Gold.PLP.Fitness>
42.9856

> <Gold.PLP.PLP>
-34.8107

> <Gold.PLP.part.hbond>
-2.0000

> <Gold.PLP.part.metal>
0.0000

> <Gold.PLP.part.buried>
-4.9650

> <Gold.PLP.part.nonpolar>
-29.1057

> <Gold.PLP.part.repulsive>
0.6722

> <Gold.PLP.ligand.clash>
0.0000

> <Gold.PLP.ligand.torsion>
1.0847

> <Gold.PLP.Chemscore.Hbond>
2.0000

> <Gold.PLP.Chemscore.CHOScore>
1.4226

> <Gold.PLP.Chemscore.Metal>
0.0000

> <Gold.Chemscore.Hbonds>
donor molecule, donor type, donor heavy atom, donor atom, acceptor molecule, acceptor atom, score
      P1  H  7989  7998       L1    11  1.00
      P1  H 10752 10764       L1    15  1.00
      L1  C    12    32       P1  7948  0.41
      L1  C    12    32       P1  7957  1.00

> <Gold.PLP.Chemscore.Internal.Correction>
0.0764

> <Gold.Rescore>
     Score         DG    S(hbond)    S(metal)    S(lipo)     H(rot)  DE(clash)    DE(int)     intcor
     13.84     -16.62       1.30        0.00      94.65       1.67       1.58       1.20       ----

> <Gold.Chemscore.Fitness>
13.8387

> <Gold.Chemscore.DG>
-16.6158

> <Gold.Chemscore.ZeroCoef>
-5.4800

> <Gold.Chemscore.Hbond>
1.2951

> <Gold.Chemscore.Metal>
0.0000

> <Gold.Chemscore.Lipo>
94.6522

> <Gold.Chemscore.Internal_Hbond>
0.0000

> <Gold.Chemscore.DEClash>
1.5770

> <Gold.Chemscore.DEInternal>
1.2001

> <Gold.Chemscore.Rot>
1.6657

> <Gold.Chemscore.Internal.Correction>
   9.000000E+99

> <Gold.Chemscore.Hbonds>
donor molecule, donor type, donor heavy atom, donor atom, acceptor molecule, acceptor atom, score
      P1  H  7989  7998       L1    11  0.24
      P1  H 10752 10764       L1    15  0.26

> <Gold.Chemscore.Hbond.Weighted>
-4.3257

> <Gold.Chemscore.Metal.Weighted>
-0.0000

> <Gold.Chemscore.Lipo.Weighted>
-11.0743

> <Gold.Chemscore.Internal_Hbond.Weighted>
0.0000

> <Gold.Chemscore.DEClash.Weighted>
1.5770

> <Gold.Chemscore.DEInternal.Weighted>
1.2001

> <Gold.Chemscore.Rot.Weighted>
4.2642

> <Gold.Chemscore.Internal.Correction.Weighted>
   9.000000E+99

> <Gold.Protein.RotatedTorsions>
[ 6907 6896 6895 6894 ] final -142.52 input  -60.11 | X-H torsion
[ 7974 7965 7964 7962 ] final   34.23 input  175.53 | X-H torsion
[ 8008 7997 7996 7995 ] final  119.85 input   59.86 | X-H torsion
[ 10167 10162 10161 10158 ] final   64.54 input  -65.29 | X-H torsion
[ 10718 10713 10712 10709 ] final  131.24 input   66.30 | X-H torsion
[ 10763 10752 10751 10750 ] final  -17.69 input  -60.55 | X-H torsion
[ 11005 11000 10999 10996 ] final -177.34 input  -57.11 | X-H torsion

> <Gold.Protein.ActiveResidues>
 VAL166  LYS551  ARG553  GLY616  TRP617  ASP618  TYR619  PRO620  LYS621  CYS622 
 ASP623  PHE694  ASN695  SER759  ASP760  ASP761  ALA762  ILE779  LEU786  VAL792 
 PHE793  MET794  SER795  GLU796  ALA797  LYS798  CYS799  TRP800  GLU811  SER814 

> <Gold.Protein.RotatedAtoms>
  151.0882  133.5337  159.2616 H   0  0  0  0  0  0  0  0  0  0  0  0  # atno 6907 bound_to 6896
  151.2214  135.0519  159.8961 H   0  0  0  0  0  0  0  0  0  0  0  0  # atno 6908 bound_to 6896
  152.5431  134.0683  159.8236 H   0  0  0  0  0  0  0  0  0  0  0  0  # atno 6909 bound_to 6896
  146.1367  139.6295  142.9191 H   0  0  0  0  0  0  0  0  0  0  0  0  # atno 7974 bound_to 7965
  156.2615  140.2844  156.1056 H   0  0  0  0  0  0  0  0  0  0  0  0  # atno 8008 bound_to 7997
  155.1312  140.0394  157.2793 H   0  0  0  0  0  0  0  0  0  0  0  0  # atno 8009 bound_to 7997
  154.6598  140.2564  155.7128 H   0  0  0  0  0  0  0  0  0  0  0  0  # atno 8010 bound_to 7997
  140.1210  144.4731  150.6920 H   0  0  0  0  0  0  0  0  0  0  0  0  # atno 10167 bound_to 10162
  157.4986  131.1093  150.9458 H   0  0  0  0  0  0  0  0  0  0  0  0  # atno 10718 bound_to 10713
  153.5777  135.7006  153.5477 H   0  0  0  0  0  0  0  0  0  0  0  0  # atno 10763 bound_to 10752
  153.3288  135.4053  155.1478 H   0  0  0  0  0  0  0  0  0  0  0  0  # atno 10764 bound_to 10752
  154.8623  135.3714  154.5303 H   0  0  0  0  0  0  0  0  0  0  0  0  # atno 10765 bound_to 10752
  140.4420  134.6423  157.4762 H   0  0  0  0  0  0  0  0  0  0  0  0  # atno 11005 bound_to 11000
  145.5141  141.0434  143.2472 LP  0  0  0  0  0  0  0  0  0  0  0  0  # atno 17320 bound_to 7965
  144.7747  139.6656  143.7180 LP  0  0  0  0  0  0  0  0  0  0  0  0  # atno 17321 bound_to 7965
  140.6872  143.2356  151.5229 LP  0  0  0  0  0  0  0  0  0  0  0  0  # atno 17342 bound_to 10162
  139.5569  144.2254  152.1626 LP  0  0  0  0  0  0  0  0  0  0  0  0  # atno 17343 bound_to 10162
  157.0136  130.5646  149.5323 LP  0  0  0  0  0  0  0  0  0  0  0  0  # atno 17370 bound_to 10713
  156.0215  130.5310  150.8290 LP  0  0  0  0  0  0  0  0  0  0  0  0  # atno 17371 bound_to 10713
  140.0064  134.6758  155.9449 LP  0  0  0  0  0  0  0  0  0  0  0  0  # atno 17394 bound_to 11000
  141.1701  133.6537  156.4622 LP  0  0  0  0  0  0  0  0  0  0  0  0  # atno 17395 bound_to 11000

$$$$
