AV-unprocessed.smi:456|AV-procd|sdf|2616|dock2
  -GOLD-   2262023 13D 1   1.00000     0.00000
 Structure written by MMmdl.
 32 34  0  0  0  0  0  0  0  0  1 V2000
  149.5789  140.8596  153.5665 O   0  0  0  0  0  0  0  0  0  0  0  0
  149.2818  141.1037  154.9260 C   0  0  1  0  0  0  0  0  0  0  0  0
  150.3341  142.0826  155.4837 C   0  0  0  0  0  0  0  0  0  0  0  0
  151.2153  141.4503  156.4497 N   0  0  0  0  0  0  0  0  0  0  0  0
  151.8438  140.2667  156.3158 C   0  0  0  0  0  0  0  0  0  0  0  0
  152.6012  139.8604  157.3306 N   0  0  0  0  0  0  0  0  0  0  0  0
  152.4469  140.9020  158.2291 C   0  0  0  0  0  0  0  0  0  0  0  0
  152.9909  141.0864  159.5203 C   0  0  0  0  0  0  0  0  0  0  0  0
  152.6854  142.2437  160.2662 C   0  0  0  0  0  0  0  0  0  0  0  0
  153.2144  142.4039  161.5025 F   0  0  0  0  0  0  0  0  0  0  0  0
  151.8335  143.2335  159.7323 C   0  0  0  0  0  0  0  0  0  0  0  0
  151.5434  144.3408  160.4557 F   0  0  0  0  0  0  0  0  0  0  0  0
  151.2825  143.0732  158.4466 C   0  0  0  0  0  0  0  0  0  0  0  0
  151.5881  141.9157  157.7069 C   0  0  0  0  0  0  0  0  0  0  0  0
  147.8598  141.6113  155.1224 C   0  0  0  0  0  0  0  0  0  0  0  0
  147.3190  141.7055  156.4230 C   0  0  0  0  0  0  0  0  0  0  0  0
  146.0160  142.2037  156.6161 C   0  0  0  0  0  0  0  0  0  0  0  0
  145.2455  142.6099  155.5099 C   0  0  0  0  0  0  0  0  0  0  0  0
  145.7785  142.5165  154.2101 C   0  0  0  0  0  0  0  0  0  0  0  0
  147.0816  142.0191  154.0162 C   0  0  0  0  0  0  0  0  0  0  0  0
  149.2246  140.0158  153.3305 H   0  0  0  0  0  0  0  0  0  0  0  0
  149.3841  140.1457  155.4381 H   0  0  0  0  0  0  0  0  0  0  0  0
  150.9531  142.4686  154.6724 H   0  0  0  0  0  0  0  0  0  0  0  0
  149.8566  142.9464  155.9481 H   0  0  0  0  0  0  0  0  0  0  0  0
  151.7357  139.6676  155.4233 H   0  0  0  0  0  0  0  0  0  0  0  0
  153.6434  140.3352  159.9397 H   0  0  0  0  0  0  0  0  0  0  0  0
  150.6282  143.8284  158.0379 H   0  0  0  0  0  0  0  0  0  0  0  0
  147.9066  141.4068  157.2787 H   0  0  0  0  0  0  0  0  0  0  0  0
  145.6091  142.2778  157.6138 H   0  0  0  0  0  0  0  0  0  0  0  0
  144.2472  142.9944  155.6582 H   0  0  0  0  0  0  0  0  0  0  0  0
  145.1889  142.8302  153.3614 H   0  0  0  0  0  0  0  0  0  0  0  0
  147.4850  141.9612  153.0156 H   0  0  0  0  0  0  0  0  0  0  0  0
  1  2  1  0  0  0  0
  1 21  1  0  0  0  0
  2  3  1  0  0  0  0
  2 15  1  0  0  0  0
  2 22  1  0  0  0  0
  3  4  1  0  0  0  0
  3 23  1  0  0  0  0
  3 24  1  0  0  0  0
  4 14  1  0  0  0  0
  4  5  1  0  0  0  0
  5  6  2  0  0  0  0
  5 25  1  0  0  0  0
  6  7  1  0  0  0  0
  7 14  2  0  0  0  0
  7  8  1  0  0  0  0
  8  9  2  0  0  0  0
  8 26  1  0  0  0  0
  9 10  1  0  0  0  0
  9 11  1  0  0  0  0
 11 12  1  0  0  0  0
 11 13  2  0  0  0  0
 13 14  1  0  0  0  0
 13 27  1  0  0  0  0
 15 20  1  0  0  0  0
 15 16  2  0  0  0  0
 16 17  1  0  0  0  0
 16 28  1  0  0  0  0
 17 18  2  0  0  0  0
 17 29  1  0  0  0  0
 18 19  1  0  0  0  0
 18 30  1  0  0  0  0
 19 20  2  0  0  0  0
 19 31  1  0  0  0  0
 20 32  1  0  0  0  0
M  END
> <s_m_source_file>
AV-unprocessed.smi

> <i_m_source_file_index>
456

> <i_lp_mmshare_version>
43012

> <i_f3d_flags>
0

> <s_epik_input>
W2NIXTFbY0hdW2NIXVtjSF1bY0hdYzFbQ0BIXShbT0hdKVtDSDJdbihbY0hdbjIpYyhjMjMpW2NIXWMoRiljKEYpW2NIXTM=

> <s_epik_cmdline>
J2VwaWtfcHl0aG9uJywgJy1waCcsICc3LjAnLCAnLXRuJywgJzgnLCAnLW1hJywgJzIwMCcsICctbWV0YWxfYmluZGluZycsICctaW1hZScsICc8aW5maWxlLm1hZT4nLCAnLW9tYWUnLCAnPG91dGZpbGUubWFlPic=

> <r_epik_Ionization_Penalty>
0.0156354

> <r_epik_Ionization_Penalty_Charging>
0

> <r_epik_Ionization_Penalty_Neutral>
0.0156354

> <r_epik_State_Penalty>
0.0122974

> <r_epik_Charging_Adjusted_Penalty>
0.0122974

> <i_epik_Tot_Q>
0

> <i_epik_Tot_abs_Q>
0

> <r_epik_Metal_State_Penalty>
1.24258e-05

> <b_epik_Metal_Only>
0

> <s_lp_Force_Field>
OPLS_2005

> <r_lp_Energy>
11.2187

> <b_lp_Chiralities_Consistent>
1

> <s_lp_Variant>
AV-unprocessed.smi:456-2

> <Gold.Version>
5.8.1

> <Gold.Id.Protein>
6NUR|6NUR_protein|mol2

> <Gold.PLP.Fitness>
51.8502

> <Gold.PLP.PLP>
-46.8787

> <Gold.PLP.part.hbond>
-4.0000

> <Gold.PLP.part.metal>
0.0000

> <Gold.PLP.part.buried>
-3.5767

> <Gold.PLP.part.nonpolar>
-37.7242

> <Gold.PLP.part.repulsive>
0.0000

> <Gold.PLP.ligand.clash>
0.0000

> <Gold.PLP.ligand.torsion>
1.0403

> <Gold.PLP.Chemscore.Hbond>
2.3428

> <Gold.PLP.Chemscore.CHOScore>
0.0000

> <Gold.PLP.Chemscore.Metal>
0.0000

> <Gold.Chemscore.Hbonds>
donor molecule, donor type, donor heavy atom, donor atom, acceptor molecule, acceptor atom, score
      P1  H  7989  7998       L1     1  0.35
      P1  H  7997  8009       L1     6  1.00
      P1  H  8011  8017       L1     1  1.00

> <Gold.PLP.Chemscore.Internal.Correction>
0.0238

> <Gold.Rescore>
     Score         DG    S(hbond)    S(metal)    S(lipo)     H(rot)  DE(clash)    DE(int)     intcor
     14.32     -17.06       1.68        0.00      94.36       1.98       1.91       0.83       ----

> <Gold.Chemscore.Fitness>
14.3241

> <Gold.Chemscore.DG>
-17.0569

> <Gold.Chemscore.ZeroCoef>
-5.4800

> <Gold.Chemscore.Hbond>
1.6763

> <Gold.Chemscore.Metal>
0.0000

> <Gold.Chemscore.Lipo>
94.3638

> <Gold.Chemscore.Internal_Hbond>
0.0000

> <Gold.Chemscore.DEClash>
1.9057

> <Gold.Chemscore.DEInternal>
0.8271

> <Gold.Chemscore.Rot>
1.9776

> <Gold.Chemscore.Internal.Correction>
   9.000000E+99

> <Gold.Chemscore.Hbonds>
donor molecule, donor type, donor heavy atom, donor atom, acceptor molecule, acceptor atom, score
      L1  H     1    21       P1  7957  0.03
      P1  H  7989  7998       L1     1  0.13
      P1  H  7997  8009       L1     6  0.18
      P1  H  8011  8017       L1     1  0.92

> <Gold.Chemscore.Hbond.Weighted>
-5.5990

> <Gold.Chemscore.Metal.Weighted>
-0.0000

> <Gold.Chemscore.Lipo.Weighted>
-11.0406

> <Gold.Chemscore.Internal_Hbond.Weighted>
0.0000

> <Gold.Chemscore.DEClash.Weighted>
1.9057

> <Gold.Chemscore.DEInternal.Weighted>
0.8271

> <Gold.Chemscore.Rot.Weighted>
5.0626

> <Gold.Chemscore.Internal.Correction.Weighted>
   9.000000E+99

> <Gold.Protein.RotatedTorsions>
[ 6907 6896 6895 6894 ] final  117.41 input  -60.11 | X-H torsion
[ 7974 7965 7964 7962 ] final   50.33 input  175.53 | X-H torsion
[ 8008 7997 7996 7995 ] final  177.63 input   59.86 | X-H torsion
[ 10167 10162 10161 10158 ] final  179.43 input  -65.29 | X-H torsion
[ 10718 10713 10712 10709 ] final   90.60 input   66.30 | X-H torsion
[ 10763 10752 10751 10750 ] final -149.34 input  -60.55 | X-H torsion
[ 11005 11000 10999 10996 ] final -155.86 input  -57.11 | X-H torsion

> <Gold.Protein.ActiveResidues>
 VAL166  LYS551  ARG553  GLY616  TRP617  ASP618  TYR619  PRO620  LYS621  CYS622 
 ASP623  PHE694  ASN695  SER759  ASP760  ASP761  ALA762  ILE779  LEU786  VAL792 
 PHE793  MET794  SER795  GLU796  ALA797  LYS798  CYS799  TRP800  GLU811  SER814 

> <Gold.Protein.RotatedAtoms>
  152.4614  133.7830  159.6860 H   0  0  0  0  0  0  0  0  0  0  0  0  # atno 6907 bound_to 6896
  150.8559  133.7706  159.3015 H   0  0  0  0  0  0  0  0  0  0  0  0  # atno 6908 bound_to 6896
  151.5287  135.1071  159.9949 H   0  0  0  0  0  0  0  0  0  0  0  0  # atno 6909 bound_to 6896
  146.0022  139.4451  143.0008 H   0  0  0  0  0  0  0  0  0  0  0  0  # atno 7974 bound_to 7965
  156.0636  140.1353  156.9912 H   0  0  0  0  0  0  0  0  0  0  0  0  # atno 8008 bound_to 7997
  154.4494  140.0986  156.6624 H   0  0  0  0  0  0  0  0  0  0  0  0  # atno 8009 bound_to 7997
  155.5339  140.3459  155.4434 H   0  0  0  0  0  0  0  0  0  0  0  0  # atno 8010 bound_to 7997
  139.5336  144.2562  152.0744 H   0  0  0  0  0  0  0  0  0  0  0  0  # atno 10167 bound_to 10162
  157.6959  131.0377  150.3603 H   0  0  0  0  0  0  0  0  0  0  0  0  # atno 10718 bound_to 10713
  154.8183  135.3312  154.7113 H   0  0  0  0  0  0  0  0  0  0  0  0  # atno 10763 bound_to 10752
  153.7750  135.6923  153.4903 H   0  0  0  0  0  0  0  0  0  0  0  0  # atno 10764 bound_to 10752
  153.2019  135.4513  155.0224 H   0  0  0  0  0  0  0  0  0  0  0  0  # atno 10765 bound_to 10752
  140.6818  134.4136  157.5226 H   0  0  0  0  0  0  0  0  0  0  0  0  # atno 11005 bound_to 11000
  145.7470  140.9987  143.1270 LP  0  0  0  0  0  0  0  0  0  0  0  0  # atno 17320 bound_to 7965
  144.6923  139.9168  143.7466 LP  0  0  0  0  0  0  0  0  0  0  0  0  # atno 17321 bound_to 7965
  140.2029  144.4639  150.6422 LP  0  0  0  0  0  0  0  0  0  0  0  0  # atno 17342 bound_to 10162
  140.6529  143.2230  151.6035 LP  0  0  0  0  0  0  0  0  0  0  0  0  # atno 17343 bound_to 10162
  156.4040  130.3921  149.6939 LP  0  0  0  0  0  0  0  0  0  0  0  0  # atno 17370 bound_to 10713
  156.4246  130.7785  151.2804 LP  0  0  0  0  0  0  0  0  0  0  0  0  # atno 17371 bound_to 10713
  139.8949  134.8695  156.2154 LP  0  0  0  0  0  0  0  0  0  0  0  0  # atno 17394 bound_to 11000
  141.0311  133.6988  156.1432 LP  0  0  0  0  0  0  0  0  0  0  0  0  # atno 17395 bound_to 11000

$$$$
