AV-unprocessed.smi:1345|AV-procd|sdf|5511|dock7
  -GOLD-   22720 5 93D 1   1.00000     0.00000
 Structure written by MMmdl.
 40 41  0  0  0  0  0  0  0  0  1 V2000
  154.3486  134.0293  163.6652 C   0  0  0  0  0  0  0  0  0  0  0  0
  154.7948  135.1581  162.7152 C   0  0  0  0  0  0  0  0  0  0  0  0
  156.2020  135.6370  163.1157 C   0  0  0  0  0  0  0  0  0  0  0  0
  153.7669  136.3193  162.6599 C   0  0  1  0  0  0  0  0  0  0  0  0
  153.5129  136.9738  164.0314 C   0  0  0  0  0  0  0  0  0  0  0  0
  154.2223  137.3490  161.7274 N   0  0  0  0  0  0  0  0  0  0  0  0
  153.6630  137.6387  160.5414 C   0  0  0  0  0  0  0  0  0  0  0  0
  152.6885  137.0417  160.0846 O   0  0  0  0  0  0  0  0  0  0  0  0
  154.3016  138.7809  159.7494 C   0  0  0  0  0  0  0  0  0  0  0  0
  153.8423  140.1053  160.2874 C   0  0  0  0  0  0  0  0  0  0  0  0
  153.9208  140.5372  161.5889 C   0  0  0  0  0  0  0  0  0  0  0  0
  153.2871  142.1484  161.7819 S   0  0  0  0  0  0  0  0  0  0  0  0
  152.9263  142.1775  160.0532 C   0  0  0  0  0  0  0  0  0  0  0  0
  152.3371  143.2561  159.3292 N   0  0  0  0  0  0  0  0  0  0  0  0
  152.2776  144.6071  159.8789 C   0  0  0  0  0  0  0  0  0  0  0  0
  151.5763  145.4145  158.7908 C   0  0  0  0  0  0  0  0  0  0  0  0
  151.3357  144.4142  157.7779 N   0  0  0  0  0  0  0  0  0  0  0  0
  151.7750  143.1967  158.1054 C   0  0  0  0  0  0  0  0  0  0  0  0
  151.6656  142.2087  157.3815 O   0  0  0  0  0  0  0  0  0  0  0  0
  153.2681  141.0469  159.4263 N   0  0  0  0  0  0  0  0  0  0  0  0
  154.2084  134.4010  164.6806 H   0  0  0  0  0  0  0  0  0  0  0  0
  155.0917  133.2322  163.7048 H   0  0  0  0  0  0  0  0  0  0  0  0
  153.4121  133.5725  163.3453 H   0  0  0  0  0  0  0  0  0  0  0  0
  154.8709  134.7269  161.7159 H   0  0  0  0  0  0  0  0  0  0  0  0
  156.1881  136.1445  164.0808 H   0  0  0  0  0  0  0  0  0  0  0  0
  156.6224  136.3227  162.3810 H   0  0  0  0  0  0  0  0  0  0  0  0
  156.8940  134.7980  163.1936 H   0  0  0  0  0  0  0  0  0  0  0  0
  152.8218  135.9118  162.2959 H   0  0  0  0  0  0  0  0  0  0  0  0
  153.0585  136.2769  164.7347 H   0  0  0  0  0  0  0  0  0  0  0  0
  152.8301  137.8195  163.9440 H   0  0  0  0  0  0  0  0  0  0  0  0
  154.4392  137.3423  164.4732 H   0  0  0  0  0  0  0  0  0  0  0  0
  155.0195  137.8981  162.0154 H   0  0  0  0  0  0  0  0  0  0  0  0
  155.3873  138.6908  159.8029 H   0  0  0  0  0  0  0  0  0  0  0  0
  154.0362  138.6835  158.6959 H   0  0  0  0  0  0  0  0  0  0  0  0
  154.3188  140.0081  162.4421 H   0  0  0  0  0  0  0  0  0  0  0  0
  151.7121  144.6195  160.8119 H   0  0  0  0  0  0  0  0  0  0  0  0
  153.2811  144.9887  160.0738 H   0  0  0  0  0  0  0  0  0  0  0  0
  150.6357  145.8429  159.1392 H   0  0  0  0  0  0  0  0  0  0  0  0
  152.2084  146.2125  158.3995 H   0  0  0  0  0  0  0  0  0  0  0  0
  150.8756  144.6283  156.9047 H   0  0  0  0  0  0  0  0  0  0  0  0
  1  2  1  0  0  0  0
  1 21  1  0  0  0  0
  1 22  1  0  0  0  0
  1 23  1  0  0  0  0
  2  3  1  0  0  0  0
  2  4  1  0  0  0  0
  2 24  1  0  0  0  0
  3 25  1  0  0  0  0
  3 26  1  0  0  0  0
  3 27  1  0  0  0  0
  4  5  1  0  0  0  0
  4  6  1  0  0  0  0
  4 28  1  0  0  0  0
  5 29  1  0  0  0  0
  5 30  1  0  0  0  0
  5 31  1  0  0  0  0
  6  7  1  0  0  0  0
  6 32  1  0  0  0  0
  7  8  2  0  0  0  0
  7  9  1  0  0  0  0
  9 10  1  0  0  0  0
  9 33  1  0  0  0  0
  9 34  1  0  0  0  0
 10 20  1  0  0  0  0
 10 11  2  0  0  0  0
 11 12  1  0  0  0  0
 11 35  1  0  0  0  0
 12 13  1  0  0  0  0
 13 14  1  0  0  0  0
 13 20  2  0  0  0  0
 14 18  1  0  0  0  0
 14 15  1  0  0  0  0
 15 16  1  0  0  0  0
 15 36  1  0  0  0  0
 15 37  1  0  0  0  0
 16 17  1  0  0  0  0
 16 38  1  0  0  0  0
 16 39  1  0  0  0  0
 17 18  1  0  0  0  0
 17 40  1  0  0  0  0
 18 19  2  0  0  0  0
M  END
> <s_m_source_file>
AV-unprocessed.smi

> <i_m_source_file_index>
1345

> <i_lp_mmshare_version>
43012

> <i_f3d_flags>
0

> <s_epik_input>
W0NIM11bQ0hdKFtDSDNdKVtDQEhdKFtDSDNdKVtOSF1DKD1PKVtDSDJdYzFbY0hdc2MobjEpTjJbQ0gyXVtDSDJdW05IXUMyPU8=

> <s_epik_cmdline>
J2VwaWtfcHl0aG9uJywgJy1waCcsICc3LjAnLCAnLXRuJywgJzgnLCAnLW1hJywgJzIwMCcsICctbWV0YWxfYmluZGluZycsICctaW1hZScsICc8aW5maWxlLm1hZT4nLCAnLW9tYWUnLCAnPG91dGZpbGUubWFlPic=

> <r_lp_tautomer_probability>
1

> <r_epik_Ionization_Penalty>
0.000122034

> <r_epik_Ionization_Penalty_Charging>
0

> <r_epik_Ionization_Penalty_Neutral>
0.000122034

> <r_epik_State_Penalty>
-0

> <r_epik_Charging_Adjusted_Penalty>
0

> <i_epik_Tot_Q>
0

> <i_epik_Tot_abs_Q>
0

> <r_epik_Metal_State_Penalty>
-0

> <b_epik_Metal_Only>
0

> <s_lp_Force_Field>
OPLS_2005

> <r_lp_Energy>
32.8432

> <b_lp_Chiralities_Consistent>
1

> <s_lp_Variant>
AV-unprocessed.smi:1345-2

> <Gold.Version>
5.8.1

> <Gold.Id.Protein>
6NUR|6NUR_protein|mol2

> <Gold.PLP.Fitness>
47.2254

> <Gold.PLP.PLP>
-42.1995

> <Gold.PLP.part.hbond>
-1.9478

> <Gold.PLP.part.metal>
0.0000

> <Gold.PLP.part.buried>
-5.8422

> <Gold.PLP.part.nonpolar>
-35.1292

> <Gold.PLP.part.repulsive>
0.1132

> <Gold.PLP.ligand.clash>
0.0000

> <Gold.PLP.ligand.torsion>
0.4902

> <Gold.PLP.Chemscore.Hbond>
1.9913

> <Gold.PLP.Chemscore.CHOScore>
0.0000

> <Gold.PLP.Chemscore.Metal>
0.0000

> <Gold.Chemscore.Hbonds>
donor molecule, donor type, donor heavy atom, donor atom, acceptor molecule, acceptor atom, score
      L1  H    17    40       P1  8028  0.29
      P1  H  6896  6909       L1     8  0.86

> <Gold.PLP.Chemscore.Internal.Correction>
0.0325

> <Gold.Rescore>
     Score         DG    S(hbond)    S(metal)    S(lipo)     H(rot)  DE(clash)    DE(int)     intcor
     16.18     -18.13       1.99        0.00      89.38       1.74       0.02       1.93       ----

> <Gold.Chemscore.Fitness>
16.1791

> <Gold.Chemscore.DG>
-18.1270

> <Gold.Chemscore.ZeroCoef>
-5.4800

> <Gold.Chemscore.Hbond>
1.9855

> <Gold.Chemscore.Metal>
0.0000

> <Gold.Chemscore.Lipo>
89.3816

> <Gold.Chemscore.Internal_Hbond>
0.0000

> <Gold.Chemscore.DEClash>
0.0224

> <Gold.Chemscore.DEInternal>
1.9255

> <Gold.Chemscore.Rot>
1.7353

> <Gold.Chemscore.Internal.Correction>
   9.000000E+99

> <Gold.Chemscore.Hbonds>
donor molecule, donor type, donor heavy atom, donor atom, acceptor molecule, acceptor atom, score
      L1  H    17    40       P1  8028  0.26
      P1  H  6896  6909       L1     8  0.84

> <Gold.Chemscore.Hbond.Weighted>
-6.6316

> <Gold.Chemscore.Metal.Weighted>
-0.0000

> <Gold.Chemscore.Lipo.Weighted>
-10.4576

> <Gold.Chemscore.Internal_Hbond.Weighted>
0.0000

> <Gold.Chemscore.DEClash.Weighted>
0.0224

> <Gold.Chemscore.DEInternal.Weighted>
1.9255

> <Gold.Chemscore.Rot.Weighted>
4.4423

> <Gold.Chemscore.Internal.Correction.Weighted>
   9.000000E+99

> <Gold.Protein.RotatedTorsions>
[ 6907 6896 6895 6894 ] final  141.46 input  -60.11 | X-H torsion
[ 7974 7965 7964 7962 ] final   54.09 input  175.53 | X-H torsion
[ 8008 7997 7996 7995 ] final   37.64 input   59.86 | X-H torsion
[ 10167 10162 10161 10158 ] final   80.12 input  -65.29 | X-H torsion
[ 10718 10713 10712 10709 ] final  -32.53 input   66.30 | X-H torsion
[ 10763 10752 10751 10750 ] final  -83.86 input  -60.55 | X-H torsion
[ 11005 11000 10999 10996 ] final   17.57 input  -57.11 | X-H torsion

> <Gold.Protein.ActiveResidues>
 VAL166  LYS551  ARG553  GLY616  TRP617  ASP618  TYR619  PRO620  LYS621  CYS622 
 ASP623  PHE694  ASN695  SER759  ASP760  ASP761  ALA762  ILE779  LEU786  VAL792 
 PHE793  MET794  SER795  GLU796  ALA797  LYS798  CYS799  TRP800  GLU811  SER814 

> <Gold.Protein.RotatedAtoms>
  152.2307  133.5056  159.5213 H   0  0  0  0  0  0  0  0  0  0  0  0  # atno 6907 bound_to 6896
  150.7037  134.1220  159.4047 H   0  0  0  0  0  0  0  0  0  0  0  0  # atno 6908 bound_to 6896
  151.9141  135.0326  160.0567 H   0  0  0  0  0  0  0  0  0  0  0  0  # atno 6909 bound_to 6896
  145.9644  139.4089  143.0228 H   0  0  0  0  0  0  0  0  0  0  0  0  # atno 7974 bound_to 7965
  155.2070  140.3320  155.4334 H   0  0  0  0  0  0  0  0  0  0  0  0  # atno 8008 bound_to 7997
  156.2385  140.1883  156.7103 H   0  0  0  0  0  0  0  0  0  0  0  0  # atno 8009 bound_to 7997
  154.6103  140.0610  156.9470 H   0  0  0  0  0  0  0  0  0  0  0  0  # atno 8010 bound_to 7997
  139.9531  144.6012  150.8142 H   0  0  0  0  0  0  0  0  0  0  0  0  # atno 10167 bound_to 10162
  156.3737  130.4344  149.7524 H   0  0  0  0  0  0  0  0  0  0  0  0  # atno 10718 bound_to 10713
  154.5928  135.5541  153.7295 H   0  0  0  0  0  0  0  0  0  0  0  0  # atno 10763 bound_to 10752
  153.0123  135.6347  154.1825 H   0  0  0  0  0  0  0  0  0  0  0  0  # atno 10764 bound_to 10752
  154.1766  135.2889  155.3045 H   0  0  0  0  0  0  0  0  0  0  0  0  # atno 10765 bound_to 10752
  140.4345  134.1386  155.7684 H   0  0  0  0  0  0  0  0  0  0  0  0  # atno 11005 bound_to 11000
  145.7995  140.9778  143.1006 LP  0  0  0  0  0  0  0  0  0  0  0  0  # atno 17320 bound_to 7965
  144.6822  139.9783  143.7483 LP  0  0  0  0  0  0  0  0  0  0  0  0  # atno 17321 bound_to 7965
  140.7576  143.3091  151.2890 LP  0  0  0  0  0  0  0  0  0  0  0  0  # atno 17342 bound_to 10162
  139.6612  144.0185  152.2694 LP  0  0  0  0  0  0  0  0  0  0  0  0  # atno 17343 bound_to 10162
  156.4641  130.7966  151.2985 LP  0  0  0  0  0  0  0  0  0  0  0  0  # atno 17370 bound_to 10713
  157.7486  131.0056  150.3121 LP  0  0  0  0  0  0  0  0  0  0  0  0  # atno 17371 bound_to 10713
  141.1732  133.8567  157.1506 LP  0  0  0  0  0  0  0  0  0  0  0  0  # atno 17394 bound_to 11000
  140.0112  134.9987  157.0398 LP  0  0  0  0  0  0  0  0  0  0  0  0  # atno 17395 bound_to 11000

$$$$
