AV-unprocessed.smi:937|AV-procd|sdf|4213|dock3
  -GOLD-   22720 2123D 1   1.00000     0.00000
 Structure written by MMmdl.
 46 47  0  0  0  0  0  0  0  0  2 V2000
  146.8943  132.9596  150.6160 C   0  0  0  0  0  0  0  0  0  0  0  0
  145.7977  133.7975  151.2387 C   0  0  0  0  0  0  0  0  0  0  0  0
  144.4607  133.3510  151.3073 C   0  0  0  0  0  0  0  0  0  0  0  0
  143.4869  134.1821  151.8988 C   0  0  0  0  0  0  0  0  0  0  0  0
  143.8692  135.4419  152.4101 C   0  0  0  0  0  0  0  0  0  0  0  0
  142.8415  136.3536  153.0505 C   0  0  0  0  0  0  0  0  0  0  0  0
  143.3197  136.9041  154.4037 C   0  0  0  0  0  0  0  0  0  0  0  0
  143.6712  138.3156  154.3108 N   0  0  0  0  0  0  0  0  0  0  0  0
  144.2304  139.0328  155.3001 C   0  0  0  0  0  0  0  0  0  0  0  0
  144.4975  138.5648  156.4055 O   0  0  0  0  0  0  0  0  0  0  0  0
  144.4830  140.3179  154.9950 N   0  0  0  0  0  0  0  0  0  0  0  0
  145.0806  141.3596  155.8369 C   0  0  2  0  0  0  0  0  0  0  0  0
  145.2058  142.6991  155.0791 C   0  0  0  0  0  0  0  0  0  0  0  0
  146.2637  142.6358  153.9654 C   0  0  0  0  0  0  0  0  0  0  0  0
  147.6259  142.1841  154.5148 C   0  0  0  0  0  0  0  0  0  0  0  0
  147.5273  140.8265  155.2416 C   0  0  1  0  0  0  0  0  0  0  0  0
  148.8941  140.3597  155.7834 C   0  0  0  0  0  0  0  0  0  0  0  0
  148.7610  139.2586  156.5236 F   0  0  0  0  0  0  0  0  0  0  0  0
  149.7216  140.1009  154.7710 F   0  0  0  0  0  0  0  0  0  0  0  0
  149.4402  141.3184  156.5316 F   0  0  0  0  0  0  0  0  0  0  0  0
  146.4565  140.8950  156.3553 C   0  0  0  0  0  0  0  0  0  0  0  0
  145.2203  135.8375  152.3107 C   0  0  0  0  0  0  0  0  0  0  0  0
  146.1231  135.0125  151.7361 N   0  3  0  0  0  0  0  0  0  0  0  0
  146.6415  131.8995  150.6566 H   0  0  0  0  0  0  0  0  0  0  0  0
  147.8394  133.1019  151.1414 H   0  0  0  0  0  0  0  0  0  0  0  0
  147.0348  133.2384  149.5714 H   0  0  0  0  0  0  0  0  0  0  0  0
  144.1818  132.3849  150.9119 H   0  0  0  0  0  0  0  0  0  0  0  0
  142.4584  133.8554  151.9577 H   0  0  0  0  0  0  0  0  0  0  0  0
  142.6255  137.1719  152.3620 H   0  0  0  0  0  0  0  0  0  0  0  0
  141.9063  135.8064  153.1786 H   0  0  0  0  0  0  0  0  0  0  0  0
  142.5330  136.7954  155.1506 H   0  0  0  0  0  0  0  0  0  0  0  0
  144.1756  136.3334  154.7685 H   0  0  0  0  0  0  0  0  0  0  0  0
  143.4797  138.7809  153.4353 H   0  0  0  0  0  0  0  0  0  0  0  0
  144.2116  140.6143  154.0686 H   0  0  0  0  0  0  0  0  0  0  0  0
  144.4418  141.5087  156.7089 H   0  0  0  0  0  0  0  0  0  0  0  0
  144.2444  142.9992  154.6616 H   0  0  0  0  0  0  0  0  0  0  0  0
  145.4829  143.4825  155.7857 H   0  0  0  0  0  0  0  0  0  0  0  0
  145.9372  141.9496  153.1831 H   0  0  0  0  0  0  0  0  0  0  0  0
  146.3619  143.6137  153.4937 H   0  0  0  0  0  0  0  0  0  0  0  0
  148.3413  142.1188  153.6945 H   0  0  0  0  0  0  0  0  0  0  0  0
  148.0097  142.9425  155.1983 H   0  0  0  0  0  0  0  0  0  0  0  0
  147.2037  140.0843  154.5101 H   0  0  0  0  0  0  0  0  0  0  0  0
  146.7910  141.5843  157.1316 H   0  0  0  0  0  0  0  0  0  0  0  0
  146.3557  139.9236  156.8408 H   0  0  0  0  0  0  0  0  0  0  0  0
  145.6042  136.7816  152.6694 H   0  0  0  0  0  0  0  0  0  0  0  0
  147.0940  135.3202  151.6750 H   0  0  0  0  0  0  0  0  0  0  0  0
  1  2  1  0  0  0  0
  1 24  1  0  0  0  0
  1 25  1  0  0  0  0
  1 26  1  0  0  0  0
  2 23  1  0  0  0  0
  2  3  2  0  0  0  0
  3  4  1  0  0  0  0
  3 27  1  0  0  0  0
  4  5  2  0  0  0  0
  4 28  1  0  0  0  0
  5  6  1  0  0  0  0
  5 22  1  0  0  0  0
  6  7  1  0  0  0  0
  6 29  1  0  0  0  0
  6 30  1  0  0  0  0
  7  8  1  0  0  0  0
  7 31  1  0  0  0  0
  7 32  1  0  0  0  0
  8  9  1  0  0  0  0
  8 33  1  0  0  0  0
  9 10  2  0  0  0  0
  9 11  1  0  0  0  0
 11 12  1  0  0  0  0
 11 34  1  0  0  0  0
 12 21  1  0  0  0  0
 12 13  1  0  0  0  0
 12 35  1  0  0  0  0
 13 14  1  0  0  0  0
 13 36  1  0  0  0  0
 13 37  1  0  0  0  0
 14 15  1  0  0  0  0
 14 38  1  0  0  0  0
 14 39  1  0  0  0  0
 15 16  1  0  0  0  0
 15 40  1  0  0  0  0
 15 41  1  0  0  0  0
 16 17  1  0  0  0  0
 16 21  1  0  0  0  0
 16 42  1  0  0  0  0
 17 18  1  0  0  0  0
 17 19  1  0  0  0  0
 17 20  1  0  0  0  0
 21 43  1  0  0  0  0
 21 44  1  0  0  0  0
 22 23  2  0  0  0  0
 22 45  1  0  0  0  0
 23 46  1  0  0  0  0
M  CHG  1  23   1
M  END
> <s_m_source_file>
AV-unprocessed.smi

> <i_m_source_file_index>
937

> <i_lp_mmshare_version>
43012

> <i_f3d_flags>
0

> <s_epik_input>
W0NIM11jMVtjSF1bY0hdYyhbY0hdbjEpW0NIMl1bQ0gyXVtOSF1DKD1PKVtOSF1bQ0BASF0yW0NIMl1bQ0gyXVtDSDJdW0NAQEhdKEMoRikoRilGKVtDSDJdMg==

> <s_epik_cmdline>
J2VwaWtfcHl0aG9uJywgJy1waCcsICc3LjAnLCAnLXRuJywgJzgnLCAnLW1hJywgJzIwMCcsICctbWV0YWxfYmluZGluZycsICctaW1hZScsICc8aW5maWxlLm1hZT4nLCAnLW9tYWUnLCAnPG91dGZpbGUubWFlPic=

> <r_epik_Ionization_Penalty>
1.4226

> <r_epik_Ionization_Penalty_Charging>
1.42255

> <r_epik_Ionization_Penalty_Neutral>
5.16456e-05

> <r_epik_State_Penalty>
1.50646

> <r_epik_Charging_Adjusted_Penalty>
2.92901

> <i_epik_Tot_Q>
1

> <i_epik_Tot_abs_Q>
1

> <r_epik_Metal_State_Penalty>
1.55846

> <b_epik_Metal_Only>
0

> <s_lp_Force_Field>
OPLS_2005

> <r_lp_Energy>
23.8668

> <b_lp_Chiralities_Consistent>
1

> <s_lp_Variant>
AV-unprocessed.smi:937-5

> <Gold.Version>
5.8.1

> <Gold.Id.Protein>
6NUR|6NUR_protein|mol2

> <Gold.PLP.Fitness>
42.4848

> <Gold.PLP.PLP>
-31.9070

> <Gold.PLP.part.hbond>
-3.0000

> <Gold.PLP.part.metal>
0.0000

> <Gold.PLP.part.buried>
-1.7036

> <Gold.PLP.part.nonpolar>
-27.1514

> <Gold.PLP.part.repulsive>
0.0724

> <Gold.PLP.ligand.clash>
0.0000

> <Gold.PLP.ligand.torsion>
0.6050

> <Gold.PLP.Chemscore.Hbond>
3.9120

> <Gold.PLP.Chemscore.CHOScore>
0.0000

> <Gold.PLP.Chemscore.Metal>
0.0000

> <Gold.Chemscore.Hbonds>
donor molecule, donor type, donor heavy atom, donor atom, acceptor molecule, acceptor atom, score
      L1  H     8    33       P1 10175  0.90
      L1  H    11    34       P1 10175  1.00
      L1  H    23    46       P1  7948  1.98

> <Gold.PLP.Chemscore.Internal.Correction>
0.0519

> <Gold.Rescore>
     Score         DG    S(hbond)    S(metal)    S(lipo)     H(rot)  DE(clash)    DE(int)     intcor
     16.91     -18.74       2.86        0.00      67.87       1.66       0.37       1.46       ----

> <Gold.Chemscore.Fitness>
16.9150

> <Gold.Chemscore.DG>
-18.7432

> <Gold.Chemscore.ZeroCoef>
-5.4800

> <Gold.Chemscore.Hbond>
2.8647

> <Gold.Chemscore.Metal>
0.0000

> <Gold.Chemscore.Lipo>
67.8704

> <Gold.Chemscore.Internal_Hbond>
0.0000

> <Gold.Chemscore.DEClash>
0.3670

> <Gold.Chemscore.DEInternal>
1.4612

> <Gold.Chemscore.Rot>
1.6585

> <Gold.Chemscore.Internal.Correction>
   9.000000E+99

> <Gold.Chemscore.Hbonds>
donor molecule, donor type, donor heavy atom, donor atom, acceptor molecule, acceptor atom, score
      L1  H     8    33       P1 10175  0.88
      L1  H    11    34       P1 10175  0.99
      L1  H    23    46       P1  7948  0.91

> <Gold.Chemscore.Hbond.Weighted>
-9.5681

> <Gold.Chemscore.Metal.Weighted>
-0.0000

> <Gold.Chemscore.Lipo.Weighted>
-7.9408

> <Gold.Chemscore.Internal_Hbond.Weighted>
0.0000

> <Gold.Chemscore.DEClash.Weighted>
0.3670

> <Gold.Chemscore.DEInternal.Weighted>
1.4612

> <Gold.Chemscore.Rot.Weighted>
4.2457

> <Gold.Chemscore.Internal.Correction.Weighted>
   9.000000E+99

> <Gold.Protein.RotatedTorsions>
[ 6907 6896 6895 6894 ] final  169.08 input  -60.11 | X-H torsion
[ 7974 7965 7964 7962 ] final  -48.93 input  175.53 | X-H torsion
[ 8008 7997 7996 7995 ] final  -36.32 input   59.86 | X-H torsion
[ 10167 10162 10161 10158 ] final   -4.63 input  -65.29 | X-H torsion
[ 10718 10713 10712 10709 ] final  -91.29 input   66.30 | X-H torsion
[ 10763 10752 10751 10750 ] final  163.66 input  -60.55 | X-H torsion
[ 11005 11000 10999 10996 ] final  130.52 input  -57.11 | X-H torsion

> <Gold.Protein.ActiveResidues>
 VAL166  LYS551  ARG553  GLY616  TRP617  ASP618  TYR619  PRO620  LYS621  CYS622 
 ASP623  PHE694  ASN695  SER759  ASP760  ASP761  ALA762  ILE779  LEU786  VAL792 
 PHE793  MET794  SER795  GLU796  ALA797  LYS798  CYS799  TRP800  GLU811  SER814 

> <Gold.Protein.RotatedAtoms>
  151.8375  133.3418  159.3632 H   0  0  0  0  0  0  0  0  0  0  0  0  # atno 6907 bound_to 6896
  150.7245  134.5424  159.5763 H   0  0  0  0  0  0  0  0  0  0  0  0  # atno 6908 bound_to 6896
  152.2890  134.7744  160.0433 H   0  0  0  0  0  0  0  0  0  0  0  0  # atno 6909 bound_to 6896
  145.9459  140.7618  142.9528 H   0  0  0  0  0  0  0  0  0  0  0  0  # atno 7974 bound_to 7965
  154.4076  140.1634  156.2354 H   0  0  0  0  0  0  0  0  0  0  0  0  # atno 8008 bound_to 7997
  155.9247  140.3419  155.6178 H   0  0  0  0  0  0  0  0  0  0  0  0  # atno 8009 bound_to 7997
  155.7180  140.0765  157.2333 H   0  0  0  0  0  0  0  0  0  0  0  0  # atno 8010 bound_to 7997
  140.6934  143.6401  150.8443 H   0  0  0  0  0  0  0  0  0  0  0  0  # atno 10167 bound_to 10162
  155.9993  130.4942  150.5451 H   0  0  0  0  0  0  0  0  0  0  0  0  # atno 10718 bound_to 10713
  154.2971  135.2760  155.2628 H   0  0  0  0  0  0  0  0  0  0  0  0  # atno 10763 bound_to 10752
  154.5081  135.5790  153.6587 H   0  0  0  0  0  0  0  0  0  0  0  0  # atno 10764 bound_to 10752
  152.9906  135.6174  154.3140 H   0  0  0  0  0  0  0  0  0  0  0  0  # atno 10765 bound_to 10752
  139.9677  134.9586  156.9306 H   0  0  0  0  0  0  0  0  0  0  0  0  # atno 11005 bound_to 11000
  144.6787  140.2356  143.7350 LP  0  0  0  0  0  0  0  0  0  0  0  0  # atno 17320 bound_to 7965
  145.8236  139.2055  143.1923 LP  0  0  0  0  0  0  0  0  0  0  0  0  # atno 17321 bound_to 7965
  140.0116  143.5636  152.2836 LP  0  0  0  0  0  0  0  0  0  0  0  0  # atno 17342 bound_to 10162
  139.6362  144.7650  151.2433 LP  0  0  0  0  0  0  0  0  0  0  0  0  # atno 17343 bound_to 10162
  157.3382  131.0712  151.1808 LP  0  0  0  0  0  0  0  0  0  0  0  0  # atno 17370 bound_to 10713
  157.2666  130.6684  149.5999 LP  0  0  0  0  0  0  0  0  0  0  0  0  # atno 17371 bound_to 10713
  140.5361  134.0766  155.7328 LP  0  0  0  0  0  0  0  0  0  0  0  0  # atno 17394 bound_to 11000
  141.1357  133.9226  157.2439 LP  0  0  0  0  0  0  0  0  0  0  0  0  # atno 17395 bound_to 11000

$$$$
