AV-unprocessed.smi:2252|AV-procd|sdf|9107|dock1
  -GOLD-   2272012303D 1   1.00000     0.00000
 Structure written by MMmdl.
 45 47  0  0  0  0  0  0  0  0  2 V2000
  142.5200  136.2680  152.8667 C   0  0  0  0  0  0  0  0  0  0  0  0
  143.7803  135.8045  152.2817 N   0  0  0  0  0  0  0  0  0  0  0  0
  143.9484  135.2384  151.0437 C   0  0  0  0  0  0  0  0  0  0  0  0
  145.2853  134.9651  150.9148 C   0  0  0  0  0  0  0  0  0  0  0  0
  145.8776  135.3745  152.0788 N   0  3  0  0  0  0  0  0  0  0  0  0
  144.9631  135.8819  152.9138 C   0  0  0  0  0  0  0  0  0  0  0  0
  145.2410  136.4413  154.2735 C   0  0  0  0  0  0  0  0  0  0  0  0
  144.9835  137.9546  154.3572 C   0  0  0  0  0  0  0  0  0  0  0  0
  146.1226  138.6577  154.9330 N   0  0  0  0  0  0  0  0  0  0  0  0
  147.0361  139.3433  154.2276 C   0  0  0  0  0  0  0  0  0  0  0  0
  147.0061  139.4361  152.9998 O   0  0  0  0  0  0  0  0  0  0  0  0
  148.1641  140.0175  155.0293 C   0  0  2  0  0  0  0  0  0  0  0  0
  148.0954  141.5480  154.8329 C   0  0  0  0  0  0  0  0  0  0  0  0
  146.7881  142.2959  154.9913 C   0  0  0  0  0  0  0  0  0  0  0  0
  147.3988  142.1431  153.6248 C   0  0  0  0  0  0  0  0  0  0  0  0
  149.5098  139.5012  154.6766 N   0  0  0  0  0  0  0  0  0  0  0  0
  149.6297  138.0445  154.6380 C   0  0  0  0  0  0  0  0  0  0  0  0
  151.1392  137.7977  154.6195 C   0  0  0  0  0  0  0  0  0  0  0  0
  151.7474  139.0525  155.2385 C   0  0  0  0  0  0  0  0  0  0  0  0
  150.5461  139.9181  155.6165 C   0  0  0  0  0  0  0  0  0  0  0  0
  141.7156  136.1515  152.1397 H   0  0  0  0  0  0  0  0  0  0  0  0
  142.6093  137.3202  153.1384 H   0  0  0  0  0  0  0  0  0  0  0  0
  142.2934  135.6751  153.7535 H   0  0  0  0  0  0  0  0  0  0  0  0
  143.1258  135.0772  150.3621 H   0  0  0  0  0  0  0  0  0  0  0  0
  145.8449  134.5230  150.1033 H   0  0  0  0  0  0  0  0  0  0  0  0
  144.6243  135.8899  154.9838 H   0  0  0  0  0  0  0  0  0  0  0  0
  146.2815  136.2123  154.5071 H   0  0  0  0  0  0  0  0  0  0  0  0
  144.8009  138.3574  153.3607 H   0  0  0  0  0  0  0  0  0  0  0  0
  144.0879  138.1636  154.9444 H   0  0  0  0  0  0  0  0  0  0  0  0
  146.2261  138.6225  155.9371 H   0  0  0  0  0  0  0  0  0  0  0  0
  147.9808  139.7986  156.0834 H   0  0  0  0  0  0  0  0  0  0  0  0
  148.9943  142.0740  155.1509 H   0  0  0  0  0  0  0  0  0  0  0  0
  145.8939  141.7156  155.2095 H   0  0  0  0  0  0  0  0  0  0  0  0
  146.8282  143.2799  155.4540 H   0  0  0  0  0  0  0  0  0  0  0  0
  147.8477  143.0249  153.1722 H   0  0  0  0  0  0  0  0  0  0  0  0
  146.9063  141.4637  152.9319 H   0  0  0  0  0  0  0  0  0  0  0  0
  149.1912  137.6089  155.5380 H   0  0  0  0  0  0  0  0  0  0  0  0
  149.1370  137.6050  153.7699 H   0  0  0  0  0  0  0  0  0  0  0  0
  151.4017  136.8960  155.1737 H   0  0  0  0  0  0  0  0  0  0  0  0
  151.4961  137.6742  153.5962 H   0  0  0  0  0  0  0  0  0  0  0  0
  152.3716  138.8280  156.1041 H   0  0  0  0  0  0  0  0  0  0  0  0
  152.3691  139.5668  154.5042 H   0  0  0  0  0  0  0  0  0  0  0  0
  150.7701  140.9828  155.5448 H   0  0  0  0  0  0  0  0  0  0  0  0
  150.2385  139.7020  156.6416 H   0  0  0  0  0  0  0  0  0  0  0  0
  146.8666  135.3039  152.2831 H   0  0  0  0  0  0  0  0  0  0  0  0
  1  2  1  0  0  0  0
  1 21  1  0  0  0  0
  1 22  1  0  0  0  0
  1 23  1  0  0  0  0
  2  6  1  0  0  0  0
  2  3  1  0  0  0  0
  3  4  2  0  0  0  0
  3 24  1  0  0  0  0
  4  5  1  0  0  0  0
  4 25  1  0  0  0  0
  5  6  2  0  0  0  0
  5 45  1  0  0  0  0
  6  7  1  0  0  0  0
  7  8  1  0  0  0  0
  7 26  1  0  0  0  0
  7 27  1  0  0  0  0
  8  9  1  0  0  0  0
  8 28  1  0  0  0  0
  8 29  1  0  0  0  0
  9 10  1  0  0  0  0
  9 30  1  0  0  0  0
 10 11  2  0  0  0  0
 10 12  1  0  0  0  0
 12 13  1  0  0  0  0
 12 16  1  0  0  0  0
 12 31  1  0  0  0  0
 13 15  1  0  0  0  0
 13 14  1  0  0  0  0
 13 32  1  0  0  0  0
 14 15  1  0  0  0  0
 14 33  1  0  0  0  0
 14 34  1  0  0  0  0
 15 35  1  0  0  0  0
 15 36  1  0  0  0  0
 16 20  1  0  0  0  0
 16 17  1  0  0  0  0
 17 18  1  0  0  0  0
 17 37  1  0  0  0  0
 17 38  1  0  0  0  0
 18 19  1  0  0  0  0
 18 39  1  0  0  0  0
 18 40  1  0  0  0  0
 19 20  1  0  0  0  0
 19 41  1  0  0  0  0
 19 42  1  0  0  0  0
 20 43  1  0  0  0  0
 20 44  1  0  0  0  0
M  CHG  1   5   1
M  END
> <s_m_source_file>
AV-unprocessed.smi

> <i_m_source_file_index>
2252

> <i_lp_mmshare_version>
43012

> <i_f3d_flags>
0

> <s_epik_input>
W0NIM11uMVtjSF1bY0hdbmMxW0NIMl1bQ0gyXVtOSF1DKD1PKVtDQEhdKFtDSF0yW0NIMl1bQ0gyXTIpTjNbQ0gyXVtDSDJdW0NIMl1bQ0gyXTM=

> <s_epik_cmdline>
J2VwaWtfcHl0aG9uJywgJy1waCcsICc3LjAnLCAnLXRuJywgJzgnLCAnLW1hJywgJzIwMCcsICctbWV0YWxfYmluZGluZycsICctaW1hZScsICc8aW5maWxlLm1hZT4nLCAnLW9tYWUnLCAnPG91dGZpbGUubWFlPic=

> <r_epik_Ionization_Penalty>
2.52117

> <r_epik_Ionization_Penalty_Charging>
0

> <r_epik_Ionization_Penalty_Neutral>
2.52117

> <r_epik_State_Penalty>
2.63608

> <r_epik_Charging_Adjusted_Penalty>
2.63608

> <i_epik_Tot_Q>
1

> <i_epik_Tot_abs_Q>
1

> <r_epik_Metal_State_Penalty>
2.94973

> <b_epik_Metal_Only>
0

> <s_lp_Force_Field>
OPLS_2005

> <r_lp_Energy>
33.8127

> <b_lp_Chiralities_Consistent>
1

> <s_lp_Variant>
AV-unprocessed.smi:2252-5

> <Gold.Version>
5.8.1

> <Gold.Id.Protein>
6NUR|6NUR_protein|mol2

> <Gold.PLP.Fitness>
39.1320

> <Gold.PLP.PLP>
-31.3807

> <Gold.PLP.part.hbond>
-1.0000

> <Gold.PLP.part.metal>
0.0000

> <Gold.PLP.part.buried>
-4.5835

> <Gold.PLP.part.nonpolar>
-26.3283

> <Gold.PLP.part.repulsive>
0.3864

> <Gold.PLP.ligand.clash>
0.0000

> <Gold.PLP.ligand.torsion>
1.2479

> <Gold.PLP.Chemscore.Hbond>
2.0000

> <Gold.PLP.Chemscore.CHOScore>
0.9939

> <Gold.PLP.Chemscore.Metal>
0.0000

> <Gold.Chemscore.Hbonds>
donor molecule, donor type, donor heavy atom, donor atom, acceptor molecule, acceptor atom, score
      L1  H     5    45       P1  7948  0.60
      L1  C     3    24       P1 10186  0.90

> <Gold.PLP.Chemscore.Internal.Correction>
1.2656

> <Gold.Rescore>
     Score         DG    S(hbond)    S(metal)    S(lipo)     H(rot)  DE(clash)    DE(int)     intcor
      8.65     -11.39       1.00        0.00      64.87       1.96       0.02       2.72       ----

> <Gold.Chemscore.Fitness>
8.6521

> <Gold.Chemscore.DG>
-11.3934

> <Gold.Chemscore.ZeroCoef>
-5.4800

> <Gold.Chemscore.Hbond>
0.9999

> <Gold.Chemscore.Metal>
0.0000

> <Gold.Chemscore.Lipo>
64.8725

> <Gold.Chemscore.Internal_Hbond>
0.0000

> <Gold.Chemscore.DEClash>
0.0226

> <Gold.Chemscore.DEInternal>
2.7187

> <Gold.Chemscore.Rot>
1.9595

> <Gold.Chemscore.Internal.Correction>
   9.000000E+99

> <Gold.Chemscore.Hbonds>
donor molecule, donor type, donor heavy atom, donor atom, acceptor molecule, acceptor atom, score
      L1  H     5    45       P1  7948  0.29

> <Gold.Chemscore.Hbond.Weighted>
-3.3397

> <Gold.Chemscore.Metal.Weighted>
-0.0000

> <Gold.Chemscore.Lipo.Weighted>
-7.5901

> <Gold.Chemscore.Internal_Hbond.Weighted>
0.0000

> <Gold.Chemscore.DEClash.Weighted>
0.0226

> <Gold.Chemscore.DEInternal.Weighted>
2.7187

> <Gold.Chemscore.Rot.Weighted>
5.0164

> <Gold.Chemscore.Internal.Correction.Weighted>
   9.000000E+99

> <Gold.Protein.RotatedTorsions>
[ 6907 6896 6895 6894 ] final   11.89 input  -60.11 | X-H torsion
[ 7974 7965 7964 7962 ] final  -69.21 input  175.53 | X-H torsion
[ 8008 7997 7996 7995 ] final  -24.88 input   59.86 | X-H torsion
[ 10167 10162 10161 10158 ] final   56.98 input  -65.29 | X-H torsion
[ 10718 10713 10712 10709 ] final   57.04 input   66.30 | X-H torsion
[ 10763 10752 10751 10750 ] final -150.24 input  -60.55 | X-H torsion
[ 11005 11000 10999 10996 ] final -147.63 input  -57.11 | X-H torsion

> <Gold.Protein.ActiveResidues>
 VAL166  LYS551  ARG553  GLY616  TRP617  ASP618  TYR619  PRO620  LYS621  CYS622 
 ASP623  PHE694  ASN695  SER759  ASP760  ASP761  ALA762  ILE779  LEU786  VAL792 
 PHE793  MET794  SER795  GLU796  ALA797  LYS798  CYS799  TRP800  GLU811  SER814 

> <Gold.Protein.RotatedAtoms>
  151.7616  135.0808  160.0346 H   0  0  0  0  0  0  0  0  0  0  0  0  # atno 6907 bound_to 6896
  152.3349  133.5996  159.5844 H   0  0  0  0  0  0  0  0  0  0  0  0  # atno 6908 bound_to 6896
  150.7444  133.9727  159.3592 H   0  0  0  0  0  0  0  0  0  0  0  0  # atno 6909 bound_to 6896
  145.7067  140.9095  143.0702 H   0  0  0  0  0  0  0  0  0  0  0  0  # atno 7974 bound_to 7965
  154.4505  140.1941  156.0533 H   0  0  0  0  0  0  0  0  0  0  0  0  # atno 8008 bound_to 7997
  156.0638  140.3293  155.7466 H   0  0  0  0  0  0  0  0  0  0  0  0  # atno 8009 bound_to 7997
  155.5370  140.0583  157.2868 H   0  0  0  0  0  0  0  0  0  0  0  0  # atno 8010 bound_to 7997
  140.2029  144.3969  150.6521 H   0  0  0  0  0  0  0  0  0  0  0  0  # atno 10167 bound_to 10162
  157.5482  130.8746  149.8923 H   0  0  0  0  0  0  0  0  0  0  0  0  # atno 10718 bound_to 10713
  154.8131  135.3289  154.7252 H   0  0  0  0  0  0  0  0  0  0  0  0  # atno 10763 bound_to 10752
  153.7897  135.6912  153.4878 H   0  0  0  0  0  0  0  0  0  0  0  0  # atno 10764 bound_to 10752
  153.1925  135.4546  155.0113 H   0  0  0  0  0  0  0  0  0  0  0  0  # atno 10765 bound_to 10752
  140.7696  134.3204  157.5079 H   0  0  0  0  0  0  0  0  0  0  0  0  # atno 11005 bound_to 11000
  144.6953  139.9020  143.7459 LP  0  0  0  0  0  0  0  0  0  0  0  0  # atno 17320 bound_to 7965
  146.0749  139.3737  143.0500 LP  0  0  0  0  0  0  0  0  0  0  0  0  # atno 17321 bound_to 7965
  140.6378  143.2198  151.6358 LP  0  0  0  0  0  0  0  0  0  0  0  0  # atno 17342 bound_to 10162
  139.5210  144.3206  152.0914 LP  0  0  0  0  0  0  0  0  0  0  0  0  # atno 17343 bound_to 10162
  156.0553  130.3709  150.1105 LP  0  0  0  0  0  0  0  0  0  0  0  0  # atno 17370 bound_to 10713
  156.9279  130.9704  151.3538 LP  0  0  0  0  0  0  0  0  0  0  0  0  # atno 17371 bound_to 10713
  139.8758  134.9252  156.3370 LP  0  0  0  0  0  0  0  0  0  0  0  0  # atno 17394 bound_to 11000
  140.9586  133.7403  156.0370 LP  0  0  0  0  0  0  0  0  0  0  0  0  # atno 17395 bound_to 11000

$$$$
