AV-unprocessed.smi:1927|AV-procd|sdf|7796|dock10
  -GOLD-   22720 9543D 1   1.00000     0.00000
 Structure written by MMmdl.
 34 35  0  0  0  0  0  0  0  0  1 V2000
  151.1611  144.4033  157.2832 C   0  0  0  0  0  0  0  0  0  0  0  0
  151.5731  144.0031  158.6907 C   0  0  0  0  0  0  0  0  0  0  0  0
  152.8570  143.4584  158.9059 C   0  0  0  0  0  0  0  0  0  0  0  0
  153.2351  143.0877  160.2078 C   0  0  0  0  0  0  0  0  0  0  0  0
  152.3074  143.2792  161.2459 C   0  0  0  0  0  0  0  0  0  0  0  0
  151.0789  143.7997  161.0495 N   0  0  0  0  0  0  0  0  0  0  0  0
  150.6981  144.1627  159.7989 C   0  0  0  0  0  0  0  0  0  0  0  0
  149.4198  144.7218  159.5165 N   0  0  0  0  0  0  0  0  0  0  0  0
  148.3308  144.7650  160.3042 C   0  0  0  0  0  0  0  0  0  0  0  0
  148.2503  144.2917  161.4381 O   0  0  0  0  0  0  0  0  0  0  0  0
  147.3184  145.3957  159.6912 N   0  0  0  0  0  0  0  0  0  0  0  0
  145.9912  145.6186  160.2557 C   0  0  0  0  0  0  0  0  0  0  0  0
  145.2854  144.2933  160.5963 C   0  0  2  0  0  0  0  0  0  0  0  0
  143.7754  144.4022  160.6530 C   0  0  0  0  0  0  0  0  0  0  0  0
  143.3924  143.1497  161.4364 C   0  0  0  0  0  0  0  0  0  0  0  0
  144.4959  142.8683  162.2933 O   0  0  0  0  0  0  0  0  0  0  0  0
  145.5834  143.7358  161.9892 C   0  0  0  0  0  0  0  0  0  0  0  0
  151.9588  144.2103  156.5652 H   0  0  0  0  0  0  0  0  0  0  0  0
  150.9224  145.4665  157.2422 H   0  0  0  0  0  0  0  0  0  0  0  0
  150.2835  143.8381  156.9675 H   0  0  0  0  0  0  0  0  0  0  0  0
  153.5468  143.3252  158.0854 H   0  0  0  0  0  0  0  0  0  0  0  0
  154.2105  142.6683  160.4053 H   0  0  0  0  0  0  0  0  0  0  0  0
  152.5582  143.0096  162.2612 H   0  0  0  0  0  0  0  0  0  0  0  0
  149.3275  145.1465  158.6059 H   0  0  0  0  0  0  0  0  0  0  0  0
  147.4771  145.7510  158.7597 H   0  0  0  0  0  0  0  0  0  0  0  0
  146.0421  146.2659  161.1332 H   0  0  0  0  0  0  0  0  0  0  0  0
  145.4053  146.1608  159.5133 H   0  0  0  0  0  0  0  0  0  0  0  0
  145.5489  143.5392  159.8526 H   0  0  0  0  0  0  0  0  0  0  0  0
  143.4788  145.2941  161.2075 H   0  0  0  0  0  0  0  0  0  0  0  0
  143.3111  144.4444  159.6673 H   0  0  0  0  0  0  0  0  0  0  0  0
  142.4713  143.2825  162.0043 H   0  0  0  0  0  0  0  0  0  0  0  0
  143.2540  142.3045  160.7610 H   0  0  0  0  0  0  0  0  0  0  0  0
  146.5370  143.2097  162.0369 H   0  0  0  0  0  0  0  0  0  0  0  0
  145.6018  144.5368  162.7296 H   0  0  0  0  0  0  0  0  0  0  0  0
  1  2  1  0  0  0  0
  1 18  1  0  0  0  0
  1 19  1  0  0  0  0
  1 20  1  0  0  0  0
  2  7  1  0  0  0  0
  2  3  2  0  0  0  0
  3  4  1  0  0  0  0
  3 21  1  0  0  0  0
  4  5  2  0  0  0  0
  4 22  1  0  0  0  0
  5  6  1  0  0  0  0
  5 23  1  0  0  0  0
  6  7  2  0  0  0  0
  7  8  1  0  0  0  0
  8  9  1  0  0  0  0
  8 24  1  0  0  0  0
  9 10  2  0  0  0  0
  9 11  1  0  0  0  0
 11 12  1  0  0  0  0
 11 25  1  0  0  0  0
 12 13  1  0  0  0  0
 12 26  1  0  0  0  0
 12 27  1  0  0  0  0
 13 17  1  0  0  0  0
 13 14  1  0  0  0  0
 13 28  1  0  0  0  0
 14 15  1  0  0  0  0
 14 29  1  0  0  0  0
 14 30  1  0  0  0  0
 15 16  1  0  0  0  0
 15 31  1  0  0  0  0
 15 32  1  0  0  0  0
 16 17  1  0  0  0  0
 17 33  1  0  0  0  0
 17 34  1  0  0  0  0
M  END
> <s_m_source_file>
AV-unprocessed.smi

> <i_m_source_file_index>
1927

> <i_lp_mmshare_version>
43012

> <i_f3d_flags>
0

> <s_epik_input>
W0NIM11jMVtjSF1bY0hdW2NIXW5jMVtOSF1DKD1PKVtOSF1bQ0gyXVtDQEBIXTJbQ0gyXVtDSDJdT1tDSDJdMg==

> <s_epik_cmdline>
J2VwaWtfcHl0aG9uJywgJy1waCcsICc3LjAnLCAnLXRuJywgJzgnLCAnLW1hJywgJzIwMCcsICctbWV0YWxfYmluZGluZycsICctaW1hZScsICc8aW5maWxlLm1hZT4nLCAnLW9tYWUnLCAnPG91dGZpbGUubWFlPic=

> <r_lp_tautomer_probability>
1

> <r_epik_Ionization_Penalty>
5.84082e-05

> <r_epik_Ionization_Penalty_Charging>
0

> <r_epik_Ionization_Penalty_Neutral>
5.84082e-05

> <r_epik_State_Penalty>
-0

> <r_epik_Charging_Adjusted_Penalty>
0

> <i_epik_Tot_Q>
0

> <i_epik_Tot_abs_Q>
0

> <r_epik_Metal_State_Penalty>
-0

> <b_epik_Metal_Only>
0

> <s_lp_Force_Field>
OPLS_2005

> <r_lp_Energy>
21.003

> <b_lp_Chiralities_Consistent>
1

> <s_lp_Variant>
AV-unprocessed.smi:1927-1

> <Gold.Version>
5.8.1

> <Gold.Id.Protein>
6NUR|6NUR_protein|mol2

> <Gold.PLP.Fitness>
43.5526

> <Gold.PLP.PLP>
-36.2004

> <Gold.PLP.part.hbond>
-4.9989

> <Gold.PLP.part.metal>
0.0000

> <Gold.PLP.part.buried>
-4.7641

> <Gold.PLP.part.nonpolar>
-27.9425

> <Gold.PLP.part.repulsive>
0.6863

> <Gold.PLP.ligand.clash>
0.0000

> <Gold.PLP.ligand.torsion>
0.3197

> <Gold.PLP.Chemscore.Hbond>
2.6620

> <Gold.PLP.Chemscore.CHOScore>
0.0000

> <Gold.PLP.Chemscore.Metal>
0.0000

> <Gold.Chemscore.Hbonds>
donor molecule, donor type, donor heavy atom, donor atom, acceptor molecule, acceptor atom, score
      L1  H     8    24       P1  8029  0.70
      L1  H    11    25       P1  8029  1.00
      P1  H  6933  6944       L1    10  0.94

> <Gold.PLP.Chemscore.Internal.Correction>
0.0055

> <Gold.Rescore>
     Score         DG    S(hbond)    S(metal)    S(lipo)     H(rot)  DE(clash)    DE(int)     intcor
     16.92     -21.44       2.76        0.00      84.53       1.23       1.58       2.94       ----

> <Gold.Chemscore.Fitness>
16.9217

> <Gold.Chemscore.DG>
-21.4396

> <Gold.Chemscore.ZeroCoef>
-5.4800

> <Gold.Chemscore.Hbond>
2.7630

> <Gold.Chemscore.Metal>
0.0000

> <Gold.Chemscore.Lipo>
84.5251

> <Gold.Chemscore.Internal_Hbond>
0.0000

> <Gold.Chemscore.DEClash>
1.5790

> <Gold.Chemscore.DEInternal>
2.9389

> <Gold.Chemscore.Rot>
1.2337

> <Gold.Chemscore.Internal.Correction>
   9.000000E+99

> <Gold.Chemscore.Hbonds>
donor molecule, donor type, donor heavy atom, donor atom, acceptor molecule, acceptor atom, score
      L1  H     8    24       P1  8029  0.60
      L1  H    11    25       P1  8029  0.93
      P1  H  6933  6944       L1    10  0.77

> <Gold.Chemscore.Hbond.Weighted>
-9.2284

> <Gold.Chemscore.Metal.Weighted>
-0.0000

> <Gold.Chemscore.Lipo.Weighted>
-9.8894

> <Gold.Chemscore.Internal_Hbond.Weighted>
0.0000

> <Gold.Chemscore.DEClash.Weighted>
1.5790

> <Gold.Chemscore.DEInternal.Weighted>
2.9389

> <Gold.Chemscore.Rot.Weighted>
3.1582

> <Gold.Chemscore.Internal.Correction.Weighted>
   9.000000E+99

> <Gold.Protein.RotatedTorsions>
[ 6907 6896 6895 6894 ] final   62.55 input  -60.11 | X-H torsion
[ 7974 7965 7964 7962 ] final  127.81 input  175.53 | X-H torsion
[ 8008 7997 7996 7995 ] final    5.07 input   59.86 | X-H torsion
[ 10167 10162 10161 10158 ] final  146.74 input  -65.29 | X-H torsion
[ 10718 10713 10712 10709 ] final  -38.83 input   66.30 | X-H torsion
[ 10763 10752 10751 10750 ] final  174.41 input  -60.55 | X-H torsion
[ 11005 11000 10999 10996 ] final -149.35 input  -57.11 | X-H torsion

> <Gold.Protein.ActiveResidues>
 VAL166  LYS551  ARG553  GLY616  TRP617  ASP618  TYR619  PRO620  LYS621  CYS622 
 ASP623  PHE694  ASN695  SER759  ASP760  ASP761  ALA762  ILE779  LEU786  VAL792 
 PHE793  MET794  SER795  GLU796  ALA797  LYS798  CYS799  TRP800  GLU811  SER814 

> <Gold.Protein.RotatedAtoms>
  152.4181  134.6005  159.9998 H   0  0  0  0  0  0  0  0  0  0  0  0  # atno 6907 bound_to 6896
  151.6163  133.3337  159.3086 H   0  0  0  0  0  0  0  0  0  0  0  0  # atno 6908 bound_to 6896
  150.8069  134.7239  159.6718 H   0  0  0  0  0  0  0  0  0  0  0  0  # atno 6909 bound_to 6896
  145.0465  139.3919  143.5075 H   0  0  0  0  0  0  0  0  0  0  0  0  # atno 7974 bound_to 7965
  154.7238  140.2717  155.6518 H   0  0  0  0  0  0  0  0  0  0  0  0  # atno 8008 bound_to 7997
  156.2831  140.2729  156.1842 H   0  0  0  0  0  0  0  0  0  0  0  0  # atno 8009 bound_to 7997
  155.0472  140.0371  157.2521 H   0  0  0  0  0  0  0  0  0  0  0  0  # atno 8010 bound_to 7997
  139.4902  144.5807  151.6877 H   0  0  0  0  0  0  0  0  0  0  0  0  # atno 10167 bound_to 10162
  156.2993  130.4238  149.8159 H   0  0  0  0  0  0  0  0  0  0  0  0  # atno 10718 bound_to 10713
  154.4535  135.2765  155.1764 H   0  0  0  0  0  0  0  0  0  0  0  0  # atno 10763 bound_to 10752
  154.3581  135.6135  153.5680 H   0  0  0  0  0  0  0  0  0  0  0  0  # atno 10764 bound_to 10752
  152.9849  135.5827  154.4884 H   0  0  0  0  0  0  0  0  0  0  0  0  # atno 10765 bound_to 10752
  140.7517  134.3399  157.5124 H   0  0  0  0  0  0  0  0  0  0  0  0  # atno 11005 bound_to 11000
  146.3514  140.0093  142.8668 LP  0  0  0  0  0  0  0  0  0  0  0  0  # atno 17320 bound_to 7965
  145.1581  140.9658  143.4393 LP  0  0  0  0  0  0  0  0  0  0  0  0  # atno 17321 bound_to 7965
  140.5413  144.0575  150.6089 LP  0  0  0  0  0  0  0  0  0  0  0  0  # atno 17342 bound_to 10162
  140.3598  143.2914  152.0396 LP  0  0  0  0  0  0  0  0  0  0  0  0  # atno 17343 bound_to 10162
  156.5543  130.8355  151.3309 LP  0  0  0  0  0  0  0  0  0  0  0  0  # atno 17370 bound_to 10713
  157.7364  130.9778  150.2133 LP  0  0  0  0  0  0  0  0  0  0  0  0  # atno 17371 bound_to 10713
  139.8786  134.9146  156.3111 LP  0  0  0  0  0  0  0  0  0  0  0  0  # atno 17394 bound_to 11000
  140.9745  133.7306  156.0581 LP  0  0  0  0  0  0  0  0  0  0  0  0  # atno 17395 bound_to 11000

$$$$
