AV-unprocessed.smi:100|AV-procd|sdf|905|dock7
  -GOLD-   2262017403D 1   1.00000     0.00000
 Structure written by MMmdl.
 31 33  0  0  0  0  0  0  0  0  1 V2000
  144.4420  138.8184  154.2743 N   0  0  0  0  0  0  0  0  0  0  0  0
  145.7402  138.8106  154.6062 C   0  0  0  0  0  0  0  0  0  0  0  0
  146.3045  137.6359  154.9741 N   0  0  0  0  0  0  0  0  0  0  0  0
  147.5992  137.6025  155.3085 C   0  0  0  0  0  0  0  0  0  0  0  0
  148.4815  138.6058  155.3400 N   0  0  0  0  0  0  0  0  0  0  0  0
  147.9068  139.7873  154.9695 C   0  0  0  0  0  0  0  0  0  0  0  0
  146.5502  139.9738  154.5884 C   0  0  0  0  0  0  0  0  0  0  0  0
  146.3276  141.3079  154.2744 N   0  0  0  0  0  0  0  0  0  0  0  0
  147.4911  141.8733  154.4596 C   0  0  0  0  0  0  0  0  0  0  0  0
  148.4987  141.0274  154.8762 N   0  0  0  0  0  0  0  0  0  0  0  0
  149.9338  141.3344  155.1828 C   0  0  2  0  0  0  0  0  0  0  0  0
  150.7301  140.3416  154.6028 O   0  0  0  0  0  0  0  0  0  0  0  0
  151.1777  139.4383  155.6085 C   0  0  1  0  0  0  0  0  0  0  0  0
  152.4266  138.6828  155.1329 C   0  0  0  0  0  0  0  0  0  0  0  0
  153.3861  139.5990  154.6515 O   0  0  0  0  0  0  0  0  0  0  0  0
  151.4427  140.4058  156.7581 C   0  0  2  0  0  0  0  0  0  0  0  0
  151.6062  139.8122  157.9420 F   0  0  0  0  0  0  0  0  0  0  0  0
  150.2318  141.3244  156.7023 C   0  0  2  0  0  0  0  0  0  0  0  0
  149.1691  140.8160  157.4937 O   0  0  0  0  0  0  0  0  0  0  0  0
  144.0009  139.6832  153.9956 H   0  0  0  0  0  0  0  0  0  0  0  0
  143.9088  137.9615  154.3013 H   0  0  0  0  0  0  0  0  0  0  0  0
  147.9831  136.6331  155.5906 H   0  0  0  0  0  0  0  0  0  0  0  0
  147.6410  142.9304  154.2955 H   0  0  0  0  0  0  0  0  0  0  0  0
  150.1236  142.2944  154.7006 H   0  0  0  0  0  0  0  0  0  0  0  0
  150.3787  138.7476  155.8848 H   0  0  0  0  0  0  0  0  0  0  0  0
  152.8500  138.0718  155.9308 H   0  0  0  0  0  0  0  0  0  0  0  0
  152.1703  138.0137  154.3110 H   0  0  0  0  0  0  0  0  0  0  0  0
  153.5490  139.4129  153.7393 H   0  0  0  0  0  0  0  0  0  0  0  0
  152.3500  140.9788  156.5607 H   0  0  0  0  0  0  0  0  0  0  0  0
  150.4737  142.3328  157.0396 H   0  0  0  0  0  0  0  0  0  0  0  0
  148.5522  141.5152  157.6493 H   0  0  0  0  0  0  0  0  0  0  0  0
  1  2  1  0  0  0  0
  1 20  1  0  0  0  0
  1 21  1  0  0  0  0
  2  7  1  0  0  0  0
  2  3  2  0  0  0  0
  3  4  1  0  0  0  0
  4  5  2  0  0  0  0
  4 22  1  0  0  0  0
  5  6  1  0  0  0  0
  6 10  1  0  0  0  0
  6  7  2  0  0  0  0
  7  8  1  0  0  0  0
  8  9  2  0  0  0  0
  9 10  1  0  0  0  0
  9 23  1  0  0  0  0
 10 11  1  0  0  0  0
 11 18  1  0  0  0  0
 11 12  1  0  0  0  0
 11 24  1  0  0  0  0
 12 13  1  0  0  0  0
 13 14  1  0  0  0  0
 13 16  1  0  0  0  0
 13 25  1  0  0  0  0
 14 15  1  0  0  0  0
 14 26  1  0  0  0  0
 14 27  1  0  0  0  0
 15 28  1  0  0  0  0
 16 17  1  0  0  0  0
 16 18  1  0  0  0  0
 16 29  1  0  0  0  0
 18 19  1  0  0  0  0
 18 30  1  0  0  0  0
 19 31  1  0  0  0  0
M  END
> <s_m_source_file>
AV-unprocessed.smi

> <i_m_source_file_index>
100

> <i_lp_mmshare_version>
43012

> <i_f3d_flags>
0

> <s_epik_input>
bjFbY0hdbmMoW05IMl0pYyhjMTIpbltjSF1uMltDQEBIXTNPW0NAQEhdKFtDSDJdW09IXSlbQ0BIXShGKVtDQEhdM1tPSF0=

> <s_epik_cmdline>
J2VwaWtfcHl0aG9uJywgJy1waCcsICc3LjAnLCAnLXRuJywgJzgnLCAnLW1hJywgJzIwMCcsICctbWV0YWxfYmluZGluZycsICctaW1hZScsICc8aW5maWxlLm1hZT4nLCAnLW9tYWUnLCAnPG91dGZpbGUubWFlPic=

> <r_lp_tautomer_probability>
1

> <r_epik_Ionization_Penalty>
0.000750324

> <r_epik_Ionization_Penalty_Charging>
0

> <r_epik_Ionization_Penalty_Neutral>
0.000750324

> <r_epik_State_Penalty>
-0

> <r_epik_Charging_Adjusted_Penalty>
0

> <i_epik_Tot_Q>
0

> <i_epik_Tot_abs_Q>
0

> <r_epik_Metal_State_Penalty>
-0

> <b_epik_Metal_Only>
0

> <s_epik_Chemistry_Notes>
This compound contains an acetal/aminal-like group ( X-CH(R)-Y where X, Y are N, S, or O) that may be acid/base labile, releasing an aldehyde.

> <s_lp_Force_Field>
OPLS_2005

> <r_lp_Energy>
36.1234

> <b_lp_Chiralities_Consistent>
1

> <s_lp_Variant>
AV-unprocessed.smi:100-9

> <Gold.Version>
5.8.1

> <Gold.Id.Protein>
6NUR|6NUR_protein|mol2

> <Gold.PLP.Fitness>
35.9368

> <Gold.PLP.PLP>
-25.4184

> <Gold.PLP.part.hbond>
-3.8474

> <Gold.PLP.part.metal>
0.0000

> <Gold.PLP.part.buried>
-3.0676

> <Gold.PLP.part.nonpolar>
-19.0997

> <Gold.PLP.part.repulsive>
0.3699

> <Gold.PLP.ligand.clash>
0.0000

> <Gold.PLP.ligand.torsion>
0.3815

> <Gold.PLP.Chemscore.Hbond>
2.7520

> <Gold.PLP.Chemscore.CHOScore>
0.9978

> <Gold.PLP.Chemscore.Metal>
0.0000

> <Gold.Chemscore.Hbonds>
donor molecule, donor type, donor heavy atom, donor atom, acceptor molecule, acceptor atom, score
      L1  H     1    20       P1 10175  0.72
      P1  H  7989  7998       L1    12  0.98
      P1  H  7997  8010       L1    15  1.00
      L1  C     9    23       P1  8028  1.00

> <Gold.PLP.Chemscore.Internal.Correction>
0.0321

> <Gold.Rescore>
     Score         DG    S(hbond)    S(metal)    S(lipo)     H(rot)  DE(clash)    DE(int)     intcor
      7.53     -10.15       2.89        0.00      27.31       3.19       0.01       2.60       ----

> <Gold.Chemscore.Fitness>
7.5341

> <Gold.Chemscore.DG>
-10.1485

> <Gold.Chemscore.ZeroCoef>
-5.4800

> <Gold.Chemscore.Hbond>
2.8861

> <Gold.Chemscore.Metal>
0.0000

> <Gold.Chemscore.Lipo>
27.3139

> <Gold.Chemscore.Internal_Hbond>
0.0000

> <Gold.Chemscore.DEClash>
0.0119

> <Gold.Chemscore.DEInternal>
2.6026

> <Gold.Chemscore.Rot>
3.1901

> <Gold.Chemscore.Internal.Correction>
   9.000000E+99

> <Gold.Chemscore.Hbonds>
donor molecule, donor type, donor heavy atom, donor atom, acceptor molecule, acceptor atom, score
      L1  H     1    20       P1 10175  0.72
      P1  H  7989  7998       L1    12  0.77
      P1  H  7997  8010       L1    15  0.97

> <Gold.Chemscore.Hbond.Weighted>
-9.6395

> <Gold.Chemscore.Metal.Weighted>
-0.0000

> <Gold.Chemscore.Lipo.Weighted>
-3.1957

> <Gold.Chemscore.Internal_Hbond.Weighted>
0.0000

> <Gold.Chemscore.DEClash.Weighted>
0.0119

> <Gold.Chemscore.DEInternal.Weighted>
2.6026

> <Gold.Chemscore.Rot.Weighted>
8.1667

> <Gold.Chemscore.Internal.Correction.Weighted>
   9.000000E+99

> <Gold.Protein.RotatedTorsions>
[ 6907 6896 6895 6894 ] final   83.26 input  -60.11 | X-H torsion
[ 7974 7965 7964 7962 ] final -127.96 input  175.53 | X-H torsion
[ 8008 7997 7996 7995 ] final  118.32 input   59.86 | X-H torsion
[ 10167 10162 10161 10158 ] final  145.89 input  -65.29 | X-H torsion
[ 10718 10713 10712 10709 ] final   73.71 input   66.30 | X-H torsion
[ 10763 10752 10751 10750 ] final   21.69 input  -60.55 | X-H torsion
[ 11005 11000 10999 10996 ] final  120.61 input  -57.11 | X-H torsion

> <Gold.Protein.ActiveResidues>
 VAL166  LYS551  ARG553  GLY616  TRP617  ASP618  TYR619  PRO620  LYS621  CYS622 
 ASP623  PHE694  ASN695  SER759  ASP760  ASP761  ALA762  ILE779  LEU786  VAL792 
 PHE793  MET794  SER795  GLU796  ALA797  LYS798  CYS799  TRP800  GLU811  SER814 

> <Gold.Protein.RotatedAtoms>
  152.5322  134.2922  159.9047 H   0  0  0  0  0  0  0  0  0  0  0  0  # atno 6907 bound_to 6896
  151.2874  133.4174  159.2638 H   0  0  0  0  0  0  0  0  0  0  0  0  # atno 6908 bound_to 6896
  151.0230  134.9499  159.8127 H   0  0  0  0  0  0  0  0  0  0  0  0  # atno 6909 bound_to 6896
  144.9718  140.7553  143.4666 H   0  0  0  0  0  0  0  0  0  0  0  0  # atno 7974 bound_to 7965
  156.2540  140.2877  156.0816 H   0  0  0  0  0  0  0  0  0  0  0  0  # atno 8008 bound_to 7997
  155.1560  140.0398  157.2849 H   0  0  0  0  0  0  0  0  0  0  0  0  # atno 8009 bound_to 7997
  154.6426  140.2526  155.7311 H   0  0  0  0  0  0  0  0  0  0  0  0  # atno 8010 bound_to 7997
  139.4917  144.5869  151.6760 H   0  0  0  0  0  0  0  0  0  0  0  0  # atno 10167 bound_to 10162
  157.6560  130.9642  150.1108 H   0  0  0  0  0  0  0  0  0  0  0  0  # atno 10718 bound_to 10713
  153.0974  135.6663  153.9736 H   0  0  0  0  0  0  0  0  0  0  0  0  # atno 10763 bound_to 10752
  153.9316  135.3003  155.3447 H   0  0  0  0  0  0  0  0  0  0  0  0  # atno 10764 bound_to 10752
  154.7394  135.5086  153.9171 H   0  0  0  0  0  0  0  0  0  0  0  0  # atno 10765 bound_to 10752
  139.9192  134.9635  156.7832 H   0  0  0  0  0  0  0  0  0  0  0  0  # atno 11005 bound_to 11000
  145.2548  139.2017  143.4923 LP  0  0  0  0  0  0  0  0  0  0  0  0  # atno 17320 bound_to 7965
  146.3384  140.2467  142.8597 LP  0  0  0  0  0  0  0  0  0  0  0  0  # atno 17321 bound_to 7965
  140.5487  144.0461  150.6118 LP  0  0  0  0  0  0  0  0  0  0  0  0  # atno 17342 bound_to 10162
  140.3508  143.2964  152.0489 LP  0  0  0  0  0  0  0  0  0  0  0  0  # atno 17343 bound_to 10162
  156.2005  130.3660  149.8794 LP  0  0  0  0  0  0  0  0  0  0  0  0  # atno 17370 bound_to 10713
  156.6699  130.8816  151.3560 LP  0  0  0  0  0  0  0  0  0  0  0  0  # atno 17371 bound_to 10713
  140.6527  133.9717  155.7763 LP  0  0  0  0  0  0  0  0  0  0  0  0  # atno 17394 bound_to 11000
  141.0697  134.0224  157.3543 LP  0  0  0  0  0  0  0  0  0  0  0  0  # atno 17395 bound_to 11000

$$$$
