AV-unprocessed.smi:109|AV-procd|sdf|1041|dock7
  -GOLD-   2262018 73D 1   1.00000     0.00000
 Structure written by MMmdl.
 58 61  0  0  0  0  0  0  0  0  1 V2000
  150.4211  139.6241  154.1955 O   0  0  0  0  0  0  0  0  0  0  0  0
  150.7628  139.5314  155.5617 C   0  0  0  0  0  0  0  0  0  0  0  0
  151.3486  140.8690  156.0456 C   0  0  0  0  0  0  0  0  0  0  0  0
  150.4201  141.6679  156.9939 C   0  0  2  0  0  0  0  0  0  0  0  0
  149.2903  142.2065  156.2324 N   0  0  0  0  0  0  0  0  0  0  0  0
  148.4214  141.4109  155.5690 C   0  0  0  0  0  0  0  0  0  0  0  0
  148.4207  141.3345  154.2131 N   0  0  0  0  0  0  0  0  0  0  0  0
  147.5445  140.5437  153.5878 C   0  0  0  0  0  0  0  0  0  0  0  0
  146.6033  139.7605  154.1179 N   0  0  0  0  0  0  0  0  0  0  0  0
  146.5981  139.8302  155.4805 C   0  0  0  0  0  0  0  0  0  0  0  0
  147.4712  140.6269  156.2732 C   0  0  0  0  0  0  0  0  0  0  0  0
  147.1816  140.4471  157.6192 N   0  0  0  0  0  0  0  0  0  0  0  0
  146.1951  139.5916  157.6174 C   0  0  0  0  0  0  0  0  0  0  0  0
  145.7815  139.1648  156.3747 N   0  0  0  0  0  0  0  0  0  0  0  0
  144.6801  138.1925  156.0732 C   0  0  1  0  0  0  0  0  0  0  0  0
  144.0749  137.7894  157.2665 O   0  0  0  0  0  0  0  0  0  0  0  0
  142.6846  138.1036  157.2514 C   0  0  2  0  0  0  0  0  0  0  0  0
  141.8873  137.1033  158.1070 C   0  0  0  0  0  0  0  0  0  0  0  0
  142.1716  135.7785  157.7101 O   0  0  0  0  0  0  0  0  0  0  0  0
  142.3193  138.1970  155.7625 C   0  0  2  0  0  0  0  0  0  0  0  0
  142.0393  136.9216  155.2153 O   0  0  0  0  0  0  0  0  0  0  0  0
  143.5872  138.7699  155.1497 C   0  0  1  0  0  0  0  0  0  0  0  0
  143.5375  140.1858  155.1299 O   0  0  0  0  0  0  0  0  0  0  0  0
  151.1457  142.8289  157.7338 C   0  0  0  0  0  0  0  0  0  0  0  0
  152.2923  142.3411  158.6555 C   0  0  0  0  0  0  0  0  0  0  0  0
  152.9770  143.4961  159.4050 C   0  0  0  0  0  0  0  0  0  0  0  0
  151.9673  144.3178  160.2151 C   0  0  0  0  0  0  0  0  0  0  0  0
  150.8407  144.8306  159.3108 C   0  0  0  0  0  0  0  0  0  0  0  0
  150.1512  143.6721  158.5738 C   0  0  0  0  0  0  0  0  0  0  0  0
  145.1858  137.3319  155.6339 H   0  0  0  0  0  0  0  0  0  0  0  0
  142.5780  139.0971  157.6886 H   0  0  0  0  0  0  0  0  0  0  0  0
  141.4489  138.8328  155.5951 H   0  0  0  0  0  0  0  0  0  0  0  0
  143.7512  138.4258  154.1277 H   0  0  0  0  0  0  0  0  0  0  0  0
  149.8253  138.9209  153.9868 H   0  0  0  0  0  0  0  0  0  0  0  0
  149.8681  139.2638  156.1236 H   0  0  0  0  0  0  0  0  0  0  0  0
  151.4859  138.7257  155.6910 H   0  0  0  0  0  0  0  0  0  0  0  0
  152.2823  140.6345  156.5534 H   0  0  0  0  0  0  0  0  0  0  0  0
  151.6128  141.4866  155.1860 H   0  0  0  0  0  0  0  0  0  0  0  0
  150.0679  140.9845  157.7663 H   0  0  0  0  0  0  0  0  0  0  0  0
  149.1759  143.2086  156.2824 H   0  0  0  0  0  0  0  0  0  0  0  0
  147.6061  140.5371  152.5097 H   0  0  0  0  0  0  0  0  0  0  0  0
  145.7386  139.2431  158.5326 H   0  0  0  0  0  0  0  0  0  0  0  0
  142.1011  137.2237  159.1693 H   0  0  0  0  0  0  0  0  0  0  0  0
  140.8186  137.2772  157.9781 H   0  0  0  0  0  0  0  0  0  0  0  0
  142.7338  135.3844  158.3596 H   0  0  0  0  0  0  0  0  0  0  0  0
  141.8798  136.3216  155.9280 H   0  0  0  0  0  0  0  0  0  0  0  0
  143.4897  140.4705  154.2301 H   0  0  0  0  0  0  0  0  0  0  0  0
  151.5845  143.4845  156.9796 H   0  0  0  0  0  0  0  0  0  0  0  0
  151.9038  141.6191  159.3751 H   0  0  0  0  0  0  0  0  0  0  0  0
  153.0611  141.8256  158.0825 H   0  0  0  0  0  0  0  0  0  0  0  0
  153.7490  143.1023  160.0668 H   0  0  0  0  0  0  0  0  0  0  0  0
  153.4854  144.1440  158.6899 H   0  0  0  0  0  0  0  0  0  0  0  0
  151.5483  143.7036  161.0130 H   0  0  0  0  0  0  0  0  0  0  0  0
  152.4700  145.1563  160.6981 H   0  0  0  0  0  0  0  0  0  0  0  0
  150.1098  145.3810  159.9039 H   0  0  0  0  0  0  0  0  0  0  0  0
  151.2449  145.5372  158.5848 H   0  0  0  0  0  0  0  0  0  0  0  0
  149.3677  144.0919  157.9428 H   0  0  0  0  0  0  0  0  0  0  0  0
  149.6476  143.0301  159.2975 H   0  0  0  0  0  0  0  0  0  0  0  0
  1  2  1  0  0  0  0
  1 34  1  0  0  0  0
  2  3  1  0  0  0  0
  2 35  1  0  0  0  0
  2 36  1  0  0  0  0
  3  4  1  0  0  0  0
  3 37  1  0  0  0  0
  3 38  1  0  0  0  0
  4  5  1  0  0  0  0
  4 24  1  0  0  0  0
  4 39  1  0  0  0  0
  5  6  1  0  0  0  0
  5 40  1  0  0  0  0
  6 11  1  0  0  0  0
  6  7  2  0  0  0  0
  7  8  1  0  0  0  0
  8  9  2  0  0  0  0
  8 41  1  0  0  0  0
  9 10  1  0  0  0  0
 10 14  1  0  0  0  0
 10 11  2  0  0  0  0
 11 12  1  0  0  0  0
 12 13  2  0  0  0  0
 13 14  1  0  0  0  0
 13 42  1  0  0  0  0
 14 15  1  0  0  0  0
 15 30  1  0  0  0  0
 15 22  1  0  0  0  0
 15 16  1  0  0  0  0
 16 17  1  0  0  0  0
 17 31  1  0  0  0  0
 17 18  1  0  0  0  0
 17 20  1  0  0  0  0
 18 19  1  0  0  0  0
 18 43  1  0  0  0  0
 18 44  1  0  0  0  0
 19 45  1  0  0  0  0
 20 32  1  0  0  0  0
 20 21  1  0  0  0  0
 20 22  1  0  0  0  0
 21 46  1  0  0  0  0
 22 33  1  0  0  0  0
 22 23  1  0  0  0  0
 23 47  1  0  0  0  0
 24 29  1  0  0  0  0
 24 25  1  0  0  0  0
 24 48  1  0  0  0  0
 25 26  1  0  0  0  0
 25 49  1  0  0  0  0
 25 50  1  0  0  0  0
 26 27  1  0  0  0  0
 26 51  1  0  0  0  0
 26 52  1  0  0  0  0
 27 28  1  0  0  0  0
 27 53  1  0  0  0  0
 27 54  1  0  0  0  0
 28 29  1  0  0  0  0
 28 55  1  0  0  0  0
 28 56  1  0  0  0  0
 29 57  1  0  0  0  0
 29 58  1  0  0  0  0
M  END
> <s_m_source_file>
AV-unprocessed.smi

> <i_m_source_file_index>
109

> <i_lp_mmshare_version>
43012

> <i_f3d_flags>
0

> <s_epik_input>
W0NIMl0xW0NIMl1bQ0gyXVtDSDJdW0NIMl1bQ0hdMVtDQEhdKFtDSDJdW0NIMl1bT0hdKVtOSF1jKG5bY0hdbjIpYyhjMjMpbltjSF1uM1tDQEBIXTRPW0NASF0oW0NIMl1bT0hdKVtDQEBIXShbT0hdKVtDQEhdNFtPSF0=

> <s_epik_cmdline>
J2VwaWtfcHl0aG9uJywgJy1waCcsICc3LjAnLCAnLXRuJywgJzgnLCAnLW1hJywgJzIwMCcsICctbWV0YWxfYmluZGluZycsICctaW1hZScsICc8aW5maWxlLm1hZT4nLCAnLW9tYWUnLCAnPG91dGZpbGUubWFlPic=

> <r_lp_tautomer_probability>
1

> <r_epik_Ionization_Penalty>
0.000793976

> <r_epik_Ionization_Penalty_Charging>
0

> <r_epik_Ionization_Penalty_Neutral>
0.000793976

> <r_epik_State_Penalty>
-0

> <r_epik_Charging_Adjusted_Penalty>
0

> <i_epik_Tot_Q>
0

> <i_epik_Tot_abs_Q>
0

> <r_epik_Metal_State_Penalty>
-0

> <b_epik_Metal_Only>
0

> <s_epik_Chemistry_Notes>
This compound contains an acetal/aminal-like group ( X-CH(R)-Y where X, Y are N, S, or O) that may be acid/base labile, releasing an aldehyde.

> <s_lp_Force_Field>
OPLS_2005

> <r_lp_Energy>
56.0983

> <b_lp_Chiralities_Consistent>
1

> <s_lp_Variant>
AV-unprocessed.smi:109-11

> <Gold.Version>
5.8.1

> <Gold.Id.Protein>
6NUR|6NUR_protein|mol2

> <Gold.PLP.Fitness>
48.6053

> <Gold.PLP.PLP>
-37.1944

> <Gold.PLP.part.hbond>
-4.8925

> <Gold.PLP.part.metal>
0.0000

> <Gold.PLP.part.buried>
-6.0496

> <Gold.PLP.part.nonpolar>
-26.3311

> <Gold.PLP.part.repulsive>
0.3495

> <Gold.PLP.ligand.clash>
0.0000

> <Gold.PLP.ligand.torsion>
1.1785

> <Gold.PLP.Chemscore.Hbond>
3.6240

> <Gold.PLP.Chemscore.CHOScore>
0.8935

> <Gold.PLP.Chemscore.Metal>
0.0000

> <Gold.Chemscore.Hbonds>
donor molecule, donor type, donor heavy atom, donor atom, acceptor molecule, acceptor atom, score
      L1  H     5    40       P1  8028  1.00
      L1  H    23    47       P1 10175  1.00
      P1  H  7989  7998       L1     1  1.00
      P1  H 11000 11005       L1    19  0.50
      L1  C     8    41       P1  7957  0.95

> <Gold.PLP.Chemscore.Internal.Correction>
0.2152

> <Gold.Rescore>
     Score         DG    S(hbond)    S(metal)    S(lipo)     H(rot)  DE(clash)    DE(int)     intcor
     11.50     -12.77       3.45        0.00      83.34       5.47       0.02       1.25       ----

> <Gold.Chemscore.Fitness>
11.4963

> <Gold.Chemscore.DG>
-12.7703

> <Gold.Chemscore.ZeroCoef>
-5.4800

> <Gold.Chemscore.Hbond>
3.4530

> <Gold.Chemscore.Metal>
0.0000

> <Gold.Chemscore.Lipo>
83.3399

> <Gold.Chemscore.Internal_Hbond>
0.0000

> <Gold.Chemscore.DEClash>
0.0243

> <Gold.Chemscore.DEInternal>
1.2496

> <Gold.Chemscore.Rot>
5.4662

> <Gold.Chemscore.Internal.Correction>
   9.000000E+99

> <Gold.Chemscore.Hbonds>
donor molecule, donor type, donor heavy atom, donor atom, acceptor molecule, acceptor atom, score
      L1  H     5    40       P1  8028  0.98
      L1  H    23    47       P1 10175  1.00
      P1  H  7989  7998       L1     1  0.50
      P1  H 11000 11005       L1    19  0.13

> <Gold.Chemscore.Hbond.Weighted>
-11.5330

> <Gold.Chemscore.Metal.Weighted>
-0.0000

> <Gold.Chemscore.Lipo.Weighted>
-9.7508

> <Gold.Chemscore.Internal_Hbond.Weighted>
0.0000

> <Gold.Chemscore.DEClash.Weighted>
0.0243

> <Gold.Chemscore.DEInternal.Weighted>
1.2496

> <Gold.Chemscore.Rot.Weighted>
13.9935

> <Gold.Chemscore.Internal.Correction.Weighted>
   9.000000E+99

> <Gold.Protein.RotatedTorsions>
[ 6907 6896 6895 6894 ] final  -88.57 input  -60.11 | X-H torsion
[ 7974 7965 7964 7962 ] final   39.60 input  175.53 | X-H torsion
[ 8008 7997 7996 7995 ] final -135.68 input   59.86 | X-H torsion
[ 10167 10162 10161 10158 ] final -103.41 input  -65.29 | X-H torsion
[ 10718 10713 10712 10709 ] final  -59.63 input   66.30 | X-H torsion
[ 10763 10752 10751 10750 ] final -164.92 input  -60.55 | X-H torsion
[ 11005 11000 10999 10996 ] final -145.04 input  -57.11 | X-H torsion

> <Gold.Protein.ActiveResidues>
 VAL166  LYS551  ARG553  GLY616  TRP617  ASP618  TYR619  PRO620  LYS621  CYS622 
 ASP623  PHE694  ASN695  SER759  ASP760  ASP761  ALA762  ILE779  LEU786  VAL792 
 PHE793  MET794  SER795  GLU796  ALA797  LYS798  CYS799  TRP800  GLU811  SER814 

> <Gold.Protein.RotatedAtoms>
  150.6869  134.2721  159.4592 H   0  0  0  0  0  0  0  0  0  0  0  0  # atno 6907 bound_to 6896
  152.0642  134.9572  160.0584 H   0  0  0  0  0  0  0  0  0  0  0  0  # atno 6908 bound_to 6896
  152.0987  133.4203  159.4614 H   0  0  0  0  0  0  0  0  0  0  0  0  # atno 6909 bound_to 6896
  146.0972  139.5633  142.9438 H   0  0  0  0  0  0  0  0  0  0  0  0  # atno 7974 bound_to 7965
  155.3827  140.0495  157.3043 H   0  0  0  0  0  0  0  0  0  0  0  0  # atno 8008 bound_to 7997
  154.5074  140.2179  155.9185 H   0  0  0  0  0  0  0  0  0  0  0  0  # atno 8009 bound_to 7997
  156.1542  140.3129  155.8704 H   0  0  0  0  0  0  0  0  0  0  0  0  # atno 8010 bound_to 7997
  140.2202  143.3681  152.0976 H   0  0  0  0  0  0  0  0  0  0  0  0  # atno 10167 bound_to 10162
  156.1048  130.4182  150.0742 H   0  0  0  0  0  0  0  0  0  0  0  0  # atno 10718 bound_to 10713
  154.6982  135.2983  154.9381 H   0  0  0  0  0  0  0  0  0  0  0  0  # atno 10763 bound_to 10752
  154.0322  135.6668  153.4786 H   0  0  0  0  0  0  0  0  0  0  0  0  # atno 10764 bound_to 10752
  153.0661  135.5087  154.8111 H   0  0  0  0  0  0  0  0  0  0  0  0  # atno 10765 bound_to 10752
  140.7963  134.2909  157.4995 H   0  0  0  0  0  0  0  0  0  0  0  0  # atno 11005 bound_to 11000
  145.5926  141.0367  143.2062 LP  0  0  0  0  0  0  0  0  0  0  0  0  # atno 17320 bound_to 7965
  144.7404  139.7465  143.7313 LP  0  0  0  0  0  0  0  0  0  0  0  0  # atno 17321 bound_to 7965
  139.5147  144.6951  151.5652 LP  0  0  0  0  0  0  0  0  0  0  0  0  # atno 17342 bound_to 10162
  140.6260  143.9167  150.6565 LP  0  0  0  0  0  0  0  0  0  0  0  0  # atno 17343 bound_to 10162
  156.8720  130.9527  151.3608 LP  0  0  0  0  0  0  0  0  0  0  0  0  # atno 17370 bound_to 10713
  157.6223  130.8664  149.9130 LP  0  0  0  0  0  0  0  0  0  0  0  0  # atno 17371 bound_to 10713
  139.8726  134.9404  156.3767 LP  0  0  0  0  0  0  0  0  0  0  0  0  # atno 17394 bound_to 11000
  140.9339  133.7560  156.0060 LP  0  0  0  0  0  0  0  0  0  0  0  0  # atno 17395 bound_to 11000

$$$$
