AV-unprocessed.smi:1375|AV-procd|sdf|5589|dock1
  -GOLD-   22720 5193D 1   1.00000     0.00000
 Structure written by MMmdl.
 36 37  0  0  0  0  0  0  0  0  1 V2000
  144.0089  136.7102  153.4495 C   0  0  0  0  0  0  0  0  0  0  0  0
  145.1191  137.6763  153.2151 C   0  0  0  0  0  0  0  0  0  0  0  0
  145.5052  138.5906  154.1087 N   0  0  0  0  0  0  0  0  0  0  0  0
  146.5672  139.3767  153.6504 C   0  0  0  0  0  0  0  0  0  0  0  0
  147.1346  140.4534  154.5246 C   0  0  0  0  0  0  0  0  0  0  0  0
  148.4505  141.0208  153.9668 C   0  0  0  0  0  0  0  0  0  0  0  0
  149.0525  141.9824  154.8828 N   0  0  0  0  0  0  0  0  0  0  0  0
  150.2080  141.8004  155.5442 C   0  0  0  0  0  0  0  0  0  0  0  0
  150.8903  140.7818  155.4487 O   0  0  0  0  0  0  0  0  0  0  0  0
  150.5780  142.8321  156.3238 N   0  0  0  0  0  0  0  0  0  0  0  0
  151.7727  142.9441  157.1639 C   0  0  0  0  0  0  0  0  0  0  0  0
  151.5029  142.4901  158.6149 C   0  0  0  0  0  0  0  0  0  0  0  0
  152.0363  143.6046  159.5166 C   0  0  0  0  0  0  0  0  0  0  0  0
  151.8919  144.8691  158.6766 C   0  0  0  0  0  0  0  0  0  0  0  0
  152.2270  144.4125  157.2566 C   0  0  0  0  0  0  0  0  0  0  0  0
  146.9848  139.0383  152.3874 C   0  0  0  0  0  0  0  0  0  0  0  0
  146.0565  137.7206  151.7269 S   0  0  0  0  0  0  0  0  0  0  0  0
  143.4607  136.9666  154.3566 H   0  0  0  0  0  0  0  0  0  0  0  0
  144.4096  135.7020  153.5557 H   0  0  0  0  0  0  0  0  0  0  0  0
  143.3168  136.7260  152.6075 H   0  0  0  0  0  0  0  0  0  0  0  0
  146.4059  141.2573  154.6357 H   0  0  0  0  0  0  0  0  0  0  0  0
  147.3033  140.0643  155.5296 H   0  0  0  0  0  0  0  0  0  0  0  0
  149.1663  140.2141  153.8073 H   0  0  0  0  0  0  0  0  0  0  0  0
  148.2844  141.4857  152.9935 H   0  0  0  0  0  0  0  0  0  0  0  0
  148.5597  142.8528  155.0199 H   0  0  0  0  0  0  0  0  0  0  0  0
  149.9668  143.6360  156.3236 H   0  0  0  0  0  0  0  0  0  0  0  0
  152.5836  142.3594  156.7258 H   0  0  0  0  0  0  0  0  0  0  0  0
  150.4318  142.3766  158.7894 H   0  0  0  0  0  0  0  0  0  0  0  0
  151.9676  141.5292  158.8383 H   0  0  0  0  0  0  0  0  0  0  0  0
  151.5041  143.6671  160.4662 H   0  0  0  0  0  0  0  0  0  0  0  0
  153.0903  143.4284  159.7358 H   0  0  0  0  0  0  0  0  0  0  0  0
  150.8605  145.2217  158.7164 H   0  0  0  0  0  0  0  0  0  0  0  0
  152.5357  145.6791  159.0205 H   0  0  0  0  0  0  0  0  0  0  0  0
  153.3069  144.4631  157.1112 H   0  0  0  0  0  0  0  0  0  0  0  0
  151.7736  145.0566  156.5014 H   0  0  0  0  0  0  0  0  0  0  0  0
  147.7812  139.4820  151.8085 H   0  0  0  0  0  0  0  0  0  0  0  0
  1  2  1  0  0  0  0
  1 18  1  0  0  0  0
  1 19  1  0  0  0  0
  1 20  1  0  0  0  0
  2 17  1  0  0  0  0
  2  3  2  0  0  0  0
  3  4  1  0  0  0  0
  4  5  1  0  0  0  0
  4 16  2  0  0  0  0
  5  6  1  0  0  0  0
  5 21  1  0  0  0  0
  5 22  1  0  0  0  0
  6  7  1  0  0  0  0
  6 23  1  0  0  0  0
  6 24  1  0  0  0  0
  7  8  1  0  0  0  0
  7 25  1  0  0  0  0
  8  9  2  0  0  0  0
  8 10  1  0  0  0  0
 10 11  1  0  0  0  0
 10 26  1  0  0  0  0
 11 15  1  0  0  0  0
 11 12  1  0  0  0  0
 11 27  1  0  0  0  0
 12 13  1  0  0  0  0
 12 28  1  0  0  0  0
 12 29  1  0  0  0  0
 13 14  1  0  0  0  0
 13 30  1  0  0  0  0
 13 31  1  0  0  0  0
 14 15  1  0  0  0  0
 14 32  1  0  0  0  0
 14 33  1  0  0  0  0
 15 34  1  0  0  0  0
 15 35  1  0  0  0  0
 16 17  1  0  0  0  0
 16 36  1  0  0  0  0
M  END
> <s_m_source_file>
AV-unprocessed.smi

> <i_m_source_file_index>
1375

> <i_lp_mmshare_version>
43012

> <i_f3d_flags>
0

> <s_epik_input>
W0NIM11jMW5jKFtjSF1zMSlbQ0gyXVtDSDJdW05IXUMoPU8pW05IXVtDSF0yW0NIMl1bQ0gyXVtDSDJdW0NIMl0y

> <s_epik_cmdline>
J2VwaWtfcHl0aG9uJywgJy1waCcsICc3LjAnLCAnLXRuJywgJzgnLCAnLW1hJywgJzIwMCcsICctbWV0YWxfYmluZGluZycsICctaW1hZScsICc8aW5maWxlLm1hZT4nLCAnLW9tYWUnLCAnPG91dGZpbGUubWFlPic=

> <r_epik_Ionization_Penalty>
0.00202185

> <r_epik_Ionization_Penalty_Charging>
0

> <r_epik_Ionization_Penalty_Neutral>
0.00202185

> <r_epik_State_Penalty>
0.00133629

> <r_epik_Charging_Adjusted_Penalty>
0.00133629

> <i_epik_Tot_Q>
0

> <i_epik_Tot_abs_Q>
0

> <r_epik_Metal_State_Penalty>
-0

> <b_epik_Metal_Only>
0

> <s_lp_Force_Field>
OPLS_2005

> <r_lp_Energy>
21.3593

> <b_lp_Chiralities_Consistent>
1

> <s_lp_Variant>
AV-unprocessed.smi:1375-1

> <Gold.Version>
5.8.1

> <Gold.Id.Protein>
6NUR|6NUR_protein|mol2

> <Gold.PLP.Fitness>
41.4044

> <Gold.PLP.PLP>
-32.1406

> <Gold.PLP.part.hbond>
-3.0000

> <Gold.PLP.part.metal>
0.0000

> <Gold.PLP.part.buried>
-0.9548

> <Gold.PLP.part.nonpolar>
-27.4380

> <Gold.PLP.part.repulsive>
0.4564

> <Gold.PLP.ligand.clash>
0.0000

> <Gold.PLP.ligand.torsion>
0.5055

> <Gold.PLP.Chemscore.Hbond>
2.4155

> <Gold.PLP.Chemscore.CHOScore>
1.0000

> <Gold.PLP.Chemscore.Metal>
0.0000

> <Gold.Chemscore.Hbonds>
donor molecule, donor type, donor heavy atom, donor atom, acceptor molecule, acceptor atom, score
      L1  H     7    25       P1  8028  0.83
      L1  H    10    26       P1  8028  1.00
      P1  H  7989  7998       L1     9  0.72
      L1  C    16    36       P1  7957  0.88

> <Gold.PLP.Chemscore.Internal.Correction>
0.0283

> <Gold.Rescore>
     Score         DG    S(hbond)    S(metal)    S(lipo)     H(rot)  DE(clash)    DE(int)     intcor
     18.42     -19.92       1.99        0.00      99.57       1.51       1.07       0.44       ----

> <Gold.Chemscore.Fitness>
18.4195

> <Gold.Chemscore.DG>
-19.9244

> <Gold.Chemscore.ZeroCoef>
-5.4800

> <Gold.Chemscore.Hbond>
1.9910

> <Gold.Chemscore.Metal>
0.0000

> <Gold.Chemscore.Lipo>
99.5701

> <Gold.Chemscore.Internal_Hbond>
0.0000

> <Gold.Chemscore.DEClash>
1.0659

> <Gold.Chemscore.DEInternal>
0.4390

> <Gold.Chemscore.Rot>
1.5060

> <Gold.Chemscore.Internal.Correction>
   9.000000E+99

> <Gold.Chemscore.Hbonds>
donor molecule, donor type, donor heavy atom, donor atom, acceptor molecule, acceptor atom, score
      L1  H     7    25       P1  8028  0.79
      L1  H    10    26       P1  8028  0.98
      P1  H  7989  7998       L1     9  0.28

> <Gold.Chemscore.Hbond.Weighted>
-6.6499

> <Gold.Chemscore.Metal.Weighted>
-0.0000

> <Gold.Chemscore.Lipo.Weighted>
-11.6497

> <Gold.Chemscore.Internal_Hbond.Weighted>
0.0000

> <Gold.Chemscore.DEClash.Weighted>
1.0659

> <Gold.Chemscore.DEInternal.Weighted>
0.4390

> <Gold.Chemscore.Rot.Weighted>
3.8553

> <Gold.Chemscore.Internal.Correction.Weighted>
   9.000000E+99

> <Gold.Protein.RotatedTorsions>
[ 6907 6896 6895 6894 ] final -169.71 input  -60.11 | X-H torsion
[ 7974 7965 7964 7962 ] final  156.49 input  175.53 | X-H torsion
[ 8008 7997 7996 7995 ] final -151.58 input   59.86 | X-H torsion
[ 10167 10162 10161 10158 ] final  -20.65 input  -65.29 | X-H torsion
[ 10718 10713 10712 10709 ] final   99.22 input   66.30 | X-H torsion
[ 10763 10752 10751 10750 ] final   32.16 input  -60.55 | X-H torsion
[ 11005 11000 10999 10996 ] final   79.68 input  -57.11 | X-H torsion

> <Gold.Protein.ActiveResidues>
 VAL166  LYS551  ARG553  GLY616  TRP617  ASP618  TYR619  PRO620  LYS621  CYS622 
 ASP623  PHE694  ASN695  SER759  ASP760  ASP761  ALA762  ILE779  LEU786  VAL792 
 PHE793  MET794  SER795  GLU796  ALA797  LYS798  CYS799  TRP800  GLU811  SER814 

> <Gold.Protein.RotatedAtoms>
  151.4959  133.3514  159.2860 H   0  0  0  0  0  0  0  0  0  0  0  0  # atno 6907 bound_to 6896
  150.8804  134.8196  159.7231 H   0  0  0  0  0  0  0  0  0  0  0  0  # atno 6908 bound_to 6896
  152.4759  134.4856  159.9731 H   0  0  0  0  0  0  0  0  0  0  0  0  # atno 6909 bound_to 6896
  144.7960  139.7211  143.6202 H   0  0  0  0  0  0  0  0  0  0  0  0  # atno 7974 bound_to 7965
  155.6417  140.0702  157.2616 H   0  0  0  0  0  0  0  0  0  0  0  0  # atno 8008 bound_to 7997
  154.4182  140.1749  156.1629 H   0  0  0  0  0  0  0  0  0  0  0  0  # atno 8009 bound_to 7997
  155.9850  140.3350  155.6702 H   0  0  0  0  0  0  0  0  0  0  0  0  # atno 8010 bound_to 7997
  140.7277  143.4702  151.0257 H   0  0  0  0  0  0  0  0  0  0  0  0  # atno 10167 bound_to 10162
  157.6880  131.0663  150.4916 H   0  0  0  0  0  0  0  0  0  0  0  0  # atno 10718 bound_to 10713
  153.0277  135.6420  154.1311 H   0  0  0  0  0  0  0  0  0  0  0  0  # atno 10763 bound_to 10752
  154.1038  135.2857  155.3247 H   0  0  0  0  0  0  0  0  0  0  0  0  # atno 10764 bound_to 10752
  154.6380  135.5469  153.7819 H   0  0  0  0  0  0  0  0  0  0  0  0  # atno 10765 bound_to 10752
  139.9163  134.7861  156.1810 H   0  0  0  0  0  0  0  0  0  0  0  0  # atno 11005 bound_to 11000
  146.2228  139.5667  142.9607 LP  0  0  0  0  0  0  0  0  0  0  0  0  # atno 17320 bound_to 7965
  145.5673  141.0398  143.2193 LP  0  0  0  0  0  0  0  0  0  0  0  0  # atno 17321 bound_to 7965
  139.8394  143.7584  152.3180 LP  0  0  0  0  0  0  0  0  0  0  0  0  # atno 17342 bound_to 10162
  139.7728  144.7471  151.0200 LP  0  0  0  0  0  0  0  0  0  0  0  0  # atno 17343 bound_to 10162
  156.5242  130.4169  149.6235 LP  0  0  0  0  0  0  0  0  0  0  0  0  # atno 17370 bound_to 10713
  156.3127  130.7238  151.2134 LP  0  0  0  0  0  0  0  0  0  0  0  0  # atno 17371 bound_to 10713
  141.0642  133.6827  156.2012 LP  0  0  0  0  0  0  0  0  0  0  0  0  # atno 17394 bound_to 11000
  140.6611  134.4966  157.5583 LP  0  0  0  0  0  0  0  0  0  0  0  0  # atno 17395 bound_to 11000

$$$$
