AV-unprocessed.smi:2482|AV-procd|sdf|9778|dock2
  -GOLD-   2272013423D 1   1.00000     0.00000
 Structure written by MMmdl.
 35 36  0  0  0  0  0  0  0  0  2 V2000
  151.9537  145.2805  159.9108 C   0  0  0  0  0  0  0  0  0  0  0  0
  152.2510  143.7928  159.9396 C   0  0  0  0  0  0  0  0  0  0  0  0
  152.7984  143.3275  161.0835 N   0  0  0  0  0  0  0  0  0  0  0  0
  153.0875  142.0125  161.1602 C   0  0  0  0  0  0  0  0  0  0  0  0
  152.8429  141.1030  160.1136 C   0  0  0  0  0  0  0  0  0  0  0  0
  152.2547  141.5842  158.9193 C   0  0  0  0  0  0  0  0  0  0  0  0
  151.9832  140.7612  157.7915 N   0  0  0  0  0  0  0  0  0  0  0  0
  152.5990  139.6307  157.3973 C   0  0  0  0  0  0  0  0  0  0  0  0
  153.5541  139.1196  157.9819 O   0  0  0  0  0  0  0  0  0  0  0  0
  152.0378  138.9732  156.1266 C   0  0  1  0  0  0  0  0  0  0  0  0
  151.5605  137.5212  156.3646 C   0  0  0  0  0  0  0  0  0  0  0  0
  150.9615  136.9595  155.1320 N   0  3  1  0  0  0  0  0  0  0  0  0
  150.5238  135.5573  155.2989 C   0  0  0  0  0  0  0  0  0  0  0  0
  149.8851  137.8363  154.6192 C   0  0  0  0  0  0  0  0  0  0  0  0
  150.4124  139.2666  154.4260 C   0  0  0  0  0  0  0  0  0  0  0  0
  150.9366  139.7500  155.6563 O   0  0  0  0  0  0  0  0  0  0  0  0
  151.9648  142.9658  158.8280 C   0  0  0  0  0  0  0  0  0  0  0  0
  151.2673  143.6301  157.3881 Cl  0  0  0  0  0  0  0  0  0  0  0  0
  150.8892  145.4505  159.7480 H   0  0  0  0  0  0  0  0  0  0  0  0
  152.5084  145.7635  159.1060 H   0  0  0  0  0  0  0  0  0  0  0  0
  152.2317  145.7634  160.8487 H   0  0  0  0  0  0  0  0  0  0  0  0
  153.5351  141.6746  162.0830 H   0  0  0  0  0  0  0  0  0  0  0  0
  153.1219  140.0691  160.2440 H   0  0  0  0  0  0  0  0  0  0  0  0
  151.1630  141.0198  157.2618 H   0  0  0  0  0  0  0  0  0  0  0  0
  152.8307  138.9836  155.3767 H   0  0  0  0  0  0  0  0  0  0  0  0
  152.3989  136.8927  156.6692 H   0  0  0  0  0  0  0  0  0  0  0  0
  150.8253  137.4900  157.1712 H   0  0  0  0  0  0  0  0  0  0  0  0
  149.7348  135.4790  156.0481 H   0  0  0  0  0  0  0  0  0  0  0  0
  151.3580  134.9297  155.6140 H   0  0  0  0  0  0  0  0  0  0  0  0
  150.1437  135.1582  154.3579 H   0  0  0  0  0  0  0  0  0  0  0  0
  149.5123  137.4468  153.6712 H   0  0  0  0  0  0  0  0  0  0  0  0
  149.0472  137.8379  155.3183 H   0  0  0  0  0  0  0  0  0  0  0  0
  151.1798  139.2992  153.6511 H   0  0  0  0  0  0  0  0  0  0  0  0
  149.6055  139.9244  154.1030 H   0  0  0  0  0  0  0  0  0  0  0  0
  151.6893  136.9540  154.4313 H   0  0  0  0  0  0  0  0  0  0  0  0
  1  2  1  0  0  0  0
  1 19  1  0  0  0  0
  1 20  1  0  0  0  0
  1 21  1  0  0  0  0
  2 17  1  0  0  0  0
  2  3  2  0  0  0  0
  3  4  1  0  0  0  0
  4  5  2  0  0  0  0
  4 22  1  0  0  0  0
  5  6  1  0  0  0  0
  5 23  1  0  0  0  0
  6  7  1  0  0  0  0
  6 17  2  0  0  0  0
  7  8  1  0  0  0  0
  7 24  1  0  0  0  0
  8  9  2  0  0  0  0
  8 10  1  0  0  0  0
 10 16  1  0  0  0  0
 10 11  1  0  0  0  0
 10 25  1  0  0  0  0
 11 12  1  0  0  0  0
 11 26  1  0  0  0  0
 11 27  1  0  0  0  0
 12 13  1  0  0  0  0
 12 14  1  0  0  0  0
 12 35  1  0  0  0  0
 13 28  1  0  0  0  0
 13 29  1  0  0  0  0
 13 30  1  0  0  0  0
 14 15  1  0  0  0  0
 14 31  1  0  0  0  0
 14 32  1  0  0  0  0
 15 16  1  0  0  0  0
 15 33  1  0  0  0  0
 15 34  1  0  0  0  0
 17 18  1  0  0  0  0
M  CHG  1  12   1
M  END
> <s_m_source_file>
AV-unprocessed.smi

> <i_m_source_file_index>
2482

> <i_lp_mmshare_version>
43012

> <i_f3d_flags>
0

> <s_epik_input>
W0NIM11jMW5bY0hdW2NIXWMoYzFDbClbTkhdQyg9TylbQ0BASF0yW0NIMl1OKFtDSDNdKVtDSDJdW0NIMl1PMg==

> <s_epik_cmdline>
J2VwaWtfcHl0aG9uJywgJy1waCcsICc3LjAnLCAnLXRuJywgJzgnLCAnLW1hJywgJzIwMCcsICctbWV0YWxfYmluZGluZycsICctaW1hZScsICc8aW5maWxlLm1hZT4nLCAnLW9tYWUnLCAnPG91dGZpbGUubWFlPic=

> <r_epik_Ionization_Penalty>
0.314226

> <r_epik_Ionization_Penalty_Charging>
0.314023

> <r_epik_Ionization_Penalty_Neutral>
0.00020299

> <r_epik_State_Penalty>
0.308208

> <r_epik_Charging_Adjusted_Penalty>
0.62223

> <i_epik_Tot_Q>
1

> <i_epik_Tot_abs_Q>
1

> <r_epik_Metal_State_Penalty>
0.314444

> <b_epik_Metal_Only>
0

> <s_lp_Force_Field>
OPLS_2005

> <r_lp_Energy>
22.3096

> <b_lp_Chiralities_Consistent>
1

> <s_lp_Variant>
AV-unprocessed.smi:2482-4

> <Gold.Version>
5.8.1

> <Gold.Id.Protein>
6NUR|6NUR_protein|mol2

> <Gold.PLP.Fitness>
35.7401

> <Gold.PLP.PLP>
-33.0781

> <Gold.PLP.part.hbond>
-1.0000

> <Gold.PLP.part.metal>
0.0000

> <Gold.PLP.part.buried>
-0.8817

> <Gold.PLP.part.nonpolar>
-31.2989

> <Gold.PLP.part.repulsive>
0.2388

> <Gold.PLP.ligand.clash>
0.0000

> <Gold.PLP.ligand.torsion>
0.1697

> <Gold.PLP.Chemscore.Hbond>
1.0000

> <Gold.PLP.Chemscore.CHOScore>
0.0000

> <Gold.PLP.Chemscore.Metal>
0.0000

> <Gold.Chemscore.Hbonds>
donor molecule, donor type, donor heavy atom, donor atom, acceptor molecule, acceptor atom, score
      P1  H  7997  8009       L1     9  1.00

> <Gold.PLP.Chemscore.Internal.Correction>
0.0014

> <Gold.Rescore>
     Score         DG    S(hbond)    S(metal)    S(lipo)     H(rot)  DE(clash)    DE(int)     intcor
     16.06     -17.47       0.76        0.00     102.64       1.00       0.23       1.19       ----

> <Gold.Chemscore.Fitness>
16.0550

> <Gold.Chemscore.DG>
-17.4676

> <Gold.Chemscore.ZeroCoef>
-5.4800

> <Gold.Chemscore.Hbond>
0.7601

> <Gold.Chemscore.Metal>
0.0000

> <Gold.Chemscore.Lipo>
102.6411

> <Gold.Chemscore.Internal_Hbond>
0.0000

> <Gold.Chemscore.DEClash>
0.2273

> <Gold.Chemscore.DEInternal>
1.1854

> <Gold.Chemscore.Rot>
1.0000

> <Gold.Chemscore.Internal.Correction>
   9.000000E+99

> <Gold.Chemscore.Hbonds>
donor molecule, donor type, donor heavy atom, donor atom, acceptor molecule, acceptor atom, score
      P1  H  7997  8009       L1     9  0.25

> <Gold.Chemscore.Hbond.Weighted>
-2.5386

> <Gold.Chemscore.Metal.Weighted>
-0.0000

> <Gold.Chemscore.Lipo.Weighted>
-12.0090

> <Gold.Chemscore.Internal_Hbond.Weighted>
0.0000

> <Gold.Chemscore.DEClash.Weighted>
0.2273

> <Gold.Chemscore.DEInternal.Weighted>
1.1854

> <Gold.Chemscore.Rot.Weighted>
2.5600

> <Gold.Chemscore.Internal.Correction.Weighted>
   9.000000E+99

> <Gold.Protein.RotatedTorsions>
[ 6907 6896 6895 6894 ] final -113.31 input  -60.11 | X-H torsion
[ 7974 7965 7964 7962 ] final -136.04 input  175.53 | X-H torsion
[ 8008 7997 7996 7995 ] final  133.30 input   59.86 | X-H torsion
[ 10167 10162 10161 10158 ] final   49.78 input  -65.29 | X-H torsion
[ 10718 10713 10712 10709 ] final  -62.71 input   66.30 | X-H torsion
[ 10763 10752 10751 10750 ] final  125.01 input  -60.55 | X-H torsion
[ 11005 11000 10999 10996 ] final  120.11 input  -57.11 | X-H torsion

> <Gold.Protein.ActiveResidues>
 VAL166  LYS551  ARG553  GLY616  TRP617  ASP618  TYR619  PRO620  LYS621  CYS622 
 ASP623  PHE694  ASN695  SER759  ASP760  ASP761  ALA762  ILE779  LEU786  VAL792 
 PHE793  MET794  SER795  GLU796  ALA797  LYS798  CYS799  TRP800  GLU811  SER814 

> <Gold.Protein.RotatedAtoms>
  150.7820  133.8962  159.3327 H   0  0  0  0  0  0  0  0  0  0  0  0  # atno 6907 bound_to 6896
  151.6823  135.0958  160.0228 H   0  0  0  0  0  0  0  0  0  0  0  0  # atno 6908 bound_to 6896
  152.3874  133.6592  159.6245 H   0  0  0  0  0  0  0  0  0  0  0  0  # atno 6909 bound_to 6896
  144.8962  140.6709  143.5114 H   0  0  0  0  0  0  0  0  0  0  0  0  # atno 7974 bound_to 7965
  156.2991  140.2525  156.3231 H   0  0  0  0  0  0  0  0  0  0  0  0  # atno 8008 bound_to 7997
  154.9216  140.0400  157.2020 H   0  0  0  0  0  0  0  0  0  0  0  0  # atno 8009 bound_to 7997
  154.8305  140.2875  155.5729 H   0  0  0  0  0  0  0  0  0  0  0  0  # atno 8010 bound_to 7997
  140.2793  144.3175  150.6268 H   0  0  0  0  0  0  0  0  0  0  0  0  # atno 10167 bound_to 10162
  156.0837  130.4212  150.1174 H   0  0  0  0  0  0  0  0  0  0  0  0  # atno 10718 bound_to 10713
  153.6706  135.3331  155.3152 H   0  0  0  0  0  0  0  0  0  0  0  0  # atno 10763 bound_to 10752
  154.8492  135.4385  154.1709 H   0  0  0  0  0  0  0  0  0  0  0  0  # atno 10764 bound_to 10752
  153.2700  135.6999  153.7567 H   0  0  0  0  0  0  0  0  0  0  0  0  # atno 10765 bound_to 10752
  139.9172  134.9633  156.7757 H   0  0  0  0  0  0  0  0  0  0  0  0  # atno 11005 bound_to 11000
  145.3696  139.1662  143.4339 LP  0  0  0  0  0  0  0  0  0  0  0  0  # atno 17320 bound_to 7965
  146.3082  140.3767  142.8679 LP  0  0  0  0  0  0  0  0  0  0  0  0  # atno 17321 bound_to 7965
  140.5825  143.2172  151.7402 LP  0  0  0  0  0  0  0  0  0  0  0  0  # atno 17342 bound_to 10162
  139.4967  144.4059  152.0132 LP  0  0  0  0  0  0  0  0  0  0  0  0  # atno 17343 bound_to 10162
  156.9200  130.9680  151.3550 LP  0  0  0  0  0  0  0  0  0  0  0  0  # atno 17370 bound_to 10713
  157.5964  130.8480  149.8735 LP  0  0  0  0  0  0  0  0  0  0  0  0  # atno 17371 bound_to 10713
  140.6584  133.9667  155.7792 LP  0  0  0  0  0  0  0  0  0  0  0  0  # atno 17394 bound_to 11000
  141.0660  134.0276  157.3593 LP  0  0  0  0  0  0  0  0  0  0  0  0  # atno 17395 bound_to 11000

$$$$
