AV-unprocessed.smi:561|AV-procd|sdf|2942|dock7
  -GOLD-   2262023443D 1   1.00000     0.00000
 Structure written by MMmdl.
 35 36  0  0  0  0  0  0  0  0  2 V2000
  146.2701  128.2982  152.8571 C   0  0  0  0  0  0  0  0  0  0  0  0
  145.9723  129.7883  152.6398 C   0  0  2  0  0  0  0  0  0  0  0  0
  145.4132  130.0456  151.2167 C   0  0  0  0  0  0  0  0  0  0  0  0
  145.0648  131.4373  150.9498 N   0  0  0  0  0  0  0  0  0  0  0  0
  143.8089  131.9402  150.6255 C   0  0  0  0  0  0  0  0  0  0  0  0
  143.9533  133.3005  150.4748 C   0  0  0  0  0  0  0  0  0  0  0  0
  145.2765  133.6615  150.7154 N   0  0  0  0  0  0  0  0  0  0  0  0
  145.8730  132.5087  150.9917 C   0  0  0  0  0  0  0  0  0  0  0  0
  147.2124  130.5477  152.8406 N   0  5  0  0  0  0  0  0  0  0  0  0
  148.3645  130.0545  153.3896 C   0  0  0  0  0  0  0  0  0  0  0  0
  148.9286  128.9995  153.0745 O   0  0  0  0  0  0  0  0  0  0  0  0
  149.0225  130.8216  154.4884 C   0  0  0  0  0  0  0  0  0  0  0  0
  148.4780  131.9156  154.9224 N   0  0  0  0  0  0  0  0  0  0  0  0
  149.0213  132.6507  155.9552 N   0  0  0  0  0  0  0  0  0  0  0  0
  148.1478  133.6930  156.4901 C   0  0  0  0  0  0  0  0  0  0  0  0
  150.2698  132.4749  156.4536 C   0  0  0  0  0  0  0  0  0  0  0  0
  150.7295  133.1240  157.3935 O   0  0  0  0  0  0  0  0  0  0  0  0
  151.1384  131.4221  155.7612 C   0  0  0  0  0  0  0  0  0  0  0  0
  150.2988  130.2979  155.1232 C   0  0  0  0  0  0  0  0  0  0  0  0
  145.3672  127.6986  152.7379 H   0  0  0  0  0  0  0  0  0  0  0  0
  146.6534  128.1157  153.8617 H   0  0  0  0  0  0  0  0  0  0  0  0
  147.0096  127.9299  152.1452 H   0  0  0  0  0  0  0  0  0  0  0  0
  145.2011  130.0658  153.3600 H   0  0  0  0  0  0  0  0  0  0  0  0
  146.1289  129.7175  150.4613 H   0  0  0  0  0  0  0  0  0  0  0  0
  144.5142  129.4474  151.0636 H   0  0  0  0  0  0  0  0  0  0  0  0
  142.9451  131.3004  150.5211 H   0  0  0  0  0  0  0  0  0  0  0  0
  143.2110  134.0416  150.2180 H   0  0  0  0  0  0  0  0  0  0  0  0
  146.9246  132.4397  151.2287 H   0  0  0  0  0  0  0  0  0  0  0  0
  148.6160  134.6736  156.3947 H   0  0  0  0  0  0  0  0  0  0  0  0
  147.9396  133.5143  157.5458 H   0  0  0  0  0  0  0  0  0  0  0  0
  147.1908  133.7334  155.9670 H   0  0  0  0  0  0  0  0  0  0  0  0
  151.7147  131.9318  154.9882 H   0  0  0  0  0  0  0  0  0  0  0  0
  151.8580  131.0049  156.4664 H   0  0  0  0  0  0  0  0  0  0  0  0
  150.0442  129.5498  155.8747 H   0  0  0  0  0  0  0  0  0  0  0  0
  150.9200  129.7927  154.3831 H   0  0  0  0  0  0  0  0  0  0  0  0
  1  2  1  0  0  0  0
  1 20  1  0  0  0  0
  1 21  1  0  0  0  0
  1 22  1  0  0  0  0
  2  3  1  0  0  0  0
  2  9  1  0  0  0  0
  2 23  1  0  0  0  0
  3  4  1  0  0  0  0
  3 24  1  0  0  0  0
  3 25  1  0  0  0  0
  4  8  1  0  0  0  0
  4  5  1  0  0  0  0
  5  6  2  0  0  0  0
  5 26  1  0  0  0  0
  6  7  1  0  0  0  0
  6 27  1  0  0  0  0
  7  8  2  0  0  0  0
  8 28  1  0  0  0  0
  9 10  1  0  0  0  0
 10 11  2  0  0  0  0
 10 12  1  0  0  0  0
 12 19  1  0  0  0  0
 12 13  2  0  0  0  0
 13 14  1  0  0  0  0
 14 15  1  0  0  0  0
 14 16  1  0  0  0  0
 15 29  1  0  0  0  0
 15 30  1  0  0  0  0
 15 31  1  0  0  0  0
 16 17  2  0  0  0  0
 16 18  1  0  0  0  0
 18 19  1  0  0  0  0
 18 32  1  0  0  0  0
 18 33  1  0  0  0  0
 19 34  1  0  0  0  0
 19 35  1  0  0  0  0
M  CHG  1   9  -1
M  END
> <s_m_source_file>
AV-unprocessed.smi

> <i_m_source_file_index>
561

> <i_lp_mmshare_version>
43012

> <i_f3d_flags>
0

> <s_epik_input>
W2NIXTFuW2NIXVtjSF1uMVtDSDJdW0NAQEhdKFtDSDNdKVtOSF1DKD1PKUMyPU5OKFtDSDNdKUMoPU8pW0NIMl1bQ0gyXTI=

> <s_epik_cmdline>
J2VwaWtfcHl0aG9uJywgJy1waCcsICc3LjAnLCAnLXRuJywgJzgnLCAnLW1hJywgJzIwMCcsICctbWV0YWxfYmluZGluZycsICctaW1hZScsICc8aW5maWxlLm1hZT4nLCAnLW9tYWUnLCAnPG91dGZpbGUubWFlPic=

> <r_lp_tautomer_probability>
1

> <r_epik_Ionization_Penalty>
6.06239

> <r_epik_Ionization_Penalty_Charging>
6.06239

> <r_epik_Ionization_Penalty_Neutral>
3.91387e-09

> <r_epik_State_Penalty>
5.76729

> <r_epik_Charging_Adjusted_Penalty>
11.8297

> <i_epik_Tot_Q>
-1

> <i_epik_Tot_abs_Q>
1

> <r_epik_Metal_State_Penalty>
2.02369

> <b_epik_Metal_Only>
1

> <s_epik_Chemistry_Notes>
This compound has an imine and may undergo hydrolysis.

> <s_lp_Force_Field>
OPLS_2005

> <r_lp_Energy>
24.7282

> <b_lp_Chiralities_Consistent>
1

> <s_lp_Variant>
AV-unprocessed.smi:561-7

> <Gold.Version>
5.8.1

> <Gold.Id.Protein>
6NUR|6NUR_protein|mol2

> <Gold.PLP.Fitness>
40.2839

> <Gold.PLP.PLP>
-29.5257

> <Gold.PLP.part.hbond>
-1.0000

> <Gold.PLP.part.metal>
0.0000

> <Gold.PLP.part.buried>
-5.5414

> <Gold.PLP.part.nonpolar>
-24.8794

> <Gold.PLP.part.repulsive>
0.9250

> <Gold.PLP.ligand.clash>
0.0000

> <Gold.PLP.ligand.torsion>
0.5854

> <Gold.PLP.Chemscore.Hbond>
0.9672

> <Gold.PLP.Chemscore.CHOScore>
3.0000

> <Gold.PLP.Chemscore.Metal>
0.0000

> <Gold.Chemscore.Hbonds>
donor molecule, donor type, donor heavy atom, donor atom, acceptor molecule, acceptor atom, score
      P1  H  6896  6908       L1    17  0.98
      L1  C     5    26       P1 10952  1.00
      L1  C     6    27       P1 10186  1.00
      L1  C     8    28       P1 10747  0.43

> <Gold.PLP.Chemscore.Internal.Correction>
0.0274

> <Gold.Rescore>
     Score         DG    S(hbond)    S(metal)    S(lipo)     H(rot)  DE(clash)    DE(int)     intcor
      9.06     -11.28       0.99        0.00      58.17       1.68       0.01       2.21       ----

> <Gold.Chemscore.Fitness>
9.0600

> <Gold.Chemscore.DG>
-11.2773

> <Gold.Chemscore.ZeroCoef>
-5.4800

> <Gold.Chemscore.Hbond>
0.9852

> <Gold.Chemscore.Metal>
0.0000

> <Gold.Chemscore.Lipo>
58.1749

> <Gold.Chemscore.Internal_Hbond>
0.0000

> <Gold.Chemscore.DEClash>
0.0111

> <Gold.Chemscore.DEInternal>
2.2062

> <Gold.Chemscore.Rot>
1.6796

> <Gold.Chemscore.Internal.Correction>
   9.000000E+99

> <Gold.Chemscore.Hbonds>
donor molecule, donor type, donor heavy atom, donor atom, acceptor molecule, acceptor atom, score
      P1  H  6896  6908       L1    17  0.93

> <Gold.Chemscore.Hbond.Weighted>
-3.2906

> <Gold.Chemscore.Metal.Weighted>
-0.0000

> <Gold.Chemscore.Lipo.Weighted>
-6.8065

> <Gold.Chemscore.Internal_Hbond.Weighted>
0.0000

> <Gold.Chemscore.DEClash.Weighted>
0.0111

> <Gold.Chemscore.DEInternal.Weighted>
2.2062

> <Gold.Chemscore.Rot.Weighted>
4.2997

> <Gold.Chemscore.Internal.Correction.Weighted>
   9.000000E+99

> <Gold.Protein.RotatedTorsions>
[ 6907 6896 6895 6894 ] final   89.39 input  -60.11 | X-H torsion
[ 7974 7965 7964 7962 ] final  -44.83 input  175.53 | X-H torsion
[ 8008 7997 7996 7995 ] final   22.14 input   59.86 | X-H torsion
[ 10167 10162 10161 10158 ] final -131.82 input  -65.29 | X-H torsion
[ 10718 10713 10712 10709 ] final  -79.88 input   66.30 | X-H torsion
[ 10763 10752 10751 10750 ] final  106.42 input  -60.55 | X-H torsion
[ 11005 11000 10999 10996 ] final   -8.81 input  -57.11 | X-H torsion

> <Gold.Protein.ActiveResidues>
 VAL166  LYS551  ARG553  GLY616  TRP617  ASP618  TYR619  PRO620  LYS621  CYS622 
 ASP623  PHE694  ASN695  SER759  ASP760  ASP761  ALA762  ILE779  LEU786  VAL792 
 PHE793  MET794  SER795  GLU796  ALA797  LYS798  CYS799  TRP800  GLU811  SER814 

> <Gold.Protein.RotatedAtoms>
  152.5435  134.1974  159.8698 H   0  0  0  0  0  0  0  0  0  0  0  0  # atno 6907 bound_to 6896
  151.1965  133.4629  159.2603 H   0  0  0  0  0  0  0  0  0  0  0  0  # atno 6908 bound_to 6896
  151.1031  134.9996  159.8514 H   0  0  0  0  0  0  0  0  0  0  0  0  # atno 6909 bound_to 6896
  145.9881  140.7210  142.9330 H   0  0  0  0  0  0  0  0  0  0  0  0  # atno 7974 bound_to 7965
  154.9612  140.3078  155.5030 H   0  0  0  0  0  0  0  0  0  0  0  0  # atno 8008 bound_to 7997
  156.2977  140.2301  156.4636 H   0  0  0  0  0  0  0  0  0  0  0  0  # atno 8009 bound_to 7997
  154.7963  140.0436  157.1228 H   0  0  0  0  0  0  0  0  0  0  0  0  # atno 8010 bound_to 7997
  139.9150  143.6449  152.2567 H   0  0  0  0  0  0  0  0  0  0  0  0  # atno 10167 bound_to 10162
  156.0082  130.4558  150.3716 H   0  0  0  0  0  0  0  0  0  0  0  0  # atno 10718 bound_to 10713
  153.3927  135.3877  155.1934 H   0  0  0  0  0  0  0  0  0  0  0  0  # atno 10763 bound_to 10752
  154.8721  135.3752  154.4717 H   0  0  0  0  0  0  0  0  0  0  0  0  # atno 10764 bound_to 10752
  153.5206  135.7087  153.5795 H   0  0  0  0  0  0  0  0  0  0  0  0  # atno 10765 bound_to 10752
  140.7275  133.8777  155.8867 H   0  0  0  0  0  0  0  0  0  0  0  0  # atno 11005 bound_to 11000
  144.6881  140.3023  143.7261 LP  0  0  0  0  0  0  0  0  0  0  0  0  # atno 17320 bound_to 7965
  145.7670  139.1844  143.2234 LP  0  0  0  0  0  0  0  0  0  0  0  0  # atno 17321 bound_to 7965
  139.6910  144.7647  151.1439 LP  0  0  0  0  0  0  0  0  0  0  0  0  # atno 17342 bound_to 10162
  140.7676  143.5589  150.9121 LP  0  0  0  0  0  0  0  0  0  0  0  0  # atno 17343 bound_to 10162
  157.1800  131.0390  151.2753 LP  0  0  0  0  0  0  0  0  0  0  0  0  # atno 17370 bound_to 10713
  157.4154  130.7408  149.6871 LP  0  0  0  0  0  0  0  0  0  0  0  0  # atno 17371 bound_to 10713
  140.9950  134.1227  157.4372 LP  0  0  0  0  0  0  0  0  0  0  0  0  # atno 17394 bound_to 11000
  139.8834  135.0052  156.6296 LP  0  0  0  0  0  0  0  0  0  0  0  0  # atno 17395 bound_to 11000

$$$$
