AV-unprocessed.smi:193|AV-procd|sdf|1506|dock2
  -GOLD-   2262019333D 1   1.00000     0.00000
 Structure written by MMmdl.
 62 66  0  0  0  0  0  0  0  0  2 V2000
  144.9023  138.1262  154.4008 C   0  0  0  0  0  0  0  0  0  0  0  0
  146.0654  137.1462  154.6177 C   0  0  2  0  0  0  0  0  0  0  0  0
  147.4065  137.7856  154.2067 C   0  0  0  0  0  0  0  0  0  0  0  0
  148.5238  137.2444  154.9793 N   0  0  0  0  0  0  0  0  0  0  0  0
  149.5520  138.1128  155.0722 C   0  0  0  0  0  0  0  0  0  0  0  0
  150.7918  137.6473  154.7856 N   0  0  0  0  0  0  0  0  0  0  0  0
  151.8453  138.4659  154.8712 C   0  0  0  0  0  0  0  0  0  0  0  0
  151.8754  139.7552  155.2175 N   0  0  0  0  0  0  0  0  0  0  0  0
  150.6266  140.2230  155.5052 C   0  0  0  0  0  0  0  0  0  0  0  0
  149.4179  139.4746  155.4605 C   0  0  0  0  0  0  0  0  0  0  0  0
  148.3441  140.2792  155.8216 N   0  0  0  0  0  0  0  0  0  0  0  0
  148.8877  141.4419  156.0600 C   0  0  0  0  0  0  0  0  0  0  0  0
  150.2529  141.4988  155.8893 N   0  0  0  0  0  0  0  0  0  0  0  0
  151.1063  142.6607  156.0848 C   0  0  0  0  0  0  0  0  0  0  0  0
  151.2568  143.0874  157.5659 C   0  0  0  0  0  0  0  0  0  0  0  0
  149.9659  143.4101  158.0549 O   0  0  0  0  0  0  0  0  0  0  0  0
  151.8179  141.9220  158.4051 C   0  0  0  0  0  0  0  0  0  0  0  0
  152.1485  142.3493  159.8462 C   0  0  0  0  0  0  0  0  0  0  0  0
  153.0453  143.4531  159.8320 O   0  0  0  0  0  0  0  0  0  0  0  0
  152.4858  144.6076  159.2179 C   0  0  0  0  0  0  0  0  0  0  0  0
  152.1688  144.3219  157.7394 C   0  0  0  0  0  0  0  0  0  0  0  0
  148.9713  135.8729  154.7485 C   0  0  0  0  0  0  0  0  0  0  0  0
  147.8482  134.8311  154.8625 C   0  0  0  0  0  0  0  0  0  0  0  0
  146.9451  134.9280  153.6909 N   0  3  1  0  0  0  0  0  0  0  0  0
  146.5522  133.6064  153.1483 C   0  0  2  0  0  0  0  0  0  0  0  0
  147.3708  133.1672  151.9546 C   0  0  0  0  0  0  0  0  0  0  0  0
  145.9464  133.6357  151.7553 C   0  0  2  0  0  0  0  0  0  0  0  0
  145.6697  134.9133  150.9832 C   0  0  0  0  0  0  0  0  0  0  0  0
  145.7680  135.8116  153.8951 C   0  0  0  0  0  0  0  0  0  0  0  0
  144.7962  138.3926  153.3486 H   0  0  0  0  0  0  0  0  0  0  0  0
  145.0536  139.0485  154.9626 H   0  0  0  0  0  0  0  0  0  0  0  0
  143.9578  137.6943  154.7327 H   0  0  0  0  0  0  0  0  0  0  0  0
  146.1027  136.9568  155.6919 H   0  0  0  0  0  0  0  0  0  0  0  0
  147.5856  137.6586  153.1380 H   0  0  0  0  0  0  0  0  0  0  0  0
  147.3553  138.8620  154.3825 H   0  0  0  0  0  0  0  0  0  0  0  0
  152.8009  138.0253  154.6275 H   0  0  0  0  0  0  0  0  0  0  0  0
  148.3047  142.2988  156.3654 H   0  0  0  0  0  0  0  0  0  0  0  0
  152.0839  142.4417  155.6525 H   0  0  0  0  0  0  0  0  0  0  0  0
  150.6953  143.4840  155.4990 H   0  0  0  0  0  0  0  0  0  0  0  0
  149.4630  143.7850  157.3481 H   0  0  0  0  0  0  0  0  0  0  0  0
  151.1192  141.0841  158.4135 H   0  0  0  0  0  0  0  0  0  0  0  0
  152.7320  141.5513  157.9393 H   0  0  0  0  0  0  0  0  0  0  0  0
  151.2438  142.6066  160.3989 H   0  0  0  0  0  0  0  0  0  0  0  0
  152.6191  141.5234  160.3797 H   0  0  0  0  0  0  0  0  0  0  0  0
  151.5920  144.9235  159.7576 H   0  0  0  0  0  0  0  0  0  0  0  0
  153.2031  145.4252  159.2919 H   0  0  0  0  0  0  0  0  0  0  0  0
  153.1081  144.1497  157.2123 H   0  0  0  0  0  0  0  0  0  0  0  0
  151.7200  145.2059  157.2846 H   0  0  0  0  0  0  0  0  0  0  0  0
  149.4482  135.7937  153.7707 H   0  0  0  0  0  0  0  0  0  0  0  0
  149.7399  135.6363  155.4862 H   0  0  0  0  0  0  0  0  0  0  0  0
  148.3187  133.8472  154.8781 H   0  0  0  0  0  0  0  0  0  0  0  0
  147.3024  134.9118  155.8035 H   0  0  0  0  0  0  0  0  0  0  0  0
  146.2307  132.8679  153.8806 H   0  0  0  0  0  0  0  0  0  0  0  0
  148.1719  133.8203  151.6122 H   0  0  0  0  0  0  0  0  0  0  0  0
  147.5627  132.1021  151.8412 H   0  0  0  0  0  0  0  0  0  0  0  0
  145.2165  132.8538  151.5543 H   0  0  0  0  0  0  0  0  0  0  0  0
  146.4565  135.6523  151.1372 H   0  0  0  0  0  0  0  0  0  0  0  0
  144.7179  135.3430  151.2955 H   0  0  0  0  0  0  0  0  0  0  0  0
  145.6128  134.6956  149.9165 H   0  0  0  0  0  0  0  0  0  0  0  0
  145.0037  135.2709  154.4556 H   0  0  0  0  0  0  0  0  0  0  0  0
  145.3380  136.0161  152.9145 H   0  0  0  0  0  0  0  0  0  0  0  0
  147.5002  135.3616  152.9668 H   0  0  0  0  0  0  0  0  0  0  0  0
  1  2  1  0  0  0  0
  1 30  1  0  0  0  0
  1 31  1  0  0  0  0
  1 32  1  0  0  0  0
  2 29  1  0  0  0  0
  2  3  1  0  0  0  0
  2 33  1  0  0  0  0
  3  4  1  0  0  0  0
  3 34  1  0  0  0  0
  3 35  1  0  0  0  0
  4  5  1  0  0  0  0
  4 22  1  0  0  0  0
  5 10  1  0  0  0  0
  5  6  2  0  0  0  0
  6  7  1  0  0  0  0
  7  8  2  0  0  0  0
  7 36  1  0  0  0  0
  8  9  1  0  0  0  0
  9 13  1  0  0  0  0
  9 10  2  0  0  0  0
 10 11  1  0  0  0  0
 11 12  2  0  0  0  0
 12 13  1  0  0  0  0
 12 37  1  0  0  0  0
 13 14  1  0  0  0  0
 14 15  1  0  0  0  0
 14 38  1  0  0  0  0
 14 39  1  0  0  0  0
 15 21  1  0  0  0  0
 15 16  1  0  0  0  0
 15 17  1  0  0  0  0
 16 40  1  0  0  0  0
 17 18  1  0  0  0  0
 17 41  1  0  0  0  0
 17 42  1  0  0  0  0
 18 19  1  0  0  0  0
 18 43  1  0  0  0  0
 18 44  1  0  0  0  0
 19 20  1  0  0  0  0
 20 21  1  0  0  0  0
 20 45  1  0  0  0  0
 20 46  1  0  0  0  0
 21 47  1  0  0  0  0
 21 48  1  0  0  0  0
 22 23  1  0  0  0  0
 22 49  1  0  0  0  0
 22 50  1  0  0  0  0
 23 24  1  0  0  0  0
 23 51  1  0  0  0  0
 23 52  1  0  0  0  0
 24 25  1  0  0  0  0
 24 29  1  0  0  0  0
 24 62  1  0  0  0  0
 25 27  1  0  0  0  0
 25 26  1  0  0  0  0
 25 53  1  0  0  0  0
 26 27  1  0  0  0  0
 26 54  1  0  0  0  0
 26 55  1  0  0  0  0
 27 28  1  0  0  0  0
 27 56  1  0  0  0  0
 28 57  1  0  0  0  0
 28 58  1  0  0  0  0
 28 59  1  0  0  0  0
 29 60  1  0  0  0  0
 29 61  1  0  0  0  0
M  CHG  1  24   1
M  END
> <s_m_source_file>
AV-unprocessed.smi

> <i_m_source_file_index>
193

> <i_lp_mmshare_version>
43012

> <i_f3d_flags>
0

> <s_epik_input>
W0NIM11bQ0BASF0xW0NIMl1bQ0BIXTFOKFtDSDJdMilbQ0gyXVtDSDJdTihbQ0gyXVtDQEhdMltDSDNdKWMobltjSF1uMyljKGMzNCluW2NIXW40W0NIMl1DNShbT0hdKVtDSDJdW0NIMl1PW0NIMl1bQ0gyXTU=

> <s_epik_cmdline>
J2VwaWtfcHl0aG9uJywgJy1waCcsICc3LjAnLCAnLXRuJywgJzgnLCAnLW1hJywgJzIwMCcsICctbWV0YWxfYmluZGluZycsICctaW1hZScsICc8aW5maWxlLm1hZT4nLCAnLW9tYWUnLCAnPG91dGZpbGUubWFlPic=

> <r_lp_tautomer_probability>
1

> <r_epik_Ionization_Penalty>
0.0540825

> <r_epik_Ionization_Penalty_Charging>
0.0538476

> <r_epik_Ionization_Penalty_Neutral>
0.000234891

> <r_epik_State_Penalty>
0.0200719

> <r_epik_Charging_Adjusted_Penalty>
0.0739194

> <i_epik_Tot_Q>
1

> <i_epik_Tot_abs_Q>
1

> <r_epik_Metal_State_Penalty>
0.0199414

> <b_epik_Metal_Only>
0

> <s_lp_Force_Field>
OPLS_2005

> <r_lp_Energy>
59.2238

> <b_lp_Chiralities_Consistent>
1

> <s_lp_Variant>
AV-unprocessed.smi:193-11

> <Gold.Version>
5.8.1

> <Gold.Id.Protein>
6NUR|6NUR_protein|mol2

> <Gold.PLP.Fitness>
52.8789

> <Gold.PLP.PLP>
-40.7763

> <Gold.PLP.part.hbond>
-3.0738

> <Gold.PLP.part.metal>
0.0000

> <Gold.PLP.part.buried>
-2.4782

> <Gold.PLP.part.nonpolar>
-35.6055

> <Gold.PLP.part.repulsive>
0.3468

> <Gold.PLP.ligand.clash>
0.0000

> <Gold.PLP.ligand.torsion>
0.9354

> <Gold.PLP.Chemscore.Hbond>
3.4320

> <Gold.PLP.Chemscore.CHOScore>
0.6865

> <Gold.PLP.Chemscore.Metal>
0.0000

> <Gold.Chemscore.Hbonds>
donor molecule, donor type, donor heavy atom, donor atom, acceptor molecule, acceptor atom, score
      L1  H    16    40       P1  8028  1.00
      L1  H    24    62       P1  7948  2.00
      P1  H  7989  7998       L1     8  0.18
      L1  C    12    37       P1  8028  0.77

> <Gold.PLP.Chemscore.Internal.Correction>
1.6178

> <Gold.Rescore>
     Score         DG    S(hbond)    S(metal)    S(lipo)     H(rot)  DE(clash)    DE(int)     intcor
     12.70     -15.08       1.02        0.00     101.02       2.20       0.71       1.67       ----

> <Gold.Chemscore.Fitness>
12.6952

> <Gold.Chemscore.DG>
-15.0783

> <Gold.Chemscore.ZeroCoef>
-5.4800

> <Gold.Chemscore.Hbond>
1.0228

> <Gold.Chemscore.Metal>
0.0000

> <Gold.Chemscore.Lipo>
101.0160

> <Gold.Chemscore.Internal_Hbond>
0.0000

> <Gold.Chemscore.DEClash>
0.7116

> <Gold.Chemscore.DEInternal>
1.6715

> <Gold.Chemscore.Rot>
2.2018

> <Gold.Chemscore.Internal.Correction>
   9.000000E+99

> <Gold.Chemscore.Hbonds>
donor molecule, donor type, donor heavy atom, donor atom, acceptor molecule, acceptor atom, score
      L1  H    16    40       P1  8028  0.53
      L1  H    24    62       P1  7948  0.95

> <Gold.Chemscore.Hbond.Weighted>
-3.4160

> <Gold.Chemscore.Metal.Weighted>
-0.0000

> <Gold.Chemscore.Lipo.Weighted>
-11.8189

> <Gold.Chemscore.Internal_Hbond.Weighted>
0.0000

> <Gold.Chemscore.DEClash.Weighted>
0.7116

> <Gold.Chemscore.DEInternal.Weighted>
1.6715

> <Gold.Chemscore.Rot.Weighted>
5.6366

> <Gold.Chemscore.Internal.Correction.Weighted>
   9.000000E+99

> <Gold.Protein.RotatedTorsions>
[ 6907 6896 6895 6894 ] final -116.62 input  -60.11 | X-H torsion
[ 7974 7965 7964 7962 ] final  113.88 input  175.53 | X-H torsion
[ 8008 7997 7996 7995 ] final -122.41 input   59.86 | X-H torsion
[ 10167 10162 10161 10158 ] final    7.30 input  -65.29 | X-H torsion
[ 10718 10713 10712 10709 ] final   95.07 input   66.30 | X-H torsion
[ 10763 10752 10751 10750 ] final -166.16 input  -60.55 | X-H torsion
[ 11005 11000 10999 10996 ] final   68.76 input  -57.11 | X-H torsion

> <Gold.Protein.ActiveResidues>
 VAL166  LYS551  ARG553  GLY616  TRP617  ASP618  TYR619  PRO620  LYS621  CYS622 
 ASP623  PHE694  ASN695  SER759  ASP760  ASP761  ALA762  ILE779  LEU786  VAL792 
 PHE793  MET794  SER795  GLU796  ALA797  LYS798  CYS799  TRP800  GLU811  SER814 

> <Gold.Protein.RotatedAtoms>
  150.8071  133.8491  159.3200 H   0  0  0  0  0  0  0  0  0  0  0  0  # atno 6907 bound_to 6896
  151.6287  135.1023  160.0126 H   0  0  0  0  0  0  0  0  0  0  0  0  # atno 6908 bound_to 6896
  152.4162  133.7001  159.6476 H   0  0  0  0  0  0  0  0  0  0  0  0  # atno 6909 bound_to 6896
  145.2113  139.2905  143.4266 H   0  0  0  0  0  0  0  0  0  0  0  0  # atno 7974 bound_to 7965
  155.1638  140.0406  157.2848 H   0  0  0  0  0  0  0  0  0  0  0  0  # atno 8008 bound_to 7997
  154.6317  140.2526  155.7398 H   0  0  0  0  0  0  0  0  0  0  0  0  # atno 8009 bound_to 7997
  156.2488  140.2874  156.0672 H   0  0  0  0  0  0  0  0  0  0  0  0  # atno 8010 bound_to 7997
  140.6379  143.7842  150.7386 H   0  0  0  0  0  0  0  0  0  0  0  0  # atno 10167 bound_to 10162
  157.6942  131.0533  150.4283 H   0  0  0  0  0  0  0  0  0  0  0  0  # atno 10718 bound_to 10713
  154.6861  135.2962  154.9545 H   0  0  0  0  0  0  0  0  0  0  0  0  # atno 10763 bound_to 10752
  154.0524  135.6642  153.4806 H   0  0  0  0  0  0  0  0  0  0  0  0  # atno 10764 bound_to 10752
  153.0580  135.5133  154.7929 H   0  0  0  0  0  0  0  0  0  0  0  0  # atno 10765 bound_to 10752
  139.9693  134.6928  156.0480 H   0  0  0  0  0  0  0  0  0  0  0  0  # atno 11005 bound_to 11000
  146.3397  140.2390  142.8595 LP  0  0  0  0  0  0  0  0  0  0  0  0  # atno 17320 bound_to 7965
  144.9853  140.8497  143.5372 LP  0  0  0  0  0  0  0  0  0  0  0  0  # atno 17321 bound_to 7965
  140.1467  143.4393  152.2158 LP  0  0  0  0  0  0  0  0  0  0  0  0  # atno 17342 bound_to 10162
  139.5589  144.7392  151.4212 LP  0  0  0  0  0  0  0  0  0  0  0  0  # atno 17343 bound_to 10162
  156.4651  130.4040  149.6552 LP  0  0  0  0  0  0  0  0  0  0  0  0  # atno 17370 bound_to 10713
  156.3653  130.7502  151.2479 LP  0  0  0  0  0  0  0  0  0  0  0  0  # atno 17371 bound_to 10713
  141.1373  133.6572  156.3629 LP  0  0  0  0  0  0  0  0  0  0  0  0  # atno 17394 bound_to 11000
  140.5328  134.6196  157.5355 LP  0  0  0  0  0  0  0  0  0  0  0  0  # atno 17395 bound_to 11000

$$$$
