AV-unprocessed.smi:1567|AV-procd|sdf|6307|dock9
  -GOLD-   22720 6503D 1   1.00000     0.00000
 Structure written by MMmdl.
 42 44  0  0  0  0  0  0  0  0  1 V2000
  151.6148  137.0628  153.6799 O   0  0  0  0  0  0  0  0  0  0  0  0
  151.6539  137.5301  155.0105 C   0  0  0  0  0  0  0  0  0  0  0  0
  152.6865  138.6605  155.1332 C   0  0  0  0  0  0  0  0  0  0  0  0
  152.2293  139.8327  156.0209 C   0  0  0  0  0  0  0  0  0  0  0  0
  150.8900  140.3989  155.6352 C   0  0  0  0  0  0  0  0  0  0  0  0
  150.3435  140.1301  154.4482 N   0  0  0  0  0  0  0  0  0  0  0  0
  149.1437  140.8103  154.4989 C   0  0  0  0  0  0  0  0  0  0  0  0
  148.1159  140.9316  153.5364 C   0  0  0  0  0  0  0  0  0  0  0  0
  146.9606  141.6898  153.8179 C   0  0  0  0  0  0  0  0  0  0  0  0
  146.8166  142.3346  155.0632 C   0  0  0  0  0  0  0  0  0  0  0  0
  147.8286  142.2250  156.0362 C   0  0  0  0  0  0  0  0  0  0  0  0
  148.9810  141.4681  155.7499 C   0  0  0  0  0  0  0  0  0  0  0  0
  150.1340  141.1624  156.4682 N   0  0  0  0  0  0  0  0  0  0  0  0
  150.4223  141.5861  157.8329 C   0  0  0  0  0  0  0  0  0  0  0  0
  151.6016  142.5739  157.9204 C   0  0  1  0  0  0  0  0  0  0  0  0
  151.2344  143.8170  157.3519 O   0  0  0  0  0  0  0  0  0  0  0  0
  152.0969  142.7143  159.3529 C   0  0  0  0  0  0  0  0  0  0  0  0
  152.9805  141.7562  159.8986 C   0  0  0  0  0  0  0  0  0  0  0  0
  153.4465  141.8887  161.2207 C   0  0  0  0  0  0  0  0  0  0  0  0
  154.2919  140.9650  161.7355 F   0  0  0  0  0  0  0  0  0  0  0  0
  153.0345  142.9816  162.0066 C   0  0  0  0  0  0  0  0  0  0  0  0
  152.1594  143.9436  161.4674 C   0  0  0  0  0  0  0  0  0  0  0  0
  151.6934  143.8141  160.1442 C   0  0  0  0  0  0  0  0  0  0  0  0
  150.8594  144.7547  159.6387 F   0  0  0  0  0  0  0  0  0  0  0  0
  150.8294  137.3902  153.2685 H   0  0  0  0  0  0  0  0  0  0  0  0
  150.6606  137.8868  155.2821 H   0  0  0  0  0  0  0  0  0  0  0  0
  151.9006  136.6974  155.6699 H   0  0  0  0  0  0  0  0  0  0  0  0
  153.6243  138.2588  155.5198 H   0  0  0  0  0  0  0  0  0  0  0  0
  152.9123  139.0433  154.1372 H   0  0  0  0  0  0  0  0  0  0  0  0
  152.1638  139.4962  157.0560 H   0  0  0  0  0  0  0  0  0  0  0  0
  152.9974  140.6038  156.0051 H   0  0  0  0  0  0  0  0  0  0  0  0
  148.2173  140.4409  152.5798 H   0  0  0  0  0  0  0  0  0  0  0  0
  146.1814  141.7768  153.0751 H   0  0  0  0  0  0  0  0  0  0  0  0
  145.9290  142.9141  155.2713 H   0  0  0  0  0  0  0  0  0  0  0  0
  147.7212  142.7204  156.9896 H   0  0  0  0  0  0  0  0  0  0  0  0
  149.5238  142.0422  158.2500 H   0  0  0  0  0  0  0  0  0  0  0  0
  150.6105  140.7034  158.4440 H   0  0  0  0  0  0  0  0  0  0  0  0
  152.4206  142.1975  157.3116 H   0  0  0  0  0  0  0  0  0  0  0  0
  152.0116  144.2339  157.0126 H   0  0  0  0  0  0  0  0  0  0  0  0
  153.3074  140.9162  159.3031 H   0  0  0  0  0  0  0  0  0  0  0  0
  153.3917  143.0836  163.0207 H   0  0  0  0  0  0  0  0  0  0  0  0
  151.8467  144.7841  162.0692 H   0  0  0  0  0  0  0  0  0  0  0  0
  1  2  1  0  0  0  0
  1 25  1  0  0  0  0
  2  3  1  0  0  0  0
  2 26  1  0  0  0  0
  2 27  1  0  0  0  0
  3  4  1  0  0  0  0
  3 28  1  0  0  0  0
  3 29  1  0  0  0  0
  4  5  1  0  0  0  0
  4 30  1  0  0  0  0
  4 31  1  0  0  0  0
  5 13  1  0  0  0  0
  5  6  2  0  0  0  0
  6  7  1  0  0  0  0
  7 12  2  0  0  0  0
  7  8  1  0  0  0  0
  8  9  2  0  0  0  0
  8 32  1  0  0  0  0
  9 10  1  0  0  0  0
  9 33  1  0  0  0  0
 10 11  2  0  0  0  0
 10 34  1  0  0  0  0
 11 12  1  0  0  0  0
 11 35  1  0  0  0  0
 12 13  1  0  0  0  0
 13 14  1  0  0  0  0
 14 15  1  0  0  0  0
 14 36  1  0  0  0  0
 14 37  1  0  0  0  0
 15 16  1  0  0  0  0
 15 17  1  0  0  0  0
 15 38  1  0  0  0  0
 16 39  1  0  0  0  0
 17 23  1  0  0  0  0
 17 18  2  0  0  0  0
 18 19  1  0  0  0  0
 18 40  1  0  0  0  0
 19 20  1  0  0  0  0
 19 21  2  0  0  0  0
 21 22  1  0  0  0  0
 21 41  1  0  0  0  0
 22 23  2  0  0  0  0
 22 42  1  0  0  0  0
 23 24  1  0  0  0  0
M  END
> <s_m_source_file>
AV-unprocessed.smi

> <i_m_source_file_index>
1567

> <i_lp_mmshare_version>
43012

> <i_f3d_flags>
0

> <s_epik_input>
W09IXVtDSDJdW0NIMl1bQ0gyXWMobjEpbihjKGMxMilbY0hdW2NIXVtjSF1bY0hdMilbQ0gyXVtDQEhdKFtPSF0pYzNbY0hdYyhGKVtjSF1bY0hdYzNG

> <s_epik_cmdline>
J2VwaWtfcHl0aG9uJywgJy1waCcsICc3LjAnLCAnLXRuJywgJzgnLCAnLW1hJywgJzIwMCcsICctbWV0YWxfYmluZGluZycsICctaW1hZScsICc8aW5maWxlLm1hZT4nLCAnLW9tYWUnLCAnPG91dGZpbGUubWFlPic=

> <r_epik_Ionization_Penalty>
0.182562

> <r_epik_Ionization_Penalty_Charging>
0

> <r_epik_Ionization_Penalty_Neutral>
0.182562

> <r_epik_State_Penalty>
0.172086

> <r_epik_Charging_Adjusted_Penalty>
0.172086

> <i_epik_Tot_Q>
0

> <i_epik_Tot_abs_Q>
0

> <r_epik_Metal_State_Penalty>
0.000199649

> <b_epik_Metal_Only>
0

> <s_lp_Force_Field>
OPLS_2005

> <r_lp_Energy>
10.1612

> <b_lp_Chiralities_Consistent>
1

> <s_lp_Variant>
AV-unprocessed.smi:1567-2

> <Gold.Version>
5.8.1

> <Gold.Id.Protein>
6NUR|6NUR_protein|mol2

> <Gold.PLP.Fitness>
62.6163

> <Gold.PLP.PLP>
-59.4435

> <Gold.PLP.part.hbond>
-4.0000

> <Gold.PLP.part.metal>
0.0000

> <Gold.PLP.part.buried>
-0.9512

> <Gold.PLP.part.nonpolar>
-54.0901

> <Gold.PLP.part.repulsive>
0.0934

> <Gold.PLP.ligand.clash>
0.0071

> <Gold.PLP.ligand.torsion>
1.3019

> <Gold.PLP.Chemscore.Hbond>
1.9000

> <Gold.PLP.Chemscore.CHOScore>
0.0000

> <Gold.PLP.Chemscore.Metal>
0.0000

> <Gold.Chemscore.Hbonds>
donor molecule, donor type, donor heavy atom, donor atom, acceptor molecule, acceptor atom, score
      P1  H  7989  7998       L1     6  0.80
      P1  H 10752 10764       L1     1  0.85

> <Gold.PLP.Chemscore.Internal.Correction>
0.0838

> <Gold.Rescore>
     Score         DG    S(hbond)    S(metal)    S(lipo)     H(rot)  DE(clash)    DE(int)     intcor
     11.88     -15.86       1.03        0.00     129.98       3.23       0.74       3.24       ----

> <Gold.Chemscore.Fitness>
11.8789

> <Gold.Chemscore.DG>
-15.8571

> <Gold.Chemscore.ZeroCoef>
-5.4800

> <Gold.Chemscore.Hbond>
1.0278

> <Gold.Chemscore.Metal>
0.0000

> <Gold.Chemscore.Lipo>
129.9826

> <Gold.Chemscore.Internal_Hbond>
0.0000

> <Gold.Chemscore.DEClash>
0.7402

> <Gold.Chemscore.DEInternal>
3.2380

> <Gold.Chemscore.Rot>
3.2281

> <Gold.Chemscore.Internal.Correction>
   9.000000E+99

> <Gold.Chemscore.Hbonds>
donor molecule, donor type, donor heavy atom, donor atom, acceptor molecule, acceptor atom, score
      P1  H  7989  7998       L1     6  0.11
      P1  H 10752 10764       L1     1  0.14

> <Gold.Chemscore.Hbond.Weighted>
-3.4330

> <Gold.Chemscore.Metal.Weighted>
-0.0000

> <Gold.Chemscore.Lipo.Weighted>
-15.2080

> <Gold.Chemscore.Internal_Hbond.Weighted>
0.0000

> <Gold.Chemscore.DEClash.Weighted>
0.7402

> <Gold.Chemscore.DEInternal.Weighted>
3.2380

> <Gold.Chemscore.Rot.Weighted>
8.2639

> <Gold.Chemscore.Internal.Correction.Weighted>
   9.000000E+99

> <Gold.Protein.RotatedTorsions>
[ 6907 6896 6895 6894 ] final -106.61 input  -60.11 | X-H torsion
[ 7974 7965 7964 7962 ] final   27.86 input  175.53 | X-H torsion
[ 8008 7997 7996 7995 ] final  105.99 input   59.86 | X-H torsion
[ 10167 10162 10161 10158 ] final  103.85 input  -65.29 | X-H torsion
[ 10718 10713 10712 10709 ] final   51.16 input   66.30 | X-H torsion
[ 10763 10752 10751 10750 ] final -106.25 input  -60.55 | X-H torsion
[ 11005 11000 10999 10996 ] final -171.82 input  -57.11 | X-H torsion

> <Gold.Protein.ActiveResidues>
 VAL166  LYS551  ARG553  GLY616  TRP617  ASP618  TYR619  PRO620  LYS621  CYS622 
 ASP623  PHE694  ASN695  SER759  ASP760  ASP761  ALA762  ILE779  LEU786  VAL792 
 PHE793  MET794  SER795  GLU796  ALA797  LYS798  CYS799  TRP800  GLU811  SER814 

> <Gold.Protein.RotatedAtoms>
  150.7398  133.9951  159.3619 H   0  0  0  0  0  0  0  0  0  0  0  0  # atno 6907 bound_to 6896
  151.7901  135.0736  160.0395 H   0  0  0  0  0  0  0  0  0  0  0  0  # atno 6908 bound_to 6896
  152.3214  133.5821  159.5783 H   0  0  0  0  0  0  0  0  0  0  0  0  # atno 6909 bound_to 6896
  146.1761  139.7134  142.8933 H   0  0  0  0  0  0  0  0  0  0  0  0  # atno 7974 bound_to 7965
  156.1706  140.3121  155.8966 H   0  0  0  0  0  0  0  0  0  0  0  0  # atno 8008 bound_to 7997
  155.3595  140.0475  157.3063 H   0  0  0  0  0  0  0  0  0  0  0  0  # atno 8009 bound_to 7997
  154.5237  140.2207  155.8940 H   0  0  0  0  0  0  0  0  0  0  0  0  # atno 8010 bound_to 7997
  139.7227  144.7054  151.0846 H   0  0  0  0  0  0  0  0  0  0  0  0  # atno 10167 bound_to 10162
  157.4954  130.8403  149.8253 H   0  0  0  0  0  0  0  0  0  0  0  0  # atno 10718 bound_to 10713
  154.8000  135.4719  154.0252 H   0  0  0  0  0  0  0  0  0  0  0  0  # atno 10763 bound_to 10752
  153.1765  135.6833  153.8543 H   0  0  0  0  0  0  0  0  0  0  0  0  # atno 10764 bound_to 10752
  153.8107  135.3217  155.3378 H   0  0  0  0  0  0  0  0  0  0  0  0  # atno 10765 bound_to 10752
  140.5039  134.5867  157.4997 H   0  0  0  0  0  0  0  0  0  0  0  0  # atno 11005 bound_to 11000
  145.4207  141.0406  143.2965 LP  0  0  0  0  0  0  0  0  0  0  0  0  # atno 17320 bound_to 7965
  144.8238  139.5745  143.6974 LP  0  0  0  0  0  0  0  0  0  0  0  0  # atno 17321 bound_to 7965
  140.7757  143.5144  150.9612 LP  0  0  0  0  0  0  0  0  0  0  0  0  # atno 17342 bound_to 10162
  139.8832  143.7046  152.3154 LP  0  0  0  0  0  0  0  0  0  0  0  0  # atno 17343 bound_to 10162
  156.0198  130.3800  150.1998 LP  0  0  0  0  0  0  0  0  0  0  0  0  # atno 17370 bound_to 10713
  157.0187  130.9973  151.3345 LP  0  0  0  0  0  0  0  0  0  0  0  0  # atno 17371 bound_to 10713
  139.9697  134.7313  156.0066 LP  0  0  0  0  0  0  0  0  0  0  0  0  # atno 17394 bound_to 11000
  141.1421  133.6563  156.3760 LP  0  0  0  0  0  0  0  0  0  0  0  0  # atno 17395 bound_to 11000

$$$$
