AV-unprocessed.smi:1906|AV-procd|sdf|7727|dock6
  -GOLD-   22720 9473D 1   1.00000     0.00000
 Structure written by MMmdl.
 35 37  0  0  0  0  0  0  0  0  1 V2000
  152.3526  139.1326  155.8066 C   0  0  0  0  0  0  0  0  0  0  0  0
  151.0219  139.5959  155.3045 C   0  0  0  0  0  0  0  0  0  0  0  0
  150.2351  138.8200  154.5582 N   0  0  0  0  0  0  0  0  0  0  0  0
  149.1371  139.6281  154.3337 C   0  0  0  0  0  0  0  0  0  0  0  0
  147.9482  139.3843  153.6092 C   0  0  0  0  0  0  0  0  0  0  0  0
  146.9510  140.3777  153.5184 C   0  0  0  0  0  0  0  0  0  0  0  0
  147.1275  141.6264  154.1489 C   0  0  0  0  0  0  0  0  0  0  0  0
  148.3042  141.8900  154.8761 C   0  0  0  0  0  0  0  0  0  0  0  0
  149.2960  140.8949  154.9635 C   0  0  0  0  0  0  0  0  0  0  0  0
  150.5390  140.8320  155.5840 N   0  0  0  0  0  0  0  0  0  0  0  0
  151.1580  141.8914  156.3685 C   0  0  0  0  0  0  0  0  0  0  0  0
  151.6104  141.4102  157.7613 C   0  0  2  0  0  0  0  0  0  0  0  0
  150.7023  140.4464  158.2581 O   0  0  0  0  0  0  0  0  0  0  0  0
  151.7874  142.5790  158.7172 C   0  0  0  0  0  0  0  0  0  0  0  0
  151.5417  143.9024  158.2893 C   0  0  0  0  0  0  0  0  0  0  0  0
  151.7214  144.9804  159.1780 C   0  0  0  0  0  0  0  0  0  0  0  0
  152.1482  144.7417  160.4985 C   0  0  0  0  0  0  0  0  0  0  0  0
  152.3964  143.4243  160.9295 C   0  0  0  0  0  0  0  0  0  0  0  0
  152.8089  143.1933  162.1983 F   0  0  0  0  0  0  0  0  0  0  0  0
  152.2179  142.3464  160.0410 C   0  0  0  0  0  0  0  0  0  0  0  0
  152.5882  138.1444  155.4101 H   0  0  0  0  0  0  0  0  0  0  0  0
  152.3439  139.0726  156.8950 H   0  0  0  0  0  0  0  0  0  0  0  0
  153.1382  139.8210  155.4956 H   0  0  0  0  0  0  0  0  0  0  0  0
  147.8028  138.4314  153.1226 H   0  0  0  0  0  0  0  0  0  0  0  0
  146.0461  140.1805  152.9625 H   0  0  0  0  0  0  0  0  0  0  0  0
  146.3592  142.3820  154.0742 H   0  0  0  0  0  0  0  0  0  0  0  0
  148.4430  142.8452  155.3605 H   0  0  0  0  0  0  0  0  0  0  0  0
  152.0191  142.2577  155.8081 H   0  0  0  0  0  0  0  0  0  0  0  0
  150.4730  142.7351  156.4542 H   0  0  0  0  0  0  0  0  0  0  0  0
  152.5720  140.9049  157.6625 H   0  0  0  0  0  0  0  0  0  0  0  0
  149.9998  140.8974  158.7011 H   0  0  0  0  0  0  0  0  0  0  0  0
  151.2182  144.0946  157.2764 H   0  0  0  0  0  0  0  0  0  0  0  0
  151.5334  145.9909  158.8458 H   0  0  0  0  0  0  0  0  0  0  0  0
  152.2867  145.5686  161.1794 H   0  0  0  0  0  0  0  0  0  0  0  0
  152.4151  141.3399  160.3801 H   0  0  0  0  0  0  0  0  0  0  0  0
  1  2  1  0  0  0  0
  1 21  1  0  0  0  0
  1 22  1  0  0  0  0
  1 23  1  0  0  0  0
  2 10  1  0  0  0  0
  2  3  2  0  0  0  0
  3  4  1  0  0  0  0
  4  9  2  0  0  0  0
  4  5  1  0  0  0  0
  5  6  2  0  0  0  0
  5 24  1  0  0  0  0
  6  7  1  0  0  0  0
  6 25  1  0  0  0  0
  7  8  2  0  0  0  0
  7 26  1  0  0  0  0
  8  9  1  0  0  0  0
  8 27  1  0  0  0  0
  9 10  1  0  0  0  0
 10 11  1  0  0  0  0
 11 12  1  0  0  0  0
 11 28  1  0  0  0  0
 11 29  1  0  0  0  0
 12 13  1  0  0  0  0
 12 14  1  0  0  0  0
 12 30  1  0  0  0  0
 13 31  1  0  0  0  0
 14 20  1  0  0  0  0
 14 15  2  0  0  0  0
 15 16  1  0  0  0  0
 15 32  1  0  0  0  0
 16 17  2  0  0  0  0
 16 33  1  0  0  0  0
 17 18  1  0  0  0  0
 17 34  1  0  0  0  0
 18 19  1  0  0  0  0
 18 20  2  0  0  0  0
 20 35  1  0  0  0  0
M  END
> <s_m_source_file>
AV-unprocessed.smi

> <i_m_source_file_index>
1906

> <i_lp_mmshare_version>
43012

> <i_f3d_flags>
0

> <s_epik_input>
W2NIXTFbY0hdW2NIXVtjSF1jKGMxMiluKGMobjIpW0NIM10pW0NIMl1bQ0BIXShbT0hdKWMzW2NIXVtjSF1bY0hdYyhGKVtjSF0z

> <s_epik_cmdline>
J2VwaWtfcHl0aG9uJywgJy1waCcsICc3LjAnLCAnLXRuJywgJzgnLCAnLW1hJywgJzIwMCcsICctbWV0YWxfYmluZGluZycsICctaW1hZScsICc8aW5maWxlLm1hZT4nLCAnLW9tYWUnLCAnPG91dGZpbGUubWFlPic=

> <r_epik_Ionization_Penalty>
0.129664

> <r_epik_Ionization_Penalty_Charging>
0

> <r_epik_Ionization_Penalty_Neutral>
0.129664

> <r_epik_State_Penalty>
0.119073

> <r_epik_Charging_Adjusted_Penalty>
0.119073

> <i_epik_Tot_Q>
0

> <i_epik_Tot_abs_Q>
0

> <r_epik_Metal_State_Penalty>
0.000131867

> <b_epik_Metal_Only>
0

> <s_lp_Force_Field>
OPLS_2005

> <r_lp_Energy>
10.1528

> <b_lp_Chiralities_Consistent>
1

> <s_lp_Variant>
AV-unprocessed.smi:1906-1

> <Gold.Version>
5.8.1

> <Gold.Id.Protein>
6NUR|6NUR_protein|mol2

> <Gold.PLP.Fitness>
49.7646

> <Gold.PLP.PLP>
-50.3440

> <Gold.PLP.part.hbond>
0.0000

> <Gold.PLP.part.metal>
0.0000

> <Gold.PLP.part.buried>
-2.4667

> <Gold.PLP.part.nonpolar>
-47.4766

> <Gold.PLP.part.repulsive>
0.1632

> <Gold.PLP.ligand.clash>
0.0000

> <Gold.PLP.ligand.torsion>
0.3012

> <Gold.PLP.Chemscore.Hbond>
0.0000

> <Gold.PLP.Chemscore.CHOScore>
0.0000

> <Gold.PLP.Chemscore.Metal>
0.0000

> <Gold.PLP.Chemscore.Internal.Correction>
0.0230

> <Gold.Rescore>
     Score         DG    S(hbond)    S(metal)    S(lipo)     H(rot)  DE(clash)    DE(int)     intcor
     15.46     -15.93       0.00        0.00     128.57       1.79       0.20       0.27       ----

> <Gold.Chemscore.Fitness>
15.4595

> <Gold.Chemscore.DG>
-15.9341

> <Gold.Chemscore.ZeroCoef>
-5.4800

> <Gold.Chemscore.Hbond>
0.0000

> <Gold.Chemscore.Metal>
0.0000

> <Gold.Chemscore.Lipo>
128.5740

> <Gold.Chemscore.Internal_Hbond>
0.0000

> <Gold.Chemscore.DEClash>
0.2043

> <Gold.Chemscore.DEInternal>
0.2703

> <Gold.Chemscore.Rot>
1.7926

> <Gold.Chemscore.Internal.Correction>
   9.000000E+99

> <Gold.Chemscore.Hbond.Weighted>
-0.0000

> <Gold.Chemscore.Metal.Weighted>
-0.0000

> <Gold.Chemscore.Lipo.Weighted>
-15.0432

> <Gold.Chemscore.Internal_Hbond.Weighted>
0.0000

> <Gold.Chemscore.DEClash.Weighted>
0.2043

> <Gold.Chemscore.DEInternal.Weighted>
0.2703

> <Gold.Chemscore.Rot.Weighted>
4.5890

> <Gold.Chemscore.Internal.Correction.Weighted>
   9.000000E+99

> <Gold.Protein.RotatedTorsions>
[ 6907 6896 6895 6894 ] final   78.87 input  -60.11 | X-H torsion
[ 7974 7965 7964 7962 ] final  -46.99 input  175.53 | X-H torsion
[ 8008 7997 7996 7995 ] final -103.01 input   59.86 | X-H torsion
[ 10167 10162 10161 10158 ] final  -62.36 input  -65.29 | X-H torsion
[ 10718 10713 10712 10709 ] final   90.54 input   66.30 | X-H torsion
[ 10763 10752 10751 10750 ] final   -3.87 input  -60.55 | X-H torsion
[ 11005 11000 10999 10996 ] final  -97.18 input  -57.11 | X-H torsion

> <Gold.Protein.ActiveResidues>
 VAL166  LYS551  ARG553  GLY616  TRP617  ASP618  TYR619  PRO620  LYS621  CYS622 
 ASP623  PHE694  ASN695  SER759  ASP760  ASP761  ALA762  ILE779  LEU786  VAL792 
 PHE793  MET794  SER795  GLU796  ALA797  LYS798  CYS799  TRP800  GLU811  SER814 

> <Gold.Protein.RotatedAtoms>
  152.5176  134.3598  159.9280 H   0  0  0  0  0  0  0  0  0  0  0  0  # atno 6907 bound_to 6896
  151.3550  133.3904  159.2692 H   0  0  0  0  0  0  0  0  0  0  0  0  # atno 6908 bound_to 6896
  150.9696  134.9090  159.7838 H   0  0  0  0  0  0  0  0  0  0  0  0  # atno 6909 bound_to 6896
  145.9662  140.7429  142.9433 H   0  0  0  0  0  0  0  0  0  0  0  0  # atno 7974 bound_to 7965
  154.8647  140.0425  157.1687 H   0  0  0  0  0  0  0  0  0  0  0  0  # atno 8008 bound_to 7997
  154.8802  140.2971  155.5409 H   0  0  0  0  0  0  0  0  0  0  0  0  # atno 8009 bound_to 7997
  156.2999  140.2412  156.3803 H   0  0  0  0  0  0  0  0  0  0  0  0  # atno 8010 bound_to 7997
  140.5944  143.2348  151.6069 H   0  0  0  0  0  0  0  0  0  0  0  0  # atno 10167 bound_to 10162
  157.6959  131.0374  150.3594 H   0  0  0  0  0  0  0  0  0  0  0  0  # atno 10718 bound_to 10713
  153.3772  135.6997  153.6592 H   0  0  0  0  0  0  0  0  0  0  0  0  # atno 10763 bound_to 10752
  153.5218  135.3610  155.2636 H   0  0  0  0  0  0  0  0  0  0  0  0  # atno 10764 bound_to 10752
  154.8688  135.4159  154.3063 H   0  0  0  0  0  0  0  0  0  0  0  0  # atno 10765 bound_to 10752
  141.1387  133.8152  157.0671 H   0  0  0  0  0  0  0  0  0  0  0  0  # atno 11005 bound_to 11000
  144.6826  140.2673  143.7311 LP  0  0  0  0  0  0  0  0  0  0  0  0  # atno 17320 bound_to 7965
  145.7970  139.1949  143.2070 LP  0  0  0  0  0  0  0  0  0  0  0  0  # atno 17321 bound_to 7965
  139.5248  144.3092  152.1007 LP  0  0  0  0  0  0  0  0  0  0  0  0  # atno 17342 bound_to 10162
  140.2262  144.4416  150.6320 LP  0  0  0  0  0  0  0  0  0  0  0  0  # atno 17343 bound_to 10162
  156.4032  130.3920  149.6945 LP  0  0  0  0  0  0  0  0  0  0  0  0  # atno 17370 bound_to 10713
  156.4255  130.7789  151.2808 LP  0  0  0  0  0  0  0  0  0  0  0  0  # atno 17371 bound_to 10713
  140.0535  134.9793  157.1178 LP  0  0  0  0  0  0  0  0  0  0  0  0  # atno 17394 bound_to 11000
  140.3955  134.2139  155.7165 LP  0  0  0  0  0  0  0  0  0  0  0  0  # atno 17395 bound_to 11000

$$$$
