AV-unprocessed.smi:2504|AV-procd|sdf|9850|dock7
  -GOLD-   2272013483D 1   1.00000     0.00000
 Structure written by MMmdl.
 47 49  0  0  0  0  0  0  0  0  2 V2000
  147.3879  137.5015  159.9757 O   0  0  0  0  0  0  0  0  0  0  0  0
  147.5279  136.3034  160.2245 C   0  0  0  0  0  0  0  0  0  0  0  0
  147.0840  135.7216  161.5829 C   0  0  0  0  0  0  0  0  0  0  0  0
  145.5887  135.9478  161.8644 C   0  0  0  0  0  0  0  0  0  0  0  0
  145.4786  137.2538  162.6671 C   0  0  0  0  0  0  0  0  0  0  0  0
  146.9024  137.6250  163.1038 C   0  0  0  0  0  0  0  0  0  0  0  0
  147.7777  136.4150  162.7646 C   0  0  0  0  0  0  0  0  0  0  0  0
  148.1664  135.4440  159.3254 N   0  0  0  0  0  0  0  0  0  0  0  0
  147.9177  134.0104  159.3521 C   0  0  0  0  0  0  0  0  0  0  0  0
  148.2462  134.0402  157.8552 C   0  0  0  0  0  0  0  0  0  0  0  0
  147.0532  133.0604  156.8406 S   0  0  0  0  0  0  0  0  0  0  0  0
  147.4595  131.6474  156.8859 O   0  0  0  0  0  0  0  0  0  0  0  0
  145.6732  133.4357  157.1835 O   0  0  0  0  0  0  0  0  0  0  0  0
  147.3633  133.6468  155.2468 N   0  0  0  0  0  0  0  0  0  0  0  0
  146.5955  133.0999  154.1252 C   0  0  0  0  0  0  0  0  0  0  0  0
  146.3418  134.1674  153.0467 C   0  0  0  0  0  0  0  0  0  0  0  0
  145.5646  133.6436  151.8530 C   0  0  0  0  0  0  0  0  0  0  0  0
  146.1392  132.6858  150.9884 C   0  0  0  0  0  0  0  0  0  0  0  0
  145.4033  132.2290  149.8754 C   0  0  0  0  0  0  0  0  0  0  0  0
  144.1092  132.7413  149.6513 C   0  0  0  0  0  0  0  0  0  0  0  0
  143.5914  133.6554  150.5008 N   0  3  0  0  0  0  0  0  0  0  0  0
  144.2625  134.1159  151.5792 C   0  0  0  0  0  0  0  0  0  0  0  0
  147.9731  135.5501  157.8868 C   0  0  0  0  0  0  0  0  0  0  0  0
  147.2930  134.6511  161.5923 H   0  0  0  0  0  0  0  0  0  0  0  0
  144.9839  135.9785  160.9568 H   0  0  0  0  0  0  0  0  0  0  0  0
  145.2085  135.1208  162.4653 H   0  0  0  0  0  0  0  0  0  0  0  0
  145.0506  138.0507  162.0579 H   0  0  0  0  0  0  0  0  0  0  0  0
  144.8245  137.1178  163.5290 H   0  0  0  0  0  0  0  0  0  0  0  0
  147.2419  138.4933  162.5377 H   0  0  0  0  0  0  0  0  0  0  0  0
  146.9571  137.8853  164.1612 H   0  0  0  0  0  0  0  0  0  0  0  0
  147.8070  135.7326  163.6151 H   0  0  0  0  0  0  0  0  0  0  0  0
  148.8067  136.7078  162.5521 H   0  0  0  0  0  0  0  0  0  0  0  0
  148.6252  133.4486  159.9624 H   0  0  0  0  0  0  0  0  0  0  0  0
  146.8782  133.7533  159.5672 H   0  0  0  0  0  0  0  0  0  0  0  0
  149.2818  133.7725  157.6389 H   0  0  0  0  0  0  0  0  0  0  0  0
  147.3713  134.6667  155.2253 H   0  0  0  0  0  0  0  0  0  0  0  0
  147.1127  132.2371  153.7031 H   0  0  0  0  0  0  0  0  0  0  0  0
  145.6432  132.7347  154.5103 H   0  0  0  0  0  0  0  0  0  0  0  0
  145.7860  134.9979  153.4835 H   0  0  0  0  0  0  0  0  0  0  0  0
  147.2896  134.5861  152.7052 H   0  0  0  0  0  0  0  0  0  0  0  0
  147.1352  132.3093  151.1713 H   0  0  0  0  0  0  0  0  0  0  0  0
  145.8274  131.4990  149.2015 H   0  0  0  0  0  0  0  0  0  0  0  0
  143.4780  132.4506  148.8243 H   0  0  0  0  0  0  0  0  0  0  0  0
  143.7461  134.8515  152.1783 H   0  0  0  0  0  0  0  0  0  0  0  0
  146.9579  135.8321  157.6057 H   0  0  0  0  0  0  0  0  0  0  0  0
  148.7284  136.1538  157.3832 H   0  0  0  0  0  0  0  0  0  0  0  0
  142.6538  134.0142  150.3191 H   0  0  0  0  0  0  0  0  0  0  0  0
  1  2  2  0  0  0  0
  2  3  1  0  0  0  0
  2  8  1  0  0  0  0
  3  7  1  0  0  0  0
  3  4  1  0  0  0  0
  3 24  1  0  0  0  0
  4  5  1  0  0  0  0
  4 25  1  0  0  0  0
  4 26  1  0  0  0  0
  5  6  1  0  0  0  0
  5 27  1  0  0  0  0
  5 28  1  0  0  0  0
  6  7  1  0  0  0  0
  6 29  1  0  0  0  0
  6 30  1  0  0  0  0
  7 31  1  0  0  0  0
  7 32  1  0  0  0  0
  8 23  1  0  0  0  0
  8  9  1  0  0  0  0
  9 10  1  0  0  0  0
  9 33  1  0  0  0  0
  9 34  1  0  0  0  0
 10 11  1  0  0  0  0
 10 23  1  0  0  0  0
 10 35  1  0  0  0  0
 11 12  2  0  0  0  0
 11 13  2  0  0  0  0
 11 14  1  0  0  0  0
 14 15  1  0  0  0  0
 14 36  1  0  0  0  0
 15 16  1  0  0  0  0
 15 37  1  0  0  0  0
 15 38  1  0  0  0  0
 16 17  1  0  0  0  0
 16 39  1  0  0  0  0
 16 40  1  0  0  0  0
 17 22  1  0  0  0  0
 17 18  2  0  0  0  0
 18 19  1  0  0  0  0
 18 41  1  0  0  0  0
 19 20  2  0  0  0  0
 19 42  1  0  0  0  0
 20 21  1  0  0  0  0
 20 43  1  0  0  0  0
 21 22  2  0  0  0  0
 21 47  1  0  0  0  0
 22 44  1  0  0  0  0
 23 45  1  0  0  0  0
 23 46  1  0  0  0  0
M  CHG  1  21   1
M  END
> <s_m_source_file>
AV-unprocessed.smi

> <i_m_source_file_index>
2504

> <i_lp_mmshare_version>
43012

> <i_f3d_flags>
0

> <s_epik_input>
W0NIMl0xW0NIMl1bQ0gyXVtDSDJdW0NIXTFDKD1PKU4yW0NIMl1bQ0hdKFtDSDJdMilTKD1PKSg9TylbTkhdW0NIMl1bQ0gyXWMzW2NIXVtjSF1bY0hdbltjSF0z

> <s_epik_cmdline>
J2VwaWtfcHl0aG9uJywgJy1waCcsICc3LjAnLCAnLXRuJywgJzgnLCAnLW1hJywgJzIwMCcsICctbWV0YWxfYmluZGluZycsICctaW1hZScsICc8aW5maWxlLm1hZT4nLCAnLW9tYWUnLCAnPG91dGZpbGUubWFlPic=

> <r_epik_Ionization_Penalty>
2.38216

> <r_epik_Ionization_Penalty_Charging>
2.38209

> <r_epik_Ionization_Penalty_Neutral>
6.7549e-05

> <r_epik_State_Penalty>
2.53866

> <r_epik_Charging_Adjusted_Penalty>
4.92075

> <i_epik_Tot_Q>
1

> <i_epik_Tot_abs_Q>
1

> <r_epik_Metal_State_Penalty>
2.64273

> <b_epik_Metal_Only>
0

> <s_lp_Force_Field>
OPLS_2005

> <r_lp_Energy>
40.9078

> <b_lp_Chiralities_Consistent>
1

> <s_lp_Variant>
AV-unprocessed.smi:2504-2

> <Gold.Version>
5.8.1

> <Gold.Id.Protein>
6NUR|6NUR_protein|mol2

> <Gold.PLP.Fitness>
44.2069

> <Gold.PLP.PLP>
-36.0398

> <Gold.PLP.part.hbond>
-2.0000

> <Gold.PLP.part.metal>
0.0000

> <Gold.PLP.part.buried>
-5.1790

> <Gold.PLP.part.nonpolar>
-29.0120

> <Gold.PLP.part.repulsive>
0.0687

> <Gold.PLP.ligand.clash>
0.0000

> <Gold.PLP.ligand.torsion>
1.1139

> <Gold.PLP.Chemscore.Hbond>
2.9120

> <Gold.PLP.Chemscore.CHOScore>
0.0000

> <Gold.PLP.Chemscore.Metal>
0.0000

> <Gold.Chemscore.Hbonds>
donor molecule, donor type, donor heavy atom, donor atom, acceptor molecule, acceptor atom, score
      L1  H    21    47       P1 10186  2.00
      P1  H  6934  6947       L1     1  0.93

> <Gold.PLP.Chemscore.Internal.Correction>
1.6588

> <Gold.Rescore>
     Score         DG    S(hbond)    S(metal)    S(lipo)     H(rot)  DE(clash)    DE(int)     intcor
     16.83     -17.93       1.92        0.00      94.74       1.97       0.00       1.10       ----

> <Gold.Chemscore.Fitness>
16.8271

> <Gold.Chemscore.DG>
-17.9325

> <Gold.Chemscore.ZeroCoef>
-5.4800

> <Gold.Chemscore.Hbond>
1.9234

> <Gold.Chemscore.Metal>
0.0000

> <Gold.Chemscore.Lipo>
94.7358

> <Gold.Chemscore.Internal_Hbond>
0.0000

> <Gold.Chemscore.DEClash>
0.0009

> <Gold.Chemscore.DEInternal>
1.1045

> <Gold.Chemscore.Rot>
1.9749

> <Gold.Chemscore.Internal.Correction>
   9.000000E+99

> <Gold.Chemscore.Hbonds>
donor molecule, donor type, donor heavy atom, donor atom, acceptor molecule, acceptor atom, score
      L1  H    21    47       P1 10186  0.94
      P1  H  6934  6947       L1     1  0.90

> <Gold.Chemscore.Hbond.Weighted>
-6.4241

> <Gold.Chemscore.Metal.Weighted>
-0.0000

> <Gold.Chemscore.Lipo.Weighted>
-11.0841

> <Gold.Chemscore.Internal_Hbond.Weighted>
0.0000

> <Gold.Chemscore.DEClash.Weighted>
0.0009

> <Gold.Chemscore.DEInternal.Weighted>
1.1045

> <Gold.Chemscore.Rot.Weighted>
5.0556

> <Gold.Chemscore.Internal.Correction.Weighted>
   9.000000E+99

> <Gold.Protein.RotatedTorsions>
[ 6907 6896 6895 6894 ] final   75.67 input  -60.11 | X-H torsion
[ 7974 7965 7964 7962 ] final  -15.63 input  175.53 | X-H torsion
[ 8008 7997 7996 7995 ] final  143.12 input   59.86 | X-H torsion
[ 10167 10162 10161 10158 ] final  126.60 input  -65.29 | X-H torsion
[ 10718 10713 10712 10709 ] final -168.36 input   66.30 | X-H torsion
[ 10763 10752 10751 10750 ] final -103.83 input  -60.55 | X-H torsion
[ 11005 11000 10999 10996 ] final   75.64 input  -57.11 | X-H torsion

> <Gold.Protein.ActiveResidues>
 VAL166  LYS551  ARG553  GLY616  TRP617  ASP618  TYR619  PRO620  LYS621  CYS622 
 ASP623  PHE694  ASN695  SER759  ASP760  ASP761  ALA762  ILE779  LEU786  VAL792 
 PHE793  MET794  SER795  GLU796  ALA797  LYS798  CYS799  TRP800  GLU811  SER814 

> <Gold.Protein.RotatedAtoms>
  152.5037  134.4086  159.9440 H   0  0  0  0  0  0  0  0  0  0  0  0  # atno 6907 bound_to 6896
  151.4053  133.3738  159.2745 H   0  0  0  0  0  0  0  0  0  0  0  0  # atno 6908 bound_to 6896
  150.9332  134.8767  159.7623 H   0  0  0  0  0  0  0  0  0  0  0  0  # atno 6909 bound_to 6896
  146.2023  140.3521  142.8419 H   0  0  0  0  0  0  0  0  0  0  0  0  # atno 7974 bound_to 7965
  156.2936  140.2271  156.4839 H   0  0  0  0  0  0  0  0  0  0  0  0  # atno 8008 bound_to 7997
  154.7829  140.0459  157.1162 H   0  0  0  0  0  0  0  0  0  0  0  0  # atno 8009 bound_to 7997
  154.9737  140.3069  155.4980 H   0  0  0  0  0  0  0  0  0  0  0  0  # atno 8010 bound_to 7997
  139.5622  144.6889  151.4010 H   0  0  0  0  0  0  0  0  0  0  0  0  # atno 10167 bound_to 10162
  156.6958  130.9177  151.3074 H   0  0  0  0  0  0  0  0  0  0  0  0  # atno 10718 bound_to 10713
  154.7835  135.4809  153.9895 H   0  0  0  0  0  0  0  0  0  0  0  0  # atno 10763 bound_to 10752
  153.1527  135.6794  153.8865 H   0  0  0  0  0  0  0  0  0  0  0  0  # atno 10764 bound_to 10752
  153.8504  135.3168  155.3410 H   0  0  0  0  0  0  0  0  0  0  0  0  # atno 10765 bound_to 10752
  139.9334  134.7535  156.1297 H   0  0  0  0  0  0  0  0  0  0  0  0  # atno 11005 bound_to 11000
  144.8712  140.7275  143.6045 LP  0  0  0  0  0  0  0  0  0  0  0  0  # atno 17320 bound_to 7965
  145.3440  139.1724  143.4470 LP  0  0  0  0  0  0  0  0  0  0  0  0  # atno 17321 bound_to 7965
  140.6903  143.7877  150.7245 LP  0  0  0  0  0  0  0  0  0  0  0  0  # atno 17342 bound_to 10162
  140.1358  143.4485  152.2226 LP  0  0  0  0  0  0  0  0  0  0  0  0  # atno 17343 bound_to 10162
  157.6992  130.9314  150.0733 LP  0  0  0  0  0  0  0  0  0  0  0  0  # atno 17370 bound_to 10713
  156.1764  130.3648  149.9094 LP  0  0  0  0  0  0  0  0  0  0  0  0  # atno 17371 bound_to 10713
  141.0935  133.6705  156.2594 LP  0  0  0  0  0  0  0  0  0  0  0  0  # atno 17394 bound_to 11000
  140.6140  134.5429  157.5538 LP  0  0  0  0  0  0  0  0  0  0  0  0  # atno 17395 bound_to 11000

$$$$
