AV-unprocessed.smi:671|AV-procd|sdf|3279|dock4
  -GOLD-   22720 0243D 1   1.00000     0.00000
 Structure written by MMmdl.
 49 50  0  0  0  0  0  0  0  0  1 V2000
  148.0619  133.5174  152.6275 C   0  0  0  0  0  0  0  0  0  0  0  0
  146.9277  132.7266  152.0400 C   0  0  0  0  0  0  0  0  0  0  0  0
  146.9589  131.4054  152.0916 N   0  0  0  0  0  0  0  0  0  0  0  0
  145.8181  131.0111  151.4908 N   0  0  0  0  0  0  0  0  0  0  0  0
  145.5291  129.5949  151.3743 C   0  0  0  0  0  0  0  0  0  0  0  0
  145.0622  132.0854  151.0625 C   0  0  0  0  0  0  0  0  0  0  0  0
  143.7485  131.9086  150.3716 C   0  0  0  0  0  0  0  0  0  0  0  0
  145.7514  133.2186  151.4030 C   0  0  0  0  0  0  0  0  0  0  0  0
  145.3839  134.6615  151.1754 C   0  0  0  0  0  0  0  0  0  0  0  0
  145.1609  135.4217  152.5010 C   0  0  2  0  0  0  0  0  0  0  0  0
  143.8573  136.2348  152.4981 C   0  0  0  0  0  0  0  0  0  0  0  0
  146.2838  136.3254  152.7619 N   0  0  0  0  0  0  0  0  0  0  0  0
  146.4365  137.1853  153.7863 C   0  0  0  0  0  0  0  0  0  0  0  0
  145.5851  137.3041  154.6651 O   0  0  0  0  0  0  0  0  0  0  0  0
  147.5810  137.8890  153.7605 N   0  0  0  0  0  0  0  0  0  0  0  0
  147.9717  138.9145  154.7228 C   0  0  1  0  0  0  0  0  0  0  0  0
  149.3704  138.6122  155.2953 C   0  0  0  0  0  0  0  0  0  0  0  0
  150.2885  139.7347  154.8083 C   0  0  0  0  0  0  0  0  0  0  0  0
  149.3559  140.9239  154.6052 C   0  0  0  0  0  0  0  0  0  0  0  0
  148.0722  140.3014  154.0500 C   0  0  2  0  0  0  0  0  0  0  0  0
  146.8303  141.1815  154.2481 C   0  0  0  0  0  0  0  0  0  0  0  0
  147.7763  133.9570  153.5830 H   0  0  0  0  0  0  0  0  0  0  0  0
  148.3559  134.3307  151.9639 H   0  0  0  0  0  0  0  0  0  0  0  0
  148.9429  132.8973  152.7967 H   0  0  0  0  0  0  0  0  0  0  0  0
  144.6945  129.3376  152.0270 H   0  0  0  0  0  0  0  0  0  0  0  0
  146.3981  128.9996  151.6591 H   0  0  0  0  0  0  0  0  0  0  0  0
  145.2632  129.3562  150.3442 H   0  0  0  0  0  0  0  0  0  0  0  0
  143.2476  132.8644  150.2198 H   0  0  0  0  0  0  0  0  0  0  0  0
  143.0830  131.2762  150.9594 H   0  0  0  0  0  0  0  0  0  0  0  0
  143.8850  131.4430  149.3955 H   0  0  0  0  0  0  0  0  0  0  0  0
  146.1756  135.1468  150.6038 H   0  0  0  0  0  0  0  0  0  0  0  0
  144.4951  134.7494  150.5499 H   0  0  0  0  0  0  0  0  0  0  0  0
  145.0917  134.7033  153.3196 H   0  0  0  0  0  0  0  0  0  0  0  0
  142.9871  135.5899  152.3744 H   0  0  0  0  0  0  0  0  0  0  0  0
  143.8464  136.9669  151.6900 H   0  0  0  0  0  0  0  0  0  0  0  0
  143.7296  136.7735  153.4376 H   0  0  0  0  0  0  0  0  0  0  0  0
  147.0466  136.2756  152.1022 H   0  0  0  0  0  0  0  0  0  0  0  0
  148.2216  137.7155  152.9998 H   0  0  0  0  0  0  0  0  0  0  0  0
  147.2639  138.9423  155.5538 H   0  0  0  0  0  0  0  0  0  0  0  0
  149.3236  138.6313  156.3850 H   0  0  0  0  0  0  0  0  0  0  0  0
  149.7511  137.6300  155.0111 H   0  0  0  0  0  0  0  0  0  0  0  0
  151.0961  139.9491  155.5085 H   0  0  0  0  0  0  0  0  0  0  0  0
  150.7402  139.4560  153.8559 H   0  0  0  0  0  0  0  0  0  0  0  0
  149.1593  141.4004  155.5667 H   0  0  0  0  0  0  0  0  0  0  0  0
  149.7781  141.6776  153.9397 H   0  0  0  0  0  0  0  0  0  0  0  0
  148.2242  140.1629  152.9778 H   0  0  0  0  0  0  0  0  0  0  0  0
  146.6334  141.3592  155.3058 H   0  0  0  0  0  0  0  0  0  0  0  0
  145.9454  140.7108  153.8190 H   0  0  0  0  0  0  0  0  0  0  0  0
  146.9574  142.1502  153.7644 H   0  0  0  0  0  0  0  0  0  0  0  0
  1  2  1  0  0  0  0
  1 22  1  0  0  0  0
  1 23  1  0  0  0  0
  1 24  1  0  0  0  0
  2  8  1  0  0  0  0
  2  3  2  0  0  0  0
  3  4  1  0  0  0  0
  4  5  1  0  0  0  0
  4  6  1  0  0  0  0
  5 25  1  0  0  0  0
  5 26  1  0  0  0  0
  5 27  1  0  0  0  0
  6  7  1  0  0  0  0
  6  8  2  0  0  0  0
  7 28  1  0  0  0  0
  7 29  1  0  0  0  0
  7 30  1  0  0  0  0
  8  9  1  0  0  0  0
  9 10  1  0  0  0  0
  9 31  1  0  0  0  0
  9 32  1  0  0  0  0
 10 11  1  0  0  0  0
 10 12  1  0  0  0  0
 10 33  1  0  0  0  0
 11 34  1  0  0  0  0
 11 35  1  0  0  0  0
 11 36  1  0  0  0  0
 12 13  1  0  0  0  0
 12 37  1  0  0  0  0
 13 14  2  0  0  0  0
 13 15  1  0  0  0  0
 15 16  1  0  0  0  0
 15 38  1  0  0  0  0
 16 20  1  0  0  0  0
 16 17  1  0  0  0  0
 16 39  1  0  0  0  0
 17 18  1  0  0  0  0
 17 40  1  0  0  0  0
 17 41  1  0  0  0  0
 18 19  1  0  0  0  0
 18 42  1  0  0  0  0
 18 43  1  0  0  0  0
 19 20  1  0  0  0  0
 19 44  1  0  0  0  0
 19 45  1  0  0  0  0
 20 21  1  0  0  0  0
 20 46  1  0  0  0  0
 21 47  1  0  0  0  0
 21 48  1  0  0  0  0
 21 49  1  0  0  0  0
M  END
> <s_m_source_file>
AV-unprocessed.smi

> <i_m_source_file_index>
671

> <i_lp_mmshare_version>
43012

> <i_f3d_flags>
0

> <s_epik_input>
W0NIM11jMW5uKFtDSDNdKWMoW0NIM10pYzFbQ0gyXVtDQEhdKFtDSDNdKVtOSF1DKD1PKVtOSF1bQ0BASF0yW0NIMl1bQ0gyXVtDSDJdW0NASF0yW0NIM10=

> <s_epik_cmdline>
J2VwaWtfcHl0aG9uJywgJy1waCcsICc3LjAnLCAnLXRuJywgJzgnLCAnLW1hJywgJzIwMCcsICctbWV0YWxfYmluZGluZycsICctaW1hZScsICc8aW5maWxlLm1hZT4nLCAnLW9tYWUnLCAnPG91dGZpbGUubWFlPic=

> <r_lp_tautomer_probability>
1

> <r_epik_Ionization_Penalty>
0.0126855

> <r_epik_Ionization_Penalty_Charging>
0

> <r_epik_Ionization_Penalty_Neutral>
0.0126855

> <r_epik_State_Penalty>
0.00977547

> <r_epik_Charging_Adjusted_Penalty>
0.00977547

> <i_epik_Tot_Q>
0

> <i_epik_Tot_abs_Q>
0

> <r_epik_Metal_State_Penalty>
0.00957132

> <b_epik_Metal_Only>
0

> <s_lp_Force_Field>
OPLS_2005

> <r_lp_Energy>
21.5891

> <b_lp_Chiralities_Consistent>
1

> <s_lp_Variant>
AV-unprocessed.smi:671-7

> <Gold.Version>
5.8.1

> <Gold.Id.Protein>
6NUR|6NUR_protein|mol2

> <Gold.PLP.Fitness>
40.7569

> <Gold.PLP.PLP>
-36.4408

> <Gold.PLP.part.hbond>
-2.0000

> <Gold.PLP.part.metal>
0.0000

> <Gold.PLP.part.buried>
-2.7582

> <Gold.PLP.part.nonpolar>
-32.2397

> <Gold.PLP.part.repulsive>
0.3003

> <Gold.PLP.ligand.clash>
0.0000

> <Gold.PLP.ligand.torsion>
0.7474

> <Gold.PLP.Chemscore.Hbond>
1.9280

> <Gold.PLP.Chemscore.CHOScore>
0.0000

> <Gold.PLP.Chemscore.Metal>
0.0000

> <Gold.Chemscore.Hbonds>
donor molecule, donor type, donor heavy atom, donor atom, acceptor molecule, acceptor atom, score
      L1  H    12    37       P1  7948  0.96
      L1  H    15    38       P1  7948  0.86

> <Gold.PLP.Chemscore.Internal.Correction>
0.0268

> <Gold.Rescore>
     Score         DG    S(hbond)    S(metal)    S(lipo)     H(rot)  DE(clash)    DE(int)     intcor
     17.92     -18.65       1.76        0.00      94.08       1.45       0.02       0.71       ----

> <Gold.Chemscore.Fitness>
17.9177

> <Gold.Chemscore.DG>
-18.6539

> <Gold.Chemscore.ZeroCoef>
-5.4800

> <Gold.Chemscore.Hbond>
1.7598

> <Gold.Chemscore.Metal>
0.0000

> <Gold.Chemscore.Lipo>
94.0842

> <Gold.Chemscore.Internal_Hbond>
0.0000

> <Gold.Chemscore.DEClash>
0.0245

> <Gold.Chemscore.DEInternal>
0.7117

> <Gold.Chemscore.Rot>
1.4499

> <Gold.Chemscore.Internal.Correction>
   9.000000E+99

> <Gold.Chemscore.Hbonds>
donor molecule, donor type, donor heavy atom, donor atom, acceptor molecule, acceptor atom, score
      L1  H    12    37       P1  7948  0.92
      L1  H    15    38       P1  7948  0.82

> <Gold.Chemscore.Hbond.Weighted>
-5.8779

> <Gold.Chemscore.Metal.Weighted>
-0.0000

> <Gold.Chemscore.Lipo.Weighted>
-11.0079

> <Gold.Chemscore.Internal_Hbond.Weighted>
0.0000

> <Gold.Chemscore.DEClash.Weighted>
0.0245

> <Gold.Chemscore.DEInternal.Weighted>
0.7117

> <Gold.Chemscore.Rot.Weighted>
3.7118

> <Gold.Chemscore.Internal.Correction.Weighted>
   9.000000E+99

> <Gold.Protein.RotatedTorsions>
[ 6907 6896 6895 6894 ] final    1.05 input  -60.11 | X-H torsion
[ 7974 7965 7964 7962 ] final  176.46 input  175.53 | X-H torsion
[ 8008 7997 7996 7995 ] final -144.78 input   59.86 | X-H torsion
[ 10167 10162 10161 10158 ] final -133.09 input  -65.29 | X-H torsion
[ 10718 10713 10712 10709 ] final  129.73 input   66.30 | X-H torsion
[ 10763 10752 10751 10750 ] final  -56.15 input  -60.55 | X-H torsion
[ 11005 11000 10999 10996 ] final -126.46 input  -57.11 | X-H torsion

> <Gold.Protein.ActiveResidues>
 VAL166  LYS551  ARG553  GLY616  TRP617  ASP618  TYR619  PRO620  LYS621  CYS622 
 ASP623  PHE694  ASN695  SER759  ASP760  ASP761  ALA762  ILE779  LEU786  VAL792 
 PHE793  MET794  SER795  GLU796  ALA797  LYS798  CYS799  TRP800  GLU811  SER814 

> <Gold.Protein.RotatedAtoms>
  151.5863  135.1056  160.0028 H   0  0  0  0  0  0  0  0  0  0  0  0  # atno 6907 bound_to 6896
  152.4329  133.7304  159.6595 H   0  0  0  0  0  0  0  0  0  0  0  0  # atno 6908 bound_to 6896
  150.8223  133.8161  159.3156 H   0  0  0  0  0  0  0  0  0  0  0  0  # atno 6909 bound_to 6896
  144.7184  140.0100  143.6440 H   0  0  0  0  0  0  0  0  0  0  0  0  # atno 7974 bound_to 7965
  155.5325  140.0601  157.2886 H   0  0  0  0  0  0  0  0  0  0  0  0  # atno 8008 bound_to 7997
  154.4479  140.1933  156.0553 H   0  0  0  0  0  0  0  0  0  0  0  0  # atno 8009 bound_to 7997
  156.0642  140.3268  155.7502 H   0  0  0  0  0  0  0  0  0  0  0  0  # atno 8010 bound_to 7997
  139.9018  143.6598  152.2593 H   0  0  0  0  0  0  0  0  0  0  0  0  # atno 10167 bound_to 10162
  157.5127  131.1097  150.9269 H   0  0  0  0  0  0  0  0  0  0  0  0  # atno 10718 bound_to 10713
  154.2022  135.6409  153.5090 H   0  0  0  0  0  0  0  0  0  0  0  0  # atno 10763 bound_to 10752
  153.0009  135.5454  154.6304 H   0  0  0  0  0  0  0  0  0  0  0  0  # atno 10764 bound_to 10752
  154.5719  135.2917  155.0792 H   0  0  0  0  0  0  0  0  0  0  0  0  # atno 10765 bound_to 10752
  140.9679  134.0846  157.3900 H   0  0  0  0  0  0  0  0  0  0  0  0  # atno 11005 bound_to 11000
  146.0266  139.3298  143.0780 LP  0  0  0  0  0  0  0  0  0  0  0  0  # atno 17320 bound_to 7965
  145.8504  140.9532  143.0753 LP  0  0  0  0  0  0  0  0  0  0  0  0  # atno 17321 bound_to 7965
  139.7018  144.7634  151.1259 LP  0  0  0  0  0  0  0  0  0  0  0  0  # atno 17342 bound_to 10162
  140.7705  143.5447  150.9272 LP  0  0  0  0  0  0  0  0  0  0  0  0  # atno 17343 bound_to 10162
  156.9904  130.5561  149.5303 LP  0  0  0  0  0  0  0  0  0  0  0  0  # atno 17370 bound_to 10713
  156.0300  130.5392  150.8508 LP  0  0  0  0  0  0  0  0  0  0  0  0  # atno 17371 bound_to 10713
  139.8901  135.0110  156.6718 LP  0  0  0  0  0  0  0  0  0  0  0  0  # atno 17394 bound_to 11000
  140.7372  133.9009  155.8252 LP  0  0  0  0  0  0  0  0  0  0  0  0  # atno 17395 bound_to 11000

$$$$
