AV-unprocessed.smi:479|AV-procd|sdf|2672|dock3
  -GOLD-   2262023 93D 1   1.00000     0.00000
 Structure written by MMmdl.
 45 47  0  0  0  0  0  0  0  0  1 V2000
  147.6660  132.8688  157.4269 C   0  0  0  0  0  0  0  0  0  0  0  0
  148.1013  134.1749  157.7730 O   0  0  0  0  0  0  0  0  0  0  0  0
  147.6740  134.7177  158.9675 C   0  0  0  0  0  0  0  0  0  0  0  0
  146.7853  134.0601  159.8556 C   0  0  0  0  0  0  0  0  0  0  0  0
  146.3795  134.6708  161.0646 C   0  0  0  0  0  0  0  0  0  0  0  0
  145.4467  133.9972  162.0137 C   0  0  0  0  0  0  0  0  0  0  0  0
  144.7201  134.8650  163.0402 C   0  0  0  0  0  0  0  0  0  0  0  0
  145.2322  132.7853  162.0090 O   0  0  0  0  0  0  0  0  0  0  0  0
  146.8693  135.9573  161.3737 C   0  0  0  0  0  0  0  0  0  0  0  0
  147.7524  136.6163  160.5006 C   0  0  0  0  0  0  0  0  0  0  0  0
  148.1671  136.0003  159.2951 C   0  0  0  0  0  0  0  0  0  0  0  0
  149.0433  136.5800  158.4010 O   0  0  0  0  0  0  0  0  0  0  0  0
  149.9055  137.6122  158.8633 C   0  0  0  0  0  0  0  0  0  0  0  0
  151.1317  137.7231  157.9375 C   0  0  2  0  0  0  0  0  0  0  0  0
  151.8553  136.5106  157.9603 O   0  0  0  0  0  0  0  0  0  0  0  0
  152.0708  138.9112  158.2337 C   0  0  0  0  0  0  0  0  0  0  0  0
  151.5213  140.1800  157.7884 N   0  0  0  0  0  0  0  0  0  0  0  0
  150.4272  140.3630  157.0246 C   0  0  0  0  0  0  0  0  0  0  0  0
  150.0813  141.6162  156.7440 N   0  0  0  0  0  0  0  0  0  0  0  0
  151.0724  142.3313  157.3940 C   0  0  0  0  0  0  0  0  0  0  0  0
  151.2819  143.7255  157.4930 C   0  0  0  0  0  0  0  0  0  0  0  0
  152.3781  144.2337  158.2208 C   0  0  0  0  0  0  0  0  0  0  0  0
  153.2831  143.3581  158.8547 C   0  0  0  0  0  0  0  0  0  0  0  0
  153.0963  141.9656  158.7666 C   0  0  0  0  0  0  0  0  0  0  0  0
  151.9965  141.4617  158.0484 C   0  0  0  0  0  0  0  0  0  0  0  0
  148.1168  132.5813  156.4772 H   0  0  0  0  0  0  0  0  0  0  0  0
  146.5829  132.8289  157.3026 H   0  0  0  0  0  0  0  0  0  0  0  0
  147.9743  132.1347  158.1728 H   0  0  0  0  0  0  0  0  0  0  0  0
  146.4086  133.0805  159.6082 H   0  0  0  0  0  0  0  0  0  0  0  0
  145.4348  135.3451  163.7087 H   0  0  0  0  0  0  0  0  0  0  0  0
  144.0442  134.2578  163.6430 H   0  0  0  0  0  0  0  0  0  0  0  0
  144.1315  135.6352  162.5417 H   0  0  0  0  0  0  0  0  0  0  0  0
  146.5748  136.4543  162.2869 H   0  0  0  0  0  0  0  0  0  0  0  0
  148.0979  137.5992  160.7819 H   0  0  0  0  0  0  0  0  0  0  0  0
  149.3751  138.5643  158.9191 H   0  0  0  0  0  0  0  0  0  0  0  0
  150.2553  137.3716  159.8685 H   0  0  0  0  0  0  0  0  0  0  0  0
  150.7613  137.8289  156.9172 H   0  0  0  0  0  0  0  0  0  0  0  0
  152.7723  136.7097  158.0721 H   0  0  0  0  0  0  0  0  0  0  0  0
  152.2726  138.9759  159.3036 H   0  0  0  0  0  0  0  0  0  0  0  0
  153.0347  138.7637  157.7452 H   0  0  0  0  0  0  0  0  0  0  0  0
  149.8458  139.5276  156.6628 H   0  0  0  0  0  0  0  0  0  0  0  0
  150.5967  144.4057  157.0093 H   0  0  0  0  0  0  0  0  0  0  0  0
  152.5261  145.3014  158.2911 H   0  0  0  0  0  0  0  0  0  0  0  0
  154.1205  143.7548  159.4099 H   0  0  0  0  0  0  0  0  0  0  0  0
  153.7873  141.2922  159.2506 H   0  0  0  0  0  0  0  0  0  0  0  0
  1  2  1  0  0  0  0
  1 26  1  0  0  0  0
  1 27  1  0  0  0  0
  1 28  1  0  0  0  0
  2  3  1  0  0  0  0
  3 11  1  0  0  0  0
  3  4  2  0  0  0  0
  4  5  1  0  0  0  0
  4 29  1  0  0  0  0
  5  6  1  0  0  0  0
  5  9  2  0  0  0  0
  6  7  1  0  0  0  0
  6  8  2  0  0  0  0
  7 30  1  0  0  0  0
  7 31  1  0  0  0  0
  7 32  1  0  0  0  0
  9 10  1  0  0  0  0
  9 33  1  0  0  0  0
 10 11  2  0  0  0  0
 10 34  1  0  0  0  0
 11 12  1  0  0  0  0
 12 13  1  0  0  0  0
 13 14  1  0  0  0  0
 13 35  1  0  0  0  0
 13 36  1  0  0  0  0
 14 15  1  0  0  0  0
 14 16  1  0  0  0  0
 14 37  1  0  0  0  0
 15 38  1  0  0  0  0
 16 17  1  0  0  0  0
 16 39  1  0  0  0  0
 16 40  1  0  0  0  0
 17 25  1  0  0  0  0
 17 18  1  0  0  0  0
 18 19  2  0  0  0  0
 18 41  1  0  0  0  0
 19 20  1  0  0  0  0
 20 25  2  0  0  0  0
 20 21  1  0  0  0  0
 21 22  2  0  0  0  0
 21 42  1  0  0  0  0
 22 23  1  0  0  0  0
 22 43  1  0  0  0  0
 23 24  2  0  0  0  0
 23 44  1  0  0  0  0
 24 25  1  0  0  0  0
 24 45  1  0  0  0  0
M  END
> <s_m_source_file>
AV-unprocessed.smi

> <i_m_source_file_index>
479

> <i_lp_mmshare_version>
43012

> <i_f3d_flags>
0

> <s_epik_input>
W0NIM11PYzFbY0hdYyhDKD1PKVtDSDNdKVtjSF1bY0hdYzFPW0NIMl1bQ0BIXShbT0hdKVtDSDJdbihbY0hdbjIpYyhjMjMpW2NIXVtjSF1bY0hdW2NIXTM=

> <s_epik_cmdline>
J2VwaWtfcHl0aG9uJywgJy1waCcsICc3LjAnLCAnLXRuJywgJzgnLCAnLW1hJywgJzIwMCcsICctbWV0YWxfYmluZGluZycsICctaW1hZScsICc8aW5maWxlLm1hZT4nLCAnLW9tYWUnLCAnPG91dGZpbGUubWFlPic=

> <r_lp_tautomer_probability>
0.99995

> <r_epik_Ionization_Penalty>
0.061028

> <r_epik_Ionization_Penalty_Charging>
0

> <r_epik_Ionization_Penalty_Neutral>
0.061028

> <r_epik_State_Penalty>
0.052945

> <r_epik_Charging_Adjusted_Penalty>
0.052945

> <i_epik_Tot_Q>
0

> <i_epik_Tot_abs_Q>
0

> <r_epik_Metal_State_Penalty>
5.53801e-05

> <b_epik_Metal_Only>
0

> <s_lp_Force_Field>
OPLS_2005

> <r_lp_Energy>
25.674

> <b_lp_Chiralities_Consistent>
1

> <s_lp_Variant>
AV-unprocessed.smi:479-1

> <Gold.Version>
5.8.1

> <Gold.Id.Protein>
6NUR|6NUR_protein|mol2

> <Gold.PLP.Fitness>
50.3542

> <Gold.PLP.PLP>
-46.2162

> <Gold.PLP.part.hbond>
-2.7205

> <Gold.PLP.part.metal>
0.0000

> <Gold.PLP.part.buried>
-4.1256

> <Gold.PLP.part.nonpolar>
-39.5231

> <Gold.PLP.part.repulsive>
0.1329

> <Gold.PLP.ligand.clash>
0.0000

> <Gold.PLP.ligand.torsion>
0.8226

> <Gold.PLP.Chemscore.Hbond>
1.8640

> <Gold.PLP.Chemscore.CHOScore>
0.0000

> <Gold.PLP.Chemscore.Metal>
0.0000

> <Gold.PLP.Chemscore.Internal.Correction>
0.1913

> <Gold.Rescore>
     Score         DG    S(hbond)    S(metal)    S(lipo)     H(rot)  DE(clash)    DE(int)     intcor
     16.30     -17.57       1.42        0.00     121.00       2.66       0.22       1.04       ----

> <Gold.Chemscore.Fitness>
16.3000

> <Gold.Chemscore.DG>
-17.5689

> <Gold.Chemscore.ZeroCoef>
-5.4800

> <Gold.Chemscore.Hbond>
1.4160

> <Gold.Chemscore.Metal>
0.0000

> <Gold.Chemscore.Lipo>
121.0046

> <Gold.Chemscore.Internal_Hbond>
0.0000

> <Gold.Chemscore.DEClash>
0.2245

> <Gold.Chemscore.DEInternal>
1.0444

> <Gold.Chemscore.Rot>
2.6555

> <Gold.Chemscore.Internal.Correction>
   9.000000E+99

> <Gold.Chemscore.Hbond.Weighted>
-4.7294

> <Gold.Chemscore.Metal.Weighted>
-0.0000

> <Gold.Chemscore.Lipo.Weighted>
-14.1575

> <Gold.Chemscore.Internal_Hbond.Weighted>
0.0000

> <Gold.Chemscore.DEClash.Weighted>
0.2245

> <Gold.Chemscore.DEInternal.Weighted>
1.0444

> <Gold.Chemscore.Rot.Weighted>
6.7980

> <Gold.Chemscore.Internal.Correction.Weighted>
   9.000000E+99

> <Gold.Protein.RotatedTorsions>
[ 6907 6896 6895 6894 ] final  123.77 input  -60.11 | X-H torsion
[ 7974 7965 7964 7962 ] final  -87.12 input  175.53 | X-H torsion
[ 8008 7997 7996 7995 ] final  124.65 input   59.86 | X-H torsion
[ 10167 10162 10161 10158 ] final -164.16 input  -65.29 | X-H torsion
[ 10718 10713 10712 10709 ] final -159.96 input   66.30 | X-H torsion
[ 10763 10752 10751 10750 ] final  -55.24 input  -60.55 | X-H torsion
[ 11005 11000 10999 10996 ] final   89.56 input  -57.11 | X-H torsion

> <Gold.Protein.ActiveResidues>
 VAL166  LYS551  ARG553  GLY616  TRP617  ASP618  TYR619  PRO620  LYS621  CYS622 
 ASP623  PHE694  ASN695  SER759  ASP760  ASP761  ALA762  ILE779  LEU786  VAL792 
 PHE793  MET794  SER795  GLU796  ALA797  LYS798  CYS799  TRP800  GLU811  SER814 

> <Gold.Protein.RotatedAtoms>
  152.4134  133.6999  159.6417 H   0  0  0  0  0  0  0  0  0  0  0  0  # atno 6907 bound_to 6896
  150.8012  133.8584  159.3233 H   0  0  0  0  0  0  0  0  0  0  0  0  # atno 6908 bound_to 6896
  151.6320  135.1024  160.0175 H   0  0  0  0  0  0  0  0  0  0  0  0  # atno 6909 bound_to 6896
  145.4708  140.9559  143.1918 H   0  0  0  0  0  0  0  0  0  0  0  0  # atno 7974 bound_to 7965
  156.2808  140.2734  156.1823 H   0  0  0  0  0  0  0  0  0  0  0  0  # atno 8008 bound_to 7997
  155.0544  140.0386  157.2573 H   0  0  0  0  0  0  0  0  0  0  0  0  # atno 8009 bound_to 7997
  154.7169  140.2680  155.6583 H   0  0  0  0  0  0  0  0  0  0  0  0  # atno 8010 bound_to 7997
  139.6270  144.0513  152.1983 H   0  0  0  0  0  0  0  0  0  0  0  0  # atno 10167 bound_to 10162
  156.5754  130.8706  151.2849 H   0  0  0  0  0  0  0  0  0  0  0  0  # atno 10718 bound_to 10713
  154.1876  135.6432  153.5051 H   0  0  0  0  0  0  0  0  0  0  0  0  # atno 10763 bound_to 10752
  153.0043  135.5421  154.6448 H   0  0  0  0  0  0  0  0  0  0  0  0  # atno 10764 bound_to 10752
  154.5829  135.2927  155.0687 H   0  0  0  0  0  0  0  0  0  0  0  0  # atno 10765 bound_to 10752
  139.8873  134.8559  156.3160 H   0  0  0  0  0  0  0  0  0  0  0  0  # atno 11005 bound_to 11000
  144.7946  139.6259  143.7098 LP  0  0  0  0  0  0  0  0  0  0  0  0  # atno 17320 bound_to 7965
  146.2398  139.5977  142.9499 LP  0  0  0  0  0  0  0  0  0  0  0  0  # atno 17321 bound_to 7965
  140.0169  144.6182  150.7599 LP  0  0  0  0  0  0  0  0  0  0  0  0  # atno 17342 bound_to 10162
  140.7417  143.2821  151.3568 LP  0  0  0  0  0  0  0  0  0  0  0  0  # atno 17343 bound_to 10162
  157.7339  130.9737  150.2000 LP  0  0  0  0  0  0  0  0  0  0  0  0  # atno 17370 bound_to 10713
  156.2678  130.3718  149.8063 LP  0  0  0  0  0  0  0  0  0  0  0  0  # atno 17371 bound_to 10713
  140.9819  133.7262  156.0684 LP  0  0  0  0  0  0  0  0  0  0  0  0  # atno 17394 bound_to 11000
  140.7739  134.3802  157.5502 LP  0  0  0  0  0  0  0  0  0  0  0  0  # atno 17395 bound_to 11000

$$$$
