AV-unprocessed.smi:232|AV-procd|sdf|1769|dock8
  -GOLD-   2262020303D 1   1.00000     0.00000
 Structure written by MMmdl.
 52 55  0  0  0  0  0  0  0  0  1 V2000
  151.8044  143.9191  157.7676 C   0  0  0  0  0  0  0  0  0  0  0  0
  150.9379  142.6781  158.0142 C   0  0  0  0  0  0  0  0  0  0  0  0
  151.5281  141.7314  159.0794 C   0  0  2  0  0  0  0  0  0  0  0  0
  152.2154  142.4551  160.2445 C   0  0  0  0  0  0  0  0  0  0  0  0
  153.3161  141.4925  160.7046 C   0  0  0  0  0  0  0  0  0  0  0  0
  153.2467  140.3177  159.7198 C   0  0  2  0  0  0  0  0  0  0  0  0
  154.6228  139.7060  159.4062 C   0  0  0  0  0  0  0  0  0  0  0  0
  152.5613  140.8483  158.5470 N   0  0  0  0  0  0  0  0  0  0  0  0
  152.1649  139.9056  157.6581 C   0  0  0  0  0  0  0  0  0  0  0  0
  152.6184  139.9296  156.3763 N   0  0  0  0  0  0  0  0  0  0  0  0
  152.2074  139.0041  155.5041 C   0  0  0  0  0  0  0  0  0  0  0  0
  151.3599  137.9909  155.6983 N   0  0  0  0  0  0  0  0  0  0  0  0
  150.9021  137.9691  156.9832 C   0  0  0  0  0  0  0  0  0  0  0  0
  151.2523  138.8795  158.0182 C   0  0  0  0  0  0  0  0  0  0  0  0
  150.5902  138.5455  159.1930 N   0  0  0  0  0  0  0  0  0  0  0  0
  149.8822  137.4974  158.8687 C   0  0  0  0  0  0  0  0  0  0  0  0
  150.0082  137.0862  157.5608 N   0  0  0  0  0  0  0  0  0  0  0  0
  149.3358  135.9646  156.9298 C   0  0  0  0  0  0  0  0  0  0  0  0
  150.3261  134.9989  156.2507 C   0  0  2  0  0  0  0  0  0  0  0  0
  150.9079  135.6028  155.1104 O   0  0  0  0  0  0  0  0  0  0  0  0
  149.6857  133.6445  155.8852 C   0  0  2  0  0  0  0  0  0  0  0  0
  150.6462  132.5191  155.4909 C   0  0  0  0  0  0  0  0  0  0  0  0
  149.7334  131.6249  154.6820 C   0  0  0  0  0  0  0  0  0  0  0  0
  148.8775  132.6471  153.9376 C   0  0  0  0  0  0  0  0  0  0  0  0
  148.7508  133.7629  154.8152 O   0  0  0  0  0  0  0  0  0  0  0  0
  151.3395  144.5763  157.0325 H   0  0  0  0  0  0  0  0  0  0  0  0
  152.7911  143.6490  157.3905 H   0  0  0  0  0  0  0  0  0  0  0  0
  151.9404  144.4911  158.6857 H   0  0  0  0  0  0  0  0  0  0  0  0
  149.9475  143.0115  158.3257 H   0  0  0  0  0  0  0  0  0  0  0  0
  150.7953  142.1395  157.0767 H   0  0  0  0  0  0  0  0  0  0  0  0
  150.7247  141.1198  159.4937 H   0  0  0  0  0  0  0  0  0  0  0  0
  152.6683  143.3884  159.9073 H   0  0  0  0  0  0  0  0  0  0  0  0
  151.5132  142.6965  161.0429 H   0  0  0  0  0  0  0  0  0  0  0  0
  154.2845  141.9927  160.6570 H   0  0  0  0  0  0  0  0  0  0  0  0
  153.1672  141.1565  161.7311 H   0  0  0  0  0  0  0  0  0  0  0  0
  152.6148  139.5433  160.1588 H   0  0  0  0  0  0  0  0  0  0  0  0
  155.1176  139.3769  160.3202 H   0  0  0  0  0  0  0  0  0  0  0  0
  155.2752  140.4289  158.9155 H   0  0  0  0  0  0  0  0  0  0  0  0
  154.5362  138.8377  158.7529 H   0  0  0  0  0  0  0  0  0  0  0  0
  152.6125  139.0903  154.5066 H   0  0  0  0  0  0  0  0  0  0  0  0
  149.2398  136.9948  159.5774 H   0  0  0  0  0  0  0  0  0  0  0  0
  148.7586  135.4410  157.6928 H   0  0  0  0  0  0  0  0  0  0  0  0
  148.6181  136.3511  156.2050 H   0  0  0  0  0  0  0  0  0  0  0  0
  151.1441  134.8004  156.9444 H   0  0  0  0  0  0  0  0  0  0  0  0
  150.2154  135.9499  154.5695 H   0  0  0  0  0  0  0  0  0  0  0  0
  149.1087  133.2991  156.7446 H   0  0  0  0  0  0  0  0  0  0  0  0
  151.4559  132.8813  154.8566 H   0  0  0  0  0  0  0  0  0  0  0  0
  151.0867  132.0151  156.3516 H   0  0  0  0  0  0  0  0  0  0  0  0
  150.2710  130.9510  154.0144 H   0  0  0  0  0  0  0  0  0  0  0  0
  149.1106  131.0248  155.3469 H   0  0  0  0  0  0  0  0  0  0  0  0
  149.3856  132.9777  153.0310 H   0  0  0  0  0  0  0  0  0  0  0  0
  147.9033  132.2487  153.6537 H   0  0  0  0  0  0  0  0  0  0  0  0
  1  2  1  0  0  0  0
  1 26  1  0  0  0  0
  1 27  1  0  0  0  0
  1 28  1  0  0  0  0
  2  3  1  0  0  0  0
  2 29  1  0  0  0  0
  2 30  1  0  0  0  0
  3  8  1  0  0  0  0
  3  4  1  0  0  0  0
  3 31  1  0  0  0  0
  4  5  1  0  0  0  0
  4 32  1  0  0  0  0
  4 33  1  0  0  0  0
  5  6  1  0  0  0  0
  5 34  1  0  0  0  0
  5 35  1  0  0  0  0
  6  7  1  0  0  0  0
  6  8  1  0  0  0  0
  6 36  1  0  0  0  0
  7 37  1  0  0  0  0
  7 38  1  0  0  0  0
  7 39  1  0  0  0  0
  8  9  1  0  0  0  0
  9 14  1  0  0  0  0
  9 10  2  0  0  0  0
 10 11  1  0  0  0  0
 11 12  2  0  0  0  0
 11 40  1  0  0  0  0
 12 13  1  0  0  0  0
 13 17  1  0  0  0  0
 13 14  2  0  0  0  0
 14 15  1  0  0  0  0
 15 16  2  0  0  0  0
 16 17  1  0  0  0  0
 16 41  1  0  0  0  0
 17 18  1  0  0  0  0
 18 19  1  0  0  0  0
 18 42  1  0  0  0  0
 18 43  1  0  0  0  0
 19 20  1  0  0  0  0
 19 21  1  0  0  0  0
 19 44  1  0  0  0  0
 20 45  1  0  0  0  0
 21 25  1  0  0  0  0
 21 22  1  0  0  0  0
 21 46  1  0  0  0  0
 22 23  1  0  0  0  0
 22 47  1  0  0  0  0
 22 48  1  0  0  0  0
 23 24  1  0  0  0  0
 23 49  1  0  0  0  0
 23 50  1  0  0  0  0
 24 25  1  0  0  0  0
 24 51  1  0  0  0  0
 24 52  1  0  0  0  0
M  END
> <s_m_source_file>
AV-unprocessed.smi

> <i_m_source_file_index>
232

> <i_lp_mmshare_version>
43012

> <i_f3d_flags>
0

> <s_epik_input>
W0NIM11bQ0gyXVtDQEBIXTFbQ0gyXVtDSDJdW0NAQEhdKFtDSDNdKU4xYyhuW2NIXW4yKWMoYzIzKW5bY0hdbjNbQ0gyXVtDQEhdKFtPSF0pW0NAQEhdNFtDSDJdW0NIMl1bQ0gyXU80

> <s_epik_cmdline>
J2VwaWtfcHl0aG9uJywgJy1waCcsICc3LjAnLCAnLXRuJywgJzgnLCAnLW1hJywgJzIwMCcsICctbWV0YWxfYmluZGluZycsICctaW1hZScsICc8aW5maWxlLm1hZT4nLCAnLW9tYWUnLCAnPG91dGZpbGUubWFlPic=

> <r_lp_tautomer_probability>
1

> <r_epik_Ionization_Penalty>
0.00258048

> <r_epik_Ionization_Penalty_Charging>
0

> <r_epik_Ionization_Penalty_Neutral>
0.00258048

> <r_epik_State_Penalty>
0.00168551

> <r_epik_Charging_Adjusted_Penalty>
0.00168551

> <i_epik_Tot_Q>
0

> <i_epik_Tot_abs_Q>
0

> <r_epik_Metal_State_Penalty>
-0

> <b_epik_Metal_Only>
0

> <s_lp_Force_Field>
OPLS_2005

> <r_lp_Energy>
54.2743

> <b_lp_Chiralities_Consistent>
1

> <s_lp_Variant>
AV-unprocessed.smi:232-3

> <Gold.Version>
5.8.1

> <Gold.Id.Protein>
6NUR|6NUR_protein|mol2

> <Gold.PLP.Fitness>
45.3011

> <Gold.PLP.PLP>
-40.0808

> <Gold.PLP.part.hbond>
-2.9177

> <Gold.PLP.part.metal>
0.0000

> <Gold.PLP.part.buried>
-4.0230

> <Gold.PLP.part.nonpolar>
-33.3370

> <Gold.PLP.part.repulsive>
0.0942

> <Gold.PLP.ligand.clash>
0.0000

> <Gold.PLP.ligand.torsion>
0.4419

> <Gold.PLP.Chemscore.Hbond>
2.0000

> <Gold.PLP.Chemscore.CHOScore>
0.0000

> <Gold.PLP.Chemscore.Metal>
0.0000

> <Gold.Chemscore.Hbonds>
donor molecule, donor type, donor heavy atom, donor atom, acceptor molecule, acceptor atom, score
      P1  H  7997  8010       L1    10  1.00
      P1  H 10752 10764       L1    20  0.88

> <Gold.PLP.Chemscore.Internal.Correction>
0.1041

> <Gold.Rescore>
     Score         DG    S(hbond)    S(metal)    S(lipo)     H(rot)  DE(clash)    DE(int)     intcor
     15.57     -16.03       1.72        0.00      94.15       2.43       0.05       0.42       ----

> <Gold.Chemscore.Fitness>
15.5669

> <Gold.Chemscore.DG>
-16.0341

> <Gold.Chemscore.ZeroCoef>
-5.4800

> <Gold.Chemscore.Hbond>
1.7212

> <Gold.Chemscore.Metal>
0.0000

> <Gold.Chemscore.Lipo>
94.1543

> <Gold.Chemscore.Internal_Hbond>
0.0000

> <Gold.Chemscore.DEClash>
0.0482

> <Gold.Chemscore.DEInternal>
0.4190

> <Gold.Chemscore.Rot>
2.4260

> <Gold.Chemscore.Internal.Correction>
   9.000000E+99

> <Gold.Chemscore.Hbonds>
donor molecule, donor type, donor heavy atom, donor atom, acceptor molecule, acceptor atom, score
      P1  H  7997  8010       L1    10  0.63
      P1  H 10752 10764       L1    20  0.84

> <Gold.Chemscore.Hbond.Weighted>
-5.7487

> <Gold.Chemscore.Metal.Weighted>
-0.0000

> <Gold.Chemscore.Lipo.Weighted>
-11.0161

> <Gold.Chemscore.Internal_Hbond.Weighted>
0.0000

> <Gold.Chemscore.DEClash.Weighted>
0.0482

> <Gold.Chemscore.DEInternal.Weighted>
0.4190

> <Gold.Chemscore.Rot.Weighted>
6.2107

> <Gold.Chemscore.Internal.Correction.Weighted>
   9.000000E+99

> <Gold.Protein.RotatedTorsions>
[ 6907 6896 6895 6894 ] final -150.14 input  -60.11 | X-H torsion
[ 7974 7965 7964 7962 ] final   -8.17 input  175.53 | X-H torsion
[ 8008 7997 7996 7995 ] final   82.51 input   59.86 | X-H torsion
[ 10167 10162 10161 10158 ] final  -49.84 input  -65.29 | X-H torsion
[ 10718 10713 10712 10709 ] final   95.54 input   66.30 | X-H torsion
[ 10763 10752 10751 10750 ] final  -52.69 input  -60.55 | X-H torsion
[ 11005 11000 10999 10996 ] final  118.34 input  -57.11 | X-H torsion

> <Gold.Protein.ActiveResidues>
 VAL166  LYS551  ARG553  GLY616  TRP617  ASP618  TYR619  PRO620  LYS621  CYS622 
 ASP623  PHE694  ASN695  SER759  ASP760  ASP761  ALA762  ILE779  LEU786  VAL792 
 PHE793  MET794  SER795  GLU796  ALA797  LYS798  CYS799  TRP800  GLU811  SER814 

> <Gold.Protein.RotatedAtoms>
  151.1942  133.4649  159.2595 H   0  0  0  0  0  0  0  0  0  0  0  0  # atno 6907 bound_to 6896
  151.1133  135.0039  159.8514 H   0  0  0  0  0  0  0  0  0  0  0  0  # atno 6908 bound_to 6896
  152.5452  134.1859  159.8707 H   0  0  0  0  0  0  0  0  0  0  0  0  # atno 6909 bound_to 6896
  146.2287  140.2429  142.8344 H   0  0  0  0  0  0  0  0  0  0  0  0  # atno 7974 bound_to 7965
  155.9115  140.3427  155.6102 H   0  0  0  0  0  0  0  0  0  0  0  0  # atno 8008 bound_to 7997
  155.7382  140.0804  157.2277 H   0  0  0  0  0  0  0  0  0  0  0  0  # atno 8009 bound_to 7997
  154.4056  140.1575  156.2573 H   0  0  0  0  0  0  0  0  0  0  0  0  # atno 8010 bound_to 7997
  140.6666  143.2681  151.4274 H   0  0  0  0  0  0  0  0  0  0  0  0  # atno 10167 bound_to 10162
  157.6937  131.0549  150.4354 H   0  0  0  0  0  0  0  0  0  0  0  0  # atno 10718 bound_to 10713
  154.1467  135.6496  153.4954 H   0  0  0  0  0  0  0  0  0  0  0  0  # atno 10763 bound_to 10752
  153.0150  135.5328  154.6849 H   0  0  0  0  0  0  0  0  0  0  0  0  # atno 10764 bound_to 10752
  154.6126  135.2955  155.0386 H   0  0  0  0  0  0  0  0  0  0  0  0  # atno 10765 bound_to 10752
  139.9106  134.9619  156.7488 H   0  0  0  0  0  0  0  0  0  0  0  0  # atno 11005 bound_to 11000
  144.9471  140.8139  143.5595 LP  0  0  0  0  0  0  0  0  0  0  0  0  # atno 17320 bound_to 7965
  145.2386  139.2083  143.5005 LP  0  0  0  0  0  0  0  0  0  0  0  0  # atno 17321 bound_to 7965
  139.5917  144.1485  152.2096 LP  0  0  0  0  0  0  0  0  0  0  0  0  # atno 17342 bound_to 10162
  140.0841  144.5676  150.7101 LP  0  0  0  0  0  0  0  0  0  0  0  0  # atno 17343 bound_to 10162
  156.4717  130.4054  149.6514 LP  0  0  0  0  0  0  0  0  0  0  0  0  # atno 17370 bound_to 10713
  156.3592  130.7472  151.2442 LP  0  0  0  0  0  0  0  0  0  0  0  0  # atno 17371 bound_to 10713
  140.6790  133.9491  155.7899 LP  0  0  0  0  0  0  0  0  0  0  0  0  # atno 17394 bound_to 11000
  141.0524  134.0466  157.3767 LP  0  0  0  0  0  0  0  0  0  0  0  0  # atno 17395 bound_to 11000

$$$$
