AV-unprocessed.smi:2867|AV-procd|sdf|11025|dock7
  -GOLD-   2272015483D 1   1.00000     0.00000
 Structure written by MMmdl.
 39 41  0  0  0  0  0  0  0  0  2 V2000
  148.2826  140.9400  154.5493 C   0  0  0  0  0  0  0  0  0  0  0  0
  149.4094  141.6959  154.9573 O   0  0  0  0  0  0  0  0  0  0  0  0
  150.3608  140.9144  155.6578 C   0  0  0  0  0  0  0  0  0  0  0  0
  150.4553  141.4245  157.1004 C   0  0  0  0  0  0  0  0  0  0  0  0
  151.5714  140.8160  157.8058 N   0  0  0  0  0  0  0  0  0  0  0  0
  152.3634  141.3823  158.7512 C   0  0  0  0  0  0  0  0  0  0  0  0
  152.2201  142.7530  159.2191 C   0  0  0  0  0  0  0  0  0  0  0  0
  151.8675  143.7805  158.3188 C   0  0  0  0  0  0  0  0  0  0  0  0
  151.7289  145.1047  158.7784 C   0  0  0  0  0  0  0  0  0  0  0  0
  151.9458  145.4049  160.1374 C   0  0  0  0  0  0  0  0  0  0  0  0
  152.3038  144.3815  161.0369 C   0  0  0  0  0  0  0  0  0  0  0  0
  152.5126  144.6708  162.3430 F   0  0  0  0  0  0  0  0  0  0  0  0
  152.4434  143.0574  160.5780 C   0  0  0  0  0  0  0  0  0  0  0  0
  153.3021  140.5791  159.2560 N   0  0  0  0  0  0  0  0  0  0  0  0
  153.1001  139.3927  158.5783 C   0  0  0  0  0  0  0  0  0  0  0  0
  153.7748  138.1557  158.6707 C   0  0  0  0  0  0  0  0  0  0  0  0
  153.3691  137.0682  157.8680 C   0  0  0  0  0  0  0  0  0  0  0  0
  154.2334  135.5057  158.0035 S   0  0  0  0  0  0  0  0  0  0  0  0
  154.0930  135.3373  159.6016 N   0  5  0  0  0  0  0  0  0  0  0  0
  153.4416  134.5184  157.2535 O   0  0  0  0  0  0  0  0  0  0  0  0
  155.6187  135.7553  157.5755 O   0  0  0  0  0  0  0  0  0  0  0  0
  152.2930  137.1967  156.9638 C   0  0  0  0  0  0  0  0  0  0  0  0
  151.6121  138.4246  156.8584 C   0  0  0  0  0  0  0  0  0  0  0  0
  152.0186  139.5076  157.6612 C   0  0  0  0  0  0  0  0  0  0  0  0
  147.5789  141.5857  154.0241 H   0  0  0  0  0  0  0  0  0  0  0  0
  147.7662  140.5057  155.4062 H   0  0  0  0  0  0  0  0  0  0  0  0
  148.5725  140.1365  153.8707 H   0  0  0  0  0  0  0  0  0  0  0  0
  150.0621  139.8648  155.6469 H   0  0  0  0  0  0  0  0  0  0  0  0
  151.3349  140.9858  155.1707 H   0  0  0  0  0  0  0  0  0  0  0  0
  150.5846  142.5072  157.1080 H   0  0  0  0  0  0  0  0  0  0  0  0
  149.5305  141.2224  157.6399 H   0  0  0  0  0  0  0  0  0  0  0  0
  151.7012  143.5536  157.2755 H   0  0  0  0  0  0  0  0  0  0  0  0
  151.4566  145.8902  158.0890 H   0  0  0  0  0  0  0  0  0  0  0  0
  151.8386  146.4203  160.4895 H   0  0  0  0  0  0  0  0  0  0  0  0
  152.7172  142.2746  161.2705 H   0  0  0  0  0  0  0  0  0  0  0  0
  154.5966  138.0417  159.3621 H   0  0  0  0  0  0  0  0  0  0  0  0
  155.0393  135.3336  159.9998 H   0  0  0  0  0  0  0  0  0  0  0  0
  151.9866  136.3572  156.3573 H   0  0  0  0  0  0  0  0  0  0  0  0
  150.7855  138.5296  156.1717 H   0  0  0  0  0  0  0  0  0  0  0  0
  1  2  1  0  0  0  0
  1 25  1  0  0  0  0
  1 26  1  0  0  0  0
  1 27  1  0  0  0  0
  2  3  1  0  0  0  0
  3  4  1  0  0  0  0
  3 28  1  0  0  0  0
  3 29  1  0  0  0  0
  4  5  1  0  0  0  0
  4 30  1  0  0  0  0
  4 31  1  0  0  0  0
  5 24  1  0  0  0  0
  5  6  1  0  0  0  0
  6  7  1  0  0  0  0
  6 14  2  0  0  0  0
  7 13  1  0  0  0  0
  7  8  2  0  0  0  0
  8  9  1  0  0  0  0
  8 32  1  0  0  0  0
  9 10  2  0  0  0  0
  9 33  1  0  0  0  0
 10 11  1  0  0  0  0
 10 34  1  0  0  0  0
 11 12  1  0  0  0  0
 11 13  2  0  0  0  0
 13 35  1  0  0  0  0
 14 15  1  0  0  0  0
 15 24  2  0  0  0  0
 15 16  1  0  0  0  0
 16 17  2  0  0  0  0
 16 36  1  0  0  0  0
 17 18  1  0  0  0  0
 17 22  1  0  0  0  0
 18 19  1  0  0  0  0
 18 20  2  0  0  0  0
 18 21  2  0  0  0  0
 19 37  1  0  0  0  0
 22 23  2  0  0  0  0
 22 38  1  0  0  0  0
 23 24  1  0  0  0  0
 23 39  1  0  0  0  0
M  CHG  1  19  -1
M  END
> <s_m_source_file>
AV-unprocessed.smi

> <i_m_source_file_index>
2867

> <i_lp_mmshare_version>
43012

> <i_f3d_flags>
0

> <s_epik_input>
W05IMl1TKD1PKSg9TyljKFtjSF0xKVtjSF1bY0hdYyhjMTIpbihbQ0gyXVtDSDJdT1tDSDNdKWMobjIpLWMzW2NIXVtjSF1bY0hdYyhGKVtjSF0z

> <s_epik_cmdline>
J2VwaWtfcHl0aG9uJywgJy1waCcsICc3LjAnLCAnLXRuJywgJzgnLCAnLW1hJywgJzIwMCcsICctbWV0YWxfYmluZGluZycsICctaW1hZScsICc8aW5maWxlLm1hZT4nLCAnLW9tYWUnLCAnPG91dGZpbGUubWFlPic=

> <r_epik_Ionization_Penalty>
4.13732

> <r_epik_Ionization_Penalty_Charging>
3.73366

> <r_epik_Ionization_Penalty_Neutral>
0.403663

> <r_epik_State_Penalty>
3.79183

> <r_epik_Charging_Adjusted_Penalty>
7.52549

> <i_epik_Tot_Q>
-1

> <i_epik_Tot_abs_Q>
1

> <r_epik_Metal_State_Penalty>
0.634538

> <b_epik_Metal_Only>
1

> <s_lp_Force_Field>
OPLS_2005

> <r_lp_Energy>
13.7357

> <b_lp_Chiralities_Consistent>
1

> <s_lp_Variant>
AV-unprocessed.smi:2867-3

> <Gold.Version>
5.8.1

> <Gold.Id.Protein>
6NUR|6NUR_protein|mol2

> <Gold.PLP.Fitness>
50.2393

> <Gold.PLP.PLP>
-42.8815

> <Gold.PLP.part.hbond>
-3.3071

> <Gold.PLP.part.metal>
0.0000

> <Gold.PLP.part.buried>
-0.8225

> <Gold.PLP.part.nonpolar>
-38.0744

> <Gold.PLP.part.repulsive>
0.1673

> <Gold.PLP.ligand.clash>
0.0000

> <Gold.PLP.ligand.torsion>
2.3764

> <Gold.PLP.Chemscore.Hbond>
2.9675

> <Gold.PLP.Chemscore.CHOScore>
0.0000

> <Gold.PLP.Chemscore.Metal>
0.0000

> <Gold.Chemscore.Hbonds>
donor molecule, donor type, donor heavy atom, donor atom, acceptor molecule, acceptor atom, score
      P1  H  6896  6908       L1    19  2.00
      P1  H 10752 10765       L1    20  0.75

> <Gold.PLP.Chemscore.Internal.Correction>
3.2082

> <Gold.Rescore>
     Score         DG    S(hbond)    S(metal)    S(lipo)     H(rot)  DE(clash)    DE(int)     intcor
     17.14     -22.51       1.92        0.00     122.06       1.43       1.10       4.27       ----

> <Gold.Chemscore.Fitness>
17.1431

> <Gold.Chemscore.DG>
-22.5091

> <Gold.Chemscore.ZeroCoef>
-5.4800

> <Gold.Chemscore.Hbond>
1.9195

> <Gold.Chemscore.Metal>
0.0000

> <Gold.Chemscore.Lipo>
122.0592

> <Gold.Chemscore.Internal_Hbond>
0.0000

> <Gold.Chemscore.DEClash>
1.0971

> <Gold.Chemscore.DEInternal>
4.2689

> <Gold.Chemscore.Rot>
1.4308

> <Gold.Chemscore.Internal.Correction>
   9.000000E+99

> <Gold.Chemscore.Hbonds>
donor molecule, donor type, donor heavy atom, donor atom, acceptor molecule, acceptor atom, score
      P1  H  6896  6908       L1    19  0.72
      P1  H 10752 10765       L1    20  0.10

> <Gold.Chemscore.Hbond.Weighted>
-6.4110

> <Gold.Chemscore.Metal.Weighted>
-0.0000

> <Gold.Chemscore.Lipo.Weighted>
-14.2809

> <Gold.Chemscore.Internal_Hbond.Weighted>
0.0000

> <Gold.Chemscore.DEClash.Weighted>
1.0971

> <Gold.Chemscore.DEInternal.Weighted>
4.2689

> <Gold.Chemscore.Rot.Weighted>
3.6628

> <Gold.Chemscore.Internal.Correction.Weighted>
   9.000000E+99

> <Gold.Protein.RotatedTorsions>
[ 6907 6896 6895 6894 ] final  -68.11 input  -60.11 | X-H torsion
[ 7974 7965 7964 7962 ] final -121.50 input  175.53 | X-H torsion
[ 8008 7997 7996 7995 ] final  177.34 input   59.86 | X-H torsion
[ 10167 10162 10161 10158 ] final   31.69 input  -65.29 | X-H torsion
[ 10718 10713 10712 10709 ] final  102.94 input   66.30 | X-H torsion
[ 10763 10752 10751 10750 ] final -105.55 input  -60.55 | X-H torsion
[ 11005 11000 10999 10996 ] final  -92.13 input  -57.11 | X-H torsion

> <Gold.Protein.ActiveResidues>
 VAL166  LYS551  ARG553  GLY616  TRP617  ASP618  TYR619  PRO620  LYS621  CYS622 
 ASP623  PHE694  ASN695  SER759  ASP760  ASP761  ALA762  ILE779  LEU786  VAL792 
 PHE793  MET794  SER795  GLU796  ALA797  LYS798  CYS799  TRP800  GLU811  SER814 

> <Gold.Protein.RotatedAtoms>
  150.7373  134.5785  159.5926 H   0  0  0  0  0  0  0  0  0  0  0  0  # atno 6907 bound_to 6896
  152.3205  134.7383  160.0324 H   0  0  0  0  0  0  0  0  0  0  0  0  # atno 6908 bound_to 6896
  151.7900  133.3322  159.3533 H   0  0  0  0  0  0  0  0  0  0  0  0  # atno 6909 bound_to 6896
  145.0396  140.8134  143.4274 H   0  0  0  0  0  0  0  0  0  0  0  0  # atno 7974 bound_to 7965
  156.0668  140.1361  156.9877 H   0  0  0  0  0  0  0  0  0  0  0  0  # atno 8008 bound_to 7997
  154.4510  140.0980  156.6670 H   0  0  0  0  0  0  0  0  0  0  0  0  # atno 8009 bound_to 7997
  155.5292  140.3458  155.4425 H   0  0  0  0  0  0  0  0  0  0  0  0  # atno 8010 bound_to 7997
  140.4566  144.0969  150.6203 H   0  0  0  0  0  0  0  0  0  0  0  0  # atno 10167 bound_to 10162
  157.6787  131.0766  150.5479 H   0  0  0  0  0  0  0  0  0  0  0  0  # atno 10718 bound_to 10713
  154.7954  135.4745  154.0148 H   0  0  0  0  0  0  0  0  0  0  0  0  # atno 10763 bound_to 10752
  153.1695  135.6822  153.8635 H   0  0  0  0  0  0  0  0  0  0  0  0  # atno 10764 bound_to 10752
  153.8222  135.3202  155.3389 H   0  0  0  0  0  0  0  0  0  0  0  0  # atno 10765 bound_to 10752
  141.1529  133.7801  156.9977 H   0  0  0  0  0  0  0  0  0  0  0  0  # atno 11005 bound_to 11000
  145.1664  139.2429  143.5364 LP  0  0  0  0  0  0  0  0  0  0  0  0  # atno 17320 bound_to 7965
  146.3508  140.1404  142.8594 LP  0  0  0  0  0  0  0  0  0  0  0  0  # atno 17321 bound_to 7965
  140.4143  143.2641  151.9794 LP  0  0  0  0  0  0  0  0  0  0  0  0  # atno 17342 bound_to 10162
  139.4802  144.5887  151.7808 LP  0  0  0  0  0  0  0  0  0  0  0  0  # atno 17343 bound_to 10162
  156.5784  130.4298  149.5988 LP  0  0  0  0  0  0  0  0  0  0  0  0  # atno 17370 bound_to 10713
  156.2681  130.7001  151.1791 LP  0  0  0  0  0  0  0  0  0  0  0  0  # atno 17371 bound_to 10713
  140.0961  134.9564  157.1851 LP  0  0  0  0  0  0  0  0  0  0  0  0  # atno 17394 bound_to 11000
  140.3381  134.2734  155.7216 LP  0  0  0  0  0  0  0  0  0  0  0  0  # atno 17395 bound_to 11000

$$$$
