AV-unprocessed.smi:564|AV-procd|sdf|2950|dock6
  -GOLD-   2262023453D 1   1.00000     0.00000
 Structure written by MMmdl.
 50 51  0  0  0  0  0  0  0  0  2 V2000
  155.8903  134.2822  160.4394 C   0  0  0  0  0  0  0  0  0  0  0  0
  155.8775  135.0341  161.7400 C   0  0  0  0  0  0  0  0  0  0  0  0
  156.0217  134.3685  162.8733 N   0  0  0  0  0  0  0  0  0  0  0  0
  155.9669  135.3103  163.8361 N   0  0  0  0  0  0  0  0  0  0  0  0
  156.0899  134.9150  165.2257 C   0  0  0  0  0  0  0  0  0  0  0  0
  155.7978  136.5754  163.3094 C   0  0  0  0  0  0  0  0  0  0  0  0
  155.7130  137.7940  164.1709 C   0  0  0  0  0  0  0  0  0  0  0  0
  155.7411  136.4384  161.9479 C   0  0  0  0  0  0  0  0  0  0  0  0
  155.5877  137.5129  160.9005 C   0  0  0  0  0  0  0  0  0  0  0  0
  154.1840  137.4216  160.3056 C   0  0  0  0  0  0  0  0  0  0  0  0
  153.7581  136.3464  159.8858 O   0  0  0  0  0  0  0  0  0  0  0  0
  153.4578  138.5498  160.3233 N   0  0  0  0  0  0  0  0  0  0  0  0
  152.0438  138.6452  159.9761 C   0  0  0  0  0  0  0  0  0  0  0  0
  151.7694  139.7220  158.9013 C   0  0  0  0  0  0  0  0  0  0  0  0
  151.6153  141.0969  159.4632 N   0  3  1  0  0  0  0  0  0  0  0  0
  152.9208  141.6217  159.9556 C   0  0  0  0  0  0  0  0  0  0  0  0
  152.7758  142.9817  160.6505 C   0  0  0  0  0  0  0  0  0  0  0  0
  152.1358  143.9967  159.7051 C   0  0  0  0  0  0  0  0  0  0  0  0
  150.7909  143.4532  159.2195 C   0  0  0  0  0  0  0  0  0  0  0  0
  150.9224  142.0656  158.5523 C   0  0  2  0  0  0  0  0  0  0  0  0
  149.5128  141.5958  158.1355 C   0  0  0  0  0  0  0  0  0  0  0  0
  156.8044  134.4843  159.8815 H   0  0  0  0  0  0  0  0  0  0  0  0
  155.0467  134.5712  159.8125 H   0  0  0  0  0  0  0  0  0  0  0  0
  155.8302  133.2042  160.5951 H   0  0  0  0  0  0  0  0  0  0  0  0
  155.2068  135.2367  165.7781 H   0  0  0  0  0  0  0  0  0  0  0  0
  156.9734  135.3807  165.6624 H   0  0  0  0  0  0  0  0  0  0  0  0
  156.1846  133.8316  165.3118 H   0  0  0  0  0  0  0  0  0  0  0  0
  155.8121  138.7037  163.5786 H   0  0  0  0  0  0  0  0  0  0  0  0
  156.5046  137.8007  164.9205 H   0  0  0  0  0  0  0  0  0  0  0  0
  154.7551  137.8335  164.6895 H   0  0  0  0  0  0  0  0  0  0  0  0
  155.7378  138.5089  161.3184 H   0  0  0  0  0  0  0  0  0  0  0  0
  156.3252  137.4040  160.1043 H   0  0  0  0  0  0  0  0  0  0  0  0
  153.9013  139.3899  160.6668 H   0  0  0  0  0  0  0  0  0  0  0  0
  151.7221  137.6666  159.6202 H   0  0  0  0  0  0  0  0  0  0  0  0
  151.4535  138.8460  160.8713 H   0  0  0  0  0  0  0  0  0  0  0  0
  152.5518  139.7123  158.1412 H   0  0  0  0  0  0  0  0  0  0  0  0
  150.8622  139.4105  158.3911 H   0  0  0  0  0  0  0  0  0  0  0  0
  153.3658  140.9234  160.6635 H   0  0  0  0  0  0  0  0  0  0  0  0
  153.6160  141.7062  159.1187 H   0  0  0  0  0  0  0  0  0  0  0  0
  152.1680  142.8776  161.5494 H   0  0  0  0  0  0  0  0  0  0  0  0
  153.7524  143.3407  160.9764 H   0  0  0  0  0  0  0  0  0  0  0  0
  151.9960  144.9511  160.2139 H   0  0  0  0  0  0  0  0  0  0  0  0
  152.7930  144.1845  158.8550 H   0  0  0  0  0  0  0  0  0  0  0  0
  150.1056  143.3898  160.0645 H   0  0  0  0  0  0  0  0  0  0  0  0
  150.3477  144.1644  158.5215 H   0  0  0  0  0  0  0  0  0  0  0  0
  151.5292  142.1751  157.6520 H   0  0  0  0  0  0  0  0  0  0  0  0
  148.9639  142.3989  157.6429 H   0  0  0  0  0  0  0  0  0  0  0  0
  148.9274  141.2820  158.9998 H   0  0  0  0  0  0  0  0  0  0  0  0
  149.5388  140.7720  157.4233 H   0  0  0  0  0  0  0  0  0  0  0  0
  151.0156  141.0053  160.2711 H   0  0  0  0  0  0  0  0  0  0  0  0
  1  2  1  0  0  0  0
  1 22  1  0  0  0  0
  1 23  1  0  0  0  0
  1 24  1  0  0  0  0
  2  8  1  0  0  0  0
  2  3  2  0  0  0  0
  3  4  1  0  0  0  0
  4  5  1  0  0  0  0
  4  6  1  0  0  0  0
  5 25  1  0  0  0  0
  5 26  1  0  0  0  0
  5 27  1  0  0  0  0
  6  7  1  0  0  0  0
  6  8  2  0  0  0  0
  7 28  1  0  0  0  0
  7 29  1  0  0  0  0
  7 30  1  0  0  0  0
  8  9  1  0  0  0  0
  9 10  1  0  0  0  0
  9 31  1  0  0  0  0
  9 32  1  0  0  0  0
 10 11  2  0  0  0  0
 10 12  1  0  0  0  0
 12 13  1  0  0  0  0
 12 33  1  0  0  0  0
 13 14  1  0  0  0  0
 13 34  1  0  0  0  0
 13 35  1  0  0  0  0
 14 15  1  0  0  0  0
 14 36  1  0  0  0  0
 14 37  1  0  0  0  0
 15 20  1  0  0  0  0
 15 16  1  0  0  0  0
 15 50  1  0  0  0  0
 16 17  1  0  0  0  0
 16 38  1  0  0  0  0
 16 39  1  0  0  0  0
 17 18  1  0  0  0  0
 17 40  1  0  0  0  0
 17 41  1  0  0  0  0
 18 19  1  0  0  0  0
 18 42  1  0  0  0  0
 18 43  1  0  0  0  0
 19 20  1  0  0  0  0
 19 44  1  0  0  0  0
 19 45  1  0  0  0  0
 20 21  1  0  0  0  0
 20 46  1  0  0  0  0
 21 47  1  0  0  0  0
 21 48  1  0  0  0  0
 21 49  1  0  0  0  0
M  CHG  1  15   1
M  END
> <s_m_source_file>
AV-unprocessed.smi

> <i_m_source_file_index>
564

> <i_lp_mmshare_version>
43012

> <i_f3d_flags>
0

> <s_epik_input>
W0NIM11jMW5uKFtDSDNdKWMoW0NIM10pYzFbQ0gyXUMoPU8pW05IXVtDSDJdW0NIMl1OMltDSDJdW0NIMl1bQ0gyXVtDSDJdW0NASF0yW0NIM10=

> <s_epik_cmdline>
J2VwaWtfcHl0aG9uJywgJy1waCcsICc3LjAnLCAnLXRuJywgJzgnLCAnLW1hJywgJzIwMCcsICctbWV0YWxfYmluZGluZycsICctaW1hZScsICc8aW5maWxlLm1hZT4nLCAnLW9tYWUnLCAnPG91dGZpbGUubWFlPic=

> <r_lp_tautomer_probability>
1

> <r_epik_Ionization_Penalty>
0.00456826

> <r_epik_Ionization_Penalty_Charging>
0.00240401

> <r_epik_Ionization_Penalty_Neutral>
0.00216425

> <r_epik_State_Penalty>
-0

> <r_epik_Charging_Adjusted_Penalty>
0.00240401

> <i_epik_Tot_Q>
1

> <i_epik_Tot_abs_Q>
1

> <r_epik_Metal_State_Penalty>
-0

> <b_epik_Metal_Only>
0

> <s_lp_Force_Field>
OPLS_2005

> <r_lp_Energy>
16.3925

> <b_lp_Chiralities_Consistent>
1

> <s_lp_Variant>
AV-unprocessed.smi:564-4

> <Gold.Version>
5.8.1

> <Gold.Id.Protein>
6NUR|6NUR_protein|mol2

> <Gold.PLP.Fitness>
43.8208

> <Gold.PLP.PLP>
-41.7074

> <Gold.PLP.part.hbond>
-1.0000

> <Gold.PLP.part.metal>
0.0000

> <Gold.PLP.part.buried>
-4.8454

> <Gold.PLP.part.nonpolar>
-35.9984

> <Gold.PLP.part.repulsive>
0.1878

> <Gold.PLP.ligand.clash>
0.0000

> <Gold.PLP.ligand.torsion>
0.4624

> <Gold.PLP.Chemscore.Hbond>
1.0000

> <Gold.PLP.Chemscore.CHOScore>
0.0000

> <Gold.PLP.Chemscore.Metal>
0.0000

> <Gold.Chemscore.Hbonds>
donor molecule, donor type, donor heavy atom, donor atom, acceptor molecule, acceptor atom, score
      P1  H  6896  6908       L1    11  0.67

> <Gold.PLP.Chemscore.Internal.Correction>
0.0381

> <Gold.Rescore>
     Score         DG    S(hbond)    S(metal)    S(lipo)     H(rot)  DE(clash)    DE(int)     intcor
     17.00     -18.05       1.00        0.00     114.24       1.61       0.04       1.01       ----

> <Gold.Chemscore.Fitness>
16.9969

> <Gold.Chemscore.DG>
-18.0471

> <Gold.Chemscore.ZeroCoef>
-5.4800

> <Gold.Chemscore.Hbond>
0.9980

> <Gold.Chemscore.Metal>
0.0000

> <Gold.Chemscore.Lipo>
114.2420

> <Gold.Chemscore.Internal_Hbond>
0.0000

> <Gold.Chemscore.DEClash>
0.0354

> <Gold.Chemscore.DEInternal>
1.0148

> <Gold.Chemscore.Rot>
1.6142

> <Gold.Chemscore.Internal.Correction>
   9.000000E+99

> <Gold.Chemscore.Hbonds>
donor molecule, donor type, donor heavy atom, donor atom, acceptor molecule, acceptor atom, score
      P1  H  6896  6908       L1    11  0.64

> <Gold.Chemscore.Hbond.Weighted>
-3.3332

> <Gold.Chemscore.Metal.Weighted>
-0.0000

> <Gold.Chemscore.Lipo.Weighted>
-13.3663

> <Gold.Chemscore.Internal_Hbond.Weighted>
0.0000

> <Gold.Chemscore.DEClash.Weighted>
0.0354

> <Gold.Chemscore.DEInternal.Weighted>
1.0148

> <Gold.Chemscore.Rot.Weighted>
4.1324

> <Gold.Chemscore.Internal.Correction.Weighted>
   9.000000E+99

> <Gold.Protein.RotatedTorsions>
[ 6907 6896 6895 6894 ] final  -53.63 input  -60.11 | X-H torsion
[ 7974 7965 7964 7962 ] final   31.31 input  175.53 | X-H torsion
[ 8008 7997 7996 7995 ] final   -0.80 input   59.86 | X-H torsion
[ 10167 10162 10161 10158 ] final   28.79 input  -65.29 | X-H torsion
[ 10718 10713 10712 10709 ] final  -57.36 input   66.30 | X-H torsion
[ 10763 10752 10751 10750 ] final  -23.74 input  -60.55 | X-H torsion
[ 11005 11000 10999 10996 ] final -173.88 input  -57.11 | X-H torsion

> <Gold.Protein.ActiveResidues>
 VAL166  LYS551  ARG553  GLY616  TRP617  ASP618  TYR619  PRO620  LYS621  CYS622 
 ASP623  PHE694  ASN695  SER759  ASP760  ASP761  ALA762  ILE779  LEU786  VAL792 
 PHE793  MET794  SER795  GLU796  ALA797  LYS798  CYS799  TRP800  GLU811  SER814 

> <Gold.Protein.RotatedAtoms>
  150.8409  134.7701  159.6931 H   0  0  0  0  0  0  0  0  0  0  0  0  # atno 6907 bound_to 6896
  152.4497  134.5417  159.9851 H   0  0  0  0  0  0  0  0  0  0  0  0  # atno 6908 bound_to 6896
  151.5557  133.3373  159.2997 H   0  0  0  0  0  0  0  0  0  0  0  0  # atno 6909 bound_to 6896
  146.1558  139.6673  142.9067 H   0  0  0  0  0  0  0  0  0  0  0  0  # atno 7974 bound_to 7965
  154.6540  140.2575  155.7182 H   0  0  0  0  0  0  0  0  0  0  0  0  # atno 8008 bound_to 7997
  156.2588  140.2862  156.0906 H   0  0  0  0  0  0  0  0  0  0  0  0  # atno 8009 bound_to 7997
  155.1408  140.0380  157.2788 H   0  0  0  0  0  0  0  0  0  0  0  0  # atno 8010 bound_to 7997
  140.4822  144.0599  150.6269 H   0  0  0  0  0  0  0  0  0  0  0  0  # atno 10167 bound_to 10162
  156.1216  130.4166  150.0431 H   0  0  0  0  0  0  0  0  0  0  0  0  # atno 10718 bound_to 10713
  153.6727  135.6971  153.5142 H   0  0  0  0  0  0  0  0  0  0  0  0  # atno 10763 bound_to 10752
  153.2546  135.4264  155.0831 H   0  0  0  0  0  0  0  0  0  0  0  0  # atno 10764 bound_to 10752
  154.8422  135.3540  154.6271 H   0  0  0  0  0  0  0  0  0  0  0  0  # atno 10765 bound_to 10752
  140.4808  134.6077  157.4918 H   0  0  0  0  0  0  0  0  0  0  0  0  # atno 11005 bound_to 11000
  145.4712  141.0436  143.2697 LP  0  0  0  0  0  0  0  0  0  0  0  0  # atno 17320 bound_to 7965
  144.7961  139.6231  143.7092 LP  0  0  0  0  0  0  0  0  0  0  0  0  # atno 17321 bound_to 7965
  140.3844  143.2785  152.0133 LP  0  0  0  0  0  0  0  0  0  0  0  0  # atno 17342 bound_to 10162
  139.4835  144.6129  151.7401 LP  0  0  0  0  0  0  0  0  0  0  0  0  # atno 17343 bound_to 10162
  156.8367  130.9411  151.3634 LP  0  0  0  0  0  0  0  0  0  0  0  0  # atno 17370 bound_to 10713
  157.6399  130.8797  149.9429 LP  0  0  0  0  0  0  0  0  0  0  0  0  # atno 17371 bound_to 10713
  139.9828  134.7110  155.9829 LP  0  0  0  0  0  0  0  0  0  0  0  0  # atno 17394 bound_to 11000
  141.1532  133.6546  156.4078 LP  0  0  0  0  0  0  0  0  0  0  0  0  # atno 17395 bound_to 11000

$$$$
