AV-unprocessed.smi:1560|AV-procd|sdf|6275|dock10
  -GOLD-   22720 6463D 1   1.00000     0.00000
 Structure written by MMmdl.
 47 48  0  0  0  0  0  0  0  0  1 V2000
  148.9964  133.3170  154.6901 C   0  0  0  0  0  0  0  0  0  0  0  0
  148.2553  132.1830  153.9617 C   0  0  0  0  0  0  0  0  0  0  0  0
  147.2203  131.3943  154.8310 C   0  0  1  0  0  0  0  0  0  0  0  0
  147.9627  130.9721  156.1266 C   0  0  0  0  0  0  0  0  0  0  0  0
  146.0688  132.3678  155.2443 C   0  0  0  0  0  0  0  0  0  0  0  0
  145.6880  133.2893  154.1810 N   0  0  0  0  0  0  0  0  0  0  0  0
  144.8070  134.2956  154.2830 C   0  0  0  0  0  0  0  0  0  0  0  0
  144.1998  134.5484  155.3228 O   0  0  0  0  0  0  0  0  0  0  0  0
  144.5576  135.1565  153.0319 C   0  0  0  0  0  0  0  0  0  0  0  0
  144.2627  134.3854  151.8114 N   0  0  0  0  0  0  0  0  0  0  0  0
  143.3356  133.3534  151.8471 C   0  0  0  0  0  0  0  0  0  0  0  0
  143.0392  132.5792  150.7764 C   0  0  0  0  0  0  0  0  0  0  0  0
  143.7032  132.8031  149.4969 C   0  0  0  0  0  0  0  0  0  0  0  0
  143.5054  132.1545  148.4720 O   0  0  0  0  0  0  0  0  0  0  0  0
  144.6281  133.8504  149.5002 N   0  0  0  0  0  0  0  0  0  0  0  0
  144.9383  134.6517  150.5998 C   0  0  0  0  0  0  0  0  0  0  0  0
  145.7819  135.5412  150.4978 O   0  0  0  0  0  0  0  0  0  0  0  0
  146.6697  130.2219  154.0865 N   0  0  0  0  0  0  0  0  0  0  0  0
  145.9631  130.5465  152.8396 C   0  0  0  0  0  0  0  0  0  0  0  0
  145.3176  129.3085  152.1946 C   0  0  0  0  0  0  0  0  0  0  0  0
  146.3113  128.3205  151.9558 O   0  0  0  0  0  0  0  0  0  0  0  0
  146.9745  127.9254  153.1495 C   0  0  0  0  0  0  0  0  0  0  0  0
  147.6346  129.1489  153.8083 C   0  0  0  0  0  0  0  0  0  0  0  0
  145.1141  134.0416  148.6361 H   0  0  0  0  0  0  0  0  0  0  0  0
  149.6711  133.8325  154.0066 H   0  0  0  0  0  0  0  0  0  0  0  0
  149.5988  132.9406  155.5165 H   0  0  0  0  0  0  0  0  0  0  0  0
  148.3041  134.0589  155.0884 H   0  0  0  0  0  0  0  0  0  0  0  0
  147.7763  132.5920  153.0730 H   0  0  0  0  0  0  0  0  0  0  0  0
  149.0017  131.5054  153.5457 H   0  0  0  0  0  0  0  0  0  0  0  0
  148.3784  131.8344  156.6493 H   0  0  0  0  0  0  0  0  0  0  0  0
  148.8008  130.3061  155.9231 H   0  0  0  0  0  0  0  0  0  0  0  0
  147.3033  130.4682  156.8327 H   0  0  0  0  0  0  0  0  0  0  0  0
  145.1833  131.8100  155.5518 H   0  0  0  0  0  0  0  0  0  0  0  0
  146.3688  132.9717  156.1012 H   0  0  0  0  0  0  0  0  0  0  0  0
  146.1386  133.1539  153.2876 H   0  0  0  0  0  0  0  0  0  0  0  0
  143.7328  135.8372  153.2481 H   0  0  0  0  0  0  0  0  0  0  0  0
  145.4236  135.8021  152.8756 H   0  0  0  0  0  0  0  0  0  0  0  0
  142.8241  133.1473  152.7766 H   0  0  0  0  0  0  0  0  0  0  0  0
  142.3088  131.7882  150.8678 H   0  0  0  0  0  0  0  0  0  0  0  0
  145.1685  131.2684  153.0146 H   0  0  0  0  0  0  0  0  0  0  0  0
  146.6496  130.9953  152.1219 H   0  0  0  0  0  0  0  0  0  0  0  0
  144.5342  128.9021  152.8363 H   0  0  0  0  0  0  0  0  0  0  0  0
  144.8485  129.5768  151.2478 H   0  0  0  0  0  0  0  0  0  0  0  0
  146.2635  127.4567  153.8318 H   0  0  0  0  0  0  0  0  0  0  0  0
  147.7264  127.1747  152.9065 H   0  0  0  0  0  0  0  0  0  0  0  0
  148.4279  129.5142  153.1562 H   0  0  0  0  0  0  0  0  0  0  0  0
  148.1095  128.8011  154.7233 H   0  0  0  0  0  0  0  0  0  0  0  0
  1  2  1  0  0  0  0
  1 25  1  0  0  0  0
  1 26  1  0  0  0  0
  1 27  1  0  0  0  0
  2  3  1  0  0  0  0
  2 28  1  0  0  0  0
  2 29  1  0  0  0  0
  3  4  1  0  0  0  0
  3  5  1  0  0  0  0
  3 18  1  0  0  0  0
  4 30  1  0  0  0  0
  4 31  1  0  0  0  0
  4 32  1  0  0  0  0
  5  6  1  0  0  0  0
  5 33  1  0  0  0  0
  5 34  1  0  0  0  0
  6  7  1  0  0  0  0
  6 35  1  0  0  0  0
  7  8  2  0  0  0  0
  7  9  1  0  0  0  0
  9 10  1  0  0  0  0
  9 36  1  0  0  0  0
  9 37  1  0  0  0  0
 10 16  1  0  0  0  0
 10 11  1  0  0  0  0
 11 12  2  0  0  0  0
 11 38  1  0  0  0  0
 12 13  1  0  0  0  0
 12 39  1  0  0  0  0
 13 14  2  0  0  0  0
 13 15  1  0  0  0  0
 15 24  1  0  0  0  0
 15 16  1  0  0  0  0
 16 17  2  0  0  0  0
 18 23  1  0  0  0  0
 18 19  1  0  0  0  0
 19 20  1  0  0  0  0
 19 40  1  0  0  0  0
 19 41  1  0  0  0  0
 20 21  1  0  0  0  0
 20 42  1  0  0  0  0
 20 43  1  0  0  0  0
 21 22  1  0  0  0  0
 22 23  1  0  0  0  0
 22 44  1  0  0  0  0
 22 45  1  0  0  0  0
 23 46  1  0  0  0  0
 23 47  1  0  0  0  0
M  END
> <s_m_source_file>
AV-unprocessed.smi

> <i_m_source_file_index>
1560

> <i_lp_mmshare_version>
43012

> <i_f3d_flags>
0

> <s_epik_input>
W0NIMl0xW0NIMl1PW0NIMl1bQ0gyXU4xW0NAQF0oW0NIM10pKFtDSDJdW0NIM10pW0NIMl1bTkhdQyg9TylbQ0gyXW4yW2NIXVtjSF1jKD1PKVtuSF1jMj1P

> <s_epik_cmdline>
J2VwaWtfcHl0aG9uJywgJy1waCcsICc3LjAnLCAnLXRuJywgJzgnLCAnLW1hJywgJzIwMCcsICctbWV0YWxfYmluZGluZycsICctaW1hZScsICc8aW5maWxlLm1hZT4nLCAnLW9tYWUnLCAnPG91dGZpbGUubWFlPic=

> <r_lp_tautomer_probability>
0.999537

> <r_epik_Ionization_Penalty>
0.321965

> <r_epik_Ionization_Penalty_Charging>
0.00329831

> <r_epik_Ionization_Penalty_Neutral>
0.318667

> <r_epik_State_Penalty>
0.288097

> <r_epik_Charging_Adjusted_Penalty>
0.291396

> <i_epik_Tot_Q>
0

> <i_epik_Tot_abs_Q>
0

> <r_epik_Metal_State_Penalty>
0.654595

> <b_epik_Metal_Only>
0

> <s_lp_Force_Field>
OPLS_2005

> <r_lp_Energy>
42.3402

> <b_lp_Chiralities_Consistent>
1

> <s_lp_Variant>
AV-unprocessed.smi:1560-1

> <Gold.Version>
5.8.1

> <Gold.Id.Protein>
6NUR|6NUR_protein|mol2

> <Gold.PLP.Fitness>
40.4410

> <Gold.PLP.PLP>
-34.0357

> <Gold.PLP.part.hbond>
-1.8691

> <Gold.PLP.part.metal>
0.0000

> <Gold.PLP.part.buried>
-6.8241

> <Gold.PLP.part.nonpolar>
-27.8358

> <Gold.PLP.part.repulsive>
2.8671

> <Gold.PLP.ligand.clash>
0.0000

> <Gold.PLP.ligand.torsion>
0.6934

> <Gold.PLP.Chemscore.Hbond>
1.5676

> <Gold.PLP.Chemscore.CHOScore>
1.0000

> <Gold.PLP.Chemscore.Metal>
0.0000

> <Gold.Chemscore.Hbonds>
donor molecule, donor type, donor heavy atom, donor atom, acceptor molecule, acceptor atom, score
      L1  H    15    24       P1  7921  1.00
      P1  H 10785 10796       L1    14  0.69
      L1  C    11    38       P1 10957  1.00

> <Gold.PLP.Chemscore.Internal.Correction>
0.0893

> <Gold.Rescore>
     Score         DG    S(hbond)    S(metal)    S(lipo)     H(rot)  DE(clash)    DE(int)     intcor
     11.80     -12.43       1.83        0.00      61.63       2.49       0.08       0.55       ----

> <Gold.Chemscore.Fitness>
11.7951

> <Gold.Chemscore.DG>
-12.4312

> <Gold.Chemscore.ZeroCoef>
-5.4800

> <Gold.Chemscore.Hbond>
1.8279

> <Gold.Chemscore.Metal>
0.0000

> <Gold.Chemscore.Lipo>
61.6298

> <Gold.Chemscore.Internal_Hbond>
0.0000

> <Gold.Chemscore.DEClash>
0.0816

> <Gold.Chemscore.DEInternal>
0.5545

> <Gold.Chemscore.Rot>
2.4862

> <Gold.Chemscore.Internal.Correction>
   9.000000E+99

> <Gold.Chemscore.Hbonds>
donor molecule, donor type, donor heavy atom, donor atom, acceptor molecule, acceptor atom, score
      L1  H    15    24       P1  7921  0.97
      P1  H 10785 10796       L1    14  0.60

> <Gold.Chemscore.Hbond.Weighted>
-6.1051

> <Gold.Chemscore.Metal.Weighted>
-0.0000

> <Gold.Chemscore.Lipo.Weighted>
-7.2107

> <Gold.Chemscore.Internal_Hbond.Weighted>
0.0000

> <Gold.Chemscore.DEClash.Weighted>
0.0816

> <Gold.Chemscore.DEInternal.Weighted>
0.5545

> <Gold.Chemscore.Rot.Weighted>
6.3646

> <Gold.Chemscore.Internal.Correction.Weighted>
   9.000000E+99

> <Gold.Protein.RotatedTorsions>
[ 6907 6896 6895 6894 ] final -161.72 input  -60.11 | X-H torsion
[ 7974 7965 7964 7962 ] final   81.77 input  175.53 | X-H torsion
[ 8008 7997 7996 7995 ] final   36.33 input   59.86 | X-H torsion
[ 10167 10162 10161 10158 ] final  166.25 input  -65.29 | X-H torsion
[ 10718 10713 10712 10709 ] final  107.66 input   66.30 | X-H torsion
[ 10763 10752 10751 10750 ] final -148.52 input  -60.55 | X-H torsion
[ 11005 11000 10999 10996 ] final   48.98 input  -57.11 | X-H torsion

> <Gold.Protein.ActiveResidues>
 VAL166  LYS551  ARG553  GLY616  TRP617  ASP618  TYR619  PRO620  LYS621  CYS622 
 ASP623  PHE694  ASN695  SER759  ASP760  ASP761  ALA762  ILE779  LEU786  VAL792 
 PHE793  MET794  SER795  GLU796  ALA797  LYS798  CYS799  TRP800  GLU811  SER814 

> <Gold.Protein.RotatedAtoms>
  151.3691  133.3861  159.2697 H   0  0  0  0  0  0  0  0  0  0  0  0  # atno 6907 bound_to 6896
  150.9665  134.9046  159.7772 H   0  0  0  0  0  0  0  0  0  0  0  0  # atno 6908 bound_to 6896
  152.5169  134.3652  159.9351 H   0  0  0  0  0  0  0  0  0  0  0  0  # atno 6909 bound_to 6896
  145.6337  139.2410  143.2070 H   0  0  0  0  0  0  0  0  0  0  0  0  # atno 7974 bound_to 7965
  155.1857  140.3303  155.4367 H   0  0  0  0  0  0  0  0  0  0  0  0  # atno 8008 bound_to 7997
  156.2460  140.1919  156.6903 H   0  0  0  0  0  0  0  0  0  0  0  0  # atno 8009 bound_to 7997
  154.6240  140.0591  156.9637 H   0  0  0  0  0  0  0  0  0  0  0  0  # atno 8010 bound_to 7997
  139.4921  144.4047  151.9369 H   0  0  0  0  0  0  0  0  0  0  0  0  # atno 10167 bound_to 10162
  157.6619  131.0877  150.6189 H   0  0  0  0  0  0  0  0  0  0  0  0  # atno 10718 bound_to 10713
  154.8228  135.3332  154.6986 H   0  0  0  0  0  0  0  0  0  0  0  0  # atno 10763 bound_to 10752
  153.7616  135.6932  153.4929 H   0  0  0  0  0  0  0  0  0  0  0  0  # atno 10764 bound_to 10752
  153.2106  135.4483  155.0324 H   0  0  0  0  0  0  0  0  0  0  0  0  # atno 10765 bound_to 10752
  140.1143  134.4913  155.8651 H   0  0  0  0  0  0  0  0  0  0  0  0  # atno 11005 bound_to 11000
  146.1336  140.7153  142.9400 LP  0  0  0  0  0  0  0  0  0  0  0  0  # atno 17320 bound_to 7965
  144.7183  140.4288  143.7027 LP  0  0  0  0  0  0  0  0  0  0  0  0  # atno 17321 bound_to 7965
  140.3487  144.3115  150.5953 LP  0  0  0  0  0  0  0  0  0  0  0  0  # atno 17342 bound_to 10162
  140.5504  143.2207  151.7937 LP  0  0  0  0  0  0  0  0  0  0  0  0  # atno 17343 bound_to 10162
  156.6491  130.4480  149.5725 LP  0  0  0  0  0  0  0  0  0  0  0  0  # atno 17370 bound_to 10713
  156.2151  130.6703  151.1310 LP  0  0  0  0  0  0  0  0  0  0  0  0  # atno 17371 bound_to 10713
  141.2137  133.6738  156.6766 LP  0  0  0  0  0  0  0  0  0  0  0  0  # atno 17394 bound_to 11000
  140.3049  134.8133  157.4128 LP  0  0  0  0  0  0  0  0  0  0  0  0  # atno 17395 bound_to 11000

$$$$
