AV-unprocessed.smi:419|AV-procd|sdf|2530|dock5
  -GOLD-   2262022483D 1   1.00000     0.00000
 Structure written by MMmdl.
 44 46  0  0  0  0  0  0  0  0  1 V2000
  143.9758  145.7016  153.8456 C   0  0  0  0  0  0  0  0  0  0  0  0
  143.7216  144.5393  154.6211 O   0  0  0  0  0  0  0  0  0  0  0  0
  144.7292  143.6063  154.7406 C   0  0  0  0  0  0  0  0  0  0  0  0
  144.5446  142.5790  155.6865 C   0  0  0  0  0  0  0  0  0  0  0  0
  145.5241  141.5853  155.8723 C   0  0  0  0  0  0  0  0  0  0  0  0
  146.7126  141.5939  155.1163 C   0  0  0  0  0  0  0  0  0  0  0  0
  147.6184  140.5837  155.3598 O   0  0  0  0  0  0  0  0  0  0  0  0
  149.0000  140.8567  155.1635 C   0  0  0  0  0  0  0  0  0  0  0  0
  149.6400  141.1876  156.5218 C   0  0  2  0  0  0  0  0  0  0  0  0
  148.8867  142.2371  157.0964 O   0  0  0  0  0  0  0  0  0  0  0  0
  151.0923  141.6830  156.3639 C   0  0  0  0  0  0  0  0  0  0  0  0
  151.7573  141.8431  157.6564 N   0  0  0  0  0  0  0  0  0  0  0  0
  152.5163  140.9182  158.2912 C   0  0  0  0  0  0  0  0  0  0  0  0
  152.7668  139.7855  157.8795 O   0  0  0  0  0  0  0  0  0  0  0  0
  152.9503  141.4581  159.4540 N   0  0  0  0  0  0  0  0  0  0  0  0
  153.8000  140.8225  160.4537 C   0  0  0  0  0  0  0  0  0  0  0  0
  152.4580  142.7645  159.5662 C   0  0  0  0  0  0  0  0  0  0  0  0
  152.6262  143.7295  160.5738 C   0  0  0  0  0  0  0  0  0  0  0  0
  151.9841  144.9761  160.3874 C   0  0  0  0  0  0  0  0  0  0  0  0
  151.2049  145.2261  159.2279 C   0  0  0  0  0  0  0  0  0  0  0  0
  151.0532  144.2361  158.2286 C   0  0  0  0  0  0  0  0  0  0  0  0
  151.7046  143.0076  158.4368 C   0  0  0  0  0  0  0  0  0  0  0  0
  146.9031  142.6250  154.1636 C   0  0  0  0  0  0  0  0  0  0  0  0
  145.9230  143.6195  153.9779 C   0  0  0  0  0  0  0  0  0  0  0  0
  143.0901  146.3367  153.8478 H   0  0  0  0  0  0  0  0  0  0  0  0
  144.1967  145.4482  152.8077 H   0  0  0  0  0  0  0  0  0  0  0  0
  144.8000  146.2844  154.2592 H   0  0  0  0  0  0  0  0  0  0  0  0
  143.6404  142.5515  156.2770 H   0  0  0  0  0  0  0  0  0  0  0  0
  145.3604  140.8069  156.6030 H   0  0  0  0  0  0  0  0  0  0  0  0
  149.4677  139.9606  154.7525 H   0  0  0  0  0  0  0  0  0  0  0  0
  149.1543  141.6699  154.4516 H   0  0  0  0  0  0  0  0  0  0  0  0
  149.6072  140.3066  157.1645 H   0  0  0  0  0  0  0  0  0  0  0  0
  149.0379  143.0224  156.5926 H   0  0  0  0  0  0  0  0  0  0  0  0
  151.6686  140.9544  155.7914 H   0  0  0  0  0  0  0  0  0  0  0  0
  151.1328  142.6052  155.7832 H   0  0  0  0  0  0  0  0  0  0  0  0
  153.3582  140.9224  161.4453 H   0  0  0  0  0  0  0  0  0  0  0  0
  154.7818  141.2960  160.4672 H   0  0  0  0  0  0  0  0  0  0  0  0
  153.9389  139.7588  160.2563 H   0  0  0  0  0  0  0  0  0  0  0  0
  153.2198  143.5307  161.4539 H   0  0  0  0  0  0  0  0  0  0  0  0
  152.0877  145.7466  161.1372 H   0  0  0  0  0  0  0  0  0  0  0  0
  150.7211  146.1840  159.1065 H   0  0  0  0  0  0  0  0  0  0  0  0
  150.4595  144.4218  157.3459 H   0  0  0  0  0  0  0  0  0  0  0  0
  147.7953  142.6769  153.5586 H   0  0  0  0  0  0  0  0  0  0  0  0
  146.1123  144.3843  153.2402 H   0  0  0  0  0  0  0  0  0  0  0  0
  1  2  1  0  0  0  0
  1 25  1  0  0  0  0
  1 26  1  0  0  0  0
  1 27  1  0  0  0  0
  2  3  1  0  0  0  0
  3 24  1  0  0  0  0
  3  4  2  0  0  0  0
  4  5  1  0  0  0  0
  4 28  1  0  0  0  0
  5  6  2  0  0  0  0
  5 29  1  0  0  0  0
  6  7  1  0  0  0  0
  6 23  1  0  0  0  0
  7  8  1  0  0  0  0
  8  9  1  0  0  0  0
  8 30  1  0  0  0  0
  8 31  1  0  0  0  0
  9 10  1  0  0  0  0
  9 11  1  0  0  0  0
  9 32  1  0  0  0  0
 10 33  1  0  0  0  0
 11 12  1  0  0  0  0
 11 34  1  0  0  0  0
 11 35  1  0  0  0  0
 12 22  1  0  0  0  0
 12 13  1  0  0  0  0
 13 14  2  0  0  0  0
 13 15  1  0  0  0  0
 15 16  1  0  0  0  0
 15 17  1  0  0  0  0
 16 36  1  0  0  0  0
 16 37  1  0  0  0  0
 16 38  1  0  0  0  0
 17 22  2  0  0  0  0
 17 18  1  0  0  0  0
 18 19  2  0  0  0  0
 18 39  1  0  0  0  0
 19 20  1  0  0  0  0
 19 40  1  0  0  0  0
 20 21  2  0  0  0  0
 20 41  1  0  0  0  0
 21 22  1  0  0  0  0
 21 42  1  0  0  0  0
 23 24  2  0  0  0  0
 23 43  1  0  0  0  0
 24 44  1  0  0  0  0
M  END
> <s_m_source_file>
AV-unprocessed.smi

> <i_m_source_file_index>
419

> <i_lp_mmshare_version>
43012

> <i_f3d_flags>
0

> <s_epik_input>
W0NIM11PYzFbY0hdW2NIXWMoW2NIXVtjSF0xKU9bQ0gyXVtDQEhdKFtPSF0pW0NIMl1uKGMoPU8pbjJbQ0gzXSljKGMyMylbY0hdW2NIXVtjSF1bY0hdMw==

> <s_epik_cmdline>
J2VwaWtfcHl0aG9uJywgJy1waCcsICc3LjAnLCAnLXRuJywgJzgnLCAnLW1hJywgJzIwMCcsICctbWV0YWxfYmluZGluZycsICctaW1hZScsICc8aW5maWxlLm1hZT4nLCAnLW9tYWUnLCAnPG91dGZpbGUubWFlPic=

> <r_lp_tautomer_probability>
1

> <r_epik_Ionization_Penalty>
2.40131e-06

> <r_epik_Ionization_Penalty_Charging>
2.01037e-09

> <r_epik_Ionization_Penalty_Neutral>
2.3993e-06

> <r_epik_State_Penalty>
-0

> <r_epik_Charging_Adjusted_Penalty>
2.01037e-09

> <i_epik_Tot_Q>
0

> <i_epik_Tot_abs_Q>
0

> <r_epik_Metal_State_Penalty>
-0

> <b_epik_Metal_Only>
0

> <s_lp_Force_Field>
OPLS_2005

> <r_lp_Energy>
51.0107

> <b_lp_Chiralities_Consistent>
1

> <s_lp_Variant>
AV-unprocessed.smi:419-1

> <Gold.Version>
5.8.1

> <Gold.Id.Protein>
6NUR|6NUR_protein|mol2

> <Gold.PLP.Fitness>
57.0795

> <Gold.PLP.PLP>
-53.2604

> <Gold.PLP.part.hbond>
-2.0000

> <Gold.PLP.part.metal>
0.0000

> <Gold.PLP.part.buried>
-7.5294

> <Gold.PLP.part.nonpolar>
-43.7672

> <Gold.PLP.part.repulsive>
0.1711

> <Gold.PLP.ligand.clash>
0.0000

> <Gold.PLP.ligand.torsion>
1.1662

> <Gold.PLP.Chemscore.Hbond>
2.0000

> <Gold.PLP.Chemscore.CHOScore>
0.0000

> <Gold.PLP.Chemscore.Metal>
0.0000

> <Gold.Chemscore.Hbonds>
donor molecule, donor type, donor heavy atom, donor atom, acceptor molecule, acceptor atom, score
      L1  H    10    33       P1  8028  1.00
      P1  H  7997  8009       L1    14  1.00

> <Gold.PLP.Chemscore.Internal.Correction>
0.1516

> <Gold.Rescore>
     Score         DG    S(hbond)    S(metal)    S(lipo)     H(rot)  DE(clash)    DE(int)     intcor
     18.83     -20.96       1.84        0.00     132.18       2.40       0.09       2.04       ----

> <Gold.Chemscore.Fitness>
18.8261

> <Gold.Chemscore.DG>
-20.9636

> <Gold.Chemscore.ZeroCoef>
-5.4800

> <Gold.Chemscore.Hbond>
1.8413

> <Gold.Chemscore.Metal>
0.0000

> <Gold.Chemscore.Lipo>
132.1826

> <Gold.Chemscore.Internal_Hbond>
0.0000

> <Gold.Chemscore.DEClash>
0.0944

> <Gold.Chemscore.DEInternal>
2.0432

> <Gold.Chemscore.Rot>
2.3952

> <Gold.Chemscore.Internal.Correction>
   9.000000E+99

> <Gold.Chemscore.Hbonds>
donor molecule, donor type, donor heavy atom, donor atom, acceptor molecule, acceptor atom, score
      L1  H    10    33       P1  8028  0.98
      P1  H  7997  8009       L1    14  0.33

> <Gold.Chemscore.Hbond.Weighted>
-6.1499

> <Gold.Chemscore.Metal.Weighted>
-0.0000

> <Gold.Chemscore.Lipo.Weighted>
-15.4654

> <Gold.Chemscore.Internal_Hbond.Weighted>
0.0000

> <Gold.Chemscore.DEClash.Weighted>
0.0944

> <Gold.Chemscore.DEInternal.Weighted>
2.0432

> <Gold.Chemscore.Rot.Weighted>
6.1316

> <Gold.Chemscore.Internal.Correction.Weighted>
   9.000000E+99

> <Gold.Protein.RotatedTorsions>
[ 6907 6896 6895 6894 ] final  -75.92 input  -60.11 | X-H torsion
[ 7974 7965 7964 7962 ] final  140.84 input  175.53 | X-H torsion
[ 8008 7997 7996 7995 ] final  166.86 input   59.86 | X-H torsion
[ 10167 10162 10161 10158 ] final   98.58 input  -65.29 | X-H torsion
[ 10718 10713 10712 10709 ] final  105.47 input   66.30 | X-H torsion
[ 10763 10752 10751 10750 ] final  -84.36 input  -60.55 | X-H torsion
[ 11005 11000 10999 10996 ] final  -80.64 input  -57.11 | X-H torsion

> <Gold.Protein.ActiveResidues>
 VAL166  LYS551  ARG553  GLY616  TRP617  ASP618  TYR619  PRO620  LYS621  CYS622 
 ASP623  PHE694  ASN695  SER759  ASP760  ASP761  ALA762  ILE779  LEU786  VAL792 
 PHE793  MET794  SER795  GLU796  ALA797  LYS798  CYS799  TRP800  GLU811  SER814 

> <Gold.Protein.RotatedAtoms>
  150.7043  134.4649  159.5397 H   0  0  0  0  0  0  0  0  0  0  0  0  # atno 6907 bound_to 6896
  152.2316  134.8313  160.0482 H   0  0  0  0  0  0  0  0  0  0  0  0  # atno 6908 bound_to 6896
  151.9127  133.3530  159.3906 H   0  0  0  0  0  0  0  0  0  0  0  0  # atno 6909 bound_to 6896
  144.9150  139.5242  143.5690 H   0  0  0  0  0  0  0  0  0  0  0  0  # atno 7974 bound_to 7965
  156.1682  140.1632  156.8493 H   0  0  0  0  0  0  0  0  0  0  0  0  # atno 8008 bound_to 7997
  154.5230  140.0774  156.8241 H   0  0  0  0  0  0  0  0  0  0  0  0  # atno 8009 bound_to 7997
  155.3567  140.3393  155.4242 H   0  0  0  0  0  0  0  0  0  0  0  0  # atno 8010 bound_to 7997
  139.7696  144.6927  151.0175 H   0  0  0  0  0  0  0  0  0  0  0  0  # atno 10167 bound_to 10162
  157.6704  131.0828  150.5861 H   0  0  0  0  0  0  0  0  0  0  0  0  # atno 10718 bound_to 10713
  154.5986  135.5523  153.7351 H   0  0  0  0  0  0  0  0  0  0  0  0  # atno 10763 bound_to 10752
  153.0145  135.6361  154.1747 H   0  0  0  0  0  0  0  0  0  0  0  0  # atno 10764 bound_to 10752
  154.1687  135.2893  155.3067 H   0  0  0  0  0  0  0  0  0  0  0  0  # atno 10765 bound_to 10752
  141.1667  133.7159  156.8303 H   0  0  0  0  0  0  0  0  0  0  0  0  # atno 11005 bound_to 11000
  146.3177  139.7986  142.8970 LP  0  0  0  0  0  0  0  0  0  0  0  0  # atno 17320 bound_to 7965
  145.3390  141.0283  143.3403 LP  0  0  0  0  0  0  0  0  0  0  0  0  # atno 17321 bound_to 7965
  140.7813  143.4604  151.0286 LP  0  0  0  0  0  0  0  0  0  0  0  0  # atno 17342 bound_to 10162
  139.8288  143.7720  152.3179 LP  0  0  0  0  0  0  0  0  0  0  0  0  # atno 17343 bound_to 10162
  156.6162  130.4393  149.5840 LP  0  0  0  0  0  0  0  0  0  0  0  0  # atno 17370 bound_to 10713
  156.2391  130.6840  151.1539 LP  0  0  0  0  0  0  0  0  0  0  0  0  # atno 17371 bound_to 10713
  140.2056  134.8865  157.3217 LP  0  0  0  0  0  0  0  0  0  0  0  0  # atno 17394 bound_to 11000
  140.2141  134.4103  155.7598 LP  0  0  0  0  0  0  0  0  0  0  0  0  # atno 17395 bound_to 11000

$$$$
