AV-unprocessed.smi:296|AV-procd|sdf|2258|dock10
  -GOLD-   2262022143D 1   1.00000     0.00000
 Structure written by MMmdl.
 36 37  0  0  0  0  0  0  0  0  1 V2000
  150.1859  132.8355  157.1275 N   0  0  0  0  0  0  0  0  0  0  0  0
  150.1479  133.8633  156.5969 C   0  0  0  0  0  0  0  0  0  0  0  0
  150.1000  135.1539  155.9308 C   0  0  0  0  0  0  0  0  0  0  0  0
  148.9153  135.7825  155.6783 N   0  0  0  0  0  0  0  0  0  0  0  0
  149.3837  136.8744  155.0865 C   0  0  0  0  0  0  0  0  0  0  0  0
  150.7170  136.9096  154.9878 N   0  0  0  0  0  0  0  0  0  0  0  0
  151.5941  137.9192  154.4240 C   0  0  0  0  0  0  0  0  0  0  0  0
  151.8164  139.0682  155.4078 C   0  0  0  0  0  0  0  0  0  0  0  0
  151.9786  140.2128  154.9866 O   0  0  0  0  0  0  0  0  0  0  0  0
  151.8282  138.7446  156.7108 N   0  0  0  0  0  0  0  0  0  0  0  0
  152.0477  139.6698  157.8189 C   0  0  0  0  0  0  0  0  0  0  0  0
  151.0226  140.8192  157.8152 C   0  0  0  0  0  0  0  0  0  0  0  0
  151.5272  142.0904  158.4804 C   0  0  0  0  0  0  0  0  0  0  0  0
  151.4780  143.2858  157.8608 C   0  0  0  0  0  0  0  0  0  0  0  0
  151.9304  144.5910  158.4903 C   0  0  0  0  0  0  0  0  0  0  0  0
  152.1118  144.4714  160.0126 C   0  0  0  0  0  0  0  0  0  0  0  0
  152.8467  143.1769  160.3803 C   0  0  0  0  0  0  0  0  0  0  0  0
  152.0762  141.9358  159.8948 C   0  0  0  0  0  0  0  0  0  0  0  0
  151.2114  135.7754  155.5420 N   0  0  0  0  0  0  0  0  0  0  0  0
  148.7449  137.6651  154.7207 H   0  0  0  0  0  0  0  0  0  0  0  0
  152.5500  137.4665  154.1560 H   0  0  0  0  0  0  0  0  0  0  0  0
  151.1468  138.2964  153.5032 H   0  0  0  0  0  0  0  0  0  0  0  0
  151.6807  137.7754  156.9539 H   0  0  0  0  0  0  0  0  0  0  0  0
  152.0454  139.1504  158.7782 H   0  0  0  0  0  0  0  0  0  0  0  0
  153.0498  140.0838  157.7058 H   0  0  0  0  0  0  0  0  0  0  0  0
  150.7396  141.0566  156.7891 H   0  0  0  0  0  0  0  0  0  0  0  0
  150.1081  140.4878  158.3094 H   0  0  0  0  0  0  0  0  0  0  0  0
  151.0964  143.3532  156.8526 H   0  0  0  0  0  0  0  0  0  0  0  0
  152.8685  144.8861  158.0192 H   0  0  0  0  0  0  0  0  0  0  0  0
  151.2021  145.3701  158.2640 H   0  0  0  0  0  0  0  0  0  0  0  0
  152.6527  145.3383  160.3933 H   0  0  0  0  0  0  0  0  0  0  0  0
  151.1348  144.4772  160.4982 H   0  0  0  0  0  0  0  0  0  0  0  0
  153.8390  143.1891  159.9276 H   0  0  0  0  0  0  0  0  0  0  0  0
  153.0002  143.1209  161.4583 H   0  0  0  0  0  0  0  0  0  0  0  0
  151.2415  141.7377  160.5668 H   0  0  0  0  0  0  0  0  0  0  0  0
  152.7290  141.0636  159.9399 H   0  0  0  0  0  0  0  0  0  0  0  0
  1  2  3  0  0  0  0
  2  3  1  0  0  0  0
  3 19  2  0  0  0  0
  3  4  1  0  0  0  0
  4  5  2  0  0  0  0
  5  6  1  0  0  0  0
  5 20  1  0  0  0  0
  6  7  1  0  0  0  0
  6 19  1  0  0  0  0
  7  8  1  0  0  0  0
  7 21  1  0  0  0  0
  7 22  1  0  0  0  0
  8  9  2  0  0  0  0
  8 10  1  0  0  0  0
 10 11  1  0  0  0  0
 10 23  1  0  0  0  0
 11 12  1  0  0  0  0
 11 24  1  0  0  0  0
 11 25  1  0  0  0  0
 12 13  1  0  0  0  0
 12 26  1  0  0  0  0
 12 27  1  0  0  0  0
 13 18  1  0  0  0  0
 13 14  2  0  0  0  0
 14 15  1  0  0  0  0
 14 28  1  0  0  0  0
 15 16  1  0  0  0  0
 15 29  1  0  0  0  0
 15 30  1  0  0  0  0
 16 17  1  0  0  0  0
 16 31  1  0  0  0  0
 16 32  1  0  0  0  0
 17 18  1  0  0  0  0
 17 33  1  0  0  0  0
 17 34  1  0  0  0  0
 18 35  1  0  0  0  0
 18 36  1  0  0  0  0
M  END
> <s_m_source_file>
AV-unprocessed.smi

> <i_m_source_file_index>
296

> <i_lp_mmshare_version>
43012

> <i_f3d_flags>
0

> <s_epik_input>
TiNDYzFuW2NIXW4objEpW0NIMl1DKD1PKVtOSF1bQ0gyXVtDSDJdQzI9W0NIXVtDSDJdW0NIMl1bQ0gyXVtDSDJdMg==

> <s_epik_cmdline>
J2VwaWtfcHl0aG9uJywgJy1waCcsICc3LjAnLCAnLXRuJywgJzgnLCAnLW1hJywgJzIwMCcsICctbWV0YWxfYmluZGluZycsICctaW1hZScsICc8aW5maWxlLm1hZT4nLCAnLW9tYWUnLCAnPG91dGZpbGUubWFlPic=

> <r_lp_tautomer_probability>
1

> <r_epik_Ionization_Penalty>
6.69355e-08

> <r_epik_Ionization_Penalty_Charging>
0

> <r_epik_Ionization_Penalty_Neutral>
6.69355e-08

> <r_epik_State_Penalty>
-0

> <r_epik_Charging_Adjusted_Penalty>
0

> <i_epik_Tot_Q>
0

> <i_epik_Tot_abs_Q>
0

> <r_epik_Metal_State_Penalty>
-0

> <b_epik_Metal_Only>
0

> <s_lp_Force_Field>
OPLS_2005

> <r_lp_Energy>
11.6781

> <b_lp_Chiralities_Consistent>
1

> <s_lp_Variant>
AV-unprocessed.smi:296-1

> <Gold.Version>
5.8.1

> <Gold.Id.Protein>
6NUR|6NUR_protein|mol2

> <Gold.PLP.Fitness>
45.5514

> <Gold.PLP.PLP>
-38.5692

> <Gold.PLP.part.hbond>
-2.6590

> <Gold.PLP.part.metal>
0.0000

> <Gold.PLP.part.buried>
-5.0213

> <Gold.PLP.part.nonpolar>
-31.9226

> <Gold.PLP.part.repulsive>
0.2708

> <Gold.PLP.ligand.clash>
0.0000

> <Gold.PLP.ligand.torsion>
0.8652

> <Gold.PLP.Chemscore.Hbond>
2.9033

> <Gold.PLP.Chemscore.CHOScore>
0.0000

> <Gold.PLP.Chemscore.Metal>
0.0000

> <Gold.Chemscore.Hbonds>
donor molecule, donor type, donor heavy atom, donor atom, acceptor molecule, acceptor atom, score
      P1  H  6896  6908       L1     1  0.18
      P1  H  7989  7998       L1     9  0.78
      P1  H 10752 10765       L1    19  1.00

> <Gold.PLP.Chemscore.Internal.Correction>
0.0029

> <Gold.Rescore>
     Score         DG    S(hbond)    S(metal)    S(lipo)     H(rot)  DE(clash)    DE(int)     intcor
     14.53     -16.24       2.20        0.00      86.59       2.63       0.01       1.70       ----

> <Gold.Chemscore.Fitness>
14.5279

> <Gold.Chemscore.DG>
-16.2365

> <Gold.Chemscore.ZeroCoef>
-5.4800

> <Gold.Chemscore.Hbond>
2.2012

> <Gold.Chemscore.Metal>
0.0000

> <Gold.Chemscore.Lipo>
86.5855

> <Gold.Chemscore.Internal_Hbond>
0.0000

> <Gold.Chemscore.DEClash>
0.0088

> <Gold.Chemscore.DEInternal>
1.6998

> <Gold.Chemscore.Rot>
2.6273

> <Gold.Chemscore.Internal.Correction>
   9.000000E+99

> <Gold.Chemscore.Hbonds>
donor molecule, donor type, donor heavy atom, donor atom, acceptor molecule, acceptor atom, score
      P1  H  6896  6908       L1     1  0.05
      P1  H  7989  7998       L1     9  0.77
      P1  H 10752 10765       L1    19  0.69

> <Gold.Chemscore.Hbond.Weighted>
-7.3519

> <Gold.Chemscore.Metal.Weighted>
-0.0000

> <Gold.Chemscore.Lipo.Weighted>
-10.1305

> <Gold.Chemscore.Internal_Hbond.Weighted>
0.0000

> <Gold.Chemscore.DEClash.Weighted>
0.0088

> <Gold.Chemscore.DEInternal.Weighted>
1.6998

> <Gold.Chemscore.Rot.Weighted>
6.7259

> <Gold.Chemscore.Internal.Correction.Weighted>
   9.000000E+99

> <Gold.Protein.RotatedTorsions>
[ 6907 6896 6895 6894 ] final   92.90 input  -60.11 | X-H torsion
[ 7974 7965 7964 7962 ] final  105.38 input  175.53 | X-H torsion
[ 8008 7997 7996 7995 ] final  -21.10 input   59.86 | X-H torsion
[ 10167 10162 10161 10158 ] final  143.27 input  -65.29 | X-H torsion
[ 10718 10713 10712 10709 ] final   35.14 input   66.30 | X-H torsion
[ 10763 10752 10751 10750 ] final -161.48 input  -60.55 | X-H torsion
[ 11005 11000 10999 10996 ] final   27.39 input  -57.11 | X-H torsion

> <Gold.Protein.ActiveResidues>
 VAL166  LYS551  ARG553  GLY616  TRP617  ASP618  TYR619  PRO620  LYS621  CYS622 
 ASP623  PHE694  ASN695  SER759  ASP760  ASP761  ALA762  ILE779  LEU786  VAL792 
 PHE793  MET794  SER795  GLU796  ALA797  LYS798  CYS799  TRP800  GLU811  SER814 

> <Gold.Protein.RotatedAtoms>
  152.5453  134.1431  159.8486 H   0  0  0  0  0  0  0  0  0  0  0  0  # atno 6907 bound_to 6896
  151.1465  133.4929  159.2603 H   0  0  0  0  0  0  0  0  0  0  0  0  # atno 6908 bound_to 6896
  151.1517  135.0241  159.8726 H   0  0  0  0  0  0  0  0  0  0  0  0  # atno 6909 bound_to 6896
  145.3204  139.2514  143.3715 H   0  0  0  0  0  0  0  0  0  0  0  0  # atno 7974 bound_to 7965
  154.4727  140.2044  155.9955 H   0  0  0  0  0  0  0  0  0  0  0  0  # atno 8008 bound_to 7997
  156.1038  140.3240  155.7948 H   0  0  0  0  0  0  0  0  0  0  0  0  # atno 8009 bound_to 7997
  155.4753  140.0534  157.2965 H   0  0  0  0  0  0  0  0  0  0  0  0  # atno 8010 bound_to 7997
  139.4974  144.6051  151.6395 H   0  0  0  0  0  0  0  0  0  0  0  0  # atno 10167 bound_to 10162
  157.3190  130.7438  149.6772 H   0  0  0  0  0  0  0  0  0  0  0  0  # atno 10718 bound_to 10713
  154.7299  135.3044  154.8908 H   0  0  0  0  0  0  0  0  0  0  0  0  # atno 10763 bound_to 10752
  153.9754  135.6736  153.4752 H   0  0  0  0  0  0  0  0  0  0  0  0  # atno 10764 bound_to 10752
  153.0909  135.4960  154.8608 H   0  0  0  0  0  0  0  0  0  0  0  0  # atno 10765 bound_to 10752
  140.3268  134.2482  155.7708 H   0  0  0  0  0  0  0  0  0  0  0  0  # atno 11005 bound_to 11000
  146.3084  140.3760  142.8679 LP  0  0  0  0  0  0  0  0  0  0  0  0  # atno 17320 bound_to 7965
  144.8944  140.7564  143.5906 LP  0  0  0  0  0  0  0  0  0  0  0  0  # atno 17321 bound_to 7965
  140.5711  144.0107  150.6217 LP  0  0  0  0  0  0  0  0  0  0  0  0  # atno 17342 bound_to 10162
  140.3225  143.3128  152.0770 LP  0  0  0  0  0  0  0  0  0  0  0  0  # atno 17343 bound_to 10162
  155.9684  130.4229  150.4537 LP  0  0  0  0  0  0  0  0  0  0  0  0  # atno 17370 bound_to 10713
  157.2549  131.0554  151.2357 LP  0  0  0  0  0  0  0  0  0  0  0  0  # atno 17371 bound_to 10713
  141.2073  133.7809  157.0125 LP  0  0  0  0  0  0  0  0  0  0  0  0  # atno 17394 bound_to 11000
  140.0895  134.9601  157.1753 LP  0  0  0  0  0  0  0  0  0  0  0  0  # atno 17395 bound_to 11000

$$$$
