AV-unprocessed.smi:632|AV-procd|sdf|3128|dock9
  -GOLD-   22720 0 53D 1   1.00000     0.00000
 Structure written by MMmdl.
 41 42  0  0  0  0  0  0  0  0  2 V2000
  148.1948  136.0628  160.2957 C   0  0  0  0  0  0  0  0  0  0  0  0
  147.4335  134.9144  159.6053 C   0  0  0  0  0  0  0  0  0  0  0  0
  147.6305  133.6454  160.4635 C   0  0  0  0  0  0  0  0  0  0  0  0
  145.9227  135.2145  159.5603 C   0  0  0  0  0  0  0  0  0  0  0  0
  147.9599  134.7203  158.2022 C   0  0  0  0  0  0  0  0  0  0  0  0
  149.2404  134.4140  157.9598 N   0  0  0  0  0  0  0  0  0  0  0  0
  149.5120  134.2804  156.6068 N   0  0  0  0  0  0  0  0  0  0  0  0
  148.4372  134.4776  155.8326 C   0  0  0  0  0  0  0  0  0  0  0  0
  148.4894  134.3950  154.4928 N   0  5  0  0  0  0  0  0  0  0  0  0
  147.4435  133.8809  153.8065 C   0  0  0  0  0  0  0  0  0  0  0  0
  146.5165  133.2179  154.2773 O   0  0  0  0  0  0  0  0  0  0  0  0
  147.4741  134.1527  152.4936 N   0  0  0  0  0  0  0  0  0  0  0  0
  146.4844  133.7353  151.5039 C   0  0  2  0  0  0  0  0  0  0  0  0
  145.1602  134.5033  151.6993 C   0  0  0  0  0  0  0  0  0  0  0  0
  144.0807  134.0220  150.7164 C   0  0  0  0  0  0  0  0  0  0  0  0
  143.8598  132.5043  150.8346 C   0  0  1  0  0  0  0  0  0  0  0  0
  142.9158  132.0880  149.8705 O   0  0  0  0  0  0  0  0  0  0  0  0
  145.1767  131.7359  150.6294 C   0  0  0  0  0  0  0  0  0  0  0  0
  146.2561  132.2157  151.6133 C   0  0  0  0  0  0  0  0  0  0  0  0
  146.9818  134.8745  156.7423 S   0  0  0  0  0  0  0  0  0  0  0  0
  147.8462  136.2139  161.3179 H   0  0  0  0  0  0  0  0  0  0  0  0
  148.0613  137.0064  159.7655 H   0  0  0  0  0  0  0  0  0  0  0  0
  149.2653  135.8590  160.3390 H   0  0  0  0  0  0  0  0  0  0  0  0
  148.6843  133.3784  160.5515 H   0  0  0  0  0  0  0  0  0  0  0  0
  147.1032  132.7886  160.0426 H   0  0  0  0  0  0  0  0  0  0  0  0
  147.2508  133.7892  161.4757 H   0  0  0  0  0  0  0  0  0  0  0  0
  145.5122  135.3438  160.5621 H   0  0  0  0  0  0  0  0  0  0  0  0
  145.3726  134.4047  159.0797 H   0  0  0  0  0  0  0  0  0  0  0  0
  145.7132  136.1286  159.0038 H   0  0  0  0  0  0  0  0  0  0  0  0
  148.2534  134.6977  152.1550 H   0  0  0  0  0  0  0  0  0  0  0  0
  146.8707  133.9459  150.5047 H   0  0  0  0  0  0  0  0  0  0  0  0
  144.8039  134.3699  152.7219 H   0  0  0  0  0  0  0  0  0  0  0  0
  145.3213  135.5737  151.5668 H   0  0  0  0  0  0  0  0  0  0  0  0
  143.1473  134.5536  150.9051 H   0  0  0  0  0  0  0  0  0  0  0  0
  144.3823  134.2759  149.6991 H   0  0  0  0  0  0  0  0  0  0  0  0
  143.4561  132.2735  151.8212 H   0  0  0  0  0  0  0  0  0  0  0  0
  142.2684  132.7692  149.7723 H   0  0  0  0  0  0  0  0  0  0  0  0
  145.0108  130.6656  150.7572 H   0  0  0  0  0  0  0  0  0  0  0  0
  145.5334  131.8748  149.6078 H   0  0  0  0  0  0  0  0  0  0  0  0
  147.1886  131.6834  151.4223 H   0  0  0  0  0  0  0  0  0  0  0  0
  145.9565  131.9591  152.6305 H   0  0  0  0  0  0  0  0  0  0  0  0
  1  2  1  0  0  0  0
  1 21  1  0  0  0  0
  1 22  1  0  0  0  0
  1 23  1  0  0  0  0
  2  3  1  0  0  0  0
  2  4  1  0  0  0  0
  2  5  1  0  0  0  0
  3 24  1  0  0  0  0
  3 25  1  0  0  0  0
  3 26  1  0  0  0  0
  4 27  1  0  0  0  0
  4 28  1  0  0  0  0
  4 29  1  0  0  0  0
  5 20  1  0  0  0  0
  5  6  2  0  0  0  0
  6  7  1  0  0  0  0
  7  8  2  0  0  0  0
  8  9  1  0  0  0  0
  8 20  1  0  0  0  0
  9 10  1  0  0  0  0
 10 11  2  0  0  0  0
 10 12  1  0  0  0  0
 12 13  1  0  0  0  0
 12 30  1  0  0  0  0
 13 19  1  0  0  0  0
 13 14  1  0  0  0  0
 13 31  1  0  0  0  0
 14 15  1  0  0  0  0
 14 32  1  0  0  0  0
 14 33  1  0  0  0  0
 15 16  1  0  0  0  0
 15 34  1  0  0  0  0
 15 35  1  0  0  0  0
 16 17  1  0  0  0  0
 16 18  1  0  0  0  0
 16 36  1  0  0  0  0
 17 37  1  0  0  0  0
 18 19  1  0  0  0  0
 18 38  1  0  0  0  0
 18 39  1  0  0  0  0
 19 40  1  0  0  0  0
 19 41  1  0  0  0  0
M  CHG  1   9  -1
M  END
> <s_m_source_file>
AV-unprocessed.smi

> <i_m_source_file_index>
632

> <i_lp_mmshare_version>
43012

> <i_f3d_flags>
0

> <s_epik_input>
W0NIM11DKFtDSDNdKShbQ0gzXSljMW5uYyhzMSlbTkhdQyg9TylbTkhdW0NAQEhdMltDSDJdW0NIMl1bQ0BASF0oW09IXSlbQ0gyXVtDSDJdMg==

> <s_epik_cmdline>
J2VwaWtfcHl0aG9uJywgJy1waCcsICc3LjAnLCAnLXRuJywgJzgnLCAnLW1hJywgJzIwMCcsICctbWV0YWxfYmluZGluZycsICctaW1hZScsICc8aW5maWxlLm1hZT4nLCAnLW9tYWUnLCAnPG91dGZpbGUubWFlPic=

> <r_lp_tautomer_probability>
1

> <r_epik_Ionization_Penalty>
4.62389

> <r_epik_Ionization_Penalty_Charging>
4.45204

> <r_epik_Ionization_Penalty_Neutral>
0.171842

> <r_epik_State_Penalty>
4.45172

> <r_epik_Charging_Adjusted_Penalty>
8.90376

> <i_epik_Tot_Q>
-1

> <i_epik_Tot_abs_Q>
1

> <r_epik_Metal_State_Penalty>
0.795834

> <b_epik_Metal_Only>
1

> <s_lp_Force_Field>
OPLS_2005

> <r_lp_Energy>
0.241417

> <b_lp_Chiralities_Consistent>
1

> <s_lp_Variant>
AV-unprocessed.smi:632-3

> <Gold.Version>
5.8.1

> <Gold.Id.Protein>
6NUR|6NUR_protein|mol2

> <Gold.PLP.Fitness>
35.3395

> <Gold.PLP.PLP>
-26.6803

> <Gold.PLP.part.hbond>
-4.1817

> <Gold.PLP.part.metal>
0.0000

> <Gold.PLP.part.buried>
-4.7646

> <Gold.PLP.part.nonpolar>
-18.4635

> <Gold.PLP.part.repulsive>
0.2140

> <Gold.PLP.ligand.clash>
0.0000

> <Gold.PLP.ligand.torsion>
0.4075

> <Gold.PLP.Chemscore.Hbond>
3.1500

> <Gold.PLP.Chemscore.CHOScore>
0.0000

> <Gold.PLP.Chemscore.Metal>
0.0000

> <Gold.Chemscore.Hbonds>
donor molecule, donor type, donor heavy atom, donor atom, acceptor molecule, acceptor atom, score
      L1  H    12    30       P1  7948  0.85
      L1  H    17    37       P1 10186  0.86
      P1  H  6896  6909       L1     6  1.00
      P1  H 10785 10796       L1    17  0.41

> <Gold.PLP.Chemscore.Internal.Correction>
0.0242

> <Gold.Rescore>
     Score         DG    S(hbond)    S(metal)    S(lipo)     H(rot)  DE(clash)    DE(int)     intcor
     16.77     -18.54       3.09        0.00      60.05       1.67       0.03       1.75       ----

> <Gold.Chemscore.Fitness>
16.7689

> <Gold.Chemscore.DG>
-18.5446

> <Gold.Chemscore.ZeroCoef>
-5.4800

> <Gold.Chemscore.Hbond>
3.0907

> <Gold.Chemscore.Metal>
0.0000

> <Gold.Chemscore.Lipo>
60.0539

> <Gold.Chemscore.Internal_Hbond>
0.0000

> <Gold.Chemscore.DEClash>
0.0291

> <Gold.Chemscore.DEInternal>
1.7465

> <Gold.Chemscore.Rot>
1.6737

> <Gold.Chemscore.Internal.Correction>
   9.000000E+99

> <Gold.Chemscore.Hbonds>
donor molecule, donor type, donor heavy atom, donor atom, acceptor molecule, acceptor atom, score
      L1  H    12    30       P1  7948  0.14
      L1  H    17    37       P1 10186  0.84
      P1  H  6896  6909       L1     6  0.94
      P1  H 10785 10796       L1    17  0.41

> <Gold.Chemscore.Hbond.Weighted>
-10.3230

> <Gold.Chemscore.Metal.Weighted>
-0.0000

> <Gold.Chemscore.Lipo.Weighted>
-7.0263

> <Gold.Chemscore.Internal_Hbond.Weighted>
0.0000

> <Gold.Chemscore.DEClash.Weighted>
0.0291

> <Gold.Chemscore.DEInternal.Weighted>
1.7465

> <Gold.Chemscore.Rot.Weighted>
4.2848

> <Gold.Chemscore.Internal.Correction.Weighted>
   9.000000E+99

> <Gold.Protein.RotatedTorsions>
[ 6907 6896 6895 6894 ] final   28.29 input  -60.11 | X-H torsion
[ 7974 7965 7964 7962 ] final   -6.42 input  175.53 | X-H torsion
[ 8008 7997 7996 7995 ] final   -3.72 input   59.86 | X-H torsion
[ 10167 10162 10161 10158 ] final  -66.53 input  -65.29 | X-H torsion
[ 10718 10713 10712 10709 ] final  -85.25 input   66.30 | X-H torsion
[ 10763 10752 10751 10750 ] final    8.56 input  -60.55 | X-H torsion
[ 11005 11000 10999 10996 ] final   11.71 input  -57.11 | X-H torsion

> <Gold.Protein.ActiveResidues>
 VAL166  LYS551  ARG553  GLY616  TRP617  ASP618  TYR619  PRO620  LYS621  CYS622 
 ASP623  PHE694  ASN695  SER759  ASP760  ASP761  ALA762  ILE779  LEU786  VAL792 
 PHE793  MET794  SER795  GLU796  ALA797  LYS798  CYS799  TRP800  GLU811  SER814 

> <Gold.Protein.RotatedAtoms>
  152.0147  134.9856  160.0568 H   0  0  0  0  0  0  0  0  0  0  0  0  # atno 6907 bound_to 6896
  152.1395  133.4450  159.4768 H   0  0  0  0  0  0  0  0  0  0  0  0  # atno 6908 bound_to 6896
  150.6863  134.2241  159.4451 H   0  0  0  0  0  0  0  0  0  0  0  0  # atno 6909 bound_to 6896
  146.2331  140.2168  142.8336 H   0  0  0  0  0  0  0  0  0  0  0  0  # atno 7974 bound_to 7965
  154.6219  140.2502  155.7539 H   0  0  0  0  0  0  0  0  0  0  0  0  # atno 8008 bound_to 7997
  156.2431  140.2925  156.0450 H   0  0  0  0  0  0  0  0  0  0  0  0  # atno 8009 bound_to 7997
  155.1883  140.0391  157.2886 H   0  0  0  0  0  0  0  0  0  0  0  0  # atno 8010 bound_to 7997
  140.5650  143.2314  151.6652 H   0  0  0  0  0  0  0  0  0  0  0  0  # atno 10167 bound_to 10162
  155.9998  130.4725  150.4534 H   0  0  0  0  0  0  0  0  0  0  0  0  # atno 10718 bound_to 10713
  153.2236  135.6884  153.7971 H   0  0  0  0  0  0  0  0  0  0  0  0  # atno 10763 bound_to 10752
  153.7160  135.3275  155.3257 H   0  0  0  0  0  0  0  0  0  0  0  0  # atno 10764 bound_to 10752
  154.8281  135.4602  154.1094 H   0  0  0  0  0  0  0  0  0  0  0  0  # atno 10765 bound_to 10752
  140.5001  134.0754  155.7792 H   0  0  0  0  0  0  0  0  0  0  0  0  # atno 11005 bound_to 11000
  144.9663  140.8325  143.5482 LP  0  0  0  0  0  0  0  0  0  0  0  0  # atno 17320 bound_to 7965
  145.2144  139.2189  143.5126 LP  0  0  0  0  0  0  0  0  0  0  0  0  # atno 17321 bound_to 7965
  139.5088  144.3597  152.0574 LP  0  0  0  0  0  0  0  0  0  0  0  0  # atno 17342 bound_to 10162
  140.2727  144.3946  150.6145 LP  0  0  0  0  0  0  0  0  0  0  0  0  # atno 17343 bound_to 10162
  157.2565  131.0558  151.2347 LP  0  0  0  0  0  0  0  0  0  0  0  0  # atno 17370 bound_to 10713
  157.3477  130.7066  149.6421 LP  0  0  0  0  0  0  0  0  0  0  0  0  # atno 17371 bound_to 10713
  141.1440  133.9089  157.2260 LP  0  0  0  0  0  0  0  0  0  0  0  0  # atno 17394 bound_to 11000
  139.9718  135.0126  156.9531 LP  0  0  0  0  0  0  0  0  0  0  0  0  # atno 17395 bound_to 11000

$$$$
