AV-unprocessed.smi:2070|AV-procd|sdf|8439|dock5
  -GOLD-   2272011133D 1   1.00000     0.00000
 Structure written by MMmdl.
 40 41  0  0  0  0  0  0  0  0  1 V2000
  152.0001  145.9249  160.0999 C   0  0  0  0  0  0  0  0  0  0  0  0
  152.3220  144.5430  160.5755 C   0  0  0  0  0  0  0  0  0  0  0  0
  152.5589  144.1537  161.8701 C   0  0  0  0  0  0  0  0  0  0  0  0
  152.8934  142.4478  161.9854 S   0  0  0  0  0  0  0  0  0  0  0  0
  152.7058  142.3245  160.2403 C   0  0  0  0  0  0  0  0  0  0  0  0
  152.8165  141.0325  159.4954 C   0  0  0  0  0  0  0  0  0  0  0  0
  151.7475  140.8527  158.3998 C   0  0  0  0  0  0  0  0  0  0  0  0
  151.9474  139.6403  157.6127 N   0  0  0  0  0  0  0  0  0  0  0  0
  151.8501  139.5573  156.2756 C   0  0  0  0  0  0  0  0  0  0  0  0
  151.6495  140.5486  155.5721 O   0  0  0  0  0  0  0  0  0  0  0  0
  151.9986  138.3052  155.7733 N   0  0  0  0  0  0  0  0  0  0  0  0
  152.3117  137.0900  156.5447 C   0  0  0  0  0  0  0  0  0  0  0  0
  151.0250  136.2591  156.6960 C   0  0  0  0  0  0  0  0  0  0  0  0
  150.4211  135.9123  155.3148 C   0  0  0  0  0  0  0  0  0  0  0  0
  149.0703  135.2003  155.4668 C   0  0  0  0  0  0  0  0  0  0  0  0
  148.3969  134.9266  154.3465 N   0  0  0  0  0  0  0  0  0  0  0  0
  148.6372  134.9005  156.5778 O   0  0  0  0  0  0  0  0  0  0  0  0
  150.2873  137.1803  154.4382 C   0  0  0  0  0  0  0  0  0  0  0  0
  151.6088  137.9700  154.3985 C   0  0  0  0  0  0  0  0  0  0  0  0
  152.4008  143.4893  159.6606 N   0  0  0  0  0  0  0  0  0  0  0  0
  150.9407  146.1480  160.2290 H   0  0  0  0  0  0  0  0  0  0  0  0
  152.2387  146.0508  159.0434 H   0  0  0  0  0  0  0  0  0  0  0  0
  152.5654  146.6746  160.6539 H   0  0  0  0  0  0  0  0  0  0  0  0
  152.5557  144.7650  162.7604 H   0  0  0  0  0  0  0  0  0  0  0  0
  153.8120  140.9725  159.0536 H   0  0  0  0  0  0  0  0  0  0  0  0
  152.7520  140.2124  160.2111 H   0  0  0  0  0  0  0  0  0  0  0  0
  150.7478  140.8620  158.8370 H   0  0  0  0  0  0  0  0  0  0  0  0
  151.7904  141.6971  157.7115 H   0  0  0  0  0  0  0  0  0  0  0  0
  152.1227  138.7883  158.1252 H   0  0  0  0  0  0  0  0  0  0  0  0
  153.0672  136.5114  156.0110 H   0  0  0  0  0  0  0  0  0  0  0  0
  152.7432  137.2863  157.5262 H   0  0  0  0  0  0  0  0  0  0  0  0
  151.2397  135.3454  157.2516 H   0  0  0  0  0  0  0  0  0  0  0  0
  150.3074  136.8227  157.2934 H   0  0  0  0  0  0  0  0  0  0  0  0
  151.1136  135.2346  154.8123 H   0  0  0  0  0  0  0  0  0  0  0  0
  147.5044  134.4575  154.3955 H   0  0  0  0  0  0  0  0  0  0  0  0
  148.7858  135.1894  153.4524 H   0  0  0  0  0  0  0  0  0  0  0  0
  149.9934  136.9054  153.4243 H   0  0  0  0  0  0  0  0  0  0  0  0
  149.4974  137.8276  154.8235 H   0  0  0  0  0  0  0  0  0  0  0  0
  151.4981  138.8515  153.7655 H   0  0  0  0  0  0  0  0  0  0  0  0
  152.3923  137.3703  153.9332 H   0  0  0  0  0  0  0  0  0  0  0  0
  1  2  1  0  0  0  0
  1 21  1  0  0  0  0
  1 22  1  0  0  0  0
  1 23  1  0  0  0  0
  2 20  1  0  0  0  0
  2  3  2  0  0  0  0
  3  4  1  0  0  0  0
  3 24  1  0  0  0  0
  4  5  1  0  0  0  0
  5  6  1  0  0  0  0
  5 20  2  0  0  0  0
  6  7  1  0  0  0  0
  6 25  1  0  0  0  0
  6 26  1  0  0  0  0
  7  8  1  0  0  0  0
  7 27  1  0  0  0  0
  7 28  1  0  0  0  0
  8  9  1  0  0  0  0
  8 29  1  0  0  0  0
  9 10  2  0  0  0  0
  9 11  1  0  0  0  0
 11 19  1  0  0  0  0
 11 12  1  0  0  0  0
 12 13  1  0  0  0  0
 12 30  1  0  0  0  0
 12 31  1  0  0  0  0
 13 14  1  0  0  0  0
 13 32  1  0  0  0  0
 13 33  1  0  0  0  0
 14 15  1  0  0  0  0
 14 18  1  0  0  0  0
 14 34  1  0  0  0  0
 15 16  1  0  0  0  0
 15 17  2  0  0  0  0
 16 35  1  0  0  0  0
 16 36  1  0  0  0  0
 18 19  1  0  0  0  0
 18 37  1  0  0  0  0
 18 38  1  0  0  0  0
 19 39  1  0  0  0  0
 19 40  1  0  0  0  0
M  END
> <s_m_source_file>
AV-unprocessed.smi

> <i_m_source_file_index>
2070

> <i_lp_mmshare_version>
43012

> <i_f3d_flags>
0

> <s_epik_input>
W0NIM11jMVtjSF1zYyhuMSlbQ0gyXVtDSDJdW05IXUMoPU8pTjJbQ0gyXVtDSDJdW0NIXShDKD1PKVtOSDJdKVtDSDJdW0NIMl0y

> <s_epik_cmdline>
J2VwaWtfcHl0aG9uJywgJy1waCcsICc3LjAnLCAnLXRuJywgJzgnLCAnLW1hJywgJzIwMCcsICctbWV0YWxfYmluZGluZycsICctaW1hZScsICc8aW5maWxlLm1hZT4nLCAnLW9tYWUnLCAnPG91dGZpbGUubWFlPic=

> <r_epik_Ionization_Penalty>
0.00203811

> <r_epik_Ionization_Penalty_Charging>
0

> <r_epik_Ionization_Penalty_Neutral>
0.00203811

> <r_epik_State_Penalty>
0.00135523

> <r_epik_Charging_Adjusted_Penalty>
0.00135523

> <i_epik_Tot_Q>
0

> <i_epik_Tot_abs_Q>
0

> <r_epik_Metal_State_Penalty>
-0

> <b_epik_Metal_Only>
0

> <s_lp_Force_Field>
OPLS_2005

> <r_lp_Energy>
19.595

> <b_lp_Chiralities_Consistent>
1

> <s_lp_Variant>
AV-unprocessed.smi:2070-1

> <Gold.Version>
5.8.1

> <Gold.Id.Protein>
6NUR|6NUR_protein|mol2

> <Gold.PLP.Fitness>
43.2904

> <Gold.PLP.PLP>
-39.2035

> <Gold.PLP.part.hbond>
-2.0000

> <Gold.PLP.part.metal>
0.0000

> <Gold.PLP.part.buried>
-2.5324

> <Gold.PLP.part.nonpolar>
-33.4393

> <Gold.PLP.part.repulsive>
0.0826

> <Gold.PLP.ligand.clash>
0.0000

> <Gold.PLP.ligand.torsion>
0.5192

> <Gold.PLP.Chemscore.Hbond>
1.6843

> <Gold.PLP.Chemscore.CHOScore>
0.0000

> <Gold.PLP.Chemscore.Metal>
0.0000

> <Gold.Chemscore.Hbonds>
donor molecule, donor type, donor heavy atom, donor atom, acceptor molecule, acceptor atom, score
      L1  H    16    36       P1  7948  1.00
      P1  H  7989  7998       L1    10  0.65

> <Gold.PLP.Chemscore.Internal.Correction>
0.0724

> <Gold.Rescore>
     Score         DG    S(hbond)    S(metal)    S(lipo)     H(rot)  DE(clash)    DE(int)     intcor
     16.59     -18.60       1.87        0.00     101.50       1.95       1.48       0.54       ----

> <Gold.Chemscore.Fitness>
16.5881

> <Gold.Chemscore.DG>
-18.6050

> <Gold.Chemscore.ZeroCoef>
-5.4800

> <Gold.Chemscore.Hbond>
1.8680

> <Gold.Chemscore.Metal>
0.0000

> <Gold.Chemscore.Lipo>
101.5015

> <Gold.Chemscore.Internal_Hbond>
0.0000

> <Gold.Chemscore.DEClash>
1.4756

> <Gold.Chemscore.DEInternal>
0.5413

> <Gold.Chemscore.Rot>
1.9492

> <Gold.Chemscore.Internal.Correction>
   9.000000E+99

> <Gold.Chemscore.Hbonds>
donor molecule, donor type, donor heavy atom, donor atom, acceptor molecule, acceptor atom, score
      L1  H    16    36       P1  7948  0.69
      P1  H  7989  7998       L1    10  0.62

> <Gold.Chemscore.Hbond.Weighted>
-6.2393

> <Gold.Chemscore.Metal.Weighted>
-0.0000

> <Gold.Chemscore.Lipo.Weighted>
-11.8757

> <Gold.Chemscore.Internal_Hbond.Weighted>
0.0000

> <Gold.Chemscore.DEClash.Weighted>
1.4756

> <Gold.Chemscore.DEInternal.Weighted>
0.5413

> <Gold.Chemscore.Rot.Weighted>
4.9900

> <Gold.Chemscore.Internal.Correction.Weighted>
   9.000000E+99

> <Gold.Protein.RotatedTorsions>
[ 6907 6896 6895 6894 ] final   61.21 input  -60.11 | X-H torsion
[ 7974 7965 7964 7962 ] final -159.62 input  175.53 | X-H torsion
[ 8008 7997 7996 7995 ] final  120.22 input   59.86 | X-H torsion
[ 10167 10162 10161 10158 ] final  -65.53 input  -65.29 | X-H torsion
[ 10718 10713 10712 10709 ] final  -34.13 input   66.30 | X-H torsion
[ 10763 10752 10751 10750 ] final    8.53 input  -60.55 | X-H torsion
[ 11005 11000 10999 10996 ] final -166.58 input  -57.11 | X-H torsion

> <Gold.Protein.ActiveResidues>
 VAL166  LYS551  ARG553  GLY616  TRP617  ASP618  TYR619  PRO620  LYS621  CYS622 
 ASP623  PHE694  ASN695  SER759  ASP760  ASP761  ALA762  ILE779  LEU786  VAL792 
 PHE793  MET794  SER795  GLU796  ALA797  LYS798  CYS799  TRP800  GLU811  SER814 

> <Gold.Protein.RotatedAtoms>
  152.4069  134.6191  160.0045 H   0  0  0  0  0  0  0  0  0  0  0  0  # atno 6907 bound_to 6896
  151.6380  133.3322  159.3131 H   0  0  0  0  0  0  0  0  0  0  0  0  # atno 6908 bound_to 6896
  150.7963  134.7066  159.6625 H   0  0  0  0  0  0  0  0  0  0  0  0  # atno 6909 bound_to 6896
  144.7458  140.3658  143.6086 H   0  0  0  0  0  0  0  0  0  0  0  0  # atno 7974 bound_to 7965
  156.2633  140.2835  156.1116 H   0  0  0  0  0  0  0  0  0  0  0  0  # atno 8008 bound_to 7997
  155.1252  140.0393  157.2778 H   0  0  0  0  0  0  0  0  0  0  0  0  # atno 8009 bound_to 7997
  154.6641  140.2573  155.7083 H   0  0  0  0  0  0  0  0  0  0  0  0  # atno 8010 bound_to 7997
  140.5723  143.2319  151.6513 H   0  0  0  0  0  0  0  0  0  0  0  0  # atno 10167 bound_to 10162
  156.3543  130.4313  149.7678 H   0  0  0  0  0  0  0  0  0  0  0  0  # atno 10718 bound_to 10713
  153.2240  135.6884  153.7966 H   0  0  0  0  0  0  0  0  0  0  0  0  # atno 10763 bound_to 10752
  153.7155  135.3275  155.3256 H   0  0  0  0  0  0  0  0  0  0  0  0  # atno 10764 bound_to 10752
  154.8283  135.4600  154.1099 H   0  0  0  0  0  0  0  0  0  0  0  0  # atno 10765 bound_to 10752
  140.5628  134.5316  157.5146 H   0  0  0  0  0  0  0  0  0  0  0  0  # atno 11005 bound_to 11000
  145.7129  139.1689  143.2528 LP  0  0  0  0  0  0  0  0  0  0  0  0  # atno 17320 bound_to 7965
  146.1334  140.7156  142.9401 LP  0  0  0  0  0  0  0  0  0  0  0  0  # atno 17321 bound_to 7965
  139.5124  144.3477  152.0681 LP  0  0  0  0  0  0  0  0  0  0  0  0  # atno 17342 bound_to 10162
  140.2616  144.4061  150.6183 LP  0  0  0  0  0  0  0  0  0  0  0  0  # atno 17343 bound_to 10162
  156.4866  130.8066  151.3077 LP  0  0  0  0  0  0  0  0  0  0  0  0  # atno 17370 bound_to 10713
  157.7465  130.9989  150.2868 LP  0  0  0  0  0  0  0  0  0  0  0  0  # atno 17371 bound_to 10713
  139.9399  134.7806  156.0705 LP  0  0  0  0  0  0  0  0  0  0  0  0  # atno 17394 bound_to 11000
  141.1104  133.6645  156.2964 LP  0  0  0  0  0  0  0  0  0  0  0  0  # atno 17395 bound_to 11000

$$$$
