AV-unprocessed.smi:2735|AV-procd|sdf|10543|dock5
  -GOLD-   2272014593D 1   1.00000     0.00000
 Structure written by MMmdl.
 42 42  0  0  0  0  0  0  0  0  2 V2000
  153.1563  143.9461  163.5421 C   0  0  0  0  0  0  0  0  0  0  0  0
  153.0735  143.2954  162.1931 C   0  0  0  0  0  0  0  0  0  0  0  0
  153.4754  141.9834  161.8204 C   0  0  0  0  0  0  0  0  0  0  0  0
  153.1697  141.9010  160.4913 C   0  0  0  0  0  0  0  0  0  0  0  0
  153.3356  140.7582  159.5433 C   0  0  0  0  0  0  0  0  0  0  0  0
  152.6316  143.1236  160.1211 N   0  0  0  0  0  0  0  0  0  0  0  0
  152.0840  143.5344  158.8266 C   0  0  2  0  0  0  0  0  0  0  0  0
  151.5820  144.9934  158.8481 C   0  0  0  0  0  0  0  0  0  0  0  0
  151.0115  142.5333  158.3621 C   0  0  0  0  0  0  0  0  0  0  0  0
  149.9638  142.3858  158.9926 O   0  0  0  0  0  0  0  0  0  0  0  0
  151.3033  141.8417  157.2496 N   0  0  0  0  0  0  0  0  0  0  0  0
  150.4878  140.7907  156.6475 C   0  0  2  0  0  0  0  0  0  0  0  0
  150.0223  139.8249  157.7644 C   0  0  0  0  0  0  0  0  0  0  0  0
  149.1370  138.6463  157.2928 C   0  0  0  0  0  0  0  0  0  0  0  0
  147.8006  139.1632  156.7395 C   0  0  0  0  0  0  0  0  0  0  0  0
  148.8968  137.6051  158.3986 C   0  0  0  0  0  0  0  0  0  0  0  0
  151.3318  139.9960  155.6382 C   0  0  0  0  0  0  0  0  0  0  0  0
  150.8534  139.8499  154.4923 O   0  0  0  0  0  0  0  0  0  0  0  0
  152.4328  139.5414  156.0249 O   0  5  0  0  0  0  0  0  0  0  0  0
  152.5673  143.9700  161.1756 N   0  0  0  0  0  0  0  0  0  0  0  0
  149.6240  141.2185  156.1361 H   0  0  0  0  0  0  0  0  0  0  0  0
  153.4240  143.2227  164.3126 H   0  0  0  0  0  0  0  0  0  0  0  0
  152.2015  144.3910  163.8240 H   0  0  0  0  0  0  0  0  0  0  0  0
  153.9086  144.7351  163.5506 H   0  0  0  0  0  0  0  0  0  0  0  0
  153.9123  141.2136  162.4391 H   0  0  0  0  0  0  0  0  0  0  0  0
  153.7674  139.8937  160.0475 H   0  0  0  0  0  0  0  0  0  0  0  0
  153.9965  141.0286  158.7197 H   0  0  0  0  0  0  0  0  0  0  0  0
  152.3760  140.4548  159.1252 H   0  0  0  0  0  0  0  0  0  0  0  0
  152.8895  143.4886  158.0936 H   0  0  0  0  0  0  0  0  0  0  0  0
  151.2582  145.3123  157.8565 H   0  0  0  0  0  0  0  0  0  0  0  0
  152.3744  145.6718  159.1649 H   0  0  0  0  0  0  0  0  0  0  0  0
  150.7403  145.1273  159.5290 H   0  0  0  0  0  0  0  0  0  0  0  0
  152.1772  142.0449  156.7876 H   0  0  0  0  0  0  0  0  0  0  0  0
  150.8987  139.4248  158.2772 H   0  0  0  0  0  0  0  0  0  0  0  0
  149.4679  140.3857  158.5195 H   0  0  0  0  0  0  0  0  0  0  0  0
  149.6408  138.1397  156.4687 H   0  0  0  0  0  0  0  0  0  0  0  0
  147.2260  139.6788  157.5097 H   0  0  0  0  0  0  0  0  0  0  0  0
  147.1890  138.3448  156.3587 H   0  0  0  0  0  0  0  0  0  0  0  0
  147.9593  139.8624  155.9179 H   0  0  0  0  0  0  0  0  0  0  0  0
  148.4409  138.0590  159.2789 H   0  0  0  0  0  0  0  0  0  0  0  0
  149.8272  137.1300  158.7094 H   0  0  0  0  0  0  0  0  0  0  0  0
  148.2346  136.8115  158.0517 H   0  0  0  0  0  0  0  0  0  0  0  0
  1  2  1  0  0  0  0
  1 22  1  0  0  0  0
  1 23  1  0  0  0  0
  1 24  1  0  0  0  0
  2 20  2  0  0  0  0
  2  3  1  0  0  0  0
  3  4  2  0  0  0  0
  3 25  1  0  0  0  0
  4  5  1  0  0  0  0
  4  6  1  0  0  0  0
  5 26  1  0  0  0  0
  5 27  1  0  0  0  0
  5 28  1  0  0  0  0
  6  7  1  0  0  0  0
  6 20  1  0  0  0  0
  7  8  1  0  0  0  0
  7  9  1  0  0  0  0
  7 29  1  0  0  0  0
  8 30  1  0  0  0  0
  8 31  1  0  0  0  0
  8 32  1  0  0  0  0
  9 10  2  0  0  0  0
  9 11  1  0  0  0  0
 11 12  1  0  0  0  0
 11 33  1  0  0  0  0
 12 21  1  0  0  0  0
 12 13  1  0  0  0  0
 12 17  1  0  0  0  0
 13 14  1  0  0  0  0
 13 34  1  0  0  0  0
 13 35  1  0  0  0  0
 14 15  1  0  0  0  0
 14 16  1  0  0  0  0
 14 36  1  0  0  0  0
 15 37  1  0  0  0  0
 15 38  1  0  0  0  0
 15 39  1  0  0  0  0
 16 40  1  0  0  0  0
 16 41  1  0  0  0  0
 16 42  1  0  0  0  0
 17 18  2  0  0  0  0
 17 19  1  0  0  0  0
M  CHG  1  19  -1
M  END
> <s_m_source_file>
AV-unprocessed.smi

> <i_m_source_file_index>
2735

> <i_lp_mmshare_version>
43012

> <i_f3d_flags>
0

> <s_epik_input>
W0NIM11jMVtjSF1jKFtDSDNdKW4objEpW0NASF0oW0NIM10pQyg9TylbTkhdW0NASF0oQyg9TylbT0hdKVtDSDJdW0NIXShbQ0gzXSlbQ0gzXQ==

> <s_epik_cmdline>
J2VwaWtfcHl0aG9uJywgJy1waCcsICc3LjAnLCAnLXRuJywgJzgnLCAnLW1hJywgJzIwMCcsICctbWV0YWxfYmluZGluZycsICctaW1hZScsICc8aW5maWxlLm1hZT4nLCAnLW9tYWUnLCAnPG91dGZpbGUubWFlPic=

> <r_lp_tautomer_probability>
1

> <r_epik_Ionization_Penalty>
0.0012303

> <r_epik_Ionization_Penalty_Charging>
0.000186407

> <r_epik_Ionization_Penalty_Neutral>
0.0010439

> <r_epik_State_Penalty>
-0

> <r_epik_Charging_Adjusted_Penalty>
0.000186407

> <i_epik_Tot_Q>
-1

> <i_epik_Tot_abs_Q>
1

> <r_epik_Metal_State_Penalty>
-0

> <b_epik_Metal_Only>
0

> <s_lp_Force_Field>
OPLS_2005

> <r_lp_Energy>
6.45659

> <b_lp_Chiralities_Consistent>
1

> <s_lp_Variant>
AV-unprocessed.smi:2735-3

> <Gold.Version>
5.8.1

> <Gold.Id.Protein>
6NUR|6NUR_protein|mol2

> <Gold.PLP.Fitness>
50.6105

> <Gold.PLP.PLP>
-42.1823

> <Gold.PLP.part.hbond>
-3.0000

> <Gold.PLP.part.metal>
0.0000

> <Gold.PLP.part.buried>
-3.9222

> <Gold.PLP.part.nonpolar>
-34.0824

> <Gold.PLP.part.repulsive>
0.3489

> <Gold.PLP.ligand.clash>
0.0000

> <Gold.PLP.ligand.torsion>
0.3863

> <Gold.PLP.Chemscore.Hbond>
3.0000

> <Gold.PLP.Chemscore.CHOScore>
0.0000

> <Gold.PLP.Chemscore.Metal>
0.0000

> <Gold.Chemscore.Hbonds>
donor molecule, donor type, donor heavy atom, donor atom, acceptor molecule, acceptor atom, score
      P1  H  7989  7998       L1    18  1.00
      P1  H  7997  8008       L1    19  2.00

> <Gold.PLP.Chemscore.Internal.Correction>
0.2008

> <Gold.Rescore>
     Score         DG    S(hbond)    S(metal)    S(lipo)     H(rot)  DE(clash)    DE(int)     intcor
     14.25     -16.86       1.90        0.00      92.02       2.24       0.42       2.19       ----

> <Gold.Chemscore.Fitness>
14.2463

> <Gold.Chemscore.DG>
-16.8585

> <Gold.Chemscore.ZeroCoef>
-5.4800

> <Gold.Chemscore.Hbond>
1.8994

> <Gold.Chemscore.Metal>
0.0000

> <Gold.Chemscore.Lipo>
92.0172

> <Gold.Chemscore.Internal_Hbond>
0.0000

> <Gold.Chemscore.DEClash>
0.4175

> <Gold.Chemscore.DEInternal>
2.1948

> <Gold.Chemscore.Rot>
2.2388

> <Gold.Chemscore.Internal.Correction>
   9.000000E+99

> <Gold.Chemscore.Hbonds>
donor molecule, donor type, donor heavy atom, donor atom, acceptor molecule, acceptor atom, score
      P1  H  7989  7998       L1    18  0.65
      P1  H  7997  8008       L1    19  0.94

> <Gold.Chemscore.Hbond.Weighted>
-6.3439

> <Gold.Chemscore.Metal.Weighted>
-0.0000

> <Gold.Chemscore.Lipo.Weighted>
-10.7660

> <Gold.Chemscore.Internal_Hbond.Weighted>
0.0000

> <Gold.Chemscore.DEClash.Weighted>
0.4175

> <Gold.Chemscore.DEInternal.Weighted>
2.1948

> <Gold.Chemscore.Rot.Weighted>
5.7314

> <Gold.Chemscore.Internal.Correction.Weighted>
   9.000000E+99

> <Gold.Protein.RotatedTorsions>
[ 6907 6896 6895 6894 ] final -115.09 input  -60.11 | X-H torsion
[ 7974 7965 7964 7962 ] final   13.01 input  175.53 | X-H torsion
[ 8008 7997 7996 7995 ] final  -34.07 input   59.86 | X-H torsion
[ 10167 10162 10161 10158 ] final  139.20 input  -65.29 | X-H torsion
[ 10718 10713 10712 10709 ] final -171.78 input   66.30 | X-H torsion
[ 10763 10752 10751 10750 ] final -163.92 input  -60.55 | X-H torsion
[ 11005 11000 10999 10996 ] final   66.73 input  -57.11 | X-H torsion

> <Gold.Protein.ActiveResidues>
 VAL166  LYS551  ARG553  GLY616  TRP617  ASP618  TYR619  PRO620  LYS621  CYS622 
 ASP623  PHE694  ASN695  SER759  ASP760  ASP761  ALA762  ILE779  LEU786  VAL792 
 PHE793  MET794  SER795  GLU796  ALA797  LYS798  CYS799  TRP800  GLU811  SER814 

> <Gold.Protein.RotatedAtoms>
  150.7951  133.8708  159.3258 H   0  0  0  0  0  0  0  0  0  0  0  0  # atno 6907 bound_to 6896
  151.6536  135.0996  160.0175 H   0  0  0  0  0  0  0  0  0  0  0  0  # atno 6908 bound_to 6896
  152.4031  133.6809  159.6368 H   0  0  0  0  0  0  0  0  0  0  0  0  # atno 6909 bound_to 6896
  146.2339  139.9252  142.8504 H   0  0  0  0  0  0  0  0  0  0  0  0  # atno 7974 bound_to 7965
  154.4131  140.1694  156.1990 H   0  0  0  0  0  0  0  0  0  0  0  0  # atno 8008 bound_to 7997
  155.9540  140.3398  155.6409 H   0  0  0  0  0  0  0  0  0  0  0  0  # atno 8009 bound_to 7997
  155.6834  140.0725  157.2467 H   0  0  0  0  0  0  0  0  0  0  0  0  # atno 8010 bound_to 7997
  139.5086  144.6309  151.5820 H   0  0  0  0  0  0  0  0  0  0  0  0  # atno 10167 bound_to 10162
  156.7460  130.9360  151.3112 H   0  0  0  0  0  0  0  0  0  0  0  0  # atno 10718 bound_to 10713
  154.7077  135.3000  154.9244 H   0  0  0  0  0  0  0  0  0  0  0  0  # atno 10763 bound_to 10752
  154.0156  135.6689  153.4772 H   0  0  0  0  0  0  0  0  0  0  0  0  # atno 10764 bound_to 10752
  153.0730  135.5050  154.8258 H   0  0  0  0  0  0  0  0  0  0  0  0  # atno 10765 bound_to 10752
  139.9814  134.6738  156.0256 H   0  0  0  0  0  0  0  0  0  0  0  0  # atno 11005 bound_to 11000
  145.2097  140.9890  143.4107 LP  0  0  0  0  0  0  0  0  0  0  0  0  # atno 17320 bound_to 7965
  144.9701  139.3889  143.6313 LP  0  0  0  0  0  0  0  0  0  0  0  0  # atno 17321 bound_to 7965
  140.6041  143.9556  150.6406 LP  0  0  0  0  0  0  0  0  0  0  0  0  # atno 17342 bound_to 10162
  140.2778  143.3411  152.1179 LP  0  0  0  0  0  0  0  0  0  0  0  0  # atno 17343 bound_to 10162
  157.6798  130.9129  150.0239 LP  0  0  0  0  0  0  0  0  0  0  0  0  # atno 17370 bound_to 10713
  156.1433  130.3642  149.9549 LP  0  0  0  0  0  0  0  0  0  0  0  0  # atno 17371 bound_to 10713
  141.1485  133.6552  156.3942 LP  0  0  0  0  0  0  0  0  0  0  0  0  # atno 17394 bound_to 11000
  140.5089  134.6414  157.5277 LP  0  0  0  0  0  0  0  0  0  0  0  0  # atno 17395 bound_to 11000

$$$$
