AV-unprocessed.smi:2087|AV-procd|sdf|8525|dock8
  -GOLD-   2272011243D 1   1.00000     0.00000
 Structure written by MMmdl.
 50 51  0  0  0  0  0  0  0  0  1 V2000
  153.3736  140.8004  160.2687 C   0  0  0  0  0  0  0  0  0  0  0  0
  152.7132  142.1578  159.9728 C   0  0  0  0  0  0  0  0  0  0  0  0
  152.6229  143.0574  161.2178 C   0  0  0  0  0  0  0  0  0  0  0  0
  151.3859  142.0473  159.1819 C   0  0  0  0  0  0  0  0  0  0  0  0
  151.4683  141.7199  157.7546 N   0  0  0  0  0  0  0  0  0  0  0  0
  150.1875  141.9645  157.0990 C   0  0  0  0  0  0  0  0  0  0  0  0
  150.2332  141.6353  155.5987 C   0  0  0  0  0  0  0  0  0  0  0  0
  150.6346  140.2816  155.4292 O   0  0  0  0  0  0  0  0  0  0  0  0
  151.9129  140.0055  155.9960 C   0  0  2  0  0  0  0  0  0  0  0  0
  152.2607  138.5279  155.7474 C   0  0  0  0  0  0  0  0  0  0  0  0
  151.0613  137.7136  155.5808 N   0  0  0  0  0  0  0  0  0  0  0  0
  150.9869  136.3888  155.7800 C   0  0  0  0  0  0  0  0  0  0  0  0
  151.9460  135.7026  156.1364 O   0  0  0  0  0  0  0  0  0  0  0  0
  149.6062  135.7551  155.5617 C   0  0  0  0  0  0  0  0  0  0  0  0
  149.6659  134.3115  155.2952 N   0  0  0  0  0  0  0  0  0  0  0  0
  149.1645  133.8143  154.1056 C   0  0  0  0  0  0  0  0  0  0  0  0
  149.1715  132.5023  153.7846 C   0  0  0  0  0  0  0  0  0  0  0  0
  149.7260  131.5128  154.6998 C   0  0  0  0  0  0  0  0  0  0  0  0
  149.7456  130.3045  154.4600 O   0  0  0  0  0  0  0  0  0  0  0  0
  150.2402  132.0468  155.9037 N   0  0  0  0  0  0  0  0  0  0  0  0
  150.7878  131.0997  156.8528 C   0  0  0  0  0  0  0  0  0  0  0  0
  150.2186  133.4204  156.2411 C   0  0  0  0  0  0  0  0  0  0  0  0
  150.6550  133.8439  157.3139 O   0  0  0  0  0  0  0  0  0  0  0  0
  151.8699  140.3381  157.5018 C   0  0  0  0  0  0  0  0  0  0  0  0
  152.7887  140.2104  160.9746 H   0  0  0  0  0  0  0  0  0  0  0  0
  154.3668  140.9349  160.6981 H   0  0  0  0  0  0  0  0  0  0  0  0
  153.4869  140.2138  159.3566 H   0  0  0  0  0  0  0  0  0  0  0  0
  153.3976  142.6827  159.3046 H   0  0  0  0  0  0  0  0  0  0  0  0
  152.0345  142.6129  162.0179 H   0  0  0  0  0  0  0  0  0  0  0  0
  152.1781  144.0226  160.9738 H   0  0  0  0  0  0  0  0  0  0  0  0
  153.6165  143.2520  161.6225 H   0  0  0  0  0  0  0  0  0  0  0  0
  150.7108  141.3538  159.6856 H   0  0  0  0  0  0  0  0  0  0  0  0
  150.9038  143.0225  159.2662 H   0  0  0  0  0  0  0  0  0  0  0  0
  149.4088  141.3646  157.5732 H   0  0  0  0  0  0  0  0  0  0  0  0
  149.8982  143.0081  157.2273 H   0  0  0  0  0  0  0  0  0  0  0  0
  149.2496  141.7739  155.1497 H   0  0  0  0  0  0  0  0  0  0  0  0
  150.9235  142.2979  155.0747 H   0  0  0  0  0  0  0  0  0  0  0  0
  152.6620  140.6349  155.5114 H   0  0  0  0  0  0  0  0  0  0  0  0
  152.8424  138.4390  154.8294 H   0  0  0  0  0  0  0  0  0  0  0  0
  152.8916  138.1392  156.5489 H   0  0  0  0  0  0  0  0  0  0  0  0
  150.2215  138.1959  155.2953 H   0  0  0  0  0  0  0  0  0  0  0  0
  149.0034  135.9440  156.4510 H   0  0  0  0  0  0  0  0  0  0  0  0
  149.0912  136.2641  154.7447 H   0  0  0  0  0  0  0  0  0  0  0  0
  148.7395  134.5090  153.3955 H   0  0  0  0  0  0  0  0  0  0  0  0
  148.7595  132.1804  152.8394 H   0  0  0  0  0  0  0  0  0  0  0  0
  151.3636  131.6087  157.6253 H   0  0  0  0  0  0  0  0  0  0  0  0
  151.4540  130.4258  156.3111 H   0  0  0  0  0  0  0  0  0  0  0  0
  149.9439  130.5625  157.2881 H   0  0  0  0  0  0  0  0  0  0  0  0
  152.8620  140.1593  157.9098 H   0  0  0  0  0  0  0  0  0  0  0  0
  151.1877  139.6547  158.0099 H   0  0  0  0  0  0  0  0  0  0  0  0
  1  2  1  0  0  0  0
  1 25  1  0  0  0  0
  1 26  1  0  0  0  0
  1 27  1  0  0  0  0
  2  3  1  0  0  0  0
  2  4  1  0  0  0  0
  2 28  1  0  0  0  0
  3 29  1  0  0  0  0
  3 30  1  0  0  0  0
  3 31  1  0  0  0  0
  4  5  1  0  0  0  0
  4 32  1  0  0  0  0
  4 33  1  0  0  0  0
  5 24  1  0  0  0  0
  5  6  1  0  0  0  0
  6  7  1  0  0  0  0
  6 34  1  0  0  0  0
  6 35  1  0  0  0  0
  7  8  1  0  0  0  0
  7 36  1  0  0  0  0
  7 37  1  0  0  0  0
  8  9  1  0  0  0  0
  9 10  1  0  0  0  0
  9 24  1  0  0  0  0
  9 38  1  0  0  0  0
 10 11  1  0  0  0  0
 10 39  1  0  0  0  0
 10 40  1  0  0  0  0
 11 12  1  0  0  0  0
 11 41  1  0  0  0  0
 12 13  2  0  0  0  0
 12 14  1  0  0  0  0
 14 15  1  0  0  0  0
 14 42  1  0  0  0  0
 14 43  1  0  0  0  0
 15 22  1  0  0  0  0
 15 16  1  0  0  0  0
 16 17  2  0  0  0  0
 16 44  1  0  0  0  0
 17 18  1  0  0  0  0
 17 45  1  0  0  0  0
 18 19  2  0  0  0  0
 18 20  1  0  0  0  0
 20 21  1  0  0  0  0
 20 22  1  0  0  0  0
 21 46  1  0  0  0  0
 21 47  1  0  0  0  0
 21 48  1  0  0  0  0
 22 23  2  0  0  0  0
 24 49  1  0  0  0  0
 24 50  1  0  0  0  0
M  END
> <s_m_source_file>
AV-unprocessed.smi

> <i_m_source_file_index>
2087

> <i_lp_mmshare_version>
43012

> <i_f3d_flags>
0

> <s_epik_input>
W0NIM11bQ0hdKFtDSDNdKVtDSDJdTjFbQ0gyXVtDSDJdT1tDQEhdKFtDSDJdMSlbQ0gyXVtOSF1DKD1PKVtDSDJdbjJbY0hdW2NIXWMoPU8pbihbQ0gzXSljMj1P

> <s_epik_cmdline>
J2VwaWtfcHl0aG9uJywgJy1waCcsICc3LjAnLCAnLXRuJywgJzgnLCAnLW1hJywgJzIwMCcsICctbWV0YWxfYmluZGluZycsICctaW1hZScsICc8aW5maWxlLm1hZT4nLCAnLW9tYWUnLCAnPG91dGZpbGUubWFlPic=

> <r_lp_tautomer_probability>
1

> <r_epik_Ionization_Penalty>
1.11669

> <r_epik_Ionization_Penalty_Charging>
1.16423e-08

> <r_epik_Ionization_Penalty_Neutral>
1.11669

> <r_epik_State_Penalty>
1.17516

> <r_epik_Charging_Adjusted_Penalty>
1.17516

> <i_epik_Tot_Q>
0

> <i_epik_Tot_abs_Q>
0

> <r_epik_Metal_State_Penalty>
1.17513

> <b_epik_Metal_Only>
0

> <s_lp_Force_Field>
OPLS_2005

> <r_lp_Energy>
38.2596

> <b_lp_Chiralities_Consistent>
1

> <s_lp_Variant>
AV-unprocessed.smi:2087-6

> <Gold.Version>
5.8.1

> <Gold.Id.Protein>
6NUR|6NUR_protein|mol2

> <Gold.PLP.Fitness>
50.7211

> <Gold.PLP.PLP>
-44.9970

> <Gold.PLP.part.hbond>
-2.4396

> <Gold.PLP.part.metal>
0.0000

> <Gold.PLP.part.buried>
-5.6145

> <Gold.PLP.part.nonpolar>
-37.6875

> <Gold.PLP.part.repulsive>
0.2391

> <Gold.PLP.ligand.clash>
0.0000

> <Gold.PLP.ligand.torsion>
1.2088

> <Gold.PLP.Chemscore.Hbond>
1.6810

> <Gold.PLP.Chemscore.CHOScore>
1.0000

> <Gold.PLP.Chemscore.Metal>
0.0000

> <Gold.Chemscore.Hbonds>
donor molecule, donor type, donor heavy atom, donor atom, acceptor molecule, acceptor atom, score
      P1  H  6896  6908       L1    23  0.70
      P1  H  7989  7998       L1     8  0.09
      P1  H 10752 10765       L1    13  0.93
      L1  C    16    44       P1  7948  0.99

> <Gold.PLP.Chemscore.Internal.Correction>
0.0985

> <Gold.Rescore>
     Score         DG    S(hbond)    S(metal)    S(lipo)     H(rot)  DE(clash)    DE(int)     intcor
     15.67     -17.38       1.96        0.00      93.18       2.16       0.14       1.57       ----

> <Gold.Chemscore.Fitness>
15.6652

> <Gold.Chemscore.DG>
-17.3762

> <Gold.Chemscore.ZeroCoef>
-5.4800

> <Gold.Chemscore.Hbond>
1.9560

> <Gold.Chemscore.Metal>
0.0000

> <Gold.Chemscore.Lipo>
93.1848

> <Gold.Chemscore.Internal_Hbond>
0.0000

> <Gold.Chemscore.DEClash>
0.1375

> <Gold.Chemscore.DEInternal>
1.5735

> <Gold.Chemscore.Rot>
2.1638

> <Gold.Chemscore.Internal.Correction>
   9.000000E+99

> <Gold.Chemscore.Hbonds>
donor molecule, donor type, donor heavy atom, donor atom, acceptor molecule, acceptor atom, score
      P1  H  6896  6908       L1    23  0.72
      P1  H 10752 10765       L1    13  0.55

> <Gold.Chemscore.Hbond.Weighted>
-6.5329

> <Gold.Chemscore.Metal.Weighted>
-0.0000

> <Gold.Chemscore.Lipo.Weighted>
-10.9026

> <Gold.Chemscore.Internal_Hbond.Weighted>
0.0000

> <Gold.Chemscore.DEClash.Weighted>
0.1375

> <Gold.Chemscore.DEInternal.Weighted>
1.5735

> <Gold.Chemscore.Rot.Weighted>
5.5393

> <Gold.Chemscore.Internal.Correction.Weighted>
   9.000000E+99

> <Gold.Protein.RotatedTorsions>
[ 6907 6896 6895 6894 ] final  106.95 input  -60.11 | X-H torsion
[ 7974 7965 7964 7962 ] final  137.49 input  175.53 | X-H torsion
[ 8008 7997 7996 7995 ] final  -48.56 input   59.86 | X-H torsion
[ 10167 10162 10161 10158 ] final   97.42 input  -65.29 | X-H torsion
[ 10718 10713 10712 10709 ] final  -29.93 input   66.30 | X-H torsion
[ 10763 10752 10751 10750 ] final -171.78 input  -60.55 | X-H torsion
[ 11005 11000 10999 10996 ] final  -88.74 input  -57.11 | X-H torsion

> <Gold.Protein.ActiveResidues>
 VAL166  LYS551  ARG553  GLY616  TRP617  ASP618  TYR619  PRO620  LYS621  CYS622 
 ASP623  PHE694  ASN695  SER759  ASP760  ASP761  ALA762  ILE779  LEU786  VAL792 
 PHE793  MET794  SER795  GLU796  ALA797  LYS798  CYS799  TRP800  GLU811  SER814 

> <Gold.Protein.RotatedAtoms>
  152.5174  133.9306  159.7578 H   0  0  0  0  0  0  0  0  0  0  0  0  # atno 6907 bound_to 6896
  150.9657  133.6388  159.2753 H   0  0  0  0  0  0  0  0  0  0  0  0  # atno 6908 bound_to 6896
  151.3617  135.0911  159.9489 H   0  0  0  0  0  0  0  0  0  0  0  0  # atno 6909 bound_to 6896
  144.9463  139.4871  143.5547 H   0  0  0  0  0  0  0  0  0  0  0  0  # atno 7974 bound_to 7965
  154.4031  140.1318  156.4358 H   0  0  0  0  0  0  0  0  0  0  0  0  # atno 8008 bound_to 7997
  155.7506  140.3488  155.5128 H   0  0  0  0  0  0  0  0  0  0  0  0  # atno 8009 bound_to 7997
  155.8953  140.1010  157.1379 H   0  0  0  0  0  0  0  0  0  0  0  0  # atno 8010 bound_to 7997
  139.7803  144.6891  151.0032 H   0  0  0  0  0  0  0  0  0  0  0  0  # atno 10167 bound_to 10162
  156.4062  130.4399  149.7286 H   0  0  0  0  0  0  0  0  0  0  0  0  # atno 10718 bound_to 10713
  154.6267  135.2881  155.0264 H   0  0  0  0  0  0  0  0  0  0  0  0  # atno 10763 bound_to 10752
  154.1440  135.6514  153.4952 H   0  0  0  0  0  0  0  0  0  0  0  0  # atno 10764 bound_to 10752
  153.0260  135.5339  154.7078 H   0  0  0  0  0  0  0  0  0  0  0  0  # atno 10765 bound_to 10752
  141.1597  133.7588  156.9494 H   0  0  0  0  0  0  0  0  0  0  0  0  # atno 11005 bound_to 11000
  146.3305  139.8517  142.8872 LP  0  0  0  0  0  0  0  0  0  0  0  0  # atno 17320 bound_to 7965
  145.2913  141.0168  143.3661 LP  0  0  0  0  0  0  0  0  0  0  0  0  # atno 17321 bound_to 7965
  140.7818  143.4491  151.0440 LP  0  0  0  0  0  0  0  0  0  0  0  0  # atno 17342 bound_to 10162
  139.8171  143.7870  152.3175 LP  0  0  0  0  0  0  0  0  0  0  0  0  # atno 17343 bound_to 10162
  156.4282  130.7802  151.2821 LP  0  0  0  0  0  0  0  0  0  0  0  0  # atno 17370 bound_to 10713
  157.7505  131.0162  150.3535 LP  0  0  0  0  0  0  0  0  0  0  0  0  # atno 17371 bound_to 10713
  140.1267  134.9382  157.2280 LP  0  0  0  0  0  0  0  0  0  0  0  0  # atno 17394 bound_to 11000
  140.3004  134.3138  155.7291 LP  0  0  0  0  0  0  0  0  0  0  0  0  # atno 17395 bound_to 11000

$$$$
