AV-unprocessed.smi:44|AV-procd|sdf|402|dock4
  -GOLD-   2262016253D 1   1.00000     0.00000
 Structure written by MMmdl.
 29 31  0  0  0  0  0  0  0  0  3 V2000
  153.2668  138.6558  156.7575 O   0  0  0  0  0  0  0  0  0  0  0  0
  152.3711  138.6697  155.9156 C   0  0  0  0  0  0  0  0  0  0  0  0
  152.0634  137.7007  154.9941 N   0  5  0  0  0  0  0  0  0  0  0  0
  151.0118  137.8514  154.0966 C   0  0  0  0  0  0  0  0  0  0  0  0
  150.2132  138.8535  153.9892 N   0  0  0  0  0  0  0  0  0  0  0  0
  150.4490  139.9004  154.8926 C   0  0  0  0  0  0  0  0  0  0  0  0
  151.4610  139.8589  155.8230 C   0  0  0  0  0  0  0  0  0  0  0  0
  151.4540  141.0118  156.5608 N   0  3  0  0  0  0  0  0  0  0  0  0
  150.4366  141.7005  156.0439 C   0  0  0  0  0  0  0  0  0  0  0  0
  149.7721  141.0864  155.0190 N   0  0  0  0  0  0  0  0  0  0  0  0
  148.6034  141.6032  154.2444 C   0  0  2  0  0  0  0  0  0  0  0  0
  147.3907  141.7369  155.1666 C   0  0  0  0  0  0  0  0  0  0  0  0
  146.7181  140.3942  154.9834 C   0  0  0  0  0  0  0  0  0  0  0  0
  146.9720  140.1277  153.5001 C   0  0  2  0  0  0  0  0  0  0  0  0
  146.9165  138.6391  153.1266 C   0  0  0  0  0  0  0  0  0  0  0  0
  147.8441  137.9140  153.9038 O   0  0  0  0  0  0  0  0  0  0  0  0
  148.2792  140.6540  153.2704 O   0  0  0  0  0  0  0  0  0  0  0  0
  152.0718  141.2773  157.3170 H   0  0  0  0  0  0  0  0  0  0  0  0
  148.9466  142.5435  153.8115 H   0  0  0  0  0  0  0  0  0  0  0  0
  146.2527  140.7032  152.9145 H   0  0  0  0  0  0  0  0  0  0  0  0
  150.9094  136.9839  153.4397 H   0  0  0  0  0  0  0  0  0  0  0  0
  150.1565  142.6723  156.4069 H   0  0  0  0  0  0  0  0  0  0  0  0
  147.6759  141.9589  156.1958 H   0  0  0  0  0  0  0  0  0  0  0  0
  146.7537  142.5399  154.7931 H   0  0  0  0  0  0  0  0  0  0  0  0
  147.2022  139.6399  155.6049 H   0  0  0  0  0  0  0  0  0  0  0  0
  145.6574  140.4122  155.2353 H   0  0  0  0  0  0  0  0  0  0  0  0
  145.9142  138.2302  153.2546 H   0  0  0  0  0  0  0  0  0  0  0  0
  147.1907  138.5054  152.0796 H   0  0  0  0  0  0  0  0  0  0  0  0
  148.4343  137.4584  153.3230 H   0  0  0  0  0  0  0  0  0  0  0  0
  1  2  2  0  0  0  0
  2  7  1  0  0  0  0
  2  3  1  0  0  0  0
  3  4  1  0  0  0  0
  4 21  1  0  0  0  0
  4  5  2  0  0  0  0
  5  6  1  0  0  0  0
  6 10  1  0  0  0  0
  6  7  2  0  0  0  0
  7  8  1  0  0  0  0
  8  9  2  0  0  0  0
  8 18  1  0  0  0  0
  9 10  1  0  0  0  0
  9 22  1  0  0  0  0
 10 11  1  0  0  0  0
 11 19  1  0  0  0  0
 11 17  1  0  0  0  0
 11 12  1  0  0  0  0
 12 13  1  0  0  0  0
 12 23  1  0  0  0  0
 12 24  1  0  0  0  0
 13 14  1  0  0  0  0
 13 25  1  0  0  0  0
 13 26  1  0  0  0  0
 14 20  1  0  0  0  0
 14 15  1  0  0  0  0
 14 17  1  0  0  0  0
 15 16  1  0  0  0  0
 15 27  1  0  0  0  0
 15 28  1  0  0  0  0
 16 29  1  0  0  0  0
M  CHG  1   3  -1
M  CHG  1   8   1
M  END
> <s_m_source_file>
AV-unprocessed.smi

> <i_m_source_file_index>
44

> <i_lp_mmshare_version>
43012

> <i_f3d_flags>
0

> <s_epik_input>
bjFbY0hdW25IXWMoPU8pYyhjMTIpbltjSF1uMltDQEhdM1tDSDJdW0NIMl1bQ0BIXShPMylbQ0gyXVtPSF0=

> <s_epik_cmdline>
J2VwaWtfcHl0aG9uJywgJy1waCcsICc3LjAnLCAnLXRuJywgJzgnLCAnLW1hJywgJzIwMCcsICctbWV0YWxfYmluZGluZycsICctaW1hZScsICc8aW5maWxlLm1hZT4nLCAnLW9tYWUnLCAnPG91dGZpbGUubWFlPic=

> <r_lp_tautomer_probability>
0.144281

> <r_epik_Ionization_Penalty>
5.63685

> <r_epik_Ionization_Penalty_Charging>
5.58669

> <r_epik_Ionization_Penalty_Neutral>
0.0501585

> <r_epik_State_Penalty>
1.20809

> <r_epik_Charging_Adjusted_Penalty>
6.79478

> <i_epik_Tot_Q>
0

> <i_epik_Tot_abs_Q>
2

> <r_epik_Metal_State_Penalty>
1.52487

> <b_epik_Metal_Only>
0

> <s_epik_Chemistry_Notes>
This compound contains an acetal/aminal-like group ( X-CH(R)-Y where X, Y are N, S, or O) that may be acid/base labile, releasing an aldehyde.

> <s_lp_Force_Field>
OPLS_2005

> <r_lp_Energy>
43.1819

> <b_lp_Chiralities_Consistent>
1

> <s_lp_Variant>
AV-unprocessed.smi:44-8

> <Gold.Version>
5.8.1

> <Gold.Id.Protein>
6NUR|6NUR_protein|mol2

> <Gold.PLP.Fitness>
39.9265

> <Gold.PLP.PLP>
-26.3472

> <Gold.PLP.part.hbond>
-2.6730

> <Gold.PLP.part.metal>
0.0000

> <Gold.PLP.part.buried>
-2.2601

> <Gold.PLP.part.nonpolar>
-25.4123

> <Gold.PLP.part.repulsive>
4.0809

> <Gold.PLP.ligand.clash>
0.0000

> <Gold.PLP.ligand.torsion>
0.0291

> <Gold.PLP.Chemscore.Hbond>
2.4992

> <Gold.PLP.Chemscore.CHOScore>
2.0413

> <Gold.PLP.Chemscore.Metal>
0.0000

> <Gold.Chemscore.Hbonds>
donor molecule, donor type, donor heavy atom, donor atom, acceptor molecule, acceptor atom, score
      L1  H    16    29       P1  7948  1.00
      P1  H  7997  8010       L1     1  1.00
      P1  H 10752 10764       L1     3  0.50
      L1  C     4    21       P1  7948  0.10
      L1  C     4    21       P1  7949  0.93
      L1  C     9    22       P1  8028  1.00

> <Gold.PLP.Chemscore.Internal.Correction>
0.0157

> <Gold.Rescore>
     Score         DG    S(hbond)    S(metal)    S(lipo)     H(rot)  DE(clash)    DE(int)     intcor
      7.80      -9.52       2.24        0.00      20.33       2.27       0.19       1.53       ----

> <Gold.Chemscore.Fitness>
7.8025

> <Gold.Chemscore.DG>
-9.5187

> <Gold.Chemscore.ZeroCoef>
-5.4800

> <Gold.Chemscore.Hbond>
2.2385

> <Gold.Chemscore.Metal>
0.0000

> <Gold.Chemscore.Lipo>
20.3299

> <Gold.Chemscore.Internal_Hbond>
0.0000

> <Gold.Chemscore.DEClash>
0.1868

> <Gold.Chemscore.DEInternal>
1.5294

> <Gold.Chemscore.Rot>
2.2720

> <Gold.Chemscore.Internal.Correction>
   9.000000E+99

> <Gold.Chemscore.Hbonds>
donor molecule, donor type, donor heavy atom, donor atom, acceptor molecule, acceptor atom, score
      L1  H    16    29       P1  7948  0.97
      P1  H  7997  8010       L1     1  0.71
      P1  H 10752 10764       L1     3  0.13

> <Gold.Chemscore.Hbond.Weighted>
-7.4766

> <Gold.Chemscore.Metal.Weighted>
-0.0000

> <Gold.Chemscore.Lipo.Weighted>
-2.3786

> <Gold.Chemscore.Internal_Hbond.Weighted>
0.0000

> <Gold.Chemscore.DEClash.Weighted>
0.1868

> <Gold.Chemscore.DEInternal.Weighted>
1.5294

> <Gold.Chemscore.Rot.Weighted>
5.8164

> <Gold.Chemscore.Internal.Correction.Weighted>
   9.000000E+99

> <Gold.Protein.RotatedTorsions>
[ 6907 6896 6895 6894 ] final   53.15 input  -60.11 | X-H torsion
[ 7974 7965 7964 7962 ] final   91.37 input  175.53 | X-H torsion
[ 8008 7997 7996 7995 ] final   68.63 input   59.86 | X-H torsion
[ 10167 10162 10161 10158 ] final  -53.74 input  -65.29 | X-H torsion
[ 10718 10713 10712 10709 ] final  176.20 input   66.30 | X-H torsion
[ 10763 10752 10751 10750 ] final  -65.04 input  -60.55 | X-H torsion
[ 11005 11000 10999 10996 ] final   25.60 input  -57.11 | X-H torsion

> <Gold.Protein.ActiveResidues>
 VAL166  LYS551  ARG553  GLY616  TRP617  ASP618  TYR619  PRO620  LYS621  CYS622 
 ASP623  PHE694  ASN695  SER759  ASP760  ASP761  ALA762  ILE779  LEU786  VAL792 
 PHE793  MET794  SER795  GLU796  ALA797  LYS798  CYS799  TRP800  GLU811  SER814 

> <Gold.Protein.RotatedAtoms>
  152.3308  134.7262  160.0289 H   0  0  0  0  0  0  0  0  0  0  0  0  # atno 6907 bound_to 6896
  151.7680  133.3333  159.3444 H   0  0  0  0  0  0  0  0  0  0  0  0  # atno 6908 bound_to 6896
  150.7422  134.5977  159.6065 H   0  0  0  0  0  0  0  0  0  0  0  0  # atno 6909 bound_to 6896
  145.5066  139.2276  143.2748 H   0  0  0  0  0  0  0  0  0  0  0  0  # atno 7974 bound_to 7965
  155.7113  140.3494  155.4975 H   0  0  0  0  0  0  0  0  0  0  0  0  # atno 8008 bound_to 7997
  155.9353  140.1091  157.1121 H   0  0  0  0  0  0  0  0  0  0  0  0  # atno 8009 bound_to 7997
  154.4092  140.1223  156.4843 H   0  0  0  0  0  0  0  0  0  0  0  0  # atno 8010 bound_to 7997
  140.6469  143.2541  151.4835 H   0  0  0  0  0  0  0  0  0  0  0  0  # atno 10167 bound_to 10162
  156.9236  130.9948  151.3000 H   0  0  0  0  0  0  0  0  0  0  0  0  # atno 10718 bound_to 10713
  154.3390  135.6160  153.5587 H   0  0  0  0  0  0  0  0  0  0  0  0  # atno 10763 bound_to 10752
  152.9805  135.5765  154.4874 H   0  0  0  0  0  0  0  0  0  0  0  0  # atno 10764 bound_to 10752
  154.4575  135.2855  155.1714 H   0  0  0  0  0  0  0  0  0  0  0  0  # atno 10765 bound_to 10752
  140.3461  134.2280  155.7684 H   0  0  0  0  0  0  0  0  0  0  0  0  # atno 11005 bound_to 11000
  146.2193  140.5870  142.9024 LP  0  0  0  0  0  0  0  0  0  0  0  0  # atno 17320 bound_to 7965
  144.7750  140.5721  143.6644 LP  0  0  0  0  0  0  0  0  0  0  0  0  # atno 17321 bound_to 7965
  139.5680  144.1996  152.1794 LP  0  0  0  0  0  0  0  0  0  0  0  0  # atno 17342 bound_to 10162
  140.1284  144.5311  150.6818 LP  0  0  0  0  0  0  0  0  0  0  0  0  # atno 17343 bound_to 10162
  157.5892  130.8431  149.8634 LP  0  0  0  0  0  0  0  0  0  0  0  0  # atno 17370 bound_to 10713
  156.0479  130.3724  150.1271 LP  0  0  0  0  0  0  0  0  0  0  0  0  # atno 17371 bound_to 10713
  141.2025  133.7936  157.0387 LP  0  0  0  0  0  0  0  0  0  0  0  0  # atno 17394 bound_to 11000
  140.0741  134.9686  157.1516 LP  0  0  0  0  0  0  0  0  0  0  0  0  # atno 17395 bound_to 11000

$$$$
