AV-unprocessed.smi:2832|AV-procd|sdf|10912|dock4
  -GOLD-   2272015363D 1   1.00000     0.00000
 Structure written by MMmdl.
 33 33  0  0  0  0  0  0  0  0  2 V2000
  148.8461  140.9290  154.3161 C   0  0  0  0  0  0  0  0  0  0  0  0
  148.9093  139.4172  154.0743 C   0  0  0  0  0  0  0  0  0  0  0  0
  150.3609  138.9091  153.9178 C   0  0  0  0  0  0  0  0  0  0  0  0
  151.1985  138.7208  155.2233 C   0  0  1  0  0  0  0  0  0  0  0  0
  152.6885  138.9908  154.9117 C   0  0  0  0  0  0  0  0  0  0  0  0
  150.8230  139.6080  156.3386 N   0  0  0  0  0  0  0  0  0  0  0  0
  151.5585  140.1525  157.3255 C   0  0  0  0  0  0  0  0  0  0  0  0
  152.7420  139.8952  157.5415 O   0  0  0  0  0  0  0  0  0  0  0  0
  150.8280  141.1445  158.2321 C   0  0  0  0  0  0  0  0  0  0  0  0
  151.5632  142.3919  158.3533 N   0  0  0  0  0  0  0  0  0  0  0  0
  151.5403  143.4861  157.5131 C   0  0  0  0  0  0  0  0  0  0  0  0
  152.3956  144.4155  158.0319 C   0  0  0  0  0  0  0  0  0  0  0  0
  152.8992  143.7917  159.2075 C   0  0  0  0  0  0  0  0  0  0  0  0
  152.3976  142.5825  159.3988 N   0  0  0  0  0  0  0  0  0  0  0  0
  151.0082  137.2597  155.7030 C   0  0  0  0  0  0  0  0  0  0  0  0
  150.5618  137.0748  156.8575 O   0  0  0  0  0  0  0  0  0  0  0  0
  151.3230  136.3385  154.9150 O   0  5  0  0  0  0  0  0  0  0  0  0
  147.8127  141.2644  154.4049 H   0  0  0  0  0  0  0  0  0  0  0  0
  149.3055  141.4787  153.4942 H   0  0  0  0  0  0  0  0  0  0  0  0
  149.3647  141.2015  155.2356 H   0  0  0  0  0  0  0  0  0  0  0  0
  148.4091  138.9098  154.8978 H   0  0  0  0  0  0  0  0  0  0  0  0
  148.3312  139.1862  153.1797 H   0  0  0  0  0  0  0  0  0  0  0  0
  150.3196  137.9532  153.3927 H   0  0  0  0  0  0  0  0  0  0  0  0
  150.8983  139.5642  153.2324 H   0  0  0  0  0  0  0  0  0  0  0  0
  153.0481  138.3842  154.0796 H   0  0  0  0  0  0  0  0  0  0  0  0
  153.3238  138.7808  155.7736 H   0  0  0  0  0  0  0  0  0  0  0  0
  152.8477  140.0343  154.6381 H   0  0  0  0  0  0  0  0  0  0  0  0
  149.8603  139.9122  156.3045 H   0  0  0  0  0  0  0  0  0  0  0  0
  149.8382  141.3622  157.8289 H   0  0  0  0  0  0  0  0  0  0  0  0
  150.6834  140.7028  159.2196 H   0  0  0  0  0  0  0  0  0  0  0  0
  150.9266  143.5084  156.6245 H   0  0  0  0  0  0  0  0  0  0  0  0
  152.6272  145.3915  157.6322 H   0  0  0  0  0  0  0  0  0  0  0  0
  153.6090  144.1791  159.9236 H   0  0  0  0  0  0  0  0  0  0  0  0
  1  2  1  0  0  0  0
  1 18  1  0  0  0  0
  1 19  1  0  0  0  0
  1 20  1  0  0  0  0
  2  3  1  0  0  0  0
  2 21  1  0  0  0  0
  2 22  1  0  0  0  0
  3  4  1  0  0  0  0
  3 23  1  0  0  0  0
  3 24  1  0  0  0  0
  4  5  1  0  0  0  0
  4  6  1  0  0  0  0
  4 15  1  0  0  0  0
  5 25  1  0  0  0  0
  5 26  1  0  0  0  0
  5 27  1  0  0  0  0
  6  7  1  0  0  0  0
  6 28  1  0  0  0  0
  7  8  2  0  0  0  0
  7  9  1  0  0  0  0
  9 10  1  0  0  0  0
  9 29  1  0  0  0  0
  9 30  1  0  0  0  0
 10 14  1  0  0  0  0
 10 11  1  0  0  0  0
 11 12  2  0  0  0  0
 11 31  1  0  0  0  0
 12 13  1  0  0  0  0
 12 32  1  0  0  0  0
 13 14  2  0  0  0  0
 13 33  1  0  0  0  0
 15 16  2  0  0  0  0
 15 17  1  0  0  0  0
M  CHG  1  17  -1
M  END
> <s_m_source_file>
AV-unprocessed.smi

> <i_m_source_file_index>
2832

> <i_lp_mmshare_version>
43012

> <i_f3d_flags>
0

> <s_epik_input>
W0NIM11bQ0gyXVtDSDJdW0NAXShbQ0gzXSkoQyg9TylbT0hdKVtOSF1DKD1PKVtDSDJdbjFbY0hdW2NIXVtjSF1uMQ==

> <s_epik_cmdline>
J2VwaWtfcHl0aG9uJywgJy1waCcsICc3LjAnLCAnLXRuJywgJzgnLCAnLW1hJywgJzIwMCcsICctbWV0YWxfYmluZGluZycsICctaW1hZScsICc8aW5maWxlLm1hZT4nLCAnLW9tYWUnLCAnPG91dGZpbGUubWFlPic=

> <r_lp_tautomer_probability>
1

> <r_epik_Ionization_Penalty>
0.000287256

> <r_epik_Ionization_Penalty_Charging>
0.00026921

> <r_epik_Ionization_Penalty_Neutral>
1.80463e-05

> <r_epik_State_Penalty>
-0

> <r_epik_Charging_Adjusted_Penalty>
0.00026921

> <i_epik_Tot_Q>
-1

> <i_epik_Tot_abs_Q>
1

> <r_epik_Metal_State_Penalty>
-0

> <b_epik_Metal_Only>
0

> <s_lp_Force_Field>
OPLS_2005

> <r_lp_Energy>
4.0175

> <b_lp_Chiralities_Consistent>
1

> <s_lp_Variant>
AV-unprocessed.smi:2832-1

> <Gold.Version>
5.8.1

> <Gold.Id.Protein>
6NUR|6NUR_protein|mol2

> <Gold.PLP.Fitness>
43.0440

> <Gold.PLP.PLP>
-34.3280

> <Gold.PLP.part.hbond>
-2.0000

> <Gold.PLP.part.metal>
0.0000

> <Gold.PLP.part.buried>
-3.6400

> <Gold.PLP.part.nonpolar>
-29.2534

> <Gold.PLP.part.repulsive>
0.1828

> <Gold.PLP.ligand.clash>
0.0000

> <Gold.PLP.ligand.torsion>
1.6713

> <Gold.PLP.Chemscore.Hbond>
3.0000

> <Gold.PLP.Chemscore.CHOScore>
1.0000

> <Gold.PLP.Chemscore.Metal>
0.0000

> <Gold.Chemscore.Hbonds>
donor molecule, donor type, donor heavy atom, donor atom, acceptor molecule, acceptor atom, score
      P1  H  7997  8010       L1     8  1.00
      P1  H 10752 10763       L1    17  2.00
      L1  C    11    31       P1  8028  0.96

> <Gold.PLP.Chemscore.Internal.Correction>
0.0586

> <Gold.Rescore>
     Score         DG    S(hbond)    S(metal)    S(lipo)     H(rot)  DE(clash)    DE(int)     intcor
     12.58     -15.55       1.99        0.00      83.43       2.47       0.01       2.96       ----

> <Gold.Chemscore.Fitness>
12.5833

> <Gold.Chemscore.DG>
-15.5523

> <Gold.Chemscore.ZeroCoef>
-5.4800

> <Gold.Chemscore.Hbond>
1.9883

> <Gold.Chemscore.Metal>
0.0000

> <Gold.Chemscore.Lipo>
83.4281

> <Gold.Chemscore.Internal_Hbond>
0.0000

> <Gold.Chemscore.DEClash>
0.0110

> <Gold.Chemscore.DEInternal>
2.9580

> <Gold.Chemscore.Rot>
2.4726

> <Gold.Chemscore.Internal.Correction>
   9.000000E+99

> <Gold.Chemscore.Hbonds>
donor molecule, donor type, donor heavy atom, donor atom, acceptor molecule, acceptor atom, score
      P1  H  7997  8010       L1     8  0.99
      P1  H 10752 10763       L1    17  1.00

> <Gold.Chemscore.Hbond.Weighted>
-6.6410

> <Gold.Chemscore.Metal.Weighted>
-0.0000

> <Gold.Chemscore.Lipo.Weighted>
-9.7611

> <Gold.Chemscore.Internal_Hbond.Weighted>
0.0000

> <Gold.Chemscore.DEClash.Weighted>
0.0110

> <Gold.Chemscore.DEInternal.Weighted>
2.9580

> <Gold.Chemscore.Rot.Weighted>
6.3297

> <Gold.Chemscore.Internal.Correction.Weighted>
   9.000000E+99

> <Gold.Protein.RotatedTorsions>
[ 6907 6896 6895 6894 ] final -147.51 input  -60.11 | X-H torsion
[ 7974 7965 7964 7962 ] final  122.11 input  175.53 | X-H torsion
[ 8008 7997 7996 7995 ] final   46.65 input   59.86 | X-H torsion
[ 10167 10162 10161 10158 ] final   87.49 input  -65.29 | X-H torsion
[ 10718 10713 10712 10709 ] final   72.84 input   66.30 | X-H torsion
[ 10763 10752 10751 10750 ] final   58.76 input  -60.55 | X-H torsion
[ 11005 11000 10999 10996 ] final -158.86 input  -57.11 | X-H torsion

> <Gold.Protein.ActiveResidues>
 VAL166  LYS551  ARG553  GLY616  TRP617  ASP618  TYR619  PRO620  LYS621  CYS622 
 ASP623  PHE694  ASN695  SER759  ASP760  ASP761  ALA762  ILE779  LEU786  VAL792 
 PHE793  MET794  SER795  GLU796  ALA797  LYS798  CYS799  TRP800  GLU811  SER814 

> <Gold.Protein.RotatedAtoms>
  151.1567  133.4871  159.2594 H   0  0  0  0  0  0  0  0  0  0  0  0  # atno 6907 bound_to 6896
  151.1496  135.0220  159.8672 H   0  0  0  0  0  0  0  0  0  0  0  0  # atno 6908 bound_to 6896
  152.5463  134.1453  159.8549 H   0  0  0  0  0  0  0  0  0  0  0  0  # atno 6909 bound_to 6896
  145.1114  139.3450  143.4761 H   0  0  0  0  0  0  0  0  0  0  0  0  # atno 7974 bound_to 7965
  155.3559  140.3416  155.4240 H   0  0  0  0  0  0  0  0  0  0  0  0  # atno 8008 bound_to 7997
  156.1739  140.1641  156.8432 H   0  0  0  0  0  0  0  0  0  0  0  0  # atno 8009 bound_to 7997
  154.5262  140.0755  156.8245 H   0  0  0  0  0  0  0  0  0  0  0  0  # atno 8010 bound_to 7997
  139.8768  144.6462  150.8887 H   0  0  0  0  0  0  0  0  0  0  0  0  # atno 10167 bound_to 10162
  157.6520  130.9599  150.0985 H   0  0  0  0  0  0  0  0  0  0  0  0  # atno 10718 bound_to 10713
  152.9878  135.5595  154.5604 H   0  0  0  0  0  0  0  0  0  0  0  0  # atno 10763 bound_to 10752
  154.5024  135.2798  155.1412 H   0  0  0  0  0  0  0  0  0  0  0  0  # atno 10764 bound_to 10752
  154.2837  135.6340  153.5410 H   0  0  0  0  0  0  0  0  0  0  0  0  # atno 10765 bound_to 10752
  140.6490  134.4471  157.5235 H   0  0  0  0  0  0  0  0  0  0  0  0  # atno 11005 bound_to 11000
  146.3526  140.1034  142.8607 LP  0  0  0  0  0  0  0  0  0  0  0  0  # atno 17320 bound_to 7965
  145.0843  140.9242  143.4807 LP  0  0  0  0  0  0  0  0  0  0  0  0  # atno 17321 bound_to 7965
  140.7751  143.3618  151.1814 LP  0  0  0  0  0  0  0  0  0  0  0  0  # atno 17342 bound_to 10162
  139.7232  143.9189  152.2993 LP  0  0  0  0  0  0  0  0  0  0  0  0  # atno 17343 bound_to 10162
  156.1914  130.3655  149.8905 LP  0  0  0  0  0  0  0  0  0  0  0  0  # atno 17370 bound_to 10713
  156.6832  130.8866  151.3578 LP  0  0  0  0  0  0  0  0  0  0  0  0  # atno 17371 bound_to 10713
  139.9052  134.8464  156.1733 LP  0  0  0  0  0  0  0  0  0  0  0  0  # atno 17394 bound_to 11000
  141.0551  133.6869  156.1844 LP  0  0  0  0  0  0  0  0  0  0  0  0  # atno 17395 bound_to 11000

$$$$
