AV-unprocessed.smi:3096|AV-procd|sdf|11797|dock4
  -GOLD-   2272017173D 1   1.00000     0.00000
 Structure written by MMmdl.
 33 33  0  0  0  0  0  0  0  0  2 V2000
  147.5466  140.8536  153.0669 C   0  0  0  0  0  0  0  0  0  0  0  0
  147.4871  139.5105  153.0594 C   0  0  0  0  0  0  0  0  0  0  0  0
  146.9299  138.6242  151.9544 C   0  0  0  0  0  0  0  0  0  0  0  0
  145.6306  138.0338  152.3177 N   0  0  0  0  0  0  0  0  0  0  0  0
  145.4187  136.7615  152.7097 C   0  0  0  0  0  0  0  0  0  0  0  0
  144.1752  136.3536  153.0292 N   0  3  0  0  0  0  0  0  0  0  0  0
  142.9684  137.1884  152.9986 C   0  0  0  0  0  0  0  0  0  0  0  0
  146.4487  135.8965  152.7783 N   0  0  0  0  0  0  0  0  0  0  0  0
  146.3741  134.4832  153.1719 C   0  0  0  0  0  0  0  0  0  0  0  0
  146.8492  133.5586  152.0406 C   0  0  0  0  0  0  0  0  0  0  0  0
  145.7464  133.0711  151.2323 N   0  0  0  0  0  0  0  0  0  0  0  0
  145.7917  132.2358  150.1362 C   0  0  0  0  0  0  0  0  0  0  0  0
  144.5066  132.0508  149.7133 C   0  0  0  0  0  0  0  0  0  0  0  0
  143.7355  132.8241  150.6252 C   0  0  0  0  0  0  0  0  0  0  0  0
  144.4801  133.4334  151.5338 N   0  0  0  0  0  0  0  0  0  0  0  0
  147.1834  141.4525  152.2447 H   0  0  0  0  0  0  0  0  0  0  0  0
  147.9674  141.3775  153.9125 H   0  0  0  0  0  0  0  0  0  0  0  0
  147.8715  138.9803  153.9186 H   0  0  0  0  0  0  0  0  0  0  0  0
  146.8074  139.2214  151.0509 H   0  0  0  0  0  0  0  0  0  0  0  0
  147.6434  137.8322  151.7256 H   0  0  0  0  0  0  0  0  0  0  0  0
  144.8343  138.6534  152.2727 H   0  0  0  0  0  0  0  0  0  0  0  0
  142.1002  136.6056  153.3060 H   0  0  0  0  0  0  0  0  0  0  0  0
  142.7920  137.5662  151.9914 H   0  0  0  0  0  0  0  0  0  0  0  0
  143.0739  138.0355  153.6765 H   0  0  0  0  0  0  0  0  0  0  0  0
  147.3631  136.2296  152.5054 H   0  0  0  0  0  0  0  0  0  0  0  0
  147.0086  134.3379  154.0465 H   0  0  0  0  0  0  0  0  0  0  0  0
  145.3541  134.2385  153.4698 H   0  0  0  0  0  0  0  0  0  0  0  0
  147.5616  134.0740  151.3944 H   0  0  0  0  0  0  0  0  0  0  0  0
  147.3752  132.6999  152.4593 H   0  0  0  0  0  0  0  0  0  0  0  0
  146.7234  131.8462  149.7532 H   0  0  0  0  0  0  0  0  0  0  0  0
  144.1687  131.4537  148.8794 H   0  0  0  0  0  0  0  0  0  0  0  0
  142.6643  132.9592  150.6541 H   0  0  0  0  0  0  0  0  0  0  0  0
  144.0479  135.3932  153.3153 H   0  0  0  0  0  0  0  0  0  0  0  0
  1  2  2  0  0  0  0
  1 16  1  0  0  0  0
  1 17  1  0  0  0  0
  2  3  1  0  0  0  0
  2 18  1  0  0  0  0
  3  4  1  0  0  0  0
  3 19  1  0  0  0  0
  3 20  1  0  0  0  0
  4  5  1  0  0  0  0
  4 21  1  0  0  0  0
  5  6  2  0  0  0  0
  5  8  1  0  0  0  0
  6  7  1  0  0  0  0
  6 33  1  0  0  0  0
  7 22  1  0  0  0  0
  7 23  1  0  0  0  0
  7 24  1  0  0  0  0
  8  9  1  0  0  0  0
  8 25  1  0  0  0  0
  9 10  1  0  0  0  0
  9 26  1  0  0  0  0
  9 27  1  0  0  0  0
 10 11  1  0  0  0  0
 10 28  1  0  0  0  0
 10 29  1  0  0  0  0
 11 15  1  0  0  0  0
 11 12  1  0  0  0  0
 12 13  2  0  0  0  0
 12 30  1  0  0  0  0
 13 14  1  0  0  0  0
 13 31  1  0  0  0  0
 14 15  2  0  0  0  0
 14 32  1  0  0  0  0
M  CHG  1   6   1
M  END
> <s_m_source_file>
AV-unprocessed.smi

> <i_m_source_file_index>
3096

> <i_lp_mmshare_version>
43012

> <i_f3d_flags>
0

> <s_epik_input>
W0NIMl09W0NIXVtDSDJdW05IXS9DKD1OL1tDSDNdKVtOSF1bQ0gyXVtDSDJdbjFbY0hdW2NIXVtjSF1uMQ==

> <s_epik_cmdline>
J2VwaWtfcHl0aG9uJywgJy1waCcsICc3LjAnLCAnLXRuJywgJzgnLCAnLW1hJywgJzIwMCcsICctbWV0YWxfYmluZGluZycsICctaW1hZScsICc8aW5maWxlLm1hZT4nLCAnLW9tYWUnLCAnPG91dGZpbGUubWFlPic=

> <r_lp_tautomer_probability>
1

> <r_epik_Ionization_Penalty>
5.14269e-05

> <r_epik_Ionization_Penalty_Charging>
1.55211e-07

> <r_epik_Ionization_Penalty_Neutral>
5.12717e-05

> <r_epik_State_Penalty>
-0

> <r_epik_Charging_Adjusted_Penalty>
1.55211e-07

> <i_epik_Tot_Q>
1

> <i_epik_Tot_abs_Q>
1

> <r_epik_Metal_State_Penalty>
-0

> <b_epik_Metal_Only>
0

> <s_epik_Chemistry_Notes>
This compound has an imine and may undergo hydrolysis.

> <s_lp_Force_Field>
OPLS_2005

> <r_lp_Energy>
6.72739

> <b_lp_Chiralities_Consistent>
1

> <s_lp_Variant>
AV-unprocessed.smi:3096-2

> <Gold.Version>
5.8.1

> <Gold.Id.Protein>
6NUR|6NUR_protein|mol2

> <Gold.PLP.Fitness>
48.2775

> <Gold.PLP.PLP>
-31.1226

> <Gold.PLP.part.hbond>
-3.0000

> <Gold.PLP.part.metal>
0.0000

> <Gold.PLP.part.buried>
-4.5964

> <Gold.PLP.part.nonpolar>
-24.9026

> <Gold.PLP.part.repulsive>
0.1410

> <Gold.PLP.ligand.clash>
0.0000

> <Gold.PLP.ligand.torsion>
0.4246

> <Gold.PLP.Chemscore.Hbond>
4.0000

> <Gold.PLP.Chemscore.CHOScore>
2.0000

> <Gold.PLP.Chemscore.Metal>
0.0000

> <Gold.Chemscore.Hbonds>
donor molecule, donor type, donor heavy atom, donor atom, acceptor molecule, acceptor atom, score
      L1  H     4    21       P1 10175  1.43
      L1  H     8    25       P1  7948  2.00
      L1  C    12    30       P1 10747  1.00
      L1  C    14    32       P1 10186  1.00

> <Gold.PLP.Chemscore.Internal.Correction>
0.0040

> <Gold.Rescore>
     Score         DG    S(hbond)    S(metal)    S(lipo)     H(rot)  DE(clash)    DE(int)     intcor
     14.44     -15.06       1.89        0.00      69.35       1.89       0.10       0.52       ----

> <Gold.Chemscore.Fitness>
14.4400

> <Gold.Chemscore.DG>
-15.0607

> <Gold.Chemscore.ZeroCoef>
-5.4800

> <Gold.Chemscore.Hbond>
1.8872

> <Gold.Chemscore.Metal>
0.0000

> <Gold.Chemscore.Lipo>
69.3451

> <Gold.Chemscore.Internal_Hbond>
0.0000

> <Gold.Chemscore.DEClash>
0.1049

> <Gold.Chemscore.DEInternal>
0.5157

> <Gold.Chemscore.Rot>
1.8891

> <Gold.Chemscore.Internal.Correction>
   9.000000E+99

> <Gold.Chemscore.Hbonds>
donor molecule, donor type, donor heavy atom, donor atom, acceptor molecule, acceptor atom, score
      L1  H     4    21       P1 10175  0.70
      L1  H     8    25       P1  7948  0.99

> <Gold.Chemscore.Hbond.Weighted>
-6.3033

> <Gold.Chemscore.Metal.Weighted>
-0.0000

> <Gold.Chemscore.Lipo.Weighted>
-8.1134

> <Gold.Chemscore.Internal_Hbond.Weighted>
0.0000

> <Gold.Chemscore.DEClash.Weighted>
0.1049

> <Gold.Chemscore.DEInternal.Weighted>
0.5157

> <Gold.Chemscore.Rot.Weighted>
4.8361

> <Gold.Chemscore.Internal.Correction.Weighted>
   9.000000E+99

> <Gold.Protein.RotatedTorsions>
[ 6907 6896 6895 6894 ] final -138.94 input  -60.11 | X-H torsion
[ 7974 7965 7964 7962 ] final   79.65 input  175.53 | X-H torsion
[ 8008 7997 7996 7995 ] final  -38.76 input   59.86 | X-H torsion
[ 10167 10162 10161 10158 ] final   82.18 input  -65.29 | X-H torsion
[ 10718 10713 10712 10709 ] final   16.42 input   66.30 | X-H torsion
[ 10763 10752 10751 10750 ] final   65.96 input  -60.55 | X-H torsion
[ 11005 11000 10999 10996 ] final  107.53 input  -57.11 | X-H torsion

> <Gold.Protein.ActiveResidues>
 VAL166  LYS551  ARG553  GLY616  TRP617  ASP618  TYR619  PRO620  LYS621  CYS622 
 ASP623  PHE694  ASN695  SER759  ASP760  ASP761  ALA762  ILE779  LEU786  VAL792 
 PHE793  MET794  SER795  GLU796  ALA797  LYS798  CYS799  TRP800  GLU811  SER814 

> <Gold.Protein.RotatedAtoms>
  151.0415  133.5702  159.2650 H   0  0  0  0  0  0  0  0  0  0  0  0  # atno 6907 bound_to 6896
  151.2747  135.0694  159.9157 H   0  0  0  0  0  0  0  0  0  0  0  0  # atno 6908 bound_to 6896
  152.5365  134.0139  159.8005 H   0  0  0  0  0  0  0  0  0  0  0  0  # atno 6909 bound_to 6896
  145.6614  139.2472  143.1920 H   0  0  0  0  0  0  0  0  0  0  0  0  # atno 7974 bound_to 7965
  154.4032  140.1569  156.2753 H   0  0  0  0  0  0  0  0  0  0  0  0  # atno 8008 bound_to 7997
  155.8918  140.3438  155.5939 H   0  0  0  0  0  0  0  0  0  0  0  0  # atno 8009 bound_to 7997
  155.7550  140.0810  157.2173 H   0  0  0  0  0  0  0  0  0  0  0  0  # atno 8010 bound_to 7997
  139.9315  144.6149  150.8340 H   0  0  0  0  0  0  0  0  0  0  0  0  # atno 10167 bound_to 10162
  157.0675  130.6334  149.5799 H   0  0  0  0  0  0  0  0  0  0  0  0  # atno 10718 bound_to 10713
  153.0119  135.5338  154.6749 H   0  0  0  0  0  0  0  0  0  0  0  0  # atno 10763 bound_to 10752
  154.5924  135.2860  155.0624 H   0  0  0  0  0  0  0  0  0  0  0  0  # atno 10764 bound_to 10752
  154.1712  135.6531  153.5062 H   0  0  0  0  0  0  0  0  0  0  0  0  # atno 10765 bound_to 10752
  139.8829  134.9403  156.5833 H   0  0  0  0  0  0  0  0  0  0  0  0  # atno 11005 bound_to 11000
  146.1122  140.7415  142.9498 LP  0  0  0  0  0  0  0  0  0  0  0  0  # atno 17320 bound_to 7965
  144.7087  140.3956  143.7097 LP  0  0  0  0  0  0  0  0  0  0  0  0  # atno 17321 bound_to 7965
  140.7636  143.3227  151.2586 LP  0  0  0  0  0  0  0  0  0  0  0  0  # atno 17342 bound_to 10162
  139.6778  143.9907  152.2791 LP  0  0  0  0  0  0  0  0  0  0  0  0  # atno 17343 bound_to 10162
  155.9960  130.5028  150.7480 LP  0  0  0  0  0  0  0  0  0  0  0  0  # atno 17370 bound_to 10713
  157.4905  131.0910  151.0433 LP  0  0  0  0  0  0  0  0  0  0  0  0  # atno 17371 bound_to 10713
  140.8011  133.8505  155.8727 LP  0  0  0  0  0  0  0  0  0  0  0  0  # atno 17394 bound_to 11000
  140.9592  134.1678  157.4667 LP  0  0  0  0  0  0  0  0  0  0  0  0  # atno 17395 bound_to 11000

$$$$
