AV-unprocessed.smi:3019|AV-procd|sdf|11485|dock4
  -GOLD-   2272016423D 1   1.00000     0.00000
 Structure written by MMmdl.
 31 32  0  0  0  0  0  0  0  0  2 V2000
  152.2539  145.0635  159.0558 C   0  0  0  0  0  0  0  0  0  0  0  0
  151.5223  143.8188  159.5793 C   0  0  0  0  0  0  0  0  0  0  0  0
  152.4574  142.8893  160.3667 C   0  0  0  0  0  0  0  0  0  0  0  0
  150.8136  143.0892  158.4792 C   0  0  0  0  0  0  0  0  0  0  0  0
  149.4819  143.0366  158.4022 N   0  0  0  0  0  0  0  0  0  0  0  0
  149.1232  142.3116  157.3217 N   0  0  0  0  0  0  0  0  0  0  0  0
  150.3052  141.9861  156.8003 C   0  0  0  0  0  0  0  0  0  0  0  0
  150.3929  141.1250  155.5791 C   0  0  2  0  0  0  0  0  0  0  0  0
  149.0038  140.7620  155.0204 C   0  0  0  0  0  0  0  0  0  0  0  0
  149.1488  139.8348  153.8813 N   0  3  0  0  0  0  0  0  0  0  0  0
  149.9344  138.6408  154.2522 C   0  0  0  0  0  0  0  0  0  0  0  0
  151.2894  139.0606  154.8500 C   0  0  0  0  0  0  0  0  0  0  0  0
  151.0797  139.9332  155.9553 O   0  0  0  0  0  0  0  0  0  0  0  0
  151.4030  142.4265  157.4882 N   0  0  0  0  0  0  0  0  0  0  0  0
  151.5634  145.7426  158.5552 H   0  0  0  0  0  0  0  0  0  0  0  0
  153.0336  144.7953  158.3420 H   0  0  0  0  0  0  0  0  0  0  0  0
  152.7250  145.6137  159.8706 H   0  0  0  0  0  0  0  0  0  0  0  0
  150.7607  144.1687  160.2779 H   0  0  0  0  0  0  0  0  0  0  0  0
  151.9103  142.0420  160.7811 H   0  0  0  0  0  0  0  0  0  0  0  0
  152.9269  143.4166  161.1975 H   0  0  0  0  0  0  0  0  0  0  0  0
  153.2520  142.4950  159.7325 H   0  0  0  0  0  0  0  0  0  0  0  0
  150.9768  141.6511  154.8208 H   0  0  0  0  0  0  0  0  0  0  0  0
  148.3943  140.2878  155.7910 H   0  0  0  0  0  0  0  0  0  0  0  0
  148.4728  141.6565  154.6939 H   0  0  0  0  0  0  0  0  0  0  0  0
  148.2343  139.5500  153.5602 H   0  0  0  0  0  0  0  0  0  0  0  0
  149.3703  138.0508  154.9759 H   0  0  0  0  0  0  0  0  0  0  0  0
  150.0807  138.0160  153.3708 H   0  0  0  0  0  0  0  0  0  0  0  0
  151.8377  138.1825  155.1919 H   0  0  0  0  0  0  0  0  0  0  0  0
  151.9110  139.5512  154.0992 H   0  0  0  0  0  0  0  0  0  0  0  0
  149.6259  140.3160  153.1324 H   0  0  0  0  0  0  0  0  0  0  0  0
  148.8133  143.4520  159.0355 H   0  0  0  0  0  0  0  0  0  0  0  0
  1  2  1  0  0  0  0
  1 15  1  0  0  0  0
  1 16  1  0  0  0  0
  1 17  1  0  0  0  0
  2  3  1  0  0  0  0
  2  4  1  0  0  0  0
  2 18  1  0  0  0  0
  3 19  1  0  0  0  0
  3 20  1  0  0  0  0
  3 21  1  0  0  0  0
  4 14  2  0  0  0  0
  4  5  1  0  0  0  0
  5  6  1  0  0  0  0
  5 31  1  0  0  0  0
  6  7  2  0  0  0  0
  7  8  1  0  0  0  0
  7 14  1  0  0  0  0
  8 13  1  0  0  0  0
  8  9  1  0  0  0  0
  8 22  1  0  0  0  0
  9 10  1  0  0  0  0
  9 23  1  0  0  0  0
  9 24  1  0  0  0  0
 10 11  1  0  0  0  0
 10 25  1  0  0  0  0
 10 30  1  0  0  0  0
 11 12  1  0  0  0  0
 11 26  1  0  0  0  0
 11 27  1  0  0  0  0
 12 13  1  0  0  0  0
 12 28  1  0  0  0  0
 12 29  1  0  0  0  0
M  CHG  1  10   1
M  END
> <s_m_source_file>
AV-unprocessed.smi

> <i_m_source_file_index>
3019

> <i_lp_mmshare_version>
43012

> <i_f3d_flags>
0

> <s_epik_input>
W0NIM11bQ0hdKFtDSDNdKWMxbltuSF1jKG4xKVtDQEBIXTJbQ0gyXVtOSF1bQ0gyXVtDSDJdTzI=

> <s_epik_cmdline>
J2VwaWtfcHl0aG9uJywgJy1waCcsICc3LjAnLCAnLXRuJywgJzgnLCAnLW1hJywgJzIwMCcsICctbWV0YWxfYmluZGluZycsICctaW1hZScsICc8aW5maWxlLm1hZT4nLCAnLW9tYWUnLCAnPG91dGZpbGUubWFlPic=

> <r_lp_tautomer_probability>
0.948284

> <r_epik_Ionization_Penalty>
0.108767

> <r_epik_Ionization_Penalty_Charging>
0.100865

> <r_epik_Ionization_Penalty_Neutral>
0.00790271

> <r_epik_State_Penalty>
0.197684

> <r_epik_Charging_Adjusted_Penalty>
0.298549

> <i_epik_Tot_Q>
1

> <i_epik_Tot_abs_Q>
1

> <r_epik_Metal_State_Penalty>
0.508163

> <b_epik_Metal_Only>
0

> <s_lp_Force_Field>
OPLS_2005

> <r_lp_Energy>
9.87406

> <b_lp_Chiralities_Consistent>
1

> <s_lp_Variant>
AV-unprocessed.smi:3019-1

> <Gold.Version>
5.8.1

> <Gold.Id.Protein>
6NUR|6NUR_protein|mol2

> <Gold.PLP.Fitness>
30.9741

> <Gold.PLP.PLP>
-29.0221

> <Gold.PLP.part.hbond>
-1.0000

> <Gold.PLP.part.metal>
0.0000

> <Gold.PLP.part.buried>
-3.9422

> <Gold.PLP.part.nonpolar>
-24.9369

> <Gold.PLP.part.repulsive>
0.9828

> <Gold.PLP.ligand.clash>
0.0000

> <Gold.PLP.ligand.torsion>
0.0834

> <Gold.PLP.Chemscore.Hbond>
0.6880

> <Gold.PLP.Chemscore.CHOScore>
0.0000

> <Gold.PLP.Chemscore.Metal>
0.0000

> <Gold.Chemscore.Hbonds>
donor molecule, donor type, donor heavy atom, donor atom, acceptor molecule, acceptor atom, score
      L1  H    10    30       P1  7957  0.64

> <Gold.PLP.Chemscore.Internal.Correction>
0.0547

> <Gold.Rescore>
     Score         DG    S(hbond)    S(metal)    S(lipo)     H(rot)  DE(clash)    DE(int)     intcor
     12.60     -12.82       0.88        0.00      65.73       1.28       0.12       0.11       ----

> <Gold.Chemscore.Fitness>
12.5950

> <Gold.Chemscore.DG>
-12.8219

> <Gold.Chemscore.ZeroCoef>
-5.4800

> <Gold.Chemscore.Hbond>
0.8762

> <Gold.Chemscore.Metal>
0.0000

> <Gold.Chemscore.Lipo>
65.7344

> <Gold.Chemscore.Internal_Hbond>
0.0000

> <Gold.Chemscore.DEClash>
0.1214

> <Gold.Chemscore.DEInternal>
0.1054

> <Gold.Chemscore.Rot>
1.2795

> <Gold.Chemscore.Internal.Correction>
   9.000000E+99

> <Gold.Chemscore.Hbonds>
donor molecule, donor type, donor heavy atom, donor atom, acceptor molecule, acceptor atom, score
      L1  H    10    30       P1  7957  0.62

> <Gold.Chemscore.Hbond.Weighted>
-2.9264

> <Gold.Chemscore.Metal.Weighted>
-0.0000

> <Gold.Chemscore.Lipo.Weighted>
-7.6909

> <Gold.Chemscore.Internal_Hbond.Weighted>
0.0000

> <Gold.Chemscore.DEClash.Weighted>
0.1214

> <Gold.Chemscore.DEInternal.Weighted>
0.1054

> <Gold.Chemscore.Rot.Weighted>
3.2754

> <Gold.Chemscore.Internal.Correction.Weighted>
   9.000000E+99

> <Gold.Protein.RotatedTorsions>
[ 6907 6896 6895 6894 ] final   48.27 input  -60.11 | X-H torsion
[ 7974 7965 7964 7962 ] final  -93.02 input  175.53 | X-H torsion
[ 8008 7997 7996 7995 ] final -176.97 input   59.86 | X-H torsion
[ 10167 10162 10161 10158 ] final -112.89 input  -65.29 | X-H torsion
[ 10718 10713 10712 10709 ] final  134.47 input   66.30 | X-H torsion
[ 10763 10752 10751 10750 ] final   42.25 input  -60.55 | X-H torsion
[ 11005 11000 10999 10996 ] final   59.90 input  -57.11 | X-H torsion

> <Gold.Protein.ActiveResidues>
 VAL166  LYS551  ARG553  GLY616  TRP617  ASP618  TYR619  PRO620  LYS621  CYS622 
 ASP623  PHE694  ASN695  SER759  ASP760  ASP761  ALA762  ILE779  LEU786  VAL792 
 PHE793  MET794  SER795  GLU796  ALA797  LYS798  CYS799  TRP800  GLU811  SER814 

> <Gold.Protein.RotatedAtoms>
  152.2776  134.7864  160.0402 H   0  0  0  0  0  0  0  0  0  0  0  0  # atno 6907 bound_to 6896
  151.8454  133.3425  159.3664 H   0  0  0  0  0  0  0  0  0  0  0  0  # atno 6908 bound_to 6896
  150.7177  134.5279  159.5730 H   0  0  0  0  0  0  0  0  0  0  0  0  # atno 6909 bound_to 6896
  145.3920  140.9529  143.2335 H   0  0  0  0  0  0  0  0  0  0  0  0  # atno 7974 bound_to 7965
  156.0013  140.1221  157.0545 H   0  0  0  0  0  0  0  0  0  0  0  0  # atno 8008 bound_to 7997
  154.4243  140.1106  156.5769 H   0  0  0  0  0  0  0  0  0  0  0  0  # atno 8009 bound_to 7997
  155.6209  140.3472  155.4654 H   0  0  0  0  0  0  0  0  0  0  0  0  # atno 8010 bound_to 7997
  140.1178  143.4470  152.1711 H   0  0  0  0  0  0  0  0  0  0  0  0  # atno 10167 bound_to 10162
  157.4669  131.1077  150.9851 H   0  0  0  0  0  0  0  0  0  0  0  0  # atno 10718 bound_to 10713
  152.9888  135.6137  154.2918 H   0  0  0  0  0  0  0  0  0  0  0  0  # atno 10763 bound_to 10752
  154.2643  135.2781  155.2767 H   0  0  0  0  0  0  0  0  0  0  0  0  # atno 10764 bound_to 10752
  154.5178  135.5823  153.6713 H   0  0  0  0  0  0  0  0  0  0  0  0  # atno 10765 bound_to 10752
  140.0270  134.6068  155.9559 H   0  0  0  0  0  0  0  0  0  0  0  0  # atno 11005 bound_to 11000
  144.8433  139.5437  143.6890 LP  0  0  0  0  0  0  0  0  0  0  0  0  # atno 17320 bound_to 7965
  146.2793  139.6834  142.9240 LP  0  0  0  0  0  0  0  0  0  0  0  0  # atno 17321 bound_to 7965
  139.5585  144.7389  151.4224 LP  0  0  0  0  0  0  0  0  0  0  0  0  # atno 17342 bound_to 10162
  140.6889  143.7907  150.7227 LP  0  0  0  0  0  0  0  0  0  0  0  0  # atno 17343 bound_to 10162
  157.0629  130.5833  149.5389 LP  0  0  0  0  0  0  0  0  0  0  0  0  # atno 17370 bound_to 10713
  156.0054  130.5140  150.7813 LP  0  0  0  0  0  0  0  0  0  0  0  0  # atno 17371 bound_to 10713
  141.1809  133.6546  156.5015 LP  0  0  0  0  0  0  0  0  0  0  0  0  # atno 17394 bound_to 11000
  140.4289  134.7120  157.4931 LP  0  0  0  0  0  0  0  0  0  0  0  0  # atno 17395 bound_to 11000

$$$$
