AV-unprocessed.smi:3284|AV-procd|sdf|12575|dock3
  -GOLD-   2272018493D 1   1.00000     0.00000
 Structure written by MMmdl.
 44 45  0  0  0  0  0  0  0  0  2 V2000
  147.3988  142.6038  154.1108 C   0  0  0  0  0  0  0  0  0  0  0  0
  148.0094  141.2212  154.2635 C   0  0  0  0  0  0  0  0  0  0  0  0
  147.3822  140.1234  153.7974 C   0  0  0  0  0  0  0  0  0  0  0  0
  147.9397  138.7135  153.8697 C   0  0  0  0  0  0  0  0  0  0  0  0
  149.2198  138.6157  154.7152 C   0  0  0  0  0  0  0  0  0  0  0  0
  150.1209  139.8489  154.5222 C   0  0  2  0  0  0  0  0  0  0  0  0
  151.5070  139.6488  155.1575 C   0  0  0  0  0  0  0  0  0  0  0  0
  149.3839  141.1598  154.9342 C   0  0  2  0  0  0  0  0  0  0  0  0
  149.2343  141.3684  156.4633 C   0  0  0  0  0  0  0  0  0  0  0  0
  149.9933  142.5373  156.9496 N   0  3  0  0  0  0  0  0  0  0  0  0
  149.7995  142.8341  158.3833 C   0  0  0  0  0  0  0  0  0  0  0  0
  150.7186  143.9718  158.8534 C   0  0  0  0  0  0  0  0  0  0  0  0
  151.6568  143.5572  159.9473 C   0  0  0  0  0  0  0  0  0  0  0  0
  151.7401  144.1787  161.1200 N   0  0  0  0  0  0  0  0  0  0  0  0
  152.6980  143.4656  161.8330 C   0  0  0  0  0  0  0  0  0  0  0  0
  153.1570  142.4246  161.0627 C   0  0  0  0  0  0  0  0  0  0  0  0
  152.4760  142.4920  159.8545 N   0  0  0  0  0  0  0  0  0  0  0  0
  152.6357  141.5831  158.7360 C   0  0  0  0  0  0  0  0  0  0  0  0
  148.0711  143.2535  153.5500 H   0  0  0  0  0  0  0  0  0  0  0  0
  147.2072  143.0632  155.0797 H   0  0  0  0  0  0  0  0  0  0  0  0
  146.4515  142.5607  153.5722 H   0  0  0  0  0  0  0  0  0  0  0  0
  146.4237  140.2226  153.3087 H   0  0  0  0  0  0  0  0  0  0  0  0
  147.1774  138.0406  154.2636 H   0  0  0  0  0  0  0  0  0  0  0  0
  148.1472  138.3910  152.8490 H   0  0  0  0  0  0  0  0  0  0  0  0
  148.9567  138.5095  155.7675 H   0  0  0  0  0  0  0  0  0  0  0  0
  149.7565  137.7044  154.4480 H   0  0  0  0  0  0  0  0  0  0  0  0
  150.3065  139.9298  153.4497 H   0  0  0  0  0  0  0  0  0  0  0  0
  151.4368  139.4164  156.2201 H   0  0  0  0  0  0  0  0  0  0  0  0
  152.1284  140.5368  155.0395 H   0  0  0  0  0  0  0  0  0  0  0  0
  152.0326  138.8194  154.6832 H   0  0  0  0  0  0  0  0  0  0  0  0
  149.9588  141.9961  154.5328 H   0  0  0  0  0  0  0  0  0  0  0  0
  148.1915  141.5400  156.7275 H   0  0  0  0  0  0  0  0  0  0  0  0
  149.5431  140.4754  157.0064 H   0  0  0  0  0  0  0  0  0  0  0  0
  150.9760  142.3677  156.7896 H   0  0  0  0  0  0  0  0  0  0  0  0
  148.7564  143.0965  158.5652 H   0  0  0  0  0  0  0  0  0  0  0  0
  150.0094  141.9331  158.9609 H   0  0  0  0  0  0  0  0  0  0  0  0
  151.2909  144.3563  158.0091 H   0  0  0  0  0  0  0  0  0  0  0  0
  150.1177  144.8092  159.2107 H   0  0  0  0  0  0  0  0  0  0  0  0
  152.9789  143.7525  162.8358 H   0  0  0  0  0  0  0  0  0  0  0  0
  153.8920  141.6606  161.2706 H   0  0  0  0  0  0  0  0  0  0  0  0
  153.3285  140.7825  158.9973 H   0  0  0  0  0  0  0  0  0  0  0  0
  153.0319  142.1230  157.8754 H   0  0  0  0  0  0  0  0  0  0  0  0
  151.6725  141.1438  158.4745 H   0  0  0  0  0  0  0  0  0  0  0  0
  149.7171  143.3477  156.4127 H   0  0  0  0  0  0  0  0  0  0  0  0
  1  2  1  0  0  0  0
  1 19  1  0  0  0  0
  1 20  1  0  0  0  0
  1 21  1  0  0  0  0
  2  8  1  0  0  0  0
  2  3  2  0  0  0  0
  3  4  1  0  0  0  0
  3 22  1  0  0  0  0
  4  5  1  0  0  0  0
  4 23  1  0  0  0  0
  4 24  1  0  0  0  0
  5  6  1  0  0  0  0
  5 25  1  0  0  0  0
  5 26  1  0  0  0  0
  6  7  1  0  0  0  0
  6  8  1  0  0  0  0
  6 27  1  0  0  0  0
  7 28  1  0  0  0  0
  7 29  1  0  0  0  0
  7 30  1  0  0  0  0
  8  9  1  0  0  0  0
  8 31  1  0  0  0  0
  9 10  1  0  0  0  0
  9 32  1  0  0  0  0
  9 33  1  0  0  0  0
 10 11  1  0  0  0  0
 10 34  1  0  0  0  0
 10 44  1  0  0  0  0
 11 12  1  0  0  0  0
 11 35  1  0  0  0  0
 11 36  1  0  0  0  0
 12 13  1  0  0  0  0
 12 37  1  0  0  0  0
 12 38  1  0  0  0  0
 13 17  1  0  0  0  0
 13 14  2  0  0  0  0
 14 15  1  0  0  0  0
 15 16  2  0  0  0  0
 15 39  1  0  0  0  0
 16 17  1  0  0  0  0
 16 40  1  0  0  0  0
 17 18  1  0  0  0  0
 18 41  1  0  0  0  0
 18 42  1  0  0  0  0
 18 43  1  0  0  0  0
M  CHG  1  10   1
M  END
> <s_m_source_file>
AV-unprocessed.smi

> <i_m_source_file_index>
3284

> <i_lp_mmshare_version>
43012

> <i_f3d_flags>
0

> <s_epik_input>
W0NIM11DMT1bQ0hdW0NIMl1bQ0gyXVtDQEBIXShbQ0gzXSlbQ0BIXTFbQ0gyXVtOSF1bQ0gyXVtDSDJdYzJuW2NIXVtjSF1uMltDSDNd

> <s_epik_cmdline>
J2VwaWtfcHl0aG9uJywgJy1waCcsICc3LjAnLCAnLXRuJywgJzgnLCAnLW1hJywgJzIwMCcsICctbWV0YWxfYmluZGluZycsICctaW1hZScsICc8aW5maWxlLm1hZT4nLCAnLW9tYWUnLCAnPG91dGZpbGUubWFlPic=

> <r_lp_tautomer_probability>
1

> <r_epik_Ionization_Penalty>
0.150779

> <r_epik_Ionization_Penalty_Charging>
0.150779

> <r_epik_Ionization_Penalty_Neutral>
1.39452e-13

> <r_epik_State_Penalty>
0.349447

> <r_epik_Charging_Adjusted_Penalty>
0.500226

> <i_epik_Tot_Q>
1

> <i_epik_Tot_abs_Q>
1

> <r_epik_Metal_State_Penalty>
0.000470967

> <b_epik_Metal_Only>
0

> <s_lp_Force_Field>
OPLS_2005

> <r_lp_Energy>
16.0755

> <b_lp_Chiralities_Consistent>
1

> <s_lp_Variant>
AV-unprocessed.smi:3284-4

> <Gold.Version>
5.8.1

> <Gold.Id.Protein>
6NUR|6NUR_protein|mol2

> <Gold.PLP.Fitness>
43.8244

> <Gold.PLP.PLP>
-40.0300

> <Gold.PLP.part.hbond>
-1.0000

> <Gold.PLP.part.metal>
0.0000

> <Gold.PLP.part.buried>
-1.7820

> <Gold.PLP.part.nonpolar>
-37.0432

> <Gold.PLP.part.repulsive>
0.1760

> <Gold.PLP.ligand.clash>
0.0000

> <Gold.PLP.ligand.torsion>
1.1641

> <Gold.PLP.Chemscore.Hbond>
2.0000

> <Gold.PLP.Chemscore.CHOScore>
0.0000

> <Gold.PLP.Chemscore.Metal>
0.0000

> <Gold.Chemscore.Hbonds>
donor molecule, donor type, donor heavy atom, donor atom, acceptor molecule, acceptor atom, score
      L1  H    10    44       P1  8028  2.00

> <Gold.PLP.Chemscore.Internal.Correction>
0.1227

> <Gold.Rescore>
     Score         DG    S(hbond)    S(metal)    S(lipo)     H(rot)  DE(clash)    DE(int)     intcor
     15.79     -16.95       1.00        0.00     104.77       1.61       0.04       1.12       ----

> <Gold.Chemscore.Fitness>
15.7944

> <Gold.Chemscore.DG>
-16.9535

> <Gold.Chemscore.ZeroCoef>
-5.4800

> <Gold.Chemscore.Hbond>
0.9994

> <Gold.Chemscore.Metal>
0.0000

> <Gold.Chemscore.Lipo>
104.7728

> <Gold.Chemscore.Internal_Hbond>
0.0000

> <Gold.Chemscore.DEClash>
0.0381

> <Gold.Chemscore.DEInternal>
1.1210

> <Gold.Chemscore.Rot>
1.6105

> <Gold.Chemscore.Internal.Correction>
   9.000000E+99

> <Gold.Chemscore.Hbonds>
donor molecule, donor type, donor heavy atom, donor atom, acceptor molecule, acceptor atom, score
      L1  H    10    44       P1  8028  1.00

> <Gold.Chemscore.Hbond.Weighted>
-3.3381

> <Gold.Chemscore.Metal.Weighted>
-0.0000

> <Gold.Chemscore.Lipo.Weighted>
-12.2584

> <Gold.Chemscore.Internal_Hbond.Weighted>
0.0000

> <Gold.Chemscore.DEClash.Weighted>
0.0381

> <Gold.Chemscore.DEInternal.Weighted>
1.1210

> <Gold.Chemscore.Rot.Weighted>
4.1230

> <Gold.Chemscore.Internal.Correction.Weighted>
   9.000000E+99

> <Gold.Protein.RotatedTorsions>
[ 6907 6896 6895 6894 ] final   25.52 input  -60.11 | X-H torsion
[ 7974 7965 7964 7962 ] final  177.36 input  175.53 | X-H torsion
[ 8008 7997 7996 7995 ] final   35.11 input   59.86 | X-H torsion
[ 10167 10162 10161 10158 ] final  150.63 input  -65.29 | X-H torsion
[ 10718 10713 10712 10709 ] final -100.11 input   66.30 | X-H torsion
[ 10763 10752 10751 10750 ] final -119.33 input  -60.55 | X-H torsion
[ 11005 11000 10999 10996 ] final  153.45 input  -57.11 | X-H torsion

> <Gold.Protein.ActiveResidues>
 VAL166  LYS551  ARG553  GLY616  TRP617  ASP618  TYR619  PRO620  LYS621  CYS622 
 ASP623  PHE694  ASN695  SER759  ASP760  ASP761  ALA762  ILE779  LEU786  VAL792 
 PHE793  MET794  SER795  GLU796  ALA797  LYS798  CYS799  TRP800  GLU811  SER814 

> <Gold.Protein.RotatedAtoms>
  151.9737  135.0063  160.0553 H   0  0  0  0  0  0  0  0  0  0  0  0  # atno 6907 bound_to 6896
  152.1759  133.4670  159.4941 H   0  0  0  0  0  0  0  0  0  0  0  0  # atno 6908 bound_to 6896
  150.6909  134.1812  159.4292 H   0  0  0  0  0  0  0  0  0  0  0  0  # atno 6909 bound_to 6896
  144.7170  140.0236  143.6440 H   0  0  0  0  0  0  0  0  0  0  0  0  # atno 7974 bound_to 7965
  155.1657  140.3287  155.4402 H   0  0  0  0  0  0  0  0  0  0  0  0  # atno 8008 bound_to 7997
  156.2527  140.1952  156.6713 H   0  0  0  0  0  0  0  0  0  0  0  0  # atno 8009 bound_to 7997
  154.6373  140.0575  156.9790 H   0  0  0  0  0  0  0  0  0  0  0  0  # atno 8010 bound_to 7997
  139.4848  144.5507  151.7406 H   0  0  0  0  0  0  0  0  0  0  0  0  # atno 10167 bound_to 10162
  156.0153  130.5313  150.6769 H   0  0  0  0  0  0  0  0  0  0  0  0  # atno 10718 bound_to 10713
  154.8614  135.4242  154.2282 H   0  0  0  0  0  0  0  0  0  0  0  0  # atno 10763 bound_to 10752
  153.3273  135.6986  153.6984 H   0  0  0  0  0  0  0  0  0  0  0  0  # atno 10764 bound_to 10752
  153.6015  135.3536  155.2920 H   0  0  0  0  0  0  0  0  0  0  0  0  # atno 10765 bound_to 10752
  140.1399  134.8746  157.2317 H   0  0  0  0  0  0  0  0  0  0  0  0  # atno 11005 bound_to 11000
  146.0160  139.3210  143.0841 LP  0  0  0  0  0  0  0  0  0  0  0  0  # atno 17320 bound_to 7965
  145.8625  140.9467  143.0693 LP  0  0  0  0  0  0  0  0  0  0  0  0  # atno 17321 bound_to 7965
  140.5060  144.1097  150.5983 LP  0  0  0  0  0  0  0  0  0  0  0  0  # atno 17342 bound_to 10162
  140.4006  143.2705  151.9952 LP  0  0  0  0  0  0  0  0  0  0  0  0  # atno 17343 bound_to 10162
  157.4480  131.0869  151.0876 LP  0  0  0  0  0  0  0  0  0  0  0  0  # atno 17370 bound_to 10713
  157.1400  130.6139  149.5552 LP  0  0  0  0  0  0  0  0  0  0  0  0  # atno 17371 bound_to 10713
  140.2735  134.3432  155.7365 LP  0  0  0  0  0  0  0  0  0  0  0  0  # atno 17394 bound_to 11000
  141.2184  133.7437  156.9259 LP  0  0  0  0  0  0  0  0  0  0  0  0  # atno 17395 bound_to 11000

$$$$
