AV-unprocessed.smi:2559|AV-procd|sdf|10036|dock7
  -GOLD-   2272014 83D 1   1.00000     0.00000
 Structure written by MMmdl.
 43 45  0  0  0  0  0  0  0  0  2 V2000
  153.4127  137.8913  159.0284 C   0  0  0  0  0  0  0  0  0  0  0  0
  152.7887  138.1769  157.7329 N   0  0  0  0  0  0  0  0  0  0  0  0
  152.6936  137.2102  156.7675 C   0  0  0  0  0  0  0  0  0  0  0  0
  153.1442  136.0906  157.0137 O   0  0  0  0  0  0  0  0  0  0  0  0
  152.1021  137.5060  155.5590 N   0  5  0  0  0  0  0  0  0  0  0  0
  151.5657  138.7143  155.1978 C   0  0  0  0  0  0  0  0  0  0  0  0
  151.0231  138.9801  154.1280 O   0  0  0  0  0  0  0  0  0  0  0  0
  151.6947  139.7288  156.2706 C   0  0  0  0  0  0  0  0  0  0  0  0
  152.2666  139.4743  157.4790 C   0  0  0  0  0  0  0  0  0  0  0  0
  152.2160  140.5866  158.3035 N   0  0  0  0  0  0  0  0  0  0  0  0
  151.6230  141.5029  157.5370 C   0  0  0  0  0  0  0  0  0  0  0  0
  151.3481  142.7987  157.9806 N   0  0  0  0  0  0  0  0  0  0  0  0
  150.3053  143.1814  158.9334 C   0  0  0  0  0  0  0  0  0  0  0  0
  150.8565  144.0951  160.0426 C   0  0  0  0  0  0  0  0  0  0  0  0
  151.4849  145.3559  159.4340 C   0  0  0  0  0  0  0  0  0  0  0  0
  152.4990  144.9671  158.3487 C   0  0  0  0  0  0  0  0  0  0  0  0
  151.8683  144.0003  157.3295 C   0  0  0  0  0  0  0  0  0  0  0  0
  151.2613  141.0612  156.3006 N   0  0  0  0  0  0  0  0  0  0  0  0
  150.5327  141.7971  155.2653 C   0  0  0  0  0  0  0  0  0  0  0  0
  149.2979  141.0276  154.7561 C   0  0  2  0  0  0  0  0  0  0  0  0
  149.2100  141.1642  153.3510 O   0  0  0  0  0  0  0  0  0  0  0  0
  147.9978  141.5541  155.3869 C   0  0  0  0  0  0  0  0  0  0  0  0
  147.4813  142.6257  154.6260 O   0  0  0  0  0  0  0  0  0  0  0  0
  154.4158  137.4844  158.8936 H   0  0  0  0  0  0  0  0  0  0  0  0
  152.8202  137.1618  159.5812 H   0  0  0  0  0  0  0  0  0  0  0  0
  153.5090  138.7786  159.6536 H   0  0  0  0  0  0  0  0  0  0  0  0
  149.5136  143.7007  158.3918 H   0  0  0  0  0  0  0  0  0  0  0  0
  149.8326  142.2968  159.3581 H   0  0  0  0  0  0  0  0  0  0  0  0
  150.0588  144.3720  160.7323 H   0  0  0  0  0  0  0  0  0  0  0  0
  151.6023  143.5601  160.6303 H   0  0  0  0  0  0  0  0  0  0  0  0
  150.7032  145.9777  158.9960 H   0  0  0  0  0  0  0  0  0  0  0  0
  151.9651  145.9544  160.2084 H   0  0  0  0  0  0  0  0  0  0  0  0
  152.8629  145.8607  157.8410 H   0  0  0  0  0  0  0  0  0  0  0  0
  153.3685  144.4966  158.8094 H   0  0  0  0  0  0  0  0  0  0  0  0
  152.6161  143.7180  156.5876 H   0  0  0  0  0  0  0  0  0  0  0  0
  151.0621  144.4938  156.7853 H   0  0  0  0  0  0  0  0  0  0  0  0
  150.2305  142.7626  155.6594 H   0  0  0  0  0  0  0  0  0  0  0  0
  151.1948  142.0480  154.4407 H   0  0  0  0  0  0  0  0  0  0  0  0
  149.4183  139.9705  154.9945 H   0  0  0  0  0  0  0  0  0  0  0  0
  149.6482  140.4295  152.9494 H   0  0  0  0  0  0  0  0  0  0  0  0
  147.2390  140.7710  155.3966 H   0  0  0  0  0  0  0  0  0  0  0  0
  148.1519  141.8630  156.4216 H   0  0  0  0  0  0  0  0  0  0  0  0
  147.9037  143.4227  154.9065 H   0  0  0  0  0  0  0  0  0  0  0  0
  1  2  1  0  0  0  0
  1 24  1  0  0  0  0
  1 25  1  0  0  0  0
  1 26  1  0  0  0  0
  2  9  1  0  0  0  0
  2  3  1  0  0  0  0
  3  4  2  0  0  0  0
  3  5  1  0  0  0  0
  5  6  1  0  0  0  0
  6  7  2  0  0  0  0
  6  8  1  0  0  0  0
  8 18  1  0  0  0  0
  8  9  2  0  0  0  0
  9 10  1  0  0  0  0
 10 11  2  0  0  0  0
 11 12  1  0  0  0  0
 11 18  1  0  0  0  0
 12 17  1  0  0  0  0
 12 13  1  0  0  0  0
 13 14  1  0  0  0  0
 13 27  1  0  0  0  0
 13 28  1  0  0  0  0
 14 15  1  0  0  0  0
 14 29  1  0  0  0  0
 14 30  1  0  0  0  0
 15 16  1  0  0  0  0
 15 31  1  0  0  0  0
 15 32  1  0  0  0  0
 16 17  1  0  0  0  0
 16 33  1  0  0  0  0
 16 34  1  0  0  0  0
 17 35  1  0  0  0  0
 17 36  1  0  0  0  0
 18 19  1  0  0  0  0
 19 20  1  0  0  0  0
 19 37  1  0  0  0  0
 19 38  1  0  0  0  0
 20 21  1  0  0  0  0
 20 22  1  0  0  0  0
 20 39  1  0  0  0  0
 21 40  1  0  0  0  0
 22 23  1  0  0  0  0
 22 41  1  0  0  0  0
 22 42  1  0  0  0  0
 23 43  1  0  0  0  0
M  CHG  1   5  -1
M  END
> <s_m_source_file>
AV-unprocessed.smi

> <i_m_source_file_index>
2559

> <i_lp_mmshare_version>
43012

> <i_f3d_flags>
0

> <s_epik_input>
Tz1jMVtuSF1jKD1PKW4oW0NIM10pYyhjMTIpbmMobjJbQ0gyXVtDQEhdKFtPSF0pW0NIMl1bT0hdKU4zW0NIMl1bQ0gyXVtDSDJdW0NIMl1bQ0gyXTM=

> <s_epik_cmdline>
J2VwaWtfcHl0aG9uJywgJy1waCcsICc3LjAnLCAnLXRuJywgJzgnLCAnLW1hJywgJzIwMCcsICctbWV0YWxfYmluZGluZycsICctaW1hZScsICc8aW5maWxlLm1hZT4nLCAnLW9tYWUnLCAnPG91dGZpbGUubWFlPic=

> <r_lp_tautomer_probability>
1

> <r_epik_Ionization_Penalty>
5.90509

> <r_epik_Ionization_Penalty_Charging>
0.0759636

> <r_epik_Ionization_Penalty_Neutral>
5.82913

> <r_epik_State_Penalty>
5.18635

> <r_epik_Charging_Adjusted_Penalty>
5.26231

> <i_epik_Tot_Q>
-1

> <i_epik_Tot_abs_Q>
1

> <r_epik_Metal_State_Penalty>
1.25614

> <b_epik_Metal_Only>
1

> <s_lp_Force_Field>
OPLS_2005

> <r_lp_Energy>
44.2417

> <b_lp_Chiralities_Consistent>
1

> <s_lp_Variant>
AV-unprocessed.smi:2559-3

> <Gold.Version>
5.8.1

> <Gold.Id.Protein>
6NUR|6NUR_protein|mol2

> <Gold.PLP.Fitness>
50.7031

> <Gold.PLP.PLP>
-41.4209

> <Gold.PLP.part.hbond>
-6.4754

> <Gold.PLP.part.metal>
0.0000

> <Gold.PLP.part.buried>
-4.3462

> <Gold.PLP.part.nonpolar>
-30.3167

> <Gold.PLP.part.repulsive>
0.2224

> <Gold.PLP.ligand.clash>
0.0000

> <Gold.PLP.ligand.torsion>
2.2300

> <Gold.PLP.Chemscore.Hbond>
4.3738

> <Gold.PLP.Chemscore.CHOScore>
0.0000

> <Gold.PLP.Chemscore.Metal>
0.0000

> <Gold.Chemscore.Hbonds>
donor molecule, donor type, donor heavy atom, donor atom, acceptor molecule, acceptor atom, score
      L1  H    21    40       P1  7957  0.50
      L1  H    23    43       P1  8028  1.00
      P1  H  7989  7998       L1     7  0.91
      P1  H  8011  8017       L1    21  0.95
      P1  H 10752 10765       L1     4  1.00

> <Gold.PLP.Chemscore.Internal.Correction>
0.6211

> <Gold.Rescore>
     Score         DG    S(hbond)    S(metal)    S(lipo)     H(rot)  DE(clash)    DE(int)     intcor
     12.68     -19.92       3.44        0.00      89.41       2.93       3.75       3.48       ----

> <Gold.Chemscore.Fitness>
12.6844

> <Gold.Chemscore.DG>
-19.9167

> <Gold.Chemscore.ZeroCoef>
-5.4800

> <Gold.Chemscore.Hbond>
3.4382

> <Gold.Chemscore.Metal>
0.0000

> <Gold.Chemscore.Lipo>
89.4134

> <Gold.Chemscore.Internal_Hbond>
0.0000

> <Gold.Chemscore.DEClash>
3.7510

> <Gold.Chemscore.DEInternal>
3.4814

> <Gold.Chemscore.Rot>
2.9330

> <Gold.Chemscore.Internal.Correction>
   9.000000E+99

> <Gold.Chemscore.Hbonds>
donor molecule, donor type, donor heavy atom, donor atom, acceptor molecule, acceptor atom, score
      L1  H    21    40       P1  7957  0.50
      L1  H    23    43       P1  8028  0.65
      P1  H  7989  7998       L1     7  0.64
      P1  H  8011  8017       L1    21  0.21
      P1  H 10752 10765       L1     4  0.50

> <Gold.Chemscore.Hbond.Weighted>
-11.4837

> <Gold.Chemscore.Metal.Weighted>
-0.0000

> <Gold.Chemscore.Lipo.Weighted>
-10.4614

> <Gold.Chemscore.Internal_Hbond.Weighted>
0.0000

> <Gold.Chemscore.DEClash.Weighted>
3.7510

> <Gold.Chemscore.DEInternal.Weighted>
3.4814

> <Gold.Chemscore.Rot.Weighted>
7.5084

> <Gold.Chemscore.Internal.Correction.Weighted>
   9.000000E+99

> <Gold.Protein.RotatedTorsions>
[ 6907 6896 6895 6894 ] final   -0.55 input  -60.11 | X-H torsion
[ 7974 7965 7964 7962 ] final   47.60 input  175.53 | X-H torsion
[ 8008 7997 7996 7995 ] final  104.77 input   59.86 | X-H torsion
[ 10167 10162 10161 10158 ] final -112.13 input  -65.29 | X-H torsion
[ 10718 10713 10712 10709 ] final  -22.72 input   66.30 | X-H torsion
[ 10763 10752 10751 10750 ] final -118.75 input  -60.55 | X-H torsion
[ 11005 11000 10999 10996 ] final -165.74 input  -57.11 | X-H torsion

> <Gold.Protein.ActiveResidues>
 VAL166  LYS551  ARG553  GLY616  TRP617  ASP618  TYR619  PRO620  LYS621  CYS622 
 ASP623  PHE694  ASN695  SER759  ASP760  ASP761  ALA762  ILE779  LEU786  VAL792 
 PHE793  MET794  SER795  GLU796  ALA797  LYS798  CYS799  TRP800  GLU811  SER814 

> <Gold.Protein.RotatedAtoms>
  151.5604  135.1065  159.9970 H   0  0  0  0  0  0  0  0  0  0  0  0  # atno 6907 bound_to 6896
  152.4449  133.7513  159.6706 H   0  0  0  0  0  0  0  0  0  0  0  0  # atno 6908 bound_to 6896
  150.8362  133.7941  159.3102 H   0  0  0  0  0  0  0  0  0  0  0  0  # atno 6909 bound_to 6896
  146.0282  139.4732  142.9854 H   0  0  0  0  0  0  0  0  0  0  0  0  # atno 7974 bound_to 7965
  156.1602  140.3142  155.8794 H   0  0  0  0  0  0  0  0  0  0  0  0  # atno 8008 bound_to 7997
  155.3798  140.0487  157.3061 H   0  0  0  0  0  0  0  0  0  0  0  0  # atno 8009 bound_to 7997
  154.5139  140.2174  155.9114 H   0  0  0  0  0  0  0  0  0  0  0  0  # atno 8010 bound_to 7997
  140.1261  143.4401  152.1659 H   0  0  0  0  0  0  0  0  0  0  0  0  # atno 10167 bound_to 10162
  156.5007  130.4587  149.6702 H   0  0  0  0  0  0  0  0  0  0  0  0  # atno 10718 bound_to 10713
  154.8597  135.4263  154.2189 H   0  0  0  0  0  0  0  0  0  0  0  0  # atno 10763 bound_to 10752
  153.3198  135.6981  153.7046 H   0  0  0  0  0  0  0  0  0  0  0  0  # atno 10764 bound_to 10752
  153.6105  135.3520  155.2951 H   0  0  0  0  0  0  0  0  0  0  0  0  # atno 10765 bound_to 10752
  140.5723  134.5225  157.5164 H   0  0  0  0  0  0  0  0  0  0  0  0  # atno 11005 bound_to 11000
  145.7083  141.0114  143.1467 LP  0  0  0  0  0  0  0  0  0  0  0  0  # atno 17320 bound_to 7965
  144.7019  139.8726  143.7441 LP  0  0  0  0  0  0  0  0  0  0  0  0  # atno 17321 bound_to 7965
  139.5543  144.7361  151.4340 LP  0  0  0  0  0  0  0  0  0  0  0  0  # atno 17342 bound_to 10162
  140.6844  143.8008  150.7165 LP  0  0  0  0  0  0  0  0  0  0  0  0  # atno 17343 bound_to 10162
  156.3335  130.7344  151.2278 LP  0  0  0  0  0  0  0  0  0  0  0  0  # atno 17370 bound_to 10713
  157.7463  131.0423  150.4689 LP  0  0  0  0  0  0  0  0  0  0  0  0  # atno 17371 bound_to 10713
  139.9356  134.7882  156.0812 LP  0  0  0  0  0  0  0  0  0  0  0  0  # atno 17394 bound_to 11000
  141.1048  133.6664  156.2839 LP  0  0  0  0  0  0  0  0  0  0  0  0  # atno 17395 bound_to 11000

$$$$
