AV-unprocessed.smi:1986|AV-procd|sdf|8051|dock3
  -GOLD-   2272010253D 1   1.00000     0.00000
 Structure written by MMmdl.
 47 48  0  0  0  0  0  0  0  0  1 V2000
  147.2306  141.9934  154.0501 C   0  0  0  0  0  0  0  0  0  0  0  0
  148.5995  141.3084  154.2158 C   0  0  0  0  0  0  0  0  0  0  0  0
  148.5776  139.9197  154.9303 C   0  0  2  0  0  0  0  0  0  0  0  0
  147.9453  138.9203  153.9234 C   0  0  0  0  0  0  0  0  0  0  0  0
  147.6463  140.0301  156.1822 C   0  0  0  0  0  0  0  0  0  0  0  0
  147.2726  138.7380  156.7580 N   0  0  0  0  0  0  0  0  0  0  0  0
  147.5464  138.3277  158.0060 C   0  0  0  0  0  0  0  0  0  0  0  0
  148.1264  139.0307  158.8347 O   0  0  0  0  0  0  0  0  0  0  0  0
  147.0904  136.9052  158.3607 C   0  0  0  0  0  0  0  0  0  0  0  0
  147.2188  136.6047  159.7938 N   0  0  0  0  0  0  0  0  0  0  0  0
  146.4683  137.4383  160.6094 N   0  0  0  0  0  0  0  0  0  0  0  0
  146.4702  137.2635  161.8875 C   0  0  0  0  0  0  0  0  0  0  0  0
  145.7089  138.1093  162.6565 O   0  0  0  0  0  0  0  0  0  0  0  0
  147.2504  136.2091  162.4973 C   0  0  0  0  0  0  0  0  0  0  0  0
  147.9807  135.4040  161.6950 C   0  0  0  0  0  0  0  0  0  0  0  0
  147.9969  135.5712  160.2405 C   0  0  0  0  0  0  0  0  0  0  0  0
  148.6457  134.8458  159.4873 O   0  0  0  0  0  0  0  0  0  0  0  0
  149.9555  139.4835  155.2957 N   0  0  0  0  0  0  0  0  0  0  0  0
  150.7482  140.4712  156.0380 C   0  0  0  0  0  0  0  0  0  0  0  0
  152.0965  139.8951  156.5033 C   0  0  0  0  0  0  0  0  0  0  0  0
  152.8244  139.4113  155.3811 O   0  0  0  0  0  0  0  0  0  0  0  0
  152.1137  138.4092  154.6642 C   0  0  0  0  0  0  0  0  0  0  0  0
  150.7666  138.9745  154.1832 C   0  0  0  0  0  0  0  0  0  0  0  0
  144.8200  137.8031  162.5640 H   0  0  0  0  0  0  0  0  0  0  0  0
  147.3422  142.9456  153.5314 H   0  0  0  0  0  0  0  0  0  0  0  0
  146.7634  142.2026  155.0122 H   0  0  0  0  0  0  0  0  0  0  0  0
  146.5396  141.3853  153.4662 H   0  0  0  0  0  0  0  0  0  0  0  0
  149.0690  141.2221  153.2360 H   0  0  0  0  0  0  0  0  0  0  0  0
  149.2419  141.9988  154.7634 H   0  0  0  0  0  0  0  0  0  0  0  0
  147.0518  139.3254  153.4473 H   0  0  0  0  0  0  0  0  0  0  0  0
  147.6412  137.9920  154.4074 H   0  0  0  0  0  0  0  0  0  0  0  0
  148.6401  138.6573  153.1253 H   0  0  0  0  0  0  0  0  0  0  0  0
  148.0965  140.6560  156.9528 H   0  0  0  0  0  0  0  0  0  0  0  0
  146.7107  140.5209  155.9164 H   0  0  0  0  0  0  0  0  0  0  0  0
  146.7879  138.0960  156.1477 H   0  0  0  0  0  0  0  0  0  0  0  0
  146.0625  136.7719  158.0201 H   0  0  0  0  0  0  0  0  0  0  0  0
  147.6800  136.1870  157.7872 H   0  0  0  0  0  0  0  0  0  0  0  0
  147.2441  136.0762  163.5691 H   0  0  0  0  0  0  0  0  0  0  0  0
  148.5683  134.6126  162.1366 H   0  0  0  0  0  0  0  0  0  0  0  0
  150.9387  141.3477  155.4190 H   0  0  0  0  0  0  0  0  0  0  0  0
  150.2145  140.8172  156.9213 H   0  0  0  0  0  0  0  0  0  0  0  0
  152.6838  140.6641  157.0049 H   0  0  0  0  0  0  0  0  0  0  0  0
  151.9442  139.0890  157.2228 H   0  0  0  0  0  0  0  0  0  0  0  0
  152.7139  138.0868  153.8135 H   0  0  0  0  0  0  0  0  0  0  0  0
  151.9615  137.5350  155.2992 H   0  0  0  0  0  0  0  0  0  0  0  0
  150.2452  138.1832  153.6481 H   0  0  0  0  0  0  0  0  0  0  0  0
  150.9611  139.7690  153.4628 H   0  0  0  0  0  0  0  0  0  0  0  0
  1  2  1  0  0  0  0
  1 25  1  0  0  0  0
  1 26  1  0  0  0  0
  1 27  1  0  0  0  0
  2  3  1  0  0  0  0
  2 28  1  0  0  0  0
  2 29  1  0  0  0  0
  3  4  1  0  0  0  0
  3  5  1  0  0  0  0
  3 18  1  0  0  0  0
  4 30  1  0  0  0  0
  4 31  1  0  0  0  0
  4 32  1  0  0  0  0
  5  6  1  0  0  0  0
  5 33  1  0  0  0  0
  5 34  1  0  0  0  0
  6  7  1  0  0  0  0
  6 35  1  0  0  0  0
  7  8  2  0  0  0  0
  7  9  1  0  0  0  0
  9 36  1  0  0  0  0
  9 37  1  0  0  0  0
  9 10  1  0  0  0  0
 10 11  1  0  0  0  0
 10 16  1  0  0  0  0
 11 12  2  0  0  0  0
 12 13  1  0  0  0  0
 12 14  1  0  0  0  0
 13 24  1  0  0  0  0
 14 38  1  0  0  0  0
 14 15  2  0  0  0  0
 15 39  1  0  0  0  0
 15 16  1  0  0  0  0
 16 17  2  0  0  0  0
 18 23  1  0  0  0  0
 18 19  1  0  0  0  0
 19 20  1  0  0  0  0
 19 40  1  0  0  0  0
 19 41  1  0  0  0  0
 20 21  1  0  0  0  0
 20 42  1  0  0  0  0
 20 43  1  0  0  0  0
 21 22  1  0  0  0  0
 22 23  1  0  0  0  0
 22 44  1  0  0  0  0
 22 45  1  0  0  0  0
 23 46  1  0  0  0  0
 23 47  1  0  0  0  0
M  END
> <s_m_source_file>
AV-unprocessed.smi

> <i_m_source_file_index>
1986

> <i_lp_mmshare_version>
43012

> <i_f3d_flags>
0

> <s_epik_input>
W0NIMl0xW0NIMl1PW0NIMl1bQ0gyXU4xW0NAQF0oW0NIM10pKFtDSDJdW0NIM10pW0NIMl1bTkhdQyg9TylbQ0gyXW4yW25IXWMoPU8pW2NIXVtjSF1jMj1P

> <s_epik_cmdline>
J2VwaWtfcHl0aG9uJywgJy1waCcsICc3LjAnLCAnLXRuJywgJzgnLCAnLW1hJywgJzIwMCcsICctbWV0YWxfYmluZGluZycsICctaW1hZScsICc8aW5maWxlLm1hZT4nLCAnLW9tYWUnLCAnPG91dGZpbGUubWFlPic=

> <r_epik_Ionization_Penalty>
2.44436

> <r_epik_Ionization_Penalty_Charging>
3.63754e-08

> <r_epik_Ionization_Penalty_Neutral>
2.44436

> <r_epik_State_Penalty>
2.04701

> <r_epik_Charging_Adjusted_Penalty>
2.04701

> <i_epik_Tot_Q>
0

> <i_epik_Tot_abs_Q>
0

> <r_epik_Metal_State_Penalty>
2.04701

> <b_epik_Metal_Only>
0

> <s_lp_Force_Field>
OPLS_2005

> <r_lp_Energy>
53.8062

> <b_lp_Chiralities_Consistent>
1

> <s_lp_Variant>
AV-unprocessed.smi:1986-6

> <Gold.Version>
5.8.1

> <Gold.Id.Protein>
6NUR|6NUR_protein|mol2

> <Gold.PLP.Fitness>
40.3119

> <Gold.PLP.PLP>
-34.2701

> <Gold.PLP.part.hbond>
-5.3489

> <Gold.PLP.part.metal>
0.0000

> <Gold.PLP.part.buried>
-2.0847

> <Gold.PLP.part.nonpolar>
-27.1438

> <Gold.PLP.part.repulsive>
0.0755

> <Gold.PLP.ligand.clash>
0.0000

> <Gold.PLP.ligand.torsion>
0.6136

> <Gold.PLP.Chemscore.Hbond>
2.3413

> <Gold.PLP.Chemscore.CHOScore>
0.0000

> <Gold.PLP.Chemscore.Metal>
0.0000

> <Gold.Chemscore.Hbonds>
donor molecule, donor type, donor heavy atom, donor atom, acceptor molecule, acceptor atom, score
      P1  H  6896  6907       L1    17  1.00
      P1  H  6934  6947       L1    11  0.35
      P1  H  7997  8009       L1    21  0.95

> <Gold.PLP.Chemscore.Internal.Correction>
0.2453

> <Gold.Rescore>
     Score         DG    S(hbond)    S(metal)    S(lipo)     H(rot)  DE(clash)    DE(int)     intcor
     10.93     -12.66       1.92        0.00      73.41       3.06       0.07       1.66       ----

> <Gold.Chemscore.Fitness>
10.9280

> <Gold.Chemscore.DG>
-12.6550

> <Gold.Chemscore.ZeroCoef>
-5.4800

> <Gold.Chemscore.Hbond>
1.9236

> <Gold.Chemscore.Metal>
0.0000

> <Gold.Chemscore.Lipo>
73.4087

> <Gold.Chemscore.Internal_Hbond>
0.0000

> <Gold.Chemscore.DEClash>
0.0706

> <Gold.Chemscore.DEInternal>
1.6564

> <Gold.Chemscore.Rot>
3.0620

> <Gold.Chemscore.Internal.Correction>
   9.000000E+99

> <Gold.Chemscore.Hbonds>
donor molecule, donor type, donor heavy atom, donor atom, acceptor molecule, acceptor atom, score
      P1  H  6896  6907       L1    17  0.91
      P1  H  6934  6947       L1    11  0.01
      P1  H  7997  8009       L1    21  0.20

> <Gold.Chemscore.Hbond.Weighted>
-6.4249

> <Gold.Chemscore.Metal.Weighted>
-0.0000

> <Gold.Chemscore.Lipo.Weighted>
-8.5888

> <Gold.Chemscore.Internal_Hbond.Weighted>
0.0000

> <Gold.Chemscore.DEClash.Weighted>
0.0706

> <Gold.Chemscore.DEInternal.Weighted>
1.6564

> <Gold.Chemscore.Rot.Weighted>
7.8387

> <Gold.Chemscore.Internal.Correction.Weighted>
   9.000000E+99

> <Gold.Protein.RotatedTorsions>
[ 6907 6896 6895 6894 ] final  -79.23 input  -60.11 | X-H torsion
[ 7974 7965 7964 7962 ] final  179.67 input  175.53 | X-H torsion
[ 8008 7997 7996 7995 ] final -124.15 input   59.86 | X-H torsion
[ 10167 10162 10161 10158 ] final  135.89 input  -65.29 | X-H torsion
[ 10718 10713 10712 10709 ] final  -95.51 input   66.30 | X-H torsion
[ 10763 10752 10751 10750 ] final  -95.99 input  -60.55 | X-H torsion
[ 11005 11000 10999 10996 ] final -115.02 input  -57.11 | X-H torsion

> <Gold.Protein.ActiveResidues>
 VAL166  LYS551  ARG553  GLY616  TRP617  ASP618  TYR619  PRO620  LYS621  CYS622 
 ASP623  PHE694  ASN695  SER759  ASP760  ASP761  ALA762  ILE779  LEU786  VAL792 
 PHE793  MET794  SER795  GLU796  ALA797  LYS798  CYS799  TRP800  GLU811  SER814 

> <Gold.Protein.RotatedAtoms>
  150.6954  134.4152  159.5179 H   0  0  0  0  0  0  0  0  0  0  0  0  # atno 6907 bound_to 6896
  152.1904  134.8674  160.0527 H   0  0  0  0  0  0  0  0  0  0  0  0  # atno 6908 bound_to 6896
  151.9631  133.3667  159.4080 H   0  0  0  0  0  0  0  0  0  0  0  0  # atno 6909 bound_to 6896
  144.7143  140.0584  143.6433 H   0  0  0  0  0  0  0  0  0  0  0  0  # atno 7974 bound_to 7965
  155.1921  140.0413  157.2902 H   0  0  0  0  0  0  0  0  0  0  0  0  # atno 8008 bound_to 7997
  154.6131  140.2482  155.7615 H   0  0  0  0  0  0  0  0  0  0  0  0  # atno 8009 bound_to 7997
  156.2391  140.2910  156.0404 H   0  0  0  0  0  0  0  0  0  0  0  0  # atno 8010 bound_to 7997
  139.5200  144.6493  151.5347 H   0  0  0  0  0  0  0  0  0  0  0  0  # atno 10167 bound_to 10162
  156.0045  130.5112  150.6088 H   0  0  0  0  0  0  0  0  0  0  0  0  # atno 10718 bound_to 10713
  154.7199  135.5100  153.8795 H   0  0  0  0  0  0  0  0  0  0  0  0  # atno 10763 bound_to 10752
  153.0853  135.6643  153.9971 H   0  0  0  0  0  0  0  0  0  0  0  0  # atno 10764 bound_to 10752
  153.9796  135.3030  155.3400 H   0  0  0  0  0  0  0  0  0  0  0  0  # atno 10765 bound_to 10752
  141.0514  133.9681  157.2829 H   0  0  0  0  0  0  0  0  0  0  0  0  # atno 11005 bound_to 11000
  145.9885  139.2996  143.0999 LP  0  0  0  0  0  0  0  0  0  0  0  0  # atno 17320 bound_to 7965
  145.8930  140.9292  143.0542 LP  0  0  0  0  0  0  0  0  0  0  0  0  # atno 17321 bound_to 7965
  140.6292  143.9110  150.6590 LP  0  0  0  0  0  0  0  0  0  0  0  0  # atno 17342 bound_to 10162
  140.2408  143.3665  152.1488 LP  0  0  0  0  0  0  0  0  0  0  0  0  # atno 17343 bound_to 10162
  157.3924  131.0797  151.1382 LP  0  0  0  0  0  0  0  0  0  0  0  0  # atno 17370 bound_to 10713
  157.2070  130.6420  149.5759 LP  0  0  0  0  0  0  0  0  0  0  0  0  # atno 17371 bound_to 10713
  139.9354  135.0197  156.8537 LP  0  0  0  0  0  0  0  0  0  0  0  0  # atno 17394 bound_to 11000
  140.6047  134.0138  155.7552 LP  0  0  0  0  0  0  0  0  0  0  0  0  # atno 17395 bound_to 11000

$$$$
