AV-unprocessed.smi:34|AV-procd|sdf|229|dock9
  -GOLD-   2262015563D 1   1.00000     0.00000
 Structure written by MMmdl.
 55 59  0  0  0  0  0  0  0  0  1 V2000
  150.9463  142.1367  156.6361 O   0  0  0  0  0  0  0  0  0  0  0  0
  151.5406  141.7344  157.6368 C   0  0  0  0  0  0  0  0  0  0  0  0
  151.9832  140.3581  157.7730 N   0  0  0  0  0  0  0  0  0  0  0  0
  151.8899  139.3571  156.8667 C   0  0  0  0  0  0  0  0  0  0  0  0
  152.5484  139.3864  155.6783 N   0  0  0  0  0  0  0  0  0  0  0  0
  152.4210  138.3753  154.8148 C   0  0  0  0  0  0  0  0  0  0  0  0
  151.7000  137.2601  154.9408 N   0  0  0  0  0  0  0  0  0  0  0  0
  151.0395  137.2172  156.1332 C   0  0  0  0  0  0  0  0  0  0  0  0
  151.0872  138.2194  157.1422 C   0  0  0  0  0  0  0  0  0  0  0  0
  150.2948  137.8419  158.2182 N   0  0  0  0  0  0  0  0  0  0  0  0
  149.8050  136.6860  157.8592 C   0  0  0  0  0  0  0  0  0  0  0  0
  150.1947  136.2365  156.6171 N   0  0  0  0  0  0  0  0  0  0  0  0
  149.7777  134.9622  155.9478 C   0  0  2  0  0  0  0  0  0  0  0  0
  148.7645  134.3421  156.6847 O   0  0  0  0  0  0  0  0  0  0  0  0
  148.9765  132.9286  156.7636 C   0  0  2  0  0  0  0  0  0  0  0  0
  149.2896  132.5538  158.2211 C   0  0  0  0  0  0  0  0  0  0  0  0
  148.2071  132.9604  159.0430 O   0  0  0  0  0  0  0  0  0  0  0  0
  147.9934  132.3606  160.2307 C   0  0  0  0  0  0  0  0  0  0  0  0
  148.5117  131.2918  160.5603 O   0  0  0  0  0  0  0  0  0  0  0  0
  147.0724  133.1340  161.1122 C   0  0  0  0  0  0  0  0  0  0  0  0
  147.3957  134.4686  161.4516 C   0  0  0  0  0  0  0  0  0  0  0  0
  146.5422  135.2254  162.2780 C   0  0  0  0  0  0  0  0  0  0  0  0
  145.3552  134.6568  162.7750 C   0  0  0  0  0  0  0  0  0  0  0  0
  145.0226  133.3303  162.4449 C   0  0  0  0  0  0  0  0  0  0  0  0
  145.8745  132.5722  161.6182 C   0  0  0  0  0  0  0  0  0  0  0  0
  150.1340  132.6620  155.7948 C   0  0  2  0  0  0  0  0  0  0  0  0
  150.8660  131.5808  156.0695 F   0  0  0  0  0  0  0  0  0  0  0  0
  150.9257  133.9556  155.8018 C   0  0  2  0  0  0  0  0  0  0  0  0
  151.8663  134.0154  156.8605 O   0  0  0  0  0  0  0  0  0  0  0  0
  151.7681  142.6182  158.8281 C   0  0  0  0  0  0  0  0  0  0  0  0
  151.3031  143.9523  158.8166 C   0  0  0  0  0  0  0  0  0  0  0  0
  151.5214  144.7929  159.9255 C   0  0  0  0  0  0  0  0  0  0  0  0
  152.2149  144.3091  161.0508 C   0  0  0  0  0  0  0  0  0  0  0  0
  152.6932  142.9853  161.0652 C   0  0  0  0  0  0  0  0  0  0  0  0
  152.4742  142.1430  159.9575 C   0  0  0  0  0  0  0  0  0  0  0  0
  152.4075  140.1168  158.6566 H   0  0  0  0  0  0  0  0  0  0  0  0
  152.9731  138.4739  153.8915 H   0  0  0  0  0  0  0  0  0  0  0  0
  149.1333  136.1267  158.4944 H   0  0  0  0  0  0  0  0  0  0  0  0
  149.3704  135.2728  154.9846 H   0  0  0  0  0  0  0  0  0  0  0  0
  148.0823  132.3973  156.4353 H   0  0  0  0  0  0  0  0  0  0  0  0
  149.4138  131.4748  158.3177 H   0  0  0  0  0  0  0  0  0  0  0  0
  150.2217  133.0171  158.5438 H   0  0  0  0  0  0  0  0  0  0  0  0
  148.3009  134.9267  161.0802 H   0  0  0  0  0  0  0  0  0  0  0  0
  146.7990  136.2438  162.5294 H   0  0  0  0  0  0  0  0  0  0  0  0
  144.7005  135.2370  163.4084 H   0  0  0  0  0  0  0  0  0  0  0  0
  144.1116  132.8926  162.8254 H   0  0  0  0  0  0  0  0  0  0  0  0
  145.5888  131.5574  161.3834 H   0  0  0  0  0  0  0  0  0  0  0  0
  149.7256  132.5058  154.7953 H   0  0  0  0  0  0  0  0  0  0  0  0
  151.4490  134.1250  154.8603 H   0  0  0  0  0  0  0  0  0  0  0  0
  152.2754  134.8672  156.8504 H   0  0  0  0  0  0  0  0  0  0  0  0
  150.7698  144.3385  157.9600 H   0  0  0  0  0  0  0  0  0  0  0  0
  151.1567  145.8092  159.9114 H   0  0  0  0  0  0  0  0  0  0  0  0
  152.3830  144.9543  161.9006 H   0  0  0  0  0  0  0  0  0  0  0  0
  153.2309  142.6155  161.9257 H   0  0  0  0  0  0  0  0  0  0  0  0
  152.8568  141.1330  159.9852 H   0  0  0  0  0  0  0  0  0  0  0  0
  1  2  2  0  0  0  0
  2  3  1  0  0  0  0
  2 30  1  0  0  0  0
  3  4  1  0  0  0  0
  3 36  1  0  0  0  0
  4  9  1  0  0  0  0
  4  5  2  0  0  0  0
  5  6  1  0  0  0  0
  6  7  2  0  0  0  0
  6 37  1  0  0  0  0
  7  8  1  0  0  0  0
  8 12  1  0  0  0  0
  8  9  2  0  0  0  0
  9 10  1  0  0  0  0
 10 11  2  0  0  0  0
 11 12  1  0  0  0  0
 11 38  1  0  0  0  0
 12 13  1  0  0  0  0
 13 28  1  0  0  0  0
 13 14  1  0  0  0  0
 13 39  1  0  0  0  0
 14 15  1  0  0  0  0
 15 16  1  0  0  0  0
 15 26  1  0  0  0  0
 15 40  1  0  0  0  0
 16 17  1  0  0  0  0
 16 41  1  0  0  0  0
 16 42  1  0  0  0  0
 17 18  1  0  0  0  0
 18 19  2  0  0  0  0
 18 20  1  0  0  0  0
 20 25  1  0  0  0  0
 20 21  2  0  0  0  0
 21 22  1  0  0  0  0
 21 43  1  0  0  0  0
 22 23  2  0  0  0  0
 22 44  1  0  0  0  0
 23 24  1  0  0  0  0
 23 45  1  0  0  0  0
 24 25  2  0  0  0  0
 24 46  1  0  0  0  0
 25 47  1  0  0  0  0
 26 27  1  0  0  0  0
 26 28  1  0  0  0  0
 26 48  1  0  0  0  0
 28 29  1  0  0  0  0
 28 49  1  0  0  0  0
 29 50  1  0  0  0  0
 30 35  1  0  0  0  0
 30 31  2  0  0  0  0
 31 32  1  0  0  0  0
 31 51  1  0  0  0  0
 32 33  2  0  0  0  0
 32 52  1  0  0  0  0
 33 34  1  0  0  0  0
 33 53  1  0  0  0  0
 34 35  2  0  0  0  0
 34 54  1  0  0  0  0
 35 55  1  0  0  0  0
M  END
> <s_m_source_file>
AV-unprocessed.smi

> <i_m_source_file_index>
34

> <i_lp_mmshare_version>
43012

> <i_f3d_flags>
0

> <s_epik_input>
W2NIXTFbY0hdW2NIXVtjSF1bY0hdYzFDKD1PKVtOSF1jKG5bY0hdbjIpYyhjMjMpbltjSF1uM1tDQEBIXTRPW0NASF0oW0NAQEhdKEYpW0NASF00W09IXSlbQ0gyXU9DKD1PKWM1W2NIXVtjSF1bY0hdW2NIXVtjSF01

> <s_epik_cmdline>
J2VwaWtfcHl0aG9uJywgJy1waCcsICc3LjAnLCAnLXRuJywgJzgnLCAnLW1hJywgJzIwMCcsICctbWV0YWxfYmluZGluZycsICctaW1hZScsICc8aW5maWxlLm1hZT4nLCAnLW9tYWUnLCAnPG91dGZpbGUubWFlPic=

> <r_lp_tautomer_probability>
1

> <r_epik_Ionization_Penalty>
0.00257489

> <r_epik_Ionization_Penalty_Charging>
0

> <r_epik_Ionization_Penalty_Neutral>
0.00257489

> <r_epik_State_Penalty>
0.00519398

> <r_epik_Charging_Adjusted_Penalty>
0.00519398

> <i_epik_Tot_Q>
0

> <i_epik_Tot_abs_Q>
0

> <r_epik_Metal_State_Penalty>
0.335891

> <b_epik_Metal_Only>
0

> <s_epik_Chemistry_Notes>
This compound has an ester and may undergo hydrolysis at high or low pH. This compound contains an acetal/aminal-like group ( X-CH(R)-Y where X, Y are N, S, or O) that may be acid/base labile, releasing an aldehyde.

> <s_lp_Force_Field>
OPLS_2005

> <r_lp_Energy>
55.6649

> <b_lp_Chiralities_Consistent>
1

> <s_lp_Variant>
AV-unprocessed.smi:34-15

> <Gold.Version>
5.8.1

> <Gold.Id.Protein>
6NUR|6NUR_protein|mol2

> <Gold.PLP.Fitness>
59.4027

> <Gold.PLP.PLP>
-57.2886

> <Gold.PLP.part.hbond>
-3.0000

> <Gold.PLP.part.metal>
0.0000

> <Gold.PLP.part.buried>
-9.0808

> <Gold.PLP.part.nonpolar>
-45.2935

> <Gold.PLP.part.repulsive>
0.2547

> <Gold.PLP.ligand.clash>
0.0000

> <Gold.PLP.ligand.torsion>
2.1501

> <Gold.PLP.Chemscore.Hbond>
2.0624

> <Gold.PLP.Chemscore.CHOScore>
0.0000

> <Gold.PLP.Chemscore.Metal>
0.0000

> <Gold.Chemscore.Hbonds>
donor molecule, donor type, donor heavy atom, donor atom, acceptor molecule, acceptor atom, score
      P1  H  7997  8008       L1     5  1.00
      P1  H 10752 10764       L1     7  0.84

> <Gold.PLP.Chemscore.Internal.Correction>
0.2271

> <Gold.Rescore>
     Score         DG    S(hbond)    S(metal)    S(lipo)     H(rot)  DE(clash)    DE(int)     intcor
     17.59     -19.76       1.79        0.00     130.47       2.72       0.25       1.92       ----

> <Gold.Chemscore.Fitness>
17.5911

> <Gold.Chemscore.DG>
-19.7589

> <Gold.Chemscore.ZeroCoef>
-5.4800

> <Gold.Chemscore.Hbond>
1.7907

> <Gold.Chemscore.Metal>
0.0000

> <Gold.Chemscore.Lipo>
130.4689

> <Gold.Chemscore.Internal_Hbond>
0.0000

> <Gold.Chemscore.DEClash>
0.2494

> <Gold.Chemscore.DEInternal>
1.9184

> <Gold.Chemscore.Rot>
2.7215

> <Gold.Chemscore.Internal.Correction>
   9.000000E+99

> <Gold.Chemscore.Hbonds>
donor molecule, donor type, donor heavy atom, donor atom, acceptor molecule, acceptor atom, score
      P1  H  6896  6907       L1    29  0.01
      P1  H  7997  8008       L1     5  0.46
      P1  H 10752 10764       L1     7  0.49

> <Gold.Chemscore.Hbond.Weighted>
-5.9810

> <Gold.Chemscore.Metal.Weighted>
-0.0000

> <Gold.Chemscore.Lipo.Weighted>
-15.2649

> <Gold.Chemscore.Internal_Hbond.Weighted>
0.0000

> <Gold.Chemscore.DEClash.Weighted>
0.2494

> <Gold.Chemscore.DEInternal.Weighted>
1.9184

> <Gold.Chemscore.Rot.Weighted>
6.9670

> <Gold.Chemscore.Internal.Correction.Weighted>
   9.000000E+99

> <Gold.Protein.RotatedTorsions>
[ 6907 6896 6895 6894 ] final -172.93 input  -60.11 | X-H torsion
[ 7974 7965 7964 7962 ] final   55.33 input  175.53 | X-H torsion
[ 8008 7997 7996 7995 ] final  -29.98 input   59.86 | X-H torsion
[ 10167 10162 10161 10158 ] final  -35.52 input  -65.29 | X-H torsion
[ 10718 10713 10712 10709 ] final  -70.56 input   66.30 | X-H torsion
[ 10763 10752 10751 10750 ] final  -65.71 input  -60.55 | X-H torsion
[ 11005 11000 10999 10996 ] final -159.22 input  -57.11 | X-H torsion

> <Gold.Protein.ActiveResidues>
 VAL166  LYS551  ARG553  GLY616  TRP617  ASP618  TYR619  PRO620  LYS621  CYS622 
 ASP623  PHE694  ASN695  SER759  ASP760  ASP761  ALA762  ILE779  LEU786  VAL792 
 PHE793  MET794  SER795  GLU796  ALA797  LYS798  CYS799  TRP800  GLU811  SER814 

> <Gold.Protein.RotatedAtoms>
  151.5480  133.3422  159.2947 H   0  0  0  0  0  0  0  0  0  0  0  0  # atno 6907 bound_to 6896
  150.8496  134.7818  159.7009 H   0  0  0  0  0  0  0  0  0  0  0  0  # atno 6908 bound_to 6896
  152.4545  134.5329  159.9868 H   0  0  0  0  0  0  0  0  0  0  0  0  # atno 6909 bound_to 6896
  145.9515  139.3977  143.0303 H   0  0  0  0  0  0  0  0  0  0  0  0  # atno 7974 bound_to 7965
  154.4268  140.1803  156.1335 H   0  0  0  0  0  0  0  0  0  0  0  0  # atno 8008 bound_to 7997
  156.0049  140.3356  155.6857 H   0  0  0  0  0  0  0  0  0  0  0  0  # atno 8009 bound_to 7997
  155.6192  140.0658  157.2674 H   0  0  0  0  0  0  0  0  0  0  0  0  # atno 8010 bound_to 7997
  140.7163  143.3471  151.2233 H   0  0  0  0  0  0  0  0  0  0  0  0  # atno 10167 bound_to 10162
  156.0402  130.4334  150.2313 H   0  0  0  0  0  0  0  0  0  0  0  0  # atno 10718 bound_to 10713
  154.3490  135.6140  153.5633 H   0  0  0  0  0  0  0  0  0  0  0  0  # atno 10763 bound_to 10752
  152.9799  135.5788  154.4765 H   0  0  0  0  0  0  0  0  0  0  0  0  # atno 10764 bound_to 10752
  154.4483  135.2852  155.1776 H   0  0  0  0  0  0  0  0  0  0  0  0  # atno 10765 bound_to 10752
  140.6449  134.4511  157.5234 H   0  0  0  0  0  0  0  0  0  0  0  0  # atno 11005 bound_to 11000
  145.8164  140.9701  143.0922 LP  0  0  0  0  0  0  0  0  0  0  0  0  # atno 17320 bound_to 7965
  144.6797  139.9986  143.7484 LP  0  0  0  0  0  0  0  0  0  0  0  0  # atno 17321 bound_to 7965
  139.6993  143.9559  152.2898 LP  0  0  0  0  0  0  0  0  0  0  0  0  # atno 17342 bound_to 10162
  139.9247  144.6778  150.8425 LP  0  0  0  0  0  0  0  0  0  0  0  0  # atno 17343 bound_to 10162
  157.0409  131.0035  151.3284 LP  0  0  0  0  0  0  0  0  0  0  0  0  # atno 17370 bound_to 10713
  157.5210  130.7998  149.7809 LP  0  0  0  0  0  0  0  0  0  0  0  0  # atno 17371 bound_to 10713
  139.9066  134.8435  156.1682 LP  0  0  0  0  0  0  0  0  0  0  0  0  # atno 17394 bound_to 11000
  141.0579  133.6856  156.1896 LP  0  0  0  0  0  0  0  0  0  0  0  0  # atno 17395 bound_to 11000

$$$$
