AV-unprocessed.smi:3036|AV-procd|sdf|11585|dock6
  -GOLD-   2272016563D 1   1.00000     0.00000
 Structure written by MMmdl.
 41 42  0  0  0  0  0  0  0  0  1 V2000
  145.9152  136.6135  150.6439 C   0  0  0  0  0  0  0  0  0  0  0  0
  145.2104  136.2985  151.9734 C   0  0  1  0  0  0  0  0  0  0  0  0
  144.1368  135.2065  151.7985 C   0  0  0  0  0  0  0  0  0  0  0  0
  144.6463  134.0444  151.0905 N   0  0  0  0  0  0  0  0  0  0  0  0
  143.9357  133.0282  150.4864 C   0  0  0  0  0  0  0  0  0  0  0  0
  144.8429  132.1700  149.9348 C   0  0  0  0  0  0  0  0  0  0  0  0
  146.0995  132.7531  150.2596 C   0  0  0  0  0  0  0  0  0  0  0  0
  145.9789  133.8740  150.9524 N   0  0  0  0  0  0  0  0  0  0  0  0
  146.1866  135.8380  152.9542 N   0  0  0  0  0  0  0  0  0  0  0  0
  146.1607  136.6240  154.1812 C   0  0  0  0  0  0  0  0  0  0  0  0
  147.5448  137.2376  154.4779 C   0  0  0  0  0  0  0  0  0  0  0  0
  147.5919  138.7800  154.4893 C   0  0  0  0  0  0  0  0  0  0  0  0
  146.5526  139.4114  154.6893 O   0  0  0  0  0  0  0  0  0  0  0  0
  148.7767  139.4013  154.2739 N   0  0  0  0  0  0  0  0  0  0  0  0
  150.0290  138.6770  154.0369 C   0  0  0  0  0  0  0  0  0  0  0  0
  150.9731  138.9363  155.2242 C   0  0  0  0  0  0  0  0  0  0  0  0
  151.1926  140.3379  155.3636 O   0  0  0  0  0  0  0  0  0  0  0  0
  149.9889  141.0737  155.5680 C   0  0  0  0  0  0  0  0  0  0  0  0
  149.0304  140.8416  154.3858 C   0  0  0  0  0  0  0  0  0  0  0  0
  145.1950  136.9346  149.8911 H   0  0  0  0  0  0  0  0  0  0  0  0
  146.4355  135.7392  150.2512 H   0  0  0  0  0  0  0  0  0  0  0  0
  146.6444  137.4164  150.7529 H   0  0  0  0  0  0  0  0  0  0  0  0
  144.7188  137.2006  152.3407 H   0  0  0  0  0  0  0  0  0  0  0  0
  143.7736  134.8768  152.7731 H   0  0  0  0  0  0  0  0  0  0  0  0
  143.2702  135.5939  151.2604 H   0  0  0  0  0  0  0  0  0  0  0  0
  142.8559  133.0058  150.4929 H   0  0  0  0  0  0  0  0  0  0  0  0
  144.6398  131.2658  149.3807 H   0  0  0  0  0  0  0  0  0  0  0  0
  147.0893  132.3979  150.0132 H   0  0  0  0  0  0  0  0  0  0  0  0
  147.1138  135.8226  152.5544 H   0  0  0  0  0  0  0  0  0  0  0  0
  145.4199  137.4182  154.0906 H   0  0  0  0  0  0  0  0  0  0  0  0
  145.8535  135.9957  155.0185 H   0  0  0  0  0  0  0  0  0  0  0  0
  147.8868  136.8621  155.4430 H   0  0  0  0  0  0  0  0  0  0  0  0
  148.2535  136.8827  153.7287 H   0  0  0  0  0  0  0  0  0  0  0  0
  149.8833  137.6040  153.9081 H   0  0  0  0  0  0  0  0  0  0  0  0
  150.4826  139.0324  153.1107 H   0  0  0  0  0  0  0  0  0  0  0  0
  150.5573  138.5296  156.1476 H   0  0  0  0  0  0  0  0  0  0  0  0
  151.9314  138.4433  155.0599 H   0  0  0  0  0  0  0  0  0  0  0  0
  149.5243  140.7753  156.5093 H   0  0  0  0  0  0  0  0  0  0  0  0
  150.2334  142.1326  155.6539 H   0  0  0  0  0  0  0  0  0  0  0  0
  149.4840  141.1991  153.4604 H   0  0  0  0  0  0  0  0  0  0  0  0
  148.1330  141.4404  154.5286 H   0  0  0  0  0  0  0  0  0  0  0  0
  1  2  1  0  0  0  0
  1 20  1  0  0  0  0
  1 21  1  0  0  0  0
  1 22  1  0  0  0  0
  2  3  1  0  0  0  0
  2  9  1  0  0  0  0
  2 23  1  0  0  0  0
  3  4  1  0  0  0  0
  3 24  1  0  0  0  0
  3 25  1  0  0  0  0
  4  8  1  0  0  0  0
  4  5  1  0  0  0  0
  5  6  2  0  0  0  0
  5 26  1  0  0  0  0
  6  7  1  0  0  0  0
  6 27  1  0  0  0  0
  7  8  2  0  0  0  0
  7 28  1  0  0  0  0
  9 10  1  0  0  0  0
  9 29  1  0  0  0  0
 10 11  1  0  0  0  0
 10 30  1  0  0  0  0
 10 31  1  0  0  0  0
 11 12  1  0  0  0  0
 11 32  1  0  0  0  0
 11 33  1  0  0  0  0
 12 13  2  0  0  0  0
 12 14  1  0  0  0  0
 14 19  1  0  0  0  0
 14 15  1  0  0  0  0
 15 16  1  0  0  0  0
 15 34  1  0  0  0  0
 15 35  1  0  0  0  0
 16 17  1  0  0  0  0
 16 36  1  0  0  0  0
 16 37  1  0  0  0  0
 17 18  1  0  0  0  0
 18 19  1  0  0  0  0
 18 38  1  0  0  0  0
 18 39  1  0  0  0  0
 19 40  1  0  0  0  0
 19 41  1  0  0  0  0
M  END
> <s_m_source_file>
AV-unprocessed.smi

> <i_m_source_file_index>
3036

> <i_lp_mmshare_version>
43012

> <i_f3d_flags>
0

> <s_epik_input>
bjFbY0hdW2NIXVtjSF1uMVtDSDJdW0NAQEhdKFtDSDNdKVtOSF1bQ0gyXVtDSDJdQyg9TylOMltDSDJdW0NIMl1PW0NIMl1bQ0gyXTI=

> <s_epik_cmdline>
J2VwaWtfcHl0aG9uJywgJy1waCcsICc3LjAnLCAnLXRuJywgJzgnLCAnLW1hJywgJzIwMCcsICctbWV0YWxfYmluZGluZycsICctaW1hZScsICc8aW5maWxlLm1hZT4nLCAnLW9tYWUnLCAnPG91dGZpbGUubWFlPic=

> <r_lp_tautomer_probability>
1

> <r_epik_Ionization_Penalty>
2.55703

> <r_epik_Ionization_Penalty_Charging>
0

> <r_epik_Ionization_Penalty_Neutral>
2.55703

> <r_epik_State_Penalty>
2.726

> <r_epik_Charging_Adjusted_Penalty>
2.726

> <i_epik_Tot_Q>
0

> <i_epik_Tot_abs_Q>
0

> <r_epik_Metal_State_Penalty>
2.72597

> <b_epik_Metal_Only>
0

> <s_lp_Force_Field>
OPLS_2005

> <r_lp_Energy>
21.9246

> <b_lp_Chiralities_Consistent>
1

> <s_lp_Variant>
AV-unprocessed.smi:3036-4

> <Gold.Version>
5.8.1

> <Gold.Id.Protein>
6NUR|6NUR_protein|mol2

> <Gold.PLP.Fitness>
40.2318

> <Gold.PLP.PLP>
-32.3248

> <Gold.PLP.part.hbond>
-2.0000

> <Gold.PLP.part.metal>
0.0000

> <Gold.PLP.part.buried>
-2.0554

> <Gold.PLP.part.nonpolar>
-29.8453

> <Gold.PLP.part.repulsive>
0.2870

> <Gold.PLP.ligand.clash>
0.0000

> <Gold.PLP.ligand.torsion>
2.0752

> <Gold.PLP.Chemscore.Hbond>
1.9920

> <Gold.PLP.Chemscore.CHOScore>
2.0000

> <Gold.PLP.Chemscore.Metal>
0.0000

> <Gold.Chemscore.Hbonds>
donor molecule, donor type, donor heavy atom, donor atom, acceptor molecule, acceptor atom, score
      L1  H     9    29       P1  7948  1.00
      P1  H  7989  7998       L1    17  0.99
      L1  C     5    26       P1 10186  1.00
      L1  C     7    28       P1 10747  1.00

> <Gold.PLP.Chemscore.Internal.Correction>
0.0815

> <Gold.Rescore>
     Score         DG    S(hbond)    S(metal)    S(lipo)     H(rot)  DE(clash)    DE(int)     intcor
      9.82     -14.00       1.17        0.00      82.92       1.99       0.76       3.41       ----

> <Gold.Chemscore.Fitness>
9.8239

> <Gold.Chemscore.DG>
-13.9995

> <Gold.Chemscore.ZeroCoef>
-5.4800

> <Gold.Chemscore.Hbond>
1.1712

> <Gold.Chemscore.Metal>
0.0000

> <Gold.Chemscore.Lipo>
82.9240

> <Gold.Chemscore.Internal_Hbond>
0.0000

> <Gold.Chemscore.DEClash>
0.7623

> <Gold.Chemscore.DEInternal>
3.4133

> <Gold.Chemscore.Rot>
1.9900

> <Gold.Chemscore.Internal.Correction>
   9.000000E+99

> <Gold.Chemscore.Hbonds>
donor molecule, donor type, donor heavy atom, donor atom, acceptor molecule, acceptor atom, score
      L1  H     9    29       P1  7948  0.97
      P1  H  7989  7998       L1    17  0.10

> <Gold.Chemscore.Hbond.Weighted>
-3.9118

> <Gold.Chemscore.Metal.Weighted>
-0.0000

> <Gold.Chemscore.Lipo.Weighted>
-9.7021

> <Gold.Chemscore.Internal_Hbond.Weighted>
0.0000

> <Gold.Chemscore.DEClash.Weighted>
0.7623

> <Gold.Chemscore.DEInternal.Weighted>
3.4133

> <Gold.Chemscore.Rot.Weighted>
5.0944

> <Gold.Chemscore.Internal.Correction.Weighted>
   9.000000E+99

> <Gold.Protein.RotatedTorsions>
[ 6907 6896 6895 6894 ] final   73.36 input  -60.11 | X-H torsion
[ 7974 7965 7964 7962 ] final   90.22 input  175.53 | X-H torsion
[ 8008 7997 7996 7995 ] final  -79.85 input   59.86 | X-H torsion
[ 10167 10162 10161 10158 ] final -173.37 input  -65.29 | X-H torsion
[ 10718 10713 10712 10709 ] final -165.79 input   66.30 | X-H torsion
[ 10763 10752 10751 10750 ] final  164.27 input  -60.55 | X-H torsion
[ 11005 11000 10999 10996 ] final   35.35 input  -57.11 | X-H torsion

> <Gold.Protein.ActiveResidues>
 VAL166  LYS551  ARG553  GLY616  TRP617  ASP618  TYR619  PRO620  LYS621  CYS622 
 ASP623  PHE694  ASN695  SER759  ASP760  ASP761  ALA762  ILE779  LEU786  VAL792 
 PHE793  MET794  SER795  GLU796  ALA797  LYS798  CYS799  TRP800  GLU811  SER814 

> <Gold.Protein.RotatedAtoms>
  152.4919  134.4433  159.9550 H   0  0  0  0  0  0  0  0  0  0  0  0  # atno 6907 bound_to 6896
  151.4419  133.3635  159.2791 H   0  0  0  0  0  0  0  0  0  0  0  0  # atno 6908 bound_to 6896
  150.9082  134.8521  159.7467 H   0  0  0  0  0  0  0  0  0  0  0  0  # atno 6909 bound_to 6896
  145.5219  139.2279  143.2667 H   0  0  0  0  0  0  0  0  0  0  0  0  # atno 7974 bound_to 7965
  154.5826  140.0672  156.9125 H   0  0  0  0  0  0  0  0  0  0  0  0  # atno 8008 bound_to 7997
  155.2436  140.3346  155.4271 H   0  0  0  0  0  0  0  0  0  0  0  0  # atno 8009 bound_to 7997
  156.2200  140.1794  156.7485 H   0  0  0  0  0  0  0  0  0  0  0  0  # atno 8010 bound_to 7997
  139.5692  144.1682  152.1358 H   0  0  0  0  0  0  0  0  0  0  0  0  # atno 10167 bound_to 10162
  156.6584  130.9036  151.3025 H   0  0  0  0  0  0  0  0  0  0  0  0  # atno 10718 bound_to 10713
  154.3063  135.2758  155.2587 H   0  0  0  0  0  0  0  0  0  0  0  0  # atno 10763 bound_to 10752
  154.5002  135.5810  153.6528 H   0  0  0  0  0  0  0  0  0  0  0  0  # atno 10764 bound_to 10752
  152.9894  135.6156  154.3237 H   0  0  0  0  0  0  0  0  0  0  0  0  # atno 10765 bound_to 10752
  140.2435  134.3387  155.7916 H   0  0  0  0  0  0  0  0  0  0  0  0  # atno 11005 bound_to 11000
  146.2100  140.6031  142.9063 LP  0  0  0  0  0  0  0  0  0  0  0  0  # atno 17320 bound_to 7965
  144.7672  140.5556  143.6695 LP  0  0  0  0  0  0  0  0  0  0  0  0  # atno 17321 bound_to 7965
  140.1211  144.5372  150.6862 LP  0  0  0  0  0  0  0  0  0  0  0  0  # atno 17342 bound_to 10162
  140.6976  143.2414  151.4956 LP  0  0  0  0  0  0  0  0  0  0  0  0  # atno 17343 bound_to 10162
  157.7118  130.9449  150.1114 LP  0  0  0  0  0  0  0  0  0  0  0  0  # atno 17370 bound_to 10713
  156.2030  130.3661  149.8765 LP  0  0  0  0  0  0  0  0  0  0  0  0  # atno 17371 bound_to 10713
  141.2208  133.7312  156.8923 LP  0  0  0  0  0  0  0  0  0  0  0  0  # atno 17394 bound_to 11000
  140.1629  134.9153  157.2738 LP  0  0  0  0  0  0  0  0  0  0  0  0  # atno 17395 bound_to 11000

$$$$
