AV-unprocessed.smi:672|AV-procd|sdf|3296|dock7
  -GOLD-   22720 0253D 1   1.00000     0.00000
 Structure written by MMmdl.
 35 36  0  0  0  0  0  0  0  0  2 V2000
  146.8715  134.0802  162.4600 C   0  0  0  0  0  0  0  0  0  0  0  0
  147.0807  135.5976  162.4128 C   0  0  0  0  0  0  0  0  0  0  0  0
  147.8385  136.0338  161.2038 C   0  0  0  0  0  0  0  0  0  0  0  0
  148.1764  137.3066  160.9801 N   0  0  0  0  0  0  0  0  0  0  0  0
  148.8495  137.4654  159.7776 N   0  0  0  0  0  0  0  0  0  0  0  0
  148.9892  136.3180  159.0983 C   0  0  0  0  0  0  0  0  0  0  0  0
  149.6093  136.2546  157.9087 N   0  5  0  0  0  0  0  0  0  0  0  0
  150.6925  137.0288  157.6712 C   0  0  0  0  0  0  0  0  0  0  0  0
  151.8627  136.7527  157.9453 O   0  0  0  0  0  0  0  0  0  0  0  0
  150.4012  138.1999  157.0870 N   0  0  0  0  0  0  0  0  0  0  0  0
  151.3618  139.2398  156.7232 C   0  0  1  0  0  0  0  0  0  0  0  0
  150.6678  140.3764  155.9472 C   0  0  0  0  0  0  0  0  0  0  0  0
  151.0614  141.6775  156.6511 C   0  0  0  0  0  0  0  0  0  0  0  0
  151.3132  141.2650  158.0992 C   0  0  2  0  0  0  0  0  0  0  0  0
  152.3171  142.4761  159.0064 S   0  0  0  0  0  0  0  0  0  0  0  0
  151.8039  144.0031  158.1753 C   0  0  0  0  0  0  0  0  0  0  0  0
  151.9857  139.8965  157.9707 C   0  0  0  0  0  0  0  0  0  0  0  0
  148.3014  134.9217  159.9267 S   0  0  0  0  0  0  0  0  0  0  0  0
  146.3191  133.7915  163.3542 H   0  0  0  0  0  0  0  0  0  0  0  0
  147.8260  133.5532  162.4728 H   0  0  0  0  0  0  0  0  0  0  0  0
  146.3090  133.7329  161.5929 H   0  0  0  0  0  0  0  0  0  0  0  0
  146.1168  136.1073  162.4282 H   0  0  0  0  0  0  0  0  0  0  0  0
  147.6215  135.9253  163.3010 H   0  0  0  0  0  0  0  0  0  0  0  0
  149.4305  138.3835  156.8801 H   0  0  0  0  0  0  0  0  0  0  0  0
  152.1488  138.8022  156.1061 H   0  0  0  0  0  0  0  0  0  0  0  0
  150.9507  140.3855  154.8942 H   0  0  0  0  0  0  0  0  0  0  0  0
  149.5829  140.2642  155.9854 H   0  0  0  0  0  0  0  0  0  0  0  0
  151.9801  142.0658  156.2091 H   0  0  0  0  0  0  0  0  0  0  0  0
  150.2966  142.4495  156.5612 H   0  0  0  0  0  0  0  0  0  0  0  0
  150.3534  141.1499  158.6051 H   0  0  0  0  0  0  0  0  0  0  0  0
  152.3518  144.8530  158.5820 H   0  0  0  0  0  0  0  0  0  0  0  0
  150.7384  144.1808  158.3203 H   0  0  0  0  0  0  0  0  0  0  0  0
  152.0052  143.9416  157.1058 H   0  0  0  0  0  0  0  0  0  0  0  0
  151.8765  139.2985  158.8764 H   0  0  0  0  0  0  0  0  0  0  0  0
  153.0555  140.0277  157.8025 H   0  0  0  0  0  0  0  0  0  0  0  0
  1  2  1  0  0  0  0
  1 19  1  0  0  0  0
  1 20  1  0  0  0  0
  1 21  1  0  0  0  0
  2  3  1  0  0  0  0
  2 22  1  0  0  0  0
  2 23  1  0  0  0  0
  3 18  1  0  0  0  0
  3  4  2  0  0  0  0
  4  5  1  0  0  0  0
  5  6  2  0  0  0  0
  6  7  1  0  0  0  0
  6 18  1  0  0  0  0
  7  8  1  0  0  0  0
  8  9  2  0  0  0  0
  8 10  1  0  0  0  0
 10 11  1  0  0  0  0
 10 24  1  0  0  0  0
 11 17  1  0  0  0  0
 11 12  1  0  0  0  0
 11 25  1  0  0  0  0
 12 13  1  0  0  0  0
 12 26  1  0  0  0  0
 12 27  1  0  0  0  0
 13 14  1  0  0  0  0
 13 28  1  0  0  0  0
 13 29  1  0  0  0  0
 14 15  1  0  0  0  0
 14 17  1  0  0  0  0
 14 30  1  0  0  0  0
 15 16  1  0  0  0  0
 16 31  1  0  0  0  0
 16 32  1  0  0  0  0
 16 33  1  0  0  0  0
 17 34  1  0  0  0  0
 17 35  1  0  0  0  0
M  CHG  1   7  -1
M  END
> <s_m_source_file>
AV-unprocessed.smi

> <i_m_source_file_index>
672

> <i_lp_mmshare_version>
43012

> <i_f3d_flags>
0

> <s_epik_input>
W0NIM11bQ0gyXWMxbm5jKHMxKVtOSF1DKD1PKVtOSF1bQ0BASF0yW0NIMl1bQ0gyXVtDQEhdKFtDSDJdMilTW0NIM10=

> <s_epik_cmdline>
J2VwaWtfcHl0aG9uJywgJy1waCcsICc3LjAnLCAnLXRuJywgJzgnLCAnLW1hJywgJzIwMCcsICctbWV0YWxfYmluZGluZycsICctaW1hZScsICc8aW5maWxlLm1hZT4nLCAnLW9tYWUnLCAnPG91dGZpbGUubWFlPic=

> <r_lp_tautomer_probability>
1

> <r_epik_Ionization_Penalty>
4.49964

> <r_epik_Ionization_Penalty_Charging>
4.32991

> <r_epik_Ionization_Penalty_Neutral>
0.169727

> <r_epik_State_Penalty>
4.32952

> <r_epik_Charging_Adjusted_Penalty>
8.65943

> <i_epik_Tot_Q>
-1

> <i_epik_Tot_abs_Q>
1

> <r_epik_Metal_State_Penalty>
0.740482

> <b_epik_Metal_Only>
1

> <s_lp_Force_Field>
OPLS_2005

> <r_lp_Energy>
9.75318

> <b_lp_Chiralities_Consistent>
1

> <s_lp_Variant>
AV-unprocessed.smi:672-8

> <Gold.Version>
5.8.1

> <Gold.Id.Protein>
6NUR|6NUR_protein|mol2

> <Gold.PLP.Fitness>
35.9586

> <Gold.PLP.PLP>
-34.6242

> <Gold.PLP.part.hbond>
-3.5999

> <Gold.PLP.part.metal>
0.0000

> <Gold.PLP.part.buried>
-2.5836

> <Gold.PLP.part.nonpolar>
-28.2825

> <Gold.PLP.part.repulsive>
0.0000

> <Gold.PLP.ligand.clash>
0.0000

> <Gold.PLP.ligand.torsion>
1.4649

> <Gold.PLP.Chemscore.Hbond>
1.4144

> <Gold.PLP.Chemscore.CHOScore>
0.0000

> <Gold.PLP.Chemscore.Metal>
0.0000

> <Gold.Chemscore.Hbonds>
donor molecule, donor type, donor heavy atom, donor atom, acceptor molecule, acceptor atom, score
      P1  H  6931  6943       L1     4  0.90
      P1  H  6934  6947       L1     4  0.53

> <Gold.PLP.Chemscore.Internal.Correction>
0.0210

> <Gold.Rescore>
     Score         DG    S(hbond)    S(metal)    S(lipo)     H(rot)  DE(clash)    DE(int)     intcor
     13.36     -14.63       0.88        0.00      82.43       1.34       0.01       1.26       ----

> <Gold.Chemscore.Fitness>
13.3623

> <Gold.Chemscore.DG>
-14.6322

> <Gold.Chemscore.ZeroCoef>
-5.4800

> <Gold.Chemscore.Hbond>
0.8806

> <Gold.Chemscore.Metal>
0.0000

> <Gold.Chemscore.Lipo>
82.4259

> <Gold.Chemscore.Internal_Hbond>
0.0000

> <Gold.Chemscore.DEClash>
0.0115

> <Gold.Chemscore.DEInternal>
1.2584

> <Gold.Chemscore.Rot>
1.3410

> <Gold.Chemscore.Internal.Correction>
   9.000000E+99

> <Gold.Chemscore.Hbonds>
donor molecule, donor type, donor heavy atom, donor atom, acceptor molecule, acceptor atom, score
      P1  H  6931  6943       L1     4  0.22
      P1  H  6934  6947       L1     4  0.09

> <Gold.Chemscore.Hbond.Weighted>
-2.9414

> <Gold.Chemscore.Metal.Weighted>
-0.0000

> <Gold.Chemscore.Lipo.Weighted>
-9.6438

> <Gold.Chemscore.Internal_Hbond.Weighted>
0.0000

> <Gold.Chemscore.DEClash.Weighted>
0.0115

> <Gold.Chemscore.DEInternal.Weighted>
1.2584

> <Gold.Chemscore.Rot.Weighted>
3.4329

> <Gold.Chemscore.Internal.Correction.Weighted>
   9.000000E+99

> <Gold.Protein.RotatedTorsions>
[ 6907 6896 6895 6894 ] final   87.59 input  -60.11 | X-H torsion
[ 7974 7965 7964 7962 ] final -171.40 input  175.53 | X-H torsion
[ 8008 7997 7996 7995 ] final  -47.37 input   59.86 | X-H torsion
[ 10167 10162 10161 10158 ] final  141.41 input  -65.29 | X-H torsion
[ 10718 10713 10712 10709 ] final  103.76 input   66.30 | X-H torsion
[ 10763 10752 10751 10750 ] final  -77.27 input  -60.55 | X-H torsion
[ 11005 11000 10999 10996 ] final   37.67 input  -57.11 | X-H torsion

> <Gold.Protein.ActiveResidues>
 VAL166  LYS551  ARG553  GLY616  TRP617  ASP618  TYR619  PRO620  LYS621  CYS622 
 ASP623  PHE694  ASN695  SER759  ASP760  ASP761  ALA762  ILE779  LEU786  VAL792 
 PHE793  MET794  SER795  GLU796  ALA797  LYS798  CYS799  TRP800  GLU811  SER814 

> <Gold.Protein.RotatedAtoms>
  152.5413  134.2252  159.8803 H   0  0  0  0  0  0  0  0  0  0  0  0  # atno 6907 bound_to 6896
  151.2227  133.4487  159.2609 H   0  0  0  0  0  0  0  0  0  0  0  0  # atno 6908 bound_to 6896
  151.0790  134.9859  159.8402 H   0  0  0  0  0  0  0  0  0  0  0  0  # atno 6909 bound_to 6896
  144.7157  140.1928  143.6346 H   0  0  0  0  0  0  0  0  0  0  0  0  # atno 7974 bound_to 7965
  154.4016  140.1348  156.4164 H   0  0  0  0  0  0  0  0  0  0  0  0  # atno 8008 bound_to 7997
  155.7684  140.3484  155.5214 H   0  0  0  0  0  0  0  0  0  0  0  0  # atno 8009 bound_to 7997
  155.8790  140.0984  157.1488 H   0  0  0  0  0  0  0  0  0  0  0  0  # atno 8010 bound_to 7997
  139.5021  144.6173  151.6133 H   0  0  0  0  0  0  0  0  0  0  0  0  # atno 10167 bound_to 10162
  157.6762  131.0787  150.5603 H   0  0  0  0  0  0  0  0  0  0  0  0  # atno 10718 bound_to 10713
  154.5108  135.5769  153.6603 H   0  0  0  0  0  0  0  0  0  0  0  0  # atno 10763 bound_to 10752
  152.9897  135.6158  154.2881 H   0  0  0  0  0  0  0  0  0  0  0  0  # atno 10764 bound_to 10752
  154.2796  135.2851  155.2682 H   0  0  0  0  0  0  0  0  0  0  0  0  # atno 10765 bound_to 10752
  140.2202  134.3650  155.8008 H   0  0  0  0  0  0  0  0  0  0  0  0  # atno 11005 bound_to 11000
  145.8752  139.2293  143.1637 LP  0  0  0  0  0  0  0  0  0  0  0  0  # atno 17320 bound_to 7965
  146.0047  140.8489  143.0001 LP  0  0  0  0  0  0  0  0  0  0  0  0  # atno 17321 bound_to 7965
  140.5865  143.9855  150.6299 LP  0  0  0  0  0  0  0  0  0  0  0  0  # atno 17342 bound_to 10162
  140.3021  143.3253  152.0961 LP  0  0  0  0  0  0  0  0  0  0  0  0  # atno 17343 bound_to 10162
  156.5906  130.4328  149.5938 LP  0  0  0  0  0  0  0  0  0  0  0  0  # atno 17370 bound_to 10713
  156.2586  130.6949  151.1711 LP  0  0  0  0  0  0  0  0  0  0  0  0  # atno 17371 bound_to 10713
  141.2223  133.7189  156.8563 LP  0  0  0  0  0  0  0  0  0  0  0  0  # atno 17394 bound_to 11000
  140.1858  134.9001  157.3002 LP  0  0  0  0  0  0  0  0  0  0  0  0  # atno 17395 bound_to 11000

$$$$
