AV-unprocessed.smi:2442|AV-procd|sdf|9629|dock3
  -GOLD-   2272013263D 1   1.00000     0.00000
 Structure written by MMmdl.
 47 48  0  0  0  0  0  0  0  0  2 V2000
  148.0069  140.5290  154.3447 C   0  0  0  0  0  0  0  0  0  0  0  0
  148.6300  139.2558  154.2748 O   0  0  0  0  0  0  0  0  0  0  0  0
  148.9496  138.6831  155.5405 C   0  0  2  0  0  0  0  0  0  0  0  0
  149.6472  139.7145  156.4541 C   0  0  0  0  0  0  0  0  0  0  0  0
  151.0187  140.1341  155.8995 C   0  0  0  0  0  0  0  0  0  0  0  0
  151.9216  138.9136  155.6641 C   0  0  0  0  0  0  0  0  0  0  0  0
  151.2403  137.8837  154.7496 C   0  0  0  0  0  0  0  0  0  0  0  0
  149.8656  137.4615  155.3104 C   0  0  2  0  0  0  0  0  0  0  0  0
  149.2075  136.5007  154.4289 N   0  0  0  0  0  0  0  0  0  0  0  0
  148.6654  135.3391  154.8192 C   0  0  0  0  0  0  0  0  0  0  0  0
  148.6668  134.9317  155.9810 O   0  0  0  0  0  0  0  0  0  0  0  0
  148.1202  134.6727  153.7932 N   0  0  0  0  0  0  0  0  0  0  0  0
  147.4580  133.3808  153.9136 C   0  0  0  0  0  0  0  0  0  0  0  0
  147.3802  132.6785  152.5513 C   0  0  0  0  0  0  0  0  0  0  0  0
  146.1097  133.0378  151.7955 C   0  0  0  0  0  0  0  0  0  0  0  0
  145.8128  134.4000  151.5638 C   0  0  0  0  0  0  0  0  0  0  0  0
  144.6357  134.7478  150.8720 C   0  0  0  0  0  0  0  0  0  0  0  0
  143.8030  133.7788  150.4370 N   0  3  0  0  0  0  0  0  0  0  0  0
  144.0437  132.4650  150.6354 C   0  0  0  0  0  0  0  0  0  0  0  0
  145.2052  132.0502  151.3237 C   0  0  0  0  0  0  0  0  0  0  0  0
  145.4517  130.5675  151.5389 C   0  0  0  0  0  0  0  0  0  0  0  0
  147.7670  140.8699  153.3377 H   0  0  0  0  0  0  0  0  0  0  0  0
  148.6560  141.2768  154.7988 H   0  0  0  0  0  0  0  0  0  0  0  0
  147.0757  140.4828  154.9104 H   0  0  0  0  0  0  0  0  0  0  0  0
  148.0331  138.3362  156.0217 H   0  0  0  0  0  0  0  0  0  0  0  0
  149.0208  140.5929  156.6048 H   0  0  0  0  0  0  0  0  0  0  0  0
  149.7843  139.2767  157.4437 H   0  0  0  0  0  0  0  0  0  0  0  0
  150.8855  140.6776  154.9631 H   0  0  0  0  0  0  0  0  0  0  0  0
  151.5027  140.8248  156.5904 H   0  0  0  0  0  0  0  0  0  0  0  0
  152.8693  139.2300  155.2274 H   0  0  0  0  0  0  0  0  0  0  0  0
  152.1626  138.4482  156.6208 H   0  0  0  0  0  0  0  0  0  0  0  0
  151.1219  138.3053  153.7505 H   0  0  0  0  0  0  0  0  0  0  0  0
  151.8880  137.0131  154.6409 H   0  0  0  0  0  0  0  0  0  0  0  0
  150.0246  136.9839  156.2796 H   0  0  0  0  0  0  0  0  0  0  0  0
  149.1623  136.7456  153.4505 H   0  0  0  0  0  0  0  0  0  0  0  0
  148.1706  135.0836  152.8723 H   0  0  0  0  0  0  0  0  0  0  0  0
  148.0089  132.7677  154.6280 H   0  0  0  0  0  0  0  0  0  0  0  0
  146.4514  133.5149  154.3143 H   0  0  0  0  0  0  0  0  0  0  0  0
  148.2391  132.9652  151.9427 H   0  0  0  0  0  0  0  0  0  0  0  0
  147.4553  131.5982  152.6758 H   0  0  0  0  0  0  0  0  0  0  0  0
  146.4795  135.1739  151.9164 H   0  0  0  0  0  0  0  0  0  0  0  0
  144.3373  135.7635  150.6566 H   0  0  0  0  0  0  0  0  0  0  0  0
  143.2999  131.7887  150.2393 H   0  0  0  0  0  0  0  0  0  0  0  0
  144.5912  129.9753  151.2258 H   0  0  0  0  0  0  0  0  0  0  0  0
  145.6371  130.3539  152.5917 H   0  0  0  0  0  0  0  0  0  0  0  0
  146.3144  130.2371  150.9598 H   0  0  0  0  0  0  0  0  0  0  0  0
  142.9554  134.0503  149.9379 H   0  0  0  0  0  0  0  0  0  0  0  0
  1  2  1  0  0  0  0
  1 22  1  0  0  0  0
  1 23  1  0  0  0  0
  1 24  1  0  0  0  0
  2  3  1  0  0  0  0
  3  8  1  0  0  0  0
  3  4  1  0  0  0  0
  3 25  1  0  0  0  0
  4  5  1  0  0  0  0
  4 26  1  0  0  0  0
  4 27  1  0  0  0  0
  5  6  1  0  0  0  0
  5 28  1  0  0  0  0
  5 29  1  0  0  0  0
  6  7  1  0  0  0  0
  6 30  1  0  0  0  0
  6 31  1  0  0  0  0
  7  8  1  0  0  0  0
  7 32  1  0  0  0  0
  7 33  1  0  0  0  0
  8  9  1  0  0  0  0
  8 34  1  0  0  0  0
  9 10  1  0  0  0  0
  9 35  1  0  0  0  0
 10 11  2  0  0  0  0
 10 12  1  0  0  0  0
 12 13  1  0  0  0  0
 12 36  1  0  0  0  0
 13 14  1  0  0  0  0
 13 37  1  0  0  0  0
 13 38  1  0  0  0  0
 14 15  1  0  0  0  0
 14 39  1  0  0  0  0
 14 40  1  0  0  0  0
 15 20  1  0  0  0  0
 15 16  2  0  0  0  0
 16 17  1  0  0  0  0
 16 41  1  0  0  0  0
 17 18  2  0  0  0  0
 17 42  1  0  0  0  0
 18 19  1  0  0  0  0
 18 47  1  0  0  0  0
 19 20  2  0  0  0  0
 19 43  1  0  0  0  0
 20 21  1  0  0  0  0
 21 44  1  0  0  0  0
 21 45  1  0  0  0  0
 21 46  1  0  0  0  0
M  CHG  1  18   1
M  END
> <s_m_source_file>
AV-unprocessed.smi

> <i_m_source_file_index>
2442

> <i_lp_mmshare_version>
43012

> <i_f3d_flags>
0

> <s_epik_input>
W0NIM11PW0NAQEhdMVtDSDJdW0NIMl1bQ0gyXVtDSDJdW0NASF0xW05IXUMoPU8pW05IXVtDSDJdW0NIMl1jMltjSF1bY0hdbltjSF1jMltDSDNd

> <s_epik_cmdline>
J2VwaWtfcHl0aG9uJywgJy1waCcsICc3LjAnLCAnLXRuJywgJzgnLCAnLW1hJywgJzIwMCcsICctbWV0YWxfYmluZGluZycsICctaW1hZScsICc8aW5maWxlLm1hZT4nLCAnLW9tYWUnLCAnPG91dGZpbGUubWFlPic=

> <r_epik_Ionization_Penalty>
1.07145

> <r_epik_Ionization_Penalty_Charging>
1.0714

> <r_epik_Ionization_Penalty_Neutral>
4.9109e-05

> <r_epik_State_Penalty>
1.12601

> <r_epik_Charging_Adjusted_Penalty>
2.19741

> <i_epik_Tot_Q>
1

> <i_epik_Tot_abs_Q>
1

> <r_epik_Metal_State_Penalty>
1.2173

> <b_epik_Metal_Only>
0

> <s_lp_Force_Field>
OPLS_2005

> <r_lp_Energy>
16.8817

> <b_lp_Chiralities_Consistent>
1

> <s_lp_Variant>
AV-unprocessed.smi:2442-7

> <Gold.Version>
5.8.1

> <Gold.Id.Protein>
6NUR|6NUR_protein|mol2

> <Gold.PLP.Fitness>
46.3895

> <Gold.PLP.PLP>
-35.6174

> <Gold.PLP.part.hbond>
-2.9737

> <Gold.PLP.part.metal>
0.0000

> <Gold.PLP.part.buried>
-4.1233

> <Gold.PLP.part.nonpolar>
-29.4729

> <Gold.PLP.part.repulsive>
0.3594

> <Gold.PLP.ligand.clash>
0.0000

> <Gold.PLP.ligand.torsion>
0.5607

> <Gold.PLP.Chemscore.Hbond>
3.9360

> <Gold.PLP.Chemscore.CHOScore>
0.0000

> <Gold.PLP.Chemscore.Metal>
0.0000

> <Gold.Chemscore.Hbonds>
donor molecule, donor type, donor heavy atom, donor atom, acceptor molecule, acceptor atom, score
      L1  H     9    35       P1  7948  0.96
      L1  H    12    36       P1  7948  0.93
      L1  H    18    47       P1 10186  2.00

> <Gold.PLP.Chemscore.Internal.Correction>
0.0855

> <Gold.Rescore>
     Score         DG    S(hbond)    S(metal)    S(lipo)     H(rot)  DE(clash)    DE(int)     intcor
     19.70     -20.63       2.82        0.00      86.78       1.72       0.20       0.73       ----

> <Gold.Chemscore.Fitness>
19.7006

> <Gold.Chemscore.DG>
-20.6326

> <Gold.Chemscore.ZeroCoef>
-5.4800

> <Gold.Chemscore.Hbond>
2.8185

> <Gold.Chemscore.Metal>
0.0000

> <Gold.Chemscore.Lipo>
86.7801

> <Gold.Chemscore.Internal_Hbond>
0.0000

> <Gold.Chemscore.DEClash>
0.2047

> <Gold.Chemscore.DEInternal>
0.7272

> <Gold.Chemscore.Rot>
1.7244

> <Gold.Chemscore.Internal.Correction>
   9.000000E+99

> <Gold.Chemscore.Hbonds>
donor molecule, donor type, donor heavy atom, donor atom, acceptor molecule, acceptor atom, score
      L1  H     9    35       P1  7948  0.91
      L1  H    12    36       P1  7948  0.84
      L1  H    18    47       P1 10186  0.94

> <Gold.Chemscore.Hbond.Weighted>
-9.4138

> <Gold.Chemscore.Metal.Weighted>
-0.0000

> <Gold.Chemscore.Lipo.Weighted>
-10.1533

> <Gold.Chemscore.Internal_Hbond.Weighted>
0.0000

> <Gold.Chemscore.DEClash.Weighted>
0.2047

> <Gold.Chemscore.DEInternal.Weighted>
0.7272

> <Gold.Chemscore.Rot.Weighted>
4.4145

> <Gold.Chemscore.Internal.Correction.Weighted>
   9.000000E+99

> <Gold.Protein.RotatedTorsions>
[ 6907 6896 6895 6894 ] final -105.38 input  -60.11 | X-H torsion
[ 7974 7965 7964 7962 ] final  160.89 input  175.53 | X-H torsion
[ 8008 7997 7996 7995 ] final  130.49 input   59.86 | X-H torsion
[ 10167 10162 10161 10158 ] final  -56.91 input  -65.29 | X-H torsion
[ 10718 10713 10712 10709 ] final   34.23 input   66.30 | X-H torsion
[ 10763 10752 10751 10750 ] final -113.04 input  -60.55 | X-H torsion
[ 11005 11000 10999 10996 ] final   35.52 input  -57.11 | X-H torsion

> <Gold.Protein.ActiveResidues>
 VAL166  LYS551  ARG553  GLY616  TRP617  ASP618  TYR619  PRO620  LYS621  CYS622 
 ASP623  PHE694  ASN695  SER759  ASP760  ASP761  ALA762  ILE779  LEU786  VAL792 
 PHE793  MET794  SER795  GLU796  ALA797  LYS798  CYS799  TRP800  GLU811  SER814 

> <Gold.Protein.RotatedAtoms>
  150.7334  134.0135  159.3677 H   0  0  0  0  0  0  0  0  0  0  0  0  # atno 6907 bound_to 6896
  151.8096  135.0682  160.0420 H   0  0  0  0  0  0  0  0  0  0  0  0  # atno 6908 bound_to 6896
  152.3082  133.5689  159.5699 H   0  0  0  0  0  0  0  0  0  0  0  0  # atno 6909 bound_to 6896
  144.7713  139.7821  143.6296 H   0  0  0  0  0  0  0  0  0  0  0  0  # atno 7974 bound_to 7965
  156.2955  140.2594  156.2771 H   0  0  0  0  0  0  0  0  0  0  0  0  # atno 8008 bound_to 7997
  154.9638  140.0392  157.2221 H   0  0  0  0  0  0  0  0  0  0  0  0  # atno 8009 bound_to 7997
  154.7922  140.2814  155.5988 H   0  0  0  0  0  0  0  0  0  0  0  0  # atno 8010 bound_to 7997
  140.6289  143.2450  151.5292 H   0  0  0  0  0  0  0  0  0  0  0  0  # atno 10167 bound_to 10162
  157.3078  130.7383  149.6706 H   0  0  0  0  0  0  0  0  0  0  0  0  # atno 10718 bound_to 10713
  154.8378  135.4468  154.1288 H   0  0  0  0  0  0  0  0  0  0  0  0  # atno 10763 bound_to 10752
  153.2504  135.6926  153.7692 H   0  0  0  0  0  0  0  0  0  0  0  0  # atno 10764 bound_to 10752
  153.7006  135.3372  155.3199 H   0  0  0  0  0  0  0  0  0  0  0  0  # atno 10765 bound_to 10752
  140.2418  134.3405  155.7922 H   0  0  0  0  0  0  0  0  0  0  0  0  # atno 11005 bound_to 11000
  146.1862  139.5078  142.9835 LP  0  0  0  0  0  0  0  0  0  0  0  0  # atno 17320 bound_to 7965
  145.6315  141.0303  143.1861 LP  0  0  0  0  0  0  0  0  0  0  0  0  # atno 17321 bound_to 7965
  139.5505  144.2407  152.1522 LP  0  0  0  0  0  0  0  0  0  0  0  0  # atno 17342 bound_to 10162
  140.1645  144.4994  150.6614 LP  0  0  0  0  0  0  0  0  0  0  0  0  # atno 17343 bound_to 10162
  155.9675  130.4260  150.4681 LP  0  0  0  0  0  0  0  0  0  0  0  0  # atno 17370 bound_to 10713
  157.2674  131.0580  151.2282 LP  0  0  0  0  0  0  0  0  0  0  0  0  # atno 17371 bound_to 10713
  141.2210  133.7303  156.8898 LP  0  0  0  0  0  0  0  0  0  0  0  0  # atno 17394 bound_to 11000
  140.1645  134.9142  157.2757 LP  0  0  0  0  0  0  0  0  0  0  0  0  # atno 17395 bound_to 11000

$$$$
