AV-unprocessed.smi:110|AV-procd|sdf|1074|dock6
  -GOLD-   2262018163D 1   1.00000     0.00000
 Structure written by MMmdl.
 46 50  0  0  0  0  0  0  0  0  1 V2000
  144.4440  142.5916  155.7254 O   0  0  0  0  0  0  0  0  0  0  0  0
  145.5263  142.6856  154.8243 C   0  0  0  0  0  0  0  0  0  0  0  0
  146.2104  141.3172  154.6758 C   0  0  2  0  0  0  0  0  0  0  0  0
  146.9273  141.0527  155.8800 O   0  0  0  0  0  0  0  0  0  0  0  0
  148.1568  140.4852  155.5775 C   0  0  2  0  0  0  0  0  0  0  0  0
  149.1032  140.7611  156.6987 N   0  0  0  0  0  0  0  0  0  0  0  0
  148.8851  141.4549  157.8682 C   0  0  0  0  0  0  0  0  0  0  0  0
  149.9164  141.5363  158.6648 N   0  0  0  0  0  0  0  0  0  0  0  0
  150.9242  140.8490  157.9959 C   0  0  0  0  0  0  0  0  0  0  0  0
  152.2864  140.5419  158.2822 C   0  0  0  0  0  0  0  0  0  0  0  0
  152.9302  140.9539  159.4049 N   0  0  0  0  0  0  0  0  0  0  0  0
  153.8088  140.0128  160.1165 C   0  0  0  0  0  0  0  0  0  0  0  0
  153.9680  140.5128  161.5631 C   0  0  0  0  0  0  0  0  0  0  0  0
  153.2298  141.8086  161.4969 C   0  0  0  0  0  0  0  0  0  0  0  0
  153.0946  142.7604  162.5224 C   0  0  0  0  0  0  0  0  0  0  0  0
  152.3618  143.9344  162.2482 C   0  0  0  0  0  0  0  0  0  0  0  0
  151.7905  144.1365  160.9708 C   0  0  0  0  0  0  0  0  0  0  0  0
  151.9396  143.1659  159.9557 C   0  0  0  0  0  0  0  0  0  0  0  0
  152.6616  141.9862  160.2384 C   0  0  0  0  0  0  0  0  0  0  0  0
  152.9674  139.8204  157.3541 N   0  0  0  0  0  0  0  0  0  0  0  0
  152.3665  139.4212  156.2297 C   0  0  0  0  0  0  0  0  0  0  0  0
  151.1101  139.6331  155.8351 N   0  0  0  0  0  0  0  0  0  0  0  0
  150.4172  140.3571  156.7599 C   0  0  0  0  0  0  0  0  0  0  0  0
  148.5990  141.1226  154.2594 C   0  0  2  0  0  0  0  0  0  0  0  0
  149.2426  142.3722  154.4345 O   0  0  0  0  0  0  0  0  0  0  0  0
  147.2640  141.2920  153.5456 C   0  0  1  0  0  0  0  0  0  0  0  0
  147.0273  140.1770  152.7075 O   0  0  0  0  0  0  0  0  0  0  0  0
  145.4641  140.5358  154.5192 H   0  0  0  0  0  0  0  0  0  0  0  0
  148.0655  139.3992  155.5245 H   0  0  0  0  0  0  0  0  0  0  0  0
  149.2851  140.4550  153.7361 H   0  0  0  0  0  0  0  0  0  0  0  0
  147.2425  142.1885  152.9242 H   0  0  0  0  0  0  0  0  0  0  0  0
  143.9317  143.3835  155.6645 H   0  0  0  0  0  0  0  0  0  0  0  0
  145.1207  143.0113  153.8662 H   0  0  0  0  0  0  0  0  0  0  0  0
  146.2317  143.4488  155.1550 H   0  0  0  0  0  0  0  0  0  0  0  0
  147.9334  141.9030  158.1143 H   0  0  0  0  0  0  0  0  0  0  0  0
  153.4004  139.0014  160.0965 H   0  0  0  0  0  0  0  0  0  0  0  0
  154.7809  139.9911  159.6232 H   0  0  0  0  0  0  0  0  0  0  0  0
  153.4948  139.8431  162.2818 H   0  0  0  0  0  0  0  0  0  0  0  0
  155.0125  140.6627  161.8379 H   0  0  0  0  0  0  0  0  0  0  0  0
  153.5422  142.5999  163.4922 H   0  0  0  0  0  0  0  0  0  0  0  0
  152.2425  144.6850  163.0156 H   0  0  0  0  0  0  0  0  0  0  0  0
  151.2395  145.0429  160.7680 H   0  0  0  0  0  0  0  0  0  0  0  0
  151.5115  143.3414  158.9801 H   0  0  0  0  0  0  0  0  0  0  0  0
  152.9815  138.8522  155.5483 H   0  0  0  0  0  0  0  0  0  0  0  0
  148.8281  142.8229  155.1542 H   0  0  0  0  0  0  0  0  0  0  0  0
  147.7577  140.0864  152.1144 H   0  0  0  0  0  0  0  0  0  0  0  0
  1  2  1  0  0  0  0
  1 32  1  0  0  0  0
  2  3  1  0  0  0  0
  2 33  1  0  0  0  0
  2 34  1  0  0  0  0
  3 28  1  0  0  0  0
  3 26  1  0  0  0  0
  3  4  1  0  0  0  0
  4  5  1  0  0  0  0
  5 29  1  0  0  0  0
  5  6  1  0  0  0  0
  5 24  1  0  0  0  0
  6 23  1  0  0  0  0
  6  7  1  0  0  0  0
  7  8  2  0  0  0  0
  7 35  1  0  0  0  0
  8  9  1  0  0  0  0
  9 23  2  0  0  0  0
  9 10  1  0  0  0  0
 10 11  1  0  0  0  0
 10 20  2  0  0  0  0
 11 19  1  0  0  0  0
 11 12  1  0  0  0  0
 12 13  1  0  0  0  0
 12 36  1  0  0  0  0
 12 37  1  0  0  0  0
 13 14  1  0  0  0  0
 13 38  1  0  0  0  0
 13 39  1  0  0  0  0
 14 19  2  0  0  0  0
 14 15  1  0  0  0  0
 15 16  2  0  0  0  0
 15 40  1  0  0  0  0
 16 17  1  0  0  0  0
 16 41  1  0  0  0  0
 17 18  2  0  0  0  0
 17 42  1  0  0  0  0
 18 19  1  0  0  0  0
 18 43  1  0  0  0  0
 20 21  1  0  0  0  0
 21 22  2  0  0  0  0
 21 44  1  0  0  0  0
 22 23  1  0  0  0  0
 24 30  1  0  0  0  0
 24 25  1  0  0  0  0
 24 26  1  0  0  0  0
 25 45  1  0  0  0  0
 26 31  1  0  0  0  0
 26 27  1  0  0  0  0
 27 46  1  0  0  0  0
M  END
> <s_m_source_file>
AV-unprocessed.smi

> <i_m_source_file_index>
110

> <i_lp_mmshare_version>
43012

> <i_f3d_flags>
0

> <s_epik_input>
W09IXVtDSDJdW0NASF0xT1tDQEhdKFtDQEhdKFtPSF0pW0NAQEhdMVtPSF0pbihbY0hdbjIpYyhjMjMpbltjSF1uYzNOKFtDSDJdW0NIMl00KWMoYzQ1KVtjSF1bY0hdW2NIXVtjSF01

> <s_epik_cmdline>
J2VwaWtfcHl0aG9uJywgJy1waCcsICc3LjAnLCAnLXRuJywgJzgnLCAnLW1hJywgJzIwMCcsICctbWV0YWxfYmluZGluZycsICctaW1hZScsICc8aW5maWxlLm1hZT4nLCAnLW9tYWUnLCAnPG91dGZpbGUubWFlPic=

> <r_lp_tautomer_probability>
1

> <r_epik_Ionization_Penalty>
0.00068475

> <r_epik_Ionization_Penalty_Charging>
0

> <r_epik_Ionization_Penalty_Neutral>
0.00068475

> <r_epik_State_Penalty>
0.000417442

> <r_epik_Charging_Adjusted_Penalty>
0.000417442

> <i_epik_Tot_Q>
0

> <i_epik_Tot_abs_Q>
0

> <r_epik_Metal_State_Penalty>
-0

> <b_epik_Metal_Only>
0

> <s_epik_Chemistry_Notes>
This compound contains an acetal/aminal-like group ( X-CH(R)-Y where X, Y are N, S, or O) that may be acid/base labile, releasing an aldehyde.

> <s_lp_Force_Field>
OPLS_2005

> <r_lp_Energy>
59.3181

> <b_lp_Chiralities_Consistent>
1

> <s_lp_Variant>
AV-unprocessed.smi:110-12

> <Gold.Version>
5.8.1

> <Gold.Id.Protein>
6NUR|6NUR_protein|mol2

> <Gold.PLP.Fitness>
60.6404

> <Gold.PLP.PLP>
-52.9275

> <Gold.PLP.part.hbond>
-4.8117

> <Gold.PLP.part.metal>
0.0000

> <Gold.PLP.part.buried>
-4.2825

> <Gold.PLP.part.nonpolar>
-42.9302

> <Gold.PLP.part.repulsive>
0.0904

> <Gold.PLP.ligand.clash>
0.0000

> <Gold.PLP.ligand.torsion>
0.5342

> <Gold.PLP.Chemscore.Hbond>
2.8906

> <Gold.PLP.Chemscore.CHOScore>
0.0000

> <Gold.PLP.Chemscore.Metal>
0.0000

> <Gold.Chemscore.Hbonds>
donor molecule, donor type, donor heavy atom, donor atom, acceptor molecule, acceptor atom, score
      L1  H    25    45       P1  8028  0.59
      L1  H    27    46       P1  7957  0.93
      P1  H  7997  8008       L1    20  1.00
      P1  H  8011  8017       L1    25  0.07

> <Gold.PLP.Chemscore.Internal.Correction>
0.1095

> <Gold.Rescore>
     Score         DG    S(hbond)    S(metal)    S(lipo)     H(rot)  DE(clash)    DE(int)     intcor
     14.67     -16.48       2.00        0.00     110.99       3.38       0.97       0.84       ----

> <Gold.Chemscore.Fitness>
14.6653

> <Gold.Chemscore.DG>
-16.4829

> <Gold.Chemscore.ZeroCoef>
-5.4800

> <Gold.Chemscore.Hbond>
1.9998

> <Gold.Chemscore.Metal>
0.0000

> <Gold.Chemscore.Lipo>
110.9897

> <Gold.Chemscore.Internal_Hbond>
0.0000

> <Gold.Chemscore.DEClash>
0.9732

> <Gold.Chemscore.DEInternal>
0.8444

> <Gold.Chemscore.Rot>
3.3837

> <Gold.Chemscore.Internal.Correction>
   9.000000E+99

> <Gold.Chemscore.Hbonds>
donor molecule, donor type, donor heavy atom, donor atom, acceptor molecule, acceptor atom, score
      L1  H    25    45       P1  8028  0.59
      L1  H    27    46       P1  7957  0.89
      P1  H  7997  8008       L1    20  0.48

> <Gold.Chemscore.Hbond.Weighted>
-6.6793

> <Gold.Chemscore.Metal.Weighted>
-0.0000

> <Gold.Chemscore.Lipo.Weighted>
-12.9858

> <Gold.Chemscore.Internal_Hbond.Weighted>
0.0000

> <Gold.Chemscore.DEClash.Weighted>
0.9732

> <Gold.Chemscore.DEInternal.Weighted>
0.8444

> <Gold.Chemscore.Rot.Weighted>
8.6622

> <Gold.Chemscore.Internal.Correction.Weighted>
   9.000000E+99

> <Gold.Protein.RotatedTorsions>
[ 6907 6896 6895 6894 ] final   65.43 input  -60.11 | X-H torsion
[ 7974 7965 7964 7962 ] final -146.82 input  175.53 | X-H torsion
[ 8008 7997 7996 7995 ] final  -81.45 input   59.86 | X-H torsion
[ 10167 10162 10161 10158 ] final -149.67 input  -65.29 | X-H torsion
[ 10718 10713 10712 10709 ] final -123.51 input   66.30 | X-H torsion
[ 10763 10752 10751 10750 ] final   76.25 input  -60.55 | X-H torsion
[ 11005 11000 10999 10996 ] final   14.73 input  -57.11 | X-H torsion

> <Gold.Protein.ActiveResidues>
 VAL166  LYS551  ARG553  GLY616  TRP617  ASP618  TYR619  PRO620  LYS621  CYS622 
 ASP623  PHE694  ASN695  SER759  ASP760  ASP761  ALA762  ILE779  LEU786  VAL792 
 PHE793  MET794  SER795  GLU796  ALA797  LYS798  CYS799  TRP800  GLU811  SER814 

> <Gold.Protein.RotatedAtoms>
  152.4407  134.5597  159.9890 H   0  0  0  0  0  0  0  0  0  0  0  0  # atno 6907 bound_to 6896
  151.5695  133.3386  159.2994 H   0  0  0  0  0  0  0  0  0  0  0  0  # atno 6908 bound_to 6896
  150.8312  134.7600  159.6919 H   0  0  0  0  0  0  0  0  0  0  0  0  # atno 6909 bound_to 6896
  144.8134  140.5406  143.5627 H   0  0  0  0  0  0  0  0  0  0  0  0  # atno 7974 bound_to 7965
  154.5984  140.0648  156.9335 H   0  0  0  0  0  0  0  0  0  0  0  0  # atno 8008 bound_to 7997
  155.2174  140.3327  155.4302 H   0  0  0  0  0  0  0  0  0  0  0  0  # atno 8009 bound_to 7997
  156.2302  140.1837  156.7245 H   0  0  0  0  0  0  0  0  0  0  0  0  # atno 8010 bound_to 7997
  139.7422  143.8645  152.2565 H   0  0  0  0  0  0  0  0  0  0  0  0  # atno 10167 bound_to 10162
  156.1509  130.6533  150.9911 H   0  0  0  0  0  0  0  0  0  0  0  0  # atno 10718 bound_to 10713
  153.0712  135.4958  154.8308 H   0  0  0  0  0  0  0  0  0  0  0  0  # atno 10763 bound_to 10752
  154.7025  135.3004  154.9323 H   0  0  0  0  0  0  0  0  0  0  0  0  # atno 10764 bound_to 10752
  154.0042  135.6762  153.4814 H   0  0  0  0  0  0  0  0  0  0  0  0  # atno 10765 bound_to 10752
  140.4663  134.1076  155.7725 H   0  0  0  0  0  0  0  0  0  0  0  0  # atno 11005 bound_to 11000
  145.5272  139.1476  143.3520 LP  0  0  0  0  0  0  0  0  0  0  0  0  # atno 17320 bound_to 7965
  146.2434  140.5412  142.8924 LP  0  0  0  0  0  0  0  0  0  0  0  0  # atno 17321 bound_to 7965
  139.8599  144.7122  150.9112 LP  0  0  0  0  0  0  0  0  0  0  0  0  # atno 17342 bound_to 10162
  140.7787  143.3827  151.1449 LP  0  0  0  0  0  0  0  0  0  0  0  0  # atno 17343 bound_to 10162
  157.6656  131.0872  150.7737 LP  0  0  0  0  0  0  0  0  0  0  0  0  # atno 17370 bound_to 10713
  156.7805  130.4858  149.5402 LP  0  0  0  0  0  0  0  0  0  0  0  0  # atno 17371 bound_to 10713
  141.1598  133.8814  157.1879 LP  0  0  0  0  0  0  0  0  0  0  0  0  # atno 17394 bound_to 11000
  139.9913  135.0063  156.9982 LP  0  0  0  0  0  0  0  0  0  0  0  0  # atno 17395 bound_to 11000

$$$$
