AV-unprocessed.smi:2591|AV-procd|sdf|10154|dock4
  -GOLD-   2272014163D 1   1.00000     0.00000
 Structure written by MMmdl.
 35 36  0  0  0  0  0  0  0  0  2 V2000
  148.1733  137.3046  156.8792 C   0  0  0  0  0  0  0  0  0  0  0  0
  148.9443  138.3696  156.2037 N   0  3  2  0  0  0  0  0  0  0  0  0
  148.2638  138.8923  154.9975 C   0  0  0  0  0  0  0  0  0  0  0  0
  149.0749  140.0452  154.3844 C   0  0  0  0  0  0  0  0  0  0  0  0
  150.4022  139.6031  154.0988 O   0  0  0  0  0  0  0  0  0  0  0  0
  151.1270  139.1145  155.2322 C   0  0  1  0  0  0  0  0  0  0  0  0
  151.4927  140.2699  156.1842 C   0  0  0  0  0  0  0  0  0  0  0  0
  151.2642  141.4363  155.8606 O   0  0  0  0  0  0  0  0  0  0  0  0
  152.0593  139.8977  157.3477 N   0  0  0  0  0  0  0  0  0  0  0  0
  152.5120  140.7236  158.4105 C   0  0  0  0  0  0  0  0  0  0  0  0
  151.9251  142.0075  158.4623 C   0  0  0  0  0  0  0  0  0  0  0  0
  152.3000  142.9081  159.4821 C   0  0  0  0  0  0  0  0  0  0  0  0
  151.6829  144.2967  159.5468 C   0  0  0  0  0  0  0  0  0  0  0  0
  151.9906  144.9151  160.6873 F   0  0  0  0  0  0  0  0  0  0  0  0
  152.1354  145.0264  158.5279 F   0  0  0  0  0  0  0  0  0  0  0  0
  150.3552  144.2131  159.4597 F   0  0  0  0  0  0  0  0  0  0  0  0
  153.2662  142.4900  160.4203 C   0  0  0  0  0  0  0  0  0  0  0  0
  153.8011  141.1949  160.2962 C   0  0  0  0  0  0  0  0  0  0  0  0
  153.4356  140.3344  159.3233 N   0  0  0  0  0  0  0  0  0  0  0  0
  150.3331  137.9586  155.8881 C   0  0  0  0  0  0  0  0  0  0  0  0
  148.0563  136.4340  156.2326 H   0  0  0  0  0  0  0  0  0  0  0  0
  147.1809  137.6641  157.1533 H   0  0  0  0  0  0  0  0  0  0  0  0
  148.6768  136.9876  157.7933 H   0  0  0  0  0  0  0  0  0  0  0  0
  148.1435  138.0903  154.2674 H   0  0  0  0  0  0  0  0  0  0  0  0
  147.2641  139.2416  155.2586 H   0  0  0  0  0  0  0  0  0  0  0  0
  148.6104  140.3736  153.4546 H   0  0  0  0  0  0  0  0  0  0  0  0
  149.0830  140.9104  155.0484 H   0  0  0  0  0  0  0  0  0  0  0  0
  152.0691  138.7091  154.8612 H   0  0  0  0  0  0  0  0  0  0  0  0
  152.1852  138.9054  157.4858 H   0  0  0  0  0  0  0  0  0  0  0  0
  151.1927  142.3051  157.7257 H   0  0  0  0  0  0  0  0  0  0  0  0
  153.5960  143.1405  161.2168 H   0  0  0  0  0  0  0  0  0  0  0  0
  154.5432  140.8401  160.9959 H   0  0  0  0  0  0  0  0  0  0  0  0
  150.8341  137.6184  156.7957 H   0  0  0  0  0  0  0  0  0  0  0  0
  150.3085  137.1038  155.2104 H   0  0  0  0  0  0  0  0  0  0  0  0
  149.0116  139.1370  156.8579 H   0  0  0  0  0  0  0  0  0  0  0  0
  1  2  1  0  0  0  0
  1 21  1  0  0  0  0
  1 22  1  0  0  0  0
  1 23  1  0  0  0  0
  2 20  1  0  0  0  0
  2  3  1  0  0  0  0
  2 35  1  0  0  0  0
  3  4  1  0  0  0  0
  3 24  1  0  0  0  0
  3 25  1  0  0  0  0
  4  5  1  0  0  0  0
  4 26  1  0  0  0  0
  4 27  1  0  0  0  0
  5  6  1  0  0  0  0
  6  7  1  0  0  0  0
  6 20  1  0  0  0  0
  6 28  1  0  0  0  0
  7  8  2  0  0  0  0
  7  9  1  0  0  0  0
  9 10  1  0  0  0  0
  9 29  1  0  0  0  0
 10 19  1  0  0  0  0
 10 11  2  0  0  0  0
 11 12  1  0  0  0  0
 11 30  1  0  0  0  0
 12 13  1  0  0  0  0
 12 17  2  0  0  0  0
 13 14  1  0  0  0  0
 13 15  1  0  0  0  0
 13 16  1  0  0  0  0
 17 18  1  0  0  0  0
 17 31  1  0  0  0  0
 18 19  2  0  0  0  0
 18 32  1  0  0  0  0
 20 33  1  0  0  0  0
 20 34  1  0  0  0  0
M  CHG  1   2   1
M  END
> <s_m_source_file>
AV-unprocessed.smi

> <i_m_source_file_index>
2591

> <i_lp_mmshare_version>
43012

> <i_f3d_flags>
0

> <s_epik_input>
W0NIM11OMVtDSDJdW0NIMl1PW0NASF0oW0NIMl0xKUMoPU8pW05IXWMyW2NIXWMoQyhGKShGKUYpW2NIXVtjSF1uMg==

> <s_epik_cmdline>
J2VwaWtfcHl0aG9uJywgJy1waCcsICc3LjAnLCAnLXRuJywgJzgnLCAnLW1hJywgJzIwMCcsICctbWV0YWxfYmluZGluZycsICctaW1hZScsICc8aW5maWxlLm1hZT4nLCAnLW9tYWUnLCAnPG91dGZpbGUubWFlPic=

> <r_epik_Ionization_Penalty>
0.314028

> <r_epik_Ionization_Penalty_Charging>
0.314023

> <r_epik_Ionization_Penalty_Neutral>
5.2303e-06

> <r_epik_State_Penalty>
0.308208

> <r_epik_Charging_Adjusted_Penalty>
0.62223

> <i_epik_Tot_Q>
1

> <i_epik_Tot_abs_Q>
1

> <r_epik_Metal_State_Penalty>
0.308209

> <b_epik_Metal_Only>
0

> <s_lp_Force_Field>
OPLS_2005

> <r_lp_Energy>
16.4571

> <b_lp_Chiralities_Consistent>
1

> <s_lp_Variant>
AV-unprocessed.smi:2591-2

> <Gold.Version>
5.8.1

> <Gold.Id.Protein>
6NUR|6NUR_protein|mol2

> <Gold.PLP.Fitness>
41.1787

> <Gold.PLP.PLP>
-39.2555

> <Gold.PLP.part.hbond>
-1.7289

> <Gold.PLP.part.metal>
0.0000

> <Gold.PLP.part.buried>
-3.7326

> <Gold.PLP.part.nonpolar>
-34.1467

> <Gold.PLP.part.repulsive>
0.6970

> <Gold.PLP.ligand.clash>
0.2040

> <Gold.PLP.ligand.torsion>
0.5692

> <Gold.PLP.Chemscore.Hbond>
1.0000

> <Gold.PLP.Chemscore.CHOScore>
0.0000

> <Gold.PLP.Chemscore.Metal>
0.0000

> <Gold.Chemscore.Hbonds>
donor molecule, donor type, donor heavy atom, donor atom, acceptor molecule, acceptor atom, score
      P1  H  7989  7998       L1     5  1.00

> <Gold.PLP.Chemscore.Internal.Correction>
0.2657

> <Gold.Rescore>
     Score         DG    S(hbond)    S(metal)    S(lipo)     H(rot)  DE(clash)    DE(int)     intcor
     10.96     -14.71       0.94        0.00      74.05       1.00       0.87       2.88       ----

> <Gold.Chemscore.Fitness>
10.9559

> <Gold.Chemscore.DG>
-14.7088

> <Gold.Chemscore.ZeroCoef>
-5.4800

> <Gold.Chemscore.Hbond>
0.9356

> <Gold.Chemscore.Metal>
0.0000

> <Gold.Chemscore.Lipo>
74.0508

> <Gold.Chemscore.Internal_Hbond>
0.0000

> <Gold.Chemscore.DEClash>
0.8691

> <Gold.Chemscore.DEInternal>
2.8838

> <Gold.Chemscore.Rot>
1.0000

> <Gold.Chemscore.Internal.Correction>
   9.000000E+99

> <Gold.Chemscore.Hbonds>
donor molecule, donor type, donor heavy atom, donor atom, acceptor molecule, acceptor atom, score
      P1  H  7989  7998       L1     5  0.24

> <Gold.Chemscore.Hbond.Weighted>
-3.1248

> <Gold.Chemscore.Metal.Weighted>
-0.0000

> <Gold.Chemscore.Lipo.Weighted>
-8.6639

> <Gold.Chemscore.Internal_Hbond.Weighted>
0.0000

> <Gold.Chemscore.DEClash.Weighted>
0.8691

> <Gold.Chemscore.DEInternal.Weighted>
2.8838

> <Gold.Chemscore.Rot.Weighted>
2.5600

> <Gold.Chemscore.Internal.Correction.Weighted>
   9.000000E+99

> <Gold.Protein.RotatedTorsions>
[ 6907 6896 6895 6894 ] final  170.74 input  -60.11 | X-H torsion
[ 7974 7965 7964 7962 ] final -152.04 input  175.53 | X-H torsion
[ 8008 7997 7996 7995 ] final -152.65 input   59.86 | X-H torsion
[ 10167 10162 10161 10158 ] final  -16.30 input  -65.29 | X-H torsion
[ 10718 10713 10712 10709 ] final -169.08 input   66.30 | X-H torsion
[ 10763 10752 10751 10750 ] final -137.06 input  -60.55 | X-H torsion
[ 11005 11000 10999 10996 ] final  179.99 input  -57.11 | X-H torsion

> <Gold.Protein.ActiveResidues>
 VAL166  LYS551  ARG553  GLY616  TRP617  ASP618  TYR619  PRO620  LYS621  CYS622 
 ASP623  PHE694  ASN695  SER759  ASP760  ASP761  ALA762  ILE779  LEU786  VAL792 
 PHE793  MET794  SER795  GLU796  ALA797  LYS798  CYS799  TRP800  GLU811  SER814 

> <Gold.Protein.RotatedAtoms>
  151.8113  133.3382  159.3556 H   0  0  0  0  0  0  0  0  0  0  0  0  # atno 6907 bound_to 6896
  150.7325  134.5661  159.5876 H   0  0  0  0  0  0  0  0  0  0  0  0  # atno 6908 bound_to 6896
  152.3073  134.7541  160.0396 H   0  0  0  0  0  0  0  0  0  0  0  0  # atno 6909 bound_to 6896
  144.7816  140.4716  143.5835 H   0  0  0  0  0  0  0  0  0  0  0  0  # atno 7974 bound_to 7965
  155.6585  140.0720  157.2562 H   0  0  0  0  0  0  0  0  0  0  0  0  # atno 8008 bound_to 7997
  154.4147  140.1720  156.1801 H   0  0  0  0  0  0  0  0  0  0  0  0  # atno 8009 bound_to 7997
  155.9717  140.3361  155.6585 H   0  0  0  0  0  0  0  0  0  0  0  0  # atno 8010 bound_to 7997
  140.7231  143.5130  150.9726 H   0  0  0  0  0  0  0  0  0  0  0  0  # atno 10167 bound_to 10162
  156.7063  130.9216  151.3085 H   0  0  0  0  0  0  0  0  0  0  0  0  # atno 10718 bound_to 10713
  154.8670  135.3653  154.5162 H   0  0  0  0  0  0  0  0  0  0  0  0  # atno 10763 bound_to 10752
  153.5794  135.7018  153.5474 H   0  0  0  0  0  0  0  0  0  0  0  0  # atno 10764 bound_to 10752
  153.3470  135.4082  155.1579 H   0  0  0  0  0  0  0  0  0  0  0  0  # atno 10765 bound_to 10752
  140.4123  134.6680  157.4621 H   0  0  0  0  0  0  0  0  0  0  0  0  # atno 11005 bound_to 11000
  145.6035  139.1506  143.3116 LP  0  0  0  0  0  0  0  0  0  0  0  0  # atno 17320 bound_to 7965
  146.2027  140.6155  142.9095 LP  0  0  0  0  0  0  0  0  0  0  0  0  # atno 17321 bound_to 7965
  139.8844  143.7031  152.3153 LP  0  0  0  0  0  0  0  0  0  0  0  0  # atno 17342 bound_to 10162
  139.7325  144.7579  151.0780 LP  0  0  0  0  0  0  0  0  0  0  0  0  # atno 17343 bound_to 10162
  157.6953  130.9276  150.0628 LP  0  0  0  0  0  0  0  0  0  0  0  0  # atno 17370 bound_to 10713
  156.1693  130.3646  149.9188 LP  0  0  0  0  0  0  0  0  0  0  0  0  # atno 17371 bound_to 10713
  140.0258  134.6479  155.9174 LP  0  0  0  0  0  0  0  0  0  0  0  0  # atno 17394 bound_to 11000
  141.1816  133.6547  156.5044 LP  0  0  0  0  0  0  0  0  0  0  0  0  # atno 17395 bound_to 11000

$$$$
