AV-unprocessed.smi:2079|AV-procd|sdf|8483|dock7
  -GOLD-   2272011183D 1   1.00000     0.00000
 Structure written by MMmdl.
 41 42  0  0  0  0  0  0  0  0  3 V2000
  152.1868  140.3316  156.4299 C   0  0  0  0  0  0  0  0  0  0  0  0
  151.4828  139.2543  155.6776 C   0  0  0  0  0  0  0  0  0  0  0  0
  151.3463  137.9118  155.8916 C   0  0  0  0  0  0  0  0  0  0  0  0
  150.5491  137.4908  154.7942 C   0  0  0  0  0  0  0  0  0  0  0  0
  150.1805  136.1276  154.6479 N   0  0  0  0  0  0  0  0  0  0  0  0
  150.7235  135.0423  155.2279 C   0  0  0  0  0  0  0  0  0  0  0  0
  151.7013  135.1554  155.9768 O   0  0  0  0  0  0  0  0  0  0  0  0
  150.0657  133.8965  154.8983 N   0  5  0  0  0  0  0  0  0  0  0  0
  149.2693  133.7004  153.6841 C   0  0  0  0  0  0  0  0  0  0  0  0
  148.4775  132.3748  153.7495 C   0  0  0  0  0  0  0  0  0  0  0  0
  147.4711  132.2580  152.6517 N   0  3  2  0  0  0  0  0  0  0  0  0
  146.8705  133.5849  152.3265 C   0  0  0  0  0  0  0  0  0  0  0  0
  145.9501  133.5204  151.1027 C   0  0  0  0  0  0  0  0  0  0  0  0
  144.8354  132.5029  151.3399 C   0  0  0  0  0  0  0  0  0  0  0  0
  145.4585  131.1403  151.6508 C   0  0  0  0  0  0  0  0  0  0  0  0
  146.4356  131.1901  152.8485 C   0  0  1  0  0  0  0  0  0  0  0  0
  147.0436  129.7795  153.0151 C   0  0  0  0  0  0  0  0  0  0  0  0
  150.2324  138.4870  153.9801 N   0  0  0  0  0  0  0  0  0  0  0  0
  150.8271  139.6222  154.5433 O   0  0  0  0  0  0  0  0  0  0  0  0
  153.2331  140.0706  156.5885 H   0  0  0  0  0  0  0  0  0  0  0  0
  151.7248  140.4853  157.4051 H   0  0  0  0  0  0  0  0  0  0  0  0
  152.1538  141.2772  155.8880 H   0  0  0  0  0  0  0  0  0  0  0  0
  151.7499  137.3271  156.7046 H   0  0  0  0  0  0  0  0  0  0  0  0
  149.4010  135.9512  154.0317 H   0  0  0  0  0  0  0  0  0  0  0  0
  148.5584  134.5165  153.5570 H   0  0  0  0  0  0  0  0  0  0  0  0
  149.8788  133.7098  152.7796 H   0  0  0  0  0  0  0  0  0  0  0  0
  149.1775  131.5426  153.7618 H   0  0  0  0  0  0  0  0  0  0  0  0
  147.9743  132.3095  154.7153 H   0  0  0  0  0  0  0  0  0  0  0  0
  146.3109  133.9507  153.1891 H   0  0  0  0  0  0  0  0  0  0  0  0
  147.6606  134.3118  152.1342 H   0  0  0  0  0  0  0  0  0  0  0  0
  145.5225  134.5038  150.9048 H   0  0  0  0  0  0  0  0  0  0  0  0
  146.5269  133.2460  150.2181 H   0  0  0  0  0  0  0  0  0  0  0  0
  144.2032  132.8238  152.1687 H   0  0  0  0  0  0  0  0  0  0  0  0
  144.1938  132.4333  150.4609 H   0  0  0  0  0  0  0  0  0  0  0  0
  144.6647  130.4183  151.8465 H   0  0  0  0  0  0  0  0  0  0  0  0
  145.9853  130.7816  150.7650 H   0  0  0  0  0  0  0  0  0  0  0  0
  145.8705  131.4355  153.7491 H   0  0  0  0  0  0  0  0  0  0  0  0
  146.2572  129.0269  153.0769 H   0  0  0  0  0  0  0  0  0  0  0  0
  147.6410  129.6669  153.9176 H   0  0  0  0  0  0  0  0  0  0  0  0
  147.6731  129.5171  152.1645 H   0  0  0  0  0  0  0  0  0  0  0  0
  148.0012  131.9749  151.8386 H   0  0  0  0  0  0  0  0  0  0  0  0
  1  2  1  0  0  0  0
  1 20  1  0  0  0  0
  1 21  1  0  0  0  0
  1 22  1  0  0  0  0
  2 19  1  0  0  0  0
  2  3  2  0  0  0  0
  3  4  1  0  0  0  0
  3 23  1  0  0  0  0
  4  5  1  0  0  0  0
  4 18  2  0  0  0  0
  5  6  1  0  0  0  0
  5 24  1  0  0  0  0
  6  7  2  0  0  0  0
  6  8  1  0  0  0  0
  8  9  1  0  0  0  0
  9 10  1  0  0  0  0
  9 25  1  0  0  0  0
  9 26  1  0  0  0  0
 10 11  1  0  0  0  0
 10 27  1  0  0  0  0
 10 28  1  0  0  0  0
 11 16  1  0  0  0  0
 11 12  1  0  0  0  0
 11 41  1  0  0  0  0
 12 13  1  0  0  0  0
 12 29  1  0  0  0  0
 12 30  1  0  0  0  0
 13 14  1  0  0  0  0
 13 31  1  0  0  0  0
 13 32  1  0  0  0  0
 14 15  1  0  0  0  0
 14 33  1  0  0  0  0
 14 34  1  0  0  0  0
 15 16  1  0  0  0  0
 15 35  1  0  0  0  0
 15 36  1  0  0  0  0
 16 17  1  0  0  0  0
 16 37  1  0  0  0  0
 17 38  1  0  0  0  0
 17 39  1  0  0  0  0
 17 40  1  0  0  0  0
 18 19  1  0  0  0  0
M  CHG  1   8  -1
M  CHG  1  11   1
M  END
> <s_m_source_file>
AV-unprocessed.smi

> <i_m_source_file_index>
2079

> <i_lp_mmshare_version>
43012

> <i_f3d_flags>
0

> <s_epik_input>
W0NIM11jMVtjSF1jKG5vMSlbTkhdQyg9TylbTkhdW0NIMl1bQ0gyXU4yW0NIMl1bQ0gyXVtDSDJdW0NIMl1bQ0BIXTJbQ0gzXQ==

> <s_epik_cmdline>
J2VwaWtfcHl0aG9uJywgJy1waCcsICc3LjAnLCAnLXRuJywgJzgnLCAnLW1hJywgJzIwMCcsICctbWV0YWxfYmluZGluZycsICctaW1hZScsICc8aW5maWxlLm1hZT4nLCAnLW9tYWUnLCAnPG91dGZpbGUubWFlPic=

> <r_epik_Ionization_Penalty>
6.7666

> <r_epik_Ionization_Penalty_Charging>
6.7666

> <r_epik_Ionization_Penalty_Neutral>
5.77131e-06

> <r_epik_State_Penalty>
6.79217

> <r_epik_Charging_Adjusted_Penalty>
13.5588

> <i_epik_Tot_Q>
0

> <i_epik_Tot_abs_Q>
2

> <r_epik_Metal_State_Penalty>
2.72569

> <b_epik_Metal_Only>
1

> <s_lp_Force_Field>
OPLS_2005

> <r_lp_Energy>
12.5834

> <b_lp_Chiralities_Consistent>
1

> <s_lp_Variant>
AV-unprocessed.smi:2079-9

> <Gold.Version>
5.8.1

> <Gold.Id.Protein>
6NUR|6NUR_protein|mol2

> <Gold.PLP.Fitness>
44.3607

> <Gold.PLP.PLP>
-33.9586

> <Gold.PLP.part.hbond>
-4.2495

> <Gold.PLP.part.metal>
0.0000

> <Gold.PLP.part.buried>
-4.2820

> <Gold.PLP.part.nonpolar>
-24.9673

> <Gold.PLP.part.repulsive>
0.5817

> <Gold.PLP.ligand.clash>
0.0000

> <Gold.PLP.ligand.torsion>
0.4599

> <Gold.PLP.Chemscore.Hbond>
3.7303

> <Gold.PLP.Chemscore.CHOScore>
0.0000

> <Gold.PLP.Chemscore.Metal>
0.0000

> <Gold.Chemscore.Hbonds>
donor molecule, donor type, donor heavy atom, donor atom, acceptor molecule, acceptor atom, score
      L1  H     5    24       P1  7948  0.40
      L1  H    11    41       P1 10747  0.70
      P1  H  7989  7998       L1    19  1.00
      P1  H 10752 10764       L1     7  1.00

> <Gold.PLP.Chemscore.Internal.Correction>
0.1310

> <Gold.Rescore>
     Score         DG    S(hbond)    S(metal)    S(lipo)     H(rot)  DE(clash)    DE(int)     intcor
     19.17     -21.24       3.26        0.00      75.26       1.54       0.12       1.94       ----

> <Gold.Chemscore.Fitness>
19.1738

> <Gold.Chemscore.DG>
-21.2361

> <Gold.Chemscore.ZeroCoef>
-5.4800

> <Gold.Chemscore.Hbond>
3.2622

> <Gold.Chemscore.Metal>
0.0000

> <Gold.Chemscore.Lipo>
75.2573

> <Gold.Chemscore.Internal_Hbond>
0.0000

> <Gold.Chemscore.DEClash>
0.1228

> <Gold.Chemscore.DEInternal>
1.9395

> <Gold.Chemscore.Rot>
1.5409

> <Gold.Chemscore.Internal.Correction>
   9.000000E+99

> <Gold.Chemscore.Hbonds>
donor molecule, donor type, donor heavy atom, donor atom, acceptor molecule, acceptor atom, score
      L1  H     5    24       P1  7948  0.28
      L1  H    11    41       P1 10747  0.71
      P1  H  7989  7998       L1    19  0.92
      P1  H 10752 10764       L1     7  0.75

> <Gold.Chemscore.Hbond.Weighted>
-10.8956

> <Gold.Chemscore.Metal.Weighted>
-0.0000

> <Gold.Chemscore.Lipo.Weighted>
-8.8051

> <Gold.Chemscore.Internal_Hbond.Weighted>
0.0000

> <Gold.Chemscore.DEClash.Weighted>
0.1228

> <Gold.Chemscore.DEInternal.Weighted>
1.9395

> <Gold.Chemscore.Rot.Weighted>
3.9446

> <Gold.Chemscore.Internal.Correction.Weighted>
   9.000000E+99

> <Gold.Protein.RotatedTorsions>
[ 6907 6896 6895 6894 ] final  -26.12 input  -60.11 | X-H torsion
[ 7974 7965 7964 7962 ] final  -74.71 input  175.53 | X-H torsion
[ 8008 7997 7996 7995 ] final -179.14 input   59.86 | X-H torsion
[ 10167 10162 10161 10158 ] final -164.20 input  -65.29 | X-H torsion
[ 10718 10713 10712 10709 ] final  -35.07 input   66.30 | X-H torsion
[ 10763 10752 10751 10750 ] final  -28.61 input  -60.55 | X-H torsion
[ 11005 11000 10999 10996 ] final  -61.52 input  -57.11 | X-H torsion

> <Gold.Protein.ActiveResidues>
 VAL166  LYS551  ARG553  GLY616  TRP617  ASP618  TYR619  PRO620  LYS621  CYS622 
 ASP623  PHE694  ASN695  SER759  ASP760  ASP761  ALA762  ILE779  LEU786  VAL792 
 PHE793  MET794  SER795  GLU796  ALA797  LYS798  CYS799  TRP800  GLU811  SER814 

> <Gold.Protein.RotatedAtoms>
  151.1655  135.0293  159.8728 H   0  0  0  0  0  0  0  0  0  0  0  0  # atno 6907 bound_to 6896
  152.5450  134.1230  159.8417 H   0  0  0  0  0  0  0  0  0  0  0  0  # atno 6908 bound_to 6896
  151.1330  133.4977  159.2631 H   0  0  0  0  0  0  0  0  0  0  0  0  # atno 6909 bound_to 6896
  145.6355  140.9326  143.1064 H   0  0  0  0  0  0  0  0  0  0  0  0  # atno 7974 bound_to 7965
  156.0270  140.1273  157.0298 H   0  0  0  0  0  0  0  0  0  0  0  0  # atno 8008 bound_to 7997
  154.4334  140.1057  156.6115 H   0  0  0  0  0  0  0  0  0  0  0  0  # atno 8009 bound_to 7997
  155.5862  140.3468  155.4556 H   0  0  0  0  0  0  0  0  0  0  0  0  # atno 8010 bound_to 7997
  139.6267  144.0518  152.1981 H   0  0  0  0  0  0  0  0  0  0  0  0  # atno 10167 bound_to 10162
  156.3430  130.4296  149.7770 H   0  0  0  0  0  0  0  0  0  0  0  0  # atno 10718 bound_to 10713
  153.7512  135.6926  153.4945 H   0  0  0  0  0  0  0  0  0  0  0  0  # atno 10763 bound_to 10752
  153.2002  135.4439  155.0256 H   0  0  0  0  0  0  0  0  0  0  0  0  # atno 10764 bound_to 10752
  154.8187  135.3411  154.7032 H   0  0  0  0  0  0  0  0  0  0  0  0  # atno 10765 bound_to 10752
  141.1327  133.6631  156.5387 H   0  0  0  0  0  0  0  0  0  0  0  0  # atno 11005 bound_to 11000
  144.7177  139.8139  143.7393 LP  0  0  0  0  0  0  0  0  0  0  0  0  # atno 17320 bound_to 7965
  146.1322  139.4360  143.0161 LP  0  0  0  0  0  0  0  0  0  0  0  0  # atno 17321 bound_to 7965
  140.0174  144.6179  150.7596 LP  0  0  0  0  0  0  0  0  0  0  0  0  # atno 17342 bound_to 10162
  140.7415  143.2819  151.3574 LP  0  0  0  0  0  0  0  0  0  0  0  0  # atno 17343 bound_to 10162
  156.5000  130.8124  151.3128 LP  0  0  0  0  0  0  0  0  0  0  0  0  # atno 17370 bound_to 10713
  157.7450  130.9948  150.2720 LP  0  0  0  0  0  0  0  0  0  0  0  0  # atno 17371 bound_to 10713
  140.4157  134.7232  157.4861 LP  0  0  0  0  0  0  0  0  0  0  0  0  # atno 17394 bound_to 11000
  140.0395  134.6287  155.8999 LP  0  0  0  0  0  0  0  0  0  0  0  0  # atno 17395 bound_to 11000

$$$$
