AV-unprocessed.smi:734|AV-procd|sdf|3531|dock2
  -GOLD-   22720 0523D 1   1.00000     0.00000
 Structure written by MMmdl.
 38 39  0  0  0  0  0  0  0  0  3 V2000
  153.1909  143.0028  159.2568 C   0  0  0  0  0  0  0  0  0  0  0  0
  152.6335  141.5737  159.3279 C   0  0  0  0  0  0  0  0  0  0  0  0
  153.6196  140.5719  159.9462 C   0  0  0  0  0  0  0  0  0  0  0  0
  152.1098  141.1060  158.0060 C   0  0  0  0  0  0  0  0  0  0  0  0
  152.5287  139.9860  157.4088 N   0  0  0  0  0  0  0  0  0  0  0  0
  151.8890  139.7658  156.1982 N   0  0  0  0  0  0  0  0  0  0  0  0
  150.9897  140.7133  155.8990 C   0  0  0  0  0  0  0  0  0  0  0  0
  150.2581  140.6820  154.7728 N   0  5  0  0  0  0  0  0  0  0  0  0
  148.9317  140.4311  154.8388 C   0  0  0  0  0  0  0  0  0  0  0  0
  148.2193  140.5205  155.8418 O   0  0  0  0  0  0  0  0  0  0  0  0
  148.3924  140.0599  153.6690 N   0  0  0  0  0  0  0  0  0  0  0  0
  146.9862  139.7464  153.4473 C   0  0  0  0  0  0  0  0  0  0  0  0
  146.7626  139.1326  152.0534 C   0  0  0  0  0  0  0  0  0  0  0  0
  145.4815  138.3953  151.9719 N   0  3  0  0  0  0  0  0  0  0  0  0
  145.1256  137.6621  153.2194 C   0  0  0  0  0  0  0  0  0  0  0  0
  144.5299  136.3804  152.7094 C   0  0  0  0  0  0  0  0  0  0  0  0
  144.6637  136.2722  151.3925 C   0  0  0  0  0  0  0  0  0  0  0  0
  145.3699  137.4644  150.8119 C   0  0  0  0  0  0  0  0  0  0  0  0
  150.8852  141.9905  157.1096 S   0  0  0  0  0  0  0  0  0  0  0  0
  152.4368  143.6998  158.8896 H   0  0  0  0  0  0  0  0  0  0  0  0
  154.0509  143.0600  158.5884 H   0  0  0  0  0  0  0  0  0  0  0  0
  153.5109  143.3494  160.2397 H   0  0  0  0  0  0  0  0  0  0  0  0
  151.7759  141.6129  160.0008 H   0  0  0  0  0  0  0  0  0  0  0  0
  153.1614  139.5885  160.0554 H   0  0  0  0  0  0  0  0  0  0  0  0
  153.9433  140.8979  160.9348 H   0  0  0  0  0  0  0  0  0  0  0  0
  154.5092  140.4576  159.3261 H   0  0  0  0  0  0  0  0  0  0  0  0
  149.0105  139.9935  152.8732 H   0  0  0  0  0  0  0  0  0  0  0  0
  146.6696  139.0442  154.2186 H   0  0  0  0  0  0  0  0  0  0  0  0
  146.3875  140.6483  153.5843 H   0  0  0  0  0  0  0  0  0  0  0  0
  146.7869  139.8989  151.2771 H   0  0  0  0  0  0  0  0  0  0  0  0
  147.5790  138.4419  151.8371 H   0  0  0  0  0  0  0  0  0  0  0  0
  146.0011  137.4383  153.8310 H   0  0  0  0  0  0  0  0  0  0  0  0
  144.4087  138.2293  153.8136 H   0  0  0  0  0  0  0  0  0  0  0  0
  144.0759  135.6470  153.3597 H   0  0  0  0  0  0  0  0  0  0  0  0
  144.3369  135.4363  150.7914 H   0  0  0  0  0  0  0  0  0  0  0  0
  144.7942  137.9156  150.0034 H   0  0  0  0  0  0  0  0  0  0  0  0
  146.3452  137.1595  150.4299 H   0  0  0  0  0  0  0  0  0  0  0  0
  144.7536  139.0841  151.8467 H   0  0  0  0  0  0  0  0  0  0  0  0
  1  2  1  0  0  0  0
  1 20  1  0  0  0  0
  1 21  1  0  0  0  0
  1 22  1  0  0  0  0
  2  3  1  0  0  0  0
  2  4  1  0  0  0  0
  2 23  1  0  0  0  0
  3 24  1  0  0  0  0
  3 25  1  0  0  0  0
  3 26  1  0  0  0  0
  4 19  1  0  0  0  0
  4  5  2  0  0  0  0
  5  6  1  0  0  0  0
  6  7  2  0  0  0  0
  7  8  1  0  0  0  0
  7 19  1  0  0  0  0
  8  9  1  0  0  0  0
  9 10  2  0  0  0  0
  9 11  1  0  0  0  0
 11 12  1  0  0  0  0
 11 27  1  0  0  0  0
 12 13  1  0  0  0  0
 12 28  1  0  0  0  0
 12 29  1  0  0  0  0
 13 14  1  0  0  0  0
 13 30  1  0  0  0  0
 13 31  1  0  0  0  0
 14 18  1  0  0  0  0
 14 15  1  0  0  0  0
 14 38  1  0  0  0  0
 15 16  1  0  0  0  0
 15 32  1  0  0  0  0
 15 33  1  0  0  0  0
 16 17  2  0  0  0  0
 16 34  1  0  0  0  0
 17 18  1  0  0  0  0
 17 35  1  0  0  0  0
 18 36  1  0  0  0  0
 18 37  1  0  0  0  0
M  CHG  1   8  -1
M  CHG  1  14   1
M  END
> <s_m_source_file>
AV-unprocessed.smi

> <i_m_source_file_index>
734

> <i_lp_mmshare_version>
43012

> <i_f3d_flags>
0

> <s_epik_input>
W0NIM11bQ0hdKFtDSDNdKWMxbm5jKHMxKVtOSF1DKD1PKVtOSF1bQ0gyXVtDSDJdTjJbQ0gyXVtDSF09W0NIXVtDSDJdMg==

> <s_epik_cmdline>
J2VwaWtfcHl0aG9uJywgJy1waCcsICc3LjAnLCAnLXRuJywgJzgnLCAnLW1hJywgJzIwMCcsICctbWV0YWxfYmluZGluZycsICctaW1hZScsICc8aW5maWxlLm1hZT4nLCAnLW9tYWUnLCAnPG91dGZpbGUubWFlPic=

> <r_lp_tautomer_probability>
1

> <r_epik_Ionization_Penalty>
3.04352

> <r_epik_Ionization_Penalty_Charging>
2.92732

> <r_epik_Ionization_Penalty_Neutral>
0.116198

> <r_epik_State_Penalty>
2.92347

> <r_epik_Charging_Adjusted_Penalty>
5.85079

> <i_epik_Tot_Q>
0

> <i_epik_Tot_abs_Q>
2

> <r_epik_Metal_State_Penalty>
0.448048

> <b_epik_Metal_Only>
1

> <s_lp_Force_Field>
OPLS_2005

> <r_lp_Energy>
6.61646

> <b_lp_Chiralities_Consistent>
1

> <s_lp_Variant>
AV-unprocessed.smi:734-2

> <Gold.Version>
5.8.1

> <Gold.Id.Protein>
6NUR|6NUR_protein|mol2

> <Gold.PLP.Fitness>
47.1829

> <Gold.PLP.PLP>
-34.5907

> <Gold.PLP.part.hbond>
-5.0000

> <Gold.PLP.part.metal>
0.0000

> <Gold.PLP.part.buried>
1.0872

> <Gold.PLP.part.nonpolar>
-31.2924

> <Gold.PLP.part.repulsive>
0.2746

> <Gold.PLP.ligand.clash>
0.0000

> <Gold.PLP.ligand.torsion>
1.0928

> <Gold.PLP.Chemscore.Hbond>
4.8080

> <Gold.PLP.Chemscore.CHOScore>
0.0000

> <Gold.PLP.Chemscore.Metal>
0.0000

> <Gold.Chemscore.Hbonds>
donor molecule, donor type, donor heavy atom, donor atom, acceptor molecule, acceptor atom, score
      L1  H    11    27       P1  7957  1.00
      L1  H    14    38       P1 10175  2.00
      P1  H  7989  7998       L1     8  0.86
      P1  H  7997  8008       L1     5  1.00

> <Gold.PLP.Chemscore.Internal.Correction>
0.3537

> <Gold.Rescore>
     Score         DG    S(hbond)    S(metal)    S(lipo)     H(rot)  DE(clash)    DE(int)     intcor
     16.73     -19.71       2.67        0.00      82.16       1.68       1.91       1.07       ----

> <Gold.Chemscore.Fitness>
16.7324

> <Gold.Chemscore.DG>
-19.7109

> <Gold.Chemscore.ZeroCoef>
-5.4800

> <Gold.Chemscore.Hbond>
2.6735

> <Gold.Chemscore.Metal>
0.0000

> <Gold.Chemscore.Lipo>
82.1568

> <Gold.Chemscore.Internal_Hbond>
0.0000

> <Gold.Chemscore.DEClash>
1.9113

> <Gold.Chemscore.DEInternal>
1.0672

> <Gold.Chemscore.Rot>
1.6839

> <Gold.Chemscore.Internal.Correction>
   9.000000E+99

> <Gold.Chemscore.Hbonds>
donor molecule, donor type, donor heavy atom, donor atom, acceptor molecule, acceptor atom, score
      L1  H    11    27       P1  7957  1.00
      L1  H    14    38       P1 10175  0.96
      P1  H  7989  7998       L1     8  0.22
      P1  H  7997  8008       L1     5  0.28

> <Gold.Chemscore.Hbond.Weighted>
-8.9294

> <Gold.Chemscore.Metal.Weighted>
-0.0000

> <Gold.Chemscore.Lipo.Weighted>
-9.6124

> <Gold.Chemscore.Internal_Hbond.Weighted>
0.0000

> <Gold.Chemscore.DEClash.Weighted>
1.9113

> <Gold.Chemscore.DEInternal.Weighted>
1.0672

> <Gold.Chemscore.Rot.Weighted>
4.3108

> <Gold.Chemscore.Internal.Correction.Weighted>
   9.000000E+99

> <Gold.Protein.RotatedTorsions>
[ 6907 6896 6895 6894 ] final  -56.34 input  -60.11 | X-H torsion
[ 7974 7965 7964 7962 ] final  127.65 input  175.53 | X-H torsion
[ 8008 7997 7996 7995 ] final  -73.76 input   59.86 | X-H torsion
[ 10167 10162 10161 10158 ] final -179.66 input  -65.29 | X-H torsion
[ 10718 10713 10712 10709 ] final   92.43 input   66.30 | X-H torsion
[ 10763 10752 10751 10750 ] final -104.80 input  -60.55 | X-H torsion
[ 11005 11000 10999 10996 ] final -159.17 input  -57.11 | X-H torsion

> <Gold.Protein.ActiveResidues>
 VAL166  LYS551  ARG553  GLY616  TRP617  ASP618  TYR619  PRO620  LYS621  CYS622 
 ASP623  PHE694  ASN695  SER759  ASP760  ASP761  ALA762  ILE779  LEU786  VAL792 
 PHE793  MET794  SER795  GLU796  ALA797  LYS798  CYS799  TRP800  GLU811  SER814 

> <Gold.Protein.RotatedAtoms>
  150.8176  134.7366  159.6743 H   0  0  0  0  0  0  0  0  0  0  0  0  # atno 6907 bound_to 6896
  152.4293  134.5804  159.9956 H   0  0  0  0  0  0  0  0  0  0  0  0  # atno 6908 bound_to 6896
  151.5997  133.3320  159.3081 H   0  0  0  0  0  0  0  0  0  0  0  0  # atno 6909 bound_to 6896
  145.0483  139.3905  143.5067 H   0  0  0  0  0  0  0  0  0  0  0  0  # atno 7974 bound_to 7965
  154.5274  140.0773  156.8283 H   0  0  0  0  0  0  0  0  0  0  0  0  # atno 8008 bound_to 7997
  155.3447  140.3409  155.4221 H   0  0  0  0  0  0  0  0  0  0  0  0  # atno 8009 bound_to 7997
  156.1745  140.1631  156.8373 H   0  0  0  0  0  0  0  0  0  0  0  0  # atno 8010 bound_to 7997
  139.5376  144.2453  152.0827 H   0  0  0  0  0  0  0  0  0  0  0  0  # atno 10167 bound_to 10162
  157.6958  131.0443  150.3880 H   0  0  0  0  0  0  0  0  0  0  0  0  # atno 10718 bound_to 10713
  154.7903  135.4772  154.0038 H   0  0  0  0  0  0  0  0  0  0  0  0  # atno 10763 bound_to 10752
  153.1621  135.6810  153.8734 H   0  0  0  0  0  0  0  0  0  0  0  0  # atno 10764 bound_to 10752
  153.8344  135.3187  155.3399 H   0  0  0  0  0  0  0  0  0  0  0  0  # atno 10765 bound_to 10752
  140.6455  134.4506  157.5234 H   0  0  0  0  0  0  0  0  0  0  0  0  # atno 11005 bound_to 11000
  146.3516  140.0119  142.8666 LP  0  0  0  0  0  0  0  0  0  0  0  0  # atno 17320 bound_to 7965
  145.1560  140.9648  143.4405 LP  0  0  0  0  0  0  0  0  0  0  0  0  # atno 17321 bound_to 7965
  140.1927  144.4736  150.6471 LP  0  0  0  0  0  0  0  0  0  0  0  0  # atno 17342 bound_to 10162
  140.6590  143.2246  151.5900 LP  0  0  0  0  0  0  0  0  0  0  0  0  # atno 17343 bound_to 10162
  156.4287  130.3967  149.6775 LP  0  0  0  0  0  0  0  0  0  0  0  0  # atno 17370 bound_to 10713
  156.4000  130.7670  151.2677 LP  0  0  0  0  0  0  0  0  0  0  0  0  # atno 17371 bound_to 10713
  139.9064  134.8439  156.1689 LP  0  0  0  0  0  0  0  0  0  0  0  0  # atno 17394 bound_to 11000
  141.0575  133.6858  156.1889 LP  0  0  0  0  0  0  0  0  0  0  0  0  # atno 17395 bound_to 11000

$$$$
