AV-unprocessed.smi:3057|AV-procd|sdf|11663|dock3
  -GOLD-   2272017 63D 1   1.00000     0.00000
 Structure written by MMmdl.
 40 42  0  0  0  0  0  0  0  0  1 V2000
  155.5091  135.7091  163.7614 C   0  0  0  0  0  0  0  0  0  0  0  0
  154.9931  137.1294  163.4489 C   0  0  1  0  0  0  0  0  0  0  0  0
  155.2725  138.0934  164.6127 C   0  0  0  0  0  0  0  0  0  0  0  0
  156.6459  138.6944  164.2745 C   0  0  0  0  0  0  0  0  0  0  0  0
  156.7175  138.5242  162.7637 C   0  0  0  0  0  0  0  0  0  0  0  0
  157.5373  139.1090  162.0573 O   0  0  0  0  0  0  0  0  0  0  0  0
  155.7304  137.7165  162.3453 N   0  0  0  0  0  0  0  0  0  0  0  0
  155.1648  137.5360  160.9993 C   0  0  2  0  0  0  0  0  0  0  0  0
  154.9283  138.8523  160.2337 C   0  0  0  0  0  0  0  0  0  0  0  0
  155.1368  138.9223  159.0217 O   0  0  0  0  0  0  0  0  0  0  0  0
  154.5300  139.9001  160.9709 N   0  0  0  0  0  0  0  0  0  0  0  0
  154.2778  141.2460  160.4633 C   0  0  0  0  0  0  0  0  0  0  0  0
  152.7864  141.6438  160.4859 C   0  0  0  0  0  0  0  0  0  0  0  0
  152.5183  143.0575  159.9970 C   0  0  0  0  0  0  0  0  0  0  0  0
  152.8089  143.4246  158.6652 C   0  0  0  0  0  0  0  0  0  0  0  0
  152.5573  144.7502  158.2636 C   0  0  0  0  0  0  0  0  0  0  0  0
  152.0243  145.6530  159.2035 C   0  0  0  0  0  0  0  0  0  0  0  0
  151.7643  145.1870  160.5080 C   0  0  0  0  0  0  0  0  0  0  0  0
  152.0032  143.9179  160.9040 N   0  0  0  0  0  0  0  0  0  0  0  0
  153.8553  136.7365  161.1769 C   0  0  0  0  0  0  0  0  0  0  0  0
  153.2871  137.0936  162.8612 S   0  0  0  0  0  0  0  0  0  0  0  0
  156.5581  135.7201  164.0591 H   0  0  0  0  0  0  0  0  0  0  0  0
  155.4245  135.0454  162.9010 H   0  0  0  0  0  0  0  0  0  0  0  0
  154.9417  135.2602  164.5769 H   0  0  0  0  0  0  0  0  0  0  0  0
  154.5243  138.8875  164.6400 H   0  0  0  0  0  0  0  0  0  0  0  0
  155.2610  137.5979  165.5841 H   0  0  0  0  0  0  0  0  0  0  0  0
  156.7245  139.7406  164.5709 H   0  0  0  0  0  0  0  0  0  0  0  0
  157.4555  138.1319  164.7404 H   0  0  0  0  0  0  0  0  0  0  0  0
  155.8705  136.9352  160.4235 H   0  0  0  0  0  0  0  0  0  0  0  0
  154.3944  139.7570  161.9613 H   0  0  0  0  0  0  0  0  0  0  0  0
  154.8745  141.9737  161.0150 H   0  0  0  0  0  0  0  0  0  0  0  0
  154.6389  141.2699  159.4348 H   0  0  0  0  0  0  0  0  0  0  0  0
  152.2130  140.9470  159.8736 H   0  0  0  0  0  0  0  0  0  0  0  0
  152.3946  141.5380  161.4983 H   0  0  0  0  0  0  0  0  0  0  0  0
  153.2248  142.7104  157.9695 H   0  0  0  0  0  0  0  0  0  0  0  0
  152.7719  145.0685  157.2540 H   0  0  0  0  0  0  0  0  0  0  0  0
  151.8193  146.6776  158.9314 H   0  0  0  0  0  0  0  0  0  0  0  0
  151.3547  145.8523  161.2537 H   0  0  0  0  0  0  0  0  0  0  0  0
  153.0868  136.9840  160.4444 H   0  0  0  0  0  0  0  0  0  0  0  0
  154.0507  135.6676  161.0926 H   0  0  0  0  0  0  0  0  0  0  0  0
  1  2  1  0  0  0  0
  1 22  1  0  0  0  0
  1 23  1  0  0  0  0
  1 24  1  0  0  0  0
  2  7  1  0  0  0  0
  2 21  1  0  0  0  0
  2  3  1  0  0  0  0
  3  4  1  0  0  0  0
  3 25  1  0  0  0  0
  3 26  1  0  0  0  0
  4  5  1  0  0  0  0
  4 27  1  0  0  0  0
  4 28  1  0  0  0  0
  5  6  2  0  0  0  0
  5  7  1  0  0  0  0
  7  8  1  0  0  0  0
  8  9  1  0  0  0  0
  8 20  1  0  0  0  0
  8 29  1  0  0  0  0
  9 10  2  0  0  0  0
  9 11  1  0  0  0  0
 11 12  1  0  0  0  0
 11 30  1  0  0  0  0
 12 13  1  0  0  0  0
 12 31  1  0  0  0  0
 12 32  1  0  0  0  0
 13 14  1  0  0  0  0
 13 33  1  0  0  0  0
 13 34  1  0  0  0  0
 14 19  1  0  0  0  0
 14 15  2  0  0  0  0
 15 16  1  0  0  0  0
 15 35  1  0  0  0  0
 16 17  2  0  0  0  0
 16 36  1  0  0  0  0
 17 18  1  0  0  0  0
 17 37  1  0  0  0  0
 18 19  2  0  0  0  0
 18 38  1  0  0  0  0
 20 21  1  0  0  0  0
 20 39  1  0  0  0  0
 20 40  1  0  0  0  0
M  END
> <s_m_source_file>
AV-unprocessed.smi

> <i_m_source_file_index>
3057

> <i_lp_mmshare_version>
43012

> <i_f3d_flags>
0

> <s_epik_input>
W0NIMl0xW0NIMl1DKD1PKU4oW0NAQF0xMltDSDNdKVtDQEhdKFtDSDJdUzIpQyg9TylbTkhdW0NIMl1bQ0gyXWMzW2NIXVtjSF1bY0hdW2NIXW4z

> <s_epik_cmdline>
J2VwaWtfcHl0aG9uJywgJy1waCcsICc3LjAnLCAnLXRuJywgJzgnLCAnLW1hJywgJzIwMCcsICctbWV0YWxfYmluZGluZycsICctaW1hZScsICc8aW5maWxlLm1hZT4nLCAnLW9tYWUnLCAnPG91dGZpbGUubWFlPic=

> <r_epik_Ionization_Penalty>
0.0249631

> <r_epik_Ionization_Penalty_Charging>
0

> <r_epik_Ionization_Penalty_Neutral>
0.0249631

> <r_epik_State_Penalty>
0.0202943

> <r_epik_Charging_Adjusted_Penalty>
0.0202943

> <i_epik_Tot_Q>
0

> <i_epik_Tot_abs_Q>
0

> <r_epik_Metal_State_Penalty>
0.0194661

> <b_epik_Metal_Only>
0

> <s_lp_Force_Field>
OPLS_2005

> <r_lp_Energy>
26.5663

> <b_lp_Chiralities_Consistent>
1

> <s_lp_Variant>
AV-unprocessed.smi:3057-3

> <Gold.Version>
5.8.1

> <Gold.Id.Protein>
6NUR|6NUR_protein|mol2

> <Gold.PLP.Fitness>
43.3102

> <Gold.PLP.PLP>
-41.7452

> <Gold.PLP.part.hbond>
-1.0000

> <Gold.PLP.part.metal>
0.0000

> <Gold.PLP.part.buried>
-4.1765

> <Gold.PLP.part.nonpolar>
-36.9011

> <Gold.PLP.part.repulsive>
0.1319

> <Gold.PLP.ligand.clash>
0.0000

> <Gold.PLP.ligand.torsion>
0.7221

> <Gold.PLP.Chemscore.Hbond>
1.0000

> <Gold.PLP.Chemscore.CHOScore>
0.0000

> <Gold.PLP.Chemscore.Metal>
0.0000

> <Gold.Chemscore.Hbonds>
donor molecule, donor type, donor heavy atom, donor atom, acceptor molecule, acceptor atom, score
      P1  H  7997  8010       L1    10  1.00

> <Gold.PLP.Chemscore.Internal.Correction>
0.0091

> <Gold.Rescore>
     Score         DG    S(hbond)    S(metal)    S(lipo)     H(rot)  DE(clash)    DE(int)     intcor
     18.80     -19.77       0.97        0.00     127.89       1.53       0.21       0.75       ----

> <Gold.Chemscore.Fitness>
18.8045

> <Gold.Chemscore.DG>
-19.7671

> <Gold.Chemscore.ZeroCoef>
-5.4800

> <Gold.Chemscore.Hbond>
0.9734

> <Gold.Chemscore.Metal>
0.0000

> <Gold.Chemscore.Lipo>
127.8866

> <Gold.Chemscore.Internal_Hbond>
0.0000

> <Gold.Chemscore.DEClash>
0.2108

> <Gold.Chemscore.DEInternal>
0.7518

> <Gold.Chemscore.Rot>
1.5339

> <Gold.Chemscore.Internal.Correction>
   9.000000E+99

> <Gold.Chemscore.Hbonds>
donor molecule, donor type, donor heavy atom, donor atom, acceptor molecule, acceptor atom, score
      P1  H  7997  8010       L1    10  0.97

> <Gold.Chemscore.Hbond.Weighted>
-3.2511

> <Gold.Chemscore.Metal.Weighted>
-0.0000

> <Gold.Chemscore.Lipo.Weighted>
-14.9627

> <Gold.Chemscore.Internal_Hbond.Weighted>
0.0000

> <Gold.Chemscore.DEClash.Weighted>
0.2108

> <Gold.Chemscore.DEInternal.Weighted>
0.7518

> <Gold.Chemscore.Rot.Weighted>
3.9267

> <Gold.Chemscore.Internal.Correction.Weighted>
   9.000000E+99

> <Gold.Protein.RotatedTorsions>
[ 6907 6896 6895 6894 ] final   51.96 input  -60.11 | X-H torsion
[ 7974 7965 7964 7962 ] final  117.61 input  175.53 | X-H torsion
[ 8008 7997 7996 7995 ] final   -4.67 input   59.86 | X-H torsion
[ 10167 10162 10161 10158 ] final -129.55 input  -65.29 | X-H torsion
[ 10718 10713 10712 10709 ] final  133.57 input   66.30 | X-H torsion
[ 10763 10752 10751 10750 ] final  -87.63 input  -60.55 | X-H torsion
[ 11005 11000 10999 10996 ] final   12.15 input  -57.11 | X-H torsion

> <Gold.Protein.ActiveResidues>
 VAL166  LYS551  ARG553  GLY616  TRP617  ASP618  TYR619  PRO620  LYS621  CYS622 
 ASP623  PHE694  ASN695  SER759  ASP760  ASP761  ALA762  ILE779  LEU786  VAL792 
 PHE793  MET794  SER795  GLU796  ALA797  LYS798  CYS799  TRP800  GLU811  SER814 

> <Gold.Protein.RotatedAtoms>
  152.3182  134.7413  160.0319 H   0  0  0  0  0  0  0  0  0  0  0  0  # atno 6907 bound_to 6896
  151.7871  133.3350  159.3496 H   0  0  0  0  0  0  0  0  0  0  0  0  # atno 6908 bound_to 6896
  150.7356  134.5808  159.5982 H   0  0  0  0  0  0  0  0  0  0  0  0  # atno 6909 bound_to 6896
  145.1653  139.3132  143.4496 H   0  0  0  0  0  0  0  0  0  0  0  0  # atno 7974 bound_to 7965
  154.6118  140.2478  155.7659 H   0  0  0  0  0  0  0  0  0  0  0  0  # atno 8008 bound_to 7997
  156.2375  140.2945  156.0303 H   0  0  0  0  0  0  0  0  0  0  0  0  # atno 8009 bound_to 7997
  155.2039  140.0395  157.2912 H   0  0  0  0  0  0  0  0  0  0  0  0  # atno 8010 bound_to 7997
  139.9386  143.6189  152.2510 H   0  0  0  0  0  0  0  0  0  0  0  0  # atno 10167 bound_to 10162
  157.4759  131.1083  150.9743 H   0  0  0  0  0  0  0  0  0  0  0  0  # atno 10718 bound_to 10713
  154.6357  135.5406  153.7732 H   0  0  0  0  0  0  0  0  0  0  0  0  # atno 10763 bound_to 10752
  153.0307  135.6447  154.1234 H   0  0  0  0  0  0  0  0  0  0  0  0  # atno 10764 bound_to 10752
  154.1162  135.2923  155.3199 H   0  0  0  0  0  0  0  0  0  0  0  0  # atno 10765 bound_to 10752
  140.4952  134.0801  155.7780 H   0  0  0  0  0  0  0  0  0  0  0  0  # atno 11005 bound_to 11000
  146.3476  140.1779  142.8589 LP  0  0  0  0  0  0  0  0  0  0  0  0  # atno 17320 bound_to 7965
  145.0288  140.8854  143.5122 LP  0  0  0  0  0  0  0  0  0  0  0  0  # atno 17321 bound_to 7965
  139.6723  144.7660  151.1761 LP  0  0  0  0  0  0  0  0  0  0  0  0  # atno 17342 bound_to 10162
  140.7617  143.5847  150.8858 LP  0  0  0  0  0  0  0  0  0  0  0  0  # atno 17343 bound_to 10162
  157.0492  130.5780  149.5368 LP  0  0  0  0  0  0  0  0  0  0  0  0  # atno 17370 bound_to 10713
  156.0097  130.5187  150.7947 LP  0  0  0  0  0  0  0  0  0  0  0  0  # atno 17371 bound_to 10713
  141.1464  133.9048  157.2205 LP  0  0  0  0  0  0  0  0  0  0  0  0  # atno 17394 bound_to 11000
  139.9746  135.0118  156.9598 LP  0  0  0  0  0  0  0  0  0  0  0  0  # atno 17395 bound_to 11000

$$$$
