AV-unprocessed.smi:692|AV-procd|sdf|3371|dock2
  -GOLD-   22720 0353D 1   1.00000     0.00000
 Structure written by MMmdl.
 36 37  0  0  0  0  0  0  0  0  2 V2000
  147.5708  140.3137  153.2464 C   0  0  0  0  0  0  0  0  0  0  0  0
  148.4287  140.8225  154.4103 C   0  0  0  0  0  0  0  0  0  0  0  0
  149.6418  139.9727  154.6374 C   0  0  0  0  0  0  0  0  0  0  0  0
  150.0099  138.8562  153.9324 C   0  0  0  0  0  0  0  0  0  0  0  0
  151.4894  138.1705  154.5408 S   0  0  0  0  0  0  0  0  0  0  0  0
  151.5712  139.4508  155.7531 C   0  0  0  0  0  0  0  0  0  0  0  0
  152.5390  139.5776  156.6754 N   0  5  0  0  0  0  0  0  0  0  0  0
  152.2237  139.9380  157.9403 C   0  0  0  0  0  0  0  0  0  0  0  0
  151.0879  140.1027  158.3919 O   0  0  0  0  0  0  0  0  0  0  0  0
  153.2912  140.1220  158.7304 N   0  0  0  0  0  0  0  0  0  0  0  0
  153.2607  140.5168  160.1360 C   0  0  1  0  0  0  0  0  0  0  0  0
  154.6487  140.3404  160.7541 C   0  0  0  0  0  0  0  0  0  0  0  0
  154.6226  140.7119  162.2414 C   0  0  0  0  0  0  0  0  0  0  0  0
  153.9192  142.0466  162.5315 C   0  0  0  0  0  0  0  0  0  0  0  0
  154.1451  142.5989  163.6088 O   0  0  0  0  0  0  0  0  0  0  0  0
  153.0565  142.5559  161.6189 N   0  0  0  0  0  0  0  0  0  0  0  0
  152.3486  143.8083  161.8899 C   0  0  0  0  0  0  0  0  0  0  0  0
  152.8085  141.9825  160.2870 C   0  0  0  0  0  0  0  0  0  0  0  0
  150.5332  140.2898  155.6658 N   0  0  0  0  0  0  0  0  0  0  0  0
  146.6969  140.9488  153.1008 H   0  0  0  0  0  0  0  0  0  0  0  0
  147.2175  139.2988  153.4315 H   0  0  0  0  0  0  0  0  0  0  0  0
  148.1377  140.3064  152.3151 H   0  0  0  0  0  0  0  0  0  0  0  0
  148.7261  141.8527  154.2127 H   0  0  0  0  0  0  0  0  0  0  0  0
  147.8223  140.8552  155.3163 H   0  0  0  0  0  0  0  0  0  0  0  0
  149.5028  138.3952  153.0982 H   0  0  0  0  0  0  0  0  0  0  0  0
  154.2007  139.9748  158.3178 H   0  0  0  0  0  0  0  0  0  0  0  0
  152.5656  139.8682  160.6729 H   0  0  0  0  0  0  0  0  0  0  0  0
  154.9833  139.3085  160.6412 H   0  0  0  0  0  0  0  0  0  0  0  0
  155.3761  140.9623  160.2298 H   0  0  0  0  0  0  0  0  0  0  0  0
  154.0988  139.9357  162.8004 H   0  0  0  0  0  0  0  0  0  0  0  0
  155.6397  140.7448  162.6331 H   0  0  0  0  0  0  0  0  0  0  0  0
  151.6754  143.6896  162.7399 H   0  0  0  0  0  0  0  0  0  0  0  0
  151.7515  144.1367  161.0382 H   0  0  0  0  0  0  0  0  0  0  0  0
  153.0526  144.6095  162.1197 H   0  0  0  0  0  0  0  0  0  0  0  0
  153.3357  142.6055  159.5627 H   0  0  0  0  0  0  0  0  0  0  0  0
  151.7470  142.0570  160.0454 H   0  0  0  0  0  0  0  0  0  0  0  0
  1  2  1  0  0  0  0
  1 20  1  0  0  0  0
  1 21  1  0  0  0  0
  1 22  1  0  0  0  0
  2  3  1  0  0  0  0
  2 23  1  0  0  0  0
  2 24  1  0  0  0  0
  3 19  1  0  0  0  0
  3  4  2  0  0  0  0
  4  5  1  0  0  0  0
  4 25  1  0  0  0  0
  5  6  1  0  0  0  0
  6  7  1  0  0  0  0
  6 19  2  0  0  0  0
  7  8  1  0  0  0  0
  8  9  2  0  0  0  0
  8 10  1  0  0  0  0
 10 11  1  0  0  0  0
 10 26  1  0  0  0  0
 11 18  1  0  0  0  0
 11 12  1  0  0  0  0
 11 27  1  0  0  0  0
 12 13  1  0  0  0  0
 12 28  1  0  0  0  0
 12 29  1  0  0  0  0
 13 14  1  0  0  0  0
 13 30  1  0  0  0  0
 13 31  1  0  0  0  0
 14 15  2  0  0  0  0
 14 16  1  0  0  0  0
 16 17  1  0  0  0  0
 16 18  1  0  0  0  0
 17 32  1  0  0  0  0
 17 33  1  0  0  0  0
 17 34  1  0  0  0  0
 18 35  1  0  0  0  0
 18 36  1  0  0  0  0
M  CHG  1   7  -1
M  END
> <s_m_source_file>
AV-unprocessed.smi

> <i_m_source_file_index>
692

> <i_lp_mmshare_version>
43012

> <i_f3d_flags>
0

> <s_epik_input>
W0NIM11bQ0gyXWMxW2NIXXNjKG4xKVtOSF1DKD1PKVtOSF1bQ0BASF0yW0NIMl1bQ0gyXUMoPU8pTihbQ0gzXSlbQ0gyXTI=

> <s_epik_cmdline>
J2VwaWtfcHl0aG9uJywgJy1waCcsICc3LjAnLCAnLXRuJywgJzgnLCAnLW1hJywgJzIwMCcsICctbWV0YWxfYmluZGluZycsICctaW1hZScsICc8aW5maWxlLm1hZT4nLCAnLW9tYWUnLCAnPG91dGZpbGUubWFlPic=

> <r_lp_tautomer_probability>
1

> <r_epik_Ionization_Penalty>
7.06728

> <r_epik_Ionization_Penalty_Charging>
5.78908

> <r_epik_Ionization_Penalty_Neutral>
1.2782

> <r_epik_State_Penalty>
5.78905

> <r_epik_Charging_Adjusted_Penalty>
11.5781

> <i_epik_Tot_Q>
-1

> <i_epik_Tot_abs_Q>
1

> <r_epik_Metal_State_Penalty>
1.76044

> <b_epik_Metal_Only>
1

> <s_lp_Force_Field>
OPLS_2005

> <r_lp_Energy>
4.22105

> <b_lp_Chiralities_Consistent>
1

> <s_lp_Variant>
AV-unprocessed.smi:692-4

> <Gold.Version>
5.8.1

> <Gold.Id.Protein>
6NUR|6NUR_protein|mol2

> <Gold.PLP.Fitness>
50.5942

> <Gold.PLP.PLP>
-40.7777

> <Gold.PLP.part.hbond>
-1.9987

> <Gold.PLP.part.metal>
0.0000

> <Gold.PLP.part.buried>
0.3952

> <Gold.PLP.part.nonpolar>
-38.9166

> <Gold.PLP.part.repulsive>
0.7423

> <Gold.PLP.ligand.clash>
0.0000

> <Gold.PLP.ligand.torsion>
0.4279

> <Gold.PLP.Chemscore.Hbond>
2.0000

> <Gold.PLP.Chemscore.CHOScore>
1.5283

> <Gold.PLP.Chemscore.Metal>
0.0000

> <Gold.Chemscore.Hbonds>
donor molecule, donor type, donor heavy atom, donor atom, acceptor molecule, acceptor atom, score
      P1  H  7997  8010       L1     7  2.00
      L1  C     4    25       P1  7948  1.00
      L1  C     4    25       P1  7957  0.55

> <Gold.PLP.Chemscore.Internal.Correction>
0.0874

> <Gold.Rescore>
     Score         DG    S(hbond)    S(metal)    S(lipo)     H(rot)  DE(clash)    DE(int)     intcor
     13.12     -15.39       0.92        0.00      85.20       1.23       0.40       1.87       ----

> <Gold.Chemscore.Fitness>
13.1209

> <Gold.Chemscore.DG>
-15.3898

> <Gold.Chemscore.ZeroCoef>
-5.4800

> <Gold.Chemscore.Hbond>
0.9216

> <Gold.Chemscore.Metal>
0.0000

> <Gold.Chemscore.Lipo>
85.1966

> <Gold.Chemscore.Internal_Hbond>
0.0000

> <Gold.Chemscore.DEClash>
0.4003

> <Gold.Chemscore.DEInternal>
1.8687

> <Gold.Chemscore.Rot>
1.2251

> <Gold.Chemscore.Internal.Correction>
   9.000000E+99

> <Gold.Chemscore.Hbonds>
donor molecule, donor type, donor heavy atom, donor atom, acceptor molecule, acceptor atom, score
      P1  H  7997  8010       L1     7  0.26

> <Gold.Chemscore.Hbond.Weighted>
-3.0781

> <Gold.Chemscore.Metal.Weighted>
-0.0000

> <Gold.Chemscore.Lipo.Weighted>
-9.9680

> <Gold.Chemscore.Internal_Hbond.Weighted>
0.0000

> <Gold.Chemscore.DEClash.Weighted>
0.4003

> <Gold.Chemscore.DEInternal.Weighted>
1.8687

> <Gold.Chemscore.Rot.Weighted>
3.1362

> <Gold.Chemscore.Internal.Correction.Weighted>
   9.000000E+99

> <Gold.Protein.RotatedTorsions>
[ 6907 6896 6895 6894 ] final   84.17 input  -60.11 | X-H torsion
[ 7974 7965 7964 7962 ] final   32.17 input  175.53 | X-H torsion
[ 8008 7997 7996 7995 ] final   58.52 input   59.86 | X-H torsion
[ 10167 10162 10161 10158 ] final -169.28 input  -65.29 | X-H torsion
[ 10718 10713 10712 10709 ] final  -28.40 input   66.30 | X-H torsion
[ 10763 10752 10751 10750 ] final   59.98 input  -60.55 | X-H torsion
[ 11005 11000 10999 10996 ] final  166.20 input  -57.11 | X-H torsion

> <Gold.Protein.ActiveResidues>
 VAL166  LYS551  ARG553  GLY616  TRP617  ASP618  TYR619  PRO620  LYS621  CYS622 
 ASP623  PHE694  ASN695  SER759  ASP760  ASP761  ALA762  ILE779  LEU786  VAL792 
 PHE793  MET794  SER795  GLU796  ALA797  LYS798  CYS799  TRP800  GLU811  SER814 

> <Gold.Protein.RotatedAtoms>
  152.5346  134.2782  159.8996 H   0  0  0  0  0  0  0  0  0  0  0  0  # atno 6907 bound_to 6896
  151.2736  133.4236  159.2630 H   0  0  0  0  0  0  0  0  0  0  0  0  # atno 6908 bound_to 6896
  151.0345  134.9578  159.8185 H   0  0  0  0  0  0  0  0  0  0  0  0  # atno 6909 bound_to 6896
  146.1504  139.6561  142.9103 H   0  0  0  0  0  0  0  0  0  0  0  0  # atno 7974 bound_to 7965
  155.5513  140.3486  155.4469 H   0  0  0  0  0  0  0  0  0  0  0  0  # atno 8008 bound_to 7997
  156.0581  140.1333  156.9999 H   0  0  0  0  0  0  0  0  0  0  0  0  # atno 8009 bound_to 7997
  154.4466  140.0991  156.6460 H   0  0  0  0  0  0  0  0  0  0  0  0  # atno 8010 bound_to 7997
  139.5933  144.1167  152.1659 H   0  0  0  0  0  0  0  0  0  0  0  0  # atno 10167 bound_to 10162
  156.4257  130.4435  149.7152 H   0  0  0  0  0  0  0  0  0  0  0  0  # atno 10718 bound_to 10713
  152.9908  135.5552  154.5800 H   0  0  0  0  0  0  0  0  0  0  0  0  # atno 10763 bound_to 10752
  154.5183  135.2806  155.1286 H   0  0  0  0  0  0  0  0  0  0  0  0  # atno 10764 bound_to 10752
  154.2650  135.6374  153.5341 H   0  0  0  0  0  0  0  0  0  0  0  0  # atno 10765 bound_to 10752
  140.2639  134.7880  157.3615 H   0  0  0  0  0  0  0  0  0  0  0  0  # atno 11005 bound_to 11000
  145.4838  141.0438  143.2631 LP  0  0  0  0  0  0  0  0  0  0  0  0  # atno 17320 bound_to 7965
  144.7897  139.6354  143.7119 LP  0  0  0  0  0  0  0  0  0  0  0  0  # atno 17321 bound_to 7965
  140.0746  144.5751  150.7166 LP  0  0  0  0  0  0  0  0  0  0  0  0  # atno 17342 bound_to 10162
  140.7191  143.2571  151.4338 LP  0  0  0  0  0  0  0  0  0  0  0  0  # atno 17343 bound_to 10162
  156.4075  130.7705  151.2717 LP  0  0  0  0  0  0  0  0  0  0  0  0  # atno 17370 bound_to 10713
  157.7508  131.0221  150.3779 LP  0  0  0  0  0  0  0  0  0  0  0  0  # atno 17371 bound_to 10713
  140.1438  134.4938  155.8012 LP  0  0  0  0  0  0  0  0  0  0  0  0  # atno 17394 bound_to 11000
  141.2186  133.6835  156.7257 LP  0  0  0  0  0  0  0  0  0  0  0  0  # atno 17395 bound_to 11000

$$$$
