AV-unprocessed.smi:290|AV-procd|sdf|2244|dock5
  -GOLD-   2262022123D 1   1.00000     0.00000
 Structure written by MMmdl.
 59 62  0  0  0  0  0  0  0  0  2 V2000
  152.0129  145.2244  158.1752 C   0  0  0  0  0  0  0  0  0  0  0  0
  152.3326  143.7201  158.1178 C   0  0  1  0  0  0  0  0  0  0  0  0
  152.8016  143.2680  159.3874 O   0  0  0  0  0  0  0  0  0  0  0  0
  151.9629  142.2316  159.8763 C   0  0  0  0  0  0  0  0  0  0  0  0
  151.4044  141.5803  158.6183 C   0  0  0  0  0  0  0  0  0  0  0  0
  151.1782  142.7732  157.7022 C   0  0  1  0  0  0  0  0  0  0  0  0
  149.9176  143.3402  158.0227 O   0  0  0  0  0  0  0  0  0  0  0  0
  151.1744  142.3774  156.2056 C   0  0  0  0  0  0  0  0  0  0  0  0
  150.5906  141.0692  155.9553 N   0  0  0  0  0  0  0  0  0  0  0  0
  149.2513  140.7570  155.9383 C   0  0  0  0  0  0  0  0  0  0  0  0
  148.9769  139.5111  155.6685 N   0  0  0  0  0  0  0  0  0  0  0  0
  150.2192  138.9094  155.4949 C   0  0  0  0  0  0  0  0  0  0  0  0
  150.6596  137.5891  155.1757 C   0  0  0  0  0  0  0  0  0  0  0  0
  149.8356  136.5335  154.9303 N   0  0  0  0  0  0  0  0  0  0  0  0
  148.3833  136.6670  154.9866 C   0  0  0  0  0  0  0  0  0  0  0  0
  147.8296  135.2358  154.9811 C   0  0  0  0  0  0  0  0  0  0  0  0
  149.0272  134.3685  154.5550 C   0  0  2  0  0  0  0  0  0  0  0  0
  148.9653  132.9288  154.9473 N   0  3  2  0  0  0  0  0  0  0  0  0
  150.2999  132.2790  154.8832 C   0  0  0  0  0  0  0  0  0  0  0  0
  147.9362  132.1377  154.2164 C   0  0  0  0  0  0  0  0  0  0  0  0
  147.7630  132.6090  152.7620 C   0  0  0  0  0  0  0  0  0  0  0  0
  146.9546  131.6930  152.0536 O   0  0  0  0  0  0  0  0  0  0  0  0
  150.2153  135.1459  155.1601 C   0  0  2  0  0  0  0  0  0  0  0  0
  150.4366  134.8712  156.6673 C   0  0  0  0  0  0  0  0  0  0  0  0
  152.0024  137.3826  155.1235 N   0  0  0  0  0  0  0  0  0  0  0  0
  152.8569  138.3857  155.3403 C   0  0  0  0  0  0  0  0  0  0  0  0
  152.5890  139.6601  155.6237 N   0  0  0  0  0  0  0  0  0  0  0  0
  151.2456  139.8785  155.6937 C   0  0  0  0  0  0  0  0  0  0  0  0
  149.1001  134.4188  153.4664 H   0  0  0  0  0  0  0  0  0  0  0  0
  151.1154  134.9028  154.5983 H   0  0  0  0  0  0  0  0  0  0  0  0
  151.6455  145.5915  157.2172 H   0  0  0  0  0  0  0  0  0  0  0  0
  152.9062  145.7970  158.4250 H   0  0  0  0  0  0  0  0  0  0  0  0
  151.2612  145.4466  158.9331 H   0  0  0  0  0  0  0  0  0  0  0  0
  153.1709  143.5734  157.4367 H   0  0  0  0  0  0  0  0  0  0  0  0
  152.5141  141.5325  160.5054 H   0  0  0  0  0  0  0  0  0  0  0  0
  151.1618  142.6702  160.4727 H   0  0  0  0  0  0  0  0  0  0  0  0
  152.1586  140.9151  158.1956 H   0  0  0  0  0  0  0  0  0  0  0  0
  150.5052  140.9907  158.8028 H   0  0  0  0  0  0  0  0  0  0  0  0
  149.7577  144.0617  157.4338 H   0  0  0  0  0  0  0  0  0  0  0  0
  150.6234  143.1152  155.6212 H   0  0  0  0  0  0  0  0  0  0  0  0
  152.1919  142.3779  155.8125 H   0  0  0  0  0  0  0  0  0  0  0  0
  148.4793  141.4899  156.1234 H   0  0  0  0  0  0  0  0  0  0  0  0
  148.0580  137.2062  155.8773 H   0  0  0  0  0  0  0  0  0  0  0  0
  148.0414  137.2168  154.1089 H   0  0  0  0  0  0  0  0  0  0  0  0
  147.4983  134.9655  155.9847 H   0  0  0  0  0  0  0  0  0  0  0  0
  146.9755  135.1428  154.3096 H   0  0  0  0  0  0  0  0  0  0  0  0
  150.6763  132.2655  153.8595 H   0  0  0  0  0  0  0  0  0  0  0  0
  150.2643  131.2514  155.2415 H   0  0  0  0  0  0  0  0  0  0  0  0
  151.0323  132.7970  155.5010 H   0  0  0  0  0  0  0  0  0  0  0  0
  148.1884  131.0798  154.1795 H   0  0  0  0  0  0  0  0  0  0  0  0
  146.9866  132.1967  154.7501 H   0  0  0  0  0  0  0  0  0  0  0  0
  147.2695  133.5812  152.7462 H   0  0  0  0  0  0  0  0  0  0  0  0
  148.7152  132.7325  152.2474 H   0  0  0  0  0  0  0  0  0  0  0  0
  147.3857  131.4748  151.2408 H   0  0  0  0  0  0  0  0  0  0  0  0
  150.7087  133.8330  156.8538 H   0  0  0  0  0  0  0  0  0  0  0  0
  149.5457  135.0887  157.2565 H   0  0  0  0  0  0  0  0  0  0  0  0
  151.2447  135.4828  157.0681 H   0  0  0  0  0  0  0  0  0  0  0  0
  153.9043  138.1309  155.2736 H   0  0  0  0  0  0  0  0  0  0  0  0
  148.6776  132.9229  155.9157 H   0  0  0  0  0  0  0  0  0  0  0  0
  1  2  1  0  0  0  0
  1 31  1  0  0  0  0
  1 32  1  0  0  0  0
  1 33  1  0  0  0  0
  2  6  1  0  0  0  0
  2  3  1  0  0  0  0
  2 34  1  0  0  0  0
  3  4  1  0  0  0  0
  4  5  1  0  0  0  0
  4 35  1  0  0  0  0
  4 36  1  0  0  0  0
  5  6  1  0  0  0  0
  5 37  1  0  0  0  0
  5 38  1  0  0  0  0
  6  7  1  0  0  0  0
  6  8  1  0  0  0  0
  7 39  1  0  0  0  0
  8  9  1  0  0  0  0
  8 40  1  0  0  0  0
  8 41  1  0  0  0  0
  9 28  1  0  0  0  0
  9 10  1  0  0  0  0
 10 11  2  0  0  0  0
 10 42  1  0  0  0  0
 11 12  1  0  0  0  0
 12 28  2  0  0  0  0
 12 13  1  0  0  0  0
 13 14  1  0  0  0  0
 13 25  2  0  0  0  0
 14 23  1  0  0  0  0
 14 15  1  0  0  0  0
 15 16  1  0  0  0  0
 15 43  1  0  0  0  0
 15 44  1  0  0  0  0
 16 17  1  0  0  0  0
 16 45  1  0  0  0  0
 16 46  1  0  0  0  0
 17 29  1  0  0  0  0
 17 18  1  0  0  0  0
 17 23  1  0  0  0  0
 18 19  1  0  0  0  0
 18 20  1  0  0  0  0
 18 59  1  0  0  0  0
 19 47  1  0  0  0  0
 19 48  1  0  0  0  0
 19 49  1  0  0  0  0
 20 21  1  0  0  0  0
 20 50  1  0  0  0  0
 20 51  1  0  0  0  0
 21 22  1  0  0  0  0
 21 52  1  0  0  0  0
 21 53  1  0  0  0  0
 22 54  1  0  0  0  0
 23 30  1  0  0  0  0
 23 24  1  0  0  0  0
 24 55  1  0  0  0  0
 24 56  1  0  0  0  0
 24 57  1  0  0  0  0
 25 26  1  0  0  0  0
 26 27  2  0  0  0  0
 26 58  1  0  0  0  0
 27 28  1  0  0  0  0
M  CHG  1  18   1
M  END
> <s_m_source_file>
AV-unprocessed.smi

> <i_m_source_file_index>
290

> <i_lp_mmshare_version>
43012

> <i_f3d_flags>
0

> <s_epik_input>
W0NIMl0xW0NIMl1PW0NAQEhdKFtDSDNdKVtDQEBdMShbT0hdKVtDSDJdbihbY0hdbjIpYyhjMjMpbltjSF1uYzNONFtDSDJdW0NIMl1bQ0BIXShbQ0BIXTRbQ0gzXSlOKFtDSDNdKVtDSDJdW0NIMl1bT0hd

> <s_epik_cmdline>
J2VwaWtfcHl0aG9uJywgJy1waCcsICc3LjAnLCAnLXRuJywgJzgnLCAnLW1hJywgJzIwMCcsICctbWV0YWxfYmluZGluZycsICctaW1hZScsICc8aW5maWxlLm1hZT4nLCAnLW9tYWUnLCAnPG91dGZpbGUubWFlPic=

> <r_lp_tautomer_probability>
1

> <r_epik_Ionization_Penalty>
0.0036983

> <r_epik_Ionization_Penalty_Charging>
0.0032725

> <r_epik_Ionization_Penalty_Neutral>
0.000425798

> <r_epik_State_Penalty>
-0

> <r_epik_Charging_Adjusted_Penalty>
0.0032725

> <i_epik_Tot_Q>
1

> <i_epik_Tot_abs_Q>
1

> <r_epik_Metal_State_Penalty>
-0

> <b_epik_Metal_Only>
0

> <s_lp_Force_Field>
OPLS_2005

> <r_lp_Energy>
62.044

> <b_lp_Chiralities_Consistent>
1

> <s_lp_Variant>
AV-unprocessed.smi:290-30

> <Gold.Version>
5.8.1

> <Gold.Id.Protein>
6NUR|6NUR_protein|mol2

> <Gold.PLP.Fitness>
52.0172

> <Gold.PLP.PLP>
-43.1987

> <Gold.PLP.part.hbond>
-4.0000

> <Gold.PLP.part.metal>
0.0000

> <Gold.PLP.part.buried>
-7.7430

> <Gold.PLP.part.nonpolar>
-32.3487

> <Gold.PLP.part.repulsive>
0.0873

> <Gold.PLP.ligand.clash>
0.0000

> <Gold.PLP.ligand.torsion>
1.4014

> <Gold.PLP.Chemscore.Hbond>
3.7553

> <Gold.PLP.Chemscore.CHOScore>
0.0000

> <Gold.PLP.Chemscore.Metal>
0.0000

> <Gold.Chemscore.Hbonds>
donor molecule, donor type, donor heavy atom, donor atom, acceptor molecule, acceptor atom, score
      L1  H     7    39       P1  8028  0.90
      L1  H    22    54       P1 10747  1.00
      P1  H  7997  8010       L1    27  0.85
      P1  H 10752 10765       L1    25  0.79

> <Gold.PLP.Chemscore.Internal.Correction>
0.3555

> <Gold.Rescore>
     Score         DG    S(hbond)    S(metal)    S(lipo)     H(rot)  DE(clash)    DE(int)     intcor
     14.26     -17.32       2.64        0.00      99.14       3.35       0.54       2.52       ----

> <Gold.Chemscore.Fitness>
14.2581

> <Gold.Chemscore.DG>
-17.3160

> <Gold.Chemscore.ZeroCoef>
-5.4800

> <Gold.Chemscore.Hbond>
2.6400

> <Gold.Chemscore.Metal>
0.0000

> <Gold.Chemscore.Lipo>
99.1378

> <Gold.Chemscore.Internal_Hbond>
0.0000

> <Gold.Chemscore.DEClash>
0.5352

> <Gold.Chemscore.DEInternal>
2.5227

> <Gold.Chemscore.Rot>
3.3518

> <Gold.Chemscore.Internal.Correction>
   9.000000E+99

> <Gold.Chemscore.Hbonds>
donor molecule, donor type, donor heavy atom, donor atom, acceptor molecule, acceptor atom, score
      L1  H     7    39       P1  8028  0.37
      L1  H    22    54       P1 10747  0.93
      P1  H  7997  8010       L1    27  0.14
      P1  H 10752 10765       L1    25  0.64

> <Gold.Chemscore.Hbond.Weighted>
-8.8175

> <Gold.Chemscore.Metal.Weighted>
-0.0000

> <Gold.Chemscore.Lipo.Weighted>
-11.5991

> <Gold.Chemscore.Internal_Hbond.Weighted>
0.0000

> <Gold.Chemscore.DEClash.Weighted>
0.5352

> <Gold.Chemscore.DEInternal.Weighted>
2.5227

> <Gold.Chemscore.Rot.Weighted>
8.5806

> <Gold.Chemscore.Internal.Correction.Weighted>
   9.000000E+99

> <Gold.Protein.RotatedTorsions>
[ 6907 6896 6895 6894 ] final  178.46 input  -60.11 | X-H torsion
[ 7974 7965 7964 7962 ] final -122.12 input  175.53 | X-H torsion
[ 8008 7997 7996 7995 ] final   71.21 input   59.86 | X-H torsion
[ 10167 10162 10161 10158 ] final -107.64 input  -65.29 | X-H torsion
[ 10718 10713 10712 10709 ] final  178.55 input   66.30 | X-H torsion
[ 10763 10752 10751 10750 ] final  179.77 input  -60.55 | X-H torsion
[ 11005 11000 10999 10996 ] final  -63.85 input  -57.11 | X-H torsion

> <Gold.Protein.ActiveResidues>
 VAL166  LYS551  ARG553  GLY616  TRP617  ASP618  TYR619  PRO620  LYS621  CYS622 
 ASP623  PHE694  ASN695  SER759  ASP760  ASP761  ALA762  ILE779  LEU786  VAL792 
 PHE793  MET794  SER795  GLU796  ALA797  LYS798  CYS799  TRP800  GLU811  SER814 

> <Gold.Protein.RotatedAtoms>
  151.6875  133.3311  159.3234 H   0  0  0  0  0  0  0  0  0  0  0  0  # atno 6907 bound_to 6896
  150.7794  134.6727  159.6410 H   0  0  0  0  0  0  0  0  0  0  0  0  # atno 6908 bound_to 6896
  152.3847  134.6539  160.0182 H   0  0  0  0  0  0  0  0  0  0  0  0  # atno 6909 bound_to 6896
  145.0329  140.8082  143.4312 H   0  0  0  0  0  0  0  0  0  0  0  0  # atno 7974 bound_to 7965
  155.7505  140.3488  155.5148 H   0  0  0  0  0  0  0  0  0  0  0  0  # atno 8008 bound_to 7997
  155.9009  140.1034  157.1371 H   0  0  0  0  0  0  0  0  0  0  0  0  # atno 8009 bound_to 7997
  154.4044  140.1286  156.4422 H   0  0  0  0  0  0  0  0  0  0  0  0  # atno 8010 bound_to 7997
  140.1747  143.4014  152.1327 H   0  0  0  0  0  0  0  0  0  0  0  0  # atno 10167 bound_to 10162
  156.8890  130.9841  151.3052 H   0  0  0  0  0  0  0  0  0  0  0  0  # atno 10718 bound_to 10713
  154.5249  135.2796  155.1230 H   0  0  0  0  0  0  0  0  0  0  0  0  # atno 10763 bound_to 10752
  154.2773  135.6292  153.5337 H   0  0  0  0  0  0  0  0  0  0  0  0  # atno 10764 bound_to 10752
  152.9944  135.5643  154.5747 H   0  0  0  0  0  0  0  0  0  0  0  0  # atno 10765 bound_to 10752
  141.1406  133.6657  156.5743 H   0  0  0  0  0  0  0  0  0  0  0  0  # atno 11005 bound_to 11000
  145.1747  139.2385  143.5324 LP  0  0  0  0  0  0  0  0  0  0  0  0  # atno 17320 bound_to 7965
  146.3501  140.1506  142.8592 LP  0  0  0  0  0  0  0  0  0  0  0  0  # atno 17321 bound_to 7965
  139.5322  144.7171  151.5016 LP  0  0  0  0  0  0  0  0  0  0  0  0  # atno 17342 bound_to 10162
  140.6559  143.8601  150.6834 LP  0  0  0  0  0  0  0  0  0  0  0  0  # atno 17343 bound_to 10162
  157.6095  130.8572  149.8929 LP  0  0  0  0  0  0  0  0  0  0  0  0  # atno 17370 bound_to 10713
  156.0639  130.3695  150.0922 LP  0  0  0  0  0  0  0  0  0  0  0  0  # atno 17371 bound_to 10713
  140.3888  134.7459  157.4708 LP  0  0  0  0  0  0  0  0  0  0  0  0  # atno 17394 bound_to 11000
  140.0582  134.6033  155.8780 LP  0  0  0  0  0  0  0  0  0  0  0  0  # atno 17395 bound_to 11000

$$$$
