AV-unprocessed.smi:713|AV-procd|sdf|3477|dock7
  -GOLD-   22720 0473D 1   1.00000     0.00000
 Structure written by MMmdl.
 41 42  0  0  0  0  0  0  0  0  1 V2000
  145.5678  135.6498  151.5168 C   0  0  0  0  0  0  0  0  0  0  0  0
  146.1940  134.2593  151.3041 C   0  0  1  0  0  0  0  0  0  0  0  0
  146.7474  133.6586  152.6046 C   0  0  0  0  0  0  0  0  0  0  0  0
  146.2906  132.6065  153.0540 O   0  0  0  0  0  0  0  0  0  0  0  0
  147.7391  134.3412  153.1986 N   0  0  0  0  0  0  0  0  0  0  0  0
  148.4153  133.9472  154.4304 C   0  0  1  0  0  0  0  0  0  0  0  0
  149.2144  132.6538  154.1898 C   0  0  0  0  0  0  0  0  0  0  0  0
  149.9792  132.2281  155.4526 C   0  0  0  0  0  0  0  0  0  0  0  0
  150.8964  133.3538  155.9549 C   0  0  0  0  0  0  0  0  0  0  0  0
  150.1098  134.6544  156.2006 C   0  0  1  0  0  0  0  0  0  0  0  0
  151.2658  135.9873  156.7588 S   0  0  0  0  0  0  0  0  0  0  0  0
  151.1677  137.2127  155.3881 C   0  0  0  0  0  0  0  0  0  0  0  0
  150.7076  136.6023  157.9725 O   0  0  0  0  0  0  0  0  0  0  0  0
  152.6326  135.4445  156.7839 O   0  0  0  0  0  0  0  0  0  0  0  0
  149.3400  135.0753  154.9329 C   0  0  0  0  0  0  0  0  0  0  0  0
  145.2427  133.3432  150.6883 N   0  0  0  0  0  0  0  0  0  0  0  0
  145.4781  132.1216  150.0870 C   0  0  0  0  0  0  0  0  0  0  0  0
  144.2755  131.6366  149.6598 C   0  0  0  0  0  0  0  0  0  0  0  0
  143.3488  132.6435  150.0475 C   0  0  0  0  0  0  0  0  0  0  0  0
  143.9291  133.6617  150.6617 N   0  0  0  0  0  0  0  0  0  0  0  0
  146.2809  136.3377  151.9721 H   0  0  0  0  0  0  0  0  0  0  0  0
  144.6888  135.6070  152.1611 H   0  0  0  0  0  0  0  0  0  0  0  0
  145.2576  136.0837  150.5657 H   0  0  0  0  0  0  0  0  0  0  0  0
  147.0349  134.3862  150.6188 H   0  0  0  0  0  0  0  0  0  0  0  0
  148.0549  135.1937  152.7584 H   0  0  0  0  0  0  0  0  0  0  0  0
  147.6616  133.7422  155.1933 H   0  0  0  0  0  0  0  0  0  0  0  0
  148.5443  131.8514  153.8788 H   0  0  0  0  0  0  0  0  0  0  0  0
  149.9213  132.8012  153.3718 H   0  0  0  0  0  0  0  0  0  0  0  0
  149.2705  131.9573  156.2361 H   0  0  0  0  0  0  0  0  0  0  0  0
  150.5681  131.3341  155.2461 H   0  0  0  0  0  0  0  0  0  0  0  0
  151.3932  133.0381  156.8726 H   0  0  0  0  0  0  0  0  0  0  0  0
  151.6857  133.5343  155.2240 H   0  0  0  0  0  0  0  0  0  0  0  0
  149.4007  134.4889  157.0125 H   0  0  0  0  0  0  0  0  0  0  0  0
  151.7449  138.0971  155.6566 H   0  0  0  0  0  0  0  0  0  0  0  0
  150.1288  137.4978  155.2249 H   0  0  0  0  0  0  0  0  0  0  0  0
  151.5800  136.7867  154.4744 H   0  0  0  0  0  0  0  0  0  0  0  0
  150.0466  135.3449  154.1467 H   0  0  0  0  0  0  0  0  0  0  0  0
  148.7491  135.9676  155.1359 H   0  0  0  0  0  0  0  0  0  0  0  0
  146.4717  131.7037  150.0147 H   0  0  0  0  0  0  0  0  0  0  0  0
  144.0872  130.7042  149.1485 H   0  0  0  0  0  0  0  0  0  0  0  0
  142.2787  132.6646  149.9027 H   0  0  0  0  0  0  0  0  0  0  0  0
  1  2  1  0  0  0  0
  1 21  1  0  0  0  0
  1 22  1  0  0  0  0
  1 23  1  0  0  0  0
  2  3  1  0  0  0  0
  2 16  1  0  0  0  0
  2 24  1  0  0  0  0
  3  4  2  0  0  0  0
  3  5  1  0  0  0  0
  5  6  1  0  0  0  0
  5 25  1  0  0  0  0
  6 15  1  0  0  0  0
  6  7  1  0  0  0  0
  6 26  1  0  0  0  0
  7  8  1  0  0  0  0
  7 27  1  0  0  0  0
  7 28  1  0  0  0  0
  8  9  1  0  0  0  0
  8 29  1  0  0  0  0
  8 30  1  0  0  0  0
  9 10  1  0  0  0  0
  9 31  1  0  0  0  0
  9 32  1  0  0  0  0
 10 11  1  0  0  0  0
 10 15  1  0  0  0  0
 10 33  1  0  0  0  0
 11 12  1  0  0  0  0
 11 13  2  0  0  0  0
 11 14  2  0  0  0  0
 12 34  1  0  0  0  0
 12 35  1  0  0  0  0
 12 36  1  0  0  0  0
 15 37  1  0  0  0  0
 15 38  1  0  0  0  0
 16 20  1  0  0  0  0
 16 17  1  0  0  0  0
 17 18  2  0  0  0  0
 17 39  1  0  0  0  0
 18 19  1  0  0  0  0
 18 40  1  0  0  0  0
 19 20  2  0  0  0  0
 19 41  1  0  0  0  0
M  END
> <s_m_source_file>
AV-unprocessed.smi

> <i_m_source_file_index>
713

> <i_lp_mmshare_version>
43012

> <i_f3d_flags>
0

> <s_epik_input>
bjFbY0hdW2NIXVtjSF1uMVtDQEhdKFtDSDNdKUMoPU8pW05IXVtDQEBIXTJbQ0gyXVtDSDJdW0NIMl1bQ0BIXShbQ0gyXTIpUyg9TykoPU8pW0NIM10=

> <s_epik_cmdline>
J2VwaWtfcHl0aG9uJywgJy1waCcsICc3LjAnLCAnLXRuJywgJzgnLCAnLW1hJywgJzIwMCcsICctbWV0YWxfYmluZGluZycsICctaW1hZScsICc8aW5maWxlLm1hZT4nLCAnLW9tYWUnLCAnPG91dGZpbGUubWFlPic=

> <r_lp_tautomer_probability>
1

> <r_epik_Ionization_Penalty>
4.07816e-05

> <r_epik_Ionization_Penalty_Charging>
0

> <r_epik_Ionization_Penalty_Neutral>
4.07816e-05

> <r_epik_State_Penalty>
-0

> <r_epik_Charging_Adjusted_Penalty>
0

> <i_epik_Tot_Q>
0

> <i_epik_Tot_abs_Q>
0

> <r_epik_Metal_State_Penalty>
-0

> <b_epik_Metal_Only>
0

> <s_lp_Force_Field>
OPLS_2005

> <r_lp_Energy>
7.49251

> <b_lp_Chiralities_Consistent>
1

> <s_lp_Variant>
AV-unprocessed.smi:713-4

> <Gold.Version>
5.8.1

> <Gold.Id.Protein>
6NUR|6NUR_protein|mol2

> <Gold.PLP.Fitness>
46.5129

> <Gold.PLP.PLP>
-31.5154

> <Gold.PLP.part.hbond>
-3.0000

> <Gold.PLP.part.metal>
0.0000

> <Gold.PLP.part.buried>
-2.4855

> <Gold.PLP.part.nonpolar>
-27.4136

> <Gold.PLP.part.repulsive>
0.2976

> <Gold.PLP.ligand.clash>
0.0000

> <Gold.PLP.ligand.torsion>
0.5342

> <Gold.PLP.Chemscore.Hbond>
2.8000

> <Gold.PLP.Chemscore.CHOScore>
2.4881

> <Gold.PLP.Chemscore.Metal>
0.0000

> <Gold.Chemscore.Hbonds>
donor molecule, donor type, donor heavy atom, donor atom, acceptor molecule, acceptor atom, score
      L1  H     5    25       P1  7948  1.00
      P1  H 10752 10763       L1    14  1.00
      L1  C    17    39       P1 10747  0.71
      L1  C    19    41       P1 10186  0.97
      L1  C    19    41       P1 10952  0.40

> <Gold.PLP.Chemscore.Internal.Correction>
0.2015

> <Gold.Rescore>
     Score         DG    S(hbond)    S(metal)    S(lipo)     H(rot)  DE(clash)    DE(int)     intcor
     17.86     -19.27       2.73        0.00      77.79       1.72       0.75       0.67       ----

> <Gold.Chemscore.Fitness>
17.8566

> <Gold.Chemscore.DG>
-19.2717

> <Gold.Chemscore.ZeroCoef>
-5.4800

> <Gold.Chemscore.Hbond>
2.7265

> <Gold.Chemscore.Metal>
0.0000

> <Gold.Chemscore.Lipo>
77.7853

> <Gold.Chemscore.Internal_Hbond>
0.0000

> <Gold.Chemscore.DEClash>
0.7482

> <Gold.Chemscore.DEInternal>
0.6669

> <Gold.Chemscore.Rot>
1.7249

> <Gold.Chemscore.Internal.Correction>
   9.000000E+99

> <Gold.Chemscore.Hbonds>
donor molecule, donor type, donor heavy atom, donor atom, acceptor molecule, acceptor atom, score
      L1  H     5    25       P1  7948  0.96
      P1  H  6896  6907       L1    13  0.03
      P1  H 10752 10763       L1    14  0.78

> <Gold.Chemscore.Hbond.Weighted>
-9.1065

> <Gold.Chemscore.Metal.Weighted>
-0.0000

> <Gold.Chemscore.Lipo.Weighted>
-9.1009

> <Gold.Chemscore.Internal_Hbond.Weighted>
0.0000

> <Gold.Chemscore.DEClash.Weighted>
0.7482

> <Gold.Chemscore.DEInternal.Weighted>
0.6669

> <Gold.Chemscore.Rot.Weighted>
4.4157

> <Gold.Chemscore.Internal.Correction.Weighted>
   9.000000E+99

> <Gold.Protein.RotatedTorsions>
[ 6907 6896 6895 6894 ] final  -46.77 input  -60.11 | X-H torsion
[ 7974 7965 7964 7962 ] final  132.00 input  175.53 | X-H torsion
[ 8008 7997 7996 7995 ] final  139.02 input   59.86 | X-H torsion
[ 10167 10162 10161 10158 ] final   84.77 input  -65.29 | X-H torsion
[ 10718 10713 10712 10709 ] final  -78.69 input   66.30 | X-H torsion
[ 10763 10752 10751 10750 ] final  101.70 input  -60.55 | X-H torsion
[ 11005 11000 10999 10996 ] final  -53.17 input  -57.11 | X-H torsion

> <Gold.Protein.ActiveResidues>
 VAL166  LYS551  ARG553  GLY616  TRP617  ASP618  TYR619  PRO620  LYS621  CYS622 
 ASP623  PHE694  ASN695  SER759  ASP760  ASP761  ALA762  ILE779  LEU786  VAL792 
 PHE793  MET794  SER795  GLU796  ALA797  LYS798  CYS799  TRP800  GLU811  SER814 

> <Gold.Protein.RotatedAtoms>
  150.9078  134.8493  159.7403 H   0  0  0  0  0  0  0  0  0  0  0  0  # atno 6907 bound_to 6896
  152.4927  134.4406  159.9552 H   0  0  0  0  0  0  0  0  0  0  0  0  # atno 6908 bound_to 6896
  151.4451  133.3593  159.2822 H   0  0  0  0  0  0  0  0  0  0  0  0  # atno 6909 bound_to 6896
  145.0014  139.4309  143.5290 H   0  0  0  0  0  0  0  0  0  0  0  0  # atno 7974 bound_to 7965
  156.2993  140.2378  156.4168 H   0  0  0  0  0  0  0  0  0  0  0  0  # atno 8008 bound_to 7997
  154.8391  140.0429  157.1549 H   0  0  0  0  0  0  0  0  0  0  0  0  # atno 8009 bound_to 7997
  154.9123  140.2992  155.5263 H   0  0  0  0  0  0  0  0  0  0  0  0  # atno 8010 bound_to 7997
  139.9047  144.6308  150.8600 H   0  0  0  0  0  0  0  0  0  0  0  0  # atno 10167 bound_to 10162
  156.0111  130.4525  150.3535 H   0  0  0  0  0  0  0  0  0  0  0  0  # atno 10718 bound_to 10713
  153.3301  135.4035  155.1488 H   0  0  0  0  0  0  0  0  0  0  0  0  # atno 10763 bound_to 10752
  154.8621  135.3608  154.5482 H   0  0  0  0  0  0  0  0  0  0  0  0  # atno 10764 bound_to 10752
  153.5920  135.7073  153.5478 H   0  0  0  0  0  0  0  0  0  0  0  0  # atno 10765 bound_to 10752
  141.0962  133.6624  156.4133 H   0  0  0  0  0  0  0  0  0  0  0  0  # atno 11005 bound_to 11000
  146.3452  139.9404  142.8742 LP  0  0  0  0  0  0  0  0  0  0  0  0  # atno 17320 bound_to 7965
  145.2148  140.9911  143.4079 LP  0  0  0  0  0  0  0  0  0  0  0  0  # atno 17321 bound_to 7965
  140.7699  143.3410  151.2207 LP  0  0  0  0  0  0  0  0  0  0  0  0  # atno 17342 bound_to 10162
  139.6995  143.9557  152.2898 LP  0  0  0  0  0  0  0  0  0  0  0  0  # atno 17343 bound_to 10162
  157.1627  131.0349  151.2833 LP  0  0  0  0  0  0  0  0  0  0  0  0  # atno 17370 bound_to 10713
  157.4298  130.7484  149.6980 LP  0  0  0  0  0  0  0  0  0  0  0  0  # atno 17371 bound_to 10713
  140.5133  134.6374  157.5292 LP  0  0  0  0  0  0  0  0  0  0  0  0  # atno 17394 bound_to 11000
  139.9800  134.7153  155.9877 LP  0  0  0  0  0  0  0  0  0  0  0  0  # atno 17395 bound_to 11000

$$$$
