AV-unprocessed.smi:342|AV-procd|sdf|2386|dock8
  -GOLD-   2262022313D 1   1.00000     0.00000
 Structure written by MMmdl.
 42 44  0  0  0  0  0  0  0  0  2 V2000
  150.4581  142.7368  155.4147 O   0  0  0  0  0  0  0  0  0  0  0  0
  150.0980  141.3747  155.3046 C   0  0  2  0  0  0  0  0  0  0  0  0
  148.8487  141.2606  154.4037 C   0  0  0  0  0  0  0  0  0  0  0  0
  147.7719  142.2023  154.8009 N   0  3  0  0  0  0  0  0  0  0  0  0
  146.7469  142.4131  153.7480 C   0  0  0  0  0  0  0  0  0  0  0  0
  145.6944  143.4300  154.2208 C   0  0  0  0  0  0  0  0  0  0  0  0
  145.1025  142.9764  155.4317 O   0  0  0  0  0  0  0  0  0  0  0  0
  146.0591  142.8513  156.4764 C   0  0  0  0  0  0  0  0  0  0  0  0
  147.1263  141.8174  156.0785 C   0  0  0  0  0  0  0  0  0  0  0  0
  149.8919  140.8232  156.7311 C   0  0  0  0  0  0  0  0  0  0  0  0
  151.1244  140.7874  157.5087 N   0  0  0  0  0  0  0  0  0  0  0  0
  152.0632  139.8054  157.5709 C   0  0  0  0  0  0  0  0  0  0  0  0
  151.9406  138.5193  156.8006 C   0  0  0  0  0  0  0  0  0  0  0  0
  152.9934  137.7300  157.0185 F   0  0  0  0  0  0  0  0  0  0  0  0
  150.8476  137.8530  157.1723 F   0  0  0  0  0  0  0  0  0  0  0  0
  151.8766  138.7548  155.4906 F   0  0  0  0  0  0  0  0  0  0  0  0
  153.1013  140.0540  158.3724 N   0  0  0  0  0  0  0  0  0  0  0  0
  152.8017  141.2968  158.8914 C   0  0  0  0  0  0  0  0  0  0  0  0
  153.5109  142.1032  159.8098 C   0  0  0  0  0  0  0  0  0  0  0  0
  152.9962  143.3547  160.2064 C   0  0  0  0  0  0  0  0  0  0  0  0
  151.7671  143.8156  159.6925 C   0  0  0  0  0  0  0  0  0  0  0  0
  151.0454  143.0278  158.7753 C   0  0  0  0  0  0  0  0  0  0  0  0
  151.5657  141.7809  158.3785 C   0  0  0  0  0  0  0  0  0  0  0  0
  149.6699  143.2586  155.4330 H   0  0  0  0  0  0  0  0  0  0  0  0
  150.9370  140.8506  154.8503 H   0  0  0  0  0  0  0  0  0  0  0  0
  149.0981  141.4398  153.3571 H   0  0  0  0  0  0  0  0  0  0  0  0
  148.4778  140.2360  154.4566 H   0  0  0  0  0  0  0  0  0  0  0  0
  147.2069  142.7740  152.8293 H   0  0  0  0  0  0  0  0  0  0  0  0
  146.2639  141.4637  153.5103 H   0  0  0  0  0  0  0  0  0  0  0  0
  146.1413  144.4150  154.3657 H   0  0  0  0  0  0  0  0  0  0  0  0
  144.9149  143.5421  153.4670 H   0  0  0  0  0  0  0  0  0  0  0  0
  146.5136  143.8205  156.6885 H   0  0  0  0  0  0  0  0  0  0  0  0
  145.5491  142.5336  157.3858 H   0  0  0  0  0  0  0  0  0  0  0  0
  146.6714  140.8308  155.9758 H   0  0  0  0  0  0  0  0  0  0  0  0
  147.8767  141.7450  156.8668 H   0  0  0  0  0  0  0  0  0  0  0  0
  149.1760  141.4454  157.2700 H   0  0  0  0  0  0  0  0  0  0  0  0
  149.4533  139.8274  156.6885 H   0  0  0  0  0  0  0  0  0  0  0  0
  154.4513  141.7571  160.2127 H   0  0  0  0  0  0  0  0  0  0  0  0
  153.5456  143.9622  160.9106 H   0  0  0  0  0  0  0  0  0  0  0  0
  151.3784  144.7740  160.0046 H   0  0  0  0  0  0  0  0  0  0  0  0
  150.1013  143.3788  158.3864 H   0  0  0  0  0  0  0  0  0  0  0  0
  148.2181  143.0938  154.9658 H   0  0  0  0  0  0  0  0  0  0  0  0
  1  2  1  0  0  0  0
  1 24  1  0  0  0  0
  2  3  1  0  0  0  0
  2 10  1  0  0  0  0
  2 25  1  0  0  0  0
  3  4  1  0  0  0  0
  3 26  1  0  0  0  0
  3 27  1  0  0  0  0
  4  9  1  0  0  0  0
  4  5  1  0  0  0  0
  4 42  1  0  0  0  0
  5  6  1  0  0  0  0
  5 28  1  0  0  0  0
  5 29  1  0  0  0  0
  6  7  1  0  0  0  0
  6 30  1  0  0  0  0
  6 31  1  0  0  0  0
  7  8  1  0  0  0  0
  8  9  1  0  0  0  0
  8 32  1  0  0  0  0
  8 33  1  0  0  0  0
  9 34  1  0  0  0  0
  9 35  1  0  0  0  0
 10 11  1  0  0  0  0
 10 36  1  0  0  0  0
 10 37  1  0  0  0  0
 11 23  1  0  0  0  0
 11 12  1  0  0  0  0
 12 13  1  0  0  0  0
 12 17  2  0  0  0  0
 13 14  1  0  0  0  0
 13 15  1  0  0  0  0
 13 16  1  0  0  0  0
 17 18  1  0  0  0  0
 18 23  2  0  0  0  0
 18 19  1  0  0  0  0
 19 20  2  0  0  0  0
 19 38  1  0  0  0  0
 20 21  1  0  0  0  0
 20 39  1  0  0  0  0
 21 22  2  0  0  0  0
 21 40  1  0  0  0  0
 22 23  1  0  0  0  0
 22 41  1  0  0  0  0
M  CHG  1   4   1
M  END
> <s_m_source_file>
AV-unprocessed.smi

> <i_m_source_file_index>
342

> <i_lp_mmshare_version>
43012

> <i_f3d_flags>
0

> <s_epik_input>
W2NIXTFbY0hdW2NIXVtjSF1jKGMxMiluKGMobjIpQyhGKShGKUYpW0NIMl1bQ0BIXShbT0hdKVtDSDJdTjNbQ0gyXVtDSDJdT1tDSDJdW0NIMl0z

> <s_epik_cmdline>
J2VwaWtfcHl0aG9uJywgJy1waCcsICc3LjAnLCAnLXRuJywgJzgnLCAnLW1hJywgJzIwMCcsICctbWV0YWxfYmluZGluZycsICctaW1hZScsICc8aW5maWxlLm1hZT4nLCAnLW9tYWUnLCAnPG91dGZpbGUubWFlPic=

> <r_epik_Ionization_Penalty>
0.608409

> <r_epik_Ionization_Penalty_Charging>
0.608065

> <r_epik_Ionization_Penalty_Neutral>
0.000344684

> <r_epik_State_Penalty>
0.623026

> <r_epik_Charging_Adjusted_Penalty>
1.23109

> <i_epik_Tot_Q>
1

> <i_epik_Tot_abs_Q>
1

> <r_epik_Metal_State_Penalty>
0.623013

> <b_epik_Metal_Only>
0

> <s_lp_Force_Field>
OPLS_2005

> <r_lp_Energy>
26.0931

> <b_lp_Chiralities_Consistent>
1

> <s_lp_Variant>
AV-unprocessed.smi:342-3

> <Gold.Version>
5.8.1

> <Gold.Id.Protein>
6NUR|6NUR_protein|mol2

> <Gold.PLP.Fitness>
52.8392

> <Gold.PLP.PLP>
-42.0468

> <Gold.PLP.part.hbond>
-2.4945

> <Gold.PLP.part.metal>
0.0000

> <Gold.PLP.part.buried>
-3.6461

> <Gold.PLP.part.nonpolar>
-34.5198

> <Gold.PLP.part.repulsive>
0.2776

> <Gold.PLP.ligand.clash>
0.0000

> <Gold.PLP.ligand.torsion>
0.5522

> <Gold.PLP.Chemscore.Hbond>
3.9440

> <Gold.PLP.Chemscore.CHOScore>
0.0000

> <Gold.PLP.Chemscore.Metal>
0.0000

> <Gold.Chemscore.Hbonds>
donor molecule, donor type, donor heavy atom, donor atom, acceptor molecule, acceptor atom, score
      L1  H     1    24       P1  8028  1.00
      L1  H     4    42       P1  8028  2.00
      P1  H  7997  8009       L1    17  1.00

> <Gold.PLP.Chemscore.Internal.Correction>
0.0648

> <Gold.Rescore>
     Score         DG    S(hbond)    S(metal)    S(lipo)     H(rot)  DE(clash)    DE(int)     intcor
     17.42     -19.91       2.30        0.00     108.40       2.32       1.82       0.67       ----

> <Gold.Chemscore.Fitness>
17.4205

> <Gold.Chemscore.DG>
-19.9116

> <Gold.Chemscore.ZeroCoef>
-5.4800

> <Gold.Chemscore.Hbond>
2.3021

> <Gold.Chemscore.Metal>
0.0000

> <Gold.Chemscore.Lipo>
108.4033

> <Gold.Chemscore.Internal_Hbond>
0.0000

> <Gold.Chemscore.DEClash>
1.8221

> <Gold.Chemscore.DEInternal>
0.6690

> <Gold.Chemscore.Rot>
2.3206

> <Gold.Chemscore.Internal.Correction>
   9.000000E+99

> <Gold.Chemscore.Hbonds>
donor molecule, donor type, donor heavy atom, donor atom, acceptor molecule, acceptor atom, score
      L1  H     1    24       P1  8028  0.95
      L1  H     4    42       P1  8028  0.98
      P1  H  7997  8009       L1    17  0.24

> <Gold.Chemscore.Hbond.Weighted>
-7.6892

> <Gold.Chemscore.Metal.Weighted>
-0.0000

> <Gold.Chemscore.Lipo.Weighted>
-12.6832

> <Gold.Chemscore.Internal_Hbond.Weighted>
0.0000

> <Gold.Chemscore.DEClash.Weighted>
1.8221

> <Gold.Chemscore.DEInternal.Weighted>
0.6690

> <Gold.Chemscore.Rot.Weighted>
5.9407

> <Gold.Chemscore.Internal.Correction.Weighted>
   9.000000E+99

> <Gold.Protein.RotatedTorsions>
[ 6907 6896 6895 6894 ] final   79.87 input  -60.11 | X-H torsion
[ 7974 7965 7964 7962 ] final -140.08 input  175.53 | X-H torsion
[ 8008 7997 7996 7995 ] final  152.79 input   59.86 | X-H torsion
[ 10167 10162 10161 10158 ] final   38.25 input  -65.29 | X-H torsion
[ 10718 10713 10712 10709 ] final    6.92 input   66.30 | X-H torsion
[ 10763 10752 10751 10750 ] final  -17.37 input  -60.55 | X-H torsion
[ 11005 11000 10999 10996 ] final  -32.83 input  -57.11 | X-H torsion

> <Gold.Protein.ActiveResidues>
 VAL166  LYS551  ARG553  GLY616  TRP617  ASP618  TYR619  PRO620  LYS621  CYS622 
 ASP623  PHE694  ASN695  SER759  ASP760  ASP761  ALA762  ILE779  LEU786  VAL792 
 PHE793  MET794  SER795  GLU796  ALA797  LYS798  CYS799  TRP800  GLU811  SER814 

> <Gold.Protein.RotatedAtoms>
  152.5214  134.3445  159.9228 H   0  0  0  0  0  0  0  0  0  0  0  0  # atno 6907 bound_to 6896
  151.3395  133.3961  159.2677 H   0  0  0  0  0  0  0  0  0  0  0  0  # atno 6908 bound_to 6896
  150.9815  134.9187  159.7904 H   0  0  0  0  0  0  0  0  0  0  0  0  # atno 6909 bound_to 6896
  144.8625  140.6242  143.5319 H   0  0  0  0  0  0  0  0  0  0  0  0  # atno 7974 bound_to 7965
  156.2613  140.2011  156.6388 H   0  0  0  0  0  0  0  0  0  0  0  0  # atno 8008 bound_to 7997
  154.6625  140.0559  157.0103 H   0  0  0  0  0  0  0  0  0  0  0  0  # atno 8009 bound_to 7997
  155.1254  140.3228  155.4490 H   0  0  0  0  0  0  0  0  0  0  0  0  # atno 8010 bound_to 7997
  140.3955  144.1795  150.6132 H   0  0  0  0  0  0  0  0  0  0  0  0  # atno 10167 bound_to 10162
  156.9292  130.5819  149.5649 H   0  0  0  0  0  0  0  0  0  0  0  0  # atno 10718 bound_to 10713
  153.5728  135.7007  153.5497 H   0  0  0  0  0  0  0  0  0  0  0  0  # atno 10763 bound_to 10752
  153.3329  135.4042  155.1510 H   0  0  0  0  0  0  0  0  0  0  0  0  # atno 10764 bound_to 10752
  154.8630  135.3723  154.5252 H   0  0  0  0  0  0  0  0  0  0  0  0  # atno 10765 bound_to 10752
  140.9585  133.7178  156.1331 H   0  0  0  0  0  0  0  0  0  0  0  0  # atno 11005 bound_to 11000
  145.4284  139.1553  143.4036 LP  0  0  0  0  0  0  0  0  0  0  0  0  # atno 17320 bound_to 7965
  146.2871  140.4399  142.8753 LP  0  0  0  0  0  0  0  0  0  0  0  0  # atno 17321 bound_to 7965
  140.4795  143.2384  151.8975 LP  0  0  0  0  0  0  0  0  0  0  0  0  # atno 17342 bound_to 10162
  139.4787  144.5284  151.8701 LP  0  0  0  0  0  0  0  0  0  0  0  0  # atno 17343 bound_to 10162
  156.0455  130.5532  150.8870 LP  0  0  0  0  0  0  0  0  0  0  0  0  # atno 17370 bound_to 10713
  157.5858  131.0945  150.9199 LP  0  0  0  0  0  0  0  0  0  0  0  0  # atno 17371 bound_to 10713
  140.7502  134.4054  157.5542 LP  0  0  0  0  0  0  0  0  0  0  0  0  # atno 17394 bound_to 11000
  139.8870  134.8894  156.2553 LP  0  0  0  0  0  0  0  0  0  0  0  0  # atno 17395 bound_to 11000

$$$$
