AV-unprocessed.smi:109|AV-procd|sdf|1049|dock10
  -GOLD-   2262018103D 1   1.00000     0.00000
 Structure written by MMmdl.
 58 61  0  0  0  0  0  0  0  0  1 V2000
  152.8343  139.3564  156.4129 O   0  0  0  0  0  0  0  0  0  0  0  0
  151.6537  139.5561  155.6661 C   0  0  0  0  0  0  0  0  0  0  0  0
  151.2323  141.0337  155.7411 C   0  0  0  0  0  0  0  0  0  0  0  0
  150.2871  141.3516  156.9237 C   0  0  2  0  0  0  0  0  0  0  0  0
  149.1666  142.1590  156.4354 N   0  0  0  0  0  0  0  0  0  0  0  0
  147.9375  141.6400  156.2164 C   0  0  0  0  0  0  0  0  0  0  0  0
  146.8284  142.1687  156.7932 N   0  0  0  0  0  0  0  0  0  0  0  0
  145.6300  141.6339  156.5485 C   0  0  0  0  0  0  0  0  0  0  0  0
  145.3261  140.5929  155.7718 N   0  0  0  0  0  0  0  0  0  0  0  0
  146.4341  140.0484  155.1883 C   0  0  0  0  0  0  0  0  0  0  0  0
  147.7677  140.5157  155.3676 C   0  0  0  0  0  0  0  0  0  0  0  0
  148.6465  139.7291  154.6384 N   0  0  0  0  0  0  0  0  0  0  0  0
  147.8744  138.8489  154.0628 C   0  0  0  0  0  0  0  0  0  0  0  0
  146.5254  138.9738  154.3170 N   0  0  0  0  0  0  0  0  0  0  0  0
  145.4440  138.0764  153.7760 C   0  0  1  0  0  0  0  0  0  0  0  0
  145.4479  138.1594  152.3870 O   0  0  0  0  0  0  0  0  0  0  0  0
  146.2245  137.1032  151.8401 C   0  0  2  0  0  0  0  0  0  0  0  0
  145.7616  136.8094  150.4044 C   0  0  0  0  0  0  0  0  0  0  0  0
  145.9741  137.9366  149.5820 O   0  0  0  0  0  0  0  0  0  0  0  0
  145.9681  135.9352  152.8073 C   0  0  1  0  0  0  0  0  0  0  0  0
  147.1294  135.1379  152.9234 O   0  0  0  0  0  0  0  0  0  0  0  0
  145.6281  136.5957  154.1477 C   0  0  2  0  0  0  0  0  0  0  0  0
  144.4332  136.0517  154.6713 O   0  0  0  0  0  0  0  0  0  0  0  0
  150.9802  142.0883  158.1056 C   0  0  0  0  0  0  0  0  0  0  0  0
  151.5501  143.4740  157.7113 C   0  0  0  0  0  0  0  0  0  0  0  0
  152.2732  144.1670  158.8777 C   0  0  0  0  0  0  0  0  0  0  0  0
  153.3906  143.2855  159.4477 C   0  0  0  0  0  0  0  0  0  0  0  0
  152.8358  141.9214  159.8739 C   0  0  0  0  0  0  0  0  0  0  0  0
  152.1196  141.2249  158.7064 C   0  0  0  0  0  0  0  0  0  0  0  0
  144.5258  138.5096  154.1757 H   0  0  0  0  0  0  0  0  0  0  0  0
  147.2766  137.3887  151.8493 H   0  0  0  0  0  0  0  0  0  0  0  0
  145.1363  135.3239  152.4525 H   0  0  0  0  0  0  0  0  0  0  0  0
  146.4076  136.4807  154.9009 H   0  0  0  0  0  0  0  0  0  0  0  0
  152.5951  139.1597  157.3059 H   0  0  0  0  0  0  0  0  0  0  0  0
  151.8385  139.2479  154.6368 H   0  0  0  0  0  0  0  0  0  0  0  0
  150.8686  138.9124  156.0640 H   0  0  0  0  0  0  0  0  0  0  0  0
  152.1468  141.6179  155.8280 H   0  0  0  0  0  0  0  0  0  0  0  0
  150.7623  141.3329  154.8030 H   0  0  0  0  0  0  0  0  0  0  0  0
  149.9396  140.3973  157.3181 H   0  0  0  0  0  0  0  0  0  0  0  0
  149.3783  143.1319  156.2669 H   0  0  0  0  0  0  0  0  0  0  0  0
  144.7957  142.1089  157.0430 H   0  0  0  0  0  0  0  0  0  0  0  0
  148.2745  138.0768  153.4216 H   0  0  0  0  0  0  0  0  0  0  0  0
  146.3436  135.9877  149.9858 H   0  0  0  0  0  0  0  0  0  0  0  0
  144.7132  136.5106  150.3773 H   0  0  0  0  0  0  0  0  0  0  0  0
  145.2442  138.5276  149.6874 H   0  0  0  0  0  0  0  0  0  0  0  0
  147.8637  135.6309  152.5879 H   0  0  0  0  0  0  0  0  0  0  0  0
  144.1597  136.5802  155.4055 H   0  0  0  0  0  0  0  0  0  0  0  0
  150.2345  142.2498  158.8859 H   0  0  0  0  0  0  0  0  0  0  0  0
  152.2362  143.3642  156.8704 H   0  0  0  0  0  0  0  0  0  0  0  0
  150.7551  144.1405  157.3806 H   0  0  0  0  0  0  0  0  0  0  0  0
  152.6866  145.1193  158.5442 H   0  0  0  0  0  0  0  0  0  0  0  0
  151.5554  144.4014  159.6648 H   0  0  0  0  0  0  0  0  0  0  0  0
  154.1699  143.1479  158.6969 H   0  0  0  0  0  0  0  0  0  0  0  0
  153.8611  143.7803  160.2978 H   0  0  0  0  0  0  0  0  0  0  0  0
  153.6456  141.2905  160.2416 H   0  0  0  0  0  0  0  0  0  0  0  0
  152.1415  142.0501  160.7051 H   0  0  0  0  0  0  0  0  0  0  0  0
  151.7338  140.2700  159.0640 H   0  0  0  0  0  0  0  0  0  0  0  0
  152.8461  140.9864  157.9284 H   0  0  0  0  0  0  0  0  0  0  0  0
  1  2  1  0  0  0  0
  1 34  1  0  0  0  0
  2  3  1  0  0  0  0
  2 35  1  0  0  0  0
  2 36  1  0  0  0  0
  3  4  1  0  0  0  0
  3 37  1  0  0  0  0
  3 38  1  0  0  0  0
  4  5  1  0  0  0  0
  4 24  1  0  0  0  0
  4 39  1  0  0  0  0
  5  6  1  0  0  0  0
  5 40  1  0  0  0  0
  6 11  1  0  0  0  0
  6  7  2  0  0  0  0
  7  8  1  0  0  0  0
  8  9  2  0  0  0  0
  8 41  1  0  0  0  0
  9 10  1  0  0  0  0
 10 14  1  0  0  0  0
 10 11  2  0  0  0  0
 11 12  1  0  0  0  0
 12 13  2  0  0  0  0
 13 14  1  0  0  0  0
 13 42  1  0  0  0  0
 14 15  1  0  0  0  0
 15 30  1  0  0  0  0
 15 22  1  0  0  0  0
 15 16  1  0  0  0  0
 16 17  1  0  0  0  0
 17 31  1  0  0  0  0
 17 18  1  0  0  0  0
 17 20  1  0  0  0  0
 18 19  1  0  0  0  0
 18 43  1  0  0  0  0
 18 44  1  0  0  0  0
 19 45  1  0  0  0  0
 20 32  1  0  0  0  0
 20 21  1  0  0  0  0
 20 22  1  0  0  0  0
 21 46  1  0  0  0  0
 22 33  1  0  0  0  0
 22 23  1  0  0  0  0
 23 47  1  0  0  0  0
 24 29  1  0  0  0  0
 24 25  1  0  0  0  0
 24 48  1  0  0  0  0
 25 26  1  0  0  0  0
 25 49  1  0  0  0  0
 25 50  1  0  0  0  0
 26 27  1  0  0  0  0
 26 51  1  0  0  0  0
 26 52  1  0  0  0  0
 27 28  1  0  0  0  0
 27 53  1  0  0  0  0
 27 54  1  0  0  0  0
 28 29  1  0  0  0  0
 28 55  1  0  0  0  0
 28 56  1  0  0  0  0
 29 57  1  0  0  0  0
 29 58  1  0  0  0  0
M  END
> <s_m_source_file>
AV-unprocessed.smi

> <i_m_source_file_index>
109

> <i_lp_mmshare_version>
43012

> <i_f3d_flags>
0

> <s_epik_input>
W0NIMl0xW0NIMl1bQ0gyXVtDSDJdW0NIMl1bQ0hdMVtDQEhdKFtDSDJdW0NIMl1bT0hdKVtOSF1jKG5bY0hdbjIpYyhjMjMpbltjSF1uM1tDQEBIXTRPW0NASF0oW0NIMl1bT0hdKVtDQEBIXShbT0hdKVtDQEhdNFtPSF0=

> <s_epik_cmdline>
J2VwaWtfcHl0aG9uJywgJy1waCcsICc3LjAnLCAnLXRuJywgJzgnLCAnLW1hJywgJzIwMCcsICctbWV0YWxfYmluZGluZycsICctaW1hZScsICc8aW5maWxlLm1hZT4nLCAnLW9tYWUnLCAnPG91dGZpbGUubWFlPic=

> <r_lp_tautomer_probability>
1

> <r_epik_Ionization_Penalty>
0.000793976

> <r_epik_Ionization_Penalty_Charging>
0

> <r_epik_Ionization_Penalty_Neutral>
0.000793976

> <r_epik_State_Penalty>
-0

> <r_epik_Charging_Adjusted_Penalty>
0

> <i_epik_Tot_Q>
0

> <i_epik_Tot_abs_Q>
0

> <r_epik_Metal_State_Penalty>
-0

> <b_epik_Metal_Only>
0

> <s_epik_Chemistry_Notes>
This compound contains an acetal/aminal-like group ( X-CH(R)-Y where X, Y are N, S, or O) that may be acid/base labile, releasing an aldehyde.

> <s_lp_Force_Field>
OPLS_2005

> <r_lp_Energy>
48.8451

> <b_lp_Chiralities_Consistent>
1

> <s_lp_Variant>
AV-unprocessed.smi:109-19

> <Gold.Version>
5.8.1

> <Gold.Id.Protein>
6NUR|6NUR_protein|mol2

> <Gold.PLP.Fitness>
51.2763

> <Gold.PLP.PLP>
-37.7981

> <Gold.PLP.part.hbond>
-4.9936

> <Gold.PLP.part.metal>
0.0000

> <Gold.PLP.part.buried>
-1.2301

> <Gold.PLP.part.nonpolar>
-31.6852

> <Gold.PLP.part.repulsive>
0.5776

> <Gold.PLP.ligand.clash>
0.0000

> <Gold.PLP.ligand.torsion>
1.5226

> <Gold.PLP.Chemscore.Hbond>
4.4914

> <Gold.PLP.Chemscore.CHOScore>
0.9622

> <Gold.PLP.Chemscore.Metal>
0.0000

> <Gold.Chemscore.Hbonds>
donor molecule, donor type, donor heavy atom, donor atom, acceptor molecule, acceptor atom, score
      L1  H     5    40       P1  8028  0.99
      L1  H    19    45       P1 10171  0.48
      L1  H    21    46       P1  7948  0.73
      P1  H  7954  7966       L1    19  0.15
      P1  H  7997  8008       L1     1  1.00
      L1  C    13    42       P1  7948  1.00

> <Gold.PLP.Chemscore.Internal.Correction>
0.1625

> <Gold.Rescore>
     Score         DG    S(hbond)    S(metal)    S(lipo)     H(rot)  DE(clash)    DE(int)     intcor
     14.86     -18.10       4.46        0.00     100.00       5.47       1.73       1.51       ----

> <Gold.Chemscore.Fitness>
14.8559

> <Gold.Chemscore.DG>
-18.0984

> <Gold.Chemscore.ZeroCoef>
-5.4800

> <Gold.Chemscore.Hbond>
4.4648

> <Gold.Chemscore.Metal>
0.0000

> <Gold.Chemscore.Lipo>
99.9950

> <Gold.Chemscore.Internal_Hbond>
0.0000

> <Gold.Chemscore.DEClash>
1.7289

> <Gold.Chemscore.DEInternal>
1.5136

> <Gold.Chemscore.Rot>
5.4662

> <Gold.Chemscore.Internal.Correction>
   9.000000E+99

> <Gold.Chemscore.Hbonds>
donor molecule, donor type, donor heavy atom, donor atom, acceptor molecule, acceptor atom, score
      L1  H     5    40       P1  8028  0.94
      L1  H    19    45       P1 10171  0.46
      L1  H    21    46       P1  7948  0.73
      P1  H  7954  7966       L1    19  0.01
      P1  H  7997  8008       L1     1  0.55

> <Gold.Chemscore.Hbond.Weighted>
-14.9125

> <Gold.Chemscore.Metal.Weighted>
-0.0000

> <Gold.Chemscore.Lipo.Weighted>
-11.6994

> <Gold.Chemscore.Internal_Hbond.Weighted>
0.0000

> <Gold.Chemscore.DEClash.Weighted>
1.7289

> <Gold.Chemscore.DEInternal.Weighted>
1.5136

> <Gold.Chemscore.Rot.Weighted>
13.9935

> <Gold.Chemscore.Internal.Correction.Weighted>
   9.000000E+99

> <Gold.Protein.RotatedTorsions>
[ 6907 6896 6895 6894 ] final  -90.11 input  -60.11 | X-H torsion
[ 7974 7965 7964 7962 ] final -178.84 input  175.53 | X-H torsion
[ 8008 7997 7996 7995 ] final  -51.44 input   59.86 | X-H torsion
[ 10167 10162 10161 10158 ] final  -91.88 input  -65.29 | X-H torsion
[ 10718 10713 10712 10709 ] final  -91.24 input   66.30 | X-H torsion
[ 10763 10752 10751 10750 ] final   54.10 input  -60.55 | X-H torsion
[ 11005 11000 10999 10996 ] final -136.19 input  -57.11 | X-H torsion

> <Gold.Protein.ActiveResidues>
 VAL166  LYS551  ARG553  GLY616  TRP617  ASP618  TYR619  PRO620  LYS621  CYS622 
 ASP623  PHE694  ASN695  SER759  ASP760  ASP761  ALA762  ILE779  LEU786  VAL792 
 PHE793  MET794  SER795  GLU796  ALA797  LYS798  CYS799  TRP800  GLU811  SER814 

> <Gold.Protein.RotatedAtoms>
  150.6879  134.2482  159.4499 H   0  0  0  0  0  0  0  0  0  0  0  0  # atno 6907 bound_to 6896
  152.0422  134.9702  160.0583 H   0  0  0  0  0  0  0  0  0  0  0  0  # atno 6908 bound_to 6896
  152.1199  133.4313  159.4708 H   0  0  0  0  0  0  0  0  0  0  0  0  # atno 6909 bound_to 6896
  144.7133  140.0808  143.6425 H   0  0  0  0  0  0  0  0  0  0  0  0  # atno 7974 bound_to 7965
  154.4083  140.1248  156.4829 H   0  0  0  0  0  0  0  0  0  0  0  0  # atno 8008 bound_to 7997
  155.7067  140.3494  155.4937 H   0  0  0  0  0  0  0  0  0  0  0  0  # atno 8009 bound_to 7997
  155.9337  140.1074  157.1102 H   0  0  0  0  0  0  0  0  0  0  0  0  # atno 8010 bound_to 7997
  140.3405  143.2945  151.9841 H   0  0  0  0  0  0  0  0  0  0  0  0  # atno 10167 bound_to 10162
  155.9992  130.4940  150.5445 H   0  0  0  0  0  0  0  0  0  0  0  0  # atno 10718 bound_to 10713
  152.9801  135.5756  154.4850 H   0  0  0  0  0  0  0  0  0  0  0  0  # atno 10763 bound_to 10752
  154.4393  135.2775  155.1861 H   0  0  0  0  0  0  0  0  0  0  0  0  # atno 10764 bound_to 10752
  154.3535  135.6204  153.5708 H   0  0  0  0  0  0  0  0  0  0  0  0  # atno 10765 bound_to 10752
  140.8828  134.1910  157.4580 H   0  0  0  0  0  0  0  0  0  0  0  0  # atno 11005 bound_to 11000
  145.9704  139.2865  143.1102 LP  0  0  0  0  0  0  0  0  0  0  0  0  # atno 17320 bound_to 7965
  145.9123  140.9172  143.0447 LP  0  0  0  0  0  0  0  0  0  0  0  0  # atno 17321 bound_to 7965
  139.4841  144.6161  151.7344 LP  0  0  0  0  0  0  0  0  0  0  0  0  # atno 17342 bound_to 10162
  140.5314  144.0725  150.6055 LP  0  0  0  0  0  0  0  0  0  0  0  0  # atno 17343 bound_to 10162
  157.3377  131.0711  151.1812 LP  0  0  0  0  0  0  0  0  0  0  0  0  # atno 17370 bound_to 10713
  157.2672  130.6687  149.6002 LP  0  0  0  0  0  0  0  0  0  0  0  0  # atno 17371 bound_to 10713
  139.8721  134.9825  156.5158 LP  0  0  0  0  0  0  0  0  0  0  0  0  # atno 17394 bound_to 11000
  140.8440  133.8183  155.9103 LP  0  0  0  0  0  0  0  0  0  0  0  0  # atno 17395 bound_to 11000

$$$$
