AV-unprocessed.smi:3330|AV-procd|sdf|12814|dock1
  -GOLD-   2272019183D 1   1.00000     0.00000
 Structure written by MMmdl.
 37 38  0  0  0  0  0  0  0  0  2 V2000
  146.8164  136.5230  154.1471 C   0  0  0  0  0  0  0  0  0  0  0  0
  147.4179  137.9346  154.2776 C   0  0  1  0  0  0  0  0  0  0  0  0
  148.8109  137.8434  153.8546 N   0  0  0  0  0  0  0  0  0  0  0  0
  149.6740  137.4585  154.9601 C   0  0  0  0  0  0  0  0  0  0  0  0
  151.1206  137.3301  154.4620 C   0  0  0  0  0  0  0  0  0  0  0  0
  152.0707  137.7421  155.4985 N   0  0  0  0  0  0  0  0  0  0  0  0
  152.7003  136.8966  156.3200 C   0  0  0  0  0  0  0  0  0  0  0  0
  152.6000  135.6704  156.3668 O   0  0  0  0  0  0  0  0  0  0  0  0
  153.6014  137.7168  157.2132 C   0  0  0  0  0  0  0  0  0  0  0  0
  153.3646  139.0621  156.7399 N   0  5  0  0  0  0  0  0  0  0  0  0
  152.4616  139.0095  155.7329 C   0  0  0  0  0  0  0  0  0  0  0  0
  152.0285  139.9608  155.0835 O   0  0  0  0  0  0  0  0  0  0  0  0
  146.6829  139.0029  153.4242 C   0  0  2  0  0  0  0  0  0  0  0  0
  146.8749  138.8030  151.9094 C   0  0  0  0  0  0  0  0  0  0  0  0
  147.0894  140.3534  153.7919 N   0  0  0  0  0  0  0  0  0  0  0  0
  146.2967  141.4176  154.1736 C   0  0  0  0  0  0  0  0  0  0  0  0
  147.1233  142.4759  154.4203 C   0  0  0  0  0  0  0  0  0  0  0  0
  148.4217  141.9574  154.1582 C   0  0  0  0  0  0  0  0  0  0  0  0
  148.3986  140.6886  153.7840 N   0  0  0  0  0  0  0  0  0  0  0  0
  145.7961  136.4830  154.5283 H   0  0  0  0  0  0  0  0  0  0  0  0
  147.3958  135.7947  154.7156 H   0  0  0  0  0  0  0  0  0  0  0  0
  146.7953  136.1940  153.1073 H   0  0  0  0  0  0  0  0  0  0  0  0
  147.3591  138.2193  155.3297 H   0  0  0  0  0  0  0  0  0  0  0  0
  148.8973  137.1587  153.1172 H   0  0  0  0  0  0  0  0  0  0  0  0
  149.6169  138.2027  155.7551 H   0  0  0  0  0  0  0  0  0  0  0  0
  149.3321  136.5091  155.3748 H   0  0  0  0  0  0  0  0  0  0  0  0
  151.3253  136.3024  154.1567 H   0  0  0  0  0  0  0  0  0  0  0  0
  151.2625  137.9387  153.5669 H   0  0  0  0  0  0  0  0  0  0  0  0
  153.3207  137.5717  158.2569 H   0  0  0  0  0  0  0  0  0  0  0  0
  154.6363  137.3940  157.0941 H   0  0  0  0  0  0  0  0  0  0  0  0
  145.6139  138.9196  153.6304 H   0  0  0  0  0  0  0  0  0  0  0  0
  146.4503  137.8562  151.5758 H   0  0  0  0  0  0  0  0  0  0  0  0
  147.9303  138.8092  151.6357 H   0  0  0  0  0  0  0  0  0  0  0  0
  146.3795  139.5932  151.3443 H   0  0  0  0  0  0  0  0  0  0  0  0
  145.2218  141.3330  154.2359 H   0  0  0  0  0  0  0  0  0  0  0  0
  146.8429  143.4688  154.7388 H   0  0  0  0  0  0  0  0  0  0  0  0
  149.3743  142.4614  154.2288 H   0  0  0  0  0  0  0  0  0  0  0  0
  1  2  1  0  0  0  0
  1 20  1  0  0  0  0
  1 21  1  0  0  0  0
  1 22  1  0  0  0  0
  2  3  1  0  0  0  0
  2 13  1  0  0  0  0
  2 23  1  0  0  0  0
  3  4  1  0  0  0  0
  3 24  1  0  0  0  0
  4  5  1  0  0  0  0
  4 25  1  0  0  0  0
  4 26  1  0  0  0  0
  5  6  1  0  0  0  0
  5 27  1  0  0  0  0
  5 28  1  0  0  0  0
  6 11  1  0  0  0  0
  6  7  1  0  0  0  0
  7  8  2  0  0  0  0
  7  9  1  0  0  0  0
  9 10  1  0  0  0  0
  9 29  1  0  0  0  0
  9 30  1  0  0  0  0
 10 11  1  0  0  0  0
 11 12  2  0  0  0  0
 13 14  1  0  0  0  0
 13 15  1  0  0  0  0
 13 31  1  0  0  0  0
 14 32  1  0  0  0  0
 14 33  1  0  0  0  0
 14 34  1  0  0  0  0
 15 19  1  0  0  0  0
 15 16  1  0  0  0  0
 16 17  2  0  0  0  0
 16 35  1  0  0  0  0
 17 18  1  0  0  0  0
 17 36  1  0  0  0  0
 18 19  2  0  0  0  0
 18 37  1  0  0  0  0
M  CHG  1  10  -1
M  END
> <s_m_source_file>
AV-unprocessed.smi

> <i_m_source_file_index>
3330

> <i_lp_mmshare_version>
43012

> <i_f3d_flags>
0

> <s_epik_input>
bjFbY0hdW2NIXVtjSF1uMVtDQEBIXShbQ0gzXSlbQ0BIXShbQ0gzXSlbTkhdW0NIMl1bQ0gyXU4yQyg9TylbQ0gyXVtOSF1DMj1P

> <s_epik_cmdline>
J2VwaWtfcHl0aG9uJywgJy1waCcsICc3LjAnLCAnLXRuJywgJzgnLCAnLW1hJywgJzIwMCcsICctbWV0YWxfYmluZGluZycsICctaW1hZScsICc8aW5maWxlLm1hZT4nLCAnLW9tYWUnLCAnPG91dGZpbGUubWFlPic=

> <r_lp_tautomer_probability>
1

> <r_epik_Ionization_Penalty>
8.77477

> <r_epik_Ionization_Penalty_Charging>
6.28461

> <r_epik_Ionization_Penalty_Neutral>
2.49016

> <r_epik_State_Penalty>
8.73376

> <r_epik_Charging_Adjusted_Penalty>
15.0184

> <i_epik_Tot_Q>
-1

> <i_epik_Tot_abs_Q>
1

> <r_epik_Metal_State_Penalty>
4.73175

> <b_epik_Metal_Only>
1

> <s_lp_Force_Field>
OPLS_2005

> <r_lp_Energy>
21.213

> <b_lp_Chiralities_Consistent>
1

> <s_lp_Variant>
AV-unprocessed.smi:3330-14

> <Gold.Version>
5.8.1

> <Gold.Id.Protein>
6NUR|6NUR_protein|mol2

> <Gold.PLP.Fitness>
44.8606

> <Gold.PLP.PLP>
-27.3222

> <Gold.PLP.part.hbond>
-4.0000

> <Gold.PLP.part.metal>
0.0000

> <Gold.PLP.part.buried>
1.1814

> <Gold.PLP.part.nonpolar>
-24.8023

> <Gold.PLP.part.repulsive>
0.3449

> <Gold.PLP.ligand.clash>
0.0000

> <Gold.PLP.ligand.torsion>
1.1748

> <Gold.PLP.Chemscore.Hbond>
4.8800

> <Gold.PLP.Chemscore.CHOScore>
1.6604

> <Gold.PLP.Chemscore.Metal>
0.0000

> <Gold.Chemscore.Hbonds>
donor molecule, donor type, donor heavy atom, donor atom, acceptor molecule, acceptor atom, score
      L1  H     3    24       P1  7948  1.00
      P1  H  7989  7998       L1    12  0.83
      P1  H  7997  8010       L1    10  1.53
      P1  H 10752 10764       L1     8  0.70
      L1  C    16    35       P1 10175  0.95
      L1  C    18    37       P1  8028  0.29

> <Gold.PLP.Chemscore.Internal.Correction>
0.2669

> <Gold.Rescore>
     Score         DG    S(hbond)    S(metal)    S(lipo)     H(rot)  DE(clash)    DE(int)     intcor
     12.83     -15.40       3.17        0.00      49.25       2.52       0.46       2.11       ----

> <Gold.Chemscore.Fitness>
12.8266

> <Gold.Chemscore.DG>
-15.3961

> <Gold.Chemscore.ZeroCoef>
-5.4800

> <Gold.Chemscore.Hbond>
3.1722

> <Gold.Chemscore.Metal>
0.0000

> <Gold.Chemscore.Lipo>
49.2474

> <Gold.Chemscore.Internal_Hbond>
0.0000

> <Gold.Chemscore.DEClash>
0.4598

> <Gold.Chemscore.DEInternal>
2.1097

> <Gold.Chemscore.Rot>
2.5160

> <Gold.Chemscore.Internal.Correction>
   9.000000E+99

> <Gold.Chemscore.Hbonds>
donor molecule, donor type, donor heavy atom, donor atom, acceptor molecule, acceptor atom, score
      L1  H     3    24       P1  7948  0.94
      P1  H  7989  7998       L1    12  0.83
      P1  H  7997  8010       L1    10  0.65
      P1  H 10752 10764       L1     8  0.14

> <Gold.Chemscore.Hbond.Weighted>
-10.5952

> <Gold.Chemscore.Metal.Weighted>
-0.0000

> <Gold.Chemscore.Lipo.Weighted>
-5.7619

> <Gold.Chemscore.Internal_Hbond.Weighted>
0.0000

> <Gold.Chemscore.DEClash.Weighted>
0.4598

> <Gold.Chemscore.DEInternal.Weighted>
2.1097

> <Gold.Chemscore.Rot.Weighted>
6.4410

> <Gold.Chemscore.Internal.Correction.Weighted>
   9.000000E+99

> <Gold.Protein.RotatedTorsions>
[ 6907 6896 6895 6894 ] final -131.44 input  -60.11 | X-H torsion
[ 7974 7965 7964 7962 ] final   95.02 input  175.53 | X-H torsion
[ 8008 7997 7996 7995 ] final   64.91 input   59.86 | X-H torsion
[ 10167 10162 10161 10158 ] final  -70.37 input  -65.29 | X-H torsion
[ 10718 10713 10712 10709 ] final  -72.93 input   66.30 | X-H torsion
[ 10763 10752 10751 10750 ] final    3.00 input  -60.55 | X-H torsion
[ 11005 11000 10999 10996 ] final   12.40 input  -57.11 | X-H torsion

> <Gold.Protein.ActiveResidues>
 VAL166  LYS551  ARG553  GLY616  TRP617  ASP618  TYR619  PRO620  LYS621  CYS622 
 ASP623  PHE694  ASN695  SER759  ASP760  ASP761  ALA762  ILE779  LEU786  VAL792 
 PHE793  MET794  SER795  GLU796  ALA797  LYS798  CYS799  TRP800  GLU811  SER814 

> <Gold.Protein.RotatedAtoms>
  150.9510  133.6549  159.2771 H   0  0  0  0  0  0  0  0  0  0  0  0  # atno 6907 bound_to 6896
  151.3905  135.0954  159.9534 H   0  0  0  0  0  0  0  0  0  0  0  0  # atno 6908 bound_to 6896
  152.5110  133.9025  159.7503 H   0  0  0  0  0  0  0  0  0  0  0  0  # atno 6909 bound_to 6896
  145.4578  139.2289  143.3004 H   0  0  0  0  0  0  0  0  0  0  0  0  # atno 7974 bound_to 7965
  155.6535  140.3497  155.4756 H   0  0  0  0  0  0  0  0  0  0  0  0  # atno 8008 bound_to 7997
  155.9828  140.1178  157.0734 H   0  0  0  0  0  0  0  0  0  0  0  0  # atno 8009 bound_to 7997
  154.4196  140.1135  156.5445 H   0  0  0  0  0  0  0  0  0  0  0  0  # atno 8010 bound_to 7997
  140.5358  143.2318  151.7180 H   0  0  0  0  0  0  0  0  0  0  0  0  # atno 10167 bound_to 10162
  156.0300  130.4383  150.2666 H   0  0  0  0  0  0  0  0  0  0  0  0  # atno 10718 bound_to 10713
  153.2886  135.6946  153.7314 H   0  0  0  0  0  0  0  0  0  0  0  0  # atno 10763 bound_to 10752
  153.6274  135.3416  155.3031 H   0  0  0  0  0  0  0  0  0  0  0  0  # atno 10764 bound_to 10752
  154.8517  135.4401  154.1962 H   0  0  0  0  0  0  0  0  0  0  0  0  # atno 10765 bound_to 10752
  140.4924  134.0827  155.7774 H   0  0  0  0  0  0  0  0  0  0  0  0  # atno 11005 bound_to 11000
  146.2468  140.5343  142.8910 LP  0  0  0  0  0  0  0  0  0  0  0  0  # atno 17320 bound_to 7965
  144.8022  140.6233  143.6471 LP  0  0  0  0  0  0  0  0  0  0  0  0  # atno 17321 bound_to 7965
  139.4970  144.4045  152.0146 LP  0  0  0  0  0  0  0  0  0  0  0  0  # atno 17342 bound_to 10162
  140.3150  144.3494  150.6024 LP  0  0  0  0  0  0  0  0  0  0  0  0  # atno 17343 bound_to 10162
  157.0768  131.0132  151.3171 LP  0  0  0  0  0  0  0  0  0  0  0  0  # atno 17370 bound_to 10713
  157.4957  130.7849  149.7553 LP  0  0  0  0  0  0  0  0  0  0  0  0  # atno 17371 bound_to 10713
  141.1477  133.9025  157.2175 LP  0  0  0  0  0  0  0  0  0  0  0  0  # atno 17394 bound_to 11000
  139.9761  135.0113  156.9634 LP  0  0  0  0  0  0  0  0  0  0  0  0  # atno 17395 bound_to 11000

$$$$
