AV-unprocessed.smi:1703|AV-procd|sdf|6857|dock9
  -GOLD-   22720 8 43D 1   1.00000     0.00000
 Structure written by MMmdl.
 48 50  0  0  0  0  0  0  0  0  1 V2000
  159.8062  142.3949  157.7965 C   0  0  0  0  0  0  0  0  0  0  0  0
  159.3885  142.0244  159.2235 C   0  0  1  0  0  0  0  0  0  0  0  0
  158.1017  141.1803  159.2503 C   0  0  0  0  0  0  0  0  0  0  0  0
  157.7528  140.7642  160.6024 N   0  0  0  0  0  0  0  0  0  0  0  0
  156.5026  140.0055  160.6163 C   0  0  0  0  0  0  0  0  0  0  0  0
  155.8411  139.8632  162.0039 C   0  0  2  0  0  0  0  0  0  0  0  0
  156.3624  138.7167  162.6488 O   0  0  0  0  0  0  0  0  0  0  0  0
  154.3083  139.7253  161.8995 C   0  0  0  0  0  0  0  0  0  0  0  0
  153.7298  140.5895  160.8784 N   0  0  0  0  0  0  0  0  0  0  0  0
  153.5890  140.3357  159.5526 C   0  0  0  0  0  0  0  0  0  0  0  0
  154.0435  139.0347  158.9526 C   0  0  0  0  0  0  0  0  0  0  0  0
  153.7858  138.9185  157.5676 O   0  0  0  0  0  0  0  0  0  0  0  0
  153.0167  141.3073  158.8377 N   0  0  0  0  0  0  0  0  0  0  0  0
  152.7629  142.2780  159.7864 C   0  0  0  0  0  0  0  0  0  0  0  0
  152.1657  143.5525  159.6589 C   0  0  0  0  0  0  0  0  0  0  0  0
  152.0079  144.3830  160.7878 C   0  0  0  0  0  0  0  0  0  0  0  0
  152.4429  143.9514  162.0575 C   0  0  0  0  0  0  0  0  0  0  0  0
  153.0398  142.6846  162.2065 C   0  0  0  0  0  0  0  0  0  0  0  0
  153.1960  141.8597  161.0762 C   0  0  0  0  0  0  0  0  0  0  0  0
  158.8698  140.0147  161.1731 C   0  0  0  0  0  0  0  0  0  0  0  0
  160.1947  140.8025  161.1393 C   0  0  2  0  0  0  0  0  0  0  0  0
  160.2567  141.9323  162.1815 C   0  0  0  0  0  0  0  0  0  0  0  0
  160.4522  141.2841  159.8191 O   0  0  0  0  0  0  0  0  0  0  0  0
  159.0317  142.9810  157.3011 H   0  0  0  0  0  0  0  0  0  0  0  0
  159.9898  141.5046  157.1941 H   0  0  0  0  0  0  0  0  0  0  0  0
  160.7201  142.9891  157.8006 H   0  0  0  0  0  0  0  0  0  0  0  0
  159.2307  142.9464  159.7839 H   0  0  0  0  0  0  0  0  0  0  0  0
  157.2846  141.7619  158.8217 H   0  0  0  0  0  0  0  0  0  0  0  0
  158.2265  140.3023  158.6142 H   0  0  0  0  0  0  0  0  0  0  0  0
  155.7969  140.5295  159.9702 H   0  0  0  0  0  0  0  0  0  0  0  0
  156.6418  139.0270  160.1531 H   0  0  0  0  0  0  0  0  0  0  0  0
  156.0763  140.7362  162.6134 H   0  0  0  0  0  0  0  0  0  0  0  0
  155.7883  138.4855  163.3626 H   0  0  0  0  0  0  0  0  0  0  0  0
  154.0361  138.6937  161.6757 H   0  0  0  0  0  0  0  0  0  0  0  0
  153.8411  139.9566  162.8577 H   0  0  0  0  0  0  0  0  0  0  0  0
  155.1152  138.9169  159.1092 H   0  0  0  0  0  0  0  0  0  0  0  0
  153.5452  138.2131  159.4679 H   0  0  0  0  0  0  0  0  0  0  0  0
  153.2776  138.1356  157.4212 H   0  0  0  0  0  0  0  0  0  0  0  0
  151.8291  143.8918  158.6904 H   0  0  0  0  0  0  0  0  0  0  0  0
  151.5508  145.3556  160.6787 H   0  0  0  0  0  0  0  0  0  0  0  0
  152.3186  144.5934  162.9173 H   0  0  0  0  0  0  0  0  0  0  0  0
  153.3751  142.3530  163.1776 H   0  0  0  0  0  0  0  0  0  0  0  0
  158.6530  139.7330  162.2034 H   0  0  0  0  0  0  0  0  0  0  0  0
  158.9990  139.0828  160.6206 H   0  0  0  0  0  0  0  0  0  0  0  0
  161.0021  140.1087  161.3751 H   0  0  0  0  0  0  0  0  0  0  0  0
  160.1716  141.5317  163.1918 H   0  0  0  0  0  0  0  0  0  0  0  0
  159.4527  142.6562  162.0508 H   0  0  0  0  0  0  0  0  0  0  0  0
  161.2035  142.4688  162.1180 H   0  0  0  0  0  0  0  0  0  0  0  0
  1  2  1  0  0  0  0
  1 24  1  0  0  0  0
  1 25  1  0  0  0  0
  1 26  1  0  0  0  0
  2 23  1  0  0  0  0
  2  3  1  0  0  0  0
  2 27  1  0  0  0  0
  3  4  1  0  0  0  0
  3 28  1  0  0  0  0
  3 29  1  0  0  0  0
  4  5  1  0  0  0  0
  4 20  1  0  0  0  0
  5  6  1  0  0  0  0
  5 30  1  0  0  0  0
  5 31  1  0  0  0  0
  6  7  1  0  0  0  0
  6  8  1  0  0  0  0
  6 32  1  0  0  0  0
  7 33  1  0  0  0  0
  8  9  1  0  0  0  0
  8 34  1  0  0  0  0
  8 35  1  0  0  0  0
  9 19  1  0  0  0  0
  9 10  1  0  0  0  0
 10 11  1  0  0  0  0
 10 13  2  0  0  0  0
 11 12  1  0  0  0  0
 11 36  1  0  0  0  0
 11 37  1  0  0  0  0
 12 38  1  0  0  0  0
 13 14  1  0  0  0  0
 14 19  2  0  0  0  0
 14 15  1  0  0  0  0
 15 16  2  0  0  0  0
 15 39  1  0  0  0  0
 16 17  1  0  0  0  0
 16 40  1  0  0  0  0
 17 18  2  0  0  0  0
 17 41  1  0  0  0  0
 18 19  1  0  0  0  0
 18 42  1  0  0  0  0
 20 21  1  0  0  0  0
 20 43  1  0  0  0  0
 20 44  1  0  0  0  0
 21 22  1  0  0  0  0
 21 23  1  0  0  0  0
 21 45  1  0  0  0  0
 22 46  1  0  0  0  0
 22 47  1  0  0  0  0
 22 48  1  0  0  0  0
M  END
> <s_m_source_file>
AV-unprocessed.smi

> <i_m_source_file_index>
1703

> <i_lp_mmshare_version>
43012

> <i_f3d_flags>
0

> <s_epik_input>
W0NIM11bQ0BASF0xW0NIMl1OKFtDSDJdW0NASF0oTzEpW0NIM10pW0NIMl1bQ0BIXShbT0hdKVtDSDJdbihjKG4yKVtDSDJdW09IXSljKGMyMylbY0hdW2NIXVtjSF1bY0hdMw==

> <s_epik_cmdline>
J2VwaWtfcHl0aG9uJywgJy1waCcsICc3LjAnLCAnLXRuJywgJzgnLCAnLW1hJywgJzIwMCcsICctbWV0YWxfYmluZGluZycsICctaW1hZScsICc8aW5maWxlLm1hZT4nLCAnLW9tYWUnLCAnPG91dGZpbGUubWFlPic=

> <r_epik_Ionization_Penalty>
0.307685

> <r_epik_Ionization_Penalty_Charging>
0

> <r_epik_Ionization_Penalty_Neutral>
0.307685

> <r_epik_State_Penalty>
0.277856

> <r_epik_Charging_Adjusted_Penalty>
0.277856

> <i_epik_Tot_Q>
0

> <i_epik_Tot_abs_Q>
0

> <r_epik_Metal_State_Penalty>
0.238959

> <b_epik_Metal_Only>
0

> <s_lp_Force_Field>
OPLS_2005

> <r_lp_Energy>
32.6891

> <b_lp_Chiralities_Consistent>
1

> <s_lp_Variant>
AV-unprocessed.smi:1703-5

> <Gold.Version>
5.8.1

> <Gold.Id.Protein>
6NUR|6NUR_protein|mol2

> <Gold.PLP.Fitness>
46.3613

> <Gold.PLP.PLP>
-45.3387

> <Gold.PLP.part.hbond>
-1.9409

> <Gold.PLP.part.metal>
0.0000

> <Gold.PLP.part.buried>
-1.0001

> <Gold.PLP.part.nonpolar>
-41.4964

> <Gold.PLP.part.repulsive>
0.1905

> <Gold.PLP.ligand.clash>
0.0000

> <Gold.PLP.ligand.torsion>
1.0034

> <Gold.PLP.Chemscore.Hbond>
1.0000

> <Gold.PLP.Chemscore.CHOScore>
0.0000

> <Gold.PLP.Chemscore.Metal>
0.0000

> <Gold.Chemscore.Hbonds>
donor molecule, donor type, donor heavy atom, donor atom, acceptor molecule, acceptor atom, score
      P1  H  7997  8010       L1    12  0.95

> <Gold.PLP.Chemscore.Internal.Correction>
0.0294

> <Gold.Rescore>
     Score         DG    S(hbond)    S(metal)    S(lipo)     H(rot)  DE(clash)    DE(int)     intcor
     13.29     -16.46       0.81        0.00     133.81       2.88       2.20       0.98       ----

> <Gold.Chemscore.Fitness>
13.2916

> <Gold.Chemscore.DG>
-16.4623

> <Gold.Chemscore.ZeroCoef>
-5.4800

> <Gold.Chemscore.Hbond>
0.8064

> <Gold.Chemscore.Metal>
0.0000

> <Gold.Chemscore.Lipo>
133.8117

> <Gold.Chemscore.Internal_Hbond>
0.0000

> <Gold.Chemscore.DEClash>
2.1952

> <Gold.Chemscore.DEInternal>
0.9755

> <Gold.Chemscore.Rot>
2.8778

> <Gold.Chemscore.Internal.Correction>
   9.000000E+99

> <Gold.Chemscore.Hbonds>
donor molecule, donor type, donor heavy atom, donor atom, acceptor molecule, acceptor atom, score
      P1  H  7997  8010       L1    12  0.67

> <Gold.Chemscore.Hbond.Weighted>
-2.6934

> <Gold.Chemscore.Metal.Weighted>
-0.0000

> <Gold.Chemscore.Lipo.Weighted>
-15.6560

> <Gold.Chemscore.Internal_Hbond.Weighted>
0.0000

> <Gold.Chemscore.DEClash.Weighted>
2.1952

> <Gold.Chemscore.DEInternal.Weighted>
0.9755

> <Gold.Chemscore.Rot.Weighted>
7.3671

> <Gold.Chemscore.Internal.Correction.Weighted>
   9.000000E+99

> <Gold.Protein.RotatedTorsions>
[ 6907 6896 6895 6894 ] final -103.60 input  -60.11 | X-H torsion
[ 7974 7965 7964 7962 ] final  -20.59 input  175.53 | X-H torsion
[ 8008 7997 7996 7995 ] final   51.99 input   59.86 | X-H torsion
[ 10167 10162 10161 10158 ] final  -23.76 input  -65.29 | X-H torsion
[ 10718 10713 10712 10709 ] final  135.38 input   66.30 | X-H torsion
[ 10763 10752 10751 10750 ] final  111.06 input  -60.55 | X-H torsion
[ 11005 11000 10999 10996 ] final  -27.25 input  -57.11 | X-H torsion

> <Gold.Protein.ActiveResidues>
 VAL166  LYS551  ARG553  GLY616  TRP617  ASP618  TYR619  PRO620  LYS621  CYS622 
 ASP623  PHE694  ASN695  SER759  ASP760  ASP761  ALA762  ILE779  LEU786  VAL792 
 PHE793  MET794  SER795  GLU796  ALA797  LYS798  CYS799  TRP800  GLU811  SER814 

> <Gold.Protein.RotatedAtoms>
  150.7248  134.0405  159.3763 H   0  0  0  0  0  0  0  0  0  0  0  0  # atno 6907 bound_to 6896
  151.8378  135.0598  160.0454 H   0  0  0  0  0  0  0  0  0  0  0  0  # atno 6908 bound_to 6896
  152.2885  133.5502  159.5579 H   0  0  0  0  0  0  0  0  0  0  0  0  # atno 6909 bound_to 6896
  146.1780  140.4223  142.8506 H   0  0  0  0  0  0  0  0  0  0  0  0  # atno 7974 bound_to 7965
  155.4445  140.3456  155.4293 H   0  0  0  0  0  0  0  0  0  0  0  0  # atno 8008 bound_to 7997
  156.1258  140.1500  156.9168 H   0  0  0  0  0  0  0  0  0  0  0  0  # atno 8009 bound_to 7997
  154.4857  140.0856  156.7461 H   0  0  0  0  0  0  0  0  0  0  0  0  # atno 8010 bound_to 7997
  140.7288  143.4414  151.0651 H   0  0  0  0  0  0  0  0  0  0  0  0  # atno 10167 bound_to 10162
  157.4576  131.1071  150.9958 H   0  0  0  0  0  0  0  0  0  0  0  0  # atno 10718 bound_to 10713
  153.4579  135.3729  155.2321 H   0  0  0  0  0  0  0  0  0  0  0  0  # atno 10763 bound_to 10752
  154.8757  135.3901  154.3960 H   0  0  0  0  0  0  0  0  0  0  0  0  # atno 10764 bound_to 10752
  153.4529  135.7086  153.6161 H   0  0  0  0  0  0  0  0  0  0  0  0  # atno 10765 bound_to 10752
  140.9102  133.7466  156.0661 H   0  0  0  0  0  0  0  0  0  0  0  0  # atno 11005 bound_to 11000
  144.8268  140.6641  143.6317 LP  0  0  0  0  0  0  0  0  0  0  0  0  # atno 17320 bound_to 7965
  145.4157  139.1572  143.4101 LP  0  0  0  0  0  0  0  0  0  0  0  0  # atno 17321 bound_to 7965
  139.8081  143.7989  152.3169 LP  0  0  0  0  0  0  0  0  0  0  0  0  # atno 17342 bound_to 10162
  139.8029  144.7367  150.9801 LP  0  0  0  0  0  0  0  0  0  0  0  0  # atno 17343 bound_to 10162
  157.0766  130.5886  149.5412 LP  0  0  0  0  0  0  0  0  0  0  0  0  # atno 17370 bound_to 10713
  156.0014  130.5094  150.7677 LP  0  0  0  0  0  0  0  0  0  0  0  0  # atno 17371 bound_to 10713
  140.8119  134.3389  157.5409 LP  0  0  0  0  0  0  0  0  0  0  0  0  # atno 17394 bound_to 11000
  139.8756  134.9259  156.3387 LP  0  0  0  0  0  0  0  0  0  0  0  0  # atno 17395 bound_to 11000

$$$$
