AV-unprocessed.smi:311|AV-procd|sdf|2302|dock2
  -GOLD-   2262022203D 1   1.00000     0.00000
 Structure written by MMmdl.
 44 46  0  0  0  0  0  0  0  0  2 V2000
  150.7789  131.5834  156.3661 C   0  0  0  0  0  0  0  0  0  0  0  0
  150.2757  132.9967  156.3019 C   0  0  0  0  0  0  0  0  0  0  0  0
  150.3173  133.7556  157.3841 N   0  0  0  0  0  0  0  0  0  0  0  0
  149.7826  134.9911  157.0061 O   0  0  0  0  0  0  0  0  0  0  0  0
  149.4373  134.9267  155.6950 C   0  0  0  0  0  0  0  0  0  0  0  0
  148.8388  136.1564  155.1010 C   0  0  0  0  0  0  0  0  0  0  0  0
  149.7279  133.6910  155.1853 C   0  0  0  0  0  0  0  0  0  0  0  0
  149.5213  133.1762  153.7818 C   0  0  0  0  0  0  0  0  0  0  0  0
  148.0360  133.1341  153.4017 C   0  0  0  0  0  0  0  0  0  0  0  0
  147.3928  132.0841  153.4431 O   0  0  0  0  0  0  0  0  0  0  0  0
  147.4964  134.3049  153.0324 N   0  0  0  0  0  0  0  0  0  0  0  0
  146.1076  134.4895  152.6249 C   0  0  1  0  0  0  0  0  0  0  0  0
  145.7274  135.9527  152.3242 C   0  0  0  0  0  0  0  0  0  0  0  0
  144.7776  135.8876  151.1111 C   0  0  0  0  0  0  0  0  0  0  0  0
  144.5824  134.4495  150.8448 N   0  3  1  0  0  0  0  0  0  0  0  0
  144.1993  134.0619  149.4697 C   0  0  0  0  0  0  0  0  0  0  0  0
  143.9661  132.5380  149.4180 C   0  0  0  0  0  0  0  0  0  0  0  0
  145.1754  131.7529  149.9674 C   0  0  0  0  0  0  0  0  0  0  0  0
  145.5850  132.2652  151.3620 C   0  0  0  0  0  0  0  0  0  0  0  0
  145.8113  133.7844  151.3026 C   0  0  2  0  0  0  0  0  0  0  0  0
  150.1117  130.9070  155.8317 H   0  0  0  0  0  0  0  0  0  0  0  0
  150.8531  131.2273  157.3944 H   0  0  0  0  0  0  0  0  0  0  0  0
  151.7671  131.5018  155.9135 H   0  0  0  0  0  0  0  0  0  0  0  0
  148.2172  135.9105  154.2397 H   0  0  0  0  0  0  0  0  0  0  0  0
  149.6181  136.8438  154.7721 H   0  0  0  0  0  0  0  0  0  0  0  0
  148.2135  136.6748  155.8280 H   0  0  0  0  0  0  0  0  0  0  0  0
  150.0427  133.8004  153.0551 H   0  0  0  0  0  0  0  0  0  0  0  0
  149.9381  132.1741  153.6730 H   0  0  0  0  0  0  0  0  0  0  0  0
  148.0912  135.1210  153.0263 H   0  0  0  0  0  0  0  0  0  0  0  0
  145.4412  134.0953  153.3953 H   0  0  0  0  0  0  0  0  0  0  0  0
  145.2523  136.4192  153.1880 H   0  0  0  0  0  0  0  0  0  0  0  0
  146.6059  136.5491  152.0727 H   0  0  0  0  0  0  0  0  0  0  0  0
  143.8227  136.3775  151.3032 H   0  0  0  0  0  0  0  0  0  0  0  0
  145.2392  136.3707  150.2485 H   0  0  0  0  0  0  0  0  0  0  0  0
  143.2918  134.5920  149.1786 H   0  0  0  0  0  0  0  0  0  0  0  0
  144.9832  134.3530  148.7687 H   0  0  0  0  0  0  0  0  0  0  0  0
  143.0811  132.2893  150.0053 H   0  0  0  0  0  0  0  0  0  0  0  0
  143.7521  132.2267  148.3950 H   0  0  0  0  0  0  0  0  0  0  0  0
  144.9433  130.6883  150.0117 H   0  0  0  0  0  0  0  0  0  0  0  0
  146.0167  131.8571  149.2812 H   0  0  0  0  0  0  0  0  0  0  0  0
  144.8061  132.0283  152.0881 H   0  0  0  0  0  0  0  0  0  0  0  0
  146.4911  131.7593  151.6971 H   0  0  0  0  0  0  0  0  0  0  0  0
  146.6106  134.0055  150.5909 H   0  0  0  0  0  0  0  0  0  0  0  0
  143.8440  134.1417  151.4615 H   0  0  0  0  0  0  0  0  0  0  0  0
  1  2  1  0  0  0  0
  1 21  1  0  0  0  0
  1 22  1  0  0  0  0
  1 23  1  0  0  0  0
  2  7  1  0  0  0  0
  2  3  2  0  0  0  0
  3  4  1  0  0  0  0
  4  5  1  0  0  0  0
  5  6  1  0  0  0  0
  5  7  2  0  0  0  0
  6 24  1  0  0  0  0
  6 25  1  0  0  0  0
  6 26  1  0  0  0  0
  7  8  1  0  0  0  0
  8  9  1  0  0  0  0
  8 27  1  0  0  0  0
  8 28  1  0  0  0  0
  9 10  2  0  0  0  0
  9 11  1  0  0  0  0
 11 12  1  0  0  0  0
 11 29  1  0  0  0  0
 12 20  1  0  0  0  0
 12 13  1  0  0  0  0
 12 30  1  0  0  0  0
 13 14  1  0  0  0  0
 13 31  1  0  0  0  0
 13 32  1  0  0  0  0
 14 15  1  0  0  0  0
 14 33  1  0  0  0  0
 14 34  1  0  0  0  0
 15 20  1  0  0  0  0
 15 16  1  0  0  0  0
 15 44  1  0  0  0  0
 16 17  1  0  0  0  0
 16 35  1  0  0  0  0
 16 36  1  0  0  0  0
 17 18  1  0  0  0  0
 17 37  1  0  0  0  0
 17 38  1  0  0  0  0
 18 19  1  0  0  0  0
 18 39  1  0  0  0  0
 18 40  1  0  0  0  0
 19 20  1  0  0  0  0
 19 41  1  0  0  0  0
 19 42  1  0  0  0  0
 20 43  1  0  0  0  0
M  CHG  1  15   1
M  END
> <s_m_source_file>
AV-unprocessed.smi

> <i_m_source_file_index>
311

> <i_lp_mmshare_version>
43012

> <i_f3d_flags>
0

> <s_epik_input>
W0NIM11jMW5vYyhbQ0gzXSljMVtDSDJdQyg9TylbTkhdW0NASF0oW0NIMl1bQ0gyXTIpW0NAQEhdKE4yMylbQ0gyXVtDSDJdW0NIMl1bQ0gyXTM=

> <s_epik_cmdline>
J2VwaWtfcHl0aG9uJywgJy1waCcsICc3LjAnLCAnLXRuJywgJzgnLCAnLW1hJywgJzIwMCcsICctbWV0YWxfYmluZGluZycsICctaW1hZScsICc8aW5maWxlLm1hZT4nLCAnLW9tYWUnLCAnPG91dGZpbGUubWFlPic=

> <r_epik_Ionization_Penalty>
0.00173669

> <r_epik_Ionization_Penalty_Charging>
0.0017366

> <r_epik_Ionization_Penalty_Neutral>
9.2145e-08

> <r_epik_State_Penalty>
0.00117499

> <r_epik_Charging_Adjusted_Penalty>
0.00291159

> <i_epik_Tot_Q>
1

> <i_epik_Tot_abs_Q>
1

> <r_epik_Metal_State_Penalty>
-0

> <b_epik_Metal_Only>
0

> <s_lp_Force_Field>
OPLS_2005

> <r_lp_Energy>
29.9852

> <b_lp_Chiralities_Consistent>
1

> <s_lp_Variant>
AV-unprocessed.smi:311-6

> <Gold.Version>
5.8.1

> <Gold.Id.Protein>
6NUR|6NUR_protein|mol2

> <Gold.PLP.Fitness>
36.1731

> <Gold.PLP.PLP>
-31.7206

> <Gold.PLP.part.hbond>
-2.0103

> <Gold.PLP.part.metal>
0.0000

> <Gold.PLP.part.buried>
-2.8691

> <Gold.PLP.part.nonpolar>
-27.7862

> <Gold.PLP.part.repulsive>
0.0887

> <Gold.PLP.ligand.clash>
0.0000

> <Gold.PLP.ligand.torsion>
0.3243

> <Gold.PLP.Chemscore.Hbond>
1.6960

> <Gold.PLP.Chemscore.CHOScore>
0.0000

> <Gold.PLP.Chemscore.Metal>
0.0000

> <Gold.Chemscore.Hbonds>
donor molecule, donor type, donor heavy atom, donor atom, acceptor molecule, acceptor atom, score
      L1  H    11    29       P1  7948  0.80
      P1  H  6896  6909       L1     3  0.85

> <Gold.PLP.Chemscore.Internal.Correction>
0.0130

> <Gold.Rescore>
     Score         DG    S(hbond)    S(metal)    S(lipo)     H(rot)  DE(clash)    DE(int)     intcor
     15.14     -17.32       1.55        0.00      86.55       1.36       0.35       1.83       ----

> <Gold.Chemscore.Fitness>
15.1361

> <Gold.Chemscore.DG>
-17.3161

> <Gold.Chemscore.ZeroCoef>
-5.4800

> <Gold.Chemscore.Hbond>
1.5518

> <Gold.Chemscore.Metal>
0.0000

> <Gold.Chemscore.Lipo>
86.5489

> <Gold.Chemscore.Internal_Hbond>
0.0000

> <Gold.Chemscore.DEClash>
0.3495

> <Gold.Chemscore.DEInternal>
1.8305

> <Gold.Chemscore.Rot>
1.3567

> <Gold.Chemscore.Internal.Correction>
   9.000000E+99

> <Gold.Chemscore.Hbonds>
donor molecule, donor type, donor heavy atom, donor atom, acceptor molecule, acceptor atom, score
      L1  H    11    29       P1  7948  0.78
      P1  H  6896  6909       L1     3  0.78

> <Gold.Chemscore.Hbond.Weighted>
-5.1830

> <Gold.Chemscore.Metal.Weighted>
-0.0000

> <Gold.Chemscore.Lipo.Weighted>
-10.1262

> <Gold.Chemscore.Internal_Hbond.Weighted>
0.0000

> <Gold.Chemscore.DEClash.Weighted>
0.3495

> <Gold.Chemscore.DEInternal.Weighted>
1.8305

> <Gold.Chemscore.Rot.Weighted>
3.4731

> <Gold.Chemscore.Internal.Correction.Weighted>
   9.000000E+99

> <Gold.Protein.RotatedTorsions>
[ 6907 6896 6895 6894 ] final  -14.70 input  -60.11 | X-H torsion
[ 7974 7965 7964 7962 ] final  108.28 input  175.53 | X-H torsion
[ 8008 7997 7996 7995 ] final   24.06 input   59.86 | X-H torsion
[ 10167 10162 10161 10158 ] final   90.61 input  -65.29 | X-H torsion
[ 10718 10713 10712 10709 ] final  -75.86 input   66.30 | X-H torsion
[ 10763 10752 10751 10750 ] final   -3.43 input  -60.55 | X-H torsion
[ 11005 11000 10999 10996 ] final -117.29 input  -57.11 | X-H torsion

> <Gold.Protein.ActiveResidues>
 VAL166  LYS551  ARG553  GLY616  TRP617  ASP618  TYR619  PRO620  LYS621  CYS622 
 ASP623  PHE694  ASN695  SER759  ASP760  ASP761  ALA762  ILE779  LEU786  VAL792 
 PHE793  MET794  SER795  GLU796  ALA797  LYS798  CYS799  TRP800  GLU811  SER814 

> <Gold.Protein.RotatedAtoms>
  151.3353  135.0851  159.9352 H   0  0  0  0  0  0  0  0  0  0  0  0  # atno 6907 bound_to 6896
  152.5225  133.9502  159.7678 H   0  0  0  0  0  0  0  0  0  0  0  0  # atno 6908 bound_to 6896
  150.9848  133.6155  159.2747 H   0  0  0  0  0  0  0  0  0  0  0  0  # atno 6909 bound_to 6896
  145.2827  139.2627  143.3907 H   0  0  0  0  0  0  0  0  0  0  0  0  # atno 7974 bound_to 7965
  154.9905  140.3113  155.4908 H   0  0  0  0  0  0  0  0  0  0  0  0  # atno 8008 bound_to 7997
  156.2940  140.2250  156.4950 H   0  0  0  0  0  0  0  0  0  0  0  0  # atno 8009 bound_to 7997
  154.7708  140.0452  157.1037 H   0  0  0  0  0  0  0  0  0  0  0  0  # atno 8010 bound_to 7997
  139.8456  144.6619  150.9231 H   0  0  0  0  0  0  0  0  0  0  0  0  # atno 10167 bound_to 10162
  156.0193  130.4451  150.3107 H   0  0  0  0  0  0  0  0  0  0  0  0  # atno 10718 bound_to 10713
  153.3713  135.6994  153.6636 H   0  0  0  0  0  0  0  0  0  0  0  0  # atno 10763 bound_to 10752
  153.5285  135.3597  155.2665 H   0  0  0  0  0  0  0  0  0  0  0  0  # atno 10764 bound_to 10752
  154.8681  135.4175  154.2991 H   0  0  0  0  0  0  0  0  0  0  0  0  # atno 10765 bound_to 10752
  141.0365  133.9902  157.3063 H   0  0  0  0  0  0  0  0  0  0  0  0  # atno 11005 bound_to 11000
  146.3211  140.3298  142.8639 LP  0  0  0  0  0  0  0  0  0  0  0  0  # atno 17320 bound_to 7965
  144.9240  140.7900  143.5731 LP  0  0  0  0  0  0  0  0  0  0  0  0  # atno 17321 bound_to 7965
  140.7793  143.3873  151.1371 LP  0  0  0  0  0  0  0  0  0  0  0  0  # atno 17342 bound_to 10162
  139.7516  143.8770  152.3078 LP  0  0  0  0  0  0  0  0  0  0  0  0  # atno 17343 bound_to 10162
  157.1209  131.0246  151.3009 LP  0  0  0  0  0  0  0  0  0  0  0  0  # atno 17370 bound_to 10713
  157.4629  130.7663  149.7252 LP  0  0  0  0  0  0  0  0  0  0  0  0  # atno 17371 bound_to 10713
  139.9244  135.0201  156.8182 LP  0  0  0  0  0  0  0  0  0  0  0  0  # atno 17394 bound_to 11000
  140.6313  133.9903  155.7663 LP  0  0  0  0  0  0  0  0  0  0  0  0  # atno 17395 bound_to 11000

$$$$
