AV-unprocessed.smi:2442|AV-procd|sdf|9626|dock7
  -GOLD-   2272013263D 1   1.00000     0.00000
 Structure written by MMmdl.
 46 47  0  0  0  0  0  0  0  0  1 V2000
  147.1431  131.5778  153.5621 C   0  0  0  0  0  0  0  0  0  0  0  0
  147.5850  132.3242  152.4396 O   0  0  0  0  0  0  0  0  0  0  0  0
  146.5373  132.8354  151.6231 C   0  0  1  0  0  0  0  0  0  0  0  0
  145.6287  131.6784  151.1547 C   0  0  0  0  0  0  0  0  0  0  0  0
  144.3959  132.1932  150.3972 C   0  0  0  0  0  0  0  0  0  0  0  0
  143.6017  133.1896  151.2524 C   0  0  0  0  0  0  0  0  0  0  0  0
  144.4922  134.3565  151.7022 C   0  0  0  0  0  0  0  0  0  0  0  0
  145.7404  133.8630  152.4595 C   0  0  2  0  0  0  0  0  0  0  0  0
  146.5799  135.0162  152.7769 N   0  0  0  0  0  0  0  0  0  0  0  0
  146.2608  135.9995  153.6293 C   0  0  0  0  0  0  0  0  0  0  0  0
  145.2126  136.0453  154.2736 O   0  0  0  0  0  0  0  0  0  0  0  0
  147.2161  136.9392  153.6794 N   0  0  0  0  0  0  0  0  0  0  0  0
  147.1468  138.1722  154.4599 C   0  0  0  0  0  0  0  0  0  0  0  0
  147.8689  139.3504  153.7729 C   0  0  0  0  0  0  0  0  0  0  0  0
  149.0381  139.9223  154.5668 C   0  0  0  0  0  0  0  0  0  0  0  0
  148.9837  141.2609  155.0119 C   0  0  0  0  0  0  0  0  0  0  0  0
  150.0577  141.7707  155.7660 C   0  0  0  0  0  0  0  0  0  0  0  0
  151.1487  141.0450  156.0849 N   0  0  0  0  0  0  0  0  0  0  0  0
  151.2018  139.7670  155.6547 C   0  0  0  0  0  0  0  0  0  0  0  0
  150.1833  139.1535  154.8931 C   0  0  0  0  0  0  0  0  0  0  0  0
  150.3381  137.7065  154.4612 C   0  0  0  0  0  0  0  0  0  0  0  0
  148.0081  131.2009  154.1077 H   0  0  0  0  0  0  0  0  0  0  0  0
  146.5442  130.7200  153.2541 H   0  0  0  0  0  0  0  0  0  0  0  0
  146.5572  132.1865  154.2506 H   0  0  0  0  0  0  0  0  0  0  0  0
  146.9532  133.3463  150.7523 H   0  0  0  0  0  0  0  0  0  0  0  0
  146.1806  130.9927  150.5125 H   0  0  0  0  0  0  0  0  0  0  0  0
  145.3050  131.0975  152.0195 H   0  0  0  0  0  0  0  0  0  0  0  0
  144.7095  132.6740  149.4697 H   0  0  0  0  0  0  0  0  0  0  0  0
  143.7580  131.3561  150.1129 H   0  0  0  0  0  0  0  0  0  0  0  0
  142.7487  133.5686  150.6886 H   0  0  0  0  0  0  0  0  0  0  0  0
  143.1941  132.6805  152.1269 H   0  0  0  0  0  0  0  0  0  0  0  0
  144.7942  134.9337  150.8268 H   0  0  0  0  0  0  0  0  0  0  0  0
  143.9164  135.0335  152.3348 H   0  0  0  0  0  0  0  0  0  0  0  0
  145.4018  133.3810  153.3790 H   0  0  0  0  0  0  0  0  0  0  0  0
  147.4669  135.0739  152.2990 H   0  0  0  0  0  0  0  0  0  0  0  0
  148.0415  136.8058  153.1139 H   0  0  0  0  0  0  0  0  0  0  0  0
  146.1081  138.4308  154.6670 H   0  0  0  0  0  0  0  0  0  0  0  0
  147.6045  137.9846  155.4312 H   0  0  0  0  0  0  0  0  0  0  0  0
  148.2109  139.0478  152.7833 H   0  0  0  0  0  0  0  0  0  0  0  0
  147.1497  140.1509  153.5954 H   0  0  0  0  0  0  0  0  0  0  0  0
  148.1299  141.8848  154.7922 H   0  0  0  0  0  0  0  0  0  0  0  0
  150.0383  142.7891  156.1248 H   0  0  0  0  0  0  0  0  0  0  0  0
  152.0894  139.2166  155.9299 H   0  0  0  0  0  0  0  0  0  0  0  0
  151.3232  137.3219  154.7263 H   0  0  0  0  0  0  0  0  0  0  0  0
  150.2253  137.6088  153.3818 H   0  0  0  0  0  0  0  0  0  0  0  0
  149.5948  137.0782  154.9508 H   0  0  0  0  0  0  0  0  0  0  0  0
  1  2  1  0  0  0  0
  1 22  1  0  0  0  0
  1 23  1  0  0  0  0
  1 24  1  0  0  0  0
  2  3  1  0  0  0  0
  3  8  1  0  0  0  0
  3  4  1  0  0  0  0
  3 25  1  0  0  0  0
  4  5  1  0  0  0  0
  4 26  1  0  0  0  0
  4 27  1  0  0  0  0
  5  6  1  0  0  0  0
  5 28  1  0  0  0  0
  5 29  1  0  0  0  0
  6  7  1  0  0  0  0
  6 30  1  0  0  0  0
  6 31  1  0  0  0  0
  7  8  1  0  0  0  0
  7 32  1  0  0  0  0
  7 33  1  0  0  0  0
  8  9  1  0  0  0  0
  8 34  1  0  0  0  0
  9 10  1  0  0  0  0
  9 35  1  0  0  0  0
 10 11  2  0  0  0  0
 10 12  1  0  0  0  0
 12 13  1  0  0  0  0
 12 36  1  0  0  0  0
 13 14  1  0  0  0  0
 13 37  1  0  0  0  0
 13 38  1  0  0  0  0
 14 15  1  0  0  0  0
 14 39  1  0  0  0  0
 14 40  1  0  0  0  0
 15 20  1  0  0  0  0
 15 16  2  0  0  0  0
 16 17  1  0  0  0  0
 16 41  1  0  0  0  0
 17 18  2  0  0  0  0
 17 42  1  0  0  0  0
 18 19  1  0  0  0  0
 19 20  2  0  0  0  0
 19 43  1  0  0  0  0
 20 21  1  0  0  0  0
 21 44  1  0  0  0  0
 21 45  1  0  0  0  0
 21 46  1  0  0  0  0
M  END
> <s_m_source_file>
AV-unprocessed.smi

> <i_m_source_file_index>
2442

> <i_lp_mmshare_version>
43012

> <i_f3d_flags>
0

> <s_epik_input>
W0NIM11PW0NAQEhdMVtDSDJdW0NIMl1bQ0gyXVtDSDJdW0NASF0xW05IXUMoPU8pW05IXVtDSDJdW0NIMl1jMltjSF1bY0hdbltjSF1jMltDSDNd

> <s_epik_cmdline>
J2VwaWtfcHl0aG9uJywgJy1waCcsICc3LjAnLCAnLXRuJywgJzgnLCAnLW1hJywgJzIwMCcsICctbWV0YWxfYmluZGluZycsICctaW1hZScsICc8aW5maWxlLm1hZT4nLCAnLW9tYWUnLCAnPG91dGZpbGUubWFlPic=

> <r_epik_Ionization_Penalty>
0.106136

> <r_epik_Ionization_Penalty_Charging>
0

> <r_epik_Ionization_Penalty_Neutral>
0.106136

> <r_epik_State_Penalty>
0.0959393

> <r_epik_Charging_Adjusted_Penalty>
0.0959393

> <i_epik_Tot_Q>
0

> <i_epik_Tot_abs_Q>
0

> <r_epik_Metal_State_Penalty>
0.0812517

> <b_epik_Metal_Only>
0

> <s_lp_Force_Field>
OPLS_2005

> <r_lp_Energy>
10.54

> <b_lp_Chiralities_Consistent>
1

> <s_lp_Variant>
AV-unprocessed.smi:2442-4

> <Gold.Version>
5.8.1

> <Gold.Id.Protein>
6NUR|6NUR_protein|mol2

> <Gold.PLP.Fitness>
42.1437

> <Gold.PLP.PLP>
-34.6185

> <Gold.PLP.part.hbond>
-2.3484

> <Gold.PLP.part.metal>
0.0000

> <Gold.PLP.part.buried>
-4.1518

> <Gold.PLP.part.nonpolar>
-29.3130

> <Gold.PLP.part.repulsive>
0.6373

> <Gold.PLP.ligand.clash>
0.0000

> <Gold.PLP.ligand.torsion>
0.6390

> <Gold.PLP.Chemscore.Hbond>
1.9280

> <Gold.PLP.Chemscore.CHOScore>
1.0000

> <Gold.PLP.Chemscore.Metal>
0.0000

> <Gold.Chemscore.Hbonds>
donor molecule, donor type, donor heavy atom, donor atom, acceptor molecule, acceptor atom, score
      L1  H     9    35       P1  7948  0.93
      L1  H    12    36       P1  7948  1.00
      L1  C    17    42       P1  8028  1.00

> <Gold.PLP.Chemscore.Internal.Correction>
0.0192

> <Gold.Rescore>
     Score         DG    S(hbond)    S(metal)    S(lipo)     H(rot)  DE(clash)    DE(int)     intcor
     17.95     -18.95       1.94        0.00      95.64       1.64       0.19       0.81       ----

> <Gold.Chemscore.Fitness>
17.9550

> <Gold.Chemscore.DG>
-18.9507

> <Gold.Chemscore.ZeroCoef>
-5.4800

> <Gold.Chemscore.Hbond>
1.9385

> <Gold.Chemscore.Metal>
0.0000

> <Gold.Chemscore.Lipo>
95.6382

> <Gold.Chemscore.Internal_Hbond>
0.0000

> <Gold.Chemscore.DEClash>
0.1896

> <Gold.Chemscore.DEInternal>
0.8061

> <Gold.Chemscore.Rot>
1.6380

> <Gold.Chemscore.Internal.Correction>
   9.000000E+99

> <Gold.Chemscore.Hbonds>
donor molecule, donor type, donor heavy atom, donor atom, acceptor molecule, acceptor atom, score
      L1  H     9    35       P1  7948  0.88
      L1  H    12    36       P1  7948  0.99

> <Gold.Chemscore.Hbond.Weighted>
-6.4744

> <Gold.Chemscore.Metal.Weighted>
-0.0000

> <Gold.Chemscore.Lipo.Weighted>
-11.1897

> <Gold.Chemscore.Internal_Hbond.Weighted>
0.0000

> <Gold.Chemscore.DEClash.Weighted>
0.1896

> <Gold.Chemscore.DEInternal.Weighted>
0.8061

> <Gold.Chemscore.Rot.Weighted>
4.1934

> <Gold.Chemscore.Internal.Correction.Weighted>
   9.000000E+99

> <Gold.Protein.RotatedTorsions>
[ 6907 6896 6895 6894 ] final  120.73 input  -60.11 | X-H torsion
[ 7974 7965 7964 7962 ] final -144.72 input  175.53 | X-H torsion
[ 8008 7997 7996 7995 ] final  104.35 input   59.86 | X-H torsion
[ 10167 10162 10161 10158 ] final   21.73 input  -65.29 | X-H torsion
[ 10718 10713 10712 10709 ] final   49.93 input   66.30 | X-H torsion
[ 10763 10752 10751 10750 ] final  115.39 input  -60.55 | X-H torsion
[ 11005 11000 10999 10996 ] final  -44.16 input  -57.11 | X-H torsion

> <Gold.Protein.ActiveResidues>
 VAL166  LYS551  ARG553  GLY616  TRP617  ASP618  TYR619  PRO620  LYS621  CYS622 
 ASP623  PHE694  ASN695  SER759  ASP760  ASP761  ALA762  ILE779  LEU786  VAL792 
 PHE793  MET794  SER795  GLU796  ALA797  LYS798  CYS799  TRP800  GLU811  SER814 

> <Gold.Protein.RotatedAtoms>
  152.4376  133.7389  159.6629 H   0  0  0  0  0  0  0  0  0  0  0  0  # atno 6907 bound_to 6896
  150.8262  133.8158  159.3124 H   0  0  0  0  0  0  0  0  0  0  0  0  # atno 6908 bound_to 6896
  151.5825  135.1060  160.0072 H   0  0  0  0  0  0  0  0  0  0  0  0  # atno 6909 bound_to 6896
  144.8277  140.5674  143.5536 H   0  0  0  0  0  0  0  0  0  0  0  0  # atno 7974 bound_to 7965
  156.1565  140.3149  155.8735 H   0  0  0  0  0  0  0  0  0  0  0  0  # atno 8008 bound_to 7997
  155.3868  140.0491  157.3059 H   0  0  0  0  0  0  0  0  0  0  0  0  # atno 8009 bound_to 7997
  154.5106  140.2163  155.9175 H   0  0  0  0  0  0  0  0  0  0  0  0  # atno 8010 bound_to 7997
  140.5404  143.9687  150.6516 H   0  0  0  0  0  0  0  0  0  0  0  0  # atno 10167 bound_to 10162
  157.4835  130.8330  149.8120 H   0  0  0  0  0  0  0  0  0  0  0  0  # atno 10718 bound_to 10713
  153.5215  135.3597  155.2634 H   0  0  0  0  0  0  0  0  0  0  0  0  # atno 10763 bound_to 10752
  154.8734  135.4047  154.3254 H   0  0  0  0  0  0  0  0  0  0  0  0  # atno 10764 bound_to 10752
  153.3925  135.7072  153.6551 H   0  0  0  0  0  0  0  0  0  0  0  0  # atno 10765 bound_to 10752
  141.0432  133.6772  156.2833 H   0  0  0  0  0  0  0  0  0  0  0  0  # atno 11005 bound_to 11000
  145.4963  139.1486  143.3682 LP  0  0  0  0  0  0  0  0  0  0  0  0  # atno 17320 bound_to 7965
  146.2582  140.5102  142.8864 LP  0  0  0  0  0  0  0  0  0  0  0  0  # atno 17321 bound_to 7965
  140.3086  143.3213  152.0901 LP  0  0  0  0  0  0  0  0  0  0  0  0  # atno 17342 bound_to 10162
  139.4986  144.6651  151.6376 LP  0  0  0  0  0  0  0  0  0  0  0  0  # atno 17343 bound_to 10162
  156.0134  130.3823  150.2189 LP  0  0  0  0  0  0  0  0  0  0  0  0  # atno 17370 bound_to 10713
  157.0376  131.0025  151.3293 LP  0  0  0  0  0  0  0  0  0  0  0  0  # atno 17371 bound_to 10713
  140.6196  134.5375  157.5545 LP  0  0  0  0  0  0  0  0  0  0  0  0  # atno 17394 bound_to 11000
  139.9291  134.7998  156.0981 LP  0  0  0  0  0  0  0  0  0  0  0  0  # atno 17395 bound_to 11000

$$$$
