AV-unprocessed.smi:155|AV-procd|sdf|1277|dock5
  -GOLD-   2262018543D 1   1.00000     0.00000
 Structure written by MMmdl.
 63 66  0  0  0  0  0  0  0  0  2 V2000
  143.9598  132.8425  148.9850 C   0  0  0  0  0  0  0  0  0  0  0  0
  143.6299  133.5828  150.2235 N   0  3  0  0  0  0  0  0  0  0  0  0
  143.4881  132.6690  151.3807 C   0  0  0  0  0  0  0  0  0  0  0  0
  144.5712  134.7040  150.4687 C   0  0  0  0  0  0  0  0  0  0  0  0
  144.4098  135.3128  151.8785 C   0  0  0  0  0  0  0  0  0  0  0  0
  145.5694  136.1247  152.2560 N   0  0  0  0  0  0  0  0  0  0  0  0
  145.4663  137.4531  151.6415 C   0  0  0  0  0  0  0  0  0  0  0  0
  146.7233  138.3186  151.8391 C   0  0  0  0  0  0  0  0  0  0  0  0
  146.7831  139.0011  153.2158 C   0  0  0  0  0  0  0  0  0  0  0  0
  147.1910  138.1076  154.3005 N   0  0  0  0  0  0  0  0  0  0  0  0
  148.0444  138.6078  155.2330 C   0  0  0  0  0  0  0  0  0  0  0  0
  148.3385  137.8629  156.3324 N   0  0  0  0  0  0  0  0  0  0  0  0
  149.1866  138.3233  157.2565 C   0  0  0  0  0  0  0  0  0  0  0  0
  149.8415  139.4852  157.2831 N   0  0  0  0  0  0  0  0  0  0  0  0
  149.5451  140.2433  156.1893 C   0  0  0  0  0  0  0  0  0  0  0  0
  148.6669  139.8860  155.1266 C   0  0  0  0  0  0  0  0  0  0  0  0
  148.6102  140.9198  154.1973 N   0  0  0  0  0  0  0  0  0  0  0  0
  149.4154  141.8278  154.6764 C   0  0  0  0  0  0  0  0  0  0  0  0
  150.0204  141.5026  155.8682 N   0  0  0  0  0  0  0  0  0  0  0  0
  150.9569  142.3233  156.6154 C   0  0  0  0  0  0  0  0  0  0  0  0
  150.5035  142.5561  158.0701 C   0  0  2  0  0  0  0  0  0  0  0  0
  149.2613  143.2340  158.0696 O   0  0  0  0  0  0  0  0  0  0  0  0
  151.5232  143.3847  158.8721 C   0  0  1  0  0  0  0  0  0  0  0  0
  151.4423  144.8920  158.6325 C   0  0  0  0  0  0  0  0  0  0  0  0
  152.1247  145.4337  159.8682 C   0  0  0  0  0  0  0  0  0  0  0  0
  151.6823  144.4480  160.9486 C   0  0  0  0  0  0  0  0  0  0  0  0
  151.2789  143.2609  160.2694 O   0  0  0  0  0  0  0  0  0  0  0  0
  147.0277  136.6583  154.1868 C   0  0  0  0  0  0  0  0  0  0  0  0
  145.6227  136.2492  153.7142 C   0  0  0  0  0  0  0  0  0  0  0  0
  144.9431  132.3764  149.0587 H   0  0  0  0  0  0  0  0  0  0  0  0
  143.9607  133.5092  148.1216 H   0  0  0  0  0  0  0  0  0  0  0  0
  143.2241  132.0606  148.7938 H   0  0  0  0  0  0  0  0  0  0  0  0
  144.4454  132.2161  151.6419 H   0  0  0  0  0  0  0  0  0  0  0  0
  142.7846  131.8677  151.1521 H   0  0  0  0  0  0  0  0  0  0  0  0
  143.1041  133.1906  152.2568 H   0  0  0  0  0  0  0  0  0  0  0  0
  145.5976  134.3668  150.3146 H   0  0  0  0  0  0  0  0  0  0  0  0
  144.3846  135.4640  149.7113 H   0  0  0  0  0  0  0  0  0  0  0  0
  143.4951  135.9036  151.9525 H   0  0  0  0  0  0  0  0  0  0  0  0
  144.3023  134.4883  152.5832 H   0  0  0  0  0  0  0  0  0  0  0  0
  145.3240  137.3431  150.5681 H   0  0  0  0  0  0  0  0  0  0  0  0
  144.5831  137.9779  152.0096 H   0  0  0  0  0  0  0  0  0  0  0  0
  147.6339  137.7552  151.6310 H   0  0  0  0  0  0  0  0  0  0  0  0
  146.6922  139.1094  151.0890 H   0  0  0  0  0  0  0  0  0  0  0  0
  147.4955  139.8238  153.1425 H   0  0  0  0  0  0  0  0  0  0  0  0
  145.8192  139.4482  153.4606 H   0  0  0  0  0  0  0  0  0  0  0  0
  149.3671  137.6658  158.0941 H   0  0  0  0  0  0  0  0  0  0  0  0
  149.5930  142.7654  154.1697 H   0  0  0  0  0  0  0  0  0  0  0  0
  151.9280  141.8271  156.5964 H   0  0  0  0  0  0  0  0  0  0  0  0
  151.0847  143.2746  156.0973 H   0  0  0  0  0  0  0  0  0  0  0  0
  150.3591  141.5923  158.5599 H   0  0  0  0  0  0  0  0  0  0  0  0
  149.2602  143.8575  157.3593 H   0  0  0  0  0  0  0  0  0  0  0  0
  152.5391  143.0376  158.6732 H   0  0  0  0  0  0  0  0  0  0  0  0
  151.9271  145.2045  157.7071 H   0  0  0  0  0  0  0  0  0  0  0  0
  150.4027  145.2221  158.6038 H   0  0  0  0  0  0  0  0  0  0  0  0
  153.2073  145.3894  159.7429 H   0  0  0  0  0  0  0  0  0  0  0  0
  151.8498  146.4646  160.0928 H   0  0  0  0  0  0  0  0  0  0  0  0
  152.4835  144.2397  161.6581 H   0  0  0  0  0  0  0  0  0  0  0  0
  150.8293  144.8367  161.5054 H   0  0  0  0  0  0  0  0  0  0  0  0
  147.8032  136.2357  153.5466 H   0  0  0  0  0  0  0  0  0  0  0  0
  147.1733  136.2162  155.1734 H   0  0  0  0  0  0  0  0  0  0  0  0
  144.8453  136.9112  154.0999 H   0  0  0  0  0  0  0  0  0  0  0  0
  145.4324  135.2683  154.1512 H   0  0  0  0  0  0  0  0  0  0  0  0
  142.7226  133.9982  150.0663 H   0  0  0  0  0  0  0  0  0  0  0  0
  1  2  1  0  0  0  0
  1 30  1  0  0  0  0
  1 31  1  0  0  0  0
  1 32  1  0  0  0  0
  2  3  1  0  0  0  0
  2  4  1  0  0  0  0
  2 63  1  0  0  0  0
  3 33  1  0  0  0  0
  3 34  1  0  0  0  0
  3 35  1  0  0  0  0
  4  5  1  0  0  0  0
  4 36  1  0  0  0  0
  4 37  1  0  0  0  0
  5  6  1  0  0  0  0
  5 38  1  0  0  0  0
  5 39  1  0  0  0  0
  6 29  1  0  0  0  0
  6  7  1  0  0  0  0
  7  8  1  0  0  0  0
  7 40  1  0  0  0  0
  7 41  1  0  0  0  0
  8  9  1  0  0  0  0
  8 42  1  0  0  0  0
  8 43  1  0  0  0  0
  9 10  1  0  0  0  0
  9 44  1  0  0  0  0
  9 45  1  0  0  0  0
 10 11  1  0  0  0  0
 10 28  1  0  0  0  0
 11 16  1  0  0  0  0
 11 12  2  0  0  0  0
 12 13  1  0  0  0  0
 13 14  2  0  0  0  0
 13 46  1  0  0  0  0
 14 15  1  0  0  0  0
 15 19  1  0  0  0  0
 15 16  2  0  0  0  0
 16 17  1  0  0  0  0
 17 18  2  0  0  0  0
 18 19  1  0  0  0  0
 18 47  1  0  0  0  0
 19 20  1  0  0  0  0
 20 21  1  0  0  0  0
 20 48  1  0  0  0  0
 20 49  1  0  0  0  0
 21 22  1  0  0  0  0
 21 23  1  0  0  0  0
 21 50  1  0  0  0  0
 22 51  1  0  0  0  0
 23 27  1  0  0  0  0
 23 24  1  0  0  0  0
 23 52  1  0  0  0  0
 24 25  1  0  0  0  0
 24 53  1  0  0  0  0
 24 54  1  0  0  0  0
 25 26  1  0  0  0  0
 25 55  1  0  0  0  0
 25 56  1  0  0  0  0
 26 27  1  0  0  0  0
 26 57  1  0  0  0  0
 26 58  1  0  0  0  0
 28 29  1  0  0  0  0
 28 59  1  0  0  0  0
 28 60  1  0  0  0  0
 29 61  1  0  0  0  0
 29 62  1  0  0  0  0
M  CHG  1   2   1
M  END
> <s_m_source_file>
AV-unprocessed.smi

> <i_m_source_file_index>
155

> <i_lp_mmshare_version>
43012

> <i_f3d_flags>
0

> <s_epik_input>
W0NIM11OKFtDSDNdKVtDSDJdW0NIMl1OMVtDSDJdW0NIMl1bQ0gyXU4oW0NIMl1bQ0gyXTEpYyhuW2NIXW4yKWMoYzIzKW5bY0hdbjNbQ0gyXVtDQEhdKFtPSF0pW0NAQEhdNFtDSDJdW0NIMl1bQ0gyXU80

> <s_epik_cmdline>
J2VwaWtfcHl0aG9uJywgJy1waCcsICc3LjAnLCAnLXRuJywgJzgnLCAnLW1hJywgJzIwMCcsICctbWV0YWxfYmluZGluZycsICctaW1hZScsICc8aW5maWxlLm1hZT4nLCAnLW9tYWUnLCAnPG91dGZpbGUubWFlPic=

> <r_lp_tautomer_probability>
1

> <r_epik_Ionization_Penalty>
0.0599493

> <r_epik_Ionization_Penalty_Charging>
0.00816363

> <r_epik_Ionization_Penalty_Neutral>
0.0517857

> <r_epik_State_Penalty>
0.460607

> <r_epik_Charging_Adjusted_Penalty>
0.468771

> <i_epik_Tot_Q>
1

> <i_epik_Tot_abs_Q>
1

> <r_epik_Metal_State_Penalty>
0.45965

> <b_epik_Metal_Only>
0

> <s_lp_Force_Field>
OPLS_2005

> <r_lp_Energy>
54.9456

> <b_lp_Chiralities_Consistent>
1

> <s_lp_Variant>
AV-unprocessed.smi:155-11

> <Gold.Version>
5.8.1

> <Gold.Id.Protein>
6NUR|6NUR_protein|mol2

> <Gold.PLP.Fitness>
54.8431

> <Gold.PLP.PLP>
-45.5802

> <Gold.PLP.part.hbond>
-3.3702

> <Gold.PLP.part.metal>
0.0000

> <Gold.PLP.part.buried>
1.1001

> <Gold.PLP.part.nonpolar>
-42.5897

> <Gold.PLP.part.repulsive>
0.3910

> <Gold.PLP.ligand.clash>
0.0000

> <Gold.PLP.ligand.torsion>
0.8548

> <Gold.PLP.Chemscore.Hbond>
3.0000

> <Gold.PLP.Chemscore.CHOScore>
0.5801

> <Gold.PLP.Chemscore.Metal>
0.0000

> <Gold.Chemscore.Hbonds>
donor molecule, donor type, donor heavy atom, donor atom, acceptor molecule, acceptor atom, score
      L1  H     2    63       P1 10186  2.00
      L1  H    22    51       P1  8028  1.00
      L1  C    18    47       P1  8028  0.62

> <Gold.PLP.Chemscore.Internal.Correction>
0.2322

> <Gold.Rescore>
     Score         DG    S(hbond)    S(metal)    S(lipo)     H(rot)  DE(clash)    DE(int)     intcor
     14.06     -18.10       1.53        0.00     123.57       2.71       1.95       2.09       ----

> <Gold.Chemscore.Fitness>
14.0621

> <Gold.Chemscore.DG>
-18.1037

> <Gold.Chemscore.ZeroCoef>
-5.4800

> <Gold.Chemscore.Hbond>
1.5264

> <Gold.Chemscore.Metal>
0.0000

> <Gold.Chemscore.Lipo>
123.5736

> <Gold.Chemscore.Internal_Hbond>
0.0000

> <Gold.Chemscore.DEClash>
1.9540

> <Gold.Chemscore.DEInternal>
2.0877

> <Gold.Chemscore.Rot>
2.7080

> <Gold.Chemscore.Internal.Correction>
   9.000000E+99

> <Gold.Chemscore.Hbonds>
donor molecule, donor type, donor heavy atom, donor atom, acceptor molecule, acceptor atom, score
      L1  H     2    63       P1 10186  0.99
      L1  H    22    51       P1  8028  0.30

> <Gold.Chemscore.Hbond.Weighted>
-5.0982

> <Gold.Chemscore.Metal.Weighted>
-0.0000

> <Gold.Chemscore.Lipo.Weighted>
-14.4581

> <Gold.Chemscore.Internal_Hbond.Weighted>
0.0000

> <Gold.Chemscore.DEClash.Weighted>
1.9540

> <Gold.Chemscore.DEInternal.Weighted>
2.0877

> <Gold.Chemscore.Rot.Weighted>
6.9326

> <Gold.Chemscore.Internal.Correction.Weighted>
   9.000000E+99

> <Gold.Protein.RotatedTorsions>
[ 6907 6896 6895 6894 ] final   -9.95 input  -60.11 | X-H torsion
[ 7974 7965 7964 7962 ] final -160.35 input  175.53 | X-H torsion
[ 8008 7997 7996 7995 ] final  -93.02 input   59.86 | X-H torsion
[ 10167 10162 10161 10158 ] final   -7.09 input  -65.29 | X-H torsion
[ 10718 10713 10712 10709 ] final   76.25 input   66.30 | X-H torsion
[ 10763 10752 10751 10750 ] final -156.39 input  -60.55 | X-H torsion
[ 11005 11000 10999 10996 ] final -150.57 input  -57.11 | X-H torsion

> <Gold.Protein.ActiveResidues>
 VAL166  LYS551  ARG553  GLY616  TRP617  ASP618  TYR619  PRO620  LYS621  CYS622 
 ASP623  PHE694  ASN695  SER759  ASP760  ASP761  ALA762  ILE779  LEU786  VAL792 
 PHE793  MET794  SER795  GLU796  ALA797  LYS798  CYS799  TRP800  GLU811  SER814 

> <Gold.Protein.RotatedAtoms>
  151.4097  135.0983  159.9580 H   0  0  0  0  0  0  0  0  0  0  0  0  # atno 6907 bound_to 6896
  152.5024  133.8809  159.7356 H   0  0  0  0  0  0  0  0  0  0  0  0  # atno 6908 bound_to 6896
  150.9301  133.6719  159.2841 H   0  0  0  0  0  0  0  0  0  0  0  0  # atno 6909 bound_to 6896
  144.7430  140.3555  143.6107 H   0  0  0  0  0  0  0  0  0  0  0  0  # atno 7974 bound_to 7965
  154.7304  140.0503  157.0721 H   0  0  0  0  0  0  0  0  0  0  0  0  # atno 8008 bound_to 7997
  155.0309  140.3158  155.4739 H   0  0  0  0  0  0  0  0  0  0  0  0  # atno 8009 bound_to 7997
  156.2840  140.2150  156.5431 H   0  0  0  0  0  0  0  0  0  0  0  0  # atno 8010 bound_to 7997
  140.7018  143.6120  150.8695 H   0  0  0  0  0  0  0  0  0  0  0  0  # atno 10167 bound_to 10162
  157.6666  130.9765  150.1469 H   0  0  0  0  0  0  0  0  0  0  0  0  # atno 10718 bound_to 10713
  154.7716  135.3147  154.8177 H   0  0  0  0  0  0  0  0  0  0  0  0  # atno 10763 bound_to 10752
  153.8910  135.6825  153.4765 H   0  0  0  0  0  0  0  0  0  0  0  0  # atno 10764 bound_to 10752
  153.1332  135.4771  154.9315 H   0  0  0  0  0  0  0  0  0  0  0  0  # atno 10765 bound_to 10752
  140.7388  134.3538  157.5152 H   0  0  0  0  0  0  0  0  0  0  0  0  # atno 11005 bound_to 11000
  145.7232  139.1715  143.2473 LP  0  0  0  0  0  0  0  0  0  0  0  0  # atno 17320 bound_to 7965
  146.1261  140.7246  142.9434 LP  0  0  0  0  0  0  0  0  0  0  0  0  # atno 17321 bound_to 7965
  139.9842  143.5917  152.2932 LP  0  0  0  0  0  0  0  0  0  0  0  0  # atno 17342 bound_to 10162
  139.6549  144.7662  151.2075 LP  0  0  0  0  0  0  0  0  0  0  0  0  # atno 17343 bound_to 10162
  156.2278  130.3679  149.8480 LP  0  0  0  0  0  0  0  0  0  0  0  0  # atno 17370 bound_to 10713
  156.6315  130.8667  151.3496 LP  0  0  0  0  0  0  0  0  0  0  0  0  # atno 17371 bound_to 10713
  139.8810  134.9067  156.2928 LP  0  0  0  0  0  0  0  0  0  0  0  0  # atno 17394 bound_to 11000
  140.9855  133.7240  156.0736 LP  0  0  0  0  0  0  0  0  0  0  0  0  # atno 17395 bound_to 11000

$$$$
