AV-unprocessed.smi:1337|AV-procd|sdf|5498|dock8
  -GOLD-   22720 5 83D 1   1.00000     0.00000
 Structure written by MMmdl.
 38 39  0  0  0  0  0  0  0  0  1 V2000
  150.5908  139.7779  154.2737 O   0  0  0  0  0  0  0  0  0  0  0  0
  150.9698  138.9869  155.1386 C   0  0  0  0  0  0  0  0  0  0  0  0
  151.0616  137.4833  154.8417 C   0  0  0  0  0  0  0  0  0  0  0  0
  150.3593  136.6531  155.8339 N   0  0  0  0  0  0  0  0  0  0  0  0
  148.9706  136.8257  155.9594 C   0  0  0  0  0  0  0  0  0  0  0  0
  148.2633  136.0993  156.8366 C   0  0  0  0  0  0  0  0  0  0  0  0
  149.0189  135.1307  157.6415 C   0  0  0  0  0  0  0  0  0  0  0  0
  150.2842  134.9688  157.5275 N   0  0  0  0  0  0  0  0  0  0  0  0
  151.0241  135.7304  156.6031 C   0  0  0  0  0  0  0  0  0  0  0  0
  152.2396  135.5754  156.4839 O   0  0  0  0  0  0  0  0  0  0  0  0
  151.3029  139.3635  156.3824 N   0  0  0  0  0  0  0  0  0  0  0  0
  151.2853  140.7365  156.8727 C   0  0  0  0  0  0  0  0  0  0  0  0
  151.6687  140.8090  158.3609 C   0  0  0  0  0  0  0  0  0  0  0  0
  151.8496  142.2356  158.8529 C   0  0  0  0  0  0  0  0  0  0  0  0
  152.2380  142.5099  160.1136 C   0  0  0  0  0  0  0  0  0  0  0  0
  152.4185  143.9131  160.6654 C   0  0  0  0  0  0  0  0  0  0  0  0
  151.7835  144.9832  159.7620 C   0  0  0  0  0  0  0  0  0  0  0  0
  152.0939  144.7142  158.2842 C   0  0  0  0  0  0  0  0  0  0  0  0
  151.5636  143.3391  157.8401 C   0  0  0  0  0  0  0  0  0  0  0  0
  150.6703  137.2823  153.8425 H   0  0  0  0  0  0  0  0  0  0  0  0
  152.1170  137.2113  154.7961 H   0  0  0  0  0  0  0  0  0  0  0  0
  148.5307  137.5649  155.3059 H   0  0  0  0  0  0  0  0  0  0  0  0
  147.1959  136.1793  156.9807 H   0  0  0  0  0  0  0  0  0  0  0  0
  148.4257  134.5498  158.3522 H   0  0  0  0  0  0  0  0  0  0  0  0
  151.5959  138.6490  157.0329 H   0  0  0  0  0  0  0  0  0  0  0  0
  151.9888  141.3138  156.2727 H   0  0  0  0  0  0  0  0  0  0  0  0
  150.3015  141.1802  156.7096 H   0  0  0  0  0  0  0  0  0  0  0  0
  150.9003  140.3209  158.9622 H   0  0  0  0  0  0  0  0  0  0  0  0
  152.5923  140.2568  158.5381 H   0  0  0  0  0  0  0  0  0  0  0  0
  152.4497  141.7019  160.7987 H   0  0  0  0  0  0  0  0  0  0  0  0
  151.9844  143.9659  161.6642 H   0  0  0  0  0  0  0  0  0  0  0  0
  153.4877  144.0974  160.7738 H   0  0  0  0  0  0  0  0  0  0  0  0
  150.7020  144.9861  159.9054 H   0  0  0  0  0  0  0  0  0  0  0  0
  152.1363  145.9734  160.0516 H   0  0  0  0  0  0  0  0  0  0  0  0
  151.6656  145.4976  157.6583 H   0  0  0  0  0  0  0  0  0  0  0  0
  153.1734  144.7542  158.1327 H   0  0  0  0  0  0  0  0  0  0  0  0
  152.0007  143.0742  156.8769 H   0  0  0  0  0  0  0  0  0  0  0  0
  150.4847  143.3938  157.6927 H   0  0  0  0  0  0  0  0  0  0  0  0
  1  2  2  0  0  0  0
  2  3  1  0  0  0  0
  2 11  1  0  0  0  0
  3  4  1  0  0  0  0
  3 20  1  0  0  0  0
  3 21  1  0  0  0  0
  4  9  1  0  0  0  0
  4  5  1  0  0  0  0
  5  6  2  0  0  0  0
  5 22  1  0  0  0  0
  6  7  1  0  0  0  0
  6 23  1  0  0  0  0
  7  8  2  0  0  0  0
  7 24  1  0  0  0  0
  8  9  1  0  0  0  0
  9 10  2  0  0  0  0
 11 12  1  0  0  0  0
 11 25  1  0  0  0  0
 12 13  1  0  0  0  0
 12 26  1  0  0  0  0
 12 27  1  0  0  0  0
 13 14  1  0  0  0  0
 13 28  1  0  0  0  0
 13 29  1  0  0  0  0
 14 19  1  0  0  0  0
 14 15  2  0  0  0  0
 15 16  1  0  0  0  0
 15 30  1  0  0  0  0
 16 17  1  0  0  0  0
 16 31  1  0  0  0  0
 16 32  1  0  0  0  0
 17 18  1  0  0  0  0
 17 33  1  0  0  0  0
 17 34  1  0  0  0  0
 18 19  1  0  0  0  0
 18 35  1  0  0  0  0
 18 36  1  0  0  0  0
 19 37  1  0  0  0  0
 19 38  1  0  0  0  0
M  END
> <s_m_source_file>
AV-unprocessed.smi

> <i_m_source_file_index>
1337

> <i_lp_mmshare_version>
43012

> <i_f3d_flags>
0

> <s_epik_input>
Tz1jMW5bY0hdW2NIXVtjSF1uMVtDSDJdQyg9TylbTkhdW0NIMl1bQ0gyXUMyPVtDSF1bQ0gyXVtDSDJdW0NIMl1bQ0gyXTI=

> <s_epik_cmdline>
J2VwaWtfcHl0aG9uJywgJy1waCcsICc3LjAnLCAnLXRuJywgJzgnLCAnLW1hJywgJzIwMCcsICctbWV0YWxfYmluZGluZycsICctaW1hZScsICc8aW5maWxlLm1hZT4nLCAnLW9tYWUnLCAnPG91dGZpbGUubWFlPic=

> <r_lp_tautomer_probability>
1

> <r_epik_Ionization_Penalty>
7.10509e-06

> <r_epik_Ionization_Penalty_Charging>
1.70435e-08

> <r_epik_Ionization_Penalty_Neutral>
7.08805e-06

> <r_epik_State_Penalty>
-0

> <r_epik_Charging_Adjusted_Penalty>
1.70435e-08

> <i_epik_Tot_Q>
0

> <i_epik_Tot_abs_Q>
0

> <r_epik_Metal_State_Penalty>
-0

> <b_epik_Metal_Only>
0

> <s_lp_Force_Field>
OPLS_2005

> <r_lp_Energy>
9.56824

> <b_lp_Chiralities_Consistent>
1

> <s_lp_Variant>
AV-unprocessed.smi:1337-1

> <Gold.Version>
5.8.1

> <Gold.Id.Protein>
6NUR|6NUR_protein|mol2

> <Gold.PLP.Fitness>
45.0610

> <Gold.PLP.PLP>
-37.0889

> <Gold.PLP.part.hbond>
-3.0000

> <Gold.PLP.part.metal>
0.0000

> <Gold.PLP.part.buried>
-5.8528

> <Gold.PLP.part.nonpolar>
-29.2603

> <Gold.PLP.part.repulsive>
0.2300

> <Gold.PLP.ligand.clash>
0.0000

> <Gold.PLP.ligand.torsion>
0.1033

> <Gold.PLP.Chemscore.Hbond>
2.7137

> <Gold.PLP.Chemscore.CHOScore>
0.0000

> <Gold.PLP.Chemscore.Metal>
0.0000

> <Gold.Chemscore.Hbonds>
donor molecule, donor type, donor heavy atom, donor atom, acceptor molecule, acceptor atom, score
      P1  H  6896  6909       L1     8  0.59
      P1  H  7989  7998       L1     1  1.00
      P1  H 10752 10763       L1    10  1.00

> <Gold.PLP.Chemscore.Internal.Correction>
0.0376

> <Gold.Rescore>
     Score         DG    S(hbond)    S(metal)    S(lipo)     H(rot)  DE(clash)    DE(int)     intcor
     20.45     -20.54       2.66        0.00      94.04       1.89       0.01       0.09       ----

> <Gold.Chemscore.Fitness>
20.4456

> <Gold.Chemscore.DG>
-20.5382

> <Gold.Chemscore.ZeroCoef>
-5.4800

> <Gold.Chemscore.Hbond>
2.6640

> <Gold.Chemscore.Metal>
0.0000

> <Gold.Chemscore.Lipo>
94.0416

> <Gold.Chemscore.Internal_Hbond>
0.0000

> <Gold.Chemscore.DEClash>
0.0075

> <Gold.Chemscore.DEInternal>
0.0852

> <Gold.Chemscore.Rot>
1.8916

> <Gold.Chemscore.Internal.Correction>
   9.000000E+99

> <Gold.Chemscore.Hbonds>
donor molecule, donor type, donor heavy atom, donor atom, acceptor molecule, acceptor atom, score
      P1  H  6896  6909       L1     8  0.11
      P1  H  7989  7998       L1     1  0.99
      P1  H 10752 10763       L1    10  1.00

> <Gold.Chemscore.Hbond.Weighted>
-8.8978

> <Gold.Chemscore.Metal.Weighted>
-0.0000

> <Gold.Chemscore.Lipo.Weighted>
-11.0029

> <Gold.Chemscore.Internal_Hbond.Weighted>
0.0000

> <Gold.Chemscore.DEClash.Weighted>
0.0075

> <Gold.Chemscore.DEInternal.Weighted>
0.0852

> <Gold.Chemscore.Rot.Weighted>
4.8425

> <Gold.Chemscore.Internal.Correction.Weighted>
   9.000000E+99

> <Gold.Protein.RotatedTorsions>
[ 6907 6896 6895 6894 ] final   33.00 input  -60.11 | X-H torsion
[ 7974 7965 7964 7962 ] final  -99.66 input  175.53 | X-H torsion
[ 8008 7997 7996 7995 ] final  -66.04 input   59.86 | X-H torsion
[ 10167 10162 10161 10158 ] final   30.13 input  -65.29 | X-H torsion
[ 10718 10713 10712 10709 ] final  -66.78 input   66.30 | X-H torsion
[ 10763 10752 10751 10750 ] final   95.48 input  -60.55 | X-H torsion
[ 11005 11000 10999 10996 ] final  -26.22 input  -57.11 | X-H torsion

> <Gold.Protein.ActiveResidues>
 VAL166  LYS551  ARG553  GLY616  TRP617  ASP618  TYR619  PRO620  LYS621  CYS622 
 ASP623  PHE694  ASN695  SER759  ASP760  ASP761  ALA762  ILE779  LEU786  VAL792 
 PHE793  MET794  SER795  GLU796  ALA797  LYS798  CYS799  TRP800  GLU811  SER814 

> <Gold.Protein.RotatedAtoms>
  152.0824  134.9462  160.0573 H   0  0  0  0  0  0  0  0  0  0  0  0  # atno 6907 bound_to 6896
  152.0746  133.4118  159.4482 H   0  0  0  0  0  0  0  0  0  0  0  0  # atno 6908 bound_to 6896
  150.6836  134.2972  159.4735 H   0  0  0  0  0  0  0  0  0  0  0  0  # atno 6909 bound_to 6896
  145.3047  140.9386  143.2804 H   0  0  0  0  0  0  0  0  0  0  0  0  # atno 7974 bound_to 7965
  154.4709  140.0921  156.7142 H   0  0  0  0  0  0  0  0  0  0  0  0  # atno 8008 bound_to 7997
  155.4726  140.3465  155.4309 H   0  0  0  0  0  0  0  0  0  0  0  0  # atno 8009 bound_to 7997
  156.1037  140.1429  156.9421 H   0  0  0  0  0  0  0  0  0  0  0  0  # atno 8010 bound_to 7997
  140.4705  144.0770  150.6236 H   0  0  0  0  0  0  0  0  0  0  0  0  # atno 10167 bound_to 10162
  156.0593  130.4267  150.1758 H   0  0  0  0  0  0  0  0  0  0  0  0  # atno 10718 bound_to 10713
  153.2537  135.4252  155.0824 H   0  0  0  0  0  0  0  0  0  0  0  0  # atno 10763 bound_to 10752
  154.8392  135.3432  154.6476 H   0  0  0  0  0  0  0  0  0  0  0  0  # atno 10764 bound_to 10752
  153.6896  135.7034  153.5150 H   0  0  0  0  0  0  0  0  0  0  0  0  # atno 10765 bound_to 10752
  140.9009  133.7525  156.0542 H   0  0  0  0  0  0  0  0  0  0  0  0  # atno 11005 bound_to 11000
  144.9065  139.4583  143.6607 LP  0  0  0  0  0  0  0  0  0  0  0  0  # atno 17320 bound_to 7965
  146.3139  139.7849  142.8998 LP  0  0  0  0  0  0  0  0  0  0  0  0  # atno 17321 bound_to 7965
  140.3983  143.2717  151.9978 LP  0  0  0  0  0  0  0  0  0  0  0  0  # atno 17342 bound_to 10162
  139.4818  144.6019  151.7590 LP  0  0  0  0  0  0  0  0  0  0  0  0  # atno 17343 bound_to 10162
  156.9829  130.9870  151.3433 LP  0  0  0  0  0  0  0  0  0  0  0  0  # atno 17370 bound_to 10713
  157.5590  130.8233  149.8241 LP  0  0  0  0  0  0  0  0  0  0  0  0  # atno 17371 bound_to 10713
  140.8231  134.3266  157.5375 LP  0  0  0  0  0  0  0  0  0  0  0  0  # atno 17394 bound_to 11000
  139.8742  134.9320  156.3544 LP  0  0  0  0  0  0  0  0  0  0  0  0  # atno 17395 bound_to 11000

$$$$
