AV-unprocessed.smi:249|AV-procd|sdf|1910|dock6
  -GOLD-   2262021 03D 1   1.00000     0.00000
 Structure written by MMmdl.
 64 67  0  0  0  0  0  0  0  0  2 V2000
  145.1325  132.0807  150.1250 C   0  0  0  0  0  0  0  0  0  0  0  0
  144.4510  131.7054  151.4511 C   0  0  0  0  0  0  0  0  0  0  0  0
  144.2051  132.8716  152.3487 N   0  3  2  0  0  0  0  0  0  0  0  0
  143.3901  133.9257  151.6786 C   0  0  0  0  0  0  0  0  0  0  0  0
  143.0264  135.0724  152.6316 C   0  0  0  0  0  0  0  0  0  0  0  0
  144.2946  135.7097  153.2219 C   0  0  1  0  0  0  0  0  0  0  0  0
  144.0204  136.8711  154.0795 N   0  0  0  0  0  0  0  0  0  0  0  0
  142.7704  136.8607  154.8318 C   0  0  0  0  0  0  0  0  0  0  0  0
  145.0625  137.4031  154.7628 C   0  0  0  0  0  0  0  0  0  0  0  0
  145.2058  137.1414  156.0889 N   0  0  0  0  0  0  0  0  0  0  0  0
  146.2365  137.6577  156.7653 C   0  0  0  0  0  0  0  0  0  0  0  0
  147.2155  138.4477  156.3195 N   0  0  0  0  0  0  0  0  0  0  0  0
  147.0666  138.7225  154.9918 C   0  0  0  0  0  0  0  0  0  0  0  0
  146.0283  138.2428  154.1456 C   0  0  0  0  0  0  0  0  0  0  0  0
  146.2054  138.7226  152.8542 N   0  0  0  0  0  0  0  0  0  0  0  0
  147.2929  139.4403  152.9298 C   0  0  0  0  0  0  0  0  0  0  0  0
  147.8636  139.5122  154.1814 N   0  0  0  0  0  0  0  0  0  0  0  0
  149.0726  140.2327  154.5410 C   0  0  0  0  0  0  0  0  0  0  0  0
  150.1687  139.3699  155.2205 C   0  0  1  0  0  0  0  0  0  0  0  0
  150.8520  138.4852  154.1521 C   0  0  0  0  0  0  0  0  0  0  0  0
  149.9112  137.9367  153.2510 O   0  0  0  0  0  0  0  0  0  0  0  0
  151.1978  140.1738  156.0689 C   0  0  1  0  0  0  0  0  0  0  0  0
  150.6441  140.8787  157.2988 C   0  0  0  0  0  0  0  0  0  0  0  0
  151.8858  141.1107  158.1550 C   0  0  0  0  0  0  0  0  0  0  0  0
  152.8104  140.0920  157.7954 O   0  0  0  0  0  0  0  0  0  0  0  0
  152.2747  139.3102  156.7361 C   0  0  0  0  0  0  0  0  0  0  0  0
  145.1173  134.6064  153.9104 C   0  0  0  0  0  0  0  0  0  0  0  0
  145.4535  133.4451  152.9507 C   0  0  1  0  0  0  0  0  0  0  0  0
  146.2959  132.4043  153.7179 C   0  0  0  0  0  0  0  0  0  0  0  0
  145.1318  131.2284  149.4448 H   0  0  0  0  0  0  0  0  0  0  0  0
  146.1736  132.3723  150.2594 H   0  0  0  0  0  0  0  0  0  0  0  0
  144.6089  132.8975  149.6272 H   0  0  0  0  0  0  0  0  0  0  0  0
  143.5095  131.2367  151.1744 H   0  0  0  0  0  0  0  0  0  0  0  0
  145.0335  130.9473  151.9767 H   0  0  0  0  0  0  0  0  0  0  0  0
  143.9356  134.3144  150.8172 H   0  0  0  0  0  0  0  0  0  0  0  0
  142.4587  133.5095  151.2987 H   0  0  0  0  0  0  0  0  0  0  0  0
  142.4419  135.8159  152.0895 H   0  0  0  0  0  0  0  0  0  0  0  0
  142.3844  134.6896  153.4257 H   0  0  0  0  0  0  0  0  0  0  0  0
  144.8931  136.0878  152.3918 H   0  0  0  0  0  0  0  0  0  0  0  0
  142.5709  137.8435  155.2610 H   0  0  0  0  0  0  0  0  0  0  0  0
  142.7981  136.1330  155.6433 H   0  0  0  0  0  0  0  0  0  0  0  0
  141.9353  136.6082  154.1780 H   0  0  0  0  0  0  0  0  0  0  0  0
  146.2840  137.4012  157.8134 H   0  0  0  0  0  0  0  0  0  0  0  0
  147.7032  139.9527  152.0715 H   0  0  0  0  0  0  0  0  0  0  0  0
  149.4645  140.6750  153.6244 H   0  0  0  0  0  0  0  0  0  0  0  0
  148.7980  141.0666  155.1883 H   0  0  0  0  0  0  0  0  0  0  0  0
  149.6682  138.6761  155.8966 H   0  0  0  0  0  0  0  0  0  0  0  0
  151.5924  139.0508  153.5869 H   0  0  0  0  0  0  0  0  0  0  0  0
  151.3961  137.6679  154.6267 H   0  0  0  0  0  0  0  0  0  0  0  0
  149.7082  138.5864  152.5954 H   0  0  0  0  0  0  0  0  0  0  0  0
  151.6924  140.9135  155.4374 H   0  0  0  0  0  0  0  0  0  0  0  0
  150.1391  141.8168  157.0763 H   0  0  0  0  0  0  0  0  0  0  0  0
  149.9434  140.2300  157.8266 H   0  0  0  0  0  0  0  0  0  0  0  0
  152.3335  142.0787  157.9279 H   0  0  0  0  0  0  0  0  0  0  0  0
  151.6605  141.0837  159.2213 H   0  0  0  0  0  0  0  0  0  0  0  0
  151.8346  138.4085  157.1647 H   0  0  0  0  0  0  0  0  0  0  0  0
  153.0612  139.0070  156.0446 H   0  0  0  0  0  0  0  0  0  0  0  0
  146.0419  135.0381  154.2952 H   0  0  0  0  0  0  0  0  0  0  0  0
  144.5764  134.2077  154.7699 H   0  0  0  0  0  0  0  0  0  0  0  0
  146.0659  133.8410  152.1387 H   0  0  0  0  0  0  0  0  0  0  0  0
  147.1002  132.8881  154.2735 H   0  0  0  0  0  0  0  0  0  0  0  0
  146.7798  131.6894  153.0533 H   0  0  0  0  0  0  0  0  0  0  0  0
  145.6903  131.8511  154.4364 H   0  0  0  0  0  0  0  0  0  0  0  0
  143.6529  132.5255  153.1205 H   0  0  0  0  0  0  0  0  0  0  0  0
  1  2  1  0  0  0  0
  1 30  1  0  0  0  0
  1 31  1  0  0  0  0
  1 32  1  0  0  0  0
  2  3  1  0  0  0  0
  2 33  1  0  0  0  0
  2 34  1  0  0  0  0
  3 28  1  0  0  0  0
  3  4  1  0  0  0  0
  3 64  1  0  0  0  0
  4  5  1  0  0  0  0
  4 35  1  0  0  0  0
  4 36  1  0  0  0  0
  5  6  1  0  0  0  0
  5 37  1  0  0  0  0
  5 38  1  0  0  0  0
  6  7  1  0  0  0  0
  6 27  1  0  0  0  0
  6 39  1  0  0  0  0
  7  8  1  0  0  0  0
  7  9  1  0  0  0  0
  8 40  1  0  0  0  0
  8 41  1  0  0  0  0
  8 42  1  0  0  0  0
  9 14  1  0  0  0  0
  9 10  2  0  0  0  0
 10 11  1  0  0  0  0
 11 12  2  0  0  0  0
 11 43  1  0  0  0  0
 12 13  1  0  0  0  0
 13 17  1  0  0  0  0
 13 14  2  0  0  0  0
 14 15  1  0  0  0  0
 15 16  2  0  0  0  0
 16 17  1  0  0  0  0
 16 44  1  0  0  0  0
 17 18  1  0  0  0  0
 18 19  1  0  0  0  0
 18 45  1  0  0  0  0
 18 46  1  0  0  0  0
 19 20  1  0  0  0  0
 19 22  1  0  0  0  0
 19 47  1  0  0  0  0
 20 21  1  0  0  0  0
 20 48  1  0  0  0  0
 20 49  1  0  0  0  0
 21 50  1  0  0  0  0
 22 26  1  0  0  0  0
 22 23  1  0  0  0  0
 22 51  1  0  0  0  0
 23 24  1  0  0  0  0
 23 52  1  0  0  0  0
 23 53  1  0  0  0  0
 24 25  1  0  0  0  0
 24 54  1  0  0  0  0
 24 55  1  0  0  0  0
 25 26  1  0  0  0  0
 26 56  1  0  0  0  0
 26 57  1  0  0  0  0
 27 28  1  0  0  0  0
 27 58  1  0  0  0  0
 27 59  1  0  0  0  0
 28 29  1  0  0  0  0
 28 60  1  0  0  0  0
 29 61  1  0  0  0  0
 29 62  1  0  0  0  0
 29 63  1  0  0  0  0
M  CHG  1   3   1
M  END
> <s_m_source_file>
AV-unprocessed.smi

> <i_m_source_file_index>
249

> <i_lp_mmshare_version>
43012

> <i_f3d_flags>
0

> <s_epik_input>
W0NIM11bQ0gyXU4xW0NIMl1bQ0gyXVtDQEhdKFtDSDJdW0NASF0xW0NIM10pTihbQ0gzXSljKG5bY0hdbjIpYyhjMjMpbltjSF1uM1tDSDJdW0NASF0oW0NIMl1bT0hdKVtDQEBIXTRbQ0gyXVtDSDJdT1tDSDJdNA==

> <s_epik_cmdline>
J2VwaWtfcHl0aG9uJywgJy1waCcsICc3LjAnLCAnLXRuJywgJzgnLCAnLW1hJywgJzIwMCcsICctbWV0YWxfYmluZGluZycsICctaW1hZScsICc8aW5maWxlLm1hZT4nLCAnLW9tYWUnLCAnPG91dGZpbGUubWFlPic=

> <r_lp_tautomer_probability>
1

> <r_epik_Ionization_Penalty>
0.00294688

> <r_epik_Ionization_Penalty_Charging>
0.00169971

> <r_epik_Ionization_Penalty_Neutral>
0.00124717

> <r_epik_State_Penalty>
-0

> <r_epik_Charging_Adjusted_Penalty>
0.00169971

> <i_epik_Tot_Q>
1

> <i_epik_Tot_abs_Q>
1

> <r_epik_Metal_State_Penalty>
-0

> <b_epik_Metal_Only>
0

> <s_lp_Force_Field>
OPLS_2005

> <r_lp_Energy>
54.6385

> <b_lp_Chiralities_Consistent>
1

> <s_lp_Variant>
AV-unprocessed.smi:249-13

> <Gold.Version>
5.8.1

> <Gold.Id.Protein>
6NUR|6NUR_protein|mol2

> <Gold.PLP.Fitness>
43.9676

> <Gold.PLP.PLP>
-32.7340

> <Gold.PLP.part.hbond>
-4.1760

> <Gold.PLP.part.metal>
0.0000

> <Gold.PLP.part.buried>
-2.5878

> <Gold.PLP.part.nonpolar>
-27.4866

> <Gold.PLP.part.repulsive>
0.8800

> <Gold.PLP.ligand.clash>
0.0000

> <Gold.PLP.ligand.torsion>
1.3216

> <Gold.PLP.Chemscore.Hbond>
3.3190

> <Gold.PLP.Chemscore.CHOScore>
1.0000

> <Gold.PLP.Chemscore.Metal>
0.0000

> <Gold.Chemscore.Hbonds>
donor molecule, donor type, donor heavy atom, donor atom, acceptor molecule, acceptor atom, score
      L1  H     3    64       P1 10957  1.57
      L1  H    21    50       P1  7957  1.00
      P1  H  7997  8010       L1    25  0.58
      L1  C    16    44       P1  7957  1.00

> <Gold.PLP.Chemscore.Internal.Correction>
0.9197

> <Gold.Rescore>
     Score         DG    S(hbond)    S(metal)    S(lipo)     H(rot)  DE(clash)    DE(int)     intcor
      9.14     -11.90       0.92        0.00      92.23       2.90       0.05       2.71       ----

> <Gold.Chemscore.Fitness>
9.1438

> <Gold.Chemscore.DG>
-11.9050

> <Gold.Chemscore.ZeroCoef>
-5.4800

> <Gold.Chemscore.Hbond>
0.9162

> <Gold.Chemscore.Metal>
0.0000

> <Gold.Chemscore.Lipo>
92.2264

> <Gold.Chemscore.Internal_Hbond>
0.0000

> <Gold.Chemscore.DEClash>
0.0480

> <Gold.Chemscore.DEInternal>
2.7132

> <Gold.Chemscore.Rot>
2.9006

> <Gold.Chemscore.Internal.Correction>
   9.000000E+99

> <Gold.Chemscore.Hbonds>
donor molecule, donor type, donor heavy atom, donor atom, acceptor molecule, acceptor atom, score
      L1  H     3    64       P1 10957  0.13
      L1  H    21    50       P1  7957  0.47
      P1  H  7997  8010       L1    25  0.05

> <Gold.Chemscore.Hbond.Weighted>
-3.0601

> <Gold.Chemscore.Metal.Weighted>
-0.0000

> <Gold.Chemscore.Lipo.Weighted>
-10.7905

> <Gold.Chemscore.Internal_Hbond.Weighted>
0.0000

> <Gold.Chemscore.DEClash.Weighted>
0.0480

> <Gold.Chemscore.DEInternal.Weighted>
2.7132

> <Gold.Chemscore.Rot.Weighted>
7.4256

> <Gold.Chemscore.Internal.Correction.Weighted>
   9.000000E+99

> <Gold.Protein.RotatedTorsions>
[ 6907 6896 6895 6894 ] final   -5.88 input  -60.11 | X-H torsion
[ 7974 7965 7964 7962 ] final   -6.80 input  175.53 | X-H torsion
[ 8008 7997 7996 7995 ] final   31.40 input   59.86 | X-H torsion
[ 10167 10162 10161 10158 ] final  153.99 input  -65.29 | X-H torsion
[ 10718 10713 10712 10709 ] final  172.43 input   66.30 | X-H torsion
[ 10763 10752 10751 10750 ] final  -44.85 input  -60.55 | X-H torsion
[ 11005 11000 10999 10996 ] final   21.92 input  -57.11 | X-H torsion

> <Gold.Protein.ActiveResidues>
 VAL166  LYS551  ARG553  GLY616  TRP617  ASP618  TYR619  PRO620  LYS621  CYS622 
 ASP623  PHE694  ASN695  SER759  ASP760  ASP761  ALA762  ILE779  LEU786  VAL792 
 PHE793  MET794  SER795  GLU796  ALA797  LYS798  CYS799  TRP800  GLU811  SER814 

> <Gold.Protein.RotatedAtoms>
  151.4744  135.1048  159.9760 H   0  0  0  0  0  0  0  0  0  0  0  0  # atno 6907 bound_to 6896
  152.4804  133.8235  159.7077 H   0  0  0  0  0  0  0  0  0  0  0  0  # atno 6908 bound_to 6896
  150.8871  133.7232  159.2942 H   0  0  0  0  0  0  0  0  0  0  0  0  # atno 6909 bound_to 6896
  146.2322  140.2225  142.8338 H   0  0  0  0  0  0  0  0  0  0  0  0  # atno 7974 bound_to 7965
  155.1058  140.3234  155.4535 H   0  0  0  0  0  0  0  0  0  0  0  0  # atno 8008 bound_to 7997
  156.2704  140.2053  156.6130 H   0  0  0  0  0  0  0  0  0  0  0  0  # atno 8009 bound_to 7997
  154.6794  140.0528  157.0237 H   0  0  0  0  0  0  0  0  0  0  0  0  # atno 8010 bound_to 7997
  139.4825  144.5225  151.7853 H   0  0  0  0  0  0  0  0  0  0  0  0  # atno 10167 bound_to 10162
  156.9790  131.0113  151.2886 H   0  0  0  0  0  0  0  0  0  0  0  0  # atno 10718 bound_to 10713
  154.0188  135.6672  153.4771 H   0  0  0  0  0  0  0  0  0  0  0  0  # atno 10763 bound_to 10752
  153.0589  135.5039  154.8042 H   0  0  0  0  0  0  0  0  0  0  0  0  # atno 10764 bound_to 10752
  154.6950  135.3068  154.9389 H   0  0  0  0  0  0  0  0  0  0  0  0  # atno 10765 bound_to 10752
  140.3862  134.1867  155.7663 H   0  0  0  0  0  0  0  0  0  0  0  0  # atno 11005 bound_to 11000
  144.9621  140.8285  143.5507 LP  0  0  0  0  0  0  0  0  0  0  0  0  # atno 17320 bound_to 7965
  145.2197  139.2165  143.5099 LP  0  0  0  0  0  0  0  0  0  0  0  0  # atno 17321 bound_to 7965
  140.4741  144.1544  150.5922 LP  0  0  0  0  0  0  0  0  0  0  0  0  # atno 17342 bound_to 10162
  140.4350  143.2551  151.9547 LP  0  0  0  0  0  0  0  0  0  0  0  0  # atno 17343 bound_to 10162
  157.5539  130.8201  149.8180 LP  0  0  0  0  0  0  0  0  0  0  0  0  # atno 17370 bound_to 10713
  156.0252  130.3782  150.1844 LP  0  0  0  0  0  0  0  0  0  0  0  0  # atno 17371 bound_to 10713
  141.1906  133.8212  157.0910 LP  0  0  0  0  0  0  0  0  0  0  0  0  # atno 17394 bound_to 11000
  140.0441  134.9839  157.1016 LP  0  0  0  0  0  0  0  0  0  0  0  0  # atno 17395 bound_to 11000

$$$$
