AV-unprocessed.smi:3253|AV-procd|sdf|12446|dock5
  -GOLD-   2272018343D 1   1.00000     0.00000
 Structure written by MMmdl.
 37 38  0  0  0  0  0  0  0  0  2 V2000
  148.2680  134.4290  156.6800 C   0  0  0  0  0  0  0  0  0  0  0  0
  149.1602  134.1398  155.4656 C   0  0  1  0  0  0  0  0  0  0  0  0
  148.4222  133.2726  154.4217 C   0  0  0  0  0  0  0  0  0  0  0  0
  146.9896  133.5752  154.3311 N   0  0  0  0  0  0  0  0  0  0  0  0
  146.4109  134.7655  153.9712 C   0  0  0  0  0  0  0  0  0  0  0  0
  145.0548  134.5679  154.0098 C   0  0  0  0  0  0  0  0  0  0  0  0
  144.8632  133.2695  154.3997 N   0  3  0  0  0  0  0  0  0  0  0  0
  146.0408  132.6689  154.5993 C   0  0  0  0  0  0  0  0  0  0  0  0
  149.5928  135.4095  154.8827 N   0  0  0  0  0  0  0  0  0  0  0  0
  150.5927  136.1805  155.3395 C   0  0  0  0  0  0  0  0  0  0  0  0
  151.2608  135.9008  156.3359 O   0  0  0  0  0  0  0  0  0  0  0  0
  150.9024  137.4505  154.5331 C   0  0  2  0  0  0  0  0  0  0  0  0
  152.1729  138.1468  155.0619 C   0  0  0  0  0  0  0  0  0  0  0  0
  151.6566  139.4389  155.6724 C   0  0  0  0  0  0  0  0  0  0  0  0
  152.3762  140.2147  156.2993 O   0  0  0  0  0  0  0  0  0  0  0  0
  150.3494  139.5876  155.4415 N   0  0  0  0  0  0  0  0  0  0  0  0
  149.5246  140.6997  155.8938 C   0  0  0  0  0  0  0  0  0  0  0  0
  149.7855  138.5118  154.6442 C   0  0  0  0  0  0  0  0  0  0  0  0
  147.9510  133.5043  157.1631 H   0  0  0  0  0  0  0  0  0  0  0  0
  147.3705  134.9785  156.3934 H   0  0  0  0  0  0  0  0  0  0  0  0
  148.7987  135.0223  157.4256 H   0  0  0  0  0  0  0  0  0  0  0  0
  150.0288  133.5893  155.8316 H   0  0  0  0  0  0  0  0  0  0  0  0
  148.8495  133.4256  153.4296 H   0  0  0  0  0  0  0  0  0  0  0  0
  148.5312  132.2115  154.6516 H   0  0  0  0  0  0  0  0  0  0  0  0
  146.9914  135.6387  153.7110 H   0  0  0  0  0  0  0  0  0  0  0  0
  144.2334  135.2358  153.7941 H   0  0  0  0  0  0  0  0  0  0  0  0
  146.1949  131.6492  154.9044 H   0  0  0  0  0  0  0  0  0  0  0  0
  149.0969  135.7223  154.0604 H   0  0  0  0  0  0  0  0  0  0  0  0
  151.0405  137.1804  153.4846 H   0  0  0  0  0  0  0  0  0  0  0  0
  152.7166  137.5639  155.8075 H   0  0  0  0  0  0  0  0  0  0  0  0
  152.8615  138.3791  154.2489 H   0  0  0  0  0  0  0  0  0  0  0  0
  149.9871  141.6540  155.6395 H   0  0  0  0  0  0  0  0  0  0  0  0
  149.3923  140.6581  156.9755 H   0  0  0  0  0  0  0  0  0  0  0  0
  148.5383  140.6699  155.4296 H   0  0  0  0  0  0  0  0  0  0  0  0
  149.5165  138.8957  153.6592 H   0  0  0  0  0  0  0  0  0  0  0  0
  148.8742  138.1294  155.1078 H   0  0  0  0  0  0  0  0  0  0  0  0
  143.9617  132.8241  154.5165 H   0  0  0  0  0  0  0  0  0  0  0  0
  1  2  1  0  0  0  0
  1 19  1  0  0  0  0
  1 20  1  0  0  0  0
  1 21  1  0  0  0  0
  2  3  1  0  0  0  0
  2  9  1  0  0  0  0
  2 22  1  0  0  0  0
  3  4  1  0  0  0  0
  3 23  1  0  0  0  0
  3 24  1  0  0  0  0
  4  8  1  0  0  0  0
  4  5  1  0  0  0  0
  5  6  2  0  0  0  0
  5 25  1  0  0  0  0
  6  7  1  0  0  0  0
  6 26  1  0  0  0  0
  7  8  2  0  0  0  0
  7 37  1  0  0  0  0
  8 27  1  0  0  0  0
  9 10  1  0  0  0  0
  9 28  1  0  0  0  0
 10 11  2  0  0  0  0
 10 12  1  0  0  0  0
 12 18  1  0  0  0  0
 12 13  1  0  0  0  0
 12 29  1  0  0  0  0
 13 14  1  0  0  0  0
 13 30  1  0  0  0  0
 13 31  1  0  0  0  0
 14 15  2  0  0  0  0
 14 16  1  0  0  0  0
 16 17  1  0  0  0  0
 16 18  1  0  0  0  0
 17 32  1  0  0  0  0
 17 33  1  0  0  0  0
 17 34  1  0  0  0  0
 18 35  1  0  0  0  0
 18 36  1  0  0  0  0
M  CHG  1   7   1
M  END
> <s_m_source_file>
AV-unprocessed.smi

> <i_m_source_file_index>
3253

> <i_lp_mmshare_version>
43012

> <i_f3d_flags>
0

> <s_epik_input>
W2NIXTFuW2NIXVtjSF1uMVtDSDJdW0NAQEhdKFtDSDNdKVtOSF1DKD1PKVtDQEBIXTJbQ0gyXUMoPU8pTihbQ0gzXSlbQ0gyXTI=

> <s_epik_cmdline>
J2VwaWtfcHl0aG9uJywgJy1waCcsICc3LjAnLCAnLXRuJywgJzgnLCAnLW1hJywgJzIwMCcsICctbWV0YWxfYmluZGluZycsICctaW1hZScsICc8aW5maWxlLm1hZT4nLCAnLW9tYWUnLCAnPG91dGZpbGUubWFlPic=

> <r_lp_tautomer_probability>
1

> <r_epik_Ionization_Penalty>
0.251561

> <r_epik_Ionization_Penalty_Charging>
0

> <r_epik_Ionization_Penalty_Neutral>
0.251561

> <r_epik_State_Penalty>
0.242926

> <r_epik_Charging_Adjusted_Penalty>
0.242926

> <i_epik_Tot_Q>
1

> <i_epik_Tot_abs_Q>
1

> <r_epik_Metal_State_Penalty>
0.533885

> <b_epik_Metal_Only>
0

> <s_lp_Force_Field>
OPLS_2005

> <r_lp_Energy>
13.6979

> <b_lp_Chiralities_Consistent>
1

> <s_lp_Variant>
AV-unprocessed.smi:3253-2

> <Gold.Version>
5.8.1

> <Gold.Id.Protein>
6NUR|6NUR_protein|mol2

> <Gold.PLP.Fitness>
43.6024

> <Gold.PLP.PLP>
-26.9902

> <Gold.PLP.part.hbond>
-4.2166

> <Gold.PLP.part.metal>
0.0000

> <Gold.PLP.part.buried>
-0.3991

> <Gold.PLP.part.nonpolar>
-23.1123

> <Gold.PLP.part.repulsive>
0.0915

> <Gold.PLP.ligand.clash>
0.0000

> <Gold.PLP.ligand.torsion>
0.7091

> <Gold.PLP.Chemscore.Hbond>
5.0000

> <Gold.PLP.Chemscore.CHOScore>
1.0000

> <Gold.PLP.Chemscore.Metal>
0.0000

> <Gold.Chemscore.Hbonds>
donor molecule, donor type, donor heavy atom, donor atom, acceptor molecule, acceptor atom, score
      L1  H     7    37       P1 10957  2.00
      L1  H     9    28       P1  7948  0.49
      P1  H  7997  8009       L1    15  0.99
      P1  H 10752 10764       L1    11  0.18
      L1  C     5    25       P1  7948  0.44

> <Gold.PLP.Chemscore.Internal.Correction>
0.0304

> <Gold.Rescore>
     Score         DG    S(hbond)    S(metal)    S(lipo)     H(rot)  DE(clash)    DE(int)     intcor
     16.88     -17.69       3.56        0.00      47.08       2.03       0.07       0.73       ----

> <Gold.Chemscore.Fitness>
16.8836

> <Gold.Chemscore.DG>
-17.6852

> <Gold.Chemscore.ZeroCoef>
-5.4800

> <Gold.Chemscore.Hbond>
3.5640

> <Gold.Chemscore.Metal>
0.0000

> <Gold.Chemscore.Lipo>
47.0841

> <Gold.Chemscore.Internal_Hbond>
0.0000

> <Gold.Chemscore.DEClash>
0.0746

> <Gold.Chemscore.DEInternal>
0.7270

> <Gold.Chemscore.Rot>
2.0341

> <Gold.Chemscore.Internal.Correction>
   9.000000E+99

> <Gold.Chemscore.Hbonds>
donor molecule, donor type, donor heavy atom, donor atom, acceptor molecule, acceptor atom, score
      L1  H     7    37       P1 10957  1.00
      L1  H     9    28       P1  7948  0.39
      P1  H  7997  8009       L1    15  0.89
      P1  H 10752 10764       L1    11  0.01

> <Gold.Chemscore.Hbond.Weighted>
-11.9036

> <Gold.Chemscore.Metal.Weighted>
-0.0000

> <Gold.Chemscore.Lipo.Weighted>
-5.5088

> <Gold.Chemscore.Internal_Hbond.Weighted>
0.0000

> <Gold.Chemscore.DEClash.Weighted>
0.0746

> <Gold.Chemscore.DEInternal.Weighted>
0.7270

> <Gold.Chemscore.Rot.Weighted>
5.2072

> <Gold.Chemscore.Internal.Correction.Weighted>
   9.000000E+99

> <Gold.Protein.RotatedTorsions>
[ 6907 6896 6895 6894 ] final  -53.05 input  -60.11 | X-H torsion
[ 7974 7965 7964 7962 ] final  158.82 input  175.53 | X-H torsion
[ 8008 7997 7996 7995 ] final -149.04 input   59.86 | X-H torsion
[ 10167 10162 10161 10158 ] final  -59.09 input  -65.29 | X-H torsion
[ 10718 10713 10712 10709 ] final  149.17 input   66.30 | X-H torsion
[ 10763 10752 10751 10750 ] final  -29.95 input  -60.55 | X-H torsion
[ 11005 11000 10999 10996 ] final   37.03 input  -57.11 | X-H torsion

> <Gold.Protein.ActiveResidues>
 VAL166  LYS551  ARG553  GLY616  TRP617  ASP618  TYR619  PRO620  LYS621  CYS622 
 ASP623  PHE694  ASN695  SER759  ASP760  ASP761  ALA762  ILE779  LEU786  VAL792 
 PHE793  MET794  SER795  GLU796  ALA797  LYS798  CYS799  TRP800  GLU811  SER814 

> <Gold.Protein.RotatedAtoms>
  150.8461  134.7771  159.6971 H   0  0  0  0  0  0  0  0  0  0  0  0  # atno 6907 bound_to 6896
  152.4538  134.5333  159.9827 H   0  0  0  0  0  0  0  0  0  0  0  0  # atno 6908 bound_to 6896
  151.5463  133.3386  159.2980 H   0  0  0  0  0  0  0  0  0  0  0  0  # atno 6909 bound_to 6896
  144.7824  139.7531  143.6254 H   0  0  0  0  0  0  0  0  0  0  0  0  # atno 7974 bound_to 7965
  155.6012  140.0662  157.2732 H   0  0  0  0  0  0  0  0  0  0  0  0  # atno 8008 bound_to 7997
  154.4278  140.1818  156.1223 H   0  0  0  0  0  0  0  0  0  0  0  0  # atno 8009 bound_to 7997
  156.0157  140.3322  155.6990 H   0  0  0  0  0  0  0  0  0  0  0  0  # atno 8010 bound_to 7997
  140.6156  143.2401  151.5604 H   0  0  0  0  0  0  0  0  0  0  0  0  # atno 10167 bound_to 10162
  157.2994  131.0868  151.1401 H   0  0  0  0  0  0  0  0  0  0  0  0  # atno 10718 bound_to 10713
  153.7729  135.6911  153.4903 H   0  0  0  0  0  0  0  0  0  0  0  0  # atno 10763 bound_to 10752
  153.1862  135.4488  155.0090 H   0  0  0  0  0  0  0  0  0  0  0  0  # atno 10764 bound_to 10752
  154.8111  135.3378  154.7238 H   0  0  0  0  0  0  0  0  0  0  0  0  # atno 10765 bound_to 10752
  140.2266  134.3577  155.7981 H   0  0  0  0  0  0  0  0  0  0  0  0  # atno 11005 bound_to 11000
  146.2039  139.5352  142.9725 LP  0  0  0  0  0  0  0  0  0  0  0  0  # atno 17320 bound_to 7965
  145.6013  141.0355  143.2017 LP  0  0  0  0  0  0  0  0  0  0  0  0  # atno 17321 bound_to 7965
  139.5396  144.2684  152.1324 LP  0  0  0  0  0  0  0  0  0  0  0  0  # atno 17342 bound_to 10162
  140.1892  144.4768  150.6487 LP  0  0  0  0  0  0  0  0  0  0  0  0  # atno 17343 bound_to 10162
  157.2766  130.6730  149.6045 LP  0  0  0  0  0  0  0  0  0  0  0  0  # atno 17370 bound_to 10713
  155.9671  130.4462  150.5533 LP  0  0  0  0  0  0  0  0  0  0  0  0  # atno 17371 bound_to 10713
  141.2220  133.7222  156.8664 LP  0  0  0  0  0  0  0  0  0  0  0  0  # atno 17394 bound_to 11000
  140.1794  134.9044  157.2930 LP  0  0  0  0  0  0  0  0  0  0  0  0  # atno 17395 bound_to 11000

$$$$
