AV-unprocessed.smi:368|AV-procd|sdf|2434|dock9
  -GOLD-   2262022373D 1   1.00000     0.00000
 Structure written by MMmdl.
 37 38  0  0  0  0  0  0  0  0  1 V2000
  150.5800  140.5714  155.0598 O   0  0  0  0  0  0  0  0  0  0  0  0
  149.7909  141.4767  155.3340 C   0  0  0  0  0  0  0  0  0  0  0  0
  148.4461  141.6018  154.6032 C   0  0  0  0  0  0  0  0  0  0  0  0
  147.7012  140.3348  154.5205 N   0  0  0  0  0  0  0  0  0  0  0  0
  147.3081  139.8960  153.2450 C   0  0  0  0  0  0  0  0  0  0  0  0
  146.6250  138.7527  153.0904 C   0  0  0  0  0  0  0  0  0  0  0  0
  146.3201  138.0040  154.3167 C   0  0  0  0  0  0  0  0  0  0  0  0
  146.6726  138.4037  155.4814 N   0  0  0  0  0  0  0  0  0  0  0  0
  147.3850  139.6075  155.6414 C   0  0  0  0  0  0  0  0  0  0  0  0
  147.7192  140.0024  156.7586 O   0  0  0  0  0  0  0  0  0  0  0  0
  150.0285  142.3992  156.2792 N   0  0  0  0  0  0  0  0  0  0  0  0
  151.2325  142.4851  157.1024 C   0  0  0  0  0  0  0  0  0  0  0  0
  151.1461  141.4231  158.2185 C   0  0  0  0  0  0  0  0  0  0  0  0
  152.4862  141.1850  158.9352 C   0  0  0  0  0  0  0  0  0  0  0  0
  152.7800  142.1169  160.1238 C   0  0  0  0  0  0  0  0  0  0  0  0
  152.3855  143.5941  159.9526 C   0  0  0  0  0  0  0  0  0  0  0  0
  152.5930  144.1729  158.5438 C   0  0  0  0  0  0  0  0  0  0  0  0
  151.3896  143.9313  157.6163 C   0  0  0  0  0  0  0  0  0  0  0  0
  147.8506  142.3593  155.1149 H   0  0  0  0  0  0  0  0  0  0  0  0
  148.6169  142.0006  153.6014 H   0  0  0  0  0  0  0  0  0  0  0  0
  147.5873  140.5393  152.4233 H   0  0  0  0  0  0  0  0  0  0  0  0
  146.2912  138.3604  152.1412 H   0  0  0  0  0  0  0  0  0  0  0  0
  145.7663  137.0730  154.1703 H   0  0  0  0  0  0  0  0  0  0  0  0
  149.3219  143.1030  156.4370 H   0  0  0  0  0  0  0  0  0  0  0  0
  152.0944  142.2420  156.4777 H   0  0  0  0  0  0  0  0  0  0  0  0
  150.3598  141.6660  158.9346 H   0  0  0  0  0  0  0  0  0  0  0  0
  150.8497  140.4771  157.7625 H   0  0  0  0  0  0  0  0  0  0  0  0
  152.5109  140.1590  159.3041 H   0  0  0  0  0  0  0  0  0  0  0  0
  153.3004  141.2458  158.2122 H   0  0  0  0  0  0  0  0  0  0  0  0
  152.2789  141.7324  161.0127 H   0  0  0  0  0  0  0  0  0  0  0  0
  153.8468  142.0567  160.3425 H   0  0  0  0  0  0  0  0  0  0  0  0
  151.3452  143.7308  160.2500 H   0  0  0  0  0  0  0  0  0  0  0  0
  152.9655  144.1802  160.6664 H   0  0  0  0  0  0  0  0  0  0  0  0
  152.7192  145.2516  158.6413 H   0  0  0  0  0  0  0  0  0  0  0  0
  153.5173  143.8050  158.0969 H   0  0  0  0  0  0  0  0  0  0  0  0
  151.4918  144.5931  156.7552 H   0  0  0  0  0  0  0  0  0  0  0  0
  150.4747  144.2484  158.1194 H   0  0  0  0  0  0  0  0  0  0  0  0
  1  2  2  0  0  0  0
  2  3  1  0  0  0  0
  2 11  1  0  0  0  0
  3  4  1  0  0  0  0
  3 19  1  0  0  0  0
  3 20  1  0  0  0  0
  4  9  1  0  0  0  0
  4  5  1  0  0  0  0
  5  6  2  0  0  0  0
  5 21  1  0  0  0  0
  6  7  1  0  0  0  0
  6 22  1  0  0  0  0
  7  8  2  0  0  0  0
  7 23  1  0  0  0  0
  8  9  1  0  0  0  0
  9 10  2  0  0  0  0
 11 12  1  0  0  0  0
 11 24  1  0  0  0  0
 12 18  1  0  0  0  0
 12 13  1  0  0  0  0
 12 25  1  0  0  0  0
 13 14  1  0  0  0  0
 13 26  1  0  0  0  0
 13 27  1  0  0  0  0
 14 15  1  0  0  0  0
 14 28  1  0  0  0  0
 14 29  1  0  0  0  0
 15 16  1  0  0  0  0
 15 30  1  0  0  0  0
 15 31  1  0  0  0  0
 16 17  1  0  0  0  0
 16 32  1  0  0  0  0
 16 33  1  0  0  0  0
 17 18  1  0  0  0  0
 17 34  1  0  0  0  0
 17 35  1  0  0  0  0
 18 36  1  0  0  0  0
 18 37  1  0  0  0  0
M  END
> <s_m_source_file>
AV-unprocessed.smi

> <i_m_source_file_index>
368

> <i_lp_mmshare_version>
43012

> <i_f3d_flags>
0

> <s_epik_input>
W0NIMl0xW0NIMl1bQ0gyXVtDSDJdW0NIMl1bQ0gyXVtDSF0xW05IXUMoPU8pW0NIMl1uMltjSF1bY0hdW2NIXW5jMj1P

> <s_epik_cmdline>
J2VwaWtfcHl0aG9uJywgJy1waCcsICc3LjAnLCAnLXRuJywgJzgnLCAnLW1hJywgJzIwMCcsICctbWV0YWxfYmluZGluZycsICctaW1hZScsICc8aW5maWxlLm1hZT4nLCAnLW9tYWUnLCAnPG91dGZpbGUubWFlPic=

> <r_lp_tautomer_probability>
1

> <r_epik_Ionization_Penalty>
7.18069e-06

> <r_epik_Ionization_Penalty_Charging>
1.77491e-08

> <r_epik_Ionization_Penalty_Neutral>
7.16294e-06

> <r_epik_State_Penalty>
-0

> <r_epik_Charging_Adjusted_Penalty>
1.77491e-08

> <i_epik_Tot_Q>
0

> <i_epik_Tot_abs_Q>
0

> <r_epik_Metal_State_Penalty>
-0

> <b_epik_Metal_Only>
0

> <s_lp_Force_Field>
OPLS_2005

> <r_lp_Energy>
17.0449

> <b_lp_Chiralities_Consistent>
1

> <s_lp_Variant>
AV-unprocessed.smi:368-1

> <Gold.Version>
5.8.1

> <Gold.Id.Protein>
6NUR|6NUR_protein|mol2

> <Gold.PLP.Fitness>
44.1108

> <Gold.PLP.PLP>
-35.9869

> <Gold.PLP.part.hbond>
-2.0000

> <Gold.PLP.part.metal>
0.0000

> <Gold.PLP.part.buried>
-2.3991

> <Gold.PLP.part.nonpolar>
-31.8621

> <Gold.PLP.part.repulsive>
0.2107

> <Gold.PLP.ligand.clash>
0.0000

> <Gold.PLP.ligand.torsion>
0.4362

> <Gold.PLP.Chemscore.Hbond>
2.0000

> <Gold.PLP.Chemscore.CHOScore>
0.9940

> <Gold.PLP.Chemscore.Metal>
0.0000

> <Gold.Chemscore.Hbonds>
donor molecule, donor type, donor heavy atom, donor atom, acceptor molecule, acceptor atom, score
      L1  H    11    24       P1  8028  0.72
      P1  H  7989  7998       L1     1  0.98
      L1  C     5    21       P1  7957  0.80

> <Gold.PLP.Chemscore.Internal.Correction>
0.0142

> <Gold.Rescore>
     Score         DG    S(hbond)    S(metal)    S(lipo)     H(rot)  DE(clash)    DE(int)     intcor
     16.80     -18.39       1.66        0.00      95.61       1.50       0.18       1.41       ----

> <Gold.Chemscore.Fitness>
16.8047

> <Gold.Chemscore.DG>
-18.3926

> <Gold.Chemscore.ZeroCoef>
-5.4800

> <Gold.Chemscore.Hbond>
1.6648

> <Gold.Chemscore.Metal>
0.0000

> <Gold.Chemscore.Lipo>
95.6081

> <Gold.Chemscore.Internal_Hbond>
0.0000

> <Gold.Chemscore.DEClash>
0.1764

> <Gold.Chemscore.DEInternal>
1.4115

> <Gold.Chemscore.Rot>
1.4977

> <Gold.Chemscore.Internal.Correction>
   9.000000E+99

> <Gold.Chemscore.Hbonds>
donor molecule, donor type, donor heavy atom, donor atom, acceptor molecule, acceptor atom, score
      L1  H    11    24       P1  8028  0.72
      P1  H  7989  7998       L1     1  0.82

> <Gold.Chemscore.Hbond.Weighted>
-5.5606

> <Gold.Chemscore.Metal.Weighted>
-0.0000

> <Gold.Chemscore.Lipo.Weighted>
-11.1861

> <Gold.Chemscore.Internal_Hbond.Weighted>
0.0000

> <Gold.Chemscore.DEClash.Weighted>
0.1764

> <Gold.Chemscore.DEInternal.Weighted>
1.4115

> <Gold.Chemscore.Rot.Weighted>
3.8341

> <Gold.Chemscore.Internal.Correction.Weighted>
   9.000000E+99

> <Gold.Protein.RotatedTorsions>
[ 6907 6896 6895 6894 ] final   56.97 input  -60.11 | X-H torsion
[ 7974 7965 7964 7962 ] final   87.03 input  175.53 | X-H torsion
[ 8008 7997 7996 7995 ] final -148.73 input   59.86 | X-H torsion
[ 10167 10162 10161 10158 ] final   56.17 input  -65.29 | X-H torsion
[ 10718 10713 10712 10709 ] final   72.76 input   66.30 | X-H torsion
[ 10763 10752 10751 10750 ] final -117.42 input  -60.55 | X-H torsion
[ 11005 11000 10999 10996 ] final  -56.54 input  -57.11 | X-H torsion

> <Gold.Protein.ActiveResidues>
 VAL166  LYS551  ARG553  GLY616  TRP617  ASP618  TYR619  PRO620  LYS621  CYS622 
 ASP623  PHE694  ASN695  SER759  ASP760  ASP761  ALA762  ILE779  LEU786  VAL792 
 PHE793  MET794  SER795  GLU796  ALA797  LYS798  CYS799  TRP800  GLU811  SER814 

> <Gold.Protein.RotatedAtoms>
  152.3687  134.6766  160.0183 H   0  0  0  0  0  0  0  0  0  0  0  0  # atno 6907 bound_to 6896
  151.7066  133.3306  159.3288 H   0  0  0  0  0  0  0  0  0  0  0  0  # atno 6908 bound_to 6896
  150.7657  134.6504  159.6329 H   0  0  0  0  0  0  0  0  0  0  0  0  # atno 6909 bound_to 6896
  145.5644  139.2307  143.2441 H   0  0  0  0  0  0  0  0  0  0  0  0  # atno 7974 bound_to 7965
  155.5963  140.0657  157.2745 H   0  0  0  0  0  0  0  0  0  0  0  0  # atno 8008 bound_to 7997
  154.4291  140.1826  156.1174 H   0  0  0  0  0  0  0  0  0  0  0  0  # atno 8009 bound_to 7997
  156.0194  140.3318  155.7026 H   0  0  0  0  0  0  0  0  0  0  0  0  # atno 8010 bound_to 7997
  140.2116  144.3883  150.6486 H   0  0  0  0  0  0  0  0  0  0  0  0  # atno 10167 bound_to 10162
  157.6516  130.9595  150.0974 H   0  0  0  0  0  0  0  0  0  0  0  0  # atno 10718 bound_to 10713
  154.8554  135.4310  154.1976 H   0  0  0  0  0  0  0  0  0  0  0  0  # atno 10763 bound_to 10752
  153.3030  135.6970  153.7191 H   0  0  0  0  0  0  0  0  0  0  0  0  # atno 10764 bound_to 10752
  153.6314  135.3484  155.3017 H   0  0  0  0  0  0  0  0  0  0  0  0  # atno 10765 bound_to 10752
  141.1124  133.6610  156.4634 H   0  0  0  0  0  0  0  0  0  0  0  0  # atno 11005 bound_to 11000
  146.1829  140.6469  142.9181 LP  0  0  0  0  0  0  0  0  0  0  0  0  # atno 17320 bound_to 7965
  144.7467  140.5087  143.6830 LP  0  0  0  0  0  0  0  0  0  0  0  0  # atno 17321 bound_to 7965
  140.6319  143.2189  151.6476 LP  0  0  0  0  0  0  0  0  0  0  0  0  # atno 17342 bound_to 10162
  139.5178  144.3305  152.0831 LP  0  0  0  0  0  0  0  0  0  0  0  0  # atno 17343 bound_to 10162
  156.1906  130.3654  149.8915 LP  0  0  0  0  0  0  0  0  0  0  0  0  # atno 17370 bound_to 10713
  156.6844  130.8871  151.3580 LP  0  0  0  0  0  0  0  0  0  0  0  0  # atno 17371 bound_to 10713
  140.4738  134.6729  157.5141 LP  0  0  0  0  0  0  0  0  0  0  0  0  # atno 17394 bound_to 11000
  140.0026  134.6813  155.9505 LP  0  0  0  0  0  0  0  0  0  0  0  0  # atno 17395 bound_to 11000

$$$$
