AV-unprocessed.smi:113|AV-procd|sdf|1099|dock7
  -GOLD-   2262018213D 1   1.00000     0.00000
 Structure written by MMmdl.
 53 56  0  0  0  0  0  0  0  0  2 V2000
  153.3477  139.2831  159.7711 C   0  0  0  0  0  0  0  0  0  0  0  0
  152.7272  140.6001  159.3562 C   0  0  0  0  0  0  0  0  0  0  0  0
  152.0280  140.7489  158.1428 C   0  0  0  0  0  0  0  0  0  0  0  0
  151.4644  142.0031  157.8003 C   0  0  0  0  0  0  0  0  0  0  0  0
  150.6978  142.1948  156.4872 C   0  0  0  0  0  0  0  0  0  0  0  0
  149.4868  141.4060  156.3090 N   0  0  0  0  0  0  0  0  0  0  0  0
  148.4087  141.6364  157.1962 C   0  0  0  0  0  0  0  0  0  0  0  0
  148.4804  142.4788  158.0935 O   0  0  0  0  0  0  0  0  0  0  0  0
  147.2366  140.7857  156.9812 C   0  0  0  0  0  0  0  0  0  0  0  0
  146.0516  140.9503  157.9203 C   0  0  0  0  0  0  0  0  0  0  0  0
  147.2398  139.8739  155.9786 C   0  0  0  0  0  0  0  0  0  0  0  0
  148.2997  139.6859  155.1016 N   0  0  0  0  0  0  0  0  0  0  0  0
  148.3154  138.5997  154.0327 C   0  0  2  0  0  0  0  0  0  0  0  0
  148.2072  139.1072  152.5904 C   0  0  0  0  0  0  0  0  0  0  0  0
  146.7104  139.0019  152.2906 C   0  0  1  0  0  0  0  0  0  0  0  0
  146.5066  138.2661  151.0987 O   0  0  0  0  0  0  0  0  0  0  0  0
  146.1018  138.3380  153.5482 C   0  0  1  0  0  0  0  0  0  0  0  0
  145.0079  137.2769  153.3311 C   0  0  0  0  0  0  0  0  0  0  0  0
  144.1138  137.6920  152.3198 O   0  0  0  0  0  0  0  0  0  0  0  0
  147.2157  137.7692  154.2258 O   0  0  0  0  0  0  0  0  0  0  0  0
  149.4850  140.4285  155.2892 C   0  0  0  0  0  0  0  0  0  0  0  0
  150.4819  140.2200  154.5931 O   0  0  0  0  0  0  0  0  0  0  0  0
  151.6258  143.0852  158.7087 C   0  0  0  0  0  0  0  0  0  0  0  0
  151.0985  144.3731  158.4490 C   0  0  0  0  0  0  0  0  0  0  0  0
  151.2822  145.4209  159.3727 C   0  0  0  0  0  0  0  0  0  0  0  0
  151.9915  145.1978  160.5676 C   0  0  0  0  0  0  0  0  0  0  0  0
  152.5206  143.9234  160.8426 C   0  0  0  0  0  0  0  0  0  0  0  0
  152.3400  142.8743  159.9191 C   0  0  0  0  0  0  0  0  0  0  0  0
  152.8525  141.6548  160.1873 N   0  3  0  0  0  0  0  0  0  0  0  0
  153.5824  138.6738  158.8978 H   0  0  0  0  0  0  0  0  0  0  0  0
  152.6579  138.7244  160.4043 H   0  0  0  0  0  0  0  0  0  0  0  0
  154.2713  139.4463  160.3274 H   0  0  0  0  0  0  0  0  0  0  0  0
  151.9336  139.8951  157.4886 H   0  0  0  0  0  0  0  0  0  0  0  0
  150.4281  143.2446  156.3605 H   0  0  0  0  0  0  0  0  0  0  0  0
  151.3472  141.9807  155.6366 H   0  0  0  0  0  0  0  0  0  0  0  0
  145.2342  140.2744  157.6677 H   0  0  0  0  0  0  0  0  0  0  0  0
  145.6661  141.9695  157.8733 H   0  0  0  0  0  0  0  0  0  0  0  0
  146.3484  140.7430  158.9489 H   0  0  0  0  0  0  0  0  0  0  0  0
  146.3598  139.2587  155.8854 H   0  0  0  0  0  0  0  0  0  0  0  0
  149.2513  138.0599  154.1858 H   0  0  0  0  0  0  0  0  0  0  0  0
  148.6386  140.0993  152.4588 H   0  0  0  0  0  0  0  0  0  0  0  0
  148.7762  138.4212  151.9609 H   0  0  0  0  0  0  0  0  0  0  0  0
  146.2704  139.9892  152.1480 H   0  0  0  0  0  0  0  0  0  0  0  0
  145.6275  138.4268  150.7917 H   0  0  0  0  0  0  0  0  0  0  0  0
  145.7025  139.1179  154.1991 H   0  0  0  0  0  0  0  0  0  0  0  0
  145.4328  136.3048  153.0806 H   0  0  0  0  0  0  0  0  0  0  0  0
  144.4368  137.1432  154.2501 H   0  0  0  0  0  0  0  0  0  0  0  0
  143.8962  138.6001  152.4654 H   0  0  0  0  0  0  0  0  0  0  0  0
  150.5483  144.5825  157.5442 H   0  0  0  0  0  0  0  0  0  0  0  0
  150.8770  146.4001  159.1629 H   0  0  0  0  0  0  0  0  0  0  0  0
  152.1293  146.0048  161.2727 H   0  0  0  0  0  0  0  0  0  0  0  0
  153.0645  143.7583  161.7616 H   0  0  0  0  0  0  0  0  0  0  0  0
  153.3613  141.5247  161.0616 H   0  0  0  0  0  0  0  0  0  0  0  0
  1  2  1  0  0  0  0
  1 30  1  0  0  0  0
  1 31  1  0  0  0  0
  1 32  1  0  0  0  0
  2 29  1  0  0  0  0
  2  3  2  0  0  0  0
  3  4  1  0  0  0  0
  3 33  1  0  0  0  0
  4  5  1  0  0  0  0
  4 23  2  0  0  0  0
  5  6  1  0  0  0  0
  5 34  1  0  0  0  0
  5 35  1  0  0  0  0
  6 21  1  0  0  0  0
  6  7  1  0  0  0  0
  7  8  2  0  0  0  0
  7  9  1  0  0  0  0
  9 10  1  0  0  0  0
  9 11  2  0  0  0  0
 10 36  1  0  0  0  0
 10 37  1  0  0  0  0
 10 38  1  0  0  0  0
 11 12  1  0  0  0  0
 11 39  1  0  0  0  0
 12 13  1  0  0  0  0
 12 21  1  0  0  0  0
 13 20  1  0  0  0  0
 13 14  1  0  0  0  0
 13 40  1  0  0  0  0
 14 15  1  0  0  0  0
 14 41  1  0  0  0  0
 14 42  1  0  0  0  0
 15 16  1  0  0  0  0
 15 17  1  0  0  0  0
 15 43  1  0  0  0  0
 16 44  1  0  0  0  0
 17 18  1  0  0  0  0
 17 20  1  0  0  0  0
 17 45  1  0  0  0  0
 18 19  1  0  0  0  0
 18 46  1  0  0  0  0
 18 47  1  0  0  0  0
 19 48  1  0  0  0  0
 21 22  2  0  0  0  0
 23 28  1  0  0  0  0
 23 24  1  0  0  0  0
 24 25  2  0  0  0  0
 24 49  1  0  0  0  0
 25 26  1  0  0  0  0
 25 50  1  0  0  0  0
 26 27  2  0  0  0  0
 26 51  1  0  0  0  0
 27 28  1  0  0  0  0
 27 52  1  0  0  0  0
 28 29  2  0  0  0  0
 29 53  1  0  0  0  0
M  CHG  1  29   1
M  END
> <s_m_source_file>
AV-unprocessed.smi

> <i_m_source_file_index>
113

> <i_lp_mmshare_version>
43012

> <i_f3d_flags>
0

> <s_epik_input>
W2NIXTFbY0hdW2NIXVtjSF1jKGMxMiluYyhbQ0gzXSlbY0hdYzJbQ0gyXW4zYyg9TyljKFtDSDNdKVtjSF1uKGMzPU8pW0NAQEhdNFtDSDJdW0NAQEhdKFtPSF0pW0NASF0oTzQpW0NIMl1bT0hd

> <s_epik_cmdline>
J2VwaWtfcHl0aG9uJywgJy1waCcsICc3LjAnLCAnLXRuJywgJzgnLCAnLW1hJywgJzIwMCcsICctbWV0YWxfYmluZGluZycsICctaW1hZScsICc8aW5maWxlLm1hZT4nLCAnLW9tYWUnLCAnPG91dGZpbGUubWFlPic=

> <r_lp_tautomer_probability>
1

> <r_epik_Ionization_Penalty>
0.705471

> <r_epik_Ionization_Penalty_Charging>
0.70547

> <r_epik_Ionization_Penalty_Neutral>
1.19947e-07

> <r_epik_State_Penalty>
0.728574

> <r_epik_Charging_Adjusted_Penalty>
1.43404

> <i_epik_Tot_Q>
1

> <i_epik_Tot_abs_Q>
1

> <r_epik_Metal_State_Penalty>
4.61665

> <b_epik_Metal_Only>
0

> <s_epik_Chemistry_Notes>
This compound contains an acetal/aminal-like group ( X-CH(R)-Y where X, Y are N, S, or O) that may be acid/base labile, releasing an aldehyde.

> <s_lp_Force_Field>
OPLS_2005

> <r_lp_Energy>
45.3358

> <b_lp_Chiralities_Consistent>
1

> <s_lp_Variant>
AV-unprocessed.smi:113-9

> <Gold.Version>
5.8.1

> <Gold.Id.Protein>
6NUR|6NUR_protein|mol2

> <Gold.PLP.Fitness>
56.1299

> <Gold.PLP.PLP>
-45.0114

> <Gold.PLP.part.hbond>
-5.3456

> <Gold.PLP.part.metal>
0.0000

> <Gold.PLP.part.buried>
-1.5608

> <Gold.PLP.part.nonpolar>
-39.8899

> <Gold.PLP.part.repulsive>
0.4739

> <Gold.PLP.ligand.clash>
0.0000

> <Gold.PLP.ligand.torsion>
0.4718

> <Gold.PLP.Chemscore.Hbond>
4.0000

> <Gold.PLP.Chemscore.CHOScore>
0.0000

> <Gold.PLP.Chemscore.Metal>
0.0000

> <Gold.Chemscore.Hbonds>
donor molecule, donor type, donor heavy atom, donor atom, acceptor molecule, acceptor atom, score
      L1  H    16    44       P1 10171  1.00
      L1  H    19    48       P1 10175  1.00
      P1  H  7954  7966       L1    16  0.86
      P1  H  7989  7998       L1    22  1.00

> <Gold.PLP.Chemscore.Internal.Correction>
0.0622

> <Gold.Rescore>
     Score         DG    S(hbond)    S(metal)    S(lipo)     H(rot)  DE(clash)    DE(int)     intcor
     22.67     -26.55       3.85        0.00     136.09       3.01       2.36       1.52       ----

> <Gold.Chemscore.Fitness>
22.6657

> <Gold.Chemscore.DG>
-26.5460

> <Gold.Chemscore.ZeroCoef>
-5.4800

> <Gold.Chemscore.Hbond>
3.8487

> <Gold.Chemscore.Metal>
0.0000

> <Gold.Chemscore.Lipo>
136.0875

> <Gold.Chemscore.Internal_Hbond>
0.0000

> <Gold.Chemscore.DEClash>
2.3604

> <Gold.Chemscore.DEInternal>
1.5200

> <Gold.Chemscore.Rot>
3.0120

> <Gold.Chemscore.Internal.Correction>
   9.000000E+99

> <Gold.Chemscore.Hbonds>
donor molecule, donor type, donor heavy atom, donor atom, acceptor molecule, acceptor atom, score
      L1  H    16    44       P1 10171  0.96
      L1  H    19    48       P1 10175  1.00
      P1  H  7954  7966       L1    16  0.79
      P1  H  7989  7998       L1    22  0.99

> <Gold.Chemscore.Hbond.Weighted>
-12.8546

> <Gold.Chemscore.Metal.Weighted>
-0.0000

> <Gold.Chemscore.Lipo.Weighted>
-15.9222

> <Gold.Chemscore.Internal_Hbond.Weighted>
0.0000

> <Gold.Chemscore.DEClash.Weighted>
2.3604

> <Gold.Chemscore.DEInternal.Weighted>
1.5200

> <Gold.Chemscore.Rot.Weighted>
7.7108

> <Gold.Chemscore.Internal.Correction.Weighted>
   9.000000E+99

> <Gold.Protein.RotatedTorsions>
[ 6907 6896 6895 6894 ] final  -79.48 input  -60.11 | X-H torsion
[ 7974 7965 7964 7962 ] final -148.38 input  175.53 | X-H torsion
[ 8008 7997 7996 7995 ] final -165.67 input   59.86 | X-H torsion
[ 10167 10162 10161 10158 ] final -128.28 input  -65.29 | X-H torsion
[ 10718 10713 10712 10709 ] final   78.44 input   66.30 | X-H torsion
[ 10763 10752 10751 10750 ] final  -39.85 input  -60.55 | X-H torsion
[ 11005 11000 10999 10996 ] final  -84.98 input  -57.11 | X-H torsion

> <Gold.Protein.ActiveResidues>
 VAL166  LYS551  ARG553  GLY616  TRP617  ASP618  TYR619  PRO620  LYS621  CYS622 
 ASP623  PHE694  ASN695  SER759  ASP760  ASP761  ALA762  ILE779  LEU786  VAL792 
 PHE793  MET794  SER795  GLU796  ALA797  LYS798  CYS799  TRP800  GLU811  SER814 

> <Gold.Protein.RotatedAtoms>
  150.6949  134.4114  159.5163 H   0  0  0  0  0  0  0  0  0  0  0  0  # atno 6907 bound_to 6896
  152.1872  134.8701  160.0530 H   0  0  0  0  0  0  0  0  0  0  0  0  # atno 6908 bound_to 6896
  151.9670  133.3678  159.4093 H   0  0  0  0  0  0  0  0  0  0  0  0  # atno 6909 bound_to 6896
  144.8033  140.5204  143.5692 H   0  0  0  0  0  0  0  0  0  0  0  0  # atno 7974 bound_to 7965
  155.8530  140.0966  157.1662 H   0  0  0  0  0  0  0  0  0  0  0  0  # atno 8008 bound_to 7997
  154.3986  140.1379  156.3929 H   0  0  0  0  0  0  0  0  0  0  0  0  # atno 8009 bound_to 7997
  155.7940  140.3455  155.5368 H   0  0  0  0  0  0  0  0  0  0  0  0  # atno 8010 bound_to 7997
  139.9519  143.6046  152.2472 H   0  0  0  0  0  0  0  0  0  0  0  0  # atno 10167 bound_to 10162
  157.6745  130.9868  150.1787 H   0  0  0  0  0  0  0  0  0  0  0  0  # atno 10718 bound_to 10713
  153.9363  135.6766  153.4745 H   0  0  0  0  0  0  0  0  0  0  0  0  # atno 10763 bound_to 10752
  153.0954  135.4854  154.8766 H   0  0  0  0  0  0  0  0  0  0  0  0  # atno 10764 bound_to 10752
  154.7401  135.3158  154.8701 H   0  0  0  0  0  0  0  0  0  0  0  0  # atno 10765 bound_to 10752
  141.1645  133.7375  156.8947 H   0  0  0  0  0  0  0  0  0  0  0  0  # atno 11005 bound_to 11000
  145.5500  139.1476  143.3399 LP  0  0  0  0  0  0  0  0  0  0  0  0  # atno 17320 bound_to 7965
  146.2319  140.5638  142.8971 LP  0  0  0  0  0  0  0  0  0  0  0  0  # atno 17321 bound_to 7965
  139.6621  144.7662  151.1942 LP  0  0  0  0  0  0  0  0  0  0  0  0  # atno 17342 bound_to 10162
  140.7580  143.5993  150.8716 LP  0  0  0  0  0  0  0  0  0  0  0  0  # atno 17343 bound_to 10162
  156.2524  130.3702  149.8218 LP  0  0  0  0  0  0  0  0  0  0  0  0  # atno 17370 bound_to 10713
  156.5987  130.8537  151.3426 LP  0  0  0  0  0  0  0  0  0  0  0  0  # atno 17371 bound_to 10713
  140.1624  134.9156  157.2731 LP  0  0  0  0  0  0  0  0  0  0  0  0  # atno 17394 bound_to 11000
  140.2596  134.3587  155.7411 LP  0  0  0  0  0  0  0  0  0  0  0  0  # atno 17395 bound_to 11000

$$$$
