AV-unprocessed.smi:234|AV-procd|sdf|1794|dock1
  -GOLD-   2262020353D 1   1.00000     0.00000
 Structure written by MMmdl.
 59 62  0  0  0  0  0  0  0  0  1 V2000
  152.9288  142.1464  160.7053 C   0  0  0  0  0  0  0  0  0  0  0  0
  152.8615  141.0874  159.6030 C   0  0  0  0  0  0  0  0  0  0  0  0
  152.3274  139.8934  160.1493 O   0  0  0  0  0  0  0  0  0  0  0  0
  152.0829  138.8930  159.1726 C   0  0  1  0  0  0  0  0  0  0  0  0
  151.0801  137.8501  159.6619 C   0  0  0  0  0  0  0  0  0  0  0  0
  150.5730  137.8202  158.2145 C   0  0  1  0  0  0  0  0  0  0  0  0
  149.1238  137.6490  158.0849 N   0  0  0  0  0  0  0  0  0  0  0  0
  148.5276  137.9942  156.8013 C   0  0  0  0  0  0  0  0  0  0  0  0
  148.6088  136.4942  158.5666 C   0  0  0  0  0  0  0  0  0  0  0  0
  148.8128  135.3733  157.8304 N   0  0  0  0  0  0  0  0  0  0  0  0
  148.3201  134.2018  158.2434 C   0  0  0  0  0  0  0  0  0  0  0  0
  147.6114  133.9347  159.3422 N   0  0  0  0  0  0  0  0  0  0  0  0
  147.4162  135.0574  160.0920 C   0  0  0  0  0  0  0  0  0  0  0  0
  147.8824  136.3670  159.7858 C   0  0  0  0  0  0  0  0  0  0  0  0
  147.5063  137.2486  160.7925 N   0  0  0  0  0  0  0  0  0  0  0  0
  146.8412  136.5071  161.6352 C   0  0  0  0  0  0  0  0  0  0  0  0
  146.7297  135.1802  161.2871 N   0  0  0  0  0  0  0  0  0  0  0  0
  146.0348  134.1422  162.0315 C   0  0  0  0  0  0  0  0  0  0  0  0
  144.5475  133.9982  161.6306 C   0  0  1  0  0  0  0  0  0  0  0  0
  144.0085  132.8690  162.3001 O   0  0  0  0  0  0  0  0  0  0  0  0
  143.6938  135.2126  161.9644 C   0  0  0  0  0  0  0  0  0  0  0  0
  142.5311  135.0773  160.9895 C   0  0  0  0  0  0  0  0  0  0  0  0
  143.1087  134.5426  159.8052 O   0  0  0  0  0  0  0  0  0  0  0  0
  144.3371  133.8805  160.1054 C   0  0  2  0  0  0  0  0  0  0  0  0
  144.3537  132.4609  159.5160 C   0  0  0  0  0  0  0  0  0  0  0  0
  151.0778  139.2818  158.0550 C   0  0  0  0  0  0  0  0  0  0  0  0
  150.0936  140.4113  158.4095 C   0  0  0  0  0  0  0  0  0  0  0  0
  151.7002  139.6273  156.7012 C   0  0  0  0  0  0  0  0  0  0  0  0
  153.3401  143.0808  160.3230 H   0  0  0  0  0  0  0  0  0  0  0  0
  153.5604  141.8140  161.5294 H   0  0  0  0  0  0  0  0  0  0  0  0
  151.9367  142.3559  161.1057 H   0  0  0  0  0  0  0  0  0  0  0  0
  152.2376  141.4467  158.7847 H   0  0  0  0  0  0  0  0  0  0  0  0
  153.8589  140.9025  159.2013 H   0  0  0  0  0  0  0  0  0  0  0  0
  152.9936  138.4201  158.7965 H   0  0  0  0  0  0  0  0  0  0  0  0
  151.5259  136.9177  160.0093 H   0  0  0  0  0  0  0  0  0  0  0  0
  150.3583  138.2457  160.3787 H   0  0  0  0  0  0  0  0  0  0  0  0
  151.1524  137.1303  157.5979 H   0  0  0  0  0  0  0  0  0  0  0  0
  147.4383  137.9900  156.8598 H   0  0  0  0  0  0  0  0  0  0  0  0
  148.8335  137.2823  156.0335 H   0  0  0  0  0  0  0  0  0  0  0  0
  148.8349  138.9889  156.4822 H   0  0  0  0  0  0  0  0  0  0  0  0
  148.5192  133.3581  157.5992 H   0  0  0  0  0  0  0  0  0  0  0  0
  146.4032  136.9114  162.5363 H   0  0  0  0  0  0  0  0  0  0  0  0
  146.5627  133.2007  161.8742 H   0  0  0  0  0  0  0  0  0  0  0  0
  146.1198  134.3656  163.0959 H   0  0  0  0  0  0  0  0  0  0  0  0
  143.9283  133.0777  163.2183 H   0  0  0  0  0  0  0  0  0  0  0  0
  143.3781  135.2573  163.0078 H   0  0  0  0  0  0  0  0  0  0  0  0
  144.2408  136.1292  161.7403 H   0  0  0  0  0  0  0  0  0  0  0  0
  141.7908  134.3733  161.3715 H   0  0  0  0  0  0  0  0  0  0  0  0
  142.0300  136.0262  160.7981 H   0  0  0  0  0  0  0  0  0  0  0  0
  145.1094  134.4653  159.6033 H   0  0  0  0  0  0  0  0  0  0  0  0
  145.2854  131.9476  159.7553 H   0  0  0  0  0  0  0  0  0  0  0  0
  144.2628  132.4940  158.4302 H   0  0  0  0  0  0  0  0  0  0  0  0
  143.5281  131.8572  159.8940 H   0  0  0  0  0  0  0  0  0  0  0  0
  149.3262  140.5344  157.6453 H   0  0  0  0  0  0  0  0  0  0  0  0
  150.6040  141.3696  158.5069 H   0  0  0  0  0  0  0  0  0  0  0  0
  149.5797  140.2281  159.3530 H   0  0  0  0  0  0  0  0  0  0  0  0
  150.9475  139.6930  155.9158 H   0  0  0  0  0  0  0  0  0  0  0  0
  152.4234  138.8727  156.3905 H   0  0  0  0  0  0  0  0  0  0  0  0
  152.2242  140.5825  156.7299 H   0  0  0  0  0  0  0  0  0  0  0  0
  1  2  1  0  0  0  0
  1 29  1  0  0  0  0
  1 30  1  0  0  0  0
  1 31  1  0  0  0  0
  2  3  1  0  0  0  0
  2 32  1  0  0  0  0
  2 33  1  0  0  0  0
  3  4  1  0  0  0  0
  4 26  1  0  0  0  0
  4  5  1  0  0  0  0
  4 34  1  0  0  0  0
  5  6  1  0  0  0  0
  5 35  1  0  0  0  0
  5 36  1  0  0  0  0
  6  7  1  0  0  0  0
  6 26  1  0  0  0  0
  6 37  1  0  0  0  0
  7  8  1  0  0  0  0
  7  9  1  0  0  0  0
  8 38  1  0  0  0  0
  8 39  1  0  0  0  0
  8 40  1  0  0  0  0
  9 14  1  0  0  0  0
  9 10  2  0  0  0  0
 10 11  1  0  0  0  0
 11 12  2  0  0  0  0
 11 41  1  0  0  0  0
 12 13  1  0  0  0  0
 13 17  1  0  0  0  0
 13 14  2  0  0  0  0
 14 15  1  0  0  0  0
 15 16  2  0  0  0  0
 16 17  1  0  0  0  0
 16 42  1  0  0  0  0
 17 18  1  0  0  0  0
 18 19  1  0  0  0  0
 18 43  1  0  0  0  0
 18 44  1  0  0  0  0
 19 24  1  0  0  0  0
 19 20  1  0  0  0  0
 19 21  1  0  0  0  0
 20 45  1  0  0  0  0
 21 22  1  0  0  0  0
 21 46  1  0  0  0  0
 21 47  1  0  0  0  0
 22 23  1  0  0  0  0
 22 48  1  0  0  0  0
 22 49  1  0  0  0  0
 23 24  1  0  0  0  0
 24 25  1  0  0  0  0
 24 50  1  0  0  0  0
 25 51  1  0  0  0  0
 25 52  1  0  0  0  0
 25 53  1  0  0  0  0
 26 27  1  0  0  0  0
 26 28  1  0  0  0  0
 27 54  1  0  0  0  0
 27 55  1  0  0  0  0
 27 56  1  0  0  0  0
 28 57  1  0  0  0  0
 28 58  1  0  0  0  0
 28 59  1  0  0  0  0
M  END
> <s_m_source_file>
AV-unprocessed.smi

> <i_m_source_file_index>
234

> <i_lp_mmshare_version>
43012

> <i_f3d_flags>
0

> <s_epik_input>
W0NIM11bQ0gyXU9bQ0BASF0oQzEoW0NIM10pW0NIM10pW0NIMl1bQ0BIXTFOKFtDSDNdKWMobltjSF1uMiljKGMyMyluW2NIXW4zW0NIMl1bQ0BAXTQoW09IXSlbQ0gyXVtDSDJdT1tDQEhdNFtDSDNd

> <s_epik_cmdline>
J2VwaWtfcHl0aG9uJywgJy1waCcsICc3LjAnLCAnLXRuJywgJzgnLCAnLW1hJywgJzIwMCcsICctbWV0YWxfYmluZGluZycsICctaW1hZScsICc8aW5maWxlLm1hZT4nLCAnLW9tYWUnLCAnPG91dGZpbGUubWFlPic=

> <r_lp_tautomer_probability>
1

> <r_epik_Ionization_Penalty>
0.00349132

> <r_epik_Ionization_Penalty_Charging>
0

> <r_epik_Ionization_Penalty_Neutral>
0.00349132

> <r_epik_State_Penalty>
0.00242418

> <r_epik_Charging_Adjusted_Penalty>
0.00242418

> <i_epik_Tot_Q>
0

> <i_epik_Tot_abs_Q>
0

> <r_epik_Metal_State_Penalty>
-0

> <b_epik_Metal_Only>
0

> <s_lp_Force_Field>
OPLS_2005

> <r_lp_Energy>
47.8711

> <b_lp_Chiralities_Consistent>
1

> <s_lp_Variant>
AV-unprocessed.smi:234-10

> <Gold.Version>
5.8.1

> <Gold.Id.Protein>
6NUR|6NUR_protein|mol2

> <Gold.PLP.Fitness>
44.2090

> <Gold.PLP.PLP>
-40.7526

> <Gold.PLP.part.hbond>
-2.8178

> <Gold.PLP.part.metal>
0.0000

> <Gold.PLP.part.buried>
-5.0356

> <Gold.PLP.part.nonpolar>
-32.1463

> <Gold.PLP.part.repulsive>
0.0000

> <Gold.PLP.ligand.clash>
0.0000

> <Gold.PLP.ligand.torsion>
0.8708

> <Gold.PLP.Chemscore.Hbond>
1.4545

> <Gold.PLP.Chemscore.CHOScore>
0.0000

> <Gold.PLP.Chemscore.Metal>
0.0000

> <Gold.Chemscore.Hbonds>
donor molecule, donor type, donor heavy atom, donor atom, acceptor molecule, acceptor atom, score
      P1  H  6931  6943       L1    15  0.59
      P1  H  6934  6947       L1    15  1.00

> <Gold.PLP.Chemscore.Internal.Correction>
0.8347

> <Gold.Rescore>
     Score         DG    S(hbond)    S(metal)    S(lipo)     H(rot)  DE(clash)    DE(int)     intcor
     10.18     -10.92       0.89        0.00      78.45       2.62       0.02       0.72       ----

> <Gold.Chemscore.Fitness>
10.1799

> <Gold.Chemscore.DG>
-10.9167

> <Gold.Chemscore.ZeroCoef>
-5.4800

> <Gold.Chemscore.Hbond>
0.8893

> <Gold.Chemscore.Metal>
0.0000

> <Gold.Chemscore.Lipo>
78.4492

> <Gold.Chemscore.Internal_Hbond>
0.0000

> <Gold.Chemscore.DEClash>
0.0202

> <Gold.Chemscore.DEInternal>
0.7165

> <Gold.Chemscore.Rot>
2.6219

> <Gold.Chemscore.Internal.Correction>
   9.000000E+99

> <Gold.Chemscore.Hbonds>
donor molecule, donor type, donor heavy atom, donor atom, acceptor molecule, acceptor atom, score
      P1  H  6931  6943       L1    15  0.36
      P1  H  6934  6947       L1    15  0.86

> <Gold.Chemscore.Hbond.Weighted>
-2.9702

> <Gold.Chemscore.Metal.Weighted>
-0.0000

> <Gold.Chemscore.Lipo.Weighted>
-9.1786

> <Gold.Chemscore.Internal_Hbond.Weighted>
0.0000

> <Gold.Chemscore.DEClash.Weighted>
0.0202

> <Gold.Chemscore.DEInternal.Weighted>
0.7165

> <Gold.Chemscore.Rot.Weighted>
6.7121

> <Gold.Chemscore.Internal.Correction.Weighted>
   9.000000E+99

> <Gold.Protein.RotatedTorsions>
[ 6907 6896 6895 6894 ] final   65.15 input  -60.11 | X-H torsion
[ 7974 7965 7964 7962 ] final -103.40 input  175.53 | X-H torsion
[ 8008 7997 7996 7995 ] final  134.33 input   59.86 | X-H torsion
[ 10167 10162 10161 10158 ] final   99.40 input  -65.29 | X-H torsion
[ 10718 10713 10712 10709 ] final   29.21 input   66.30 | X-H torsion
[ 10763 10752 10751 10750 ] final  153.73 input  -60.55 | X-H torsion
[ 11005 11000 10999 10996 ] final -176.05 input  -57.11 | X-H torsion

> <Gold.Protein.ActiveResidues>
 VAL166  LYS551  ARG553  GLY616  TRP617  ASP618  TYR619  PRO620  LYS621  CYS622 
 ASP623  PHE694  ASN695  SER759  ASP760  ASP761  ALA762  ILE779  LEU786  VAL792 
 PHE793  MET794  SER795  GLU796  ALA797  LYS798  CYS799  TRP800  GLU811  SER814 

> <Gold.Protein.RotatedAtoms>
  152.4386  134.5637  159.9901 H   0  0  0  0  0  0  0  0  0  0  0  0  # atno 6907 bound_to 6896
  151.5740  133.3380  159.3003 H   0  0  0  0  0  0  0  0  0  0  0  0  # atno 6908 bound_to 6896
  150.8288  134.7566  159.6900 H   0  0  0  0  0  0  0  0  0  0  0  0  # atno 6909 bound_to 6896
  145.2564  140.9255  143.3065 H   0  0  0  0  0  0  0  0  0  0  0  0  # atno 7974 bound_to 7965
  156.2998  140.2499  156.3400 H   0  0  0  0  0  0  0  0  0  0  0  0  # atno 8008 bound_to 7997
  154.9064  140.0404  157.1941 H   0  0  0  0  0  0  0  0  0  0  0  0  # atno 8009 bound_to 7997
  154.8449  140.2897  155.5639 H   0  0  0  0  0  0  0  0  0  0  0  0  # atno 8010 bound_to 7997
  139.7620  144.6951  151.0278 H   0  0  0  0  0  0  0  0  0  0  0  0  # atno 10167 bound_to 10162
  157.2436  130.7081  149.6370 H   0  0  0  0  0  0  0  0  0  0  0  0  # atno 10718 bound_to 10713
  154.1409  135.2821  155.3161 H   0  0  0  0  0  0  0  0  0  0  0  0  # atno 10763 bound_to 10752
  154.6288  135.5442  153.7660 H   0  0  0  0  0  0  0  0  0  0  0  0  # atno 10764 bound_to 10752
  153.0251  135.6457  154.1556 H   0  0  0  0  0  0  0  0  0  0  0  0  # atno 10765 bound_to 10752
  140.4565  134.6295  157.4824 H   0  0  0  0  0  0  0  0  0  0  0  0  # atno 11005 bound_to 11000
  144.9457  139.4139  143.6427 LP  0  0  0  0  0  0  0  0  0  0  0  0  # atno 17320 bound_to 7965
  146.3288  139.8439  142.8885 LP  0  0  0  0  0  0  0  0  0  0  0  0  # atno 17321 bound_to 7965
  140.7808  143.4686  151.0178 LP  0  0  0  0  0  0  0  0  0  0  0  0  # atno 17342 bound_to 10162
  139.8371  143.7613  152.3180 LP  0  0  0  0  0  0  0  0  0  0  0  0  # atno 17343 bound_to 10162
  155.9669  130.4450  150.5484 LP  0  0  0  0  0  0  0  0  0  0  0  0  # atno 17370 bound_to 10713
  157.3353  131.0707  151.1830 LP  0  0  0  0  0  0  0  0  0  0  0  0  # atno 17371 bound_to 10713
  139.9973  134.6891  155.9588 LP  0  0  0  0  0  0  0  0  0  0  0  0  # atno 17394 bound_to 11000
  141.1641  133.6537  156.4418 LP  0  0  0  0  0  0  0  0  0  0  0  0  # atno 17395 bound_to 11000

$$$$
