AV-unprocessed.smi:1598|AV-procd|sdf|6422|dock6
  -GOLD-   22720 7 63D 1   1.00000     0.00000
 Structure written by MMmdl.
 39 39  0  0  0  0  0  0  0  0  1 V2000
  143.4747  136.9722  152.9949 C   0  0  0  0  0  0  0  0  0  0  0  0
  144.8828  136.8789  153.1199 O   0  0  0  0  0  0  0  0  0  0  0  0
  145.3001  136.7292  154.4668 C   0  0  0  0  0  0  0  0  0  0  0  0
  146.8353  136.7179  154.5310 C   0  0  1  0  0  0  0  0  0  0  0  0
  147.3530  136.6693  155.9783 C   0  0  0  0  0  0  0  0  0  0  0  0
  147.3325  135.5676  153.7840 N   0  0  0  0  0  0  0  0  0  0  0  0
  147.2004  134.2787  154.1425 C   0  0  0  0  0  0  0  0  0  0  0  0
  146.6183  133.9280  155.1680 O   0  0  0  0  0  0  0  0  0  0  0  0
  147.8030  133.2017  153.2196 C   0  0  0  0  0  0  0  0  0  0  0  0
  146.8196  132.2847  152.5846 N   0  0  0  0  0  0  0  0  0  0  0  0
  146.9241  130.8722  152.7854 C   0  0  0  0  0  0  0  0  0  0  0  0
  148.0199  130.3194  153.7086 C   0  0  0  0  0  0  0  0  0  0  0  0
  147.9689  128.9882  153.7730 F   0  0  0  0  0  0  0  0  0  0  0  0
  149.2308  130.6383  153.2506 F   0  0  0  0  0  0  0  0  0  0  0  0
  147.8915  130.7635  154.9585 F   0  0  0  0  0  0  0  0  0  0  0  0
  146.0415  130.0455  152.1949 C   0  0  0  0  0  0  0  0  0  0  0  0
  145.0011  130.5762  151.3580 C   0  0  0  0  0  0  0  0  0  0  0  0
  144.8846  131.9091  151.1620 C   0  0  0  0  0  0  0  0  0  0  0  0
  143.8275  132.5035  150.3119 C   0  0  0  0  0  0  0  0  0  0  0  0
  143.2996  133.6336  150.7992 N   0  0  0  0  0  0  0  0  0  0  0  0
  143.4091  132.0705  149.2385 O   0  0  0  0  0  0  0  0  0  0  0  0
  145.8362  132.8521  151.8041 C   0  0  0  0  0  0  0  0  0  0  0  0
  145.7791  134.0791  151.6778 O   0  0  0  0  0  0  0  0  0  0  0  0
  143.2072  137.0824  151.9442 H   0  0  0  0  0  0  0  0  0  0  0  0
  143.0879  137.8384  153.5333 H   0  0  0  0  0  0  0  0  0  0  0  0
  142.9842  136.0749  153.3745 H   0  0  0  0  0  0  0  0  0  0  0  0
  144.8999  137.5387  155.0800 H   0  0  0  0  0  0  0  0  0  0  0  0
  144.9044  135.7926  154.8644 H   0  0  0  0  0  0  0  0  0  0  0  0
  147.1982  137.6311  154.0555 H   0  0  0  0  0  0  0  0  0  0  0  0
  147.0012  137.5275  156.5511 H   0  0  0  0  0  0  0  0  0  0  0  0
  148.4429  136.6821  156.0089 H   0  0  0  0  0  0  0  0  0  0  0  0
  147.0161  135.7674  156.4902 H   0  0  0  0  0  0  0  0  0  0  0  0
  147.8249  135.7679  152.9259 H   0  0  0  0  0  0  0  0  0  0  0  0
  148.3896  133.7137  152.4544 H   0  0  0  0  0  0  0  0  0  0  0  0
  148.5674  132.6716  153.7796 H   0  0  0  0  0  0  0  0  0  0  0  0
  146.0949  128.9768  152.3410 H   0  0  0  0  0  0  0  0  0  0  0  0
  144.3267  129.8673  150.9012 H   0  0  0  0  0  0  0  0  0  0  0  0
  142.5716  134.1133  150.2908 H   0  0  0  0  0  0  0  0  0  0  0  0
  143.6345  134.0019  151.6777 H   0  0  0  0  0  0  0  0  0  0  0  0
  1  2  1  0  0  0  0
  1 24  1  0  0  0  0
  1 25  1  0  0  0  0
  1 26  1  0  0  0  0
  2  3  1  0  0  0  0
  3  4  1  0  0  0  0
  3 27  1  0  0  0  0
  3 28  1  0  0  0  0
  4  5  1  0  0  0  0
  4  6  1  0  0  0  0
  4 29  1  0  0  0  0
  5 30  1  0  0  0  0
  5 31  1  0  0  0  0
  5 32  1  0  0  0  0
  6  7  1  0  0  0  0
  6 33  1  0  0  0  0
  7  8  2  0  0  0  0
  7  9  1  0  0  0  0
  9 10  1  0  0  0  0
  9 34  1  0  0  0  0
  9 35  1  0  0  0  0
 10 22  1  0  0  0  0
 10 11  1  0  0  0  0
 11 12  1  0  0  0  0
 11 16  2  0  0  0  0
 12 13  1  0  0  0  0
 12 14  1  0  0  0  0
 12 15  1  0  0  0  0
 16 17  1  0  0  0  0
 16 36  1  0  0  0  0
 17 18  2  0  0  0  0
 17 37  1  0  0  0  0
 18 19  1  0  0  0  0
 18 22  1  0  0  0  0
 19 20  1  0  0  0  0
 19 21  2  0  0  0  0
 20 38  1  0  0  0  0
 20 39  1  0  0  0  0
 22 23  2  0  0  0  0
M  END
> <s_m_source_file>
AV-unprocessed.smi

> <i_m_source_file_index>
1598

> <i_lp_mmshare_version>
43012

> <i_f3d_flags>
0

> <s_epik_input>
W0NIM11PW0NIMl1bQ0BIXShbQ0gzXSlbTkhdQyg9TylbQ0gyXW4xYyhDKEYpKEYpRilbY0hdW2NIXWMoYzE9TylDKD1PKVtOSDJd

> <s_epik_cmdline>
J2VwaWtfcHl0aG9uJywgJy1waCcsICc3LjAnLCAnLXRuJywgJzgnLCAnLW1hJywgJzIwMCcsICctbWV0YWxfYmluZGluZycsICctaW1hZScsICc8aW5maWxlLm1hZT4nLCAnLW9tYWUnLCAnPG91dGZpbGUubWFlPic=

> <r_lp_tautomer_probability>
1

> <r_epik_Ionization_Penalty>
2.07884e-06

> <r_epik_Ionization_Penalty_Charging>
8.00383e-10

> <r_epik_Ionization_Penalty_Neutral>
2.07804e-06

> <r_epik_State_Penalty>
-0

> <r_epik_Charging_Adjusted_Penalty>
8.00383e-10

> <i_epik_Tot_Q>
0

> <i_epik_Tot_abs_Q>
0

> <r_epik_Metal_State_Penalty>
-0

> <b_epik_Metal_Only>
0

> <s_lp_Force_Field>
OPLS_2005

> <r_lp_Energy>
25.2492

> <b_lp_Chiralities_Consistent>
1

> <s_lp_Variant>
AV-unprocessed.smi:1598-2

> <Gold.Version>
5.8.1

> <Gold.Id.Protein>
6NUR|6NUR_protein|mol2

> <Gold.PLP.Fitness>
38.4578

> <Gold.PLP.PLP>
-31.1340

> <Gold.PLP.part.hbond>
-3.0000

> <Gold.PLP.part.metal>
0.0000

> <Gold.PLP.part.buried>
-6.1391

> <Gold.PLP.part.nonpolar>
-22.3103

> <Gold.PLP.part.repulsive>
0.6285

> <Gold.PLP.ligand.clash>
3.8786

> <Gold.PLP.ligand.torsion>
0.7201

> <Gold.PLP.Chemscore.Hbond>
2.8720

> <Gold.PLP.Chemscore.CHOScore>
0.0000

> <Gold.PLP.Chemscore.Metal>
0.0000

> <Gold.Chemscore.Hbonds>
donor molecule, donor type, donor heavy atom, donor atom, acceptor molecule, acceptor atom, score
      L1  H     6    33       P1  7948  1.00
      L1  H    20    38       P1 10186  1.00
      P1  H 10785 10796       L1    21  1.00

> <Gold.PLP.Chemscore.Internal.Correction>
4.0265

> <Gold.Rescore>
     Score         DG    S(hbond)    S(metal)    S(lipo)     H(rot)  DE(clash)    DE(int)     intcor
      8.52     -14.55       2.91        0.00      47.45       2.43       0.03       5.99       ----

> <Gold.Chemscore.Fitness>
8.5232

> <Gold.Chemscore.DG>
-14.5482

> <Gold.Chemscore.ZeroCoef>
-5.4800

> <Gold.Chemscore.Hbond>
2.9145

> <Gold.Chemscore.Metal>
0.0000

> <Gold.Chemscore.Lipo>
47.4506

> <Gold.Chemscore.Internal_Hbond>
0.0000

> <Gold.Chemscore.DEClash>
0.0310

> <Gold.Chemscore.DEInternal>
5.9940

> <Gold.Chemscore.Rot>
2.4289

> <Gold.Chemscore.Internal.Correction>
   9.000000E+99

> <Gold.Chemscore.Hbonds>
donor molecule, donor type, donor heavy atom, donor atom, acceptor molecule, acceptor atom, score
      L1  H     6    33       P1  7948  0.99
      L1  H    20    38       P1 10186  0.90
      P1  H 10785 10796       L1    21  0.91

> <Gold.Chemscore.Hbond.Weighted>
-9.7345

> <Gold.Chemscore.Metal.Weighted>
-0.0000

> <Gold.Chemscore.Lipo.Weighted>
-5.5517

> <Gold.Chemscore.Internal_Hbond.Weighted>
0.0000

> <Gold.Chemscore.DEClash.Weighted>
0.0310

> <Gold.Chemscore.DEInternal.Weighted>
5.9940

> <Gold.Chemscore.Rot.Weighted>
6.2180

> <Gold.Chemscore.Internal.Correction.Weighted>
   9.000000E+99

> <Gold.Protein.RotatedTorsions>
[ 6907 6896 6895 6894 ] final -179.57 input  -60.11 | X-H torsion
[ 7974 7965 7964 7962 ] final   -9.31 input  175.53 | X-H torsion
[ 8008 7997 7996 7995 ] final  -41.58 input   59.86 | X-H torsion
[ 10167 10162 10161 10158 ] final  136.60 input  -65.29 | X-H torsion
[ 10718 10713 10712 10709 ] final  135.88 input   66.30 | X-H torsion
[ 10763 10752 10751 10750 ] final   98.65 input  -60.55 | X-H torsion
[ 11005 11000 10999 10996 ] final  178.29 input  -57.11 | X-H torsion

> <Gold.Protein.ActiveResidues>
 VAL166  LYS551  ARG553  GLY616  TRP617  ASP618  TYR619  PRO620  LYS621  CYS622 
 ASP623  PHE694  ASN695  SER759  ASP760  ASP761  ALA762  ILE779  LEU786  VAL792 
 PHE793  MET794  SER795  GLU796  ALA797  LYS798  CYS799  TRP800  GLU811  SER814 

> <Gold.Protein.RotatedAtoms>
  151.6556  133.3319  159.3161 H   0  0  0  0  0  0  0  0  0  0  0  0  # atno 6907 bound_to 6896
  150.7938  134.6987  159.6547 H   0  0  0  0  0  0  0  0  0  0  0  0  # atno 6908 bound_to 6896
  152.4022  134.6270  160.0117 H   0  0  0  0  0  0  0  0  0  0  0  0  # atno 6909 bound_to 6896
  146.2255  140.2597  142.8351 H   0  0  0  0  0  0  0  0  0  0  0  0  # atno 7974 bound_to 7965
  154.4003  140.1496  156.3213 H   0  0  0  0  0  0  0  0  0  0  0  0  # atno 8008 bound_to 7997
  155.8526  140.3457  155.5682 H   0  0  0  0  0  0  0  0  0  0  0  0  # atno 8009 bound_to 7997
  155.7967  140.0864  157.1970 H   0  0  0  0  0  0  0  0  0  0  0  0  # atno 8010 bound_to 7997
  139.5174  144.6456  151.5449 H   0  0  0  0  0  0  0  0  0  0  0  0  # atno 10167 bound_to 10162
  157.4525  131.1067  151.0017 H   0  0  0  0  0  0  0  0  0  0  0  0  # atno 10718 bound_to 10713
  153.2917  135.4141  155.1172 H   0  0  0  0  0  0  0  0  0  0  0  0  # atno 10763 bound_to 10752
  154.8522  135.3520  154.5973 H   0  0  0  0  0  0  0  0  0  0  0  0  # atno 10764 bound_to 10752
  153.6395  135.7057  153.5304 H   0  0  0  0  0  0  0  0  0  0  0  0  # atno 10765 bound_to 10752
  140.3935  134.6841  157.4521 H   0  0  0  0  0  0  0  0  0  0  0  0  # atno 11005 bound_to 11000
  144.9349  140.8015  143.5666 LP  0  0  0  0  0  0  0  0  0  0  0  0  # atno 17320 bound_to 7965
  145.2544  139.2018  143.4925 LP  0  0  0  0  0  0  0  0  0  0  0  0  # atno 17321 bound_to 7965
  140.6239  143.9205  150.6549 LP  0  0  0  0  0  0  0  0  0  0  0  0  # atno 17342 bound_to 10162
  140.2488  143.3609  152.1424 LP  0  0  0  0  0  0  0  0  0  0  0  0  # atno 17343 bound_to 10162
  157.0842  130.5915  149.5426 LP  0  0  0  0  0  0  0  0  0  0  0  0  # atno 17370 bound_to 10713
  155.9993  130.5069  150.7602 LP  0  0  0  0  0  0  0  0  0  0  0  0  # atno 17371 bound_to 10713
  140.0389  134.6297  155.9007 LP  0  0  0  0  0  0  0  0  0  0  0  0  # atno 17394 bound_to 11000
  141.1882  133.6562  156.5315 LP  0  0  0  0  0  0  0  0  0  0  0  0  # atno 17395 bound_to 11000

$$$$
