AV-unprocessed.smi:24|AV-procd|sdf|177|dock5
  -GOLD-   2262015433D 1   1.00000     0.00000
 Structure written by MMmdl.
 61 65  0  0  0  0  0  0  0  0  1 V2000
  156.5711  133.6316  162.6928 C   0  0  0  0  0  0  0  0  0  0  0  0
  155.6728  134.6734  163.0450 O   0  0  0  0  0  0  0  0  0  0  0  0
  155.1448  135.4449  162.0318 C   0  0  0  0  0  0  0  0  0  0  0  0
  154.2756  136.4887  162.4077 C   0  0  0  0  0  0  0  0  0  0  0  0
  153.6919  137.3264  161.4389 C   0  0  0  0  0  0  0  0  0  0  0  0
  153.9639  137.1273  160.0676 C   0  0  0  0  0  0  0  0  0  0  0  0
  153.3510  138.0262  158.9943 C   0  0  2  0  0  0  0  0  0  0  0  0
  153.6801  139.5034  159.2272 C   0  0  0  0  0  0  0  0  0  0  0  0
  152.3180  140.1056  159.3151 C   0  0  0  0  0  0  0  0  0  0  0  0
  152.1205  141.5509  159.5625 C   0  0  0  0  0  0  0  0  0  0  0  0
  152.5913  142.1199  160.7681 C   0  0  0  0  0  0  0  0  0  0  0  0
  152.3988  143.4947  161.0067 C   0  0  0  0  0  0  0  0  0  0  0  0
  151.7413  144.2938  160.0505 C   0  0  0  0  0  0  0  0  0  0  0  0
  151.2736  143.7220  158.8506 C   0  0  0  0  0  0  0  0  0  0  0  0
  151.4610  142.3484  158.6000 C   0  0  0  0  0  0  0  0  0  0  0  0
  151.3674  139.2603  159.1605 N   0  0  0  0  0  0  0  0  0  0  0  0
  151.8825  138.0235  158.9475 N   0  0  0  0  0  0  0  0  0  0  0  0
  151.1245  136.9517  158.6257 C   0  0  0  0  0  0  0  0  0  0  0  0
  151.6254  135.8707  158.3107 O   0  0  0  0  0  0  0  0  0  0  0  0
  149.5894  137.1096  158.6528 C   0  0  0  0  0  0  0  0  0  0  0  0
  148.8841  135.9292  159.1990 N   0  0  0  0  0  0  0  0  0  0  0  0
  148.9088  134.7249  158.4539 C   0  0  0  0  0  0  0  0  0  0  0  0
  149.4898  134.6553  157.3696 O   0  0  0  0  0  0  0  0  0  0  0  0
  148.2104  133.5983  159.0593 C   0  0  0  0  0  0  0  0  0  0  0  0
  148.2275  132.4000  158.4512 F   0  0  0  0  0  0  0  0  0  0  0  0
  147.5604  133.7329  160.2333 C   0  0  0  0  0  0  0  0  0  0  0  0
  147.4919  134.9312  160.9252 N   0  0  0  0  0  0  0  0  0  0  0  0
  146.8155  135.0589  162.2825 C   0  0  1  0  0  0  0  0  0  0  0  0
  145.6178  136.0173  162.3047 C   0  0  0  0  0  0  0  0  0  0  0  0
  144.4212  135.0884  162.1171 C   0  0  0  0  0  0  0  0  0  0  0  0
  145.0243  133.6811  162.0474 C   0  0  0  0  0  0  0  0  0  0  0  0
  146.3081  133.8137  162.6422 O   0  0  0  0  0  0  0  0  0  0  0  0
  148.1955  136.0525  160.4295 C   0  0  0  0  0  0  0  0  0  0  0  0
  148.2026  137.1165  161.0526 O   0  0  0  0  0  0  0  0  0  0  0  0
  154.8383  136.0900  159.6855 C   0  0  0  0  0  0  0  0  0  0  0  0
  155.4236  135.2531  160.6556 C   0  0  0  0  0  0  0  0  0  0  0  0
  156.8941  133.1147  163.5964 H   0  0  0  0  0  0  0  0  0  0  0  0
  157.4621  134.0234  162.2005 H   0  0  0  0  0  0  0  0  0  0  0  0
  156.0939  132.8953  162.0449 H   0  0  0  0  0  0  0  0  0  0  0  0
  154.0542  136.6508  163.4525 H   0  0  0  0  0  0  0  0  0  0  0  0
  153.0350  138.1221  161.7579 H   0  0  0  0  0  0  0  0  0  0  0  0
  153.7257  137.7196  158.0158 H   0  0  0  0  0  0  0  0  0  0  0  0
  154.2382  139.6651  160.1506 H   0  0  0  0  0  0  0  0  0  0  0  0
  154.2481  139.9222  158.3958 H   0  0  0  0  0  0  0  0  0  0  0  0
  153.0975  141.5236  161.5136 H   0  0  0  0  0  0  0  0  0  0  0  0
  152.7554  143.9369  161.9253 H   0  0  0  0  0  0  0  0  0  0  0  0
  151.5952  145.3475  160.2376 H   0  0  0  0  0  0  0  0  0  0  0  0
  150.7693  144.3388  158.1213 H   0  0  0  0  0  0  0  0  0  0  0  0
  151.0922  141.9338  157.6735 H   0  0  0  0  0  0  0  0  0  0  0  0
  149.3348  137.9988  159.2320 H   0  0  0  0  0  0  0  0  0  0  0  0
  149.2468  137.3431  157.6435 H   0  0  0  0  0  0  0  0  0  0  0  0
  147.0899  132.8492  160.6339 H   0  0  0  0  0  0  0  0  0  0  0  0
  147.5990  135.3873  162.9673 H   0  0  0  0  0  0  0  0  0  0  0  0
  145.5706  136.4773  163.2922 H   0  0  0  0  0  0  0  0  0  0  0  0
  145.7041  136.8196  161.5724 H   0  0  0  0  0  0  0  0  0  0  0  0
  143.7443  135.1747  162.9676 H   0  0  0  0  0  0  0  0  0  0  0  0
  143.8538  135.3222  161.2161 H   0  0  0  0  0  0  0  0  0  0  0  0
  144.4195  132.9411  162.5718 H   0  0  0  0  0  0  0  0  0  0  0  0
  145.1311  133.3534  161.0126 H   0  0  0  0  0  0  0  0  0  0  0  0
  155.0635  135.9301  158.6413 H   0  0  0  0  0  0  0  0  0  0  0  0
  156.0845  134.4701  160.3169 H   0  0  0  0  0  0  0  0  0  0  0  0
  1  2  1  0  0  0  0
  1 37  1  0  0  0  0
  1 38  1  0  0  0  0
  1 39  1  0  0  0  0
  2  3  1  0  0  0  0
  3 36  1  0  0  0  0
  3  4  2  0  0  0  0
  4  5  1  0  0  0  0
  4 40  1  0  0  0  0
  5  6  2  0  0  0  0
  5 41  1  0  0  0  0
  6  7  1  0  0  0  0
  6 35  1  0  0  0  0
  7 17  1  0  0  0  0
  7  8  1  0  0  0  0
  7 42  1  0  0  0  0
  8  9  1  0  0  0  0
  8 43  1  0  0  0  0
  8 44  1  0  0  0  0
  9 10  1  0  0  0  0
  9 16  2  0  0  0  0
 10 15  1  0  0  0  0
 10 11  2  0  0  0  0
 11 12  1  0  0  0  0
 11 45  1  0  0  0  0
 12 13  2  0  0  0  0
 12 46  1  0  0  0  0
 13 14  1  0  0  0  0
 13 47  1  0  0  0  0
 14 15  2  0  0  0  0
 14 48  1  0  0  0  0
 15 49  1  0  0  0  0
 16 17  1  0  0  0  0
 17 18  1  0  0  0  0
 18 19  2  0  0  0  0
 18 20  1  0  0  0  0
 20 21  1  0  0  0  0
 20 50  1  0  0  0  0
 20 51  1  0  0  0  0
 21 33  1  0  0  0  0
 21 22  1  0  0  0  0
 22 23  2  0  0  0  0
 22 24  1  0  0  0  0
 24 25  1  0  0  0  0
 24 26  2  0  0  0  0
 26 27  1  0  0  0  0
 26 52  1  0  0  0  0
 27 28  1  0  0  0  0
 27 33  1  0  0  0  0
 28 32  1  0  0  0  0
 28 29  1  0  0  0  0
 28 53  1  0  0  0  0
 29 30  1  0  0  0  0
 29 54  1  0  0  0  0
 29 55  1  0  0  0  0
 30 31  1  0  0  0  0
 30 56  1  0  0  0  0
 30 57  1  0  0  0  0
 31 32  1  0  0  0  0
 31 58  1  0  0  0  0
 31 59  1  0  0  0  0
 33 34  2  0  0  0  0
 35 36  2  0  0  0  0
 35 60  1  0  0  0  0
 36 61  1  0  0  0  0
M  END
> <s_m_source_file>
AV-unprocessed.smi

> <i_m_source_file_index>
24

> <i_lp_mmshare_version>
43012

> <i_f3d_flags>
0

> <s_epik_input>
W0NIM11PYzFbY0hdW2NIXWMoW2NIXVtjSF0xKVtDQEBIXTJbQ0gyXUMoYzNbY0hdW2NIXVtjSF1bY0hdW2NIXTMpPU5OMkMoPU8pW0NIMl1uNGMoPU8pYyhGKVtjSF1uKGM0PU8pW0NAQEhdNVtDSDJdW0NIMl1bQ0gyXU81

> <s_epik_cmdline>
J2VwaWtfcHl0aG9uJywgJy1waCcsICc3LjAnLCAnLXRuJywgJzgnLCAnLW1hJywgJzIwMCcsICctbWV0YWxfYmluZGluZycsICctaW1hZScsICc8aW5maWxlLm1hZT4nLCAnLW9tYWUnLCAnPG91dGZpbGUubWFlPic=

> <r_lp_tautomer_probability>
1

> <r_epik_Ionization_Penalty>
1.46326e-08

> <r_epik_Ionization_Penalty_Charging>
4.53232e-09

> <r_epik_Ionization_Penalty_Neutral>
1.01002e-08

> <r_epik_State_Penalty>
-0

> <r_epik_Charging_Adjusted_Penalty>
4.53232e-09

> <i_epik_Tot_Q>
0

> <i_epik_Tot_abs_Q>
0

> <r_epik_Metal_State_Penalty>
-0

> <b_epik_Metal_Only>
0

> <s_epik_Chemistry_Notes>
This compound has an imine and may undergo hydrolysis. This compound contains an acetal/aminal-like group ( X-CH(R)-Y where X, Y are N, S, or O) that may be acid/base labile, releasing an aldehyde.

> <s_lp_Force_Field>
OPLS_2005

> <r_lp_Energy>
47.9394

> <b_lp_Chiralities_Consistent>
1

> <s_lp_Variant>
AV-unprocessed.smi:24-3

> <Gold.Version>
5.8.1

> <Gold.Id.Protein>
6NUR|6NUR_protein|mol2

> <Gold.PLP.Fitness>
61.1696

> <Gold.PLP.PLP>
-58.1113

> <Gold.PLP.part.hbond>
-3.4451

> <Gold.PLP.part.metal>
0.0000

> <Gold.PLP.part.buried>
-7.2344

> <Gold.PLP.part.nonpolar>
-47.0400

> <Gold.PLP.part.repulsive>
0.0202

> <Gold.PLP.ligand.clash>
0.0000

> <Gold.PLP.ligand.torsion>
1.5851

> <Gold.PLP.Chemscore.Hbond>
2.0080

> <Gold.PLP.Chemscore.CHOScore>
0.0000

> <Gold.PLP.Chemscore.Metal>
0.0000

> <Gold.Chemscore.Hbonds>
donor molecule, donor type, donor heavy atom, donor atom, acceptor molecule, acceptor atom, score
      P1  H  6896  6907       L1    19  0.14
      P1  H  6931  6943       L1    34  1.00
      P1  H  6934  6947       L1    34  0.45

> <Gold.PLP.Chemscore.Internal.Correction>
0.2045

> <Gold.Rescore>
     Score         DG    S(hbond)    S(metal)    S(lipo)     H(rot)  DE(clash)    DE(int)     intcor
     19.15     -21.37       1.21        0.00     144.40       1.98       0.01       2.21       ----

> <Gold.Chemscore.Fitness>
19.1468

> <Gold.Chemscore.DG>
-21.3654

> <Gold.Chemscore.ZeroCoef>
-5.4800

> <Gold.Chemscore.Hbond>
1.2116

> <Gold.Chemscore.Metal>
0.0000

> <Gold.Chemscore.Lipo>
144.3981

> <Gold.Chemscore.Internal_Hbond>
0.0000

> <Gold.Chemscore.DEClash>
0.0073

> <Gold.Chemscore.DEInternal>
2.2113

> <Gold.Chemscore.Rot>
1.9750

> <Gold.Chemscore.Internal.Correction>
   9.000000E+99

> <Gold.Chemscore.Hbonds>
donor molecule, donor type, donor heavy atom, donor atom, acceptor molecule, acceptor atom, score
      P1  H  6896  6907       L1    19  0.03
      P1  H  6931  6943       L1    34  0.95
      P1  H  6934  6947       L1    34  0.44

> <Gold.Chemscore.Hbond.Weighted>
-4.0469

> <Gold.Chemscore.Metal.Weighted>
-0.0000

> <Gold.Chemscore.Lipo.Weighted>
-16.8946

> <Gold.Chemscore.Internal_Hbond.Weighted>
0.0000

> <Gold.Chemscore.DEClash.Weighted>
0.0073

> <Gold.Chemscore.DEInternal.Weighted>
2.2113

> <Gold.Chemscore.Rot.Weighted>
5.0561

> <Gold.Chemscore.Internal.Correction.Weighted>
   9.000000E+99

> <Gold.Protein.RotatedTorsions>
[ 6907 6896 6895 6894 ] final  -51.56 input  -60.11 | X-H torsion
[ 7974 7965 7964 7962 ] final   84.22 input  175.53 | X-H torsion
[ 8008 7997 7996 7995 ] final   29.96 input   59.86 | X-H torsion
[ 10167 10162 10161 10158 ] final   95.88 input  -65.29 | X-H torsion
[ 10718 10713 10712 10709 ] final -132.73 input   66.30 | X-H torsion
[ 10763 10752 10751 10750 ] final  131.46 input  -60.55 | X-H torsion
[ 11005 11000 10999 10996 ] final  133.92 input  -57.11 | X-H torsion

> <Gold.Protein.ActiveResidues>
 VAL166  LYS551  ARG553  GLY616  TRP617  ASP618  TYR619  PRO620  LYS621  CYS622 
 ASP623  PHE694  ASN695  SER759  ASP760  ASP761  ALA762  ILE779  LEU786  VAL792 
 PHE793  MET794  SER795  GLU796  ALA797  LYS798  CYS799  TRP800  GLU811  SER814 

> <Gold.Protein.RotatedAtoms>
  150.8599  134.7949  159.7074 H   0  0  0  0  0  0  0  0  0  0  0  0  # atno 6907 bound_to 6896
  152.4639  134.5116  159.9765 H   0  0  0  0  0  0  0  0  0  0  0  0  # atno 6908 bound_to 6896
  151.5222  133.3426  159.2939 H   0  0  0  0  0  0  0  0  0  0  0  0  # atno 6909 bound_to 6896
  145.6017  139.2353  143.2242 H   0  0  0  0  0  0  0  0  0  0  0  0  # atno 7974 bound_to 7965
  155.0827  140.3212  155.4596 H   0  0  0  0  0  0  0  0  0  0  0  0  # atno 8008 bound_to 7997
  156.2763  140.2092  156.5901 H   0  0  0  0  0  0  0  0  0  0  0  0  # atno 8009 bound_to 7997
  154.6965  140.0511  157.0403 H   0  0  0  0  0  0  0  0  0  0  0  0  # atno 8010 bound_to 7997
  139.7947  144.6838  150.9845 H   0  0  0  0  0  0  0  0  0  0  0  0  # atno 10167 bound_to 10162
  156.2376  130.7076  151.0924 H   0  0  0  0  0  0  0  0  0  0  0  0  # atno 10718 bound_to 10713
  153.7747  135.3177  155.3357 H   0  0  0  0  0  0  0  0  0  0  0  0  # atno 10763 bound_to 10752
  154.8183  135.4621  154.0709 H   0  0  0  0  0  0  0  0  0  0  0  0  # atno 10764 bound_to 10752
  153.1980  135.6918  153.8352 H   0  0  0  0  0  0  0  0  0  0  0  0  # atno 10765 bound_to 10752
  139.9882  134.9524  156.9793 H   0  0  0  0  0  0  0  0  0  0  0  0  # atno 11005 bound_to 11000
  146.1571  140.6841  142.9295 LP  0  0  0  0  0  0  0  0  0  0  0  0  # atno 17320 bound_to 7965
  144.7307  140.4663  143.6940 LP  0  0  0  0  0  0  0  0  0  0  0  0  # atno 17321 bound_to 7965
  140.7820  143.4344  151.0646 LP  0  0  0  0  0  0  0  0  0  0  0  0  # atno 17342 bound_to 10162
  139.8019  143.8072  152.3163 LP  0  0  0  0  0  0  0  0  0  0  0  0  # atno 17343 bound_to 10162
  157.7161  131.0709  150.6320 LP  0  0  0  0  0  0  0  0  0  0  0  0  # atno 17370 bound_to 10713
  156.6392  130.4453  149.5758 LP  0  0  0  0  0  0  0  0  0  0  0  0  # atno 17371 bound_to 10713
  140.4961  134.1144  155.7241 LP  0  0  0  0  0  0  0  0  0  0  0  0  # atno 17394 bound_to 11000
  141.1543  133.8912  157.2018 LP  0  0  0  0  0  0  0  0  0  0  0  0  # atno 17395 bound_to 11000

$$$$
