AV-unprocessed.smi:1840|AV-procd|sdf|7488|dock4
  -GOLD-   22720 9183D 1   1.00000     0.00000
 Structure written by MMmdl.
 43 44  0  0  0  0  0  0  0  0  1 V2000
  144.5456  134.8689  153.0909 C   0  0  0  0  0  0  0  0  0  0  0  0
  144.9039  136.0041  152.1131 C   0  0  2  0  0  0  0  0  0  0  0  0
  144.9870  135.5353  150.6457 C   0  0  0  0  0  0  0  0  0  0  0  0
  145.0561  134.0911  150.5120 N   0  0  0  0  0  0  0  0  0  0  0  0
  144.1302  133.2363  149.9512 C   0  0  0  0  0  0  0  0  0  0  0  0
  144.6304  131.9701  150.0565 C   0  0  0  0  0  0  0  0  0  0  0  0
  145.8818  132.1543  150.7080 C   0  0  0  0  0  0  0  0  0  0  0  0
  146.1317  133.4242  150.9838 N   0  0  0  0  0  0  0  0  0  0  0  0
  146.1771  136.6108  152.4921 N   0  0  0  0  0  0  0  0  0  0  0  0
  146.3253  137.6475  153.3291 C   0  0  0  0  0  0  0  0  0  0  0  0
  145.3898  138.2302  153.8775 O   0  0  0  0  0  0  0  0  0  0  0  0
  147.6174  137.9602  153.5025 N   0  0  0  0  0  0  0  0  0  0  0  0
  148.1338  139.0151  154.3735 C   0  0  2  0  0  0  0  0  0  0  0  0
  147.4398  140.3446  154.0176 C   0  0  0  0  0  0  0  0  0  0  0  0
  147.9881  141.5113  154.8517 C   0  0  0  0  0  0  0  0  0  0  0  0
  149.5099  141.6319  154.6939 C   0  0  0  0  0  0  0  0  0  0  0  0
  150.2082  140.3141  155.0626 C   0  0  0  0  0  0  0  0  0  0  0  0
  149.6733  139.1264  154.2368 C   0  0  1  0  0  0  0  0  0  0  0  0
  150.3949  137.8247  154.6305 C   0  0  0  0  0  0  0  0  0  0  0  0
  143.5644  134.4474  152.8719 H   0  0  0  0  0  0  0  0  0  0  0  0
  144.5164  135.2279  154.1202 H   0  0  0  0  0  0  0  0  0  0  0  0
  145.2750  134.0600  153.0415 H   0  0  0  0  0  0  0  0  0  0  0  0
  144.1237  136.7653  152.1759 H   0  0  0  0  0  0  0  0  0  0  0  0
  144.1204  135.8895  150.0850 H   0  0  0  0  0  0  0  0  0  0  0  0
  145.8662  135.9648  150.1629 H   0  0  0  0  0  0  0  0  0  0  0  0
  143.2049  133.5961  149.5259 H   0  0  0  0  0  0  0  0  0  0  0  0
  144.1722  131.0521  149.7197 H   0  0  0  0  0  0  0  0  0  0  0  0
  146.6102  131.4078  150.9887 H   0  0  0  0  0  0  0  0  0  0  0  0
  147.0095  136.2018  152.0934 H   0  0  0  0  0  0  0  0  0  0  0  0
  148.3042  137.4153  153.0025 H   0  0  0  0  0  0  0  0  0  0  0  0
  147.9052  138.7866  155.4163 H   0  0  0  0  0  0  0  0  0  0  0  0
  147.5797  140.5631  152.9579 H   0  0  0  0  0  0  0  0  0  0  0  0
  146.3639  140.2573  154.1748 H   0  0  0  0  0  0  0  0  0  0  0  0
  147.5071  142.4426  154.5513 H   0  0  0  0  0  0  0  0  0  0  0  0
  147.7391  141.3589  155.9025 H   0  0  0  0  0  0  0  0  0  0  0  0
  149.7528  141.9013  153.6651 H   0  0  0  0  0  0  0  0  0  0  0  0
  149.8853  142.4397  155.3228 H   0  0  0  0  0  0  0  0  0  0  0  0
  151.2830  140.4197  154.9105 H   0  0  0  0  0  0  0  0  0  0  0  0
  150.0666  140.1155  156.1259 H   0  0  0  0  0  0  0  0  0  0  0  0
  149.9069  139.3248  153.1894 H   0  0  0  0  0  0  0  0  0  0  0  0
  150.1685  137.5431  155.6593 H   0  0  0  0  0  0  0  0  0  0  0  0
  151.4764  137.9350  154.5464 H   0  0  0  0  0  0  0  0  0  0  0  0
  150.1055  136.9931  153.9878 H   0  0  0  0  0  0  0  0  0  0  0  0
  1  2  1  0  0  0  0
  1 20  1  0  0  0  0
  1 21  1  0  0  0  0
  1 22  1  0  0  0  0
  2  3  1  0  0  0  0
  2  9  1  0  0  0  0
  2 23  1  0  0  0  0
  3  4  1  0  0  0  0
  3 24  1  0  0  0  0
  3 25  1  0  0  0  0
  4  8  1  0  0  0  0
  4  5  1  0  0  0  0
  5  6  2  0  0  0  0
  5 26  1  0  0  0  0
  6  7  1  0  0  0  0
  6 27  1  0  0  0  0
  7  8  2  0  0  0  0
  7 28  1  0  0  0  0
  9 10  1  0  0  0  0
  9 29  1  0  0  0  0
 10 11  2  0  0  0  0
 10 12  1  0  0  0  0
 12 13  1  0  0  0  0
 12 30  1  0  0  0  0
 13 18  1  0  0  0  0
 13 14  1  0  0  0  0
 13 31  1  0  0  0  0
 14 15  1  0  0  0  0
 14 32  1  0  0  0  0
 14 33  1  0  0  0  0
 15 16  1  0  0  0  0
 15 34  1  0  0  0  0
 15 35  1  0  0  0  0
 16 17  1  0  0  0  0
 16 36  1  0  0  0  0
 16 37  1  0  0  0  0
 17 18  1  0  0  0  0
 17 38  1  0  0  0  0
 17 39  1  0  0  0  0
 18 19  1  0  0  0  0
 18 40  1  0  0  0  0
 19 41  1  0  0  0  0
 19 42  1  0  0  0  0
 19 43  1  0  0  0  0
M  END
> <s_m_source_file>
AV-unprocessed.smi

> <i_m_source_file_index>
1840

> <i_lp_mmshare_version>
43012

> <i_f3d_flags>
0

> <s_epik_input>
bjFbY0hdW2NIXVtjSF1uMVtDSDJdW0NAQEhdKFtDSDNdKVtOSF1DKD1PKVtOSF1bQ0BASF0yW0NIMl1bQ0gyXVtDSDJdW0NIMl1bQ0BIXTJbQ0gzXQ==

> <s_epik_cmdline>
J2VwaWtfcHl0aG9uJywgJy1waCcsICc3LjAnLCAnLXRuJywgJzgnLCAnLW1hJywgJzIwMCcsICctbWV0YWxfYmluZGluZycsICctaW1hZScsICc8aW5maWxlLm1hZT4nLCAnLW9tYWUnLCAnPG91dGZpbGUubWFlPic=

> <r_lp_tautomer_probability>
1

> <r_epik_Ionization_Penalty>
7.38659e-05

> <r_epik_Ionization_Penalty_Charging>
0

> <r_epik_Ionization_Penalty_Neutral>
7.38659e-05

> <r_epik_State_Penalty>
-0

> <r_epik_Charging_Adjusted_Penalty>
0

> <i_epik_Tot_Q>
0

> <i_epik_Tot_abs_Q>
0

> <r_epik_Metal_State_Penalty>
-0

> <b_epik_Metal_Only>
0

> <s_lp_Force_Field>
OPLS_2005

> <r_lp_Energy>
8.70276

> <b_lp_Chiralities_Consistent>
1

> <s_lp_Variant>
AV-unprocessed.smi:1840-1

> <Gold.Version>
5.8.1

> <Gold.Id.Protein>
6NUR|6NUR_protein|mol2

> <Gold.PLP.Fitness>
43.7967

> <Gold.PLP.PLP>
-33.9309

> <Gold.PLP.part.hbond>
-2.0000

> <Gold.PLP.part.metal>
0.0000

> <Gold.PLP.part.buried>
-1.9199

> <Gold.PLP.part.nonpolar>
-29.7620

> <Gold.PLP.part.repulsive>
0.3799

> <Gold.PLP.ligand.clash>
0.0000

> <Gold.PLP.ligand.torsion>
1.0801

> <Gold.PLP.Chemscore.Hbond>
2.0000

> <Gold.PLP.Chemscore.CHOScore>
2.0000

> <Gold.PLP.Chemscore.Metal>
0.0000

> <Gold.Chemscore.Hbonds>
donor molecule, donor type, donor heavy atom, donor atom, acceptor molecule, acceptor atom, score
      L1  H     9    29       P1  7948  1.00
      L1  H    12    30       P1  7948  1.00
      L1  C     5    26       P1 10186  1.00
      L1  C     7    28       P1 10747  1.00

> <Gold.PLP.Chemscore.Internal.Correction>
0.0260

> <Gold.Rescore>
     Score         DG    S(hbond)    S(metal)    S(lipo)     H(rot)  DE(clash)    DE(int)     intcor
     14.93     -18.57       1.95        0.00      90.29       1.56       0.43       3.21       ----

> <Gold.Chemscore.Fitness>
14.9299

> <Gold.Chemscore.DG>
-18.5697

> <Gold.Chemscore.ZeroCoef>
-5.4800

> <Gold.Chemscore.Hbond>
1.9502

> <Gold.Chemscore.Metal>
0.0000

> <Gold.Chemscore.Lipo>
90.2860

> <Gold.Chemscore.Internal_Hbond>
0.0000

> <Gold.Chemscore.DEClash>
0.4290

> <Gold.Chemscore.DEInternal>
3.2108

> <Gold.Chemscore.Rot>
1.5576

> <Gold.Chemscore.Internal.Correction>
   9.000000E+99

> <Gold.Chemscore.Hbonds>
donor molecule, donor type, donor heavy atom, donor atom, acceptor molecule, acceptor atom, score
      L1  H     9    29       P1  7948  0.94
      L1  H    12    30       P1  7948  0.99

> <Gold.Chemscore.Hbond.Weighted>
-6.5138

> <Gold.Chemscore.Metal.Weighted>
-0.0000

> <Gold.Chemscore.Lipo.Weighted>
-10.5635

> <Gold.Chemscore.Internal_Hbond.Weighted>
0.0000

> <Gold.Chemscore.DEClash.Weighted>
0.4290

> <Gold.Chemscore.DEInternal.Weighted>
3.2108

> <Gold.Chemscore.Rot.Weighted>
3.9875

> <Gold.Chemscore.Internal.Correction.Weighted>
   9.000000E+99

> <Gold.Protein.RotatedTorsions>
[ 6907 6896 6895 6894 ] final -143.88 input  -60.11 | X-H torsion
[ 7974 7965 7964 7962 ] final  113.26 input  175.53 | X-H torsion
[ 8008 7997 7996 7995 ] final   60.10 input   59.86 | X-H torsion
[ 10167 10162 10161 10158 ] final    3.91 input  -65.29 | X-H torsion
[ 10718 10713 10712 10709 ] final  -98.58 input   66.30 | X-H torsion
[ 10763 10752 10751 10750 ] final   -1.81 input  -60.55 | X-H torsion
[ 11005 11000 10999 10996 ] final   11.11 input  -57.11 | X-H torsion

> <Gold.Protein.ActiveResidues>
 VAL166  LYS551  ARG553  GLY616  TRP617  ASP618  TYR619  PRO620  LYS621  CYS622 
 ASP623  PHE694  ASN695  SER759  ASP760  ASP761  ALA762  ILE779  LEU786  VAL792 
 PHE793  MET794  SER795  GLU796  ALA797  LYS798  CYS799  TRP800  GLU811  SER814 

> <Gold.Protein.RotatedAtoms>
  151.1064  133.5205  159.2607 H   0  0  0  0  0  0  0  0  0  0  0  0  # atno 6907 bound_to 6896
  151.2016  135.0444  159.8884 H   0  0  0  0  0  0  0  0  0  0  0  0  # atno 6908 bound_to 6896
  152.5447  134.0892  159.8323 H   0  0  0  0  0  0  0  0  0  0  0  0  # atno 6909 bound_to 6896
  145.2192  139.2870  143.4227 H   0  0  0  0  0  0  0  0  0  0  0  0  # atno 7974 bound_to 7965
  155.5769  140.3491  155.4530 H   0  0  0  0  0  0  0  0  0  0  0  0  # atno 8008 bound_to 7997
  156.0402  140.1294  157.0189 H   0  0  0  0  0  0  0  0  0  0  0  0  # atno 8009 bound_to 7997
  154.4389  140.1025  156.6212 H   0  0  0  0  0  0  0  0  0  0  0  0  # atno 8010 bound_to 7997
  140.6562  143.7422  150.7657 H   0  0  0  0  0  0  0  0  0  0  0  0  # atno 10167 bound_to 10162
  156.0111  130.5244  150.6543 H   0  0  0  0  0  0  0  0  0  0  0  0  # atno 10718 bound_to 10713
  153.3498  135.6985  153.6798 H   0  0  0  0  0  0  0  0  0  0  0  0  # atno 10763 bound_to 10752
  153.5529  135.3550  155.2768 H   0  0  0  0  0  0  0  0  0  0  0  0  # atno 10764 bound_to 10752
  154.8651  135.4231  154.2731 H   0  0  0  0  0  0  0  0  0  0  0  0  # atno 10765 bound_to 10752
  140.5069  134.0690  155.7808 H   0  0  0  0  0  0  0  0  0  0  0  0  # atno 11005 bound_to 11000
  146.3380  140.2493  142.8598 LP  0  0  0  0  0  0  0  0  0  0  0  0  # atno 17320 bound_to 7965
  144.9781  140.8433  143.5414 LP  0  0  0  0  0  0  0  0  0  0  0  0  # atno 17321 bound_to 7965
  140.1082  143.4724  152.2386 LP  0  0  0  0  0  0  0  0  0  0  0  0  # atno 17342 bound_to 10162
  139.5785  144.7499  151.3702 LP  0  0  0  0  0  0  0  0  0  0  0  0  # atno 17343 bound_to 10162
  157.4298  131.0848  151.1049 LP  0  0  0  0  0  0  0  0  0  0  0  0  # atno 17370 bound_to 10713
  157.1626  130.6232  149.5615 LP  0  0  0  0  0  0  0  0  0  0  0  0  # atno 17371 bound_to 10713
  141.1406  133.9145  157.2334 LP  0  0  0  0  0  0  0  0  0  0  0  0  # atno 17394 bound_to 11000
  139.9681  135.0136  156.9440 LP  0  0  0  0  0  0  0  0  0  0  0  0  # atno 17395 bound_to 11000

$$$$
