AV-unprocessed.smi:1573|AV-procd|sdf|6333|dock1
  -GOLD-   22720 6543D 1   1.00000     0.00000
 Structure written by MMmdl.
 41 41  0  0  0  0  0  0  0  0  1 V2000
  148.3014  145.7019  160.8962 C   0  0  0  0  0  0  0  0  0  0  0  0
  146.8197  145.7987  160.5061 C   0  0  0  0  0  0  0  0  0  0  0  0
  146.5521  145.1163  159.2458 N   0  0  0  0  0  0  0  0  0  0  0  0
  146.8765  143.8426  158.9773 C   0  0  0  0  0  0  0  0  0  0  0  0
  147.4134  143.0963  159.7978 O   0  0  0  0  0  0  0  0  0  0  0  0
  146.5546  143.3399  157.5614 C   0  0  2  0  0  0  0  0  0  0  0  0
  145.6460  142.1038  157.6754 C   0  0  0  0  0  0  0  0  0  0  0  0
  147.7994  142.9323  156.9160 N   0  0  0  0  0  0  0  0  0  0  0  0
  148.4735  141.8030  157.1856 C   0  0  0  0  0  0  0  0  0  0  0  0
  148.1624  141.0254  158.0879 O   0  0  0  0  0  0  0  0  0  0  0  0
  149.6597  141.4840  156.2767 C   0  0  0  0  0  0  0  0  0  0  0  0
  150.8597  141.1571  157.1296 C   0  0  0  0  0  0  0  0  0  0  0  0
  151.6984  140.0080  157.0375 C   0  0  0  0  0  0  0  0  0  0  0  0
  151.5854  138.8526  156.0846 C   0  0  0  0  0  0  0  0  0  0  0  0
  152.6812  140.0270  157.9224 N   0  0  0  0  0  0  0  0  0  0  0  0
  152.5109  141.1792  158.6010 N   0  0  0  0  0  0  0  0  0  0  0  0
  153.4400  141.5233  159.6596 C   0  0  0  0  0  0  0  0  0  0  0  0
  151.4122  141.8847  158.1507 C   0  0  0  0  0  0  0  0  0  0  0  0
  151.0121  143.1971  158.7441 C   0  0  0  0  0  0  0  0  0  0  0  0
  148.4947  146.2481  161.8194 H   0  0  0  0  0  0  0  0  0  0  0  0
  148.9416  146.1223  160.1203 H   0  0  0  0  0  0  0  0  0  0  0  0
  148.6059  144.6670  161.0556 H   0  0  0  0  0  0  0  0  0  0  0  0
  146.1897  145.3905  161.2979 H   0  0  0  0  0  0  0  0  0  0  0  0
  146.5380  146.8455  160.3922 H   0  0  0  0  0  0  0  0  0  0  0  0
  146.1169  145.6598  158.5143 H   0  0  0  0  0  0  0  0  0  0  0  0
  146.0499  144.1137  156.9792 H   0  0  0  0  0  0  0  0  0  0  0  0
  144.7058  142.3494  158.1708 H   0  0  0  0  0  0  0  0  0  0  0  0
  146.1177  141.2958  158.2371 H   0  0  0  0  0  0  0  0  0  0  0  0
  145.3984  141.7136  156.6879 H   0  0  0  0  0  0  0  0  0  0  0  0
  148.1260  143.5089  156.1542 H   0  0  0  0  0  0  0  0  0  0  0  0
  149.4097  140.6586  155.6089 H   0  0  0  0  0  0  0  0  0  0  0  0
  149.8461  142.3457  155.6353 H   0  0  0  0  0  0  0  0  0  0  0  0
  151.6068  139.1985  155.0512 H   0  0  0  0  0  0  0  0  0  0  0  0
  150.6499  138.3142  156.2351 H   0  0  0  0  0  0  0  0  0  0  0  0
  152.4013  138.1402  156.2118 H   0  0  0  0  0  0  0  0  0  0  0  0
  152.9690  141.3547  160.6281 H   0  0  0  0  0  0  0  0  0  0  0  0
  153.7215  142.5733  159.5775 H   0  0  0  0  0  0  0  0  0  0  0  0
  154.3422  140.9142  159.5915 H   0  0  0  0  0  0  0  0  0  0  0  0
  150.0469  143.5273  158.3612 H   0  0  0  0  0  0  0  0  0  0  0  0
  151.7466  143.9665  158.5071 H   0  0  0  0  0  0  0  0  0  0  0  0
  150.9329  143.1261  159.8289 H   0  0  0  0  0  0  0  0  0  0  0  0
  1  2  1  0  0  0  0
  1 20  1  0  0  0  0
  1 21  1  0  0  0  0
  1 22  1  0  0  0  0
  2  3  1  0  0  0  0
  2 23  1  0  0  0  0
  2 24  1  0  0  0  0
  3  4  1  0  0  0  0
  3 25  1  0  0  0  0
  4  5  2  0  0  0  0
  4  6  1  0  0  0  0
  6  7  1  0  0  0  0
  6  8  1  0  0  0  0
  6 26  1  0  0  0  0
  7 27  1  0  0  0  0
  7 28  1  0  0  0  0
  7 29  1  0  0  0  0
  8  9  1  0  0  0  0
  8 30  1  0  0  0  0
  9 10  2  0  0  0  0
  9 11  1  0  0  0  0
 11 12  1  0  0  0  0
 11 31  1  0  0  0  0
 11 32  1  0  0  0  0
 12 18  2  0  0  0  0
 12 13  1  0  0  0  0
 13 14  1  0  0  0  0
 13 15  2  0  0  0  0
 14 33  1  0  0  0  0
 14 34  1  0  0  0  0
 14 35  1  0  0  0  0
 15 16  1  0  0  0  0
 16 17  1  0  0  0  0
 16 18  1  0  0  0  0
 17 36  1  0  0  0  0
 17 37  1  0  0  0  0
 17 38  1  0  0  0  0
 18 19  1  0  0  0  0
 19 39  1  0  0  0  0
 19 40  1  0  0  0  0
 19 41  1  0  0  0  0
M  END
> <s_m_source_file>
AV-unprocessed.smi

> <i_m_source_file_index>
1573

> <i_lp_mmshare_version>
43012

> <i_f3d_flags>
0

> <s_epik_input>
W0NIM11bQ0gyXVtOSF1DKD1PKVtDQEhdKFtDSDNdKVtOSF1DKD1PKVtDSDJdYzFjKFtDSDNdKW5uKFtDSDNdKWMxW0NIM10=

> <s_epik_cmdline>
J2VwaWtfcHl0aG9uJywgJy1waCcsICc3LjAnLCAnLXRuJywgJzgnLCAnLW1hJywgJzIwMCcsICctbWV0YWxfYmluZGluZycsICctaW1hZScsICc8aW5maWxlLm1hZT4nLCAnLW9tYWUnLCAnPG91dGZpbGUubWFlPic=

> <r_lp_tautomer_probability>
1

> <r_epik_Ionization_Penalty>
0.00278414

> <r_epik_Ionization_Penalty_Charging>
0

> <r_epik_Ionization_Penalty_Neutral>
0.00278414

> <r_epik_State_Penalty>
0.00194489

> <r_epik_Charging_Adjusted_Penalty>
0.00194489

> <i_epik_Tot_Q>
0

> <i_epik_Tot_abs_Q>
0

> <r_epik_Metal_State_Penalty>
-0

> <b_epik_Metal_Only>
0

> <s_lp_Force_Field>
OPLS_2005

> <r_lp_Energy>
-3.80626

> <b_lp_Chiralities_Consistent>
1

> <s_lp_Variant>
AV-unprocessed.smi:1573-1

> <Gold.Version>
5.8.1

> <Gold.Id.Protein>
6NUR|6NUR_protein|mol2

> <Gold.PLP.Fitness>
41.0139

> <Gold.PLP.PLP>
-31.4245

> <Gold.PLP.part.hbond>
-5.9782

> <Gold.PLP.part.metal>
0.0000

> <Gold.PLP.part.buried>
-3.1927

> <Gold.PLP.part.nonpolar>
-22.4444

> <Gold.PLP.part.repulsive>
0.0712

> <Gold.PLP.ligand.clash>
0.0000

> <Gold.PLP.ligand.torsion>
0.3878

> <Gold.PLP.Chemscore.Hbond>
3.4236

> <Gold.PLP.Chemscore.CHOScore>
0.0000

> <Gold.PLP.Chemscore.Metal>
0.0000

> <Gold.Chemscore.Hbonds>
donor molecule, donor type, donor heavy atom, donor atom, acceptor molecule, acceptor atom, score
      L1  H     8    30       P1  8028  0.89
      P1  H  6933  6944       L1     5  0.73
      P1  H  7997  8008       L1    15  0.86

> <Gold.PLP.Chemscore.Internal.Correction>
0.0943

> <Gold.Rescore>
     Score         DG    S(hbond)    S(metal)    S(lipo)     H(rot)  DE(clash)    DE(int)     intcor
     13.38     -15.59       2.29        0.00      62.90       1.91       0.01       2.20       ----

> <Gold.Chemscore.Fitness>
13.3783

> <Gold.Chemscore.DG>
-15.5905

> <Gold.Chemscore.ZeroCoef>
-5.4800

> <Gold.Chemscore.Hbond>
2.2877

> <Gold.Chemscore.Metal>
0.0000

> <Gold.Chemscore.Lipo>
62.8982

> <Gold.Chemscore.Internal_Hbond>
0.0000

> <Gold.Chemscore.DEClash>
0.0081

> <Gold.Chemscore.DEInternal>
2.2040

> <Gold.Chemscore.Rot>
1.9100

> <Gold.Chemscore.Internal.Correction>
   9.000000E+99

> <Gold.Chemscore.Hbonds>
donor molecule, donor type, donor heavy atom, donor atom, acceptor molecule, acceptor atom, score
      L1  H     3    25       P1  8029  0.03
      L1  H     8    30       P1  8028  0.21
      P1  H  6933  6944       L1     5  0.71
      P1  H  6934  6946       L1     5  0.03
      P1  H  7997  8008       L1    15  0.42

> <Gold.Chemscore.Hbond.Weighted>
-7.6409

> <Gold.Chemscore.Metal.Weighted>
-0.0000

> <Gold.Chemscore.Lipo.Weighted>
-7.3591

> <Gold.Chemscore.Internal_Hbond.Weighted>
0.0000

> <Gold.Chemscore.DEClash.Weighted>
0.0081

> <Gold.Chemscore.DEInternal.Weighted>
2.2040

> <Gold.Chemscore.Rot.Weighted>
4.8896

> <Gold.Chemscore.Internal.Correction.Weighted>
   9.000000E+99

> <Gold.Protein.RotatedTorsions>
[ 6907 6896 6895 6894 ] final  -87.27 input  -60.11 | X-H torsion
[ 7974 7965 7964 7962 ] final  148.68 input  175.53 | X-H torsion
[ 8008 7997 7996 7995 ] final  -80.45 input   59.86 | X-H torsion
[ 10167 10162 10161 10158 ] final  -85.13 input  -65.29 | X-H torsion
[ 10718 10713 10712 10709 ] final  -78.05 input   66.30 | X-H torsion
[ 10763 10752 10751 10750 ] final  176.12 input  -60.55 | X-H torsion
[ 11005 11000 10999 10996 ] final -144.25 input  -57.11 | X-H torsion

> <Gold.Protein.ActiveResidues>
 VAL166  LYS551  ARG553  GLY616  TRP617  ASP618  TYR619  PRO620  LYS621  CYS622 
 ASP623  PHE694  ASN695  SER759  ASP760  ASP761  ALA762  ILE779  LEU786  VAL792 
 PHE793  MET794  SER795  GLU796  ALA797  LYS798  CYS799  TRP800  GLU811  SER814 

> <Gold.Protein.RotatedAtoms>
  150.6866  134.2922  159.4671 H   0  0  0  0  0  0  0  0  0  0  0  0  # atno 6907 bound_to 6896
  152.0826  134.9458  160.0582 H   0  0  0  0  0  0  0  0  0  0  0  0  # atno 6908 bound_to 6896
  152.0805  133.4116  159.4536 H   0  0  0  0  0  0  0  0  0  0  0  0  # atno 6909 bound_to 6896
  144.8496  139.6184  143.5980 H   0  0  0  0  0  0  0  0  0  0  0  0  # atno 7974 bound_to 7965
  154.5884  140.0663  156.9204 H   0  0  0  0  0  0  0  0  0  0  0  0  # atno 8008 bound_to 7997
  155.2338  140.3339  155.4282 H   0  0  0  0  0  0  0  0  0  0  0  0  # atno 8009 bound_to 7997
  156.2239  140.1810  156.7396 H   0  0  0  0  0  0  0  0  0  0  0  0  # atno 8010 bound_to 7997
  140.4066  143.2640  151.9072 H   0  0  0  0  0  0  0  0  0  0  0  0  # atno 10167 bound_to 10162
  156.0128  130.4508  150.3438 H   0  0  0  0  0  0  0  0  0  0  0  0  # atno 10718 bound_to 10713
  154.4768  135.2773  155.1601 H   0  0  0  0  0  0  0  0  0  0  0  0  # atno 10763 bound_to 10752
  154.3328  135.6186  153.5563 H   0  0  0  0  0  0  0  0  0  0  0  0  # atno 10764 bound_to 10752
  152.9870  135.5769  154.5160 H   0  0  0  0  0  0  0  0  0  0  0  0  # atno 10765 bound_to 10752
  140.8043  134.2820  157.4966 H   0  0  0  0  0  0  0  0  0  0  0  0  # atno 11005 bound_to 11000
  146.2773  139.6786  142.9254 LP  0  0  0  0  0  0  0  0  0  0  0  0  # atno 17320 bound_to 7965
  145.4527  141.0429  143.2795 LP  0  0  0  0  0  0  0  0  0  0  0  0  # atno 17321 bound_to 7965
  139.4783  144.5579  151.8285 LP  0  0  0  0  0  0  0  0  0  0  0  0  # atno 17342 bound_to 10162
  140.4682  144.1624  150.5914 LP  0  0  0  0  0  0  0  0  0  0  0  0  # atno 17343 bound_to 10162
  157.1533  131.0326  151.2875 LP  0  0  0  0  0  0  0  0  0  0  0  0  # atno 17370 bound_to 10713
  157.4374  130.7524  149.7040 LP  0  0  0  0  0  0  0  0  0  0  0  0  # atno 17371 bound_to 10713
  139.8719  134.9447  156.3889 LP  0  0  0  0  0  0  0  0  0  0  0  0  # atno 17394 bound_to 11000
  140.9263  133.7610  155.9969 LP  0  0  0  0  0  0  0  0  0  0  0  0  # atno 17395 bound_to 11000

$$$$
