AV-unprocessed.smi:2004|AV-procd|sdf|8121|dock2
  -GOLD-   2272010353D 1   1.00000     0.00000
 Structure written by MMmdl.
 39 41  0  0  0  0  0  0  0  0  1 V2000
  150.0178  140.5246  157.5035 O   0  0  0  0  0  0  0  0  0  0  0  0
  149.9760  141.7373  156.7807 C   0  0  2  0  0  0  0  0  0  0  0  0
  149.7600  141.4060  155.2927 C   0  0  0  0  0  0  0  0  0  0  0  0
  148.5816  140.6276  155.1635 O   0  0  0  0  0  0  0  0  0  0  0  0
  147.8338  140.9504  154.0021 C   0  0  0  0  0  0  0  0  0  0  0  0
  146.7144  141.9268  154.3074 C   0  0  0  0  0  0  0  0  0  0  0  0
  146.4117  142.9630  153.3986 C   0  0  0  0  0  0  0  0  0  0  0  0
  145.3625  143.8619  153.6727 C   0  0  0  0  0  0  0  0  0  0  0  0
  144.6082  143.7252  154.8541 C   0  0  0  0  0  0  0  0  0  0  0  0
  144.9020  142.6878  155.7602 C   0  0  0  0  0  0  0  0  0  0  0  0
  145.9510  141.7884  155.4861 C   0  0  0  0  0  0  0  0  0  0  0  0
  151.2955  142.4817  157.0660 C   0  0  0  0  0  0  0  0  0  0  0  0
  151.2926  143.1601  158.3495 N   0  0  0  0  0  0  0  0  0  0  0  0
  150.5398  144.2206  158.7000 C   0  0  0  0  0  0  0  0  0  0  0  0
  150.6880  144.6927  159.9343 N   0  0  0  0  0  0  0  0  0  0  0  0
  151.6461  143.8355  160.4477 C   0  0  0  0  0  0  0  0  0  0  0  0
  152.2491  143.7946  161.7253 C   0  0  0  0  0  0  0  0  0  0  0  0
  153.2173  142.8147  162.0273 C   0  0  0  0  0  0  0  0  0  0  0  0
  153.5974  141.8627  161.0592 C   0  0  0  0  0  0  0  0  0  0  0  0
  153.0113  141.8838  159.7789 C   0  0  0  0  0  0  0  0  0  0  0  0
  152.0446  142.8627  159.4815 C   0  0  0  0  0  0  0  0  0  0  0  0
  149.6048  140.6644  158.3422 H   0  0  0  0  0  0  0  0  0  0  0  0
  149.1420  142.3359  157.1497 H   0  0  0  0  0  0  0  0  0  0  0  0
  149.6206  142.3201  154.7151 H   0  0  0  0  0  0  0  0  0  0  0  0
  150.6274  140.8908  154.8764 H   0  0  0  0  0  0  0  0  0  0  0  0
  148.4854  141.3991  153.2509 H   0  0  0  0  0  0  0  0  0  0  0  0
  147.4178  140.0391  153.5691 H   0  0  0  0  0  0  0  0  0  0  0  0
  146.9845  143.0707  152.4891 H   0  0  0  0  0  0  0  0  0  0  0  0
  145.1354  144.6553  152.9760 H   0  0  0  0  0  0  0  0  0  0  0  0
  143.8032  144.4141  155.0641 H   0  0  0  0  0  0  0  0  0  0  0  0
  144.3219  142.5805  156.6648 H   0  0  0  0  0  0  0  0  0  0  0  0
  146.1676  140.9940  156.1853 H   0  0  0  0  0  0  0  0  0  0  0  0
  152.1319  141.7812  157.0590 H   0  0  0  0  0  0  0  0  0  0  0  0
  151.4972  143.2130  156.2824 H   0  0  0  0  0  0  0  0  0  0  0  0
  149.8447  144.6725  158.0076 H   0  0  0  0  0  0  0  0  0  0  0  0
  151.9656  144.5185  162.4749 H   0  0  0  0  0  0  0  0  0  0  0  0
  153.6707  142.7933  163.0074 H   0  0  0  0  0  0  0  0  0  0  0  0
  154.3400  141.1158  161.2998 H   0  0  0  0  0  0  0  0  0  0  0  0
  153.3022  141.1566  159.0356 H   0  0  0  0  0  0  0  0  0  0  0  0
  1  2  1  0  0  0  0
  1 22  1  0  0  0  0
  2  3  1  0  0  0  0
  2 12  1  0  0  0  0
  2 23  1  0  0  0  0
  3  4  1  0  0  0  0
  3 24  1  0  0  0  0
  3 25  1  0  0  0  0
  4  5  1  0  0  0  0
  5  6  1  0  0  0  0
  5 26  1  0  0  0  0
  5 27  1  0  0  0  0
  6 11  1  0  0  0  0
  6  7  2  0  0  0  0
  7  8  1  0  0  0  0
  7 28  1  0  0  0  0
  8  9  2  0  0  0  0
  8 29  1  0  0  0  0
  9 10  1  0  0  0  0
  9 30  1  0  0  0  0
 10 11  2  0  0  0  0
 10 31  1  0  0  0  0
 11 32  1  0  0  0  0
 12 13  1  0  0  0  0
 12 33  1  0  0  0  0
 12 34  1  0  0  0  0
 13 21  1  0  0  0  0
 13 14  1  0  0  0  0
 14 15  2  0  0  0  0
 14 35  1  0  0  0  0
 15 16  1  0  0  0  0
 16 21  2  0  0  0  0
 16 17  1  0  0  0  0
 17 18  2  0  0  0  0
 17 36  1  0  0  0  0
 18 19  1  0  0  0  0
 18 37  1  0  0  0  0
 19 20  2  0  0  0  0
 19 38  1  0  0  0  0
 20 21  1  0  0  0  0
 20 39  1  0  0  0  0
M  END
> <s_m_source_file>
AV-unprocessed.smi

> <i_m_source_file_index>
2004

> <i_lp_mmshare_version>
43012

> <i_f3d_flags>
0

> <s_epik_input>
W2NIXTFbY0hdW2NIXVtjSF1jKGMxMiluKFtjSF1uMilbQ0gyXVtDQEhdKFtPSF0pW0NIMl1PW0NIMl1jM1tjSF1bY0hdW2NIXVtjSF1bY0hdMw==

> <s_epik_cmdline>
J2VwaWtfcHl0aG9uJywgJy1waCcsICc3LjAnLCAnLXRuJywgJzgnLCAnLW1hJywgJzIwMCcsICctbWV0YWxfYmluZGluZycsICctaW1hZScsICc8aW5maWxlLm1hZT4nLCAnLW9tYWUnLCAnPG91dGZpbGUubWFlPic=

> <r_epik_Ionization_Penalty>
0.0713119

> <r_epik_Ionization_Penalty_Charging>
0

> <r_epik_Ionization_Penalty_Neutral>
0.0713119

> <r_epik_State_Penalty>
0.06259

> <r_epik_Charging_Adjusted_Penalty>
0.06259

> <i_epik_Tot_Q>
0

> <i_epik_Tot_abs_Q>
0

> <r_epik_Metal_State_Penalty>
6.60119e-05

> <b_epik_Metal_Only>
0

> <s_lp_Force_Field>
OPLS_2005

> <r_lp_Energy>
16.1981

> <b_lp_Chiralities_Consistent>
1

> <s_lp_Variant>
AV-unprocessed.smi:2004-1

> <Gold.Version>
5.8.1

> <Gold.Id.Protein>
6NUR|6NUR_protein|mol2

> <Gold.PLP.Fitness>
50.6446

> <Gold.PLP.PLP>
-49.1766

> <Gold.PLP.part.hbond>
0.0000

> <Gold.PLP.part.metal>
0.0000

> <Gold.PLP.part.buried>
-8.4948

> <Gold.PLP.part.nonpolar>
-41.3595

> <Gold.PLP.part.repulsive>
0.2261

> <Gold.PLP.ligand.clash>
0.0000

> <Gold.PLP.ligand.torsion>
1.0330

> <Gold.PLP.Chemscore.Hbond>
0.0000

> <Gold.PLP.Chemscore.CHOScore>
1.1279

> <Gold.PLP.Chemscore.Metal>
0.0000

> <Gold.Chemscore.Hbonds>
donor molecule, donor type, donor heavy atom, donor atom, acceptor molecule, acceptor atom, score
      L1  C    14    35       P1  8028  0.47
      L1  C    14    35       P1  8029  0.63

> <Gold.PLP.Chemscore.Internal.Correction>
0.1502

> <Gold.Rescore>
     Score         DG    S(hbond)    S(metal)    S(lipo)     H(rot)  DE(clash)    DE(int)     intcor
     12.50     -13.41       0.00        0.00     118.76       2.33       0.00       0.91       ----

> <Gold.Chemscore.Fitness>
12.4962

> <Gold.Chemscore.DG>
-13.4130

> <Gold.Chemscore.ZeroCoef>
-5.4800

> <Gold.Chemscore.Hbond>
0.0000

> <Gold.Chemscore.Metal>
0.0000

> <Gold.Chemscore.Lipo>
118.7574

> <Gold.Chemscore.Internal_Hbond>
0.0000

> <Gold.Chemscore.DEClash>
0.0048

> <Gold.Chemscore.DEInternal>
0.9119

> <Gold.Chemscore.Rot>
2.3288

> <Gold.Chemscore.Internal.Correction>
   9.000000E+99

> <Gold.Chemscore.Hbond.Weighted>
-0.0000

> <Gold.Chemscore.Metal.Weighted>
-0.0000

> <Gold.Chemscore.Lipo.Weighted>
-13.8946

> <Gold.Chemscore.Internal_Hbond.Weighted>
0.0000

> <Gold.Chemscore.DEClash.Weighted>
0.0048

> <Gold.Chemscore.DEInternal.Weighted>
0.9119

> <Gold.Chemscore.Rot.Weighted>
5.9616

> <Gold.Chemscore.Internal.Correction.Weighted>
   9.000000E+99

> <Gold.Protein.RotatedTorsions>
[ 6907 6896 6895 6894 ] final -114.24 input  -60.11 | X-H torsion
[ 7974 7965 7964 7962 ] final  -43.35 input  175.53 | X-H torsion
[ 8008 7997 7996 7995 ] final   23.14 input   59.86 | X-H torsion
[ 10167 10162 10161 10158 ] final  150.73 input  -65.29 | X-H torsion
[ 10718 10713 10712 10709 ] final  119.02 input   66.30 | X-H torsion
[ 10763 10752 10751 10750 ] final   35.94 input  -60.55 | X-H torsion
[ 11005 11000 10999 10996 ] final -137.34 input  -57.11 | X-H torsion

> <Gold.Protein.ActiveResidues>
 VAL166  LYS551  ARG553  GLY616  TRP617  ASP618  TYR619  PRO620  LYS621  CYS622 
 ASP623  PHE694  ASN695  SER759  ASP760  ASP761  ALA762  ILE779  LEU786  VAL792 
 PHE793  MET794  SER795  GLU796  ALA797  LYS798  CYS799  TRP800  GLU811  SER814 

> <Gold.Protein.RotatedAtoms>
  150.7888  133.8829  159.3290 H   0  0  0  0  0  0  0  0  0  0  0  0  # atno 6907 bound_to 6896
  151.6672  135.0979  160.0200 H   0  0  0  0  0  0  0  0  0  0  0  0  # atno 6908 bound_to 6896
  152.3958  133.6705  159.6310 H   0  0  0  0  0  0  0  0  0  0  0  0  # atno 6909 bound_to 6896
  146.0027  140.7055  142.9262 H   0  0  0  0  0  0  0  0  0  0  0  0  # atno 7974 bound_to 7965
  154.9764  140.3096  155.4965 H   0  0  0  0  0  0  0  0  0  0  0  0  # atno 8008 bound_to 7997
  156.2959  140.2274  156.4800 H   0  0  0  0  0  0  0  0  0  0  0  0  # atno 8009 bound_to 7997
  154.7829  140.0445  157.1129 H   0  0  0  0  0  0  0  0  0  0  0  0  # atno 8010 bound_to 7997
  139.4847  144.5498  151.7420 H   0  0  0  0  0  0  0  0  0  0  0  0  # atno 10167 bound_to 10162
  157.5991  131.1054  150.7837 H   0  0  0  0  0  0  0  0  0  0  0  0  # atno 10718 bound_to 10713
  153.0098  135.6319  154.1906 H   0  0  0  0  0  0  0  0  0  0  0  0  # atno 10763 bound_to 10752
  154.1649  135.2821  155.3100 H   0  0  0  0  0  0  0  0  0  0  0  0  # atno 10764 bound_to 10752
  154.5953  135.5604  153.7380 H   0  0  0  0  0  0  0  0  0  0  0  0  # atno 10765 bound_to 10752
  140.8720  134.2039  157.4645 H   0  0  0  0  0  0  0  0  0  0  0  0  # atno 11005 bound_to 11000
  144.6925  140.3262  143.7224 LP  0  0  0  0  0  0  0  0  0  0  0  0  # atno 17320 bound_to 7965
  145.7462  139.1779  143.2347 LP  0  0  0  0  0  0  0  0  0  0  0  0  # atno 17321 bound_to 7965
  140.5050  144.1111  150.5980 LP  0  0  0  0  0  0  0  0  0  0  0  0  # atno 17342 bound_to 10162
  140.4017  143.2700  151.9939 LP  0  0  0  0  0  0  0  0  0  0  0  0  # atno 17343 bound_to 10162
  156.8240  130.4993  149.5339 LP  0  0  0  0  0  0  0  0  0  0  0  0  # atno 17370 bound_to 10713
  156.1060  130.6004  150.9971 LP  0  0  0  0  0  0  0  0  0  0  0  0  # atno 17371 bound_to 10713
  139.8713  134.9778  156.4974 LP  0  0  0  0  0  0  0  0  0  0  0  0  # atno 17394 bound_to 11000
  140.8562  133.8094  155.9218 LP  0  0  0  0  0  0  0  0  0  0  0  0  # atno 17395 bound_to 11000

$$$$
