AV-unprocessed.smi:1012|AV-procd|sdf|4423|dock7
  -GOLD-   22720 2373D 1   1.00000     0.00000
 Structure written by MMmdl.
 43 45  0  0  0  0  0  0  0  0  1 V2000
  144.6394  142.8763  157.4480 C   0  0  0  0  0  0  0  0  0  0  0  0
  145.2723  142.6536  156.1968 O   0  0  0  0  0  0  0  0  0  0  0  0
  145.0435  143.5549  155.1768 C   0  0  0  0  0  0  0  0  0  0  0  0
  144.2300  144.7084  155.3172 C   0  0  0  0  0  0  0  0  0  0  0  0
  144.0428  145.5894  154.2351 C   0  0  0  0  0  0  0  0  0  0  0  0
  144.6636  145.3319  153.0003 C   0  0  0  0  0  0  0  0  0  0  0  0
  145.4727  144.1915  152.8484 C   0  0  0  0  0  0  0  0  0  0  0  0
  145.6622  143.3034  153.9283 C   0  0  0  0  0  0  0  0  0  0  0  0
  146.5483  142.0837  153.7477 C   0  0  0  0  0  0  0  0  0  0  0  0
  147.6505  142.1030  154.6400 O   0  0  0  0  0  0  0  0  0  0  0  0
  148.8187  141.5212  154.0861 C   0  0  0  0  0  0  0  0  0  0  0  0
  149.6807  140.9549  155.2249 C   0  0  1  0  0  0  0  0  0  0  0  0
  150.6718  140.1177  154.6615 O   0  0  0  0  0  0  0  0  0  0  0  0
  150.3659  142.0705  156.0375 C   0  0  0  0  0  0  0  0  0  0  0  0
  150.8923  141.5929  157.3040 N   0  0  0  0  0  0  0  0  0  0  0  0
  151.3143  140.3453  157.5848 C   0  0  0  0  0  0  0  0  0  0  0  0
  151.7623  140.1156  158.8157 N   0  0  0  0  0  0  0  0  0  0  0  0
  151.6156  141.3606  159.4030 C   0  0  0  0  0  0  0  0  0  0  0  0
  151.9125  141.7963  160.7140 C   0  0  0  0  0  0  0  0  0  0  0  0
  151.6777  143.1344  161.0929 C   0  0  0  0  0  0  0  0  0  0  0  0
  151.9689  143.5357  162.3530 F   0  0  0  0  0  0  0  0  0  0  0  0
  151.1431  144.0556  160.1678 C   0  0  0  0  0  0  0  0  0  0  0  0
  150.9227  145.3389  160.5393 F   0  0  0  0  0  0  0  0  0  0  0  0
  150.8382  143.6441  158.8561 C   0  0  0  0  0  0  0  0  0  0  0  0
  151.0736  142.3081  158.4829 C   0  0  0  0  0  0  0  0  0  0  0  0
  144.9017  142.0686  158.1312 H   0  0  0  0  0  0  0  0  0  0  0  0
  143.5531  142.8841  157.3494 H   0  0  0  0  0  0  0  0  0  0  0  0
  144.9693  143.8119  157.9014 H   0  0  0  0  0  0  0  0  0  0  0  0
  143.7379  144.9431  156.2486 H   0  0  0  0  0  0  0  0  0  0  0  0
  143.4220  146.4651  154.3544 H   0  0  0  0  0  0  0  0  0  0  0  0
  144.5207  146.0086  152.1709 H   0  0  0  0  0  0  0  0  0  0  0  0
  145.9467  144.0012  151.8967 H   0  0  0  0  0  0  0  0  0  0  0  0
  145.9686  141.1725  153.9030 H   0  0  0  0  0  0  0  0  0  0  0  0
  146.8996  142.0669  152.7148 H   0  0  0  0  0  0  0  0  0  0  0  0
  148.5735  140.7516  153.3516 H   0  0  0  0  0  0  0  0  0  0  0  0
  149.3728  142.3024  153.5627 H   0  0  0  0  0  0  0  0  0  0  0  0
  149.0558  140.3625  155.8950 H   0  0  0  0  0  0  0  0  0  0  0  0
  150.4263  139.2188  154.8192 H   0  0  0  0  0  0  0  0  0  0  0  0
  151.1788  142.5192  155.4651 H   0  0  0  0  0  0  0  0  0  0  0  0
  149.6560  142.8714  156.2482 H   0  0  0  0  0  0  0  0  0  0  0  0
  151.2915  139.5613  156.8421 H   0  0  0  0  0  0  0  0  0  0  0  0
  152.3227  141.1002  161.4303 H   0  0  0  0  0  0  0  0  0  0  0  0
  150.4323  144.3475  158.1446 H   0  0  0  0  0  0  0  0  0  0  0  0
  1  2  1  0  0  0  0
  1 26  1  0  0  0  0
  1 27  1  0  0  0  0
  1 28  1  0  0  0  0
  2  3  1  0  0  0  0
  3  8  1  0  0  0  0
  3  4  2  0  0  0  0
  4  5  1  0  0  0  0
  4 29  1  0  0  0  0
  5  6  2  0  0  0  0
  5 30  1  0  0  0  0
  6  7  1  0  0  0  0
  6 31  1  0  0  0  0
  7  8  2  0  0  0  0
  7 32  1  0  0  0  0
  8  9  1  0  0  0  0
  9 10  1  0  0  0  0
  9 33  1  0  0  0  0
  9 34  1  0  0  0  0
 10 11  1  0  0  0  0
 11 12  1  0  0  0  0
 11 35  1  0  0  0  0
 11 36  1  0  0  0  0
 12 13  1  0  0  0  0
 12 14  1  0  0  0  0
 12 37  1  0  0  0  0
 13 38  1  0  0  0  0
 14 15  1  0  0  0  0
 14 39  1  0  0  0  0
 14 40  1  0  0  0  0
 15 25  1  0  0  0  0
 15 16  1  0  0  0  0
 16 17  2  0  0  0  0
 16 41  1  0  0  0  0
 17 18  1  0  0  0  0
 18 25  2  0  0  0  0
 18 19  1  0  0  0  0
 19 20  2  0  0  0  0
 19 42  1  0  0  0  0
 20 21  1  0  0  0  0
 20 22  1  0  0  0  0
 22 23  1  0  0  0  0
 22 24  2  0  0  0  0
 24 25  1  0  0  0  0
 24 43  1  0  0  0  0
M  END
> <s_m_source_file>
AV-unprocessed.smi

> <i_m_source_file_index>
1012

> <i_lp_mmshare_version>
43012

> <i_f3d_flags>
0

> <s_epik_input>
W0NIM11PYzFbY0hdW2NIXVtjSF1bY0hdYzFbQ0gyXU9bQ0gyXVtDQEhdKFtPSF0pW0NIMl1uKFtjSF1uMiljKGMyMylbY0hdYyhGKWMoRilbY0hdMw==

> <s_epik_cmdline>
J2VwaWtfcHl0aG9uJywgJy1waCcsICc3LjAnLCAnLXRuJywgJzgnLCAnLW1hJywgJzIwMCcsICctbWV0YWxfYmluZGluZycsICctaW1hZScsICc8aW5maWxlLm1hZT4nLCAnLW9tYWUnLCAnPG91dGZpbGUubWFlPic=

> <r_lp_tautomer_probability>
1

> <r_epik_Ionization_Penalty>
0.0160257

> <r_epik_Ionization_Penalty_Charging>
0

> <r_epik_Ionization_Penalty_Neutral>
0.0160257

> <r_epik_State_Penalty>
0.0126263

> <r_epik_Charging_Adjusted_Penalty>
0.0126263

> <i_epik_Tot_Q>
0

> <i_epik_Tot_abs_Q>
0

> <r_epik_Metal_State_Penalty>
1.27616e-05

> <b_epik_Metal_Only>
0

> <s_lp_Force_Field>
OPLS_2005

> <r_lp_Energy>
17.5925

> <b_lp_Chiralities_Consistent>
1

> <s_lp_Variant>
AV-unprocessed.smi:1012-2

> <Gold.Version>
5.8.1

> <Gold.Id.Protein>
6NUR|6NUR_protein|mol2

> <Gold.PLP.Fitness>
58.8874

> <Gold.PLP.PLP>
-57.6765

> <Gold.PLP.part.hbond>
-1.0000

> <Gold.PLP.part.metal>
0.0000

> <Gold.PLP.part.buried>
-8.3275

> <Gold.PLP.part.nonpolar>
-49.0056

> <Gold.PLP.part.repulsive>
0.6923

> <Gold.PLP.ligand.clash>
0.0000

> <Gold.PLP.ligand.torsion>
0.9577

> <Gold.PLP.Chemscore.Hbond>
1.0000

> <Gold.PLP.Chemscore.CHOScore>
0.0000

> <Gold.PLP.Chemscore.Metal>
0.0000

> <Gold.Chemscore.Hbonds>
donor molecule, donor type, donor heavy atom, donor atom, acceptor molecule, acceptor atom, score
      P1  H  7989  7998       L1    13  1.00

> <Gold.PLP.Chemscore.Internal.Correction>
0.1263

> <Gold.Rescore>
     Score         DG    S(hbond)    S(metal)    S(lipo)     H(rot)  DE(clash)    DE(int)     intcor
     11.42     -13.97       0.92        0.00     110.63       2.93       0.05       2.49       ----

> <Gold.Chemscore.Fitness>
11.4235

> <Gold.Chemscore.DG>
-13.9703

> <Gold.Chemscore.ZeroCoef>
-5.4800

> <Gold.Chemscore.Hbond>
0.9151

> <Gold.Chemscore.Metal>
0.0000

> <Gold.Chemscore.Lipo>
110.6272

> <Gold.Chemscore.Internal_Hbond>
0.0000

> <Gold.Chemscore.DEClash>
0.0544

> <Gold.Chemscore.DEInternal>
2.4924

> <Gold.Chemscore.Rot>
2.9335

> <Gold.Chemscore.Internal.Correction>
   9.000000E+99

> <Gold.Chemscore.Hbonds>
donor molecule, donor type, donor heavy atom, donor atom, acceptor molecule, acceptor atom, score
      P1  H  7989  7998       L1    13  0.88

> <Gold.Chemscore.Hbond.Weighted>
-3.0566

> <Gold.Chemscore.Metal.Weighted>
-0.0000

> <Gold.Chemscore.Lipo.Weighted>
-12.9434

> <Gold.Chemscore.Internal_Hbond.Weighted>
0.0000

> <Gold.Chemscore.DEClash.Weighted>
0.0544

> <Gold.Chemscore.DEInternal.Weighted>
2.4924

> <Gold.Chemscore.Rot.Weighted>
7.5097

> <Gold.Chemscore.Internal.Correction.Weighted>
   9.000000E+99

> <Gold.Protein.RotatedTorsions>
[ 6907 6896 6895 6894 ] final   22.87 input  -60.11 | X-H torsion
[ 7974 7965 7964 7962 ] final  -39.46 input  175.53 | X-H torsion
[ 8008 7997 7996 7995 ] final -152.56 input   59.86 | X-H torsion
[ 10167 10162 10161 10158 ] final  -89.38 input  -65.29 | X-H torsion
[ 10718 10713 10712 10709 ] final  -41.62 input   66.30 | X-H torsion
[ 10763 10752 10751 10750 ] final  145.14 input  -60.55 | X-H torsion
[ 11005 11000 10999 10996 ] final  104.73 input  -57.11 | X-H torsion

> <Gold.Protein.ActiveResidues>
 VAL166  LYS551  ARG553  GLY616  TRP617  ASP618  TYR619  PRO620  LYS621  CYS622 
 ASP623  PHE694  ASN695  SER759  ASP760  ASP761  ALA762  ILE779  LEU786  VAL792 
 PHE793  MET794  SER795  GLU796  ALA797  LYS798  CYS799  TRP800  GLU811  SER814 

> <Gold.Protein.RotatedAtoms>
  151.9337  135.0245  160.0530 H   0  0  0  0  0  0  0  0  0  0  0  0  # atno 6907 bound_to 6896
  152.2096  133.4897  159.5111 H   0  0  0  0  0  0  0  0  0  0  0  0  # atno 6908 bound_to 6896
  150.6973  134.1401  159.4144 H   0  0  0  0  0  0  0  0  0  0  0  0  # atno 6909 bound_to 6896
  146.0395  140.6628  142.9094 H   0  0  0  0  0  0  0  0  0  0  0  0  # atno 7974 bound_to 7965
  155.6571  140.0718  157.2567 H   0  0  0  0  0  0  0  0  0  0  0  0  # atno 8008 bound_to 7997
  154.4150  140.1723  156.1787 H   0  0  0  0  0  0  0  0  0  0  0  0  # atno 8009 bound_to 7997
  155.9728  140.3360  155.6594 H   0  0  0  0  0  0  0  0  0  0  0  0  # atno 8010 bound_to 7997
  140.3654  143.2821  151.9564 H   0  0  0  0  0  0  0  0  0  0  0  0  # atno 10167 bound_to 10162
  156.2684  130.4204  149.8465 H   0  0  0  0  0  0  0  0  0  0  0  0  # atno 10718 bound_to 10713
  154.0005  135.2923  155.3403 H   0  0  0  0  0  0  0  0  0  0  0  0  # atno 10763 bound_to 10752
  154.7162  135.5128  153.8745 H   0  0  0  0  0  0  0  0  0  0  0  0  # atno 10764 bound_to 10752
  153.0768  135.6666  154.0247 H   0  0  0  0  0  0  0  0  0  0  0  0  # atno 10765 bound_to 10752
  139.8795  134.9311  156.5407 H   0  0  0  0  0  0  0  0  0  0  0  0  # atno 11005 bound_to 11000
  144.7067  140.3881  143.7112 LP  0  0  0  0  0  0  0  0  0  0  0  0  # atno 17320 bound_to 7965
  145.6909  139.1639  143.2647 LP  0  0  0  0  0  0  0  0  0  0  0  0  # atno 17321 bound_to 7965
  139.4809  144.5955  151.7698 LP  0  0  0  0  0  0  0  0  0  0  0  0  # atno 17342 bound_to 10162
  140.5086  144.1060  150.5989 LP  0  0  0  0  0  0  0  0  0  0  0  0  # atno 17343 bound_to 10162
  156.5955  130.8524  151.3419 LP  0  0  0  0  0  0  0  0  0  0  0  0  # atno 17370 bound_to 10713
  157.7275  130.9644  150.1703 LP  0  0  0  0  0  0  0  0  0  0  0  0  # atno 17371 bound_to 10713
  140.8313  133.8277  155.8986 LP  0  0  0  0  0  0  0  0  0  0  0  0  # atno 17394 bound_to 11000
  140.9326  134.2002  157.4853 LP  0  0  0  0  0  0  0  0  0  0  0  0  # atno 17395 bound_to 11000

$$$$
