AV-unprocessed.smi:685|AV-procd|sdf|3336|dock8
  -GOLD-   22720 0303D 1   1.00000     0.00000
 Structure written by MMmdl.
 51 52  0  0  0  0  0  0  0  0  2 V2000
  149.9004  141.2363  155.6744 C   0  0  0  0  0  0  0  0  0  0  0  0
  150.6793  141.8913  156.7655 C   0  0  0  0  0  0  0  0  0  0  0  0
  150.5612  143.2003  157.1148 N   0  3  0  0  0  0  0  0  0  0  0  0
  151.3896  143.4854  158.1300 N   0  0  0  0  0  0  0  0  0  0  0  0
  151.4158  144.8475  158.6636 C   0  0  0  0  0  0  0  0  0  0  0  0
  152.0953  142.3754  158.4887 C   0  0  0  0  0  0  0  0  0  0  0  0
  153.1120  142.3323  159.5828 C   0  0  0  0  0  0  0  0  0  0  0  0
  151.6464  141.3643  157.6294 C   0  0  0  0  0  0  0  0  0  0  0  0
  152.1138  139.9360  157.6256 C   0  0  0  0  0  0  0  0  0  0  0  0
  151.8679  139.2153  158.9692 C   0  0  1  0  0  0  0  0  0  0  0  0
  150.5693  138.3940  158.9739 C   0  0  0  0  0  0  0  0  0  0  0  0
  152.9897  138.3356  159.2857 N   0  0  0  0  0  0  0  0  0  0  0  0
  154.2846  138.6864  159.2348 C   0  0  0  0  0  0  0  0  0  0  0  0
  154.6645  139.8090  158.8998 O   0  0  0  0  0  0  0  0  0  0  0  0
  155.2977  137.6065  159.6257 C   0  0  0  0  0  0  0  0  0  0  0  0
  154.8545  136.7846  160.8512 C   0  0  0  0  0  0  0  0  0  0  0  0
  154.7510  137.6234  162.1374 C   0  0  0  0  0  0  0  0  0  0  0  0
  155.9899  138.4806  162.4052 C   0  0  0  0  0  0  0  0  0  0  0  0
  155.9045  138.8440  163.8907 C   0  0  0  0  0  0  0  0  0  0  0  0
  155.0594  137.7449  164.5521 C   0  0  0  0  0  0  0  0  0  0  0  0
  154.6143  136.8046  163.4253 C   0  0  0  0  0  0  0  0  0  0  0  0
  149.5169  140.2721  156.0083 H   0  0  0  0  0  0  0  0  0  0  0  0
  150.5364  141.0739  154.8041 H   0  0  0  0  0  0  0  0  0  0  0  0
  149.0565  141.8592  155.3767 H   0  0  0  0  0  0  0  0  0  0  0  0
  151.5243  144.8067  159.7479 H   0  0  0  0  0  0  0  0  0  0  0  0
  150.4880  145.3650  158.4155 H   0  0  0  0  0  0  0  0  0  0  0  0
  152.2619  145.3823  158.2316 H   0  0  0  0  0  0  0  0  0  0  0  0
  153.8480  141.5512  159.3941 H   0  0  0  0  0  0  0  0  0  0  0  0
  152.6261  142.1300  160.5372 H   0  0  0  0  0  0  0  0  0  0  0  0
  153.6394  143.2838  159.6538 H   0  0  0  0  0  0  0  0  0  0  0  0
  151.6376  139.3784  156.8186 H   0  0  0  0  0  0  0  0  0  0  0  0
  153.1787  139.9184  157.3907 H   0  0  0  0  0  0  0  0  0  0  0  0
  151.7901  139.9601  159.7631 H   0  0  0  0  0  0  0  0  0  0  0  0
  149.6977  139.0257  158.8015 H   0  0  0  0  0  0  0  0  0  0  0  0
  150.4237  137.8970  159.9336 H   0  0  0  0  0  0  0  0  0  0  0  0
  150.5821  137.6250  158.2007 H   0  0  0  0  0  0  0  0  0  0  0  0
  152.7656  137.3938  159.5735 H   0  0  0  0  0  0  0  0  0  0  0  0
  155.4399  136.9479  158.7683 H   0  0  0  0  0  0  0  0  0  0  0  0
  156.2629  138.0742  159.8238 H   0  0  0  0  0  0  0  0  0  0  0  0
  153.8970  136.3027  160.6475 H   0  0  0  0  0  0  0  0  0  0  0  0
  155.5696  135.9786  161.0235 H   0  0  0  0  0  0  0  0  0  0  0  0
  153.8911  138.2909  162.0590 H   0  0  0  0  0  0  0  0  0  0  0  0
  156.8933  137.8953  162.2266 H   0  0  0  0  0  0  0  0  0  0  0  0
  156.0353  139.3610  161.7632 H   0  0  0  0  0  0  0  0  0  0  0  0
  156.8943  138.9274  164.3408 H   0  0  0  0  0  0  0  0  0  0  0  0
  155.4099  139.8087  164.0101 H   0  0  0  0  0  0  0  0  0  0  0  0
  155.6213  137.2057  165.3154 H   0  0  0  0  0  0  0  0  0  0  0  0
  154.1915  138.1896  165.0407 H   0  0  0  0  0  0  0  0  0  0  0  0
  153.6013  136.4306  163.5775 H   0  0  0  0  0  0  0  0  0  0  0  0
  155.2816  135.9422  163.3899 H   0  0  0  0  0  0  0  0  0  0  0  0
  149.9582  143.9089  156.7162 H   0  0  0  0  0  0  0  0  0  0  0  0
  1  2  1  0  0  0  0
  1 22  1  0  0  0  0
  1 23  1  0  0  0  0
  1 24  1  0  0  0  0
  2  8  1  0  0  0  0
  2  3  2  0  0  0  0
  3  4  1  0  0  0  0
  3 51  1  0  0  0  0
  4  5  1  0  0  0  0
  4  6  1  0  0  0  0
  5 25  1  0  0  0  0
  5 26  1  0  0  0  0
  5 27  1  0  0  0  0
  6  7  1  0  0  0  0
  6  8  2  0  0  0  0
  7 28  1  0  0  0  0
  7 29  1  0  0  0  0
  7 30  1  0  0  0  0
  8  9  1  0  0  0  0
  9 10  1  0  0  0  0
  9 31  1  0  0  0  0
  9 32  1  0  0  0  0
 10 11  1  0  0  0  0
 10 12  1  0  0  0  0
 10 33  1  0  0  0  0
 11 34  1  0  0  0  0
 11 35  1  0  0  0  0
 11 36  1  0  0  0  0
 12 13  1  0  0  0  0
 12 37  1  0  0  0  0
 13 14  2  0  0  0  0
 13 15  1  0  0  0  0
 15 16  1  0  0  0  0
 15 38  1  0  0  0  0
 15 39  1  0  0  0  0
 16 17  1  0  0  0  0
 16 40  1  0  0  0  0
 16 41  1  0  0  0  0
 17 21  1  0  0  0  0
 17 18  1  0  0  0  0
 17 42  1  0  0  0  0
 18 19  1  0  0  0  0
 18 43  1  0  0  0  0
 18 44  1  0  0  0  0
 19 20  1  0  0  0  0
 19 45  1  0  0  0  0
 19 46  1  0  0  0  0
 20 21  1  0  0  0  0
 20 47  1  0  0  0  0
 20 48  1  0  0  0  0
 21 49  1  0  0  0  0
 21 50  1  0  0  0  0
M  CHG  1   3   1
M  END
> <s_m_source_file>
AV-unprocessed.smi

> <i_m_source_file_index>
685

> <i_lp_mmshare_version>
43012

> <i_f3d_flags>
0

> <s_epik_input>
W0NIM11jMW5uKFtDSDNdKWMoW0NIM10pYzFbQ0gyXVtDQEhdKFtDSDNdKVtOSF1DKD1PKVtDSDJdW0NIMl1bQ0hdMltDSDJdW0NIMl1bQ0gyXVtDSDJdMg==

> <s_epik_cmdline>
J2VwaWtfcHl0aG9uJywgJy1waCcsICc3LjAnLCAnLXRuJywgJzgnLCAnLW1hJywgJzIwMCcsICctbWV0YWxfYmluZGluZycsICctaW1hZScsICc8aW5maWxlLm1hZT4nLCAnLW9tYWUnLCAnPG91dGZpbGUubWFlPic=

> <r_lp_tautomer_probability>
1

> <r_epik_Ionization_Penalty>
2.26429

> <r_epik_Ionization_Penalty_Charging>
2.26429

> <r_epik_Ionization_Penalty_Neutral>
2.3289e-07

> <r_epik_State_Penalty>
2.41237

> <r_epik_Charging_Adjusted_Penalty>
4.67666

> <i_epik_Tot_Q>
1

> <i_epik_Tot_abs_Q>
1

> <r_epik_Metal_State_Penalty>
2.42525

> <b_epik_Metal_Only>
0

> <s_lp_Force_Field>
OPLS_2005

> <r_lp_Energy>
28.4866

> <b_lp_Chiralities_Consistent>
1

> <s_lp_Variant>
AV-unprocessed.smi:685-4

> <Gold.Version>
5.8.1

> <Gold.Id.Protein>
6NUR|6NUR_protein|mol2

> <Gold.PLP.Fitness>
50.2397

> <Gold.PLP.PLP>
-43.0077

> <Gold.PLP.part.hbond>
-2.0000

> <Gold.PLP.part.metal>
0.0000

> <Gold.PLP.part.buried>
-5.6916

> <Gold.PLP.part.nonpolar>
-35.1760

> <Gold.PLP.part.repulsive>
0.1006

> <Gold.PLP.ligand.clash>
0.0000

> <Gold.PLP.ligand.torsion>
0.9288

> <Gold.PLP.Chemscore.Hbond>
3.0000

> <Gold.PLP.Chemscore.CHOScore>
0.0000

> <Gold.PLP.Chemscore.Metal>
0.0000

> <Gold.Chemscore.Hbonds>
donor molecule, donor type, donor heavy atom, donor atom, acceptor molecule, acceptor atom, score
      L1  H     3    51       P1  8028  2.00
      P1  H  7997  8008       L1    14  1.00

> <Gold.PLP.Chemscore.Internal.Correction>
0.0896

> <Gold.Rescore>
     Score         DG    S(hbond)    S(metal)    S(lipo)     H(rot)  DE(clash)    DE(int)     intcor
     19.34     -21.60       1.98        0.00     116.47       1.61       0.12       2.14       ----

> <Gold.Chemscore.Fitness>
19.3379

> <Gold.Chemscore.DG>
-21.5971

> <Gold.Chemscore.ZeroCoef>
-5.4800

> <Gold.Chemscore.Hbond>
1.9790

> <Gold.Chemscore.Metal>
0.0000

> <Gold.Chemscore.Lipo>
116.4749

> <Gold.Chemscore.Internal_Hbond>
0.0000

> <Gold.Chemscore.DEClash>
0.1205

> <Gold.Chemscore.DEInternal>
2.1386

> <Gold.Chemscore.Rot>
1.6095

> <Gold.Chemscore.Internal.Correction>
   9.000000E+99

> <Gold.Chemscore.Hbonds>
donor molecule, donor type, donor heavy atom, donor atom, acceptor molecule, acceptor atom, score
      L1  H     3    51       P1  8028  0.99
      P1  H  7997  8008       L1    14  0.95

> <Gold.Chemscore.Hbond.Weighted>
-6.6098

> <Gold.Chemscore.Metal.Weighted>
-0.0000

> <Gold.Chemscore.Lipo.Weighted>
-13.6276

> <Gold.Chemscore.Internal_Hbond.Weighted>
0.0000

> <Gold.Chemscore.DEClash.Weighted>
0.1205

> <Gold.Chemscore.DEInternal.Weighted>
2.1386

> <Gold.Chemscore.Rot.Weighted>
4.1202

> <Gold.Chemscore.Internal.Correction.Weighted>
   9.000000E+99

> <Gold.Protein.RotatedTorsions>
[ 6907 6896 6895 6894 ] final -118.94 input  -60.11 | X-H torsion
[ 7974 7965 7964 7962 ] final -103.10 input  175.53 | X-H torsion
[ 8008 7997 7996 7995 ] final -123.84 input   59.86 | X-H torsion
[ 10167 10162 10161 10158 ] final  -45.30 input  -65.29 | X-H torsion
[ 10718 10713 10712 10709 ] final -126.01 input   66.30 | X-H torsion
[ 10763 10752 10751 10750 ] final   53.59 input  -60.55 | X-H torsion
[ 11005 11000 10999 10996 ] final  -71.72 input  -57.11 | X-H torsion

> <Gold.Protein.ActiveResidues>
 VAL166  LYS551  ARG553  GLY616  TRP617  ASP618  TYR619  PRO620  LYS621  CYS622 
 ASP623  PHE694  ASN695  SER759  ASP760  ASP761  ALA762  ILE779  LEU786  VAL792 
 PHE793  MET794  SER795  GLU796  ALA797  LYS798  CYS799  TRP800  GLU811  SER814 

> <Gold.Protein.RotatedAtoms>
  150.8262  133.8167  159.3117 H   0  0  0  0  0  0  0  0  0  0  0  0  # atno 6907 bound_to 6896
  151.5911  135.1051  160.0048 H   0  0  0  0  0  0  0  0  0  0  0  0  # atno 6908 bound_to 6896
  152.4347  133.7298  159.6637 H   0  0  0  0  0  0  0  0  0  0  0  0  # atno 6909 bound_to 6896
  145.2602  140.9267  143.3045 H   0  0  0  0  0  0  0  0  0  0  0  0  # atno 7974 bound_to 7965
  155.1871  140.0412  157.2893 H   0  0  0  0  0  0  0  0  0  0  0  0  # atno 8008 bound_to 7997
  154.6164  140.2490  155.7576 H   0  0  0  0  0  0  0  0  0  0  0  0  # atno 8009 bound_to 7997
  156.2409  140.2904  156.0451 H   0  0  0  0  0  0  0  0  0  0  0  0  # atno 8010 bound_to 7997
  140.6863  143.2886  151.3619 H   0  0  0  0  0  0  0  0  0  0  0  0  # atno 10167 bound_to 10162
  156.1727  130.6678  151.0201 H   0  0  0  0  0  0  0  0  0  0  0  0  # atno 10718 bound_to 10713
  152.9796  135.5773  154.4766 H   0  0  0  0  0  0  0  0  0  0  0  0  # atno 10763 bound_to 10752
  154.4321  135.2774  155.1907 H   0  0  0  0  0  0  0  0  0  0  0  0  # atno 10764 bound_to 10752
  154.3611  135.6188  153.5745 H   0  0  0  0  0  0  0  0  0  0  0  0  # atno 10765 bound_to 10752
  141.1597  133.6826  156.6949 H   0  0  0  0  0  0  0  0  0  0  0  0  # atno 11005 bound_to 11000
  144.9425  139.4173  143.6442 LP  0  0  0  0  0  0  0  0  0  0  0  0  # atno 17320 bound_to 7965
  146.3277  139.8391  142.8894 LP  0  0  0  0  0  0  0  0  0  0  0  0  # atno 17321 bound_to 7965
  139.6225  144.0879  152.2404 LP  0  0  0  0  0  0  0  0  0  0  0  0  # atno 17342 bound_to 10162
  140.0328  144.6068  150.7474 LP  0  0  0  0  0  0  0  0  0  0  0  0  # atno 17343 bound_to 10162
  157.6814  131.0837  150.7360 LP  0  0  0  0  0  0  0  0  0  0  0  0  # atno 17370 bound_to 10713
  156.7419  130.4741  149.5475 LP  0  0  0  0  0  0  0  0  0  0  0  0  # atno 17371 bound_to 10713
  140.3002  134.8170  157.4091 LP  0  0  0  0  0  0  0  0  0  0  0  0  # atno 17394 bound_to 11000
  140.1269  134.5147  155.8137 LP  0  0  0  0  0  0  0  0  0  0  0  0  # atno 17395 bound_to 11000

$$$$
