AV-unprocessed.smi:1071|AV-procd|sdf|4677|dock2
  -GOLD-   22720 3193D 1   1.00000     0.00000
 Structure written by MMmdl.
 47 48  0  0  0  0  0  0  0  0  2 V2000
  152.2213  140.5501  158.5373 C   0  0  0  0  0  0  0  0  0  0  0  0
  152.6337  139.5573  157.6143 O   0  0  0  0  0  0  0  0  0  0  0  0
  151.5417  138.9704  156.9262 C   0  0  0  0  0  0  0  0  0  0  0  0
  151.6822  139.2549  155.4284 C   0  0  0  0  0  0  0  0  0  0  0  0
  150.6172  140.1105  155.0252 O   0  0  0  0  0  0  0  0  0  0  0  0
  149.4580  139.5375  154.5437 C   0  0  0  0  0  0  0  0  0  0  0  0
  148.3743  140.3784  154.2229 C   0  0  0  0  0  0  0  0  0  0  0  0
  147.1905  139.7995  153.7291 C   0  0  0  0  0  0  0  0  0  0  0  0
  147.1241  138.4017  153.5607 C   0  0  0  0  0  0  0  0  0  0  0  0
  145.9084  137.8544  153.0671 N   0  0  0  0  0  0  0  0  0  0  0  0
  145.3693  136.6399  153.2928 C   0  0  0  0  0  0  0  0  0  0  0  0
  145.7881  135.8435  154.1310 O   0  0  0  0  0  0  0  0  0  0  0  0
  144.2322  136.4372  152.5827 N   0  0  0  0  0  0  0  0  0  0  0  0
  144.2032  136.7255  151.1406 C   0  0  0  0  0  0  0  0  0  0  0  0
  144.5829  135.4491  150.3627 C   0  0  0  0  0  0  0  0  0  0  0  0
  143.7026  134.3075  150.7252 N   0  3  1  0  0  0  0  0  0  0  0  0
  144.0646  133.0656  150.0095 C   0  0  0  0  0  0  0  0  0  0  0  0
  143.5747  134.1012  152.1919 C   0  0  0  0  0  0  0  0  0  0  0  0
  143.2131  135.4190  152.9082 C   0  0  1  0  0  0  0  0  0  0  0  0
  142.9407  135.2216  154.4144 C   0  0  0  0  0  0  0  0  0  0  0  0
  148.2628  137.6411  153.9246 C   0  0  0  0  0  0  0  0  0  0  0  0
  149.4006  138.1905  154.3996 N   0  0  0  0  0  0  0  0  0  0  0  0
  153.0935  140.9672  159.0408 H   0  0  0  0  0  0  0  0  0  0  0  0
  151.5618  140.1313  159.2984 H   0  0  0  0  0  0  0  0  0  0  0  0
  151.7011  141.3659  158.0333 H   0  0  0  0  0  0  0  0  0  0  0  0
  151.5243  137.8932  157.1003 H   0  0  0  0  0  0  0  0  0  0  0  0
  150.6012  139.3807  157.2971 H   0  0  0  0  0  0  0  0  0  0  0  0
  152.6448  139.7306  155.2330 H   0  0  0  0  0  0  0  0  0  0  0  0
  151.6482  138.3167  154.8720 H   0  0  0  0  0  0  0  0  0  0  0  0
  148.4502  141.4480  154.3531 H   0  0  0  0  0  0  0  0  0  0  0  0
  146.3464  140.4253  153.4783 H   0  0  0  0  0  0  0  0  0  0  0  0
  145.4412  138.4133  152.3679 H   0  0  0  0  0  0  0  0  0  0  0  0
  143.2045  137.0578  150.8542 H   0  0  0  0  0  0  0  0  0  0  0  0
  144.8722  137.5380  150.8539 H   0  0  0  0  0  0  0  0  0  0  0  0
  144.5139  135.6346  149.2903 H   0  0  0  0  0  0  0  0  0  0  0  0
  145.6206  135.1839  150.5720 H   0  0  0  0  0  0  0  0  0  0  0  0
  145.0548  132.7174  150.3062 H   0  0  0  0  0  0  0  0  0  0  0  0
  144.0682  133.2299  148.9317 H   0  0  0  0  0  0  0  0  0  0  0  0
  143.3449  132.2747  150.2236 H   0  0  0  0  0  0  0  0  0  0  0  0
  142.8060  133.3510  152.3814 H   0  0  0  0  0  0  0  0  0  0  0  0
  144.5107  133.7025  152.5872 H   0  0  0  0  0  0  0  0  0  0  0  0
  142.2686  135.7746  152.4922 H   0  0  0  0  0  0  0  0  0  0  0  0
  142.0440  134.6192  154.5627 H   0  0  0  0  0  0  0  0  0  0  0  0
  142.7762  136.1759  154.9158 H   0  0  0  0  0  0  0  0  0  0  0  0
  143.7531  134.7046  154.9240 H   0  0  0  0  0  0  0  0  0  0  0  0
  148.2834  136.5651  153.8591 H   0  0  0  0  0  0  0  0  0  0  0  0
  142.7794  134.5613  150.4035 H   0  0  0  0  0  0  0  0  0  0  0  0
  1  2  1  0  0  0  0
  1 23  1  0  0  0  0
  1 24  1  0  0  0  0
  1 25  1  0  0  0  0
  2  3  1  0  0  0  0
  3  4  1  0  0  0  0
  3 26  1  0  0  0  0
  3 27  1  0  0  0  0
  4  5  1  0  0  0  0
  4 28  1  0  0  0  0
  4 29  1  0  0  0  0
  5  6  1  0  0  0  0
  6 22  1  0  0  0  0
  6  7  2  0  0  0  0
  7  8  1  0  0  0  0
  7 30  1  0  0  0  0
  8  9  2  0  0  0  0
  8 31  1  0  0  0  0
  9 10  1  0  0  0  0
  9 21  1  0  0  0  0
 10 11  1  0  0  0  0
 10 32  1  0  0  0  0
 11 12  2  0  0  0  0
 11 13  1  0  0  0  0
 13 19  1  0  0  0  0
 13 14  1  0  0  0  0
 14 15  1  0  0  0  0
 14 33  1  0  0  0  0
 14 34  1  0  0  0  0
 15 16  1  0  0  0  0
 15 35  1  0  0  0  0
 15 36  1  0  0  0  0
 16 17  1  0  0  0  0
 16 18  1  0  0  0  0
 16 47  1  0  0  0  0
 17 37  1  0  0  0  0
 17 38  1  0  0  0  0
 17 39  1  0  0  0  0
 18 19  1  0  0  0  0
 18 40  1  0  0  0  0
 18 41  1  0  0  0  0
 19 20  1  0  0  0  0
 19 42  1  0  0  0  0
 20 43  1  0  0  0  0
 20 44  1  0  0  0  0
 20 45  1  0  0  0  0
 21 22  2  0  0  0  0
 21 46  1  0  0  0  0
M  CHG  1  16   1
M  END
> <s_m_source_file>
AV-unprocessed.smi

> <i_m_source_file_index>
1071

> <i_lp_mmshare_version>
43012

> <i_f3d_flags>
0

> <s_epik_input>
W0NIM11PW0NIMl1bQ0gyXU9jMVtjSF1bY0hdYyhbY0hdbjEpW05IXUMoPU8pTjJbQ0gyXVtDSDJdTihbQ0gzXSlbQ0gyXVtDQEhdMltDSDNd

> <s_epik_cmdline>
J2VwaWtfcHl0aG9uJywgJy1waCcsICc3LjAnLCAnLXRuJywgJzgnLCAnLW1hJywgJzIwMCcsICctbWV0YWxfYmluZGluZycsICctaW1hZScsICc8aW5maWxlLm1hZT4nLCAnLW9tYWUnLCAnPG91dGZpbGUubWFlPic=

> <r_lp_tautomer_probability>
1

> <r_epik_Ionization_Penalty>
0.25455

> <r_epik_Ionization_Penalty_Charging>
0.254506

> <r_epik_Ionization_Penalty_Neutral>
4.43365e-05

> <r_epik_State_Penalty>
0.245983

> <r_epik_Charging_Adjusted_Penalty>
0.500488

> <i_epik_Tot_Q>
1

> <i_epik_Tot_abs_Q>
1

> <r_epik_Metal_State_Penalty>
0.245987

> <b_epik_Metal_Only>
0

> <s_lp_Force_Field>
OPLS_2005

> <r_lp_Energy>
54.998

> <b_lp_Chiralities_Consistent>
1

> <s_lp_Variant>
AV-unprocessed.smi:1071-1

> <Gold.Version>
5.8.1

> <Gold.Id.Protein>
6NUR|6NUR_protein|mol2

> <Gold.PLP.Fitness>
36.2282

> <Gold.PLP.PLP>
-25.7536

> <Gold.PLP.part.hbond>
-3.0000

> <Gold.PLP.part.metal>
0.0000

> <Gold.PLP.part.buried>
6.1781

> <Gold.PLP.part.nonpolar>
-28.9489

> <Gold.PLP.part.repulsive>
0.3418

> <Gold.PLP.ligand.clash>
0.0000

> <Gold.PLP.ligand.torsion>
1.5844

> <Gold.PLP.Chemscore.Hbond>
3.9325

> <Gold.PLP.Chemscore.CHOScore>
0.4090

> <Gold.PLP.Chemscore.Metal>
0.0000

> <Gold.Chemscore.Hbonds>
donor molecule, donor type, donor heavy atom, donor atom, acceptor molecule, acceptor atom, score
      L1  H    16    47       P1 10186  2.00
      P1  H  7989  7998       L1     5  0.70
      P1  H  7997  8010       L1     2  0.96
      L1  C    21    46       P1  7948  0.46

> <Gold.PLP.Chemscore.Internal.Correction>
0.6189

> <Gold.Rescore>
     Score         DG    S(hbond)    S(metal)    S(lipo)     H(rot)  DE(clash)    DE(int)     intcor
      8.93     -15.62       1.46        0.00      80.03       1.60       3.88       2.82       ----

> <Gold.Chemscore.Fitness>
8.9305

> <Gold.Chemscore.DG>
-15.6233

> <Gold.Chemscore.ZeroCoef>
-5.4800

> <Gold.Chemscore.Hbond>
1.4631

> <Gold.Chemscore.Metal>
0.0000

> <Gold.Chemscore.Lipo>
80.0334

> <Gold.Chemscore.Internal_Hbond>
0.0000

> <Gold.Chemscore.DEClash>
3.8758

> <Gold.Chemscore.DEInternal>
2.8170

> <Gold.Chemscore.Rot>
1.6045

> <Gold.Chemscore.Internal.Correction>
   9.000000E+99

> <Gold.Chemscore.Hbonds>
donor molecule, donor type, donor heavy atom, donor atom, acceptor molecule, acceptor atom, score
      L1  H    16    47       P1 10186  0.49
      P1  H  7989  7998       L1     5  0.05
      P1  H  7997  8010       L1     2  0.70

> <Gold.Chemscore.Hbond.Weighted>
-4.8869

> <Gold.Chemscore.Metal.Weighted>
-0.0000

> <Gold.Chemscore.Lipo.Weighted>
-9.3639

> <Gold.Chemscore.Internal_Hbond.Weighted>
0.0000

> <Gold.Chemscore.DEClash.Weighted>
3.8758

> <Gold.Chemscore.DEInternal.Weighted>
2.8170

> <Gold.Chemscore.Rot.Weighted>
4.1075

> <Gold.Chemscore.Internal.Correction.Weighted>
   9.000000E+99

> <Gold.Protein.RotatedTorsions>
[ 6907 6896 6895 6894 ] final  -55.09 input  -60.11 | X-H torsion
[ 7974 7965 7964 7962 ] final   39.09 input  175.53 | X-H torsion
[ 8008 7997 7996 7995 ] final   56.42 input   59.86 | X-H torsion
[ 10167 10162 10161 10158 ] final  -40.90 input  -65.29 | X-H torsion
[ 10718 10713 10712 10709 ] final   64.22 input   66.30 | X-H torsion
[ 10763 10752 10751 10750 ] final  -16.12 input  -60.55 | X-H torsion
[ 11005 11000 10999 10996 ] final  -75.96 input  -57.11 | X-H torsion

> <Gold.Protein.ActiveResidues>
 VAL166  LYS551  ARG553  GLY616  TRP617  ASP618  TYR619  PRO620  LYS621  CYS622 
 ASP623  PHE694  ASN695  SER759  ASP760  ASP761  ALA762  ILE779  LEU786  VAL792 
 PHE793  MET794  SER795  GLU796  ALA797  LYS798  CYS799  TRP800  GLU811  SER814 

> <Gold.Protein.RotatedAtoms>
  150.8282  134.7523  159.6830 H   0  0  0  0  0  0  0  0  0  0  0  0  # atno 6907 bound_to 6896
  152.4390  134.5626  159.9908 H   0  0  0  0  0  0  0  0  0  0  0  0  # atno 6908 bound_to 6896
  151.5793  133.3342  159.3041 H   0  0  0  0  0  0  0  0  0  0  0  0  # atno 6909 bound_to 6896
  146.1011  139.5693  142.9413 H   0  0  0  0  0  0  0  0  0  0  0  0  # atno 7974 bound_to 7965
  155.5171  140.3478  155.4399 H   0  0  0  0  0  0  0  0  0  0  0  0  # atno 8008 bound_to 7997
  156.0810  140.1386  156.9740 H   0  0  0  0  0  0  0  0  0  0  0  0  # atno 8009 bound_to 7997
  154.4579  140.0946  156.6787 H   0  0  0  0  0  0  0  0  0  0  0  0  # atno 8010 bound_to 7997
  140.7020  143.3126  151.2990 H   0  0  0  0  0  0  0  0  0  0  0  0  # atno 10167 bound_to 10162
  157.6024  130.9148  149.9817 H   0  0  0  0  0  0  0  0  0  0  0  0  # atno 10718 bound_to 10713
  153.5537  135.7011  153.5579 H   0  0  0  0  0  0  0  0  0  0  0  0  # atno 10763 bound_to 10752
  153.3492  135.4000  155.1633 H   0  0  0  0  0  0  0  0  0  0  0  0  # atno 10764 bound_to 10752
  154.8658  135.3761  154.5050 H   0  0  0  0  0  0  0  0  0  0  0  0  # atno 10765 bound_to 10752
  141.1650  133.6966  156.7596 H   0  0  0  0  0  0  0  0  0  0  0  0  # atno 11005 bound_to 11000
  145.5852  141.0377  143.2100 LP  0  0  0  0  0  0  0  0  0  0  0  0  # atno 17320 bound_to 7965
  144.7434  139.7387  143.7302 LP  0  0  0  0  0  0  0  0  0  0  0  0  # atno 17321 bound_to 7965
  139.6554  144.0286  152.2656 LP  0  0  0  0  0  0  0  0  0  0  0  0  # atno 17342 bound_to 10162
  139.9836  144.6411  150.7878 LP  0  0  0  0  0  0  0  0  0  0  0  0  # atno 17343 bound_to 10162
  156.1101  130.3650  150.0064 LP  0  0  0  0  0  0  0  0  0  0  0  0  # atno 17370 bound_to 10713
  156.8163  130.9343  151.3642 LP  0  0  0  0  0  0  0  0  0  0  0  0  # atno 17371 bound_to 10713
  140.2543  134.8516  157.3698 LP  0  0  0  0  0  0  0  0  0  0  0  0  # atno 17394 bound_to 11000
  140.1672  134.4654  155.7855 LP  0  0  0  0  0  0  0  0  0  0  0  0  # atno 17395 bound_to 11000

$$$$
