AV-unprocessed.smi:1557|AV-procd|sdf|6271|dock2
  -GOLD-   22720 6463D 1   1.00000     0.00000
 Structure written by MMmdl.
 41 42  0  0  0  0  0  0  0  0  1 V2000
  151.8581  138.5739  155.7940 C   0  0  0  0  0  0  0  0  0  0  0  0
  151.7467  138.2666  154.2988 C   0  0  0  0  0  0  0  0  0  0  0  0
  150.3689  138.1324  153.9646 O   0  0  0  0  0  0  0  0  0  0  0  0
  149.5350  139.2226  154.1268 C   0  0  0  0  0  0  0  0  0  0  0  0
  150.0509  140.3529  154.6716 N   0  0  0  0  0  0  0  0  0  0  0  0
  149.2395  141.4178  154.8303 C   0  0  0  0  0  0  0  0  0  0  0  0
  147.8834  141.4136  154.4580 C   0  0  0  0  0  0  0  0  0  0  0  0
  147.3453  140.2425  153.8930 C   0  0  0  0  0  0  0  0  0  0  0  0
  148.1843  139.1136  153.7191 C   0  0  0  0  0  0  0  0  0  0  0  0
  147.7642  137.8711  153.1629 N   0  0  0  0  0  0  0  0  0  0  0  0
  146.5404  137.3176  153.1102 C   0  0  0  0  0  0  0  0  0  0  0  0
  145.5054  137.8154  153.5514 O   0  0  0  0  0  0  0  0  0  0  0  0
  146.5815  136.1251  152.4983 N   0  0  0  0  0  0  0  0  0  0  0  0
  145.4398  135.2350  152.2800 C   0  0  1  0  0  0  0  0  0  0  0  0
  145.6807  134.3588  151.0302 C   0  0  0  0  0  0  0  0  0  0  0  0
  144.3938  133.8082  150.3950 C   0  0  0  0  0  0  0  0  0  0  0  0
  143.5852  132.8596  151.2924 C   0  0  0  0  0  0  0  0  0  0  0  0
  143.0046  133.5384  152.5448 C   0  0  0  0  0  0  0  0  0  0  0  0
  143.9938  133.7033  153.6026 N   0  0  0  0  0  0  0  0  0  0  0  0
  145.1155  134.4383  153.5581 C   0  0  0  0  0  0  0  0  0  0  0  0
  145.8794  134.4698  154.5227 O   0  0  0  0  0  0  0  0  0  0  0  0
  152.9004  138.6902  156.0913 H   0  0  0  0  0  0  0  0  0  0  0  0
  151.4266  137.7707  156.3918 H   0  0  0  0  0  0  0  0  0  0  0  0
  151.3339  139.4966  156.0435 H   0  0  0  0  0  0  0  0  0  0  0  0
  152.2011  139.0753  153.7244 H   0  0  0  0  0  0  0  0  0  0  0  0
  152.2861  137.3453  154.0730 H   0  0  0  0  0  0  0  0  0  0  0  0
  149.6843  142.2995  155.2672 H   0  0  0  0  0  0  0  0  0  0  0  0
  147.2687  142.2897  154.6032 H   0  0  0  0  0  0  0  0  0  0  0  0
  146.3053  140.2461  153.6112 H   0  0  0  0  0  0  0  0  0  0  0  0
  148.5053  137.3259  152.7464 H   0  0  0  0  0  0  0  0  0  0  0  0
  147.4765  135.7900  152.1726 H   0  0  0  0  0  0  0  0  0  0  0  0
  144.5737  135.8727  152.0928 H   0  0  0  0  0  0  0  0  0  0  0  0
  146.1908  134.9465  150.2657 H   0  0  0  0  0  0  0  0  0  0  0  0
  146.3597  133.5397  151.2716 H   0  0  0  0  0  0  0  0  0  0  0  0
  143.7608  134.6384  150.0792 H   0  0  0  0  0  0  0  0  0  0  0  0
  144.6609  133.2761  149.4816 H   0  0  0  0  0  0  0  0  0  0  0  0
  142.7572  132.4655  150.7025 H   0  0  0  0  0  0  0  0  0  0  0  0
  144.1885  131.9951  151.5734 H   0  0  0  0  0  0  0  0  0  0  0  0
  142.5464  134.4971  152.2982 H   0  0  0  0  0  0  0  0  0  0  0  0
  142.2078  132.9148  152.9503 H   0  0  0  0  0  0  0  0  0  0  0  0
  143.8142  133.1977  154.4582 H   0  0  0  0  0  0  0  0  0  0  0  0
  1  2  1  0  0  0  0
  1 22  1  0  0  0  0
  1 23  1  0  0  0  0
  1 24  1  0  0  0  0
  2  3  1  0  0  0  0
  2 25  1  0  0  0  0
  2 26  1  0  0  0  0
  3  4  1  0  0  0  0
  4  9  1  0  0  0  0
  4  5  2  0  0  0  0
  5  6  1  0  0  0  0
  6  7  2  0  0  0  0
  6 27  1  0  0  0  0
  7  8  1  0  0  0  0
  7 28  1  0  0  0  0
  8  9  2  0  0  0  0
  8 29  1  0  0  0  0
  9 10  1  0  0  0  0
 10 11  1  0  0  0  0
 10 30  1  0  0  0  0
 11 12  2  0  0  0  0
 11 13  1  0  0  0  0
 13 14  1  0  0  0  0
 13 31  1  0  0  0  0
 14 20  1  0  0  0  0
 14 15  1  0  0  0  0
 14 32  1  0  0  0  0
 15 16  1  0  0  0  0
 15 33  1  0  0  0  0
 15 34  1  0  0  0  0
 16 17  1  0  0  0  0
 16 35  1  0  0  0  0
 16 36  1  0  0  0  0
 17 18  1  0  0  0  0
 17 37  1  0  0  0  0
 17 38  1  0  0  0  0
 18 19  1  0  0  0  0
 18 39  1  0  0  0  0
 18 40  1  0  0  0  0
 19 20  1  0  0  0  0
 19 41  1  0  0  0  0
 20 21  2  0  0  0  0
M  END
> <s_m_source_file>
AV-unprocessed.smi

> <i_m_source_file_index>
1557

> <i_lp_mmshare_version>
43012

> <i_f3d_flags>
0

> <s_epik_input>
W0NIM11bQ0gyXU9jMW5bY0hdW2NIXVtjSF1jMVtOSF1DKD1PKVtOSF1bQ0BASF0yW0NIMl1bQ0gyXVtDSDJdW0NIMl1bTkhdQzI9Tw==

> <s_epik_cmdline>
J2VwaWtfcHl0aG9uJywgJy1waCcsICc3LjAnLCAnLXRuJywgJzgnLCAnLW1hJywgJzIwMCcsICctbWV0YWxfYmluZGluZycsICctaW1hZScsICc8aW5maWxlLm1hZT4nLCAnLW9tYWUnLCAnPG91dGZpbGUubWFlPic=

> <r_lp_tautomer_probability>
1

> <r_epik_Ionization_Penalty>
0.000101084

> <r_epik_Ionization_Penalty_Charging>
0

> <r_epik_Ionization_Penalty_Neutral>
0.000101084

> <r_epik_State_Penalty>
-0

> <r_epik_Charging_Adjusted_Penalty>
0

> <i_epik_Tot_Q>
0

> <i_epik_Tot_abs_Q>
0

> <r_epik_Metal_State_Penalty>
-0

> <b_epik_Metal_Only>
0

> <s_lp_Force_Field>
OPLS_2005

> <r_lp_Energy>
12.8757

> <b_lp_Chiralities_Consistent>
1

> <s_lp_Variant>
AV-unprocessed.smi:1557-2

> <Gold.Version>
5.8.1

> <Gold.Id.Protein>
6NUR|6NUR_protein|mol2

> <Gold.PLP.Fitness>
44.4685

> <Gold.PLP.PLP>
-31.8203

> <Gold.PLP.part.hbond>
-3.8786

> <Gold.PLP.part.metal>
0.0000

> <Gold.PLP.part.buried>
0.6769

> <Gold.PLP.part.nonpolar>
-29.3198

> <Gold.PLP.part.repulsive>
1.1119

> <Gold.PLP.ligand.clash>
0.0000

> <Gold.PLP.ligand.torsion>
0.4733

> <Gold.PLP.Chemscore.Hbond>
3.5218

> <Gold.PLP.Chemscore.CHOScore>
1.0000

> <Gold.PLP.Chemscore.Metal>
0.0000

> <Gold.Chemscore.Hbonds>
donor molecule, donor type, donor heavy atom, donor atom, acceptor molecule, acceptor atom, score
      L1  H    10    30       P1  7948  0.83
      L1  H    13    31       P1  7948  0.90
      L1  H    19    41       P1 10957  0.61
      P1  H  7989  7998       L1     5  0.98
      L1  C     6    27       P1  8028  0.89

> <Gold.PLP.Chemscore.Internal.Correction>
0.0292

> <Gold.Rescore>
     Score         DG    S(hbond)    S(metal)    S(lipo)     H(rot)  DE(clash)    DE(int)     intcor
     17.80     -19.33       2.80        0.00      71.27       1.49       0.28       1.25       ----

> <Gold.Chemscore.Fitness>
17.8047

> <Gold.Chemscore.DG>
-19.3276

> <Gold.Chemscore.ZeroCoef>
-5.4800

> <Gold.Chemscore.Hbond>
2.7950

> <Gold.Chemscore.Metal>
0.0000

> <Gold.Chemscore.Lipo>
71.2743

> <Gold.Chemscore.Internal_Hbond>
0.0000

> <Gold.Chemscore.DEClash>
0.2776

> <Gold.Chemscore.DEInternal>
1.2453

> <Gold.Chemscore.Rot>
1.4948

> <Gold.Chemscore.Internal.Correction>
   9.000000E+99

> <Gold.Chemscore.Hbonds>
donor molecule, donor type, donor heavy atom, donor atom, acceptor molecule, acceptor atom, score
      L1  H    10    30       P1  7948  0.78
      L1  H    13    31       P1  7948  0.84
      L1  H    19    41       P1 10957  0.60
      P1  H  7989  7998       L1     5  0.34

> <Gold.Chemscore.Hbond.Weighted>
-9.3353

> <Gold.Chemscore.Metal.Weighted>
-0.0000

> <Gold.Chemscore.Lipo.Weighted>
-8.3391

> <Gold.Chemscore.Internal_Hbond.Weighted>
0.0000

> <Gold.Chemscore.DEClash.Weighted>
0.2776

> <Gold.Chemscore.DEInternal.Weighted>
1.2453

> <Gold.Chemscore.Rot.Weighted>
3.8268

> <Gold.Chemscore.Internal.Correction.Weighted>
   9.000000E+99

> <Gold.Protein.RotatedTorsions>
[ 6907 6896 6895 6894 ] final   56.81 input  -60.11 | X-H torsion
[ 7974 7965 7964 7962 ] final   64.61 input  175.53 | X-H torsion
[ 8008 7997 7996 7995 ] final  126.61 input   59.86 | X-H torsion
[ 10167 10162 10161 10158 ] final  -35.07 input  -65.29 | X-H torsion
[ 10718 10713 10712 10709 ] final -147.73 input   66.30 | X-H torsion
[ 10763 10752 10751 10750 ] final  107.77 input  -60.55 | X-H torsion
[ 11005 11000 10999 10996 ] final  -42.34 input  -57.11 | X-H torsion

> <Gold.Protein.ActiveResidues>
 VAL166  LYS551  ARG553  GLY616  TRP617  ASP618  TYR619  PRO620  LYS621  CYS622 
 ASP623  PHE694  ASN695  SER759  ASP760  ASP761  ALA762  ILE779  LEU786  VAL792 
 PHE793  MET794  SER795  GLU796  ALA797  LYS798  CYS799  TRP800  GLU811  SER814 

> <Gold.Protein.RotatedAtoms>
  152.3671  134.6788  160.0188 H   0  0  0  0  0  0  0  0  0  0  0  0  # atno 6907 bound_to 6896
  151.7092  133.3306  159.3294 H   0  0  0  0  0  0  0  0  0  0  0  0  # atno 6908 bound_to 6896
  150.7646  134.6481  159.6318 H   0  0  0  0  0  0  0  0  0  0  0  0  # atno 6909 bound_to 6896
  145.8481  139.3237  143.0891 H   0  0  0  0  0  0  0  0  0  0  0  0  # atno 7974 bound_to 7965
  156.2869  140.2688  156.2139 H   0  0  0  0  0  0  0  0  0  0  0  0  # atno 8008 bound_to 7997
  155.0236  140.0386  157.2465 H   0  0  0  0  0  0  0  0  0  0  0  0  # atno 8009 bound_to 7997
  154.7414  140.2726  155.6375 H   0  0  0  0  0  0  0  0  0  0  0  0  # atno 8010 bound_to 7997
  140.7173  143.3503  151.2170 H   0  0  0  0  0  0  0  0  0  0  0  0  # atno 10167 bound_to 10162
  156.4112  130.7982  151.2200 H   0  0  0  0  0  0  0  0  0  0  0  0  # atno 10718 bound_to 10713
  153.4114  135.3833  155.2052 H   0  0  0  0  0  0  0  0  0  0  0  0  # atno 10763 bound_to 10752
  154.8738  135.3795  154.4496 H   0  0  0  0  0  0  0  0  0  0  0  0  # atno 10764 bound_to 10752
  153.5005  135.7088  153.5896 H   0  0  0  0  0  0  0  0  0  0  0  0  # atno 10765 bound_to 10752
  141.0309  133.6820  156.2581 H   0  0  0  0  0  0  0  0  0  0  0  0  # atno 11005 bound_to 11000
  145.9388  140.8994  143.0318 LP  0  0  0  0  0  0  0  0  0  0  0  0  # atno 17320 bound_to 7965
  144.6730  140.1520  143.7429 LP  0  0  0  0  0  0  0  0  0  0  0  0  # atno 17321 bound_to 7965
  139.7032  143.9498  152.2915 LP  0  0  0  0  0  0  0  0  0  0  0  0  # atno 17342 bound_to 10162
  139.9199  144.6806  150.8473 LP  0  0  0  0  0  0  0  0  0  0  0  0  # atno 17343 bound_to 10162
  157.7507  131.0257  150.3930 LP  0  0  0  0  0  0  0  0  0  0  0  0  # atno 17370 bound_to 10713
  156.4229  130.3956  149.6813 LP  0  0  0  0  0  0  0  0  0  0  0  0  # atno 17371 bound_to 10713
  140.6409  134.5167  157.5569 LP  0  0  0  0  0  0  0  0  0  0  0  0  # atno 17394 bound_to 11000
  139.9207  134.8155  156.1221 LP  0  0  0  0  0  0  0  0  0  0  0  0  # atno 17395 bound_to 11000

$$$$
