AV-unprocessed.smi:3189|AV-procd|sdf|12189|dock2
  -GOLD-   2272018 33D 1   1.00000     0.00000
 Structure written by MMmdl.
 30 31  0  0  0  0  0  0  0  0  1 V2000
  151.7736  145.8731  160.1676 C   0  0  0  0  0  0  0  0  0  0  0  0
  152.0416  144.3804  160.2161 C   0  0  0  0  0  0  0  0  0  0  0  0
  152.5849  143.9207  161.3644 N   0  0  0  0  0  0  0  0  0  0  0  0
  152.8374  142.5995  161.4628 C   0  0  0  0  0  0  0  0  0  0  0  0
  152.5699  141.6805  160.4302 C   0  0  0  0  0  0  0  0  0  0  0  0
  152.0157  142.1612  159.2200 C   0  0  0  0  0  0  0  0  0  0  0  0
  151.6864  141.3196  158.1221 N   0  0  0  0  0  0  0  0  0  0  0  0
  152.3088  140.2039  157.6938 C   0  0  0  0  0  0  0  0  0  0  0  0
  153.3343  139.7399  158.1880 O   0  0  0  0  0  0  0  0  0  0  0  0
  151.7524  139.6524  156.6011 N   0  0  0  0  0  0  0  0  0  0  0  0
  152.1772  138.4719  155.9097 C   0  0  2  0  0  0  0  0  0  0  0  0
  152.7859  138.6596  154.5373 C   0  0  0  0  0  0  0  0  0  0  0  0
  151.4266  138.0233  154.6702 C   0  0  2  0  0  0  0  0  0  0  0  0
  150.1827  138.7394  154.1817 C   0  0  0  0  0  0  0  0  0  0  0  0
  151.7333  143.5436  159.1179 C   0  0  0  0  0  0  0  0  0  0  0  0
  151.0322  144.1993  157.6758 Cl  0  0  0  0  0  0  0  0  0  0  0  0
  152.3345  146.3321  159.3532 H   0  0  0  0  0  0  0  0  0  0  0  0
  152.0657  146.3640  161.0970 H   0  0  0  0  0  0  0  0  0  0  0  0
  150.7120  146.0628  160.0057 H   0  0  0  0  0  0  0  0  0  0  0  0
  153.2598  142.2619  162.3976 H   0  0  0  0  0  0  0  0  0  0  0  0
  152.7810  140.6346  160.5901 H   0  0  0  0  0  0  0  0  0  0  0  0
  150.9214  141.6431  157.5481 H   0  0  0  0  0  0  0  0  0  0  0  0
  151.0104  140.1764  156.1597 H   0  0  0  0  0  0  0  0  0  0  0  0
  152.6406  137.6891  156.5088 H   0  0  0  0  0  0  0  0  0  0  0  0
  152.8349  139.6706  154.1362 H   0  0  0  0  0  0  0  0  0  0  0  0
  153.6168  138.0126  154.2635 H   0  0  0  0  0  0  0  0  0  0  0  0
  151.3871  136.9464  154.5182 H   0  0  0  0  0  0  0  0  0  0  0  0
  150.2919  139.8211  154.2658 H   0  0  0  0  0  0  0  0  0  0  0  0
  149.3188  138.4295  154.7699 H   0  0  0  0  0  0  0  0  0  0  0  0
  149.9977  138.4936  153.1360 H   0  0  0  0  0  0  0  0  0  0  0  0
  1  2  1  0  0  0  0
  1 17  1  0  0  0  0
  1 18  1  0  0  0  0
  1 19  1  0  0  0  0
  2 15  1  0  0  0  0
  2  3  2  0  0  0  0
  3  4  1  0  0  0  0
  4  5  2  0  0  0  0
  4 20  1  0  0  0  0
  5  6  1  0  0  0  0
  5 21  1  0  0  0  0
  6  7  1  0  0  0  0
  6 15  2  0  0  0  0
  7  8  1  0  0  0  0
  7 22  1  0  0  0  0
  8  9  2  0  0  0  0
  8 10  1  0  0  0  0
 10 11  1  0  0  0  0
 10 23  1  0  0  0  0
 11 13  1  0  0  0  0
 11 12  1  0  0  0  0
 11 24  1  0  0  0  0
 12 13  1  0  0  0  0
 12 25  1  0  0  0  0
 12 26  1  0  0  0  0
 13 14  1  0  0  0  0
 13 27  1  0  0  0  0
 14 28  1  0  0  0  0
 14 29  1  0  0  0  0
 14 30  1  0  0  0  0
 15 16  1  0  0  0  0
M  END
> <s_m_source_file>
AV-unprocessed.smi

> <i_m_source_file_index>
3189

> <i_lp_mmshare_version>
43012

> <i_f3d_flags>
0

> <s_epik_input>
W0NIM11jMW5bY0hdW2NIXWMoYzFDbClbTkhdQyg9TylbTkhdW0NAQEhdMltDSDJdW0NASF0yW0NIM10=

> <s_epik_cmdline>
J2VwaWtfcHl0aG9uJywgJy1waCcsICc3LjAnLCAnLXRuJywgJzgnLCAnLW1hJywgJzIwMCcsICctbWV0YWxfYmluZGluZycsICctaW1hZScsICc8aW5maWxlLm1hZT4nLCAnLW9tYWUnLCAnPG91dGZpbGUubWFlPic=

> <r_epik_Ionization_Penalty>
0.00994309

> <r_epik_Ionization_Penalty_Charging>
0

> <r_epik_Ionization_Penalty_Neutral>
0.00994309

> <r_epik_State_Penalty>
0.00754503

> <r_epik_Charging_Adjusted_Penalty>
0.00754503

> <i_epik_Tot_Q>
0

> <i_epik_Tot_abs_Q>
0

> <r_epik_Metal_State_Penalty>
0.00742071

> <b_epik_Metal_Only>
0

> <s_lp_Force_Field>
OPLS_2005

> <r_lp_Energy>
34.6575

> <b_lp_Chiralities_Consistent>
1

> <s_lp_Variant>
AV-unprocessed.smi:3189-3

> <Gold.Version>
5.8.1

> <Gold.Id.Protein>
6NUR|6NUR_protein|mol2

> <Gold.PLP.Fitness>
39.1202

> <Gold.PLP.PLP>
-36.6235

> <Gold.PLP.part.hbond>
-1.0000

> <Gold.PLP.part.metal>
0.0000

> <Gold.PLP.part.buried>
-0.5436

> <Gold.PLP.part.nonpolar>
-34.8628

> <Gold.PLP.part.repulsive>
0.3135

> <Gold.PLP.ligand.clash>
0.0000

> <Gold.PLP.ligand.torsion>
0.2711

> <Gold.PLP.Chemscore.Hbond>
1.0000

> <Gold.PLP.Chemscore.CHOScore>
0.0000

> <Gold.PLP.Chemscore.Metal>
0.0000

> <Gold.Chemscore.Hbonds>
donor molecule, donor type, donor heavy atom, donor atom, acceptor molecule, acceptor atom, score
      P1  H  7997  8009       L1     9  1.00

> <Gold.PLP.Chemscore.Internal.Correction>
0.0388

> <Gold.Rescore>
     Score         DG    S(hbond)    S(metal)    S(lipo)     H(rot)  DE(clash)    DE(int)     intcor
     16.83     -18.40       0.87        0.00     107.47       1.00       0.41       1.16       ----

> <Gold.Chemscore.Fitness>
16.8304

> <Gold.Chemscore.DG>
-18.3958

> <Gold.Chemscore.ZeroCoef>
-5.4800

> <Gold.Chemscore.Hbond>
0.8688

> <Gold.Chemscore.Metal>
0.0000

> <Gold.Chemscore.Lipo>
107.4706

> <Gold.Chemscore.Internal_Hbond>
0.0000

> <Gold.Chemscore.DEClash>
0.4081

> <Gold.Chemscore.DEInternal>
1.1573

> <Gold.Chemscore.Rot>
1.0000

> <Gold.Chemscore.Internal.Correction>
   9.000000E+99

> <Gold.Chemscore.Hbonds>
donor molecule, donor type, donor heavy atom, donor atom, acceptor molecule, acceptor atom, score
      P1  H  7997  8009       L1     9  0.39

> <Gold.Chemscore.Hbond.Weighted>
-2.9017

> <Gold.Chemscore.Metal.Weighted>
-0.0000

> <Gold.Chemscore.Lipo.Weighted>
-12.5741

> <Gold.Chemscore.Internal_Hbond.Weighted>
0.0000

> <Gold.Chemscore.DEClash.Weighted>
0.4081

> <Gold.Chemscore.DEInternal.Weighted>
1.1573

> <Gold.Chemscore.Rot.Weighted>
2.5600

> <Gold.Chemscore.Internal.Correction.Weighted>
   9.000000E+99

> <Gold.Protein.RotatedTorsions>
[ 6907 6896 6895 6894 ] final   89.82 input  -60.11 | X-H torsion
[ 7974 7965 7964 7962 ] final  -23.25 input  175.53 | X-H torsion
[ 8008 7997 7996 7995 ] final  160.31 input   59.86 | X-H torsion
[ 10167 10162 10161 10158 ] final -161.42 input  -65.29 | X-H torsion
[ 10718 10713 10712 10709 ] final -173.22 input   66.30 | X-H torsion
[ 10763 10752 10751 10750 ] final   15.01 input  -60.55 | X-H torsion
[ 11005 11000 10999 10996 ] final -179.78 input  -57.11 | X-H torsion

> <Gold.Protein.ActiveResidues>
 VAL166  LYS551  ARG553  GLY616  TRP617  ASP618  TYR619  PRO620  LYS621  CYS622 
 ASP623  PHE694  ASN695  SER759  ASP760  ASP761  ALA762  ILE779  LEU786  VAL792 
 PHE793  MET794  SER795  GLU796  ALA797  LYS798  CYS799  TRP800  GLU811  SER814 

> <Gold.Protein.RotatedAtoms>
  152.5439  134.1907  159.8672 H   0  0  0  0  0  0  0  0  0  0  0  0  # atno 6907 bound_to 6896
  151.1902  133.4665  159.2602 H   0  0  0  0  0  0  0  0  0  0  0  0  # atno 6908 bound_to 6896
  151.1090  135.0028  159.8540 H   0  0  0  0  0  0  0  0  0  0  0  0  # atno 6909 bound_to 6896
  146.1627  140.4591  142.8565 H   0  0  0  0  0  0  0  0  0  0  0  0  # atno 7974 bound_to 7965
  156.2181  140.1807  156.7542 H   0  0  0  0  0  0  0  0  0  0  0  0  # atno 8008 bound_to 7997
  154.5822  140.0664  156.9149 H   0  0  0  0  0  0  0  0  0  0  0  0  # atno 8009 bound_to 7997
  155.2482  140.3327  155.4287 H   0  0  0  0  0  0  0  0  0  0  0  0  # atno 8010 bound_to 7997
  139.6467  144.0160  152.2132 H   0  0  0  0  0  0  0  0  0  0  0  0  # atno 10167 bound_to 10162
  156.7672  130.9435  151.3119 H   0  0  0  0  0  0  0  0  0  0  0  0  # atno 10718 bound_to 10713
  153.1566  135.6788  153.8803 H   0  0  0  0  0  0  0  0  0  0  0  0  # atno 10763 bound_to 10752
  153.8212  135.3130  155.3411 H   0  0  0  0  0  0  0  0  0  0  0  0  # atno 10764 bound_to 10752
  154.7902  135.4839  154.0123 H   0  0  0  0  0  0  0  0  0  0  0  0  # atno 10765 bound_to 10752
  140.4148  134.6659  157.4633 H   0  0  0  0  0  0  0  0  0  0  0  0  # atno 11005 bound_to 11000
  144.8049  140.6281  143.6453 LP  0  0  0  0  0  0  0  0  0  0  0  0  # atno 17320 bound_to 7965
  145.4547  139.1519  143.3899 LP  0  0  0  0  0  0  0  0  0  0  0  0  # atno 17321 bound_to 7965
  139.9863  144.6393  150.7854 LP  0  0  0  0  0  0  0  0  0  0  0  0  # atno 17342 bound_to 10162
  140.7518  143.2978  151.3158 LP  0  0  0  0  0  0  0  0  0  0  0  0  # atno 17343 bound_to 10162
  157.6708  130.9049  150.0035 LP  0  0  0  0  0  0  0  0  0  0  0  0  # atno 17370 bound_to 10713
  156.1301  130.3643  149.9745 LP  0  0  0  0  0  0  0  0  0  0  0  0  # atno 17371 bound_to 10713
  140.0242  134.6502  155.9197 LP  0  0  0  0  0  0  0  0  0  0  0  0  # atno 17394 bound_to 11000
  141.1807  133.6546  156.5009 LP  0  0  0  0  0  0  0  0  0  0  0  0  # atno 17395 bound_to 11000

$$$$
