AV-unprocessed.smi:2896|AV-procd|sdf|11136|dock6
  -GOLD-   2272016 13D 1   1.00000     0.00000
 Structure written by MMmdl.
 50 51  0  0  0  0  0  0  0  0  2 V2000
  149.5941  133.4078  154.5641 C   0  0  0  0  0  0  0  0  0  0  0  0
  148.7828  134.7124  154.6570 C   0  0  2  0  0  0  0  0  0  0  0  0
  149.0577  135.3978  156.0140 C   0  0  0  0  0  0  0  0  0  0  0  0
  148.0594  135.0641  157.0265 N   0  0  0  0  0  0  0  0  0  0  0  0
  148.2614  134.2862  158.1046 C   0  0  0  0  0  0  0  0  0  0  0  0
  149.3500  133.7574  158.3351 O   0  0  0  0  0  0  0  0  0  0  0  0
  147.0787  134.0725  159.0837 C   0  0  0  0  0  0  0  0  0  0  0  0
  145.7327  134.5719  158.4977 C   0  0  0  0  0  0  0  0  0  0  0  0
  146.9222  132.5491  159.3218 C   0  0  0  0  0  0  0  0  0  0  0  0
  147.4022  134.8515  160.3732 C   0  0  0  0  0  0  0  0  0  0  0  0
  147.3843  134.1975  161.6292 C   0  0  0  0  0  0  0  0  0  0  0  0
  147.6816  134.9234  162.7975 C   0  0  0  0  0  0  0  0  0  0  0  0
  147.9891  136.2906  162.6743 C   0  0  0  0  0  0  0  0  0  0  0  0
  148.0120  136.9369  161.4912 N   0  0  0  0  0  0  0  0  0  0  0  0
  147.7249  136.2323  160.3755 C   0  0  0  0  0  0  0  0  0  0  0  0
  147.2736  134.4518  154.4263 C   0  0  0  0  0  0  0  0  0  0  0  0
  146.8861  134.4452  152.9923 N   0  3  0  0  0  0  0  0  0  0  0  0
  147.0331  133.1042  152.3774 C   0  0  0  0  0  0  0  0  0  0  0  0
  146.6737  133.1524  150.8829 C   0  0  0  0  0  0  0  0  0  0  0  0
  145.3497  133.6470  150.7275 O   0  0  0  0  0  0  0  0  0  0  0  0
  145.2146  134.9697  151.2317 C   0  0  0  0  0  0  0  0  0  0  0  0
  145.5269  134.9848  152.7380 C   0  0  0  0  0  0  0  0  0  0  0  0
  149.2650  132.6827  155.3092 H   0  0  0  0  0  0  0  0  0  0  0  0
  150.6558  133.5932  154.7293 H   0  0  0  0  0  0  0  0  0  0  0  0
  149.4998  132.9434  153.5825 H   0  0  0  0  0  0  0  0  0  0  0  0
  149.1504  135.3856  153.8828 H   0  0  0  0  0  0  0  0  0  0  0  0
  150.0651  135.1639  156.3630 H   0  0  0  0  0  0  0  0  0  0  0  0
  149.0296  136.4807  155.8889 H   0  0  0  0  0  0  0  0  0  0  0  0
  147.1424  135.4707  156.9094 H   0  0  0  0  0  0  0  0  0  0  0  0
  145.7366  135.6381  158.2693 H   0  0  0  0  0  0  0  0  0  0  0  0
  144.9176  134.4039  159.2024 H   0  0  0  0  0  0  0  0  0  0  0  0
  145.4760  134.0437  157.5781 H   0  0  0  0  0  0  0  0  0  0  0  0
  147.8245  132.0929  159.7317 H   0  0  0  0  0  0  0  0  0  0  0  0
  146.6976  132.0253  158.3915 H   0  0  0  0  0  0  0  0  0  0  0  0
  146.1046  132.3359  160.0114 H   0  0  0  0  0  0  0  0  0  0  0  0
  147.1410  133.1482  161.7048 H   0  0  0  0  0  0  0  0  0  0  0  0
  147.6731  134.4433  163.7648 H   0  0  0  0  0  0  0  0  0  0  0  0
  148.2226  136.8802  163.5484 H   0  0  0  0  0  0  0  0  0  0  0  0
  147.7619  136.8119  159.4663 H   0  0  0  0  0  0  0  0  0  0  0  0
  147.0222  133.4883  154.8726 H   0  0  0  0  0  0  0  0  0  0  0  0
  146.6612  135.1932  154.9398 H   0  0  0  0  0  0  0  0  0  0  0  0
  148.0587  132.7524  152.4951 H   0  0  0  0  0  0  0  0  0  0  0  0
  146.3877  132.3918  152.8941 H   0  0  0  0  0  0  0  0  0  0  0  0
  147.3770  133.7792  150.3319 H   0  0  0  0  0  0  0  0  0  0  0  0
  146.7308  132.1533  150.4503 H   0  0  0  0  0  0  0  0  0  0  0  0
  145.8754  135.6485  150.6898 H   0  0  0  0  0  0  0  0  0  0  0  0
  144.1944  135.3118  151.0563 H   0  0  0  0  0  0  0  0  0  0  0  0
  144.7886  134.3885  153.2766 H   0  0  0  0  0  0  0  0  0  0  0  0
  145.4443  136.0059  153.1079 H   0  0  0  0  0  0  0  0  0  0  0  0
  147.5397  135.0483  152.5134 H   0  0  0  0  0  0  0  0  0  0  0  0
  1  2  1  0  0  0  0
  1 23  1  0  0  0  0
  1 24  1  0  0  0  0
  1 25  1  0  0  0  0
  2  3  1  0  0  0  0
  2 16  1  0  0  0  0
  2 26  1  0  0  0  0
  3  4  1  0  0  0  0
  3 27  1  0  0  0  0
  3 28  1  0  0  0  0
  4  5  1  0  0  0  0
  4 29  1  0  0  0  0
  5  6  2  0  0  0  0
  5  7  1  0  0  0  0
  7  8  1  0  0  0  0
  7  9  1  0  0  0  0
  7 10  1  0  0  0  0
  8 30  1  0  0  0  0
  8 31  1  0  0  0  0
  8 32  1  0  0  0  0
  9 33  1  0  0  0  0
  9 34  1  0  0  0  0
  9 35  1  0  0  0  0
 10 15  1  0  0  0  0
 10 11  2  0  0  0  0
 11 12  1  0  0  0  0
 11 36  1  0  0  0  0
 12 13  2  0  0  0  0
 12 37  1  0  0  0  0
 13 14  1  0  0  0  0
 13 38  1  0  0  0  0
 14 15  2  0  0  0  0
 15 39  1  0  0  0  0
 16 17  1  0  0  0  0
 16 40  1  0  0  0  0
 16 41  1  0  0  0  0
 17 22  1  0  0  0  0
 17 18  1  0  0  0  0
 17 50  1  0  0  0  0
 18 19  1  0  0  0  0
 18 42  1  0  0  0  0
 18 43  1  0  0  0  0
 19 20  1  0  0  0  0
 19 44  1  0  0  0  0
 19 45  1  0  0  0  0
 20 21  1  0  0  0  0
 21 22  1  0  0  0  0
 21 46  1  0  0  0  0
 21 47  1  0  0  0  0
 22 48  1  0  0  0  0
 22 49  1  0  0  0  0
M  CHG  1  17   1
M  END
> <s_m_source_file>
AV-unprocessed.smi

> <i_m_source_file_index>
2896

> <i_lp_mmshare_version>
43012

> <i_f3d_flags>
0

> <s_epik_input>
W0NIMl0xW0NIMl1PW0NIMl1bQ0gyXU4xW0NIMl1bQ0BIXShbQ0gzXSlbQ0gyXVtOSF1DKD1PKUMoW0NIM10pKFtDSDNdKWMyW2NIXVtjSF1bY0hdbltjSF0y

> <s_epik_cmdline>
J2VwaWtfcHl0aG9uJywgJy1waCcsICc3LjAnLCAnLXRuJywgJzgnLCAnLW1hJywgJzIwMCcsICctbWV0YWxfYmluZGluZycsICctaW1hZScsICc8aW5maWxlLm1hZT4nLCAnLW9tYWUnLCAnPG91dGZpbGUubWFlPic=

> <r_epik_Ionization_Penalty>
0.378644

> <r_epik_Ionization_Penalty_Charging>
0.372108

> <r_epik_Ionization_Penalty_Neutral>
0.0065361

> <r_epik_State_Penalty>
0.380038

> <r_epik_Charging_Adjusted_Penalty>
0.752147

> <i_epik_Tot_Q>
1

> <i_epik_Tot_abs_Q>
1

> <r_epik_Metal_State_Penalty>
0.375202

> <b_epik_Metal_Only>
0

> <s_lp_Force_Field>
OPLS_2005

> <r_lp_Energy>
28.248

> <b_lp_Chiralities_Consistent>
1

> <s_lp_Variant>
AV-unprocessed.smi:2896-1

> <Gold.Version>
5.8.1

> <Gold.Id.Protein>
6NUR|6NUR_protein|mol2

> <Gold.PLP.Fitness>
45.5555

> <Gold.PLP.PLP>
-34.5020

> <Gold.PLP.part.hbond>
-4.0000

> <Gold.PLP.part.metal>
0.0000

> <Gold.PLP.part.buried>
-3.1825

> <Gold.PLP.part.nonpolar>
-26.6240

> <Gold.PLP.part.repulsive>
0.1749

> <Gold.PLP.ligand.clash>
0.0000

> <Gold.PLP.ligand.torsion>
1.6450

> <Gold.PLP.Chemscore.Hbond>
4.7200

> <Gold.PLP.Chemscore.CHOScore>
0.0000

> <Gold.PLP.Chemscore.Metal>
0.0000

> <Gold.Chemscore.Hbonds>
donor molecule, donor type, donor heavy atom, donor atom, acceptor molecule, acceptor atom, score
      L1  H    17    50       P1  7948  2.00
      P1  H  6896  6907       L1     6  1.00
      P1  H  6931  6943       L1    14  0.95
      P1  H  6934  6947       L1    14  0.22

> <Gold.PLP.Chemscore.Internal.Correction>
0.1834

> <Gold.Rescore>
     Score         DG    S(hbond)    S(metal)    S(lipo)     H(rot)  DE(clash)    DE(int)     intcor
     18.77     -20.34       2.94        0.00      82.00       1.78       0.01       1.56       ----

> <Gold.Chemscore.Fitness>
18.7673

> <Gold.Chemscore.DG>
-20.3354

> <Gold.Chemscore.ZeroCoef>
-5.4800

> <Gold.Chemscore.Hbond>
2.9375

> <Gold.Chemscore.Metal>
0.0000

> <Gold.Chemscore.Lipo>
81.9959

> <Gold.Chemscore.Internal_Hbond>
0.0000

> <Gold.Chemscore.DEClash>
0.0112

> <Gold.Chemscore.DEInternal>
1.5568

> <Gold.Chemscore.Rot>
1.7771

> <Gold.Chemscore.Internal.Correction>
   9.000000E+99

> <Gold.Chemscore.Hbonds>
donor molecule, donor type, donor heavy atom, donor atom, acceptor molecule, acceptor atom, score
      L1  H    17    50       P1  7948  0.98
      P1  H  6896  6907       L1     6  1.00
      P1  H  6931  6943       L1    14  0.22
      P1  H  6934  6947       L1    14  0.08

> <Gold.Chemscore.Hbond.Weighted>
-9.8112

> <Gold.Chemscore.Metal.Weighted>
-0.0000

> <Gold.Chemscore.Lipo.Weighted>
-9.5935

> <Gold.Chemscore.Internal_Hbond.Weighted>
0.0000

> <Gold.Chemscore.DEClash.Weighted>
0.0112

> <Gold.Chemscore.DEInternal.Weighted>
1.5568

> <Gold.Chemscore.Rot.Weighted>
4.5494

> <Gold.Chemscore.Internal.Correction.Weighted>
   9.000000E+99

> <Gold.Protein.RotatedTorsions>
[ 6907 6896 6895 6894 ] final -117.92 input  -60.11 | X-H torsion
[ 7974 7965 7964 7962 ] final  165.70 input  175.53 | X-H torsion
[ 8008 7997 7996 7995 ] final  -61.41 input   59.86 | X-H torsion
[ 10167 10162 10161 10158 ] final  121.33 input  -65.29 | X-H torsion
[ 10718 10713 10712 10709 ] final  -36.84 input   66.30 | X-H torsion
[ 10763 10752 10751 10750 ] final   70.58 input  -60.55 | X-H torsion
[ 11005 11000 10999 10996 ] final  -40.13 input  -57.11 | X-H torsion

> <Gold.Protein.ActiveResidues>
 VAL166  LYS551  ARG553  GLY616  TRP617  ASP618  TYR619  PRO620  LYS621  CYS622 
 ASP623  PHE694  ASN695  SER759  ASP760  ASP761  ALA762  ILE779  LEU786  VAL792 
 PHE793  MET794  SER795  GLU796  ALA797  LYS798  CYS799  TRP800  GLU811  SER814 

> <Gold.Protein.RotatedAtoms>
  150.8176  133.8309  159.3153 H   0  0  0  0  0  0  0  0  0  0  0  0  # atno 6907 bound_to 6896
  151.6076  135.1041  160.0083 H   0  0  0  0  0  0  0  0  0  0  0  0  # atno 6908 bound_to 6896
  152.4267  133.7166  159.6566 H   0  0  0  0  0  0  0  0  0  0  0  0  # atno 6909 bound_to 6896
  144.7492  139.8508  143.6372 H   0  0  0  0  0  0  0  0  0  0  0  0  # atno 7974 bound_to 7965
  154.4447  140.1018  156.6427 H   0  0  0  0  0  0  0  0  0  0  0  0  # atno 8008 bound_to 7997
  155.5484  140.3485  155.4444 H   0  0  0  0  0  0  0  0  0  0  0  0  # atno 8009 bound_to 7997
  156.0547  140.1312  157.0000 H   0  0  0  0  0  0  0  0  0  0  0  0  # atno 8010 bound_to 7997
  139.5926  144.7030  151.3253 H   0  0  0  0  0  0  0  0  0  0  0  0  # atno 10167 bound_to 10162
  156.3221  130.4267  149.7950 H   0  0  0  0  0  0  0  0  0  0  0  0  # atno 10718 bound_to 10713
  153.0350  135.5168  154.7463 H   0  0  0  0  0  0  0  0  0  0  0  0  # atno 10763 bound_to 10752
  154.6447  135.2917  155.0063 H   0  0  0  0  0  0  0  0  0  0  0  0  # atno 10764 bound_to 10752
  154.0968  135.6642  153.4914 H   0  0  0  0  0  0  0  0  0  0  0  0  # atno 10765 bound_to 10752
  141.0152  133.6888  156.2280 H   0  0  0  0  0  0  0  0  0  0  0  0  # atno 11005 bound_to 11000
  146.1417  139.4476  143.0104 LP  0  0  0  0  0  0  0  0  0  0  0  0  # atno 17320 bound_to 7965
  145.7007  141.0136  143.1505 LP  0  0  0  0  0  0  0  0  0  0  0  0  # atno 17321 bound_to 7965
  140.7186  143.7199  150.7704 LP  0  0  0  0  0  0  0  0  0  0  0  0  # atno 17342 bound_to 10162
  140.0758  143.5017  152.2556 LP  0  0  0  0  0  0  0  0  0  0  0  0  # atno 17343 bound_to 10162
  156.5254  130.8234  151.3218 LP  0  0  0  0  0  0  0  0  0  0  0  0  # atno 17370 bound_to 10713
  157.7414  130.9869  150.2442 LP  0  0  0  0  0  0  0  0  0  0  0  0  # atno 17371 bound_to 10713
  140.6666  134.4912  157.5585 LP  0  0  0  0  0  0  0  0  0  0  0  0  # atno 17394 bound_to 11000
  139.9113  134.8339  156.1519 LP  0  0  0  0  0  0  0  0  0  0  0  0  # atno 17395 bound_to 11000

$$$$
