AV-unprocessed.smi:237|AV-procd|sdf|1817|dock4
  -GOLD-   2262020413D 1   1.00000     0.00000
 Structure written by MMmdl.
 53 56  0  0  0  0  0  0  0  0  1 V2000
  154.2514  137.4784  161.8034 C   0  0  0  0  0  0  0  0  0  0  0  0
  153.6035  137.6794  160.4313 C   0  0  0  0  0  0  0  0  0  0  0  0
  153.7633  139.0374  160.0490 O   0  0  0  0  0  0  0  0  0  0  0  0
  152.7929  139.5099  159.1219 C   0  0  0  0  0  0  0  0  0  0  0  0
  152.8375  141.0458  158.9024 C   0  0  2  0  0  0  0  0  0  0  0  0
  152.9628  141.7458  160.2741 C   0  0  0  0  0  0  0  0  0  0  0  0
  152.9458  143.2749  160.1426 C   0  0  0  0  0  0  0  0  0  0  0  0
  151.6827  143.7186  159.3966 C   0  0  0  0  0  0  0  0  0  0  0  0
  151.5923  143.0125  158.0371 C   0  0  0  0  0  0  0  0  0  0  0  0
  151.6551  141.5589  158.1895 N   0  0  0  0  0  0  0  0  0  0  0  0
  151.3729  140.9462  157.0180 C   0  0  0  0  0  0  0  0  0  0  0  0
  152.3737  140.2495  156.4263 N   0  0  0  0  0  0  0  0  0  0  0  0
  152.1619  139.6459  155.2528 C   0  0  0  0  0  0  0  0  0  0  0  0
  151.0476  139.6147  154.5183 N   0  0  0  0  0  0  0  0  0  0  0  0
  150.0356  140.3034  155.1206 C   0  0  0  0  0  0  0  0  0  0  0  0
  150.1092  140.9903  156.3639 C   0  0  0  0  0  0  0  0  0  0  0  0
  148.8848  141.5795  156.6539 N   0  0  0  0  0  0  0  0  0  0  0  0
  148.1336  141.2681  155.6335 C   0  0  0  0  0  0  0  0  0  0  0  0
  148.7406  140.4932  154.6699 N   0  0  0  0  0  0  0  0  0  0  0  0
  148.1515  140.0114  153.4287 C   0  0  0  0  0  0  0  0  0  0  0  0
  147.0872  138.9009  153.6014 C   0  0  0  0  0  0  0  0  0  0  0  0
  146.4870  138.5990  152.2216 C   0  0  0  0  0  0  0  0  0  0  0  0
  147.4316  137.9753  151.3752 O   0  0  0  0  0  0  0  0  0  0  0  0
  147.4526  137.6812  154.4664 C   0  0  0  0  0  0  0  0  0  0  0  0
  146.7357  138.2069  155.6034 O   0  0  0  0  0  0  0  0  0  0  0  0
  146.0608  139.1301  154.7235 C   0  0  0  0  0  0  0  0  0  0  0  0
  154.1413  136.4471  162.1392 H   0  0  0  0  0  0  0  0  0  0  0  0
  153.7934  138.1243  162.5523 H   0  0  0  0  0  0  0  0  0  0  0  0
  155.3164  137.7083  161.7696 H   0  0  0  0  0  0  0  0  0  0  0  0
  154.0780  137.0238  159.6997 H   0  0  0  0  0  0  0  0  0  0  0  0
  152.5495  137.4076  160.4809 H   0  0  0  0  0  0  0  0  0  0  0  0
  152.9539  139.0029  158.1698 H   0  0  0  0  0  0  0  0  0  0  0  0
  151.8039  139.1959  159.4599 H   0  0  0  0  0  0  0  0  0  0  0  0
  153.7253  141.3098  158.3290 H   0  0  0  0  0  0  0  0  0  0  0  0
  152.1434  141.4323  160.9226 H   0  0  0  0  0  0  0  0  0  0  0  0
  153.8835  141.4357  160.7694 H   0  0  0  0  0  0  0  0  0  0  0  0
  152.9843  143.7388  161.1286 H   0  0  0  0  0  0  0  0  0  0  0  0
  153.8321  143.6101  159.6024 H   0  0  0  0  0  0  0  0  0  0  0  0
  150.7999  143.4832  159.9927 H   0  0  0  0  0  0  0  0  0  0  0  0
  151.6867  144.7999  159.2580 H   0  0  0  0  0  0  0  0  0  0  0  0
  150.6615  143.2943  157.5418 H   0  0  0  0  0  0  0  0  0  0  0  0
  152.4082  143.3489  157.3960 H   0  0  0  0  0  0  0  0  0  0  0  0
  153.0072  139.1144  154.8415 H   0  0  0  0  0  0  0  0  0  0  0  0
  147.1100  141.6034  155.5557 H   0  0  0  0  0  0  0  0  0  0  0  0
  147.7198  140.8701  152.9133 H   0  0  0  0  0  0  0  0  0  0  0  0
  148.9700  139.6707  152.7940 H   0  0  0  0  0  0  0  0  0  0  0  0
  145.6271  137.9339  152.3072 H   0  0  0  0  0  0  0  0  0  0  0  0
  146.1289  139.5102  151.7414 H   0  0  0  0  0  0  0  0  0  0  0  0
  147.8964  137.3202  151.8733 H   0  0  0  0  0  0  0  0  0  0  0  0
  147.0140  136.7460  154.1142 H   0  0  0  0  0  0  0  0  0  0  0  0
  148.5171  137.5522  154.6561 H   0  0  0  0  0  0  0  0  0  0  0  0
  146.0315  140.1470  155.1126 H   0  0  0  0  0  0  0  0  0  0  0  0
  145.0534  138.7877  154.4807 H   0  0  0  0  0  0  0  0  0  0  0  0
  1  2  1  0  0  0  0
  1 27  1  0  0  0  0
  1 28  1  0  0  0  0
  1 29  1  0  0  0  0
  2  3  1  0  0  0  0
  2 30  1  0  0  0  0
  2 31  1  0  0  0  0
  3  4  1  0  0  0  0
  4  5  1  0  0  0  0
  4 32  1  0  0  0  0
  4 33  1  0  0  0  0
  5 10  1  0  0  0  0
  5  6  1  0  0  0  0
  5 34  1  0  0  0  0
  6  7  1  0  0  0  0
  6 35  1  0  0  0  0
  6 36  1  0  0  0  0
  7  8  1  0  0  0  0
  7 37  1  0  0  0  0
  7 38  1  0  0  0  0
  8  9  1  0  0  0  0
  8 39  1  0  0  0  0
  8 40  1  0  0  0  0
  9 10  1  0  0  0  0
  9 41  1  0  0  0  0
  9 42  1  0  0  0  0
 10 11  1  0  0  0  0
 11 16  1  0  0  0  0
 11 12  2  0  0  0  0
 12 13  1  0  0  0  0
 13 14  2  0  0  0  0
 13 43  1  0  0  0  0
 14 15  1  0  0  0  0
 15 19  1  0  0  0  0
 15 16  2  0  0  0  0
 16 17  1  0  0  0  0
 17 18  2  0  0  0  0
 18 19  1  0  0  0  0
 18 44  1  0  0  0  0
 19 20  1  0  0  0  0
 20 21  1  0  0  0  0
 20 45  1  0  0  0  0
 20 46  1  0  0  0  0
 21 26  1  0  0  0  0
 21 22  1  0  0  0  0
 21 24  1  0  0  0  0
 22 23  1  0  0  0  0
 22 47  1  0  0  0  0
 22 48  1  0  0  0  0
 23 49  1  0  0  0  0
 24 25  1  0  0  0  0
 24 50  1  0  0  0  0
 24 51  1  0  0  0  0
 25 26  1  0  0  0  0
 26 52  1  0  0  0  0
 26 53  1  0  0  0  0
M  END
> <s_m_source_file>
AV-unprocessed.smi

> <i_m_source_file_index>
237

> <i_lp_mmshare_version>
43012

> <i_f3d_flags>
0

> <s_epik_input>
W0NIM11bQ0gyXU9bQ0gyXVtDQEBIXTFbQ0gyXVtDSDJdW0NIMl1bQ0gyXU4xYyhuW2NIXW4yKWMoYzIzKW5bY0hdbjNbQ0gyXUM0KFtDSDJdW09IXSlbQ0gyXU9bQ0gyXTQ=

> <s_epik_cmdline>
J2VwaWtfcHl0aG9uJywgJy1waCcsICc3LjAnLCAnLXRuJywgJzgnLCAnLW1hJywgJzIwMCcsICctbWV0YWxfYmluZGluZycsICctaW1hZScsICc8aW5maWxlLm1hZT4nLCAnLW9tYWUnLCAnPG91dGZpbGUubWFlPic=

> <r_lp_tautomer_probability>
1

> <r_epik_Ionization_Penalty>
0.00358373

> <r_epik_Ionization_Penalty_Charging>
0

> <r_epik_Ionization_Penalty_Neutral>
0.00358373

> <r_epik_State_Penalty>
0.00240903

> <r_epik_Charging_Adjusted_Penalty>
0.00240903

> <i_epik_Tot_Q>
0

> <i_epik_Tot_abs_Q>
0

> <r_epik_Metal_State_Penalty>
-0

> <b_epik_Metal_Only>
0

> <s_lp_Force_Field>
OPLS_2005

> <r_lp_Energy>
38.4441

> <b_lp_Chiralities_Consistent>
1

> <s_lp_Variant>
AV-unprocessed.smi:237-1

> <Gold.Version>
5.8.1

> <Gold.Id.Protein>
6NUR|6NUR_protein|mol2

> <Gold.PLP.Fitness>
55.9699

> <Gold.PLP.PLP>
-46.4945

> <Gold.PLP.part.hbond>
-4.6590

> <Gold.PLP.part.metal>
0.0000

> <Gold.PLP.part.buried>
-0.3954

> <Gold.PLP.part.nonpolar>
-41.8801

> <Gold.PLP.part.repulsive>
0.2512

> <Gold.PLP.ligand.clash>
0.0000

> <Gold.PLP.ligand.torsion>
0.8695

> <Gold.PLP.Chemscore.Hbond>
3.5070

> <Gold.PLP.Chemscore.CHOScore>
0.0000

> <Gold.PLP.Chemscore.Metal>
0.0000

> <Gold.Chemscore.Hbonds>
donor molecule, donor type, donor heavy atom, donor atom, acceptor molecule, acceptor atom, score
      L1  H    23    49       P1  7948  0.80
      P1  H  7954  7966       L1    23  1.00
      P1  H  7989  7998       L1    14  0.52
      P1  H  7997  8009       L1    12  0.99

> <Gold.PLP.Chemscore.Internal.Correction>
0.6935

> <Gold.Rescore>
     Score         DG    S(hbond)    S(metal)    S(lipo)     H(rot)  DE(clash)    DE(int)     intcor
     12.89     -16.80       2.10        0.00     103.73       3.06       1.65       2.26       ----

> <Gold.Chemscore.Fitness>
12.8852

> <Gold.Chemscore.DG>
-16.8018

> <Gold.Chemscore.ZeroCoef>
-5.4800

> <Gold.Chemscore.Hbond>
2.1032

> <Gold.Chemscore.Metal>
0.0000

> <Gold.Chemscore.Lipo>
103.7269

> <Gold.Chemscore.Internal_Hbond>
0.0000

> <Gold.Chemscore.DEClash>
1.6545

> <Gold.Chemscore.DEInternal>
2.2621

> <Gold.Chemscore.Rot>
3.0620

> <Gold.Chemscore.Internal.Correction>
   9.000000E+99

> <Gold.Chemscore.Hbonds>
donor molecule, donor type, donor heavy atom, donor atom, acceptor molecule, acceptor atom, score
      L1  H    23    49       P1  7948  0.77
      P1  H  7954  7966       L1    23  0.35
      P1  H  7989  7998       L1    14  0.01
      P1  H  7997  8009       L1    12  0.28

> <Gold.Chemscore.Hbond.Weighted>
-7.0245

> <Gold.Chemscore.Metal.Weighted>
-0.0000

> <Gold.Chemscore.Lipo.Weighted>
-12.1360

> <Gold.Chemscore.Internal_Hbond.Weighted>
0.0000

> <Gold.Chemscore.DEClash.Weighted>
1.6545

> <Gold.Chemscore.DEInternal.Weighted>
2.2621

> <Gold.Chemscore.Rot.Weighted>
7.8388

> <Gold.Chemscore.Internal.Correction.Weighted>
   9.000000E+99

> <Gold.Protein.RotatedTorsions>
[ 6907 6896 6895 6894 ] final -166.78 input  -60.11 | X-H torsion
[ 7974 7965 7964 7962 ] final  131.50 input  175.53 | X-H torsion
[ 8008 7997 7996 7995 ] final -175.75 input   59.86 | X-H torsion
[ 10167 10162 10161 10158 ] final   52.68 input  -65.29 | X-H torsion
[ 10718 10713 10712 10709 ] final  -64.03 input   66.30 | X-H torsion
[ 10763 10752 10751 10750 ] final  159.72 input  -60.55 | X-H torsion
[ 11005 11000 10999 10996 ] final  -42.21 input  -57.11 | X-H torsion

> <Gold.Protein.ActiveResidues>
 VAL166  LYS551  ARG553  GLY616  TRP617  ASP618  TYR619  PRO620  LYS621  CYS622 
 ASP623  PHE694  ASN695  SER759  ASP760  ASP761  ALA762  ILE779  LEU786  VAL792 
 PHE793  MET794  SER795  GLU796  ALA797  LYS798  CYS799  TRP800  GLU811  SER814 

> <Gold.Protein.RotatedAtoms>
  151.4490  133.3622  159.2792 H   0  0  0  0  0  0  0  0  0  0  0  0  # atno 6907 bound_to 6896
  150.9104  134.8522  159.7432 H   0  0  0  0  0  0  0  0  0  0  0  0  # atno 6908 bound_to 6896
  152.4929  134.4419  159.9598 H   0  0  0  0  0  0  0  0  0  0  0  0  # atno 6909 bound_to 6896
  145.0067  139.4260  143.5265 H   0  0  0  0  0  0  0  0  0  0  0  0  # atno 7974 bound_to 7965
  155.9864  140.1192  157.0679 H   0  0  0  0  0  0  0  0  0  0  0  0  # atno 8008 bound_to 7997
  154.4198  140.1134  156.5573 H   0  0  0  0  0  0  0  0  0  0  0  0  # atno 8009 bound_to 7997
  155.6402  140.3473  155.4714 H   0  0  0  0  0  0  0  0  0  0  0  0  # atno 8010 bound_to 7997
  140.2488  144.3502  150.6355 H   0  0  0  0  0  0  0  0  0  0  0  0  # atno 10167 bound_to 10162
  156.0754  130.4228  150.1361 H   0  0  0  0  0  0  0  0  0  0  0  0  # atno 10718 bound_to 10713
  154.2362  135.2776  155.2871 H   0  0  0  0  0  0  0  0  0  0  0  0  # atno 10763 bound_to 10752
  154.5583  135.5654  153.6987 H   0  0  0  0  0  0  0  0  0  0  0  0  # atno 10764 bound_to 10752
  153.0009  135.6291  154.2505 H   0  0  0  0  0  0  0  0  0  0  0  0  # atno 10765 bound_to 10752
  141.0300  133.6824  156.2564 H   0  0  0  0  0  0  0  0  0  0  0  0  # atno 11005 bound_to 11000
  146.3462  139.9487  142.8731 LP  0  0  0  0  0  0  0  0  0  0  0  0  # atno 17320 bound_to 7965
  145.2079  140.9883  143.4118 LP  0  0  0  0  0  0  0  0  0  0  0  0  # atno 17321 bound_to 7965
  140.6057  143.2167  151.6985 LP  0  0  0  0  0  0  0  0  0  0  0  0  # atno 17342 bound_to 10162
  139.5053  144.3722  152.0458 LP  0  0  0  0  0  0  0  0  0  0  0  0  # atno 17343 bound_to 10162
  156.9404  130.9742  151.3517 LP  0  0  0  0  0  0  0  0  0  0  0  0  # atno 17370 bound_to 10713
  157.5847  130.8401  149.8572 LP  0  0  0  0  0  0  0  0  0  0  0  0  # atno 17371 bound_to 10713
  140.6423  134.5153  157.5570 LP  0  0  0  0  0  0  0  0  0  0  0  0  # atno 17394 bound_to 11000
  139.9201  134.8165  156.1238 LP  0  0  0  0  0  0  0  0  0  0  0  0  # atno 17395 bound_to 11000

$$$$
