AV-unprocessed.smi:2183|AV-procd|sdf|8867|dock2
  -GOLD-   2272012 63D 1   1.00000     0.00000
 Structure written by MMmdl.
 41 43  0  0  0  0  0  0  0  0  2 V2000
  149.7109  140.7777  153.8924 O   0  0  0  0  0  0  0  0  0  0  0  0
  149.2423  140.3150  155.1394 C   0  0  0  0  0  0  0  0  0  0  0  0
  150.0446  140.8499  156.2793 C   0  0  0  0  0  0  0  0  0  0  0  0
  150.1428  142.1601  156.6407 N   0  3  0  0  0  0  0  0  0  0  0  0
  150.9882  142.2841  157.7440 C   0  0  0  0  0  0  0  0  0  0  0  0
  151.3904  143.4068  158.4608 C   0  0  0  0  0  0  0  0  0  0  0  0
  152.2654  143.1859  159.5444 C   0  0  0  0  0  0  0  0  0  0  0  0
  152.7058  141.8890  159.8793 C   0  0  0  0  0  0  0  0  0  0  0  0
  152.2921  140.7585  159.1444 C   0  0  0  0  0  0  0  0  0  0  0  0
  151.4281  140.9851  158.0729 C   0  0  0  0  0  0  0  0  0  0  0  0
  150.8221  140.1331  157.1411 N   0  0  0  0  0  0  0  0  0  0  0  0
  151.0821  138.6854  157.1940 C   0  0  0  0  0  0  0  0  0  0  0  0
  150.8352  138.0853  158.5925 C   0  0  2  0  0  0  0  0  0  0  0  0
  151.7248  137.0116  158.8218 O   0  0  0  0  0  0  0  0  0  0  0  0
  149.3973  137.5768  158.7691 C   0  0  0  0  0  0  0  0  0  0  0  0
  149.1137  137.4821  160.1589 O   0  0  0  0  0  0  0  0  0  0  0  0
  148.3752  136.4069  160.6038 C   0  0  0  0  0  0  0  0  0  0  0  0
  148.1108  136.3416  161.9876 C   0  0  0  0  0  0  0  0  0  0  0  0
  147.3638  135.2780  162.5298 C   0  0  0  0  0  0  0  0  0  0  0  0
  146.8721  134.2632  161.6880 C   0  0  0  0  0  0  0  0  0  0  0  0
  145.9575  132.9580  162.3490 Cl  0  0  0  0  0  0  0  0  0  0  0  0
  147.1286  134.3154  160.3051 C   0  0  0  0  0  0  0  0  0  0  0  0
  147.8755  135.3798  159.7634 C   0  0  0  0  0  0  0  0  0  0  0  0
  149.4117  140.1853  153.2195 H   0  0  0  0  0  0  0  0  0  0  0  0
  148.1993  140.6090  155.2597 H   0  0  0  0  0  0  0  0  0  0  0  0
  149.2709  139.2255  155.1491 H   0  0  0  0  0  0  0  0  0  0  0  0
  151.0541  144.4013  158.2062 H   0  0  0  0  0  0  0  0  0  0  0  0
  152.6050  144.0276  160.1307 H   0  0  0  0  0  0  0  0  0  0  0  0
  153.3748  141.7579  160.7176 H   0  0  0  0  0  0  0  0  0  0  0  0
  152.6335  139.7700  159.4138 H   0  0  0  0  0  0  0  0  0  0  0  0
  150.4210  138.2160  156.4645 H   0  0  0  0  0  0  0  0  0  0  0  0
  152.0966  138.4851  156.8491 H   0  0  0  0  0  0  0  0  0  0  0  0
  151.0357  138.8392  159.3543 H   0  0  0  0  0  0  0  0  0  0  0  0
  152.6044  137.3111  158.6500 H   0  0  0  0  0  0  0  0  0  0  0  0
  148.6964  138.2509  158.2737 H   0  0  0  0  0  0  0  0  0  0  0  0
  149.2998  136.5901  158.3125 H   0  0  0  0  0  0  0  0  0  0  0  0
  148.4846  137.1160  162.6411 H   0  0  0  0  0  0  0  0  0  0  0  0
  147.1695  135.2426  163.5917 H   0  0  0  0  0  0  0  0  0  0  0  0
  146.7529  133.5385  159.6559 H   0  0  0  0  0  0  0  0  0  0  0  0
  148.0521  135.3837  158.6988 H   0  0  0  0  0  0  0  0  0  0  0  0
  149.6683  142.9141  156.1609 H   0  0  0  0  0  0  0  0  0  0  0  0
  1  2  1  0  0  0  0
  1 24  1  0  0  0  0
  2  3  1  0  0  0  0
  2 25  1  0  0  0  0
  2 26  1  0  0  0  0
  3 11  1  0  0  0  0
  3  4  2  0  0  0  0
  4  5  1  0  0  0  0
  4 41  1  0  0  0  0
  5 10  2  0  0  0  0
  5  6  1  0  0  0  0
  6  7  2  0  0  0  0
  6 27  1  0  0  0  0
  7  8  1  0  0  0  0
  7 28  1  0  0  0  0
  8  9  2  0  0  0  0
  8 29  1  0  0  0  0
  9 10  1  0  0  0  0
  9 30  1  0  0  0  0
 10 11  1  0  0  0  0
 11 12  1  0  0  0  0
 12 13  1  0  0  0  0
 12 31  1  0  0  0  0
 12 32  1  0  0  0  0
 13 14  1  0  0  0  0
 13 15  1  0  0  0  0
 13 33  1  0  0  0  0
 14 34  1  0  0  0  0
 15 16  1  0  0  0  0
 15 35  1  0  0  0  0
 15 36  1  0  0  0  0
 16 17  1  0  0  0  0
 17 23  1  0  0  0  0
 17 18  2  0  0  0  0
 18 19  1  0  0  0  0
 18 37  1  0  0  0  0
 19 20  2  0  0  0  0
 19 38  1  0  0  0  0
 20 21  1  0  0  0  0
 20 22  1  0  0  0  0
 22 23  2  0  0  0  0
 22 39  1  0  0  0  0
 23 40  1  0  0  0  0
M  CHG  1   4   1
M  END
> <s_m_source_file>
AV-unprocessed.smi

> <i_m_source_file_index>
2183

> <i_lp_mmshare_version>
43012

> <i_f3d_flags>
0

> <s_epik_input>
W2NIXTFbY0hdW2NIXVtjSF1jKGMxMiluKGMobjIpW0NIMl1bT0hdKVtDSDJdW0NASF0oW09IXSlbQ0gyXU9jM1tjSF1bY0hdYyhDbClbY0hdW2NIXTM=

> <s_epik_cmdline>
J2VwaWtfcHl0aG9uJywgJy1waCcsICc3LjAnLCAnLXRuJywgJzgnLCAnLW1hJywgJzIwMCcsICctbWV0YWxfYmluZGluZycsICctaW1hZScsICc8aW5maWxlLm1hZT4nLCAnLW9tYWUnLCAnPG91dGZpbGUubWFlPic=

> <r_lp_tautomer_probability>
1

> <r_epik_Ionization_Penalty>
1.40052

> <r_epik_Ionization_Penalty_Charging>
1.39966

> <r_epik_Ionization_Penalty_Neutral>
0.000858184

> <r_epik_State_Penalty>
1.4817

> <r_epik_Charging_Adjusted_Penalty>
2.88136

> <i_epik_Tot_Q>
1

> <i_epik_Tot_abs_Q>
1

> <r_epik_Metal_State_Penalty>
5.5238

> <b_epik_Metal_Only>
0

> <s_lp_Force_Field>
OPLS_2005

> <r_lp_Energy>
17.0634

> <b_lp_Chiralities_Consistent>
1

> <s_lp_Variant>
AV-unprocessed.smi:2183-3

> <Gold.Version>
5.8.1

> <Gold.Id.Protein>
6NUR|6NUR_protein|mol2

> <Gold.PLP.Fitness>
58.2988

> <Gold.PLP.PLP>
-46.9863

> <Gold.PLP.part.hbond>
-6.4367

> <Gold.PLP.part.metal>
0.0000

> <Gold.PLP.part.buried>
-4.9906

> <Gold.PLP.part.nonpolar>
-36.4036

> <Gold.PLP.part.repulsive>
0.0516

> <Gold.PLP.ligand.clash>
0.0000

> <Gold.PLP.ligand.torsion>
0.9368

> <Gold.PLP.Chemscore.Hbond>
4.3394

> <Gold.PLP.Chemscore.CHOScore>
0.0000

> <Gold.PLP.Chemscore.Metal>
0.0000

> <Gold.Chemscore.Hbonds>
donor molecule, donor type, donor heavy atom, donor atom, acceptor molecule, acceptor atom, score
      L1  H     1    24       P1  7957  0.64
      L1  H     4    41       P1  8028  1.98
      P1  H  6896  6908       L1    14  0.59
      P1  H  6931  6943       L1    16  0.19
      P1  H  7989  7998       L1     1  0.51
      P1  H  8011  8017       L1     1  0.19

> <Gold.PLP.Chemscore.Internal.Correction>
0.1679

> <Gold.Rescore>
     Score         DG    S(hbond)    S(metal)    S(lipo)     H(rot)  DE(clash)    DE(int)     intcor
     19.43     -20.44       2.68        0.00     119.83       3.13       0.04       0.98       ----

> <Gold.Chemscore.Fitness>
19.4260

> <Gold.Chemscore.DG>
-20.4369

> <Gold.Chemscore.ZeroCoef>
-5.4800

> <Gold.Chemscore.Hbond>
2.6800

> <Gold.Chemscore.Metal>
0.0000

> <Gold.Chemscore.Lipo>
119.8281

> <Gold.Chemscore.Internal_Hbond>
0.0000

> <Gold.Chemscore.DEClash>
0.0354

> <Gold.Chemscore.DEInternal>
0.9755

> <Gold.Chemscore.Rot>
3.1305

> <Gold.Chemscore.Internal.Correction>
   9.000000E+99

> <Gold.Chemscore.Hbonds>
donor molecule, donor type, donor heavy atom, donor atom, acceptor molecule, acceptor atom, score
      L1  H     1    24       P1  7957  0.63
      L1  H     4    41       P1  8028  0.92
      P1  H  6896  6908       L1    14  0.56
      P1  H  6931  6943       L1    16  0.01
      P1  H  7989  7998       L1     1  0.15
      P1  H  8011  8017       L1     1  0.01

> <Gold.Chemscore.Hbond.Weighted>
-8.9511

> <Gold.Chemscore.Metal.Weighted>
-0.0000

> <Gold.Chemscore.Lipo.Weighted>
-14.0199

> <Gold.Chemscore.Internal_Hbond.Weighted>
0.0000

> <Gold.Chemscore.DEClash.Weighted>
0.0354

> <Gold.Chemscore.DEInternal.Weighted>
0.9755

> <Gold.Chemscore.Rot.Weighted>
8.0141

> <Gold.Chemscore.Internal.Correction.Weighted>
   9.000000E+99

> <Gold.Protein.RotatedTorsions>
[ 6907 6896 6895 6894 ] final -127.13 input  -60.11 | X-H torsion
[ 7974 7965 7964 7962 ] final  -60.11 input  175.53 | X-H torsion
[ 8008 7997 7996 7995 ] final   32.39 input   59.86 | X-H torsion
[ 10167 10162 10161 10158 ] final -132.93 input  -65.29 | X-H torsion
[ 10718 10713 10712 10709 ] final  128.94 input   66.30 | X-H torsion
[ 10763 10752 10751 10750 ] final  142.07 input  -60.55 | X-H torsion
[ 11005 11000 10999 10996 ] final   41.41 input  -57.11 | X-H torsion

> <Gold.Protein.ActiveResidues>
 VAL166  LYS551  ARG553  GLY616  TRP617  ASP618  TYR619  PRO620  LYS621  CYS622 
 ASP623  PHE694  ASN695  SER759  ASP760  ASP761  ALA762  ILE779  LEU786  VAL792 
 PHE793  MET794  SER795  GLU796  ALA797  LYS798  CYS799  TRP800  GLU811  SER814 

> <Gold.Protein.RotatedAtoms>
  150.9041  133.7081  159.2871 H   0  0  0  0  0  0  0  0  0  0  0  0  # atno 6907 bound_to 6896
  151.4589  135.1035  159.9729 H   0  0  0  0  0  0  0  0  0  0  0  0  # atno 6908 bound_to 6896
  152.4893  133.8409  159.7207 H   0  0  0  0  0  0  0  0  0  0  0  0  # atno 6909 bound_to 6896
  145.8194  140.8549  143.0140 H   0  0  0  0  0  0  0  0  0  0  0  0  # atno 7974 bound_to 7965
  155.1217  140.3249  155.4496 H   0  0  0  0  0  0  0  0  0  0  0  0  # atno 8008 bound_to 7997
  156.2661  140.2026  156.6287 H   0  0  0  0  0  0  0  0  0  0  0  0  # atno 8009 bound_to 7997
  154.6679  140.0540  157.0120 H   0  0  0  0  0  0  0  0  0  0  0  0  # atno 8010 bound_to 7997
  139.9035  143.6579  152.2590 H   0  0  0  0  0  0  0  0  0  0  0  0  # atno 10167 bound_to 10162
  157.5199  131.1098  150.9169 H   0  0  0  0  0  0  0  0  0  0  0  0  # atno 10718 bound_to 10713
  153.9496  135.2971  155.3439 H   0  0  0  0  0  0  0  0  0  0  0  0  # atno 10763 bound_to 10752
  154.7433  135.5014  153.9164 H   0  0  0  0  0  0  0  0  0  0  0  0  # atno 10764 bound_to 10752
  153.1000  135.6732  153.9798 H   0  0  0  0  0  0  0  0  0  0  0  0  # atno 10765 bound_to 10752
  140.1837  134.4072  155.8185 H   0  0  0  0  0  0  0  0  0  0  0  0  # atno 11005 bound_to 11000
  144.6749  140.0511  143.7478 LP  0  0  0  0  0  0  0  0  0  0  0  0  # atno 17320 bound_to 7965
  145.9691  139.2856  143.1109 LP  0  0  0  0  0  0  0  0  0  0  0  0  # atno 17321 bound_to 7965
  139.7004  144.7635  151.1283 LP  0  0  0  0  0  0  0  0  0  0  0  0  # atno 17342 bound_to 10162
  140.7701  143.5465  150.9253 LP  0  0  0  0  0  0  0  0  0  0  0  0  # atno 17343 bound_to 10162
  156.9783  130.5517  149.5294 LP  0  0  0  0  0  0  0  0  0  0  0  0  # atno 17370 bound_to 10713
  156.0346  130.5435  150.8621 LP  0  0  0  0  0  0  0  0  0  0  0  0  # atno 17371 bound_to 10713
  141.2224  133.7013  156.7975 LP  0  0  0  0  0  0  0  0  0  0  0  0  # atno 17394 bound_to 11000
  140.2238  134.8737  157.3405 LP  0  0  0  0  0  0  0  0  0  0  0  0  # atno 17395 bound_to 11000

$$$$
