AV-unprocessed.smi:3031|AV-procd|sdf|11545|dock3
  -GOLD-   2272016493D 1   1.00000     0.00000
 Structure written by MMmdl.
 47 48  0  0  0  0  0  0  0  0  2 V2000
  151.8015  142.9855  158.8605 C   0  0  0  0  0  0  0  0  0  0  0  0
  151.3341  141.8522  157.9935 C   0  0  0  0  0  0  0  0  0  0  0  0
  151.7708  140.4972  158.0188 C   0  0  0  0  0  0  0  0  0  0  0  0
  151.1548  139.7411  157.1249 N   0  0  0  0  0  0  0  0  0  0  0  0
  150.3062  140.5834  156.4986 N   0  0  0  0  0  0  0  0  0  0  0  0
  149.4446  140.0852  155.4408 C   0  0  0  0  0  0  0  0  0  0  0  0
  148.4187  141.1380  154.9758 C   0  0  2  0  0  0  0  0  0  0  0  0
  147.2902  141.2823  156.0126 C   0  0  0  0  0  0  0  0  0  0  0  0
  147.8941  140.7771  153.6536 N   0  0  0  0  0  0  0  0  0  0  0  0
  146.6365  140.0308  153.6566 C   0  0  0  0  0  0  0  0  0  0  0  0
  146.8927  138.5152  153.6926 C   0  0  2  0  0  0  0  0  0  0  0  0
  148.2462  138.3024  153.3450 O   0  0  0  0  0  0  0  0  0  0  0  0
  146.0114  137.7349  152.6940 C   0  0  0  0  0  0  0  0  0  0  0  0
  146.2538  136.2710  152.7509 N   0  3  0  0  0  0  0  0  0  0  0  0
  146.1485  135.7051  154.1192 C   0  0  0  0  0  0  0  0  0  0  0  0
  146.4556  134.1981  154.1018 C   0  0  0  0  0  0  0  0  0  0  0  0
  145.5718  133.5412  153.2018 O   0  0  0  0  0  0  0  0  0  0  0  0
  145.7233  134.0130  151.8687 C   0  0  0  0  0  0  0  0  0  0  0  0
  145.3922  135.5141  151.8116 C   0  0  0  0  0  0  0  0  0  0  0  0
  150.3950  141.8642  157.0013 C   0  0  0  0  0  0  0  0  0  0  0  0
  152.8889  143.0607  158.8724 H   0  0  0  0  0  0  0  0  0  0  0  0
  151.4759  142.8604  159.8933 H   0  0  0  0  0  0  0  0  0  0  0  0
  151.4173  143.9460  158.5161 H   0  0  0  0  0  0  0  0  0  0  0  0
  152.5125  140.0429  158.6590 H   0  0  0  0  0  0  0  0  0  0  0  0
  150.0663  139.7561  154.6072 H   0  0  0  0  0  0  0  0  0  0  0  0
  148.9323  139.1972  155.8143 H   0  0  0  0  0  0  0  0  0  0  0  0
  148.9322  142.0979  154.9060 H   0  0  0  0  0  0  0  0  0  0  0  0
  147.6977  141.4877  157.0029 H   0  0  0  0  0  0  0  0  0  0  0  0
  146.6956  140.3708  156.0836 H   0  0  0  0  0  0  0  0  0  0  0  0
  146.6180  142.1060  155.7734 H   0  0  0  0  0  0  0  0  0  0  0  0
  148.5987  140.2571  153.1410 H   0  0  0  0  0  0  0  0  0  0  0  0
  146.0173  140.3147  154.5074 H   0  0  0  0  0  0  0  0  0  0  0  0
  146.0694  140.2796  152.7585 H   0  0  0  0  0  0  0  0  0  0  0  0
  146.7469  138.1573  154.7117 H   0  0  0  0  0  0  0  0  0  0  0  0
  148.2912  137.5924  152.7226 H   0  0  0  0  0  0  0  0  0  0  0  0
  144.9525  137.9232  152.8776 H   0  0  0  0  0  0  0  0  0  0  0  0
  146.2118  138.1064  151.6875 H   0  0  0  0  0  0  0  0  0  0  0  0
  146.8402  136.2053  154.7959 H   0  0  0  0  0  0  0  0  0  0  0  0
  145.1435  135.8730  154.5097 H   0  0  0  0  0  0  0  0  0  0  0  0
  147.4920  134.0141  153.8137 H   0  0  0  0  0  0  0  0  0  0  0  0
  146.3223  133.7761  155.0982 H   0  0  0  0  0  0  0  0  0  0  0  0
  146.7381  133.8232  151.5153 H   0  0  0  0  0  0  0  0  0  0  0  0
  145.0501  133.4550  151.2177 H   0  0  0  0  0  0  0  0  0  0  0  0
  144.3432  135.6765  152.0648 H   0  0  0  0  0  0  0  0  0  0  0  0
  145.5388  135.8815  150.7952 H   0  0  0  0  0  0  0  0  0  0  0  0
  149.7846  142.6688  156.6183 H   0  0  0  0  0  0  0  0  0  0  0  0
  147.2049  136.1279  152.4413 H   0  0  0  0  0  0  0  0  0  0  0  0
  1  2  1  0  0  0  0
  1 21  1  0  0  0  0
  1 22  1  0  0  0  0
  1 23  1  0  0  0  0
  2 20  2  0  0  0  0
  2  3  1  0  0  0  0
  3  4  2  0  0  0  0
  3 24  1  0  0  0  0
  4  5  1  0  0  0  0
  5  6  1  0  0  0  0
  5 20  1  0  0  0  0
  6  7  1  0  0  0  0
  6 25  1  0  0  0  0
  6 26  1  0  0  0  0
  7  8  1  0  0  0  0
  7  9  1  0  0  0  0
  7 27  1  0  0  0  0
  8 28  1  0  0  0  0
  8 29  1  0  0  0  0
  8 30  1  0  0  0  0
  9 10  1  0  0  0  0
  9 31  1  0  0  0  0
 10 11  1  0  0  0  0
 10 32  1  0  0  0  0
 10 33  1  0  0  0  0
 11 12  1  0  0  0  0
 11 13  1  0  0  0  0
 11 34  1  0  0  0  0
 12 35  1  0  0  0  0
 13 14  1  0  0  0  0
 13 36  1  0  0  0  0
 13 37  1  0  0  0  0
 14 19  1  0  0  0  0
 14 15  1  0  0  0  0
 14 47  1  0  0  0  0
 15 16  1  0  0  0  0
 15 38  1  0  0  0  0
 15 39  1  0  0  0  0
 16 17  1  0  0  0  0
 16 40  1  0  0  0  0
 16 41  1  0  0  0  0
 17 18  1  0  0  0  0
 18 19  1  0  0  0  0
 18 42  1  0  0  0  0
 18 43  1  0  0  0  0
 19 44  1  0  0  0  0
 19 45  1  0  0  0  0
 20 46  1  0  0  0  0
M  CHG  1  14   1
M  END
> <s_m_source_file>
AV-unprocessed.smi

> <i_m_source_file_index>
3031

> <i_lp_mmshare_version>
43012

> <i_f3d_flags>
0

> <s_epik_input>
W0NIM11jMVtjSF1ubihbY0hdMSlbQ0gyXVtDQEhdKFtDSDNdKVtOSF1bQ0gyXVtDQEhdKFtPSF0pW0NIMl1OMltDSDJdW0NIMl1PW0NIMl1bQ0gyXTI=

> <s_epik_cmdline>
J2VwaWtfcHl0aG9uJywgJy1waCcsICc3LjAnLCAnLXRuJywgJzgnLCAnLW1hJywgJzIwMCcsICctbWV0YWxfYmluZGluZycsICctaW1hZScsICc8aW5maWxlLm1hZT4nLCAnLW9tYWUnLCAnPG91dGZpbGUubWFlPic=

> <r_epik_Ionization_Penalty>
0.467051

> <r_epik_Ionization_Penalty_Charging>
0.202493

> <r_epik_Ionization_Penalty_Neutral>
0.264558

> <r_epik_State_Penalty>
1.34287

> <r_epik_Charging_Adjusted_Penalty>
1.54537

> <i_epik_Tot_Q>
1

> <i_epik_Tot_abs_Q>
1

> <r_epik_Metal_State_Penalty>
1.34281

> <b_epik_Metal_Only>
0

> <s_lp_Force_Field>
OPLS_2005

> <r_lp_Energy>
23.7878

> <b_lp_Chiralities_Consistent>
1

> <s_lp_Variant>
AV-unprocessed.smi:3031-5

> <Gold.Version>
5.8.1

> <Gold.Id.Protein>
6NUR|6NUR_protein|mol2

> <Gold.PLP.Fitness>
49.9103

> <Gold.PLP.PLP>
-38.3439

> <Gold.PLP.part.hbond>
-4.6903

> <Gold.PLP.part.metal>
0.0000

> <Gold.PLP.part.buried>
-2.4642

> <Gold.PLP.part.nonpolar>
-31.8251

> <Gold.PLP.part.repulsive>
0.1339

> <Gold.PLP.ligand.clash>
0.1197

> <Gold.PLP.ligand.torsion>
1.4819

> <Gold.PLP.Chemscore.Hbond>
3.8160

> <Gold.PLP.Chemscore.CHOScore>
1.0000

> <Gold.PLP.Chemscore.Metal>
0.0000

> <Gold.Chemscore.Hbonds>
donor molecule, donor type, donor heavy atom, donor atom, acceptor molecule, acceptor atom, score
      L1  H     9    31       P1  7957  0.44
      L1  H    12    35       P1  7948  1.00
      L1  H    14    47       P1  7948  2.00
      L1  C    20    46       P1  8028  1.00

> <Gold.PLP.Chemscore.Internal.Correction>
0.2019

> <Gold.Rescore>
     Score         DG    S(hbond)    S(metal)    S(lipo)     H(rot)  DE(clash)    DE(int)     intcor
     16.86     -18.62       2.76        0.00      91.46       2.65       0.16       1.60       ----

> <Gold.Chemscore.Fitness>
16.8628

> <Gold.Chemscore.DG>
-18.6237

> <Gold.Chemscore.ZeroCoef>
-5.4800

> <Gold.Chemscore.Hbond>
2.7641

> <Gold.Chemscore.Metal>
0.0000

> <Gold.Chemscore.Lipo>
91.4617

> <Gold.Chemscore.Internal_Hbond>
0.0000

> <Gold.Chemscore.DEClash>
0.1616

> <Gold.Chemscore.DEInternal>
1.5993

> <Gold.Chemscore.Rot>
2.6521

> <Gold.Chemscore.Internal.Correction>
   9.000000E+99

> <Gold.Chemscore.Hbonds>
donor molecule, donor type, donor heavy atom, donor atom, acceptor molecule, acceptor atom, score
      L1  H     9    31       P1  7957  0.43
      L1  H    12    35       P1  7948  0.99
      L1  H    14    47       P1  7948  1.00

> <Gold.Chemscore.Hbond.Weighted>
-9.2320

> <Gold.Chemscore.Metal.Weighted>
-0.0000

> <Gold.Chemscore.Lipo.Weighted>
-10.7010

> <Gold.Chemscore.Internal_Hbond.Weighted>
0.0000

> <Gold.Chemscore.DEClash.Weighted>
0.1616

> <Gold.Chemscore.DEInternal.Weighted>
1.5993

> <Gold.Chemscore.Rot.Weighted>
6.7894

> <Gold.Chemscore.Internal.Correction.Weighted>
   9.000000E+99

> <Gold.Protein.RotatedTorsions>
[ 6907 6896 6895 6894 ] final   41.88 input  -60.11 | X-H torsion
[ 7974 7965 7964 7962 ] final  148.40 input  175.53 | X-H torsion
[ 8008 7997 7996 7995 ] final   13.38 input   59.86 | X-H torsion
[ 10167 10162 10161 10158 ] final  -74.15 input  -65.29 | X-H torsion
[ 10718 10713 10712 10709 ] final -137.77 input   66.30 | X-H torsion
[ 10763 10752 10751 10750 ] final  177.81 input  -60.55 | X-H torsion
[ 11005 11000 10999 10996 ] final -162.02 input  -57.11 | X-H torsion

> <Gold.Protein.ActiveResidues>
 VAL166  LYS551  ARG553  GLY616  TRP617  ASP618  TYR619  PRO620  LYS621  CYS622 
 ASP623  PHE694  ASN695  SER759  ASP760  ASP761  ALA762  ILE779  LEU786  VAL792 
 PHE793  MET794  SER795  GLU796  ALA797  LYS798  CYS799  TRP800  GLU811  SER814 

> <Gold.Protein.RotatedAtoms>
  152.2009  134.8588  160.0507 H   0  0  0  0  0  0  0  0  0  0  0  0  # atno 6907 bound_to 6896
  151.9442  133.3642  159.3984 H   0  0  0  0  0  0  0  0  0  0  0  0  # atno 6908 bound_to 6896
  150.6954  134.4331  159.5302 H   0  0  0  0  0  0  0  0  0  0  0  0  # atno 6909 bound_to 6896
  144.8517  139.6149  143.5971 H   0  0  0  0  0  0  0  0  0  0  0  0  # atno 7974 bound_to 7965
  154.8337  140.2903  155.5705 H   0  0  0  0  0  0  0  0  0  0  0  0  # atno 8008 bound_to 7997
  156.3007  140.2527  156.3198 H   0  0  0  0  0  0  0  0  0  0  0  0  # atno 8009 bound_to 7997
  154.9203  140.0386  157.1983 H   0  0  0  0  0  0  0  0  0  0  0  0  # atno 8010 bound_to 7997
  140.5051  143.2354  151.7688 H   0  0  0  0  0  0  0  0  0  0  0  0  # atno 10167 bound_to 10162
  156.2918  130.7379  151.1407 H   0  0  0  0  0  0  0  0  0  0  0  0  # atno 10718 bound_to 10713
  154.4995  135.2783  155.1432 H   0  0  0  0  0  0  0  0  0  0  0  0  # atno 10763 bound_to 10752
  154.3072  135.6236  153.5453 H   0  0  0  0  0  0  0  0  0  0  0  0  # atno 10764 bound_to 10752
  152.9900  135.5711  154.5434 H   0  0  0  0  0  0  0  0  0  0  0  0  # atno 10765 bound_to 10752
  140.6139  134.4821  157.5218 H   0  0  0  0  0  0  0  0  0  0  0  0  # atno 11005 bound_to 11000
  146.2790  139.6827  142.9242 LP  0  0  0  0  0  0  0  0  0  0  0  0  # atno 17320 bound_to 7965
  145.4487  141.0427  143.2817 LP  0  0  0  0  0  0  0  0  0  0  0  0  # atno 17321 bound_to 7965
  139.4881  144.4469  151.9700 LP  0  0  0  0  0  0  0  0  0  0  0  0  # atno 17342 bound_to 10162
  140.3559  144.3032  150.5941 LP  0  0  0  0  0  0  0  0  0  0  0  0  # atno 17343 bound_to 10162
  157.7344  131.0581  150.5523 LP  0  0  0  0  0  0  0  0  0  0  0  0  # atno 17370 bound_to 10713
  156.5641  130.4263  149.6049 LP  0  0  0  0  0  0  0  0  0  0  0  0  # atno 17371 bound_to 10713
  139.9181  134.8205  156.1300 LP  0  0  0  0  0  0  0  0  0  0  0  0  # atno 17394 bound_to 11000
  141.0789  133.6763  156.2295 LP  0  0  0  0  0  0  0  0  0  0  0  0  # atno 17395 bound_to 11000

$$$$
