AV-unprocessed.smi:34|AV-procd|sdf|241|dock4
  -GOLD-   2262015593D 1   1.00000     0.00000
 Structure written by MMmdl.
 54 58  0  0  0  0  0  0  0  0  2 V2000
  147.1995  135.3043  163.0770 O   0  0  0  0  0  0  0  0  0  0  0  0
  146.3672  134.5466  162.5737 C   0  0  0  0  0  0  0  0  0  0  0  0
  146.5965  133.4612  161.7915 N   0  5  0  0  0  0  0  0  0  0  0  0
  146.8680  133.6223  160.4875 C   0  0  0  0  0  0  0  0  0  0  0  0
  146.4737  132.6869  159.5860 N   0  0  0  0  0  0  0  0  0  0  0  0
  146.7446  132.8443  158.2847 C   0  0  0  0  0  0  0  0  0  0  0  0
  147.3899  133.8441  157.6750 N   0  0  0  0  0  0  0  0  0  0  0  0
  147.7986  134.7855  158.5744 C   0  0  0  0  0  0  0  0  0  0  0  0
  147.5823  134.7432  159.9815 C   0  0  0  0  0  0  0  0  0  0  0  0
  148.1343  135.8581  160.5950 N   0  0  0  0  0  0  0  0  0  0  0  0
  148.6441  136.5146  159.5545 C   0  0  0  0  0  0  0  0  0  0  0  0
  148.4824  135.9635  158.3332 N   0  0  0  0  0  0  0  0  0  0  0  0
  148.9476  136.4549  156.9965 C   0  0  2  0  0  0  0  0  0  0  0  0
  150.3094  136.7705  157.0759 O   0  0  0  0  0  0  0  0  0  0  0  0
  150.5200  138.1701  156.9084 C   0  0  2  0  0  0  0  0  0  0  0  0
  150.6158  138.8513  158.2836 C   0  0  0  0  0  0  0  0  0  0  0  0
  150.7966  140.2468  158.1064 O   0  0  0  0  0  0  0  0  0  0  0  0
  151.9209  140.8439  158.5460 C   0  0  0  0  0  0  0  0  0  0  0  0
  152.9895  140.2514  158.7082 O   0  0  0  0  0  0  0  0  0  0  0  0
  151.7355  142.2986  158.8183 C   0  0  0  0  0  0  0  0  0  0  0  0
  152.2357  142.8481  160.0220 C   0  0  0  0  0  0  0  0  0  0  0  0
  152.0717  144.2174  160.3083 C   0  0  0  0  0  0  0  0  0  0  0  0
  151.4054  145.0543  159.3943 C   0  0  0  0  0  0  0  0  0  0  0  0
  150.9034  144.5201  158.1933 C   0  0  0  0  0  0  0  0  0  0  0  0
  151.0664  143.1509  157.9052 C   0  0  0  0  0  0  0  0  0  0  0  0
  149.3242  138.6259  156.0704 C   0  0  1  0  0  0  0  0  0  0  0  0
  149.5784  138.3997  154.7804 F   0  0  0  0  0  0  0  0  0  0  0  0
  148.1942  137.7211  156.5290 C   0  0  2  0  0  0  0  0  0  0  0  0
  147.4220  138.3605  157.5308 O   0  0  0  0  0  0  0  0  0  0  0  0
  144.9041  134.8487  162.7626 C   0  0  0  0  0  0  0  0  0  0  0  0
  143.9863  133.7866  162.9311 C   0  0  0  0  0  0  0  0  0  0  0  0
  142.6100  134.0452  163.0811 C   0  0  0  0  0  0  0  0  0  0  0  0
  142.1346  135.3695  163.0563 C   0  0  0  0  0  0  0  0  0  0  0  0
  143.0364  136.4347  162.8767 C   0  0  0  0  0  0  0  0  0  0  0  0
  144.4127  136.1768  162.7252 C   0  0  0  0  0  0  0  0  0  0  0  0
  146.3912  132.0551  157.6378 H   0  0  0  0  0  0  0  0  0  0  0  0
  149.1649  137.4498  159.6943 H   0  0  0  0  0  0  0  0  0  0  0  0
  148.8085  135.6016  156.3315 H   0  0  0  0  0  0  0  0  0  0  0  0
  151.4562  138.3293  156.3719 H   0  0  0  0  0  0  0  0  0  0  0  0
  149.7202  138.6624  158.8760 H   0  0  0  0  0  0  0  0  0  0  0  0
  151.4641  138.4474  158.8376 H   0  0  0  0  0  0  0  0  0  0  0  0
  152.7498  142.2247  160.7395 H   0  0  0  0  0  0  0  0  0  0  0  0
  152.4574  144.6253  161.2311 H   0  0  0  0  0  0  0  0  0  0  0  0
  151.2793  146.1040  159.6144 H   0  0  0  0  0  0  0  0  0  0  0  0
  150.3914  145.1612  157.4908 H   0  0  0  0  0  0  0  0  0  0  0  0
  150.6675  142.7733  156.9750 H   0  0  0  0  0  0  0  0  0  0  0  0
  149.1019  139.6900  156.1622 H   0  0  0  0  0  0  0  0  0  0  0  0
  147.5266  137.4618  155.7064 H   0  0  0  0  0  0  0  0  0  0  0  0
  146.5106  138.1574  157.3816 H   0  0  0  0  0  0  0  0  0  0  0  0
  144.3341  132.7639  162.9502 H   0  0  0  0  0  0  0  0  0  0  0  0
  141.9191  133.2260  163.2132 H   0  0  0  0  0  0  0  0  0  0  0  0
  141.0792  135.5678  163.1706 H   0  0  0  0  0  0  0  0  0  0  0  0
  142.6729  137.4514  162.8505 H   0  0  0  0  0  0  0  0  0  0  0  0
  145.0857  137.0090  162.5765 H   0  0  0  0  0  0  0  0  0  0  0  0
  1  2  2  0  0  0  0
  2  3  1  0  0  0  0
  2 30  1  0  0  0  0
  3  4  1  0  0  0  0
  4  9  1  0  0  0  0
  4  5  2  0  0  0  0
  5  6  1  0  0  0  0
  6  7  2  0  0  0  0
  6 36  1  0  0  0  0
  7  8  1  0  0  0  0
  8 12  1  0  0  0  0
  8  9  2  0  0  0  0
  9 10  1  0  0  0  0
 10 11  2  0  0  0  0
 11 12  1  0  0  0  0
 11 37  1  0  0  0  0
 12 13  1  0  0  0  0
 13 28  1  0  0  0  0
 13 14  1  0  0  0  0
 13 38  1  0  0  0  0
 14 15  1  0  0  0  0
 15 16  1  0  0  0  0
 15 26  1  0  0  0  0
 15 39  1  0  0  0  0
 16 17  1  0  0  0  0
 16 40  1  0  0  0  0
 16 41  1  0  0  0  0
 17 18  1  0  0  0  0
 18 19  2  0  0  0  0
 18 20  1  0  0  0  0
 20 25  1  0  0  0  0
 20 21  2  0  0  0  0
 21 22  1  0  0  0  0
 21 42  1  0  0  0  0
 22 23  2  0  0  0  0
 22 43  1  0  0  0  0
 23 24  1  0  0  0  0
 23 44  1  0  0  0  0
 24 25  2  0  0  0  0
 24 45  1  0  0  0  0
 25 46  1  0  0  0  0
 26 27  1  0  0  0  0
 26 28  1  0  0  0  0
 26 47  1  0  0  0  0
 28 29  1  0  0  0  0
 28 48  1  0  0  0  0
 29 49  1  0  0  0  0
 30 35  1  0  0  0  0
 30 31  2  0  0  0  0
 31 32  1  0  0  0  0
 31 50  1  0  0  0  0
 32 33  2  0  0  0  0
 32 51  1  0  0  0  0
 33 34  1  0  0  0  0
 33 52  1  0  0  0  0
 34 35  2  0  0  0  0
 34 53  1  0  0  0  0
 35 54  1  0  0  0  0
M  CHG  1   3  -1
M  END
> <s_m_source_file>
AV-unprocessed.smi

> <i_m_source_file_index>
34

> <i_lp_mmshare_version>
43012

> <i_f3d_flags>
0

> <s_epik_input>
W2NIXTFbY0hdW2NIXVtjSF1bY0hdYzFDKD1PKVtOSF1jKG5bY0hdbjIpYyhjMjMpbltjSF1uM1tDQEBIXTRPW0NASF0oW0NAQEhdKEYpW0NASF00W09IXSlbQ0gyXU9DKD1PKWM1W2NIXVtjSF1bY0hdW2NIXVtjSF01

> <s_epik_cmdline>
J2VwaWtfcHl0aG9uJywgJy1waCcsICc3LjAnLCAnLXRuJywgJzgnLCAnLW1hJywgJzIwMCcsICctbWV0YWxfYmluZGluZycsICctaW1hZScsICc8aW5maWxlLm1hZT4nLCAnLW9tYWUnLCAnPG91dGZpbGUubWFlPic=

> <r_lp_tautomer_probability>
1

> <r_epik_Ionization_Penalty>
4.33227

> <r_epik_Ionization_Penalty_Charging>
3.41027

> <r_epik_Ionization_Penalty_Neutral>
0.922001

> <r_epik_State_Penalty>
3.41358

> <r_epik_Charging_Adjusted_Penalty>
6.82385

> <i_epik_Tot_Q>
-1

> <i_epik_Tot_abs_Q>
1

> <r_epik_Metal_State_Penalty>
0.496292

> <b_epik_Metal_Only>
1

> <s_epik_Chemistry_Notes>
This compound has an ester and may undergo hydrolysis at high or low pH. This compound contains an acetal/aminal-like group ( X-CH(R)-Y where X, Y are N, S, or O) that may be acid/base labile, releasing an aldehyde.

> <s_lp_Force_Field>
OPLS_2005

> <r_lp_Energy>
50.7645

> <b_lp_Chiralities_Consistent>
1

> <s_lp_Variant>
AV-unprocessed.smi:34-27

> <Gold.Version>
5.8.1

> <Gold.Id.Protein>
6NUR|6NUR_protein|mol2

> <Gold.PLP.Fitness>
51.7521

> <Gold.PLP.PLP>
-54.7275

> <Gold.PLP.part.hbond>
-1.0000

> <Gold.PLP.part.metal>
0.0000

> <Gold.PLP.part.buried>
-9.7889

> <Gold.PLP.part.nonpolar>
-44.3218

> <Gold.PLP.part.repulsive>
0.0000

> <Gold.PLP.ligand.clash>
0.0217

> <Gold.PLP.ligand.torsion>
3.1911

> <Gold.PLP.Chemscore.Hbond>
0.9440

> <Gold.PLP.Chemscore.CHOScore>
0.0000

> <Gold.PLP.Chemscore.Metal>
0.0000

> <Gold.Chemscore.Hbonds>
donor molecule, donor type, donor heavy atom, donor atom, acceptor molecule, acceptor atom, score
      P1  H  7997  8010       L1    19  0.14

> <Gold.PLP.Chemscore.Internal.Correction>
0.5965

> <Gold.Rescore>
     Score         DG    S(hbond)    S(metal)    S(lipo)     H(rot)  DE(clash)    DE(int)     intcor
     11.18     -16.13       0.93        0.00     123.40       2.69       0.01       4.95       ----

> <Gold.Chemscore.Fitness>
11.1797

> <Gold.Chemscore.DG>
-16.1333

> <Gold.Chemscore.ZeroCoef>
-5.4800

> <Gold.Chemscore.Hbond>
0.9322

> <Gold.Chemscore.Metal>
0.0000

> <Gold.Chemscore.Lipo>
123.3959

> <Gold.Chemscore.Internal_Hbond>
0.0000

> <Gold.Chemscore.DEClash>
0.0053

> <Gold.Chemscore.DEInternal>
4.9484

> <Gold.Chemscore.Rot>
2.6944

> <Gold.Chemscore.Internal.Correction>
   9.000000E+99

> <Gold.Chemscore.Hbonds>
donor molecule, donor type, donor heavy atom, donor atom, acceptor molecule, acceptor atom, score
      P1  H  7997  8010       L1    19  0.15

> <Gold.Chemscore.Hbond.Weighted>
-3.1135

> <Gold.Chemscore.Metal.Weighted>
-0.0000

> <Gold.Chemscore.Lipo.Weighted>
-14.4373

> <Gold.Chemscore.Internal_Hbond.Weighted>
0.0000

> <Gold.Chemscore.DEClash.Weighted>
0.0053

> <Gold.Chemscore.DEInternal.Weighted>
4.9484

> <Gold.Chemscore.Rot.Weighted>
6.8975

> <Gold.Chemscore.Internal.Correction.Weighted>
   9.000000E+99

> <Gold.Protein.RotatedTorsions>
[ 6907 6896 6895 6894 ] final  -90.73 input  -60.11 | X-H torsion
[ 7974 7965 7964 7962 ] final    0.87 input  175.53 | X-H torsion
[ 8008 7997 7996 7995 ] final   17.31 input   59.86 | X-H torsion
[ 10167 10162 10161 10158 ] final  116.85 input  -65.29 | X-H torsion
[ 10718 10713 10712 10709 ] final  -19.74 input   66.30 | X-H torsion
[ 10763 10752 10751 10750 ] final -172.83 input  -60.55 | X-H torsion
[ 11005 11000 10999 10996 ] final -123.96 input  -57.11 | X-H torsion

> <Gold.Protein.ActiveResidues>
 VAL166  LYS551  ARG553  GLY616  TRP617  ASP618  TYR619  PRO620  LYS621  CYS622 
 ASP623  PHE694  ASN695  SER759  ASP760  ASP761  ALA762  ILE779  LEU786  VAL792 
 PHE793  MET794  SER795  GLU796  ALA797  LYS798  CYS799  TRP800  GLU811  SER814 

> <Gold.Protein.RotatedAtoms>
  150.6885  134.2387  159.4463 H   0  0  0  0  0  0  0  0  0  0  0  0  # atno 6907 bound_to 6896
  152.0332  134.9753  160.0582 H   0  0  0  0  0  0  0  0  0  0  0  0  # atno 6908 bound_to 6896
  152.1284  133.4358  159.4746 H   0  0  0  0  0  0  0  0  0  0  0  0  # atno 6909 bound_to 6896
  146.2437  140.1073  142.8345 H   0  0  0  0  0  0  0  0  0  0  0  0  # atno 7974 bound_to 7965
  154.8896  140.2985  155.5378 H   0  0  0  0  0  0  0  0  0  0  0  0  # atno 8008 bound_to 7997
  156.3021  140.2427  156.3844 H   0  0  0  0  0  0  0  0  0  0  0  0  # atno 8009 bound_to 7997
  154.8632  140.0404  157.1667 H   0  0  0  0  0  0  0  0  0  0  0  0  # atno 8010 bound_to 7997
  139.6219  144.7102  151.2616 H   0  0  0  0  0  0  0  0  0  0  0  0  # atno 10167 bound_to 10162
  156.5415  130.4679  149.6496 H   0  0  0  0  0  0  0  0  0  0  0  0  # atno 10718 bound_to 10713
  154.6149  135.2868  155.0391 H   0  0  0  0  0  0  0  0  0  0  0  0  # atno 10763 bound_to 10752
  154.1608  135.6488  153.4989 H   0  0  0  0  0  0  0  0  0  0  0  0  # atno 10764 bound_to 10752
  153.0210  135.5377  154.6916 H   0  0  0  0  0  0  0  0  0  0  0  0  # atno 10765 bound_to 10752
  140.9878  134.0582  157.3690 H   0  0  0  0  0  0  0  0  0  0  0  0  # atno 11005 bound_to 11000
  145.0517  140.9022  143.4991 LP  0  0  0  0  0  0  0  0  0  0  0  0  # atno 17320 bound_to 7965
  145.1172  139.2717  143.5607 LP  0  0  0  0  0  0  0  0  0  0  0  0  # atno 17321 bound_to 7965
  140.7387  143.6640  150.8139 LP  0  0  0  0  0  0  0  0  0  0  0  0  # atno 17342 bound_to 10162
  140.0252  143.5501  152.2783 LP  0  0  0  0  0  0  0  0  0  0  0  0  # atno 17343 bound_to 10162
  156.2967  130.7154  151.2016 LP  0  0  0  0  0  0  0  0  0  0  0  0  # atno 17370 bound_to 10713
  157.7404  131.0517  150.5167 LP  0  0  0  0  0  0  0  0  0  0  0  0  # atno 17371 bound_to 10713
  139.8978  135.0152  156.7120 LP  0  0  0  0  0  0  0  0  0  0  0  0  # atno 17394 bound_to 11000
  140.7087  133.9242  155.8070 LP  0  0  0  0  0  0  0  0  0  0  0  0  # atno 17395 bound_to 11000

$$$$
