AV-unprocessed.smi:134|AV-procd|sdf|1168|dock3
  -GOLD-   2262018313D 1   1.00000     0.00000
 Structure written by MMmdl.
 51 54  0  0  0  0  0  0  0  0  1 V2000
  150.6957  137.1152  159.8646 O   0  0  0  0  0  0  0  0  0  0  0  0
  149.8383  137.1946  158.9864 C   0  0  0  0  0  0  0  0  0  0  0  0
  150.1893  137.9316  157.6800 C   0  0  0  0  0  0  0  0  0  0  0  0
  149.9713  139.3978  157.7053 N   0  0  0  0  0  0  0  0  0  0  0  0
  148.8093  139.9218  157.0852 C   0  0  0  0  0  0  0  0  0  0  0  0
  147.9890  139.1817  156.5408 O   0  0  0  0  0  0  0  0  0  0  0  0
  148.6717  141.3730  157.1265 C   0  0  0  0  0  0  0  0  0  0  0  0
  147.6040  141.9567  156.5565 F   0  0  0  0  0  0  0  0  0  0  0  0
  149.6043  142.1421  157.7241 C   0  0  0  0  0  0  0  0  0  0  0  0
  150.7320  141.6179  158.3301 N   0  0  0  0  0  0  0  0  0  0  0  0
  151.7590  142.5069  159.0007 C   0  0  1  0  0  0  0  0  0  0  0  0
  152.2893  143.5481  158.0111 C   0  0  0  0  0  0  0  0  0  0  0  0
  151.3253  144.6932  158.2240 C   0  0  0  0  0  0  0  0  0  0  0  0
  151.0608  144.5967  159.7230 C   0  0  0  0  0  0  0  0  0  0  0  0
  151.1512  143.2096  160.0465 O   0  0  0  0  0  0  0  0  0  0  0  0
  150.9425  140.2218  158.3229 C   0  0  0  0  0  0  0  0  0  0  0  0
  151.9537  139.7371  158.8350 O   0  0  0  0  0  0  0  0  0  0  0  0
  148.6085  136.6538  159.0840 N   0  0  0  0  0  0  0  0  0  0  0  0
  148.0245  135.9407  160.1666 C   0  0  0  0  0  0  0  0  0  0  0  0
  148.2161  136.3173  161.5182 C   0  0  0  0  0  0  0  0  0  0  0  0
  147.5874  135.5992  162.5536 C   0  0  0  0  0  0  0  0  0  0  0  0
  146.7537  134.5069  162.2513 C   0  0  0  0  0  0  0  0  0  0  0  0
  146.5434  134.1350  160.9107 C   0  0  0  0  0  0  0  0  0  0  0  0
  147.1724  134.8489  159.8711 C   0  0  0  0  0  0  0  0  0  0  0  0
  146.8904  134.3480  158.1982 S   0  0  0  0  0  0  0  0  0  0  0  0
  145.4482  133.3582  158.4115 C   0  0  0  0  0  0  0  0  0  0  0  0
  144.2698  133.9304  158.9306 C   0  0  0  0  0  0  0  0  0  0  0  0
  143.1244  133.1328  159.1158 C   0  0  0  0  0  0  0  0  0  0  0  0
  143.1561  131.7653  158.7779 C   0  0  0  0  0  0  0  0  0  0  0  0
  141.7539  130.7870  159.0085 Cl  0  0  0  0  0  0  0  0  0  0  0  0
  144.3332  131.1960  158.2521 C   0  0  0  0  0  0  0  0  0  0  0  0
  145.4802  131.9925  158.0679 C   0  0  0  0  0  0  0  0  0  0  0  0
  151.2286  137.7057  157.4368 H   0  0  0  0  0  0  0  0  0  0  0  0
  149.6281  137.4657  156.8687 H   0  0  0  0  0  0  0  0  0  0  0  0
  149.4498  143.2106  157.7159 H   0  0  0  0  0  0  0  0  0  0  0  0
  152.5227  141.8349  159.3958 H   0  0  0  0  0  0  0  0  0  0  0  0
  153.2986  143.8334  158.3100 H   0  0  0  0  0  0  0  0  0  0  0  0
  152.3145  143.1748  156.9892 H   0  0  0  0  0  0  0  0  0  0  0  0
  151.7328  145.6585  157.9228 H   0  0  0  0  0  0  0  0  0  0  0  0
  150.4060  144.5205  157.6630 H   0  0  0  0  0  0  0  0  0  0  0  0
  151.8320  145.1322  160.2780 H   0  0  0  0  0  0  0  0  0  0  0  0
  150.0922  145.0104  160.0041 H   0  0  0  0  0  0  0  0  0  0  0  0
  148.0434  136.7004  158.2485 H   0  0  0  0  0  0  0  0  0  0  0  0
  148.8284  137.1657  161.7825 H   0  0  0  0  0  0  0  0  0  0  0  0
  147.7395  135.8931  163.5817 H   0  0  0  0  0  0  0  0  0  0  0  0
  146.2710  133.9585  163.0469 H   0  0  0  0  0  0  0  0  0  0  0  0
  145.8998  133.2982  160.6819 H   0  0  0  0  0  0  0  0  0  0  0  0
  144.2409  134.9778  159.1899 H   0  0  0  0  0  0  0  0  0  0  0  0
  142.2228  133.5715  159.5176 H   0  0  0  0  0  0  0  0  0  0  0  0
  144.3585  130.1480  157.9916 H   0  0  0  0  0  0  0  0  0  0  0  0
  146.3822  131.5530  157.6678 H   0  0  0  0  0  0  0  0  0  0  0  0
  1  2  2  0  0  0  0
  2  3  1  0  0  0  0
  2 18  1  0  0  0  0
  3  4  1  0  0  0  0
  3 33  1  0  0  0  0
  3 34  1  0  0  0  0
  4 16  1  0  0  0  0
  4  5  1  0  0  0  0
  5  6  2  0  0  0  0
  5  7  1  0  0  0  0
  7  8  1  0  0  0  0
  7  9  2  0  0  0  0
  9 10  1  0  0  0  0
  9 35  1  0  0  0  0
 10 11  1  0  0  0  0
 10 16  1  0  0  0  0
 11 15  1  0  0  0  0
 11 12  1  0  0  0  0
 11 36  1  0  0  0  0
 12 13  1  0  0  0  0
 12 37  1  0  0  0  0
 12 38  1  0  0  0  0
 13 14  1  0  0  0  0
 13 39  1  0  0  0  0
 13 40  1  0  0  0  0
 14 15  1  0  0  0  0
 14 41  1  0  0  0  0
 14 42  1  0  0  0  0
 16 17  2  0  0  0  0
 18 19  1  0  0  0  0
 18 43  1  0  0  0  0
 19 24  1  0  0  0  0
 19 20  2  0  0  0  0
 20 21  1  0  0  0  0
 20 44  1  0  0  0  0
 21 22  2  0  0  0  0
 21 45  1  0  0  0  0
 22 23  1  0  0  0  0
 22 46  1  0  0  0  0
 23 24  2  0  0  0  0
 23 47  1  0  0  0  0
 24 25  1  0  0  0  0
 25 26  1  0  0  0  0
 26 32  1  0  0  0  0
 26 27  2  0  0  0  0
 27 28  1  0  0  0  0
 27 48  1  0  0  0  0
 28 29  2  0  0  0  0
 28 49  1  0  0  0  0
 29 30  1  0  0  0  0
 29 31  1  0  0  0  0
 31 32  2  0  0  0  0
 31 50  1  0  0  0  0
 32 51  1  0  0  0  0
M  END
> <s_m_source_file>
AV-unprocessed.smi

> <i_m_source_file_index>
134

> <i_lp_mmshare_version>
43012

> <i_f3d_flags>
0

> <s_epik_input>
TzFbQ0gyXVtDSDJdW0NIMl1bQ0BIXTFuKGMyPU8pW2NIXWMoRiljKD1PKW4yW0NIMl1DKD1PKVtOSF1jM1tjSF1bY0hdW2NIXVtjSF1jM1NjNFtjSF1bY0hdYyhDbClbY0hdW2NIXTQ=

> <s_epik_cmdline>
J2VwaWtfcHl0aG9uJywgJy1waCcsICc3LjAnLCAnLXRuJywgJzgnLCAnLW1hJywgJzIwMCcsICctbWV0YWxfYmluZGluZycsICctaW1hZScsICc8aW5maWxlLm1hZT4nLCAnLW9tYWUnLCAnPG91dGZpbGUubWFlPic=

> <r_lp_tautomer_probability>
1

> <r_epik_Ionization_Penalty>
2.01717e-06

> <r_epik_Ionization_Penalty_Charging>
3.88729e-08

> <r_epik_Ionization_Penalty_Neutral>
1.9783e-06

> <r_epik_State_Penalty>
-0

> <r_epik_Charging_Adjusted_Penalty>
3.88729e-08

> <i_epik_Tot_Q>
0

> <i_epik_Tot_abs_Q>
0

> <r_epik_Metal_State_Penalty>
-0

> <b_epik_Metal_Only>
0

> <s_epik_Chemistry_Notes>
This compound contains an acetal/aminal-like group ( X-CH(R)-Y where X, Y are N, S, or O) that may be acid/base labile, releasing an aldehyde.

> <s_lp_Force_Field>
OPLS_2005

> <r_lp_Energy>
34.7756

> <b_lp_Chiralities_Consistent>
1

> <s_lp_Variant>
AV-unprocessed.smi:134-2

> <Gold.Version>
5.8.1

> <Gold.Id.Protein>
6NUR|6NUR_protein|mol2

> <Gold.PLP.Fitness>
49.4269

> <Gold.PLP.PLP>
-46.7598

> <Gold.PLP.part.hbond>
-2.1735

> <Gold.PLP.part.metal>
0.0000

> <Gold.PLP.part.buried>
-7.3927

> <Gold.PLP.part.nonpolar>
-36.6054

> <Gold.PLP.part.repulsive>
0.2082

> <Gold.PLP.ligand.clash>
0.0000

> <Gold.PLP.ligand.torsion>
1.1479

> <Gold.PLP.Chemscore.Hbond>
0.8938

> <Gold.PLP.Chemscore.CHOScore>
0.7301

> <Gold.PLP.Chemscore.Metal>
0.0000

> <Gold.Chemscore.Hbonds>
donor molecule, donor type, donor heavy atom, donor atom, acceptor molecule, acceptor atom, score
      P1  H  6896  6908       L1     1  0.93
      L1  C     9    35       P1  8028  0.80

> <Gold.PLP.Chemscore.Internal.Correction>
0.0912

> <Gold.Rescore>
     Score         DG    S(hbond)    S(metal)    S(lipo)     H(rot)  DE(clash)    DE(int)     intcor
     14.40     -16.22       0.98        0.00     106.69       1.95       0.03       1.79       ----

> <Gold.Chemscore.Fitness>
14.4042

> <Gold.Chemscore.DG>
-16.2228

> <Gold.Chemscore.ZeroCoef>
-5.4800

> <Gold.Chemscore.Hbond>
0.9775

> <Gold.Chemscore.Metal>
0.0000

> <Gold.Chemscore.Lipo>
106.6895

> <Gold.Chemscore.Internal_Hbond>
0.0000

> <Gold.Chemscore.DEClash>
0.0289

> <Gold.Chemscore.DEInternal>
1.7896

> <Gold.Chemscore.Rot>
1.9549

> <Gold.Chemscore.Internal.Correction>
   9.000000E+99

> <Gold.Chemscore.Hbonds>
donor molecule, donor type, donor heavy atom, donor atom, acceptor molecule, acceptor atom, score
      P1  H  6896  6908       L1     1  0.40

> <Gold.Chemscore.Hbond.Weighted>
-3.2648

> <Gold.Chemscore.Metal.Weighted>
-0.0000

> <Gold.Chemscore.Lipo.Weighted>
-12.4827

> <Gold.Chemscore.Internal_Hbond.Weighted>
0.0000

> <Gold.Chemscore.DEClash.Weighted>
0.0289

> <Gold.Chemscore.DEInternal.Weighted>
1.7896

> <Gold.Chemscore.Rot.Weighted>
5.0046

> <Gold.Chemscore.Internal.Correction.Weighted>
   9.000000E+99

> <Gold.Protein.RotatedTorsions>
[ 6907 6896 6895 6894 ] final -143.46 input  -60.11 | X-H torsion
[ 7974 7965 7964 7962 ] final  -75.71 input  175.53 | X-H torsion
[ 8008 7997 7996 7995 ] final -110.03 input   59.86 | X-H torsion
[ 10167 10162 10161 10158 ] final   36.31 input  -65.29 | X-H torsion
[ 10718 10713 10712 10709 ] final  -60.17 input   66.30 | X-H torsion
[ 10763 10752 10751 10750 ] final -129.47 input  -60.55 | X-H torsion
[ 11005 11000 10999 10996 ] final  170.38 input  -57.11 | X-H torsion

> <Gold.Protein.ActiveResidues>
 VAL166  LYS551  ARG553  GLY616  TRP617  ASP618  TYR619  PRO620  LYS621  CYS622 
 ASP623  PHE694  ASN695  SER759  ASP760  ASP761  ALA762  ILE779  LEU786  VAL792 
 PHE793  MET794  SER795  GLU796  ALA797  LYS798  CYS799  TRP800  GLU811  SER814 

> <Gold.Protein.RotatedAtoms>
  151.1008  133.5245  159.2609 H   0  0  0  0  0  0  0  0  0  0  0  0  # atno 6907 bound_to 6896
  151.2076  135.0468  159.8908 H   0  0  0  0  0  0  0  0  0  0  0  0  # atno 6908 bound_to 6896
  152.5443  134.0828  159.8296 H   0  0  0  0  0  0  0  0  0  0  0  0  # atno 6909 bound_to 6896
  145.6224  140.9359  143.1131 H   0  0  0  0  0  0  0  0  0  0  0  0  # atno 7974 bound_to 7965
  154.9684  140.0398  157.2223 H   0  0  0  0  0  0  0  0  0  0  0  0  # atno 8008 bound_to 7997
  154.7824  140.2821  155.6031 H   0  0  0  0  0  0  0  0  0  0  0  0  # atno 8009 bound_to 7997
  156.2938  140.2589  156.2652 H   0  0  0  0  0  0  0  0  0  0  0  0  # atno 8010 bound_to 7997
  140.4140  144.1553  150.6141 H   0  0  0  0  0  0  0  0  0  0  0  0  # atno 10167 bound_to 10162
  156.1010  130.4186  150.0816 H   0  0  0  0  0  0  0  0  0  0  0  0  # atno 10718 bound_to 10713
  154.8757  135.3894  154.3925 H   0  0  0  0  0  0  0  0  0  0  0  0  # atno 10763 bound_to 10752
  153.4659  135.7029  153.6027 H   0  0  0  0  0  0  0  0  0  0  0  0  # atno 10764 bound_to 10752
  153.4505  135.3835  155.2249 H   0  0  0  0  0  0  0  0  0  0  0  0  # atno 10765 bound_to 10752
  140.3077  134.7543  157.3967 H   0  0  0  0  0  0  0  0  0  0  0  0  # atno 11005 bound_to 11000
  144.7226  139.7981  143.7376 LP  0  0  0  0  0  0  0  0  0  0  0  0  # atno 17320 bound_to 7965
  146.1421  139.4480  143.0102 LP  0  0  0  0  0  0  0  0  0  0  0  0  # atno 17321 bound_to 7965
  140.4607  143.2450  151.9223 LP  0  0  0  0  0  0  0  0  0  0  0  0  # atno 17342 bound_to 10162
  139.4782  144.5470  151.8443 LP  0  0  0  0  0  0  0  0  0  0  0  0  # atno 17343 bound_to 10162
  156.8804  130.9554  151.3600 LP  0  0  0  0  0  0  0  0  0  0  0  0  # atno 17370 bound_to 10713
  157.6179  130.8633  149.9060 LP  0  0  0  0  0  0  0  0  0  0  0  0  # atno 17371 bound_to 10713
  140.1052  134.5419  155.8316 LP  0  0  0  0  0  0  0  0  0  0  0  0  # atno 17394 bound_to 11000
  141.2115  133.6707  156.6586 LP  0  0  0  0  0  0  0  0  0  0  0  0  # atno 17395 bound_to 11000

$$$$
