AV-unprocessed.smi:72|AV-procd|sdf|675|dock4
  -GOLD-   2262016583D 1   1.00000     0.00000
 Structure written by MMmdl.
 29 30  0  0  0  0  0  0  0  0  1 V2000
  153.6439  138.6665  154.9657 N   0  0  0  0  0  0  0  0  0  0  0  0
  152.3599  138.6986  154.9150 C   0  0  0  0  0  0  0  0  0  0  0  0
  151.5410  137.6588  154.4487 N   0  0  0  0  0  0  0  0  0  0  0  0
  150.2549  137.8289  154.4561 C   0  0  0  0  0  0  0  0  0  0  0  0
  149.6379  139.0578  154.9302 N   0  0  0  0  0  0  0  0  0  0  0  0
  148.1332  139.2292  154.9216 C   0  0  2  0  0  0  0  0  0  0  0  0
  147.5383  137.9850  154.7037 O   0  0  0  0  0  0  0  0  0  0  0  0
  146.4097  138.1437  153.8506 C   0  0  2  0  0  0  0  0  0  0  0  0
  146.0250  136.8134  153.1788 C   0  0  0  0  0  0  0  0  0  0  0  0
  146.9672  135.8137  153.5044 O   0  0  0  0  0  0  0  0  0  0  0  0
  146.8463  139.2651  152.8969 C   0  0  2  0  0  0  0  0  0  0  0  0
  147.6399  138.7517  151.8394 O   0  0  0  0  0  0  0  0  0  0  0  0
  147.6327  140.1901  153.8216 C   0  0  2  0  0  0  0  0  0  0  0  0
  148.6324  140.9384  153.1497 O   0  0  0  0  0  0  0  0  0  0  0  0
  150.4499  140.1222  155.3928 C   0  0  0  0  0  0  0  0  0  0  0  0
  149.9838  141.1925  155.7823 O   0  0  0  0  0  0  0  0  0  0  0  0
  151.7807  139.8904  155.3720 N   0  0  0  0  0  0  0  0  0  0  0  0
  147.8509  139.5611  155.9219 H   0  0  0  0  0  0  0  0  0  0  0  0
  145.5759  138.5153  154.4500 H   0  0  0  0  0  0  0  0  0  0  0  0
  145.9877  139.7733  152.4569 H   0  0  0  0  0  0  0  0  0  0  0  0
  146.9428  140.8883  154.2973 H   0  0  0  0  0  0  0  0  0  0  0  0
  153.9910  137.7828  154.6227 H   0  0  0  0  0  0  0  0  0  0  0  0
  149.5569  137.0668  154.1070 H   0  0  0  0  0  0  0  0  0  0  0  0
  145.0546  136.4759  153.5440 H   0  0  0  0  0  0  0  0  0  0  0  0
  145.9466  136.9213  152.0963 H   0  0  0  0  0  0  0  0  0  0  0  0
  147.6086  135.7686  152.8118 H   0  0  0  0  0  0  0  0  0  0  0  0
  148.4669  139.2092  151.8389 H   0  0  0  0  0  0  0  0  0  0  0  0
  149.0296  140.3831  152.4961 H   0  0  0  0  0  0  0  0  0  0  0  0
  152.3858  140.6290  155.6993 H   0  0  0  0  0  0  0  0  0  0  0  0
  1  2  2  0  0  0  0
  1 22  1  0  0  0  0
  2 17  1  0  0  0  0
  2  3  1  0  0  0  0
  3  4  2  0  0  0  0
  4  5  1  0  0  0  0
  4 23  1  0  0  0  0
  5  6  1  0  0  0  0
  5 15  1  0  0  0  0
  6 18  1  0  0  0  0
  6 13  1  0  0  0  0
  6  7  1  0  0  0  0
  7  8  1  0  0  0  0
  8 19  1  0  0  0  0
  8  9  1  0  0  0  0
  8 11  1  0  0  0  0
  9 10  1  0  0  0  0
  9 24  1  0  0  0  0
  9 25  1  0  0  0  0
 10 26  1  0  0  0  0
 11 20  1  0  0  0  0
 11 12  1  0  0  0  0
 11 13  1  0  0  0  0
 12 27  1  0  0  0  0
 13 21  1  0  0  0  0
 13 14  1  0  0  0  0
 14 28  1  0  0  0  0
 15 16  2  0  0  0  0
 15 17  1  0  0  0  0
 17 29  1  0  0  0  0
M  END
> <s_m_source_file>
AV-unprocessed.smi

> <i_m_source_file_index>
72

> <i_lp_mmshare_version>
43012

> <i_f3d_flags>
0

> <s_epik_input>
W05IMl1jMW5bY0hdbihjKD1PKW4xKVtDQEBIXTJPW0NASF0oW0NIMl1bT0hdKVtDQEBIXShbT0hdKVtDQEhdMltPSF0=

> <s_epik_cmdline>
J2VwaWtfcHl0aG9uJywgJy1waCcsICc3LjAnLCAnLXRuJywgJzgnLCAnLW1hJywgJzIwMCcsICctbWV0YWxfYmluZGluZycsICctaW1hZScsICc8aW5maWxlLm1hZT4nLCAnLW9tYWUnLCAnPG91dGZpbGUubWFlPic=

> <r_lp_tautomer_probability>
7.17554e-07

> <r_epik_Ionization_Penalty>
0.0066451

> <r_epik_Ionization_Penalty_Charging>
0.00663793

> <r_epik_Ionization_Penalty_Neutral>
7.17052e-06

> <r_epik_State_Penalty>
0.419231

> <r_epik_Charging_Adjusted_Penalty>
0.425868

> <i_epik_Tot_Q>
0

> <i_epik_Tot_abs_Q>
0

> <r_epik_Metal_State_Penalty>
1.44144

> <b_epik_Metal_Only>
0

> <s_epik_Chemistry_Notes>
This compound contains an acetal/aminal-like group ( X-CH(R)-Y where X, Y are N, S, or O) that may be acid/base labile, releasing an aldehyde.

> <s_lp_Force_Field>
OPLS_2005

> <r_lp_Energy>
49.9877

> <b_lp_Chiralities_Consistent>
1

> <s_lp_Variant>
AV-unprocessed.smi:72-13

> <Gold.Version>
5.8.1

> <Gold.Id.Protein>
6NUR|6NUR_protein|mol2

> <Gold.PLP.Fitness>
38.2312

> <Gold.PLP.PLP>
-24.4381

> <Gold.PLP.part.hbond>
-5.9752

> <Gold.PLP.part.metal>
0.0000

> <Gold.PLP.part.buried>
-5.5935

> <Gold.PLP.part.nonpolar>
-14.8416

> <Gold.PLP.part.repulsive>
1.2871

> <Gold.PLP.ligand.clash>
0.0000

> <Gold.PLP.ligand.torsion>
1.0193

> <Gold.PLP.Chemscore.Hbond>
4.2750

> <Gold.PLP.Chemscore.CHOScore>
1.0000

> <Gold.PLP.Chemscore.Metal>
0.0000

> <Gold.Chemscore.Hbonds>
donor molecule, donor type, donor heavy atom, donor atom, acceptor molecule, acceptor atom, score
      L1  H    10    26       P1  7948  1.00
      L1  H    12    27       P1  7957  1.00
      L1  H    14    28       P1  7957  0.91
      P1  H  7954  7966       L1    12  0.22
      P1  H  7997  8009       L1     1  0.90
      P1  H  8011  8017       L1    14  0.24
      L1  C     4    23       P1  7948  1.00

> <Gold.PLP.Chemscore.Internal.Correction>
0.0065

> <Gold.Rescore>
     Score         DG    S(hbond)    S(metal)    S(lipo)     H(rot)  DE(clash)    DE(int)     intcor
      9.15     -10.54       3.93        0.00      19.82       4.06       0.11       1.29       ----

> <Gold.Chemscore.Fitness>
9.1450

> <Gold.Chemscore.DG>
-10.5413

> <Gold.Chemscore.ZeroCoef>
-5.4800

> <Gold.Chemscore.Hbond>
3.9330

> <Gold.Chemscore.Metal>
0.0000

> <Gold.Chemscore.Lipo>
19.8169

> <Gold.Chemscore.Internal_Hbond>
0.0000

> <Gold.Chemscore.DEClash>
0.1105

> <Gold.Chemscore.DEInternal>
1.2858

> <Gold.Chemscore.Rot>
4.0600

> <Gold.Chemscore.Internal.Correction>
   9.000000E+99

> <Gold.Chemscore.Hbonds>
donor molecule, donor type, donor heavy atom, donor atom, acceptor molecule, acceptor atom, score
      L1  H    10    26       P1  7948  0.99
      L1  H    12    27       P1  7957  0.89
      L1  H    14    28       P1  7957  0.85
      P1  H  7954  7966       L1    12  0.01
      P1  H  7997  8009       L1     1  0.78

> <Gold.Chemscore.Hbond.Weighted>
-13.1364

> <Gold.Chemscore.Metal.Weighted>
-0.0000

> <Gold.Chemscore.Lipo.Weighted>
-2.3186

> <Gold.Chemscore.Internal_Hbond.Weighted>
0.0000

> <Gold.Chemscore.DEClash.Weighted>
0.1105

> <Gold.Chemscore.DEInternal.Weighted>
1.2858

> <Gold.Chemscore.Rot.Weighted>
10.3936

> <Gold.Chemscore.Internal.Correction.Weighted>
   9.000000E+99

> <Gold.Protein.RotatedTorsions>
[ 6907 6896 6895 6894 ] final  116.67 input  -60.11 | X-H torsion
[ 7974 7965 7964 7962 ] final   30.66 input  175.53 | X-H torsion
[ 8008 7997 7996 7995 ] final -137.00 input   59.86 | X-H torsion
[ 10167 10162 10161 10158 ] final -169.12 input  -65.29 | X-H torsion
[ 10718 10713 10712 10709 ] final  -37.35 input   66.30 | X-H torsion
[ 10763 10752 10751 10750 ] final  110.94 input  -60.55 | X-H torsion
[ 11005 11000 10999 10996 ] final   69.34 input  -57.11 | X-H torsion

> <Gold.Protein.ActiveResidues>
 VAL166  LYS551  ARG553  GLY616  TRP617  ASP618  TYR619  PRO620  LYS621  CYS622 
 ASP623  PHE694  ASN695  SER759  ASP760  ASP761  ALA762  ILE779  LEU786  VAL792 
 PHE793  MET794  SER795  GLU796  ALA797  LYS798  CYS799  TRP800  GLU811  SER814 

> <Gold.Protein.RotatedAtoms>
  152.4662  133.7929  159.6911 H   0  0  0  0  0  0  0  0  0  0  0  0  # atno 6907 bound_to 6896
  150.8628  133.7608  159.2993 H   0  0  0  0  0  0  0  0  0  0  0  0  # atno 6908 bound_to 6896
  151.5168  135.1069  159.9920 H   0  0  0  0  0  0  0  0  0  0  0  0  # atno 6909 bound_to 6896
  146.1598  139.6759  142.9041 H   0  0  0  0  0  0  0  0  0  0  0  0  # atno 7974 bound_to 7965
  155.4046  140.0508  157.3035 H   0  0  0  0  0  0  0  0  0  0  0  0  # atno 8008 bound_to 7997
  154.4974  140.2144  155.9377 H   0  0  0  0  0  0  0  0  0  0  0  0  # atno 8009 bound_to 7997
  156.1424  140.3152  155.8521 H   0  0  0  0  0  0  0  0  0  0  0  0  # atno 8010 bound_to 7997
  139.5942  144.1148  152.1670 H   0  0  0  0  0  0  0  0  0  0  0  0  # atno 10167 bound_to 10162
  156.3162  130.4259  149.8003 H   0  0  0  0  0  0  0  0  0  0  0  0  # atno 10718 bound_to 10713
  153.4562  135.3732  155.2312 H   0  0  0  0  0  0  0  0  0  0  0  0  # atno 10763 bound_to 10752
  154.8757  135.3897  154.3979 H   0  0  0  0  0  0  0  0  0  0  0  0  # atno 10764 bound_to 10752
  153.4545  135.7086  153.6152 H   0  0  0  0  0  0  0  0  0  0  0  0  # atno 10765 bound_to 10752
  139.9659  134.6981  156.0546 H   0  0  0  0  0  0  0  0  0  0  0  0  # atno 11005 bound_to 11000
  145.4616  141.0433  143.2748 LP  0  0  0  0  0  0  0  0  0  0  0  0  # atno 17320 bound_to 7965
  144.8012  139.6137  143.7071 LP  0  0  0  0  0  0  0  0  0  0  0  0  # atno 17321 bound_to 7965
  140.0729  144.5764  150.7178 LP  0  0  0  0  0  0  0  0  0  0  0  0  # atno 17342 bound_to 10162
  140.7198  143.2578  151.4315 LP  0  0  0  0  0  0  0  0  0  0  0  0  # atno 17343 bound_to 10162
  156.5328  130.8265  151.3243 LP  0  0  0  0  0  0  0  0  0  0  0  0  # atno 17370 bound_to 10713
  157.7402  130.9846  150.2362 LP  0  0  0  0  0  0  0  0  0  0  0  0  # atno 17371 bound_to 10713
  141.1339  133.6580  156.3540 LP  0  0  0  0  0  0  0  0  0  0  0  0  # atno 17394 bound_to 11000
  140.5397  134.6132  157.5376 LP  0  0  0  0  0  0  0  0  0  0  0  0  # atno 17395 bound_to 11000

$$$$
