AV-unprocessed.smi:2919|AV-procd|sdf|11195|dock6
  -GOLD-   2272016 83D 1   1.00000     0.00000
 Structure written by MMmdl.
 34 36  0  0  0  0  0  0  0  0  1 V2000
  152.1902  137.8724  154.7742 C   0  0  0  0  0  0  0  0  0  0  0  0
  151.6790  139.2255  155.2361 C   0  0  0  0  0  0  0  0  0  0  0  0
  152.5263  139.9141  156.0318 N   0  0  0  0  0  0  0  0  0  0  0  0
  152.1876  141.1161  156.5003 N   0  0  0  0  0  0  0  0  0  0  0  0
  150.9930  141.6748  156.1889 C   0  0  0  0  0  0  0  0  0  0  0  0
  150.7083  142.9461  156.7210 N   0  0  0  0  0  0  0  0  0  0  0  0
  151.5202  143.5321  157.7824 C   0  0  1  0  0  0  0  0  0  0  0  0
  150.9702  144.8707  158.2925 C   0  0  0  0  0  0  0  0  0  0  0  0
  150.8108  144.5974  159.7932 C   0  0  2  0  0  0  0  0  0  0  0  0
  152.1624  144.4492  160.5050 C   0  0  0  0  0  0  0  0  0  0  0  0
  152.6239  143.0767  160.0158 C   0  0  0  0  0  0  0  0  0  0  0  0
  151.4872  142.6816  159.0636 C   0  0  1  0  0  0  0  0  0  0  0  0
  150.3842  143.2474  159.7536 O   0  0  0  0  0  0  0  0  0  0  0  0
  150.0542  141.0072  155.3601 C   0  0  0  0  0  0  0  0  0  0  0  0
  148.7663  141.6134  155.0276 C   0  0  0  0  0  0  0  0  0  0  0  0
  147.7468  142.0931  154.7644 N   0  0  0  0  0  0  0  0  0  0  0  0
  150.4095  139.7286  154.8610 C   0  0  0  0  0  0  0  0  0  0  0  0
  149.4630  138.9383  153.9608 C   0  0  0  0  0  0  0  0  0  0  0  0
  151.5313  137.0768  155.1223 H   0  0  0  0  0  0  0  0  0  0  0  0
  153.1899  137.6692  155.1602 H   0  0  0  0  0  0  0  0  0  0  0  0
  152.2403  137.8345  153.6858 H   0  0  0  0  0  0  0  0  0  0  0  0
  150.0506  143.5445  156.2420 H   0  0  0  0  0  0  0  0  0  0  0  0
  152.5492  143.6289  157.4334 H   0  0  0  0  0  0  0  0  0  0  0  0
  151.6418  145.7053  158.0891 H   0  0  0  0  0  0  0  0  0  0  0  0
  150.0005  145.1031  157.8495 H   0  0  0  0  0  0  0  0  0  0  0  0
  150.1170  145.2729  160.2940 H   0  0  0  0  0  0  0  0  0  0  0  0
  152.8569  145.2483  160.2433 H   0  0  0  0  0  0  0  0  0  0  0  0
  152.0350  144.4458  161.5881 H   0  0  0  0  0  0  0  0  0  0  0  0
  153.5943  143.1069  159.5191 H   0  0  0  0  0  0  0  0  0  0  0  0
  152.6886  142.3763  160.8491 H   0  0  0  0  0  0  0  0  0  0  0  0
  151.4152  141.6066  158.8937 H   0  0  0  0  0  0  0  0  0  0  0  0
  149.2576  139.4980  153.0477 H   0  0  0  0  0  0  0  0  0  0  0  0
  148.5165  138.7615  154.4723 H   0  0  0  0  0  0  0  0  0  0  0  0
  149.8567  137.9675  153.6654 H   0  0  0  0  0  0  0  0  0  0  0  0
  1  2  1  0  0  0  0
  1 19  1  0  0  0  0
  1 20  1  0  0  0  0
  1 21  1  0  0  0  0
  2 17  1  0  0  0  0
  2  3  2  0  0  0  0
  3  4  1  0  0  0  0
  4  5  2  0  0  0  0
  5  6  1  0  0  0  0
  5 14  1  0  0  0  0
  6  7  1  0  0  0  0
  6 22  1  0  0  0  0
  7 12  1  0  0  0  0
  7  8  1  0  0  0  0
  7 23  1  0  0  0  0
  8  9  1  0  0  0  0
  8 24  1  0  0  0  0
  8 25  1  0  0  0  0
  9 13  1  0  0  0  0
  9 10  1  0  0  0  0
  9 26  1  0  0  0  0
 10 11  1  0  0  0  0
 10 27  1  0  0  0  0
 10 28  1  0  0  0  0
 11 12  1  0  0  0  0
 11 29  1  0  0  0  0
 11 30  1  0  0  0  0
 12 13  1  0  0  0  0
 12 31  1  0  0  0  0
 14 15  1  0  0  0  0
 14 17  2  0  0  0  0
 15 16  3  0  0  0  0
 17 18  1  0  0  0  0
 18 32  1  0  0  0  0
 18 33  1  0  0  0  0
 18 34  1  0  0  0  0
M  END
> <s_m_source_file>
AV-unprocessed.smi

> <i_m_source_file_index>
2919

> <i_lp_mmshare_version>
43012

> <i_f3d_flags>
0

> <s_epik_input>
W0NIM11jMW5uYyhjKEMjTiljMVtDSDNdKVtOSF1bQ0BIXShbQ0gyXVtDQEBIXTIzKVtDQEBIXShPMylbQ0gyXVtDSDJdMg==

> <s_epik_cmdline>
J2VwaWtfcHl0aG9uJywgJy1waCcsICc3LjAnLCAnLXRuJywgJzgnLCAnLW1hJywgJzIwMCcsICctbWV0YWxfYmluZGluZycsICctaW1hZScsICc8aW5maWxlLm1hZT4nLCAnLW9tYWUnLCAnPG91dGZpbGUubWFlPic=

> <r_lp_tautomer_probability>
1

> <r_epik_Ionization_Penalty>
0.00143865

> <r_epik_Ionization_Penalty_Charging>
0

> <r_epik_Ionization_Penalty_Neutral>
0.00143865

> <r_epik_State_Penalty>
-0

> <r_epik_Charging_Adjusted_Penalty>
0

> <i_epik_Tot_Q>
0

> <i_epik_Tot_abs_Q>
0

> <r_epik_Metal_State_Penalty>
-0

> <b_epik_Metal_Only>
0

> <s_lp_Force_Field>
OPLS_2005

> <r_lp_Energy>
49.0135

> <b_lp_Chiralities_Consistent>
1

> <s_lp_Variant>
AV-unprocessed.smi:2919-4

> <Gold.Version>
5.8.1

> <Gold.Id.Protein>
6NUR|6NUR_protein|mol2

> <Gold.PLP.Fitness>
41.9765

> <Gold.PLP.PLP>
-36.6521

> <Gold.PLP.part.hbond>
-3.6196

> <Gold.PLP.part.metal>
0.0000

> <Gold.PLP.part.buried>
0.7867

> <Gold.PLP.part.nonpolar>
-33.5029

> <Gold.PLP.part.repulsive>
1.1009

> <Gold.PLP.ligand.clash>
0.0000

> <Gold.PLP.ligand.torsion>
0.0478

> <Gold.PLP.Chemscore.Hbond>
1.8000

> <Gold.PLP.Chemscore.CHOScore>
0.0000

> <Gold.PLP.Chemscore.Metal>
0.0000

> <Gold.Chemscore.Hbonds>
donor molecule, donor type, donor heavy atom, donor atom, acceptor molecule, acceptor atom, score
      L1  H     6    22       P1  8028  1.00
      P1  H  7997  8010       L1     3  0.80

> <Gold.PLP.Chemscore.Internal.Correction>
0.0200

> <Gold.Rescore>
     Score         DG    S(hbond)    S(metal)    S(lipo)     H(rot)  DE(clash)    DE(int)     intcor
     16.93     -18.40       1.00        0.00     103.78       1.00       1.43       0.04       ----

> <Gold.Chemscore.Fitness>
16.9337

> <Gold.Chemscore.DG>
-18.4026

> <Gold.Chemscore.ZeroCoef>
-5.4800

> <Gold.Chemscore.Hbond>
1.0000

> <Gold.Chemscore.Metal>
0.0000

> <Gold.Chemscore.Lipo>
103.7819

> <Gold.Chemscore.Internal_Hbond>
0.0000

> <Gold.Chemscore.DEClash>
1.4254

> <Gold.Chemscore.DEInternal>
0.0435

> <Gold.Chemscore.Rot>
1.0000

> <Gold.Chemscore.Internal.Correction>
   9.000000E+99

> <Gold.Chemscore.Hbonds>
donor molecule, donor type, donor heavy atom, donor atom, acceptor molecule, acceptor atom, score
      L1  H     6    22       P1  8028  1.00
      P1  H  7997  8010       L1     3  0.12

> <Gold.Chemscore.Hbond.Weighted>
-3.3401

> <Gold.Chemscore.Metal.Weighted>
-0.0000

> <Gold.Chemscore.Lipo.Weighted>
-12.1425

> <Gold.Chemscore.Internal_Hbond.Weighted>
0.0000

> <Gold.Chemscore.DEClash.Weighted>
1.4254

> <Gold.Chemscore.DEInternal.Weighted>
0.0435

> <Gold.Chemscore.Rot.Weighted>
2.5600

> <Gold.Chemscore.Internal.Correction.Weighted>
   9.000000E+99

> <Gold.Protein.RotatedTorsions>
[ 6907 6896 6895 6894 ] final   55.04 input  -60.11 | X-H torsion
[ 7974 7965 7964 7962 ] final  -78.33 input  175.53 | X-H torsion
[ 8008 7997 7996 7995 ] final   86.86 input   59.86 | X-H torsion
[ 10167 10162 10161 10158 ] final  -99.92 input  -65.29 | X-H torsion
[ 10718 10713 10712 10709 ] final -129.97 input   66.30 | X-H torsion
[ 10763 10752 10751 10750 ] final   85.73 input  -60.55 | X-H torsion
[ 11005 11000 10999 10996 ] final   86.72 input  -57.11 | X-H torsion

> <Gold.Protein.ActiveResidues>
 VAL166  LYS551  ARG553  GLY616  TRP617  ASP618  TYR619  PRO620  LYS621  CYS622 
 ASP623  PHE694  ASN695  SER759  ASP760  ASP761  ALA762  ILE779  LEU786  VAL792 
 PHE793  MET794  SER795  GLU796  ALA797  LYS798  CYS799  TRP800  GLU811  SER814 

> <Gold.Protein.RotatedAtoms>
  152.3499  134.7020  160.0239 H   0  0  0  0  0  0  0  0  0  0  0  0  # atno 6907 bound_to 6896
  151.7377  133.3315  159.3365 H   0  0  0  0  0  0  0  0  0  0  0  0  # atno 6908 bound_to 6896
  150.7533  134.6239  159.6195 H   0  0  0  0  0  0  0  0  0  0  0  0  # atno 6909 bound_to 6896
  145.5879  140.9435  143.1308 H   0  0  0  0  0  0  0  0  0  0  0  0  # atno 7974 bound_to 7965
  155.9681  140.3388  155.6551 H   0  0  0  0  0  0  0  0  0  0  0  0  # atno 8008 bound_to 7997
  155.6710  140.0727  157.2538 H   0  0  0  0  0  0  0  0  0  0  0  0  # atno 8009 bound_to 7997
  154.4159  140.1691  156.1866 H   0  0  0  0  0  0  0  0  0  0  0  0  # atno 8010 bound_to 7997
  140.2574  143.3431  152.0658 H   0  0  0  0  0  0  0  0  0  0  0  0  # atno 10167 bound_to 10162
  156.2099  130.6911  151.0637 H   0  0  0  0  0  0  0  0  0  0  0  0  # atno 10718 bound_to 10713
  153.1502  135.4606  154.9626 H   0  0  0  0  0  0  0  0  0  0  0  0  # atno 10763 bound_to 10752
  154.7819  135.3191  154.7974 H   0  0  0  0  0  0  0  0  0  0  0  0  # atno 10764 bound_to 10752
  153.8480  135.6924  153.4849 H   0  0  0  0  0  0  0  0  0  0  0  0  # atno 10765 bound_to 10752
  139.8937  134.8374  156.2759 H   0  0  0  0  0  0  0  0  0  0  0  0  # atno 11005 bound_to 11000
  144.7364  139.7573  143.7327 LP  0  0  0  0  0  0  0  0  0  0  0  0  # atno 17320 bound_to 7965
  146.1668  139.4803  142.9953 LP  0  0  0  0  0  0  0  0  0  0  0  0  # atno 17321 bound_to 7965
  139.5027  144.6741  151.6172 LP  0  0  0  0  0  0  0  0  0  0  0  0  # atno 17342 bound_to 10162
  140.5993  143.9639  150.6375 LP  0  0  0  0  0  0  0  0  0  0  0  0  # atno 17343 bound_to 10162
  157.7033  131.0767  150.6751 LP  0  0  0  0  0  0  0  0  0  0  0  0  # atno 17370 bound_to 10713
  156.6810  130.4567  149.5628 LP  0  0  0  0  0  0  0  0  0  0  0  0  # atno 17371 bound_to 10713
  141.0070  133.7118  156.1050 LP  0  0  0  0  0  0  0  0  0  0  0  0  # atno 17394 bound_to 11000
  140.7420  134.4140  157.5553 LP  0  0  0  0  0  0  0  0  0  0  0  0  # atno 17395 bound_to 11000

$$$$
