AV-unprocessed.smi:1945|AV-procd|sdf|7858|dock2
  -GOLD-   2272010 03D 1   1.00000     0.00000
 Structure written by MMmdl.
 47 48  0  0  0  0  0  0  0  0  1 V2000
  145.8019  129.2415  152.2800 C   0  0  0  0  0  0  0  0  0  0  0  0
  146.2823  130.6618  152.2323 C   0  0  0  0  0  0  0  0  0  0  0  0
  147.3198  131.2631  153.0021 C   0  0  0  0  0  0  0  0  0  0  0  0
  147.3223  132.5535  152.5474 C   0  0  0  0  0  0  0  0  0  0  0  0
  148.0974  133.5952  152.9499 N   0  0  0  0  0  0  0  0  0  0  0  0
  148.7063  133.7646  154.1356 C   0  0  0  0  0  0  0  0  0  0  0  0
  148.8330  132.8952  154.9983 O   0  0  0  0  0  0  0  0  0  0  0  0
  149.1585  135.0192  154.2761 N   0  0  0  0  0  0  0  0  0  0  0  0
  149.7158  135.5717  155.5072 C   0  0  0  0  0  0  0  0  0  0  0  0
  149.1932  136.9950  155.7592 C   0  0  0  0  0  0  0  0  0  0  0  0
  150.3039  137.8696  155.8847 O   0  0  0  0  0  0  0  0  0  0  0  0
  150.5970  138.6635  154.7425 C   0  0  1  0  0  0  0  0  0  0  0  0
  149.4669  139.6854  154.4844 C   0  0  0  0  0  0  0  0  0  0  0  0
  149.3339  140.6967  155.6360 C   0  0  0  0  0  0  0  0  0  0  0  0
  150.6671  141.4056  155.9161 C   0  0  0  0  0  0  0  0  0  0  0  0
  151.7974  140.3955  156.1695 C   0  0  0  0  0  0  0  0  0  0  0  0
  151.9337  139.3926  155.0049 C   0  0  1  0  0  0  0  0  0  0  0  0
  153.0924  138.4091  155.2318 C   0  0  0  0  0  0  0  0  0  0  0  0
  146.3411  132.6910  151.5910 N   0  0  0  0  0  0  0  0  0  0  0  0
  145.9500  133.8622  150.8314 C   0  0  0  0  0  0  0  0  0  0  0  0
  145.7062  131.5153  151.3929 N   0  0  0  0  0  0  0  0  0  0  0  0
  146.2903  128.6874  153.0818 H   0  0  0  0  0  0  0  0  0  0  0  0
  146.0125  128.7249  151.3434 H   0  0  0  0  0  0  0  0  0  0  0  0
  144.7266  129.1951  152.4532 H   0  0  0  0  0  0  0  0  0  0  0  0
  147.9401  130.8096  153.7606 H   0  0  0  0  0  0  0  0  0  0  0  0
  148.1558  134.3662  152.3013 H   0  0  0  0  0  0  0  0  0  0  0  0
  149.0286  135.6617  153.5086 H   0  0  0  0  0  0  0  0  0  0  0  0
  149.5010  134.9242  156.3592 H   0  0  0  0  0  0  0  0  0  0  0  0
  150.8004  135.5954  155.4018 H   0  0  0  0  0  0  0  0  0  0  0  0
  148.5712  137.3210  154.9248 H   0  0  0  0  0  0  0  0  0  0  0  0
  148.5688  137.0051  156.6524 H   0  0  0  0  0  0  0  0  0  0  0  0
  150.7144  138.0174  153.8707 H   0  0  0  0  0  0  0  0  0  0  0  0
  149.6797  140.2250  153.5609 H   0  0  0  0  0  0  0  0  0  0  0  0
  148.5135  139.1848  154.3208 H   0  0  0  0  0  0  0  0  0  0  0  0
  148.5660  141.4330  155.3972 H   0  0  0  0  0  0  0  0  0  0  0  0
  148.9969  140.1855  156.5371 H   0  0  0  0  0  0  0  0  0  0  0  0
  150.9283  142.0387  155.0674 H   0  0  0  0  0  0  0  0  0  0  0  0
  150.5613  142.0679  156.7759 H   0  0  0  0  0  0  0  0  0  0  0  0
  152.7366  140.9307  156.3129 H   0  0  0  0  0  0  0  0  0  0  0  0
  151.6051  139.8610  157.1008 H   0  0  0  0  0  0  0  0  0  0  0  0
  152.1760  139.9642  154.1077 H   0  0  0  0  0  0  0  0  0  0  0  0
  152.9381  137.8104  156.1301 H   0  0  0  0  0  0  0  0  0  0  0  0
  154.0389  138.9381  155.3459 H   0  0  0  0  0  0  0  0  0  0  0  0
  153.1970  137.7245  154.3896 H   0  0  0  0  0  0  0  0  0  0  0  0
  145.8671  134.7229  151.4956 H   0  0  0  0  0  0  0  0  0  0  0  0
  144.9862  133.6998  150.3468 H   0  0  0  0  0  0  0  0  0  0  0  0
  146.7011  134.0698  150.0690 H   0  0  0  0  0  0  0  0  0  0  0  0
  1  2  1  0  0  0  0
  1 22  1  0  0  0  0
  1 23  1  0  0  0  0
  1 24  1  0  0  0  0
  2 21  2  0  0  0  0
  2  3  1  0  0  0  0
  3  4  2  0  0  0  0
  3 25  1  0  0  0  0
  4  5  1  0  0  0  0
  4 19  1  0  0  0  0
  5  6  1  0  0  0  0
  5 26  1  0  0  0  0
  6  7  2  0  0  0  0
  6  8  1  0  0  0  0
  8  9  1  0  0  0  0
  8 27  1  0  0  0  0
  9 10  1  0  0  0  0
  9 28  1  0  0  0  0
  9 29  1  0  0  0  0
 10 11  1  0  0  0  0
 10 30  1  0  0  0  0
 10 31  1  0  0  0  0
 11 12  1  0  0  0  0
 12 17  1  0  0  0  0
 12 13  1  0  0  0  0
 12 32  1  0  0  0  0
 13 14  1  0  0  0  0
 13 33  1  0  0  0  0
 13 34  1  0  0  0  0
 14 15  1  0  0  0  0
 14 35  1  0  0  0  0
 14 36  1  0  0  0  0
 15 16  1  0  0  0  0
 15 37  1  0  0  0  0
 15 38  1  0  0  0  0
 16 17  1  0  0  0  0
 16 39  1  0  0  0  0
 16 40  1  0  0  0  0
 17 18  1  0  0  0  0
 17 41  1  0  0  0  0
 18 42  1  0  0  0  0
 18 43  1  0  0  0  0
 18 44  1  0  0  0  0
 19 20  1  0  0  0  0
 19 21  1  0  0  0  0
 20 45  1  0  0  0  0
 20 46  1  0  0  0  0
 20 47  1  0  0  0  0
M  END
> <s_m_source_file>
AV-unprocessed.smi

> <i_m_source_file_index>
1945

> <i_lp_mmshare_version>
43012

> <i_f3d_flags>
0

> <s_epik_input>
W0NIM11jMVtjSF1jKG4objEpW0NIM10pW05IXUMoPU8pW05IXVtDSDJdW0NIMl1PW0NAQEhdMltDSDJdW0NIMl1bQ0gyXVtDSDJdW0NASF0yW0NIM10=

> <s_epik_cmdline>
J2VwaWtfcHl0aG9uJywgJy1waCcsICc3LjAnLCAnLXRuJywgJzgnLCAnLW1hJywgJzIwMCcsICctbWV0YWxfYmluZGluZycsICctaW1hZScsICc8aW5maWxlLm1hZT4nLCAnLW9tYWUnLCAnPG91dGZpbGUubWFlPic=

> <r_lp_tautomer_probability>
1

> <r_epik_Ionization_Penalty>
9.47735e-05

> <r_epik_Ionization_Penalty_Charging>
0

> <r_epik_Ionization_Penalty_Neutral>
9.47735e-05

> <r_epik_State_Penalty>
-0

> <r_epik_Charging_Adjusted_Penalty>
0

> <i_epik_Tot_Q>
0

> <i_epik_Tot_abs_Q>
0

> <r_epik_Metal_State_Penalty>
-0

> <b_epik_Metal_Only>
0

> <s_lp_Force_Field>
OPLS_2005

> <r_lp_Energy>
11.3834

> <b_lp_Chiralities_Consistent>
1

> <s_lp_Variant>
AV-unprocessed.smi:1945-2

> <Gold.Version>
5.8.1

> <Gold.Id.Protein>
6NUR|6NUR_protein|mol2

> <Gold.PLP.Fitness>
41.5166

> <Gold.PLP.PLP>
-37.8948

> <Gold.PLP.part.hbond>
-2.0000

> <Gold.PLP.part.metal>
0.0000

> <Gold.PLP.part.buried>
-2.9628

> <Gold.PLP.part.nonpolar>
-33.0297

> <Gold.PLP.part.repulsive>
0.1819

> <Gold.PLP.ligand.clash>
0.0000

> <Gold.PLP.ligand.torsion>
0.9511

> <Gold.PLP.Chemscore.Hbond>
1.8296

> <Gold.PLP.Chemscore.CHOScore>
0.0000

> <Gold.PLP.Chemscore.Metal>
0.0000

> <Gold.Chemscore.Hbonds>
donor molecule, donor type, donor heavy atom, donor atom, acceptor molecule, acceptor atom, score
      L1  H     5    26       P1  7948  0.77
      L1  H     8    27       P1  7948  1.00

> <Gold.PLP.Chemscore.Internal.Correction>
0.0352

> <Gold.Rescore>
     Score         DG    S(hbond)    S(metal)    S(lipo)     H(rot)  DE(clash)    DE(int)     intcor
     14.00     -15.87       1.49        0.00      82.00       1.63       0.00       1.87       ----

> <Gold.Chemscore.Fitness>
13.9975

> <Gold.Chemscore.DG>
-15.8655

> <Gold.Chemscore.ZeroCoef>
-5.4800

> <Gold.Chemscore.Hbond>
1.4873

> <Gold.Chemscore.Metal>
0.0000

> <Gold.Chemscore.Lipo>
82.0048

> <Gold.Chemscore.Internal_Hbond>
0.0000

> <Gold.Chemscore.DEClash>
0.0015

> <Gold.Chemscore.DEInternal>
1.8665

> <Gold.Chemscore.Rot>
1.6316

> <Gold.Chemscore.Internal.Correction>
   9.000000E+99

> <Gold.Chemscore.Hbonds>
donor molecule, donor type, donor heavy atom, donor atom, acceptor molecule, acceptor atom, score
      L1  H     5    26       P1  7948  0.10
      L1  H     8    27       P1  7948  0.78

> <Gold.Chemscore.Hbond.Weighted>
-4.9677

> <Gold.Chemscore.Metal.Weighted>
-0.0000

> <Gold.Chemscore.Lipo.Weighted>
-9.5946

> <Gold.Chemscore.Internal_Hbond.Weighted>
0.0000

> <Gold.Chemscore.DEClash.Weighted>
0.0015

> <Gold.Chemscore.DEInternal.Weighted>
1.8665

> <Gold.Chemscore.Rot.Weighted>
4.1768

> <Gold.Chemscore.Internal.Correction.Weighted>
   9.000000E+99

> <Gold.Protein.RotatedTorsions>
[ 6907 6896 6895 6894 ] final  -59.86 input  -60.11 | X-H torsion
[ 7974 7965 7964 7962 ] final -165.17 input  175.53 | X-H torsion
[ 8008 7997 7996 7995 ] final  178.57 input   59.86 | X-H torsion
[ 10167 10162 10161 10158 ] final  -59.77 input  -65.29 | X-H torsion
[ 10718 10713 10712 10709 ] final   28.03 input   66.30 | X-H torsion
[ 10763 10752 10751 10750 ] final  -20.07 input  -60.55 | X-H torsion
[ 11005 11000 10999 10996 ] final  151.15 input  -57.11 | X-H torsion

> <Gold.Protein.ActiveResidues>
 VAL166  LYS551  ARG553  GLY616  TRP617  ASP618  TYR619  PRO620  LYS621  CYS622 
 ASP623  PHE694  ASN695  SER759  ASP760  ASP761  ALA762  ILE779  LEU786  VAL792 
 PHE793  MET794  SER795  GLU796  ALA797  LYS798  CYS799  TRP800  GLU811  SER814 

> <Gold.Protein.RotatedAtoms>
  150.7898  134.6913  159.6497 H   0  0  0  0  0  0  0  0  0  0  0  0  # atno 6907 bound_to 6896
  152.4002  134.6296  160.0082 H   0  0  0  0  0  0  0  0  0  0  0  0  # atno 6908 bound_to 6896
  151.6570  133.3281  159.3201 H   0  0  0  0  0  0  0  0  0  0  0  0  # atno 6909 bound_to 6896
  144.7277  140.2853  143.6229 H   0  0  0  0  0  0  0  0  0  0  0  0  # atno 7974 bound_to 7965
  156.0531  140.1330  157.0027 H   0  0  0  0  0  0  0  0  0  0  0  0  # atno 8008 bound_to 7997
  154.4444  140.1007  156.6476 H   0  0  0  0  0  0  0  0  0  0  0  0  # atno 8009 bound_to 7997
  155.5493  140.3462  155.4467 H   0  0  0  0  0  0  0  0  0  0  0  0  # atno 8010 bound_to 7997
  140.6114  143.2388  151.5701 H   0  0  0  0  0  0  0  0  0  0  0  0  # atno 10167 bound_to 10162
  157.2280  130.7010  149.6300 H   0  0  0  0  0  0  0  0  0  0  0  0  # atno 10718 bound_to 10713
  153.6147  135.6995  153.5333 H   0  0  0  0  0  0  0  0  0  0  0  0  # atno 10763 bound_to 10752
  153.2987  135.4135  155.1232 H   0  0  0  0  0  0  0  0  0  0  0  0  # atno 10764 bound_to 10752
  154.8556  135.3643  154.5687 H   0  0  0  0  0  0  0  0  0  0  0  0  # atno 10765 bound_to 10752
  140.1194  134.8873  157.2050 H   0  0  0  0  0  0  0  0  0  0  0  0  # atno 11005 bound_to 11000
  145.7909  139.1927  143.2103 LP  0  0  0  0  0  0  0  0  0  0  0  0  # atno 17320 bound_to 7965
  146.0756  140.7820  142.9666 LP  0  0  0  0  0  0  0  0  0  0  0  0  # atno 17321 bound_to 7965
  139.5364  144.2769  152.1260 LP  0  0  0  0  0  0  0  0  0  0  0  0  # atno 17342 bound_to 10162
  140.1969  144.4696  150.6450 LP  0  0  0  0  0  0  0  0  0  0  0  0  # atno 17343 bound_to 10162
  155.9677  130.4498  150.5673 LP  0  0  0  0  0  0  0  0  0  0  0  0  # atno 17370 bound_to 10713
  157.3507  131.0733  151.1715 LP  0  0  0  0  0  0  0  0  0  0  0  0  # atno 17371 bound_to 10713
  140.2985  134.3158  155.7296 LP  0  0  0  0  0  0  0  0  0  0  0  0  # atno 17394 bound_to 11000
  141.2148  133.7578  156.9607 LP  0  0  0  0  0  0  0  0  0  0  0  0  # atno 17395 bound_to 11000

$$$$
