AV-unprocessed.smi:2061|AV-procd|sdf|8360|dock1
  -GOLD-   2272011 33D 1   1.00000     0.00000
 Structure written by MMmdl.
 45 46  0  0  0  0  0  0  0  0  1 V2000
  145.9528  133.9388  162.1449 C   0  0  0  0  0  0  0  0  0  0  0  0
  146.5680  135.0661  161.3890 C   0  0  0  0  0  0  0  0  0  0  0  0
  147.0555  135.1783  160.1170 C   0  0  0  0  0  0  0  0  0  0  0  0
  147.4918  136.5289  160.0595 C   0  0  0  0  0  0  0  0  0  0  0  0
  148.0751  137.0563  158.8790 N   0  0  0  0  0  0  0  0  0  0  0  0
  149.3835  137.1790  158.5966 C   0  0  0  0  0  0  0  0  0  0  0  0
  150.3025  136.8386  159.3421 O   0  0  0  0  0  0  0  0  0  0  0  0
  149.5710  137.7204  157.3833 N   0  0  0  0  0  0  0  0  0  0  0  0
  150.8677  137.9900  156.7648 C   0  0  0  0  0  0  0  0  0  0  0  0
  151.0524  139.4797  156.3579 C   0  0  2  0  0  0  0  0  0  0  0  0
  152.2286  139.5906  155.3542 C   0  0  0  0  0  0  0  0  0  0  0  0
  151.2050  140.3842  157.5224 N   0  0  0  0  0  0  0  0  0  0  0  0
  151.2910  141.7974  157.1378 C   0  0  0  0  0  0  0  0  0  0  0  0
  151.4699  142.7400  158.3439 C   0  0  2  0  0  0  0  0  0  0  0  0
  151.6430  144.2013  157.9165 C   0  0  0  0  0  0  0  0  0  0  0  0
  152.6260  142.3515  159.0747 O   0  0  0  0  0  0  0  0  0  0  0  0
  152.5522  141.0108  159.5414 C   0  0  2  0  0  0  0  0  0  0  0  0
  153.8235  140.7092  160.3422 C   0  0  0  0  0  0  0  0  0  0  0  0
  152.3835  140.0665  158.3361 C   0  0  0  0  0  0  0  0  0  0  0  0
  147.2882  137.1818  161.1934 N   0  0  0  0  0  0  0  0  0  0  0  0
  146.6952  136.2479  162.0510 O   0  0  0  0  0  0  0  0  0  0  0  0
  145.9357  133.0296  161.5440 H   0  0  0  0  0  0  0  0  0  0  0  0
  144.9271  134.1771  162.4266 H   0  0  0  0  0  0  0  0  0  0  0  0
  146.5147  133.7319  163.0558 H   0  0  0  0  0  0  0  0  0  0  0  0
  147.0933  134.4153  159.3537 H   0  0  0  0  0  0  0  0  0  0  0  0
  147.4264  137.3727  158.1741 H   0  0  0  0  0  0  0  0  0  0  0  0
  148.7547  137.9656  156.8425 H   0  0  0  0  0  0  0  0  0  0  0  0
  151.5954  137.6943  157.5182 H   0  0  0  0  0  0  0  0  0  0  0  0
  151.0425  137.3460  155.9013 H   0  0  0  0  0  0  0  0  0  0  0  0
  150.1502  139.7757  155.8202 H   0  0  0  0  0  0  0  0  0  0  0  0
  152.1244  138.9054  154.5142 H   0  0  0  0  0  0  0  0  0  0  0  0
  153.1814  139.3738  155.8383 H   0  0  0  0  0  0  0  0  0  0  0  0
  152.2969  140.5779  154.9000 H   0  0  0  0  0  0  0  0  0  0  0  0
  152.1168  141.9387  156.4387 H   0  0  0  0  0  0  0  0  0  0  0  0
  150.3839  142.1112  156.6256 H   0  0  0  0  0  0  0  0  0  0  0  0
  150.5972  142.6680  158.9955 H   0  0  0  0  0  0  0  0  0  0  0  0
  150.7725  144.5542  157.3631 H   0  0  0  0  0  0  0  0  0  0  0  0
  152.5187  144.3249  157.2785 H   0  0  0  0  0  0  0  0  0  0  0  0
  151.7691  144.8484  158.7848 H   0  0  0  0  0  0  0  0  0  0  0  0
  151.6915  140.9127  160.2054 H   0  0  0  0  0  0  0  0  0  0  0  0
  153.8083  139.6915  160.7333 H   0  0  0  0  0  0  0  0  0  0  0  0
  153.9206  141.3885  161.1893 H   0  0  0  0  0  0  0  0  0  0  0  0
  154.7152  140.8174  159.7243 H   0  0  0  0  0  0  0  0  0  0  0  0
  152.3124  139.0562  158.7340 H   0  0  0  0  0  0  0  0  0  0  0  0
  153.2801  140.1014  157.7152 H   0  0  0  0  0  0  0  0  0  0  0  0
  1  2  1  0  0  0  0
  1 22  1  0  0  0  0
  1 23  1  0  0  0  0
  1 24  1  0  0  0  0
  2 21  1  0  0  0  0
  2  3  2  0  0  0  0
  3  4  1  0  0  0  0
  3 25  1  0  0  0  0
  4  5  1  0  0  0  0
  4 20  2  0  0  0  0
  5  6  1  0  0  0  0
  5 26  1  0  0  0  0
  6  7  2  0  0  0  0
  6  8  1  0  0  0  0
  8  9  1  0  0  0  0
  8 27  1  0  0  0  0
  9 10  1  0  0  0  0
  9 28  1  0  0  0  0
  9 29  1  0  0  0  0
 10 11  1  0  0  0  0
 10 12  1  0  0  0  0
 10 30  1  0  0  0  0
 11 31  1  0  0  0  0
 11 32  1  0  0  0  0
 11 33  1  0  0  0  0
 12 19  1  0  0  0  0
 12 13  1  0  0  0  0
 13 14  1  0  0  0  0
 13 34  1  0  0  0  0
 13 35  1  0  0  0  0
 14 15  1  0  0  0  0
 14 16  1  0  0  0  0
 14 36  1  0  0  0  0
 15 37  1  0  0  0  0
 15 38  1  0  0  0  0
 15 39  1  0  0  0  0
 16 17  1  0  0  0  0
 17 18  1  0  0  0  0
 17 19  1  0  0  0  0
 17 40  1  0  0  0  0
 18 41  1  0  0  0  0
 18 42  1  0  0  0  0
 18 43  1  0  0  0  0
 19 44  1  0  0  0  0
 19 45  1  0  0  0  0
 20 21  1  0  0  0  0
M  END
> <s_m_source_file>
AV-unprocessed.smi

> <i_m_source_file_index>
2061

> <i_lp_mmshare_version>
43012

> <i_f3d_flags>
0

> <s_epik_input>
W0NIM11jMVtjSF1jKG5vMSlbTkhdQyg9TylbTkhdW0NIMl1bQ0BIXShbQ0gzXSlOMltDSDJdW0NAQEhdKFtDSDNdKU9bQ0BASF0oW0NIM10pW0NIMl0y

> <s_epik_cmdline>
J2VwaWtfcHl0aG9uJywgJy1waCcsICc3LjAnLCAnLXRuJywgJzgnLCAnLW1hJywgJzIwMCcsICctbWV0YWxfYmluZGluZycsICctaW1hZScsICc8aW5maWxlLm1hZT4nLCAnLW9tYWUnLCAnPG91dGZpbGUubWFlPic=

> <r_epik_Ionization_Penalty>
0.214073

> <r_epik_Ionization_Penalty_Charging>
0

> <r_epik_Ionization_Penalty_Neutral>
0.214073

> <r_epik_State_Penalty>
0.204211

> <r_epik_Charging_Adjusted_Penalty>
0.204211

> <i_epik_Tot_Q>
0

> <i_epik_Tot_abs_Q>
0

> <r_epik_Metal_State_Penalty>
0.217067

> <b_epik_Metal_Only>
0

> <s_lp_Force_Field>
OPLS_2005

> <r_lp_Energy>
26.137

> <b_lp_Chiralities_Consistent>
1

> <s_lp_Variant>
AV-unprocessed.smi:2061-1

> <Gold.Version>
5.8.1

> <Gold.Id.Protein>
6NUR|6NUR_protein|mol2

> <Gold.PLP.Fitness>
44.0714

> <Gold.PLP.PLP>
-37.1515

> <Gold.PLP.part.hbond>
-3.0000

> <Gold.PLP.part.metal>
0.0000

> <Gold.PLP.part.buried>
-5.1934

> <Gold.PLP.part.nonpolar>
-29.1075

> <Gold.PLP.part.repulsive>
0.2127

> <Gold.PLP.ligand.clash>
0.0000

> <Gold.PLP.ligand.torsion>
0.8490

> <Gold.PLP.Chemscore.Hbond>
2.8400

> <Gold.PLP.Chemscore.CHOScore>
0.0000

> <Gold.PLP.Chemscore.Metal>
0.0000

> <Gold.Chemscore.Hbonds>
donor molecule, donor type, donor heavy atom, donor atom, acceptor molecule, acceptor atom, score
      P1  H  6896  6908       L1     7  0.98
      P1  H  6931  6943       L1    20  0.56
      P1  H  6934  6947       L1    20  1.00

> <Gold.PLP.Chemscore.Internal.Correction>
0.0978

> <Gold.Rescore>
     Score         DG    S(hbond)    S(metal)    S(lipo)     H(rot)  DE(clash)    DE(int)     intcor
     19.40     -20.24       2.47        0.00      89.60       1.55       0.00       0.84       ----

> <Gold.Chemscore.Fitness>
19.3998

> <Gold.Chemscore.DG>
-20.2433

> <Gold.Chemscore.ZeroCoef>
-5.4800

> <Gold.Chemscore.Hbond>
2.4675

> <Gold.Chemscore.Metal>
0.0000

> <Gold.Chemscore.Lipo>
89.5995

> <Gold.Chemscore.Internal_Hbond>
0.0000

> <Gold.Chemscore.DEClash>
0.0000

> <Gold.Chemscore.DEInternal>
0.8435

> <Gold.Chemscore.Rot>
1.5474

> <Gold.Chemscore.Internal.Correction>
   9.000000E+99

> <Gold.Chemscore.Hbonds>
donor molecule, donor type, donor heavy atom, donor atom, acceptor molecule, acceptor atom, score
      P1  H  6896  6908       L1     7  0.92
      P1  H  6931  6943       L1    20  0.48
      P1  H  6934  6947       L1    20  0.80

> <Gold.Chemscore.Hbond.Weighted>
-8.2414

> <Gold.Chemscore.Metal.Weighted>
-0.0000

> <Gold.Chemscore.Lipo.Weighted>
-10.4831

> <Gold.Chemscore.Internal_Hbond.Weighted>
0.0000

> <Gold.Chemscore.DEClash.Weighted>
0.0000

> <Gold.Chemscore.DEInternal.Weighted>
0.8435

> <Gold.Chemscore.Rot.Weighted>
3.9612

> <Gold.Chemscore.Internal.Correction.Weighted>
   9.000000E+99

> <Gold.Protein.RotatedTorsions>
[ 6907 6896 6895 6894 ] final -165.49 input  -60.11 | X-H torsion
[ 7974 7965 7964 7962 ] final  125.55 input  175.53 | X-H torsion
[ 8008 7997 7996 7995 ] final  -44.25 input   59.86 | X-H torsion
[ 10167 10162 10161 10158 ] final   34.35 input  -65.29 | X-H torsion
[ 10718 10713 10712 10709 ] final -152.69 input   66.30 | X-H torsion
[ 10763 10752 10751 10750 ] final  -48.06 input  -60.55 | X-H torsion
[ 11005 11000 10999 10996 ] final   96.99 input  -57.11 | X-H torsion

> <Gold.Protein.ActiveResidues>
 VAL166  LYS551  ARG553  GLY616  TRP617  ASP618  TYR619  PRO620  LYS621  CYS622 
 ASP623  PHE694  ASN695  SER759  ASP760  ASP761  ALA762  ILE779  LEU786  VAL792 
 PHE793  MET794  SER795  GLU796  ALA797  LYS798  CYS799  TRP800  GLU811  SER814 

> <Gold.Protein.RotatedAtoms>
  151.4285  133.3677  159.2765 H   0  0  0  0  0  0  0  0  0  0  0  0  # atno 6907 bound_to 6896
  150.9242  134.8660  159.7519 H   0  0  0  0  0  0  0  0  0  0  0  0  # atno 6908 bound_to 6896
  152.4997  134.4225  159.9537 H   0  0  0  0  0  0  0  0  0  0  0  0  # atno 6909 bound_to 6896
  145.0717  139.3725  143.4954 H   0  0  0  0  0  0  0  0  0  0  0  0  # atno 7974 bound_to 7965
  154.3997  140.1427  156.3652 H   0  0  0  0  0  0  0  0  0  0  0  0  # atno 8008 bound_to 7997
  155.8144  140.3471  155.5456 H   0  0  0  0  0  0  0  0  0  0  0  0  # atno 8009 bound_to 7997
  155.8353  140.0918  157.1758 H   0  0  0  0  0  0  0  0  0  0  0  0  # atno 8010 bound_to 7997
  140.4323  144.1307  150.6161 H   0  0  0  0  0  0  0  0  0  0  0  0  # atno 10167 bound_to 10162
  156.4758  130.8280  151.2508 H   0  0  0  0  0  0  0  0  0  0  0  0  # atno 10718 bound_to 10713
  154.0716  135.6604  153.4825 H   0  0  0  0  0  0  0  0  0  0  0  0  # atno 10763 bound_to 10752
  153.0389  135.5158  154.7562 H   0  0  0  0  0  0  0  0  0  0  0  0  # atno 10764 bound_to 10752
  154.6629  135.3017  154.9811 H   0  0  0  0  0  0  0  0  0  0  0  0  # atno 10765 bound_to 10752
  139.8778  134.8978  156.4240 H   0  0  0  0  0  0  0  0  0  0  0  0  # atno 11005 bound_to 11000
  146.3529  140.0465  142.8639 LP  0  0  0  0  0  0  0  0  0  0  0  0  # atno 17320 bound_to 7965
  145.1284  140.9503  143.4559 LP  0  0  0  0  0  0  0  0  0  0  0  0  # atno 17321 bound_to 7965
  140.4413  143.2525  151.9469 LP  0  0  0  0  0  0  0  0  0  0  0  0  # atno 17342 bound_to 10162
  139.4785  144.5651  151.8177 LP  0  0  0  0  0  0  0  0  0  0  0  0  # atno 17343 bound_to 10162
  157.7487  131.0061  150.3139 LP  0  0  0  0  0  0  0  0  0  0  0  0  # atno 17370 bound_to 10713
  156.3572  130.3841  149.7281 LP  0  0  0  0  0  0  0  0  0  0  0  0  # atno 17371 bound_to 10713
  140.9114  133.7709  155.9796 LP  0  0  0  0  0  0  0  0  0  0  0  0  # atno 17394 bound_to 11000
  140.8542  134.2917  157.5262 LP  0  0  0  0  0  0  0  0  0  0  0  0  # atno 17395 bound_to 11000

$$$$
