AV-unprocessed.smi:1405|AV-procd|sdf|5708|dock3
  -GOLD-   22720 5343D 1   1.00000     0.00000
 Structure written by MMmdl.
 48 51  0  0  0  0  0  0  0  0  2 V2000
  148.8847  133.1652  159.1124 O   0  0  0  0  0  0  0  0  0  0  0  0
  148.2898  134.1889  159.4480 C   0  0  0  0  0  0  0  0  0  0  0  0
  147.3303  134.1372  160.6503 C   0  0  0  0  0  0  0  0  0  0  0  0
  146.5368  135.3621  160.8622 N   0  0  0  0  0  0  0  0  0  0  0  0
  145.1502  135.2805  160.6434 C   0  0  0  0  0  0  0  0  0  0  0  0
  144.3424  136.3471  160.7952 C   0  0  0  0  0  0  0  0  0  0  0  0
  144.9402  137.6136  161.1986 C   0  0  0  0  0  0  0  0  0  0  0  0
  144.2181  138.5983  161.3413 O   0  0  0  0  0  0  0  0  0  0  0  0
  146.2905  137.6426  161.3982 N   0  5  0  0  0  0  0  0  0  0  0  0
  147.1001  136.5502  161.2379 C   0  0  0  0  0  0  0  0  0  0  0  0
  148.3178  136.6014  161.4118 O   0  0  0  0  0  0  0  0  0  0  0  0
  148.4296  135.3560  158.7993 N   0  0  0  0  0  0  0  0  0  0  0  0
  149.2730  135.5792  157.6344 C   0  0  0  0  0  0  0  0  0  0  0  0
  150.3005  136.6863  157.9349 C   0  0  0  0  0  0  0  0  0  0  0  0
  150.6343  137.6509  156.7685 C   0  0  0  0  0  0  0  0  0  0  0  0
  151.8068  138.6007  157.1362 C   0  0  0  0  0  0  0  0  0  0  0  0
  152.1595  139.5103  155.9394 C   0  0  2  0  0  0  0  0  0  0  0  0
  150.9279  140.3573  155.5556 C   0  0  0  0  0  0  0  0  0  0  0  0
  149.7675  139.4193  155.1592 C   0  0  1  0  0  0  0  0  0  0  0  0
  150.1906  138.5533  153.9550 C   0  0  0  0  0  0  0  0  0  0  0  0
  151.4228  137.7122  154.3455 C   0  0  1  0  0  0  0  0  0  0  0  0
  152.5872  138.6446  154.7368 C   0  0  0  0  0  0  0  0  0  0  0  0
  151.0672  136.8038  155.5411 C   0  0  0  0  0  0  0  0  0  0  0  0
  149.4081  138.5090  156.3542 C   0  0  0  0  0  0  0  0  0  0  0  0
  146.6634  133.2849  160.5135 H   0  0  0  0  0  0  0  0  0  0  0  0
  147.9089  133.8986  161.5442 H   0  0  0  0  0  0  0  0  0  0  0  0
  144.7896  134.3083  160.3406 H   0  0  0  0  0  0  0  0  0  0  0  0
  143.2795  136.2679  160.6197 H   0  0  0  0  0  0  0  0  0  0  0  0
  147.9090  136.1494  159.1459 H   0  0  0  0  0  0  0  0  0  0  0  0
  149.7814  134.6523  157.3665 H   0  0  0  0  0  0  0  0  0  0  0  0
  148.6292  135.8534  156.7994 H   0  0  0  0  0  0  0  0  0  0  0  0
  149.9426  137.2738  158.7820 H   0  0  0  0  0  0  0  0  0  0  0  0
  151.2213  136.2107  158.2765 H   0  0  0  0  0  0  0  0  0  0  0  0
  151.5464  139.2252  157.9907 H   0  0  0  0  0  0  0  0  0  0  0  0
  152.6827  138.0233  157.4350 H   0  0  0  0  0  0  0  0  0  0  0  0
  152.9807  140.1712  156.2183 H   0  0  0  0  0  0  0  0  0  0  0  0
  150.6318  140.9933  156.3909 H   0  0  0  0  0  0  0  0  0  0  0  0
  151.1726  141.0268  154.7301 H   0  0  0  0  0  0  0  0  0  0  0  0
  148.8976  140.0170  154.8857 H   0  0  0  0  0  0  0  0  0  0  0  0
  149.3698  137.9032  153.6495 H   0  0  0  0  0  0  0  0  0  0  0  0
  150.4201  139.1845  153.0958 H   0  0  0  0  0  0  0  0  0  0  0  0
  151.7227  137.0949  153.4982 H   0  0  0  0  0  0  0  0  0  0  0  0
  152.8642  139.2785  153.8935 H   0  0  0  0  0  0  0  0  0  0  0  0
  153.4731  138.0597  154.9874 H   0  0  0  0  0  0  0  0  0  0  0  0
  151.9247  136.1795  155.7957 H   0  0  0  0  0  0  0  0  0  0  0  0
  150.2683  136.1183  155.2543 H   0  0  0  0  0  0  0  0  0  0  0  0
  148.5656  137.8666  156.0941 H   0  0  0  0  0  0  0  0  0  0  0  0
  149.0736  139.1319  157.1840 H   0  0  0  0  0  0  0  0  0  0  0  0
  1  2  2  0  0  0  0
  2  3  1  0  0  0  0
  2 12  1  0  0  0  0
  3  4  1  0  0  0  0
  3 25  1  0  0  0  0
  3 26  1  0  0  0  0
  4 10  1  0  0  0  0
  4  5  1  0  0  0  0
  5  6  2  0  0  0  0
  5 27  1  0  0  0  0
  6  7  1  0  0  0  0
  6 28  1  0  0  0  0
  7  8  2  0  0  0  0
  7  9  1  0  0  0  0
  9 10  1  0  0  0  0
 10 11  2  0  0  0  0
 12 13  1  0  0  0  0
 12 29  1  0  0  0  0
 13 14  1  0  0  0  0
 13 30  1  0  0  0  0
 13 31  1  0  0  0  0
 14 15  1  0  0  0  0
 14 32  1  0  0  0  0
 14 33  1  0  0  0  0
 15 23  1  0  0  0  0
 15 24  1  0  0  0  0
 15 16  1  0  0  0  0
 16 17  1  0  0  0  0
 16 34  1  0  0  0  0
 16 35  1  0  0  0  0
 17 22  1  0  0  0  0
 17 18  1  0  0  0  0
 17 36  1  0  0  0  0
 18 19  1  0  0  0  0
 18 37  1  0  0  0  0
 18 38  1  0  0  0  0
 19 20  1  0  0  0  0
 19 24  1  0  0  0  0
 19 39  1  0  0  0  0
 20 21  1  0  0  0  0
 20 40  1  0  0  0  0
 20 41  1  0  0  0  0
 21 22  1  0  0  0  0
 21 23  1  0  0  0  0
 21 42  1  0  0  0  0
 22 43  1  0  0  0  0
 22 44  1  0  0  0  0
 23 45  1  0  0  0  0
 23 46  1  0  0  0  0
 24 47  1  0  0  0  0
 24 48  1  0  0  0  0
M  CHG  1   9  -1
M  END
> <s_m_source_file>
AV-unprocessed.smi

> <i_m_source_file_index>
1405

> <i_lp_mmshare_version>
43012

> <i_f3d_flags>
0

> <s_epik_input>
Tz1jMVtuSF1jKD1PKVtjSF1bY0hdbjFbQ0gyXUMoPU8pW05IXVtDSDJdW0NIMl1DMjNbQ0gyXVtDQEBIXTRbQ0gyXVtDQEhdKFtDSDJdMylbQ0gyXVtDQEBIXShbQ0gyXTQpW0NIMl0y

> <s_epik_cmdline>
J2VwaWtfcHl0aG9uJywgJy1waCcsICc3LjAnLCAnLXRuJywgJzgnLCAnLW1hJywgJzIwMCcsICctbWV0YWxfYmluZGluZycsICctaW1hZScsICc8aW5maWxlLm1hZT4nLCAnLW9tYWUnLCAnPG91dGZpbGUubWFlPic=

> <r_lp_tautomer_probability>
0.999537

> <r_epik_Ionization_Penalty>
3.12935

> <r_epik_Ionization_Penalty_Charging>
2.8866e-08

> <r_epik_Ionization_Penalty_Neutral>
3.12935

> <r_epik_State_Penalty>
3.12845

> <r_epik_Charging_Adjusted_Penalty>
3.12845

> <i_epik_Tot_Q>
-1

> <i_epik_Tot_abs_Q>
1

> <r_epik_Metal_State_Penalty>
0.464346

> <b_epik_Metal_Only>
1

> <s_lp_Force_Field>
OPLS_2005

> <r_lp_Energy>
42.9683

> <b_lp_Chiralities_Consistent>
1

> <s_lp_Variant>
AV-unprocessed.smi:1405-2

> <Gold.Version>
5.8.1

> <Gold.Id.Protein>
6NUR|6NUR_protein|mol2

> <Gold.PLP.Fitness>
42.6229

> <Gold.PLP.PLP>
-31.5175

> <Gold.PLP.part.hbond>
-4.0000

> <Gold.PLP.part.metal>
0.0000

> <Gold.PLP.part.buried>
-2.5549

> <Gold.PLP.part.nonpolar>
-25.5573

> <Gold.PLP.part.repulsive>
0.0776

> <Gold.PLP.ligand.clash>
0.0000

> <Gold.PLP.ligand.torsion>
0.3941

> <Gold.PLP.Chemscore.Hbond>
3.9440

> <Gold.PLP.Chemscore.CHOScore>
0.0000

> <Gold.PLP.Chemscore.Metal>
0.0000

> <Gold.Chemscore.Hbonds>
donor molecule, donor type, donor heavy atom, donor atom, acceptor molecule, acceptor atom, score
      P1  H  6896  6908       L1     1  0.84
      P1  H  6931  6943       L1    11  1.00
      P1  H  6934  6947       L1     9  2.00

> <Gold.PLP.Chemscore.Internal.Correction>
0.0616

> <Gold.Rescore>
     Score         DG    S(hbond)    S(metal)    S(lipo)     H(rot)  DE(clash)    DE(int)     intcor
     14.52     -15.20       1.91        0.00      74.99       2.12       0.20       0.48       ----

> <Gold.Chemscore.Fitness>
14.5201

> <Gold.Chemscore.DG>
-15.2049

> <Gold.Chemscore.ZeroCoef>
-5.4800

> <Gold.Chemscore.Hbond>
1.9110

> <Gold.Chemscore.Metal>
0.0000

> <Gold.Chemscore.Lipo>
74.9889

> <Gold.Chemscore.Internal_Hbond>
0.0000

> <Gold.Chemscore.DEClash>
0.2044

> <Gold.Chemscore.DEInternal>
0.4805

> <Gold.Chemscore.Rot>
2.1216

> <Gold.Chemscore.Internal.Correction>
   9.000000E+99

> <Gold.Chemscore.Hbonds>
donor molecule, donor type, donor heavy atom, donor atom, acceptor molecule, acceptor atom, score
      P1  H  6896  6908       L1     1  0.16
      P1  H  6931  6943       L1    11  0.96
      P1  H  6934  6947       L1     9  0.66

> <Gold.Chemscore.Hbond.Weighted>
-6.3826

> <Gold.Chemscore.Metal.Weighted>
-0.0000

> <Gold.Chemscore.Lipo.Weighted>
-8.7737

> <Gold.Chemscore.Internal_Hbond.Weighted>
0.0000

> <Gold.Chemscore.DEClash.Weighted>
0.2044

> <Gold.Chemscore.DEInternal.Weighted>
0.4805

> <Gold.Chemscore.Rot.Weighted>
5.4314

> <Gold.Chemscore.Internal.Correction.Weighted>
   9.000000E+99

> <Gold.Protein.RotatedTorsions>
[ 6907 6896 6895 6894 ] final  124.28 input  -60.11 | X-H torsion
[ 7974 7965 7964 7962 ] final  100.41 input  175.53 | X-H torsion
[ 8008 7997 7996 7995 ] final  -79.15 input   59.86 | X-H torsion
[ 10167 10162 10161 10158 ] final  115.15 input  -65.29 | X-H torsion
[ 10718 10713 10712 10709 ] final   38.02 input   66.30 | X-H torsion
[ 10763 10752 10751 10750 ] final  106.46 input  -60.55 | X-H torsion
[ 11005 11000 10999 10996 ] final    8.77 input  -57.11 | X-H torsion

> <Gold.Protein.ActiveResidues>
 VAL166  LYS551  ARG553  GLY616  TRP617  ASP618  TYR619  PRO620  LYS621  CYS622 
 ASP623  PHE694  ASN695  SER759  ASP760  ASP761  ALA762  ILE779  LEU786  VAL792 
 PHE793  MET794  SER795  GLU796  ALA797  LYS798  CYS799  TRP800  GLU811  SER814 

> <Gold.Protein.RotatedAtoms>
  152.4091  133.6935  159.6381 H   0  0  0  0  0  0  0  0  0  0  0  0  # atno 6907 bound_to 6896
  150.7973  133.8656  159.3253 H   0  0  0  0  0  0  0  0  0  0  0  0  # atno 6908 bound_to 6896
  151.6403  135.1015  160.0191 H   0  0  0  0  0  0  0  0  0  0  0  0  # atno 6909 bound_to 6896
  145.3860  139.2371  143.3378 H   0  0  0  0  0  0  0  0  0  0  0  0  # atno 7974 bound_to 7965
  154.5758  140.0683  156.9031 H   0  0  0  0  0  0  0  0  0  0  0  0  # atno 8008 bound_to 7997
  155.2552  140.3354  155.4260 H   0  0  0  0  0  0  0  0  0  0  0  0  # atno 8009 bound_to 7997
  156.2152  140.1775  156.7589 H   0  0  0  0  0  0  0  0  0  0  0  0  # atno 8010 bound_to 7997
  139.6338  144.7117  151.2378 H   0  0  0  0  0  0  0  0  0  0  0  0  # atno 10167 bound_to 10162
  157.3539  130.7613  149.6998 H   0  0  0  0  0  0  0  0  0  0  0  0  # atno 10718 bound_to 10713
  153.3932  135.3876  155.1937 H   0  0  0  0  0  0  0  0  0  0  0  0  # atno 10763 bound_to 10752
  154.8721  135.3753  154.4711 H   0  0  0  0  0  0  0  0  0  0  0  0  # atno 10764 bound_to 10752
  153.5200  135.7087  153.5798 H   0  0  0  0  0  0  0  0  0  0  0  0  # atno 10765 bound_to 10752
  140.5332  134.0446  155.7880 H   0  0  0  0  0  0  0  0  0  0  0  0  # atno 11005 bound_to 11000
  146.2820  140.4535  142.8772 LP  0  0  0  0  0  0  0  0  0  0  0  0  # atno 17320 bound_to 7965
  144.8474  140.6950  143.6190 LP  0  0  0  0  0  0  0  0  0  0  0  0  # atno 17321 bound_to 7965
  140.7454  143.6433  150.8315 LP  0  0  0  0  0  0  0  0  0  0  0  0  # atno 17342 bound_to 10162
  140.0061  143.5692  152.2857 LP  0  0  0  0  0  0  0  0  0  0  0  0  # atno 17343 bound_to 10162
  155.9726  130.4133  150.4074 LP  0  0  0  0  0  0  0  0  0  0  0  0  # atno 17370 bound_to 10713
  157.2141  131.0467  151.2583 LP  0  0  0  0  0  0  0  0  0  0  0  0  # atno 17371 bound_to 10713
  141.1269  133.9367  157.2616 LP  0  0  0  0  0  0  0  0  0  0  0  0  # atno 17394 bound_to 11000
  139.9543  135.0169  156.9083 LP  0  0  0  0  0  0  0  0  0  0  0  0  # atno 17395 bound_to 11000

$$$$
