AV-unprocessed.smi:573|AV-procd|sdf|2972|dock7
  -GOLD-   2262023483D 1   1.00000     0.00000
 Structure written by MMmdl.
 44 46  0  0  0  0  0  0  0  0  1 V2000
  151.3067  138.0944  154.1065 C   0  0  0  0  0  0  0  0  0  0  0  0
  152.2106  138.3420  155.3237 C   0  0  1  0  0  0  0  0  0  0  0  0
  152.7915  139.6210  155.1845 O   0  0  0  0  0  0  0  0  0  0  0  0
  151.4600  138.3016  156.6661 C   0  0  0  0  0  0  0  0  0  0  0  0
  150.6938  139.5105  156.9081 N   0  0  0  0  0  0  0  0  0  0  0  0
  151.0257  140.7272  157.4926 C   0  0  0  0  0  0  0  0  0  0  0  0
  152.2305  141.0152  157.9818 N   0  0  0  0  0  0  0  0  0  0  0  0
  152.0569  142.3054  158.4462 C   0  0  0  0  0  0  0  0  0  0  0  0
  152.9656  143.1811  159.0826 C   0  0  0  0  0  0  0  0  0  0  0  0
  152.5563  144.4719  159.4766 C   0  0  0  0  0  0  0  0  0  0  0  0
  151.2351  144.9049  159.2423 C   0  0  0  0  0  0  0  0  0  0  0  0
  150.3127  144.0489  158.6102 C   0  0  0  0  0  0  0  0  0  0  0  0
  150.7262  142.7622  158.2160 C   0  0  0  0  0  0  0  0  0  0  0  0
  150.0870  141.6978  157.5870 N   0  0  0  0  0  0  0  0  0  0  0  0
  148.7006  141.6544  157.1439 C   0  0  0  0  0  0  0  0  0  0  0  0
  148.5883  141.3015  155.6517 C   0  0  2  0  0  0  0  0  0  0  0  0
  147.2993  141.8575  155.0180 C   0  0  0  0  0  0  0  0  0  0  0  0
  147.1961  141.4292  153.5496 C   0  0  0  0  0  0  0  0  0  0  0  0
  147.3452  139.9076  153.4429 C   0  0  0  0  0  0  0  0  0  0  0  0
  148.6227  139.4426  154.1604 C   0  0  0  0  0  0  0  0  0  0  0  0
  148.6063  139.8815  155.5147 O   0  0  0  0  0  0  0  0  0  0  0  0
  150.8771  137.0929  154.1288 H   0  0  0  0  0  0  0  0  0  0  0  0
  151.8683  138.1851  153.1762 H   0  0  0  0  0  0  0  0  0  0  0  0
  150.4836  138.8090  154.0710 H   0  0  0  0  0  0  0  0  0  0  0  0
  153.0200  137.6107  155.3321 H   0  0  0  0  0  0  0  0  0  0  0  0
  152.1297  140.2191  154.8726 H   0  0  0  0  0  0  0  0  0  0  0  0
  150.7621  137.4638  156.6766 H   0  0  0  0  0  0  0  0  0  0  0  0
  152.1560  138.1405  157.4904 H   0  0  0  0  0  0  0  0  0  0  0  0
  149.7471  139.4619  156.5605 H   0  0  0  0  0  0  0  0  0  0  0  0
  153.9792  142.8584  159.2689 H   0  0  0  0  0  0  0  0  0  0  0  0
  153.2592  145.1325  159.9623 H   0  0  0  0  0  0  0  0  0  0  0  0
  150.9296  145.8945  159.5489 H   0  0  0  0  0  0  0  0  0  0  0  0
  149.2991  144.3764  158.4329 H   0  0  0  0  0  0  0  0  0  0  0  0
  148.1650  140.9205  157.7468 H   0  0  0  0  0  0  0  0  0  0  0  0
  148.2317  142.6177  157.3482 H   0  0  0  0  0  0  0  0  0  0  0  0
  149.4527  141.7162  155.1296 H   0  0  0  0  0  0  0  0  0  0  0  0
  146.4310  141.4903  155.5667 H   0  0  0  0  0  0  0  0  0  0  0  0
  147.2791  142.9453  155.0915 H   0  0  0  0  0  0  0  0  0  0  0  0
  146.2446  141.7499  153.1243 H   0  0  0  0  0  0  0  0  0  0  0  0
  147.9801  141.9169  152.9688 H   0  0  0  0  0  0  0  0  0  0  0  0
  146.4787  139.4222  153.8937 H   0  0  0  0  0  0  0  0  0  0  0  0
  147.3667  139.6025  152.3964 H   0  0  0  0  0  0  0  0  0  0  0  0
  148.6858  138.3544  154.1456 H   0  0  0  0  0  0  0  0  0  0  0  0
  149.5132  139.8200  153.6556 H   0  0  0  0  0  0  0  0  0  0  0  0
  1  2  1  0  0  0  0
  1 22  1  0  0  0  0
  1 23  1  0  0  0  0
  1 24  1  0  0  0  0
  2  3  1  0  0  0  0
  2  4  1  0  0  0  0
  2 25  1  0  0  0  0
  3 26  1  0  0  0  0
  4  5  1  0  0  0  0
  4 27  1  0  0  0  0
  4 28  1  0  0  0  0
  5  6  1  0  0  0  0
  5 29  1  0  0  0  0
  6 14  1  0  0  0  0
  6  7  2  0  0  0  0
  7  8  1  0  0  0  0
  8 13  2  0  0  0  0
  8  9  1  0  0  0  0
  9 10  2  0  0  0  0
  9 30  1  0  0  0  0
 10 11  1  0  0  0  0
 10 31  1  0  0  0  0
 11 12  2  0  0  0  0
 11 32  1  0  0  0  0
 12 13  1  0  0  0  0
 12 33  1  0  0  0  0
 13 14  1  0  0  0  0
 14 15  1  0  0  0  0
 15 16  1  0  0  0  0
 15 34  1  0  0  0  0
 15 35  1  0  0  0  0
 16 21  1  0  0  0  0
 16 17  1  0  0  0  0
 16 36  1  0  0  0  0
 17 18  1  0  0  0  0
 17 37  1  0  0  0  0
 17 38  1  0  0  0  0
 18 19  1  0  0  0  0
 18 39  1  0  0  0  0
 18 40  1  0  0  0  0
 19 20  1  0  0  0  0
 19 41  1  0  0  0  0
 19 42  1  0  0  0  0
 20 21  1  0  0  0  0
 20 43  1  0  0  0  0
 20 44  1  0  0  0  0
M  END
> <s_m_source_file>
AV-unprocessed.smi

> <i_m_source_file_index>
573

> <i_lp_mmshare_version>
43012

> <i_f3d_flags>
0

> <s_epik_input>
W0NIM11bQ0BIXShbT0hdKVtDSDJdW05IXWMobjEpbihjKGMxMilbY0hdW2NIXVtjSF1bY0hdMilbQ0gyXVtDQEBIXTNbQ0gyXVtDSDJdW0NIMl1bQ0gyXU8z

> <s_epik_cmdline>
J2VwaWtfcHl0aG9uJywgJy1waCcsICc3LjAnLCAnLXRuJywgJzgnLCAnLW1hJywgJzIwMCcsICctbWV0YWxfYmluZGluZycsICctaW1hZScsICc8aW5maWxlLm1hZT4nLCAnLW9tYWUnLCAnPG91dGZpbGUubWFlPic=

> <r_epik_Ionization_Penalty>
1.30635

> <r_epik_Ionization_Penalty_Charging>
0

> <r_epik_Ionization_Penalty_Neutral>
1.30635

> <r_epik_State_Penalty>
1.38073

> <r_epik_Charging_Adjusted_Penalty>
1.38073

> <i_epik_Tot_Q>
0

> <i_epik_Tot_abs_Q>
0

> <r_epik_Metal_State_Penalty>
0.00547412

> <b_epik_Metal_Only>
0

> <s_lp_Force_Field>
OPLS_2005

> <r_lp_Energy>
6.58613

> <b_lp_Chiralities_Consistent>
1

> <s_lp_Variant>
AV-unprocessed.smi:573-6

> <Gold.Version>
5.8.1

> <Gold.Id.Protein>
6NUR|6NUR_protein|mol2

> <Gold.PLP.Fitness>
42.1851

> <Gold.PLP.PLP>
-40.4358

> <Gold.PLP.part.hbond>
-1.8195

> <Gold.PLP.part.metal>
0.0000

> <Gold.PLP.part.buried>
-5.5681

> <Gold.PLP.part.nonpolar>
-32.8423

> <Gold.PLP.part.repulsive>
0.0571

> <Gold.PLP.ligand.clash>
0.0000

> <Gold.PLP.ligand.torsion>
0.6290

> <Gold.PLP.Chemscore.Hbond>
1.0000

> <Gold.PLP.Chemscore.CHOScore>
0.0000

> <Gold.PLP.Chemscore.Metal>
0.0000

> <Gold.Chemscore.Hbonds>
donor molecule, donor type, donor heavy atom, donor atom, acceptor molecule, acceptor atom, score
      P1  H  7997  8010       L1     3  1.00

> <Gold.PLP.Chemscore.Internal.Correction>
0.0072

> <Gold.Rescore>
     Score         DG    S(hbond)    S(metal)    S(lipo)     H(rot)  DE(clash)    DE(int)     intcor
     15.49     -17.80       0.99        0.00     121.21       2.02       0.09       2.22       ----

> <Gold.Chemscore.Fitness>
15.4936

> <Gold.Chemscore.DG>
-17.7978

> <Gold.Chemscore.ZeroCoef>
-5.4800

> <Gold.Chemscore.Hbond>
0.9920

> <Gold.Chemscore.Metal>
0.0000

> <Gold.Chemscore.Lipo>
121.2115

> <Gold.Chemscore.Internal_Hbond>
0.0000

> <Gold.Chemscore.DEClash>
0.0860

> <Gold.Chemscore.DEInternal>
2.2182

> <Gold.Chemscore.Rot>
2.0224

> <Gold.Chemscore.Internal.Correction>
   9.000000E+99

> <Gold.Chemscore.Hbonds>
donor molecule, donor type, donor heavy atom, donor atom, acceptor molecule, acceptor atom, score
      P1  H  7997  8010       L1     3  0.99

> <Gold.Chemscore.Hbond.Weighted>
-3.3133

> <Gold.Chemscore.Metal.Weighted>
-0.0000

> <Gold.Chemscore.Lipo.Weighted>
-14.1817

> <Gold.Chemscore.Internal_Hbond.Weighted>
0.0000

> <Gold.Chemscore.DEClash.Weighted>
0.0860

> <Gold.Chemscore.DEInternal.Weighted>
2.2182

> <Gold.Chemscore.Rot.Weighted>
5.1773

> <Gold.Chemscore.Internal.Correction.Weighted>
   9.000000E+99

> <Gold.Protein.RotatedTorsions>
[ 6907 6896 6895 6894 ] final  108.62 input  -60.11 | X-H torsion
[ 7974 7965 7964 7962 ] final    3.41 input  175.53 | X-H torsion
[ 8008 7997 7996 7995 ] final  108.46 input   59.86 | X-H torsion
[ 10167 10162 10161 10158 ] final  171.37 input  -65.29 | X-H torsion
[ 10718 10713 10712 10709 ] final  101.81 input   66.30 | X-H torsion
[ 10763 10752 10751 10750 ] final  -54.26 input  -60.55 | X-H torsion
[ 11005 11000 10999 10996 ] final  101.68 input  -57.11 | X-H torsion

> <Gold.Protein.ActiveResidues>
 VAL166  LYS551  ARG553  GLY616  TRP617  ASP618  TYR619  PRO620  LYS621  CYS622 
 ASP623  PHE694  ASN695  SER759  ASP760  ASP761  ALA762  ILE779  LEU786  VAL792 
 PHE793  MET794  SER795  GLU796  ALA797  LYS798  CYS799  TRP800  GLU811  SER814 

> <Gold.Protein.RotatedAtoms>
  152.5104  133.9062  159.7464 H   0  0  0  0  0  0  0  0  0  0  0  0  # atno 6907 bound_to 6896
  150.9466  133.6588  159.2787 H   0  0  0  0  0  0  0  0  0  0  0  0  # atno 6908 bound_to 6896
  151.3881  135.0956  159.9570 H   0  0  0  0  0  0  0  0  0  0  0  0  # atno 6909 bound_to 6896
  146.2445  140.0689  142.8363 H   0  0  0  0  0  0  0  0  0  0  0  0  # atno 7974 bound_to 7965
  156.1905  140.3076  155.9323 H   0  0  0  0  0  0  0  0  0  0  0  0  # atno 8008 bound_to 7997
  155.3184  140.0454  157.3055 H   0  0  0  0  0  0  0  0  0  0  0  0  # atno 8009 bound_to 7997
  154.5446  140.2272  155.8593 H   0  0  0  0  0  0  0  0  0  0  0  0  # atno 8010 bound_to 7997
  139.5045  144.3493  151.9939 H   0  0  0  0  0  0  0  0  0  0  0  0  # atno 10167 bound_to 10162
  157.6819  131.0736  150.5309 H   0  0  0  0  0  0  0  0  0  0  0  0  # atno 10718 bound_to 10713
  154.1719  135.6457  153.5012 H   0  0  0  0  0  0  0  0  0  0  0  0  # atno 10763 bound_to 10752
  153.0082  135.5385  154.6603 H   0  0  0  0  0  0  0  0  0  0  0  0  # atno 10764 bound_to 10752
  154.5945  135.2937  155.0573 H   0  0  0  0  0  0  0  0  0  0  0  0  # atno 10765 bound_to 10752
  139.8774  134.9193  156.4943 H   0  0  0  0  0  0  0  0  0  0  0  0  # atno 11005 bound_to 11000
  145.0834  140.9236  143.4812 LP  0  0  0  0  0  0  0  0  0  0  0  0  # atno 17320 bound_to 7965
  145.0847  139.2934  143.5766 LP  0  0  0  0  0  0  0  0  0  0  0  0  # atno 17321 bound_to 7965
  140.2930  144.3733  150.6083 LP  0  0  0  0  0  0  0  0  0  0  0  0  # atno 17342 bound_to 10162
  140.5932  143.2167  151.7213 LP  0  0  0  0  0  0  0  0  0  0  0  0  # atno 17343 bound_to 10162
  156.5619  130.4257  149.6059 LP  0  0  0  0  0  0  0  0  0  0  0  0  # atno 17370 bound_to 10713
  156.2814  130.7073  151.1898 LP  0  0  0  0  0  0  0  0  0  0  0  0  # atno 17371 bound_to 10713
  140.8636  133.8041  155.9290 LP  0  0  0  0  0  0  0  0  0  0  0  0  # atno 17394 bound_to 11000
  140.9025  134.2361  157.5033 LP  0  0  0  0  0  0  0  0  0  0  0  0  # atno 17395 bound_to 11000

$$$$
