AV-unprocessed.smi:45|AV-procd|sdf|417|dock8
  -GOLD-   2262016293D 1   1.00000     0.00000
 Structure written by MMmdl.
 60 63  0  0  0  0  0  0  0  0  3 V2000
  147.5470  136.7262  162.9112 C   0  0  0  0  0  0  0  0  0  0  0  0
  148.0728  136.9566  161.6126 O   0  0  0  0  0  0  0  0  0  0  0  0
  147.7590  136.0585  160.6134 C   0  0  0  0  0  0  0  0  0  0  0  0
  147.0411  134.8552  160.8312 C   0  0  0  0  0  0  0  0  0  0  0  0
  146.7672  133.9818  159.7614 C   0  0  0  0  0  0  0  0  0  0  0  0
  147.2062  134.2923  158.4587 C   0  0  0  0  0  0  0  0  0  0  0  0
  146.9397  133.3406  157.3084 C   0  0  0  0  0  0  0  0  0  0  0  0
  148.0304  133.3096  156.3469 N   0  0  0  0  0  0  0  0  0  0  0  0
  147.7558  132.8118  155.0650 C   0  0  0  0  0  0  0  0  0  0  0  0
  146.8432  133.4655  154.2988 N   0  3  0  0  0  0  0  0  0  0  0  0
  146.5718  133.0459  153.0510 C   0  0  0  0  0  0  0  0  0  0  0  0
  145.6230  133.7451  152.3067 N   0  0  0  0  0  0  0  0  0  0  0  0
  145.4437  135.1846  152.4593 C   0  0  0  0  0  0  0  0  0  0  0  0
  143.9629  135.4530  152.1970 C   0  0  0  0  0  0  0  0  0  0  0  0
  143.5814  134.3393  151.2307 C   0  0  0  0  0  0  0  0  0  0  0  0
  144.4319  133.1488  151.6990 C   0  0  1  0  0  0  0  0  0  0  0  0
  144.7595  132.1691  150.5524 C   0  0  0  0  0  0  0  0  0  0  0  0
  143.5675  131.6894  149.9674 O   0  0  0  0  0  0  0  0  0  0  0  0
  147.1751  131.9776  152.5113 N   0  0  0  0  0  0  0  0  0  0  0  0
  148.0901  131.2994  153.2315 C   0  0  0  0  0  0  0  0  0  0  0  0
  148.4242  131.6782  154.5443 C   0  0  0  0  0  0  0  0  0  0  0  0
  149.4476  130.9179  155.3379 C   0  0  0  0  0  0  0  0  0  0  0  0
  149.7502  131.3394  156.4594 O   0  0  0  0  0  0  0  0  0  0  0  0
  149.9423  129.8656  154.6314 N   0  5  0  0  0  0  0  0  0  0  0  0
  151.0330  129.0142  155.1114 C   0  0  0  0  0  0  0  0  0  0  0  0
  152.3442  129.7838  155.2594 C   0  0  0  0  0  0  0  0  0  0  0  0
  153.3664  129.3933  154.4868 N   0  0  0  0  0  0  0  0  0  0  0  0
  154.5173  130.0928  154.5907 C   0  0  0  0  0  0  0  0  0  0  0  0
  154.6440  131.1854  155.4713 C   0  0  0  0  0  0  0  0  0  0  0  0
  153.5030  131.5084  156.2321 C   0  0  0  0  0  0  0  0  0  0  0  0
  152.3549  130.8049  156.1257 N   0  0  0  0  0  0  0  0  0  0  0  0
  147.9152  135.4883  158.2345 C   0  0  0  0  0  0  0  0  0  0  0  0
  148.1898  136.3638  159.3030 C   0  0  0  0  0  0  0  0  0  0  0  0
  149.0778  137.8128  158.9949 Cl  0  0  0  0  0  0  0  0  0  0  0  0
  143.8954  132.6212  152.4891 H   0  0  0  0  0  0  0  0  0  0  0  0
  147.8986  137.5076  163.5848 H   0  0  0  0  0  0  0  0  0  0  0  0
  147.8831  135.7691  163.3129 H   0  0  0  0  0  0  0  0  0  0  0  0
  146.4566  136.7569  162.9115 H   0  0  0  0  0  0  0  0  0  0  0  0
  146.6911  134.5756  161.8131 H   0  0  0  0  0  0  0  0  0  0  0  0
  146.2244  133.0664  159.9467 H   0  0  0  0  0  0  0  0  0  0  0  0
  146.7892  132.3374  157.7083 H   0  0  0  0  0  0  0  0  0  0  0  0
  146.0126  133.6307  156.8113 H   0  0  0  0  0  0  0  0  0  0  0  0
  148.6404  134.1154  156.3708 H   0  0  0  0  0  0  0  0  0  0  0  0
  145.7338  135.5371  153.4500 H   0  0  0  0  0  0  0  0  0  0  0  0
  146.0649  135.6935  151.7215 H   0  0  0  0  0  0  0  0  0  0  0  0
  143.3969  135.3474  153.1237 H   0  0  0  0  0  0  0  0  0  0  0  0
  143.7758  136.4501  151.7975 H   0  0  0  0  0  0  0  0  0  0  0  0
  142.5129  134.1221  151.2336 H   0  0  0  0  0  0  0  0  0  0  0  0
  143.8592  134.6323  150.2171 H   0  0  0  0  0  0  0  0  0  0  0  0
  145.3644  132.6560  149.7865 H   0  0  0  0  0  0  0  0  0  0  0  0
  145.3261  131.3082  150.9042 H   0  0  0  0  0  0  0  0  0  0  0  0
  143.0267  132.4286  149.7336 H   0  0  0  0  0  0  0  0  0  0  0  0
  148.5520  130.4474  152.7541 H   0  0  0  0  0  0  0  0  0  0  0  0
  150.7862  128.5394  156.0628 H   0  0  0  0  0  0  0  0  0  0  0  0
  151.2092  128.1853  154.4248 H   0  0  0  0  0  0  0  0  0  0  0  0
  155.3409  129.7818  153.9652 H   0  0  0  0  0  0  0  0  0  0  0  0
  155.5623  131.7476  155.5535 H   0  0  0  0  0  0  0  0  0  0  0  0
  153.5116  132.3341  156.9279 H   0  0  0  0  0  0  0  0  0  0  0  0
  148.2621  135.7343  157.2415 H   0  0  0  0  0  0  0  0  0  0  0  0
  146.3707  134.2830  154.6829 H   0  0  0  0  0  0  0  0  0  0  0  0
  1  2  1  0  0  0  0
  1 36  1  0  0  0  0
  1 37  1  0  0  0  0
  1 38  1  0  0  0  0
  2  3  1  0  0  0  0
  3 33  1  0  0  0  0
  3  4  2  0  0  0  0
  4  5  1  0  0  0  0
  4 39  1  0  0  0  0
  5  6  2  0  0  0  0
  5 40  1  0  0  0  0
  6  7  1  0  0  0  0
  6 32  1  0  0  0  0
  7  8  1  0  0  0  0
  7 41  1  0  0  0  0
  7 42  1  0  0  0  0
  8  9  1  0  0  0  0
  8 43  1  0  0  0  0
  9 21  1  0  0  0  0
  9 10  2  0  0  0  0
 10 11  1  0  0  0  0
 10 60  1  0  0  0  0
 11 12  1  0  0  0  0
 11 19  2  0  0  0  0
 12 16  1  0  0  0  0
 12 13  1  0  0  0  0
 13 14  1  0  0  0  0
 13 44  1  0  0  0  0
 13 45  1  0  0  0  0
 14 15  1  0  0  0  0
 14 46  1  0  0  0  0
 14 47  1  0  0  0  0
 15 16  1  0  0  0  0
 15 48  1  0  0  0  0
 15 49  1  0  0  0  0
 16 35  1  0  0  0  0
 16 17  1  0  0  0  0
 17 18  1  0  0  0  0
 17 50  1  0  0  0  0
 17 51  1  0  0  0  0
 18 52  1  0  0  0  0
 19 20  1  0  0  0  0
 20 21  2  0  0  0  0
 20 53  1  0  0  0  0
 21 22  1  0  0  0  0
 22 23  2  0  0  0  0
 22 24  1  0  0  0  0
 24 25  1  0  0  0  0
 25 26  1  0  0  0  0
 25 54  1  0  0  0  0
 25 55  1  0  0  0  0
 26 31  1  0  0  0  0
 26 27  2  0  0  0  0
 27 28  1  0  0  0  0
 28 29  2  0  0  0  0
 28 56  1  0  0  0  0
 29 30  1  0  0  0  0
 29 57  1  0  0  0  0
 30 31  2  0  0  0  0
 30 58  1  0  0  0  0
 32 33  2  0  0  0  0
 32 59  1  0  0  0  0
 33 34  1  0  0  0  0
M  CHG  1  10   1
M  CHG  1  24  -1
M  END
> <s_m_source_file>
AV-unprocessed.smi

> <i_m_source_file_index>
45

> <i_lp_mmshare_version>
43012

> <i_f3d_flags>
0

> <s_epik_input>
W0NIM11PYzFbY0hdW2NIXWMoW2NIXWMxQ2wpW0NIMl1bTkhdYzJuYyhOM1tDSDJdW0NIMl1bQ0gyXVtDQEhdM1tDSDJdW09IXSluW2NIXWMyQyg9TylbTkhdW0NIMl1jNG5bY0hdW2NIXVtjSF1uNA==

> <s_epik_cmdline>
J2VwaWtfcHl0aG9uJywgJy1waCcsICc3LjAnLCAnLXRuJywgJzgnLCAnLW1hJywgJzIwMCcsICctbWV0YWxfYmluZGluZycsICctaW1hZScsICc8aW5maWxlLm1hZT4nLCAnLW9tYWUnLCAnPG91dGZpbGUubWFlPic=

> <r_lp_tautomer_probability>
0.424989

> <r_epik_Ionization_Penalty>
7.51351

> <r_epik_Ionization_Penalty_Charging>
7.51312

> <r_epik_Ionization_Penalty_Neutral>
0.00038389

> <r_epik_State_Penalty>
8.64696

> <r_epik_Charging_Adjusted_Penalty>
16.1601

> <i_epik_Tot_Q>
0

> <i_epik_Tot_abs_Q>
2

> <r_epik_Metal_State_Penalty>
4.61083

> <b_epik_Metal_Only>
1

> <s_epik_Chemistry_Notes>
This compound contains an electron-poor aromatic ring that is susceptible to covalent hydrolysis at low pH, typically resulting in measured values for nitrogen ring protonation that are around two units higher than predicted values.

> <s_lp_Force_Field>
OPLS_2005

> <r_lp_Energy>
39.4565

> <b_lp_Chiralities_Consistent>
1

> <s_lp_Variant>
AV-unprocessed.smi:45-11

> <Gold.Version>
5.8.1

> <Gold.Id.Protein>
6NUR|6NUR_protein|mol2

> <Gold.PLP.Fitness>
48.4214

> <Gold.PLP.PLP>
-42.9256

> <Gold.PLP.part.hbond>
-2.8797

> <Gold.PLP.part.metal>
0.0000

> <Gold.PLP.part.buried>
-7.3561

> <Gold.PLP.part.nonpolar>
-34.9728

> <Gold.PLP.part.repulsive>
0.7781

> <Gold.PLP.ligand.clash>
0.7699

> <Gold.PLP.ligand.torsion>
1.2210

> <Gold.PLP.Chemscore.Hbond>
1.9833

> <Gold.PLP.Chemscore.CHOScore>
0.6119

> <Gold.PLP.Chemscore.Metal>
0.0000

> <Gold.Chemscore.Hbonds>
donor molecule, donor type, donor heavy atom, donor atom, acceptor molecule, acceptor atom, score
      P1  H  6931  6943       L1     2  1.00
      P1  H  6934  6947       L1     2  0.15
      P1  H 10785 10796       L1    18  0.96
      L1  C    20    53       P1 10747  0.66

> <Gold.PLP.Chemscore.Internal.Correction>
0.9219

> <Gold.Rescore>
     Score         DG    S(hbond)    S(metal)    S(lipo)     H(rot)  DE(clash)    DE(int)     intcor
      9.88     -14.10       1.57        0.00      98.02       3.16       0.09       4.13       ----

> <Gold.Chemscore.Fitness>
9.8841

> <Gold.Chemscore.DG>
-14.1028

> <Gold.Chemscore.ZeroCoef>
-5.4800

> <Gold.Chemscore.Hbond>
1.5678

> <Gold.Chemscore.Metal>
0.0000

> <Gold.Chemscore.Lipo>
98.0203

> <Gold.Chemscore.Internal_Hbond>
0.0000

> <Gold.Chemscore.DEClash>
0.0925

> <Gold.Chemscore.DEInternal>
4.1262

> <Gold.Chemscore.Rot>
3.1571

> <Gold.Chemscore.Internal.Correction>
   9.000000E+99

> <Gold.Chemscore.Hbonds>
donor molecule, donor type, donor heavy atom, donor atom, acceptor molecule, acceptor atom, score
      P1  H  6931  6943       L1     2  0.25
      P1  H  6934  6947       L1     2  0.04
      P1  H 10785 10796       L1    18  0.69

> <Gold.Chemscore.Hbond.Weighted>
-5.2366

> <Gold.Chemscore.Metal.Weighted>
-0.0000

> <Gold.Chemscore.Lipo.Weighted>
-11.4684

> <Gold.Chemscore.Internal_Hbond.Weighted>
0.0000

> <Gold.Chemscore.DEClash.Weighted>
0.0925

> <Gold.Chemscore.DEInternal.Weighted>
4.1262

> <Gold.Chemscore.Rot.Weighted>
8.0822

> <Gold.Chemscore.Internal.Correction.Weighted>
   9.000000E+99

> <Gold.Protein.RotatedTorsions>
[ 6907 6896 6895 6894 ] final  120.28 input  -60.11 | X-H torsion
[ 7974 7965 7964 7962 ] final  114.52 input  175.53 | X-H torsion
[ 8008 7997 7996 7995 ] final   83.75 input   59.86 | X-H torsion
[ 10167 10162 10161 10158 ] final   50.10 input  -65.29 | X-H torsion
[ 10718 10713 10712 10709 ] final  136.90 input   66.30 | X-H torsion
[ 10763 10752 10751 10750 ] final  -90.61 input  -60.55 | X-H torsion
[ 11005 11000 10999 10996 ] final   15.47 input  -57.11 | X-H torsion

> <Gold.Protein.ActiveResidues>
 VAL166  LYS551  ARG553  GLY616  TRP617  ASP618  TYR619  PRO620  LYS621  CYS622 
 ASP623  PHE694  ASN695  SER759  ASP760  ASP761  ALA762  ILE779  LEU786  VAL792 
 PHE793  MET794  SER795  GLU796  ALA797  LYS798  CYS799  TRP800  GLU811  SER814 

> <Gold.Protein.RotatedAtoms>
  152.4410  133.7448  159.6660 H   0  0  0  0  0  0  0  0  0  0  0  0  # atno 6907 bound_to 6896
  150.8301  133.8095  159.3108 H   0  0  0  0  0  0  0  0  0  0  0  0  # atno 6908 bound_to 6896
  151.5752  135.1063  160.0056 H   0  0  0  0  0  0  0  0  0  0  0  0  # atno 6909 bound_to 6896
  145.2034  139.2941  143.4306 H   0  0  0  0  0  0  0  0  0  0  0  0  # atno 7974 bound_to 7965
  155.9281  140.3417  155.6226 H   0  0  0  0  0  0  0  0  0  0  0  0  # atno 8008 bound_to 7997
  155.7192  140.0781  157.2357 H   0  0  0  0  0  0  0  0  0  0  0  0  # atno 8009 bound_to 7997
  154.4080  140.1608  156.2370 H   0  0  0  0  0  0  0  0  0  0  0  0  # atno 8010 bound_to 7997
  140.2759  144.3212  150.6277 H   0  0  0  0  0  0  0  0  0  0  0  0  # atno 10167 bound_to 10162
  157.4418  131.1058  151.0135 H   0  0  0  0  0  0  0  0  0  0  0  0  # atno 10718 bound_to 10713
  154.6675  135.5298  153.8096 H   0  0  0  0  0  0  0  0  0  0  0  0  # atno 10763 bound_to 10752
  153.0480  135.6521  154.0776 H   0  0  0  0  0  0  0  0  0  0  0  0  # atno 10764 bound_to 10752
  154.0678  135.2956  155.3293 H   0  0  0  0  0  0  0  0  0  0  0  0  # atno 10765 bound_to 10752
  140.4580  134.1157  155.7712 H   0  0  0  0  0  0  0  0  0  0  0  0  # atno 11005 bound_to 11000
  146.3413  140.2286  142.8593 LP  0  0  0  0  0  0  0  0  0  0  0  0  # atno 17320 bound_to 7965
  144.9926  140.8560  143.5330 LP  0  0  0  0  0  0  0  0  0  0  0  0  # atno 17321 bound_to 7965
  140.5851  143.2170  151.7356 LP  0  0  0  0  0  0  0  0  0  0  0  0  # atno 17342 bound_to 10162
  139.4976  144.4022  152.0169 LP  0  0  0  0  0  0  0  0  0  0  0  0  # atno 17343 bound_to 10162
  157.0995  130.5976  149.5457 LP  0  0  0  0  0  0  0  0  0  0  0  0  # atno 17370 bound_to 10713
  155.9951  130.5017  150.7448 LP  0  0  0  0  0  0  0  0  0  0  0  0  # atno 17371 bound_to 10713
  141.1634  133.8749  157.1783 LP  0  0  0  0  0  0  0  0  0  0  0  0  # atno 17394 bound_to 11000
  139.9964  135.0045  157.0091 LP  0  0  0  0  0  0  0  0  0  0  0  0  # atno 17395 bound_to 11000

$$$$
