AV-unprocessed.smi:1402|AV-procd|sdf|5696|dock5
  -GOLD-   22720 5323D 1   1.00000     0.00000
 Structure written by MMmdl.
 44 45  0  0  0  0  0  0  0  0  1 V2000
  156.3957  140.7599  169.5922 C   0  0  0  0  0  0  0  0  0  0  0  0
  156.2432  140.3239  168.1652 C   0  0  0  0  0  0  0  0  0  0  0  0
  155.6501  141.0416  167.0865 C   0  0  0  0  0  0  0  0  0  0  0  0
  155.7765  140.1706  166.0389 C   0  0  0  0  0  0  0  0  0  0  0  0
  155.3836  140.3338  164.7477 N   0  0  0  0  0  0  0  0  0  0  0  0
  154.6772  141.3435  164.2104 C   0  0  0  0  0  0  0  0  0  0  0  0
  154.2903  142.3435  164.8159 O   0  0  0  0  0  0  0  0  0  0  0  0
  154.4240  141.1197  162.9129 N   0  0  0  0  0  0  0  0  0  0  0  0
  153.5950  141.9696  162.0657 C   0  0  0  0  0  0  0  0  0  0  0  0
  153.6718  141.5353  160.5871 C   0  0  0  0  0  0  0  0  0  0  0  0
  152.5538  142.0707  159.8014 N   0  0  0  0  0  0  0  0  0  0  0  0
  151.9145  143.2852  160.3308 C   0  0  0  0  0  0  0  0  0  0  0  0
  152.1965  144.5539  159.4930 C   0  0  0  0  0  0  0  0  0  0  0  0
  152.4040  144.3393  157.9804 C   0  0  0  0  0  0  0  0  0  0  0  0
  151.3002  143.5199  157.2788 C   0  0  0  0  0  0  0  0  0  0  0  0
  150.9882  142.1258  157.8748 C   0  0  0  0  0  0  0  0  0  0  0  0
  152.1563  141.4879  158.6437 C   0  0  0  0  0  0  0  0  0  0  0  0
  152.6899  140.4798  158.1804 O   0  0  0  0  0  0  0  0  0  0  0  0
  156.4144  139.0314  166.4818 N   0  0  0  0  0  0  0  0  0  0  0  0
  156.7823  137.8248  165.7662 C   0  0  0  0  0  0  0  0  0  0  0  0
  156.6969  139.1306  167.7984 N   0  0  0  0  0  0  0  0  0  0  0  0
  156.0181  141.7721  169.7380 H   0  0  0  0  0  0  0  0  0  0  0  0
  157.4421  140.7490  169.8975 H   0  0  0  0  0  0  0  0  0  0  0  0
  155.8447  140.1010  170.2634 H   0  0  0  0  0  0  0  0  0  0  0  0
  155.2112  142.0279  167.1001 H   0  0  0  0  0  0  0  0  0  0  0  0
  155.6014  139.5653  164.1307 H   0  0  0  0  0  0  0  0  0  0  0  0
  154.7870  140.2758  162.4943 H   0  0  0  0  0  0  0  0  0  0  0  0
  152.5638  142.0172  162.4213 H   0  0  0  0  0  0  0  0  0  0  0  0
  153.9828  142.9843  162.1588 H   0  0  0  0  0  0  0  0  0  0  0  0
  154.6117  141.8863  160.1589 H   0  0  0  0  0  0  0  0  0  0  0  0
  153.7239  140.4486  160.4933 H   0  0  0  0  0  0  0  0  0  0  0  0
  150.8389  143.1214  160.3992 H   0  0  0  0  0  0  0  0  0  0  0  0
  152.2175  143.4635  161.3633 H   0  0  0  0  0  0  0  0  0  0  0  0
  151.3870  145.2672  159.6525 H   0  0  0  0  0  0  0  0  0  0  0  0
  153.0929  145.0353  159.8851 H   0  0  0  0  0  0  0  0  0  0  0  0
  152.4820  145.3130  157.4960 H   0  0  0  0  0  0  0  0  0  0  0  0
  153.3713  143.8636  157.8127 H   0  0  0  0  0  0  0  0  0  0  0  0
  150.3799  144.1050  157.2657 H   0  0  0  0  0  0  0  0  0  0  0  0
  151.5819  143.3967  156.2325 H   0  0  0  0  0  0  0  0  0  0  0  0
  150.1225  142.1846  158.5341 H   0  0  0  0  0  0  0  0  0  0  0  0
  150.6804  141.4544  157.0720 H   0  0  0  0  0  0  0  0  0  0  0  0
  156.5236  137.9074  164.7107 H   0  0  0  0  0  0  0  0  0  0  0  0
  156.2537  136.9713  166.1918 H   0  0  0  0  0  0  0  0  0  0  0  0
  157.8564  137.6586  165.8529 H   0  0  0  0  0  0  0  0  0  0  0  0
  1  2  1  0  0  0  0
  1 22  1  0  0  0  0
  1 23  1  0  0  0  0
  1 24  1  0  0  0  0
  2 21  2  0  0  0  0
  2  3  1  0  0  0  0
  3  4  2  0  0  0  0
  3 25  1  0  0  0  0
  4  5  1  0  0  0  0
  4 19  1  0  0  0  0
  5  6  1  0  0  0  0
  5 26  1  0  0  0  0
  6  7  2  0  0  0  0
  6  8  1  0  0  0  0
  8  9  1  0  0  0  0
  8 27  1  0  0  0  0
  9 10  1  0  0  0  0
  9 28  1  0  0  0  0
  9 29  1  0  0  0  0
 10 11  1  0  0  0  0
 10 30  1  0  0  0  0
 10 31  1  0  0  0  0
 11 17  1  0  0  0  0
 11 12  1  0  0  0  0
 12 13  1  0  0  0  0
 12 32  1  0  0  0  0
 12 33  1  0  0  0  0
 13 14  1  0  0  0  0
 13 34  1  0  0  0  0
 13 35  1  0  0  0  0
 14 15  1  0  0  0  0
 14 36  1  0  0  0  0
 14 37  1  0  0  0  0
 15 16  1  0  0  0  0
 15 38  1  0  0  0  0
 15 39  1  0  0  0  0
 16 17  1  0  0  0  0
 16 40  1  0  0  0  0
 16 41  1  0  0  0  0
 17 18  2  0  0  0  0
 19 20  1  0  0  0  0
 19 21  1  0  0  0  0
 20 42  1  0  0  0  0
 20 43  1  0  0  0  0
 20 44  1  0  0  0  0
M  END
> <s_m_source_file>
AV-unprocessed.smi

> <i_m_source_file_index>
1402

> <i_lp_mmshare_version>
43012

> <i_f3d_flags>
0

> <s_epik_input>
W0NIM11jMVtjSF1jKG4objEpW0NIM10pW05IXUMoPU8pW05IXVtDSDJdW0NIMl1OMltDSDJdW0NIMl1bQ0gyXVtDSDJdW0NIMl1DMj1P

> <s_epik_cmdline>
J2VwaWtfcHl0aG9uJywgJy1waCcsICc3LjAnLCAnLXRuJywgJzgnLCAnLW1hJywgJzIwMCcsICctbWV0YWxfYmluZGluZycsICctaW1hZScsICc8aW5maWxlLm1hZT4nLCAnLW9tYWUnLCAnPG91dGZpbGUubWFlPic=

> <r_lp_tautomer_probability>
1

> <r_epik_Ionization_Penalty>
9.00432e-05

> <r_epik_Ionization_Penalty_Charging>
0

> <r_epik_Ionization_Penalty_Neutral>
9.00432e-05

> <r_epik_State_Penalty>
-0

> <r_epik_Charging_Adjusted_Penalty>
0

> <i_epik_Tot_Q>
0

> <i_epik_Tot_abs_Q>
0

> <r_epik_Metal_State_Penalty>
-0

> <b_epik_Metal_Only>
0

> <s_lp_Force_Field>
OPLS_2005

> <r_lp_Energy>
25.7606

> <b_lp_Chiralities_Consistent>
1

> <s_lp_Variant>
AV-unprocessed.smi:1402-1

> <Gold.Version>
5.8.1

> <Gold.Id.Protein>
6NUR|6NUR_protein|mol2

> <Gold.PLP.Fitness>
45.4874

> <Gold.PLP.PLP>
-44.5390

> <Gold.PLP.part.hbond>
-3.2919

> <Gold.PLP.part.metal>
0.0000

> <Gold.PLP.part.buried>
-4.8009

> <Gold.PLP.part.nonpolar>
-34.8941

> <Gold.PLP.part.repulsive>
0.1588

> <Gold.PLP.ligand.clash>
0.0000

> <Gold.PLP.ligand.torsion>
0.4451

> <Gold.PLP.Chemscore.Hbond>
0.6084

> <Gold.PLP.Chemscore.CHOScore>
0.0000

> <Gold.PLP.Chemscore.Metal>
0.0000

> <Gold.Chemscore.Hbonds>
donor molecule, donor type, donor heavy atom, donor atom, acceptor molecule, acceptor atom, score
      P1  H  7997  8010       L1    18  0.22

> <Gold.PLP.Chemscore.Internal.Correction>
0.0134

> <Gold.Rescore>
     Score         DG    S(hbond)    S(metal)    S(lipo)     H(rot)  DE(clash)    DE(int)     intcor
     11.19     -14.46       0.87        0.00      85.70       1.54       1.69       1.58       ----

> <Gold.Chemscore.Fitness>
11.1855

> <Gold.Chemscore.DG>
-14.4564

> <Gold.Chemscore.ZeroCoef>
-5.4800

> <Gold.Chemscore.Hbond>
0.8664

> <Gold.Chemscore.Metal>
0.0000

> <Gold.Chemscore.Lipo>
85.6991

> <Gold.Chemscore.Internal_Hbond>
0.0000

> <Gold.Chemscore.DEClash>
1.6919

> <Gold.Chemscore.DEInternal>
1.5790

> <Gold.Chemscore.Rot>
1.5407

> <Gold.Chemscore.Internal.Correction>
   9.000000E+99

> <Gold.Chemscore.Hbonds>
donor molecule, donor type, donor heavy atom, donor atom, acceptor molecule, acceptor atom, score
      P1  H  7997  8010       L1    18  0.22

> <Gold.Chemscore.Hbond.Weighted>
-2.8937

> <Gold.Chemscore.Metal.Weighted>
-0.0000

> <Gold.Chemscore.Lipo.Weighted>
-10.0268

> <Gold.Chemscore.Internal_Hbond.Weighted>
0.0000

> <Gold.Chemscore.DEClash.Weighted>
1.6919

> <Gold.Chemscore.DEInternal.Weighted>
1.5790

> <Gold.Chemscore.Rot.Weighted>
3.9441

> <Gold.Chemscore.Internal.Correction.Weighted>
   9.000000E+99

> <Gold.Protein.RotatedTorsions>
[ 6907 6896 6895 6894 ] final  153.90 input  -60.11 | X-H torsion
[ 7974 7965 7964 7962 ] final  170.00 input  175.53 | X-H torsion
[ 8008 7997 7996 7995 ] final   24.76 input   59.86 | X-H torsion
[ 10167 10162 10161 10158 ] final  -84.49 input  -65.29 | X-H torsion
[ 10718 10713 10712 10709 ] final  153.25 input   66.30 | X-H torsion
[ 10763 10752 10751 10750 ] final   68.31 input  -60.55 | X-H torsion
[ 11005 11000 10999 10996 ] final -141.45 input  -57.11 | X-H torsion

> <Gold.Protein.ActiveResidues>
 VAL166  LYS551  ARG553  GLY616  TRP617  ASP618  TYR619  PRO620  LYS621  CYS622 
 ASP623  PHE694  ASN695  SER759  ASP760  ASP761  ALA762  ILE779  LEU786  VAL792 
 PHE793  MET794  SER795  GLU796  ALA797  LYS798  CYS799  TRP800  GLU811  SER814 

> <Gold.Protein.RotatedAtoms>
  152.0662  133.4085  159.4438 H   0  0  0  0  0  0  0  0  0  0  0  0  # atno 6907 bound_to 6896
  150.6864  134.3144  159.4769 H   0  0  0  0  0  0  0  0  0  0  0  0  # atno 6908 bound_to 6896
  152.0970  134.9367  160.0621 H   0  0  0  0  0  0  0  0  0  0  0  0  # atno 6909 bound_to 6896
  144.7337  139.9138  143.6416 H   0  0  0  0  0  0  0  0  0  0  0  0  # atno 7974 bound_to 7965
  155.0012  140.3125  155.4866 H   0  0  0  0  0  0  0  0  0  0  0  0  # atno 8008 bound_to 7997
  156.2924  140.2231  156.5063 H   0  0  0  0  0  0  0  0  0  0  0  0  # atno 8009 bound_to 7997
  154.7617  140.0458  157.0967 H   0  0  0  0  0  0  0  0  0  0  0  0  # atno 8010 bound_to 7997
  140.4127  143.2616  151.8995 H   0  0  0  0  0  0  0  0  0  0  0  0  # atno 10167 bound_to 10162
  157.2472  131.0771  151.1754 H   0  0  0  0  0  0  0  0  0  0  0  0  # atno 10718 bound_to 10713
  153.0229  135.5252  154.7114 H   0  0  0  0  0  0  0  0  0  0  0  0  # atno 10763 bound_to 10752
  154.6195  135.2887  155.0344 H   0  0  0  0  0  0  0  0  0  0  0  0  # atno 10764 bound_to 10752
  154.1336  135.6589  153.4979 H   0  0  0  0  0  0  0  0  0  0  0  0  # atno 10765 bound_to 10752
  140.8323  134.2502  157.4850 H   0  0  0  0  0  0  0  0  0  0  0  0  # atno 11005 bound_to 11000
  146.0981  139.3975  143.0364 LP  0  0  0  0  0  0  0  0  0  0  0  0  # atno 17320 bound_to 7965
  145.7617  140.9932  143.1196 LP  0  0  0  0  0  0  0  0  0  0  0  0  # atno 17321 bound_to 7965
  139.4782  144.5520  151.8372 LP  0  0  0  0  0  0  0  0  0  0  0  0  # atno 17342 bound_to 10162
  140.4620  144.1709  150.5907 LP  0  0  0  0  0  0  0  0  0  0  0  0  # atno 17343 bound_to 10162
  157.3317  130.6988  149.6328 LP  0  0  0  0  0  0  0  0  0  0  0  0  # atno 17370 bound_to 10713
  155.9667  130.4305  150.4881 LP  0  0  0  0  0  0  0  0  0  0  0  0  # atno 17371 bound_to 10713
  139.8704  134.9593  156.4326 LP  0  0  0  0  0  0  0  0  0  0  0  0  # atno 17394 bound_to 11000
  140.8984  133.7797  155.9652 LP  0  0  0  0  0  0  0  0  0  0  0  0  # atno 17395 bound_to 11000

$$$$
