AV-unprocessed.smi:2993|AV-procd|sdf|11402|dock5
  -GOLD-   2272016323D 1   1.00000     0.00000
 Structure written by MMmdl.
 34 35  0  0  0  0  0  0  0  0  1 V2000
  150.7143  141.7939  156.0307 C   0  0  0  0  0  0  0  0  0  0  0  0
  150.8763  140.3490  155.6536 C   0  0  0  0  0  0  0  0  0  0  0  0
  150.8421  140.0058  154.3770 N   0  0  0  0  0  0  0  0  0  0  0  0
  151.0188  138.6192  154.3477 O   0  0  0  0  0  0  0  0  0  0  0  0
  151.1526  138.1761  155.6235 C   0  0  0  0  0  0  0  0  0  0  0  0
  151.3545  136.7088  155.7989 C   0  0  0  0  0  0  0  0  0  0  0  0
  151.0693  139.2212  156.5030 C   0  0  0  0  0  0  0  0  0  0  0  0
  151.1614  139.1969  158.0072 C   0  0  0  0  0  0  0  0  0  0  0  0
  152.2516  140.1631  158.4699 C   0  0  0  0  0  0  0  0  0  0  0  0
  153.4283  139.8028  158.4830 O   0  0  0  0  0  0  0  0  0  0  0  0
  151.8429  141.3829  158.8524 N   0  0  0  0  0  0  0  0  0  0  0  0
  152.7032  142.4506  159.3496 C   0  0  2  0  0  0  0  0  0  0  0  0
  153.2840  142.0182  160.7031 C   0  0  0  0  0  0  0  0  0  0  0  0
  151.9978  143.7914  159.4665 C   0  0  0  0  0  0  0  0  0  0  0  0
  151.1009  144.3084  158.3659 C   0  0  0  0  0  0  0  0  0  0  0  0
  152.4318  144.9730  158.6318 C   0  0  0  0  0  0  0  0  0  0  0  0
  151.1235  141.9945  157.0207 H   0  0  0  0  0  0  0  0  0  0  0  0
  149.6621  142.0780  156.0430 H   0  0  0  0  0  0  0  0  0  0  0  0
  151.2283  142.4484  155.3260 H   0  0  0  0  0  0  0  0  0  0  0  0
  151.7259  136.4793  156.7975 H   0  0  0  0  0  0  0  0  0  0  0  0
  152.0773  136.3283  155.0771 H   0  0  0  0  0  0  0  0  0  0  0  0
  150.4171  136.1717  155.6560 H   0  0  0  0  0  0  0  0  0  0  0  0
  150.2153  139.4828  158.4680 H   0  0  0  0  0  0  0  0  0  0  0  0
  151.3842  138.1955  158.3778 H   0  0  0  0  0  0  0  0  0  0  0  0
  150.8547  141.5838  158.8045 H   0  0  0  0  0  0  0  0  0  0  0  0
  153.5413  142.5680  158.6596 H   0  0  0  0  0  0  0  0  0  0  0  0
  153.9826  142.7622  161.0870 H   0  0  0  0  0  0  0  0  0  0  0  0
  153.8253  141.0754  160.6171 H   0  0  0  0  0  0  0  0  0  0  0  0
  152.4986  141.8849  161.4479 H   0  0  0  0  0  0  0  0  0  0  0  0
  151.6876  144.0296  160.4825 H   0  0  0  0  0  0  0  0  0  0  0  0
  151.0120  143.7139  157.4589 H   0  0  0  0  0  0  0  0  0  0  0  0
  150.2013  144.8442  158.6616 H   0  0  0  0  0  0  0  0  0  0  0  0
  152.4201  145.9524  159.1051 H   0  0  0  0  0  0  0  0  0  0  0  0
  153.2244  144.8165  157.9026 H   0  0  0  0  0  0  0  0  0  0  0  0
  1  2  1  0  0  0  0
  1 17  1  0  0  0  0
  1 18  1  0  0  0  0
  1 19  1  0  0  0  0
  2  7  1  0  0  0  0
  2  3  2  0  0  0  0
  3  4  1  0  0  0  0
  4  5  1  0  0  0  0
  5  6  1  0  0  0  0
  5  7  2  0  0  0  0
  6 20  1  0  0  0  0
  6 21  1  0  0  0  0
  6 22  1  0  0  0  0
  7  8  1  0  0  0  0
  8  9  1  0  0  0  0
  8 23  1  0  0  0  0
  8 24  1  0  0  0  0
  9 10  2  0  0  0  0
  9 11  1  0  0  0  0
 11 12  1  0  0  0  0
 11 25  1  0  0  0  0
 12 13  1  0  0  0  0
 12 14  1  0  0  0  0
 12 26  1  0  0  0  0
 13 27  1  0  0  0  0
 13 28  1  0  0  0  0
 13 29  1  0  0  0  0
 14 16  1  0  0  0  0
 14 15  1  0  0  0  0
 14 30  1  0  0  0  0
 15 16  1  0  0  0  0
 15 31  1  0  0  0  0
 15 32  1  0  0  0  0
 16 33  1  0  0  0  0
 16 34  1  0  0  0  0
M  END
> <s_m_source_file>
AV-unprocessed.smi

> <i_m_source_file_index>
2993

> <i_lp_mmshare_version>
43012

> <i_f3d_flags>
0

> <s_epik_input>
W0NIM11jMW5vYyhbQ0gzXSljMVtDSDJdQyg9TylbTkhdW0NASF0oW0NIM10pW0NIXTJbQ0gyXVtDSDJdMg==

> <s_epik_cmdline>
J2VwaWtfcHl0aG9uJywgJy1waCcsICc3LjAnLCAnLXRuJywgJzgnLCAnLW1hJywgJzIwMCcsICctbWV0YWxfYmluZGluZycsICctaW1hZScsICc8aW5maWxlLm1hZT4nLCAnLW9tYWUnLCAnPG91dGZpbGUubWFlPic=

> <r_lp_tautomer_probability>
1

> <r_epik_Ionization_Penalty>
1.92533e-08

> <r_epik_Ionization_Penalty_Charging>
0

> <r_epik_Ionization_Penalty_Neutral>
1.92533e-08

> <r_epik_State_Penalty>
-0

> <r_epik_Charging_Adjusted_Penalty>
0

> <i_epik_Tot_Q>
0

> <i_epik_Tot_abs_Q>
0

> <r_epik_Metal_State_Penalty>
-0

> <b_epik_Metal_Only>
0

> <s_lp_Force_Field>
OPLS_2005

> <r_lp_Energy>
6.61094

> <b_lp_Chiralities_Consistent>
1

> <s_lp_Variant>
AV-unprocessed.smi:2993-1

> <Gold.Version>
5.8.1

> <Gold.Id.Protein>
6NUR|6NUR_protein|mol2

> <Gold.PLP.Fitness>
39.7502

> <Gold.PLP.PLP>
-35.2514

> <Gold.PLP.part.hbond>
-2.0000

> <Gold.PLP.part.metal>
0.0000

> <Gold.PLP.part.buried>
-5.3396

> <Gold.PLP.part.nonpolar>
-28.5537

> <Gold.PLP.part.repulsive>
0.3934

> <Gold.PLP.ligand.clash>
0.0000

> <Gold.PLP.ligand.torsion>
1.2732

> <Gold.PLP.Chemscore.Hbond>
1.9920

> <Gold.PLP.Chemscore.CHOScore>
0.0000

> <Gold.PLP.Chemscore.Metal>
0.0000

> <Gold.Chemscore.Hbonds>
donor molecule, donor type, donor heavy atom, donor atom, acceptor molecule, acceptor atom, score
      P1  H  7989  7998       L1     3  0.83
      P1  H  7997  8008       L1    10  0.99

> <Gold.PLP.Chemscore.Internal.Correction>
1.0693

> <Gold.Rescore>
     Score         DG    S(hbond)    S(metal)    S(lipo)     H(rot)  DE(clash)    DE(int)     intcor
     17.78     -19.06       1.90        0.00      93.69       1.46       0.01       1.27       ----

> <Gold.Chemscore.Fitness>
17.7796

> <Gold.Chemscore.DG>
-19.0632

> <Gold.Chemscore.ZeroCoef>
-5.4800

> <Gold.Chemscore.Hbond>
1.9025

> <Gold.Chemscore.Metal>
0.0000

> <Gold.Chemscore.Lipo>
93.6942

> <Gold.Chemscore.Internal_Hbond>
0.0000

> <Gold.Chemscore.DEClash>
0.0135

> <Gold.Chemscore.DEInternal>
1.2701

> <Gold.Chemscore.Rot>
1.4584

> <Gold.Chemscore.Internal.Correction>
   9.000000E+99

> <Gold.Chemscore.Hbonds>
donor molecule, donor type, donor heavy atom, donor atom, acceptor molecule, acceptor atom, score
      P1  H  7989  7998       L1     3  0.73
      P1  H  7997  8008       L1    10  0.93

> <Gold.Chemscore.Hbond.Weighted>
-6.3544

> <Gold.Chemscore.Metal.Weighted>
-0.0000

> <Gold.Chemscore.Lipo.Weighted>
-10.9622

> <Gold.Chemscore.Internal_Hbond.Weighted>
0.0000

> <Gold.Chemscore.DEClash.Weighted>
0.0135

> <Gold.Chemscore.DEInternal.Weighted>
1.2701

> <Gold.Chemscore.Rot.Weighted>
3.7334

> <Gold.Chemscore.Internal.Correction.Weighted>
   9.000000E+99

> <Gold.Protein.RotatedTorsions>
[ 6907 6896 6895 6894 ] final  -52.45 input  -60.11 | X-H torsion
[ 7974 7965 7964 7962 ] final  -13.55 input  175.53 | X-H torsion
[ 8008 7997 7996 7995 ] final -107.47 input   59.86 | X-H torsion
[ 10167 10162 10161 10158 ] final  115.32 input  -65.29 | X-H torsion
[ 10718 10713 10712 10709 ] final -150.31 input   66.30 | X-H torsion
[ 10763 10752 10751 10750 ] final -158.59 input  -60.55 | X-H torsion
[ 11005 11000 10999 10996 ] final   52.12 input  -57.11 | X-H torsion

> <Gold.Protein.ActiveResidues>
 VAL166  LYS551  ARG553  GLY616  TRP617  ASP618  TYR619  PRO620  LYS621  CYS622 
 ASP623  PHE694  ASN695  SER759  ASP760  ASP761  ALA762  ILE779  LEU786  VAL792 
 PHE793  MET794  SER795  GLU796  ALA797  LYS798  CYS799  TRP800  GLU811  SER814 

> <Gold.Protein.RotatedAtoms>
  150.8517  134.7844  159.7013 H   0  0  0  0  0  0  0  0  0  0  0  0  # atno 6907 bound_to 6896
  152.4580  134.5245  159.9802 H   0  0  0  0  0  0  0  0  0  0  0  0  # atno 6908 bound_to 6896
  151.5365  133.3402  159.2963 H   0  0  0  0  0  0  0  0  0  0  0  0  # atno 6909 bound_to 6896
  146.2110  140.3219  142.8391 H   0  0  0  0  0  0  0  0  0  0  0  0  # atno 7974 bound_to 7965
  154.9298  140.0405  157.2042 H   0  0  0  0  0  0  0  0  0  0  0  0  # atno 8008 bound_to 7997
  154.8172  140.2877  155.5790 H   0  0  0  0  0  0  0  0  0  0  0  0  # atno 8009 bound_to 7997
  156.2977  140.2525  156.3072 H   0  0  0  0  0  0  0  0  0  0  0  0  # atno 8010 bound_to 7997
  139.6325  144.7116  151.2402 H   0  0  0  0  0  0  0  0  0  0  0  0  # atno 10167 bound_to 10162
  156.4445  130.8138  151.2368 H   0  0  0  0  0  0  0  0  0  0  0  0  # atno 10718 bound_to 10713
  154.7544  135.3101  154.8497 H   0  0  0  0  0  0  0  0  0  0  0  0  # atno 10763 bound_to 10752
  153.9275  135.6789  153.4750 H   0  0  0  0  0  0  0  0  0  0  0  0  # atno 10764 bound_to 10752
  153.1141  135.4853  154.9014 H   0  0  0  0  0  0  0  0  0  0  0  0  # atno 10765 bound_to 10752
  140.0876  134.5253  155.8884 H   0  0  0  0  0  0  0  0  0  0  0  0  # atno 11005 bound_to 11000
  144.8914  140.7528  143.5924 LP  0  0  0  0  0  0  0  0  0  0  0  0  # atno 17320 bound_to 7965
  145.3142  139.1809  143.4622 LP  0  0  0  0  0  0  0  0  0  0  0  0  # atno 17321 bound_to 7965
  140.7447  143.6454  150.8296 LP  0  0  0  0  0  0  0  0  0  0  0  0  # atno 17342 bound_to 10162
  140.0081  143.5672  152.2849 LP  0  0  0  0  0  0  0  0  0  0  0  0  # atno 17343 bound_to 10162
  157.7505  131.0157  150.3517 LP  0  0  0  0  0  0  0  0  0  0  0  0  # atno 17370 bound_to 10713
  156.3882  130.3893  149.7050 LP  0  0  0  0  0  0  0  0  0  0  0  0  # atno 17371 bound_to 10713
  141.2067  133.6658  156.6262 LP  0  0  0  0  0  0  0  0  0  0  0  0  # atno 17394 bound_to 11000
  140.3398  134.7858  157.4389 LP  0  0  0  0  0  0  0  0  0  0  0  0  # atno 17395 bound_to 11000

$$$$
