AV-unprocessed.smi:3025|AV-procd|sdf|11507|dock7
  -GOLD-   2272016443D 1   1.00000     0.00000
 Structure written by MMmdl.
 42 43  0  0  0  0  0  0  0  0  2 V2000
  151.8570  142.6042  158.1435 C   0  0  0  0  0  0  0  0  0  0  0  0
  151.0588  142.5378  156.8367 C   0  0  0  0  0  0  0  0  0  0  0  0
  150.5201  141.1262  156.5480 C   0  0  0  0  0  0  0  0  0  0  0  0
  149.7495  141.0037  155.2172 C   0  0  2  0  0  0  0  0  0  0  0  0
  148.4472  141.8320  155.2076 C   0  0  0  0  0  0  0  0  0  0  0  0
  147.6781  141.6776  153.8853 C   0  0  0  0  0  0  0  0  0  0  0  0
  147.3673  140.1988  153.5765 C   0  0  1  0  0  0  0  0  0  0  0  0
  146.6809  140.0461  152.2742 N   0  3  0  0  0  0  0  0  0  0  0  0
  146.6911  138.6793  151.7125 C   0  0  0  0  0  0  0  0  0  0  0  0
  145.8574  137.7228  152.5750 C   0  0  0  0  0  0  0  0  0  0  0  0
  145.4743  136.4881  151.8287 C   0  0  0  0  0  0  0  0  0  0  0  0
  145.8480  136.3053  150.5614 N   0  0  0  0  0  0  0  0  0  0  0  0
  145.3447  135.0811  150.2927 N   0  0  0  0  0  0  0  0  0  0  0  0
  144.7370  134.6183  151.3841 C   0  0  0  0  0  0  0  0  0  0  0  0
  144.7872  135.4578  152.4102 N   0  0  0  0  0  0  0  0  0  0  0  0
  148.6683  139.3770  153.5786 C   0  0  0  0  0  0  0  0  0  0  0  0
  149.4296  139.5279  154.9051 C   0  0  0  0  0  0  0  0  0  0  0  0
  152.2304  143.6130  158.3194 H   0  0  0  0  0  0  0  0  0  0  0  0
  152.7155  141.9324  158.1163 H   0  0  0  0  0  0  0  0  0  0  0  0
  151.2389  142.3251  158.9970 H   0  0  0  0  0  0  0  0  0  0  0  0
  150.2371  143.2512  156.8943 H   0  0  0  0  0  0  0  0  0  0  0  0
  151.6947  142.8629  156.0125 H   0  0  0  0  0  0  0  0  0  0  0  0
  151.3665  140.4385  156.5270 H   0  0  0  0  0  0  0  0  0  0  0  0
  149.8869  140.7974  157.3731 H   0  0  0  0  0  0  0  0  0  0  0  0
  150.3964  141.3757  154.4209 H   0  0  0  0  0  0  0  0  0  0  0  0
  147.8087  141.5246  156.0369 H   0  0  0  0  0  0  0  0  0  0  0  0
  148.6658  142.8881  155.3625 H   0  0  0  0  0  0  0  0  0  0  0  0
  146.7594  142.2608  153.9455 H   0  0  0  0  0  0  0  0  0  0  0  0
  148.2650  142.1093  153.0734 H   0  0  0  0  0  0  0  0  0  0  0  0
  146.7148  139.7995  154.3550 H   0  0  0  0  0  0  0  0  0  0  0  0
  145.7258  140.3606  152.3706 H   0  0  0  0  0  0  0  0  0  0  0  0
  146.2926  138.7047  150.6973 H   0  0  0  0  0  0  0  0  0  0  0  0
  147.7152  138.3118  151.6487 H   0  0  0  0  0  0  0  0  0  0  0  0
  146.4183  137.4364  153.4659 H   0  0  0  0  0  0  0  0  0  0  0  0
  144.9531  138.2226  152.9258 H   0  0  0  0  0  0  0  0  0  0  0  0
  144.2559  133.6520  151.4306 H   0  0  0  0  0  0  0  0  0  0  0  0
  148.4446  138.3234  153.4063 H   0  0  0  0  0  0  0  0  0  0  0  0
  149.3104  139.6946  152.7557 H   0  0  0  0  0  0  0  0  0  0  0  0
  150.3518  138.9477  154.8595 H   0  0  0  0  0  0  0  0  0  0  0  0
  148.8372  139.0999  155.7151 H   0  0  0  0  0  0  0  0  0  0  0  0
  147.1494  140.6459  151.6103 H   0  0  0  0  0  0  0  0  0  0  0  0
  145.4420  134.6246  149.3968 H   0  0  0  0  0  0  0  0  0  0  0  0
  1  2  1  0  0  0  0
  1 18  1  0  0  0  0
  1 19  1  0  0  0  0
  1 20  1  0  0  0  0
  2  3  1  0  0  0  0
  2 21  1  0  0  0  0
  2 22  1  0  0  0  0
  3  4  1  0  0  0  0
  3 23  1  0  0  0  0
  3 24  1  0  0  0  0
  4 17  1  0  0  0  0
  4  5  1  0  0  0  0
  4 25  1  0  0  0  0
  5  6  1  0  0  0  0
  5 26  1  0  0  0  0
  5 27  1  0  0  0  0
  6  7  1  0  0  0  0
  6 28  1  0  0  0  0
  6 29  1  0  0  0  0
  7  8  1  0  0  0  0
  7 16  1  0  0  0  0
  7 30  1  0  0  0  0
  8  9  1  0  0  0  0
  8 31  1  0  0  0  0
  8 41  1  0  0  0  0
  9 10  1  0  0  0  0
  9 32  1  0  0  0  0
  9 33  1  0  0  0  0
 10 34  1  0  0  0  0
 10 35  1  0  0  0  0
 10 11  1  0  0  0  0
 11 15  1  0  0  0  0
 11 12  2  0  0  0  0
 12 13  1  0  0  0  0
 13 14  1  0  0  0  0
 13 42  1  0  0  0  0
 14 15  2  0  0  0  0
 14 36  1  0  0  0  0
 16 17  1  0  0  0  0
 16 37  1  0  0  0  0
 16 38  1  0  0  0  0
 17 39  1  0  0  0  0
 17 40  1  0  0  0  0
M  CHG  1   8   1
M  END
> <s_m_source_file>
AV-unprocessed.smi

> <i_m_source_file_index>
3025

> <i_lp_mmshare_version>
43012

> <i_f3d_flags>
0

> <s_epik_input>
W0NIM11bQ0gyXVtDSDJdW0NAQEhdMVtDSDJdW0NIMl1bQ0BIXShbQ0gyXVtDSDJdMSlbTkhdW0NIMl1bQ0gyXWMybm5bY0hdW25IXTI=

> <s_epik_cmdline>
J2VwaWtfcHl0aG9uJywgJy1waCcsICc3LjAnLCAnLXRuJywgJzgnLCAnLW1hJywgJzIwMCcsICctbWV0YWxfYmluZGluZycsICctaW1hZScsICc8aW5maWxlLm1hZT4nLCAnLW9tYWUnLCAnPG91dGZpbGUubWFlPic=

> <r_epik_Ionization_Penalty>
0.00995411

> <r_epik_Ionization_Penalty_Charging>
0.000442289

> <r_epik_Ionization_Penalty_Neutral>
0.00951182

> <r_epik_State_Penalty>
0.448541

> <r_epik_Charging_Adjusted_Penalty>
0.448983

> <i_epik_Tot_Q>
1

> <i_epik_Tot_abs_Q>
1

> <r_epik_Metal_State_Penalty>
0.682245

> <b_epik_Metal_Only>
0

> <s_lp_Force_Field>
OPLS_2005

> <r_lp_Energy>
10.682

> <b_lp_Chiralities_Consistent>
1

> <s_lp_Variant>
AV-unprocessed.smi:3025-3

> <Gold.Version>
5.8.1

> <Gold.Id.Protein>
6NUR|6NUR_protein|mol2

> <Gold.PLP.Fitness>
39.2172

> <Gold.PLP.PLP>
-30.9594

> <Gold.PLP.part.hbond>
-2.7638

> <Gold.PLP.part.metal>
0.0000

> <Gold.PLP.part.buried>
1.1695

> <Gold.PLP.part.nonpolar>
-31.1139

> <Gold.PLP.part.repulsive>
0.6792

> <Gold.PLP.ligand.clash>
0.0000

> <Gold.PLP.ligand.torsion>
0.2842

> <Gold.PLP.Chemscore.Hbond>
2.9280

> <Gold.PLP.Chemscore.CHOScore>
0.0000

> <Gold.PLP.Chemscore.Metal>
0.0000

> <Gold.Chemscore.Hbonds>
donor molecule, donor type, donor heavy atom, donor atom, acceptor molecule, acceptor atom, score
      L1  H     8    31       P1 10175  1.98
      L1  H    13    42       P1  7921  0.88

> <Gold.PLP.Chemscore.Internal.Correction>
0.0421

> <Gold.Rescore>
     Score         DG    S(hbond)    S(metal)    S(lipo)     H(rot)  DE(clash)    DE(int)     intcor
     12.72     -13.21       1.82        0.00      70.08       2.56       0.12       0.36       ----

> <Gold.Chemscore.Fitness>
12.7212

> <Gold.Chemscore.DG>
-13.2059

> <Gold.Chemscore.ZeroCoef>
-5.4800

> <Gold.Chemscore.Hbond>
1.8204

> <Gold.Chemscore.Metal>
0.0000

> <Gold.Chemscore.Lipo>
70.0845

> <Gold.Chemscore.Internal_Hbond>
0.0000

> <Gold.Chemscore.DEClash>
0.1247

> <Gold.Chemscore.DEInternal>
0.3600

> <Gold.Chemscore.Rot>
2.5602

> <Gold.Chemscore.Internal.Correction>
   9.000000E+99

> <Gold.Chemscore.Hbonds>
donor molecule, donor type, donor heavy atom, donor atom, acceptor molecule, acceptor atom, score
      L1  H     8    31       P1 10175  0.51
      L1  H    13    42       P1  7921  0.85

> <Gold.Chemscore.Hbond.Weighted>
-6.0802

> <Gold.Chemscore.Metal.Weighted>
-0.0000

> <Gold.Chemscore.Lipo.Weighted>
-8.1999

> <Gold.Chemscore.Internal_Hbond.Weighted>
0.0000

> <Gold.Chemscore.DEClash.Weighted>
0.1247

> <Gold.Chemscore.DEInternal.Weighted>
0.3600

> <Gold.Chemscore.Rot.Weighted>
6.5542

> <Gold.Chemscore.Internal.Correction.Weighted>
   9.000000E+99

> <Gold.Protein.RotatedTorsions>
[ 6907 6896 6895 6894 ] final   29.97 input  -60.11 | X-H torsion
[ 7974 7965 7964 7962 ] final -179.38 input  175.53 | X-H torsion
[ 8008 7997 7996 7995 ] final  131.97 input   59.86 | X-H torsion
[ 10167 10162 10161 10158 ] final  -67.27 input  -65.29 | X-H torsion
[ 10718 10713 10712 10709 ] final  165.60 input   66.30 | X-H torsion
[ 10763 10752 10751 10750 ] final -144.04 input  -60.55 | X-H torsion
[ 11005 11000 10999 10996 ] final   -4.78 input  -57.11 | X-H torsion

> <Gold.Protein.ActiveResidues>
 VAL166  LYS551  ARG553  GLY616  TRP617  ASP618  TYR619  PRO620  LYS621  CYS622 
 ASP623  PHE694  ASN695  SER759  ASP760  ASP761  ALA762  ILE779  LEU786  VAL792 
 PHE793  MET794  SER795  GLU796  ALA797  LYS798  CYS799  TRP800  GLU811  SER814 

> <Gold.Protein.RotatedAtoms>
  152.0392  134.9722  160.0573 H   0  0  0  0  0  0  0  0  0  0  0  0  # atno 6907 bound_to 6896
  152.1167  133.4326  159.4664 H   0  0  0  0  0  0  0  0  0  0  0  0  # atno 6908 bound_to 6896
  150.6846  134.2502  159.4551 H   0  0  0  0  0  0  0  0  0  0  0  0  # atno 6909 bound_to 6896
  144.7136  140.0726  143.6429 H   0  0  0  0  0  0  0  0  0  0  0  0  # atno 7974 bound_to 7965
  156.2977  140.2558  156.3013 H   0  0  0  0  0  0  0  0  0  0  0  0  # atno 8008 bound_to 7997
  154.9415  140.0396  157.2118 H   0  0  0  0  0  0  0  0  0  0  0  0  # atno 8009 bound_to 7997
  154.8122  140.2846  155.5850 H   0  0  0  0  0  0  0  0  0  0  0  0  # atno 8010 bound_to 7997
  140.5595  143.2312  151.6755 H   0  0  0  0  0  0  0  0  0  0  0  0  # atno 10167 bound_to 10162
  157.0779  131.0384  151.2587 H   0  0  0  0  0  0  0  0  0  0  0  0  # atno 10718 bound_to 10713
  154.8445  135.3451  154.6284 H   0  0  0  0  0  0  0  0  0  0  0  0  # atno 10763 bound_to 10752
  153.6893  135.6976  153.5099 H   0  0  0  0  0  0  0  0  0  0  0  0  # atno 10764 bound_to 10752
  153.2607  135.4324  155.0847 H   0  0  0  0  0  0  0  0  0  0  0  0  # atno 10765 bound_to 10752
  140.6840  133.9129  155.8574 H   0  0  0  0  0  0  0  0  0  0  0  0  # atno 11005 bound_to 11000
  145.9770  139.2912  143.1064 LP  0  0  0  0  0  0  0  0  0  0  0  0  # atno 17320 bound_to 7965
  145.9053  140.9216  143.0482 LP  0  0  0  0  0  0  0  0  0  0  0  0  # atno 17321 bound_to 7965
  139.5063  144.3685  152.0493 LP  0  0  0  0  0  0  0  0  0  0  0  0  # atno 17342 bound_to 10162
  140.2810  144.3860  150.6119 LP  0  0  0  0  0  0  0  0  0  0  0  0  # atno 17343 bound_to 10162
  157.4825  130.7773  149.7427 LP  0  0  0  0  0  0  0  0  0  0  0  0  # atno 17370 bound_to 10713
  155.9932  130.3926  150.2911 LP  0  0  0  0  0  0  0  0  0  0  0  0  # atno 17371 bound_to 10713
  141.0295  134.0776  157.4030 LP  0  0  0  0  0  0  0  0  0  0  0  0  # atno 17394 bound_to 11000
  139.8943  135.0135  156.6944 LP  0  0  0  0  0  0  0  0  0  0  0  0  # atno 17395 bound_to 11000

$$$$
