AV-unprocessed.smi:2596|AV-procd|sdf|10169|dock6
  -GOLD-   2272014183D 1   1.00000     0.00000
 Structure written by MMmdl.
 32 33  0  0  0  0  0  0  0  0  1 V2000
  151.5545  141.1706  157.6037 O   0  0  0  0  0  0  0  0  0  0  0  0
  151.0799  142.2678  157.3120 C   0  0  0  0  0  0  0  0  0  0  0  0
  151.8265  143.5505  157.6923 C   0  0  0  0  0  0  0  0  0  0  0  0
  152.0430  143.6455  159.1451 N   0  0  0  0  0  0  0  0  0  0  0  0
  152.7733  142.6047  159.7534 C   0  0  0  0  0  0  0  0  0  0  0  0
  153.0367  142.6048  161.0691 C   0  0  0  0  0  0  0  0  0  0  0  0
  153.7400  141.6058  161.6264 F   0  0  0  0  0  0  0  0  0  0  0  0
  152.5537  143.7014  161.8725 C   0  0  0  0  0  0  0  0  0  0  0  0
  151.8557  144.7016  161.2988 C   0  0  0  0  0  0  0  0  0  0  0  0
  151.5646  144.7119  159.8597 C   0  0  0  0  0  0  0  0  0  0  0  0
  150.9301  145.6242  159.3301 O   0  0  0  0  0  0  0  0  0  0  0  0
  149.9048  142.4252  156.6828 N   0  0  0  0  0  0  0  0  0  0  0  0
  148.9923  141.3486  156.3187 C   0  0  0  0  0  0  0  0  0  0  0  0
  148.6928  141.3814  154.8227 C   0  0  0  0  0  0  0  0  0  0  0  0
  147.3546  141.9417  154.3148 C   0  0  0  0  0  0  0  0  0  0  0  0
  147.3952  140.8961  153.1974 C   0  0  0  0  0  0  0  0  0  0  0  0
  148.3356  140.0803  154.0889 C   0  0  0  0  0  0  0  0  0  0  0  0
  152.7790  143.5882  157.1602 H   0  0  0  0  0  0  0  0  0  0  0  0
  151.2619  144.4092  157.3254 H   0  0  0  0  0  0  0  0  0  0  0  0
  153.1065  141.8225  159.0867 H   0  0  0  0  0  0  0  0  0  0  0  0
  152.7519  143.7209  162.9342 H   0  0  0  0  0  0  0  0  0  0  0  0
  151.4998  145.5169  161.9116 H   0  0  0  0  0  0  0  0  0  0  0  0
  149.5987  143.3660  156.4809 H   0  0  0  0  0  0  0  0  0  0  0  0
  149.4642  140.4030  156.5859 H   0  0  0  0  0  0  0  0  0  0  0  0
  148.0718  141.4028  156.9025 H   0  0  0  0  0  0  0  0  0  0  0  0
  149.5033  141.8727  154.2797 H   0  0  0  0  0  0  0  0  0  0  0  0
  146.5333  141.7780  155.0144 H   0  0  0  0  0  0  0  0  0  0  0  0
  147.3937  142.9780  153.9776 H   0  0  0  0  0  0  0  0  0  0  0  0
  146.4389  140.4187  152.9824 H   0  0  0  0  0  0  0  0  0  0  0  0
  147.8808  141.2628  152.2917 H   0  0  0  0  0  0  0  0  0  0  0  0
  149.1674  139.6079  153.5656 H   0  0  0  0  0  0  0  0  0  0  0  0
  147.8022  139.3685  154.7213 H   0  0  0  0  0  0  0  0  0  0  0  0
  1  2  2  0  0  0  0
  2  3  1  0  0  0  0
  2 12  1  0  0  0  0
  3  4  1  0  0  0  0
  3 18  1  0  0  0  0
  3 19  1  0  0  0  0
  4 10  1  0  0  0  0
  4  5  1  0  0  0  0
  5  6  2  0  0  0  0
  5 20  1  0  0  0  0
  6  7  1  0  0  0  0
  6  8  1  0  0  0  0
  8  9  2  0  0  0  0
  8 21  1  0  0  0  0
  9 10  1  0  0  0  0
  9 22  1  0  0  0  0
 10 11  2  0  0  0  0
 12 13  1  0  0  0  0
 12 23  1  0  0  0  0
 13 14  1  0  0  0  0
 13 24  1  0  0  0  0
 13 25  1  0  0  0  0
 14 17  1  0  0  0  0
 14 15  1  0  0  0  0
 14 26  1  0  0  0  0
 15 16  1  0  0  0  0
 15 27  1  0  0  0  0
 15 28  1  0  0  0  0
 16 17  1  0  0  0  0
 16 29  1  0  0  0  0
 16 30  1  0  0  0  0
 17 31  1  0  0  0  0
 17 32  1  0  0  0  0
M  END
> <s_m_source_file>
AV-unprocessed.smi

> <i_m_source_file_index>
2596

> <i_lp_mmshare_version>
43012

> <i_f3d_flags>
0

> <s_epik_input>
W0NIMl0xW0NIMl1bQ0gyXVtDSF0xW0NIMl1bTkhdQyg9TylbQ0gyXW4yW2NIXWMoRilbY0hdW2NIXWMyPU8=

> <s_epik_cmdline>
J2VwaWtfcHl0aG9uJywgJy1waCcsICc3LjAnLCAnLXRuJywgJzgnLCAnLW1hJywgJzIwMCcsICctbWV0YWxfYmluZGluZycsICctaW1hZScsICc8aW5maWxlLm1hZT4nLCAnLW9tYWUnLCAnPG91dGZpbGUubWFlPic=

> <r_lp_tautomer_probability>
1

> <r_epik_Ionization_Penalty>
2.75493e-07

> <r_epik_Ionization_Penalty_Charging>
2.56191e-07

> <r_epik_Ionization_Penalty_Neutral>
1.93017e-08

> <r_epik_State_Penalty>
-0

> <r_epik_Charging_Adjusted_Penalty>
2.56191e-07

> <i_epik_Tot_Q>
0

> <i_epik_Tot_abs_Q>
0

> <r_epik_Metal_State_Penalty>
-0

> <b_epik_Metal_Only>
0

> <s_lp_Force_Field>
OPLS_2005

> <r_lp_Energy>
22.7993

> <b_lp_Chiralities_Consistent>
1

> <s_lp_Variant>
AV-unprocessed.smi:2596-1

> <Gold.Version>
5.8.1

> <Gold.Id.Protein>
6NUR|6NUR_protein|mol2

> <Gold.PLP.Fitness>
47.4220

> <Gold.PLP.PLP>
-45.3344

> <Gold.PLP.part.hbond>
-2.5338

> <Gold.PLP.part.metal>
0.0000

> <Gold.PLP.part.buried>
-2.7710

> <Gold.PLP.part.nonpolar>
-40.0712

> <Gold.PLP.part.repulsive>
0.2400

> <Gold.PLP.ligand.clash>
0.0000

> <Gold.PLP.ligand.torsion>
0.4889

> <Gold.PLP.Chemscore.Hbond>
1.0000

> <Gold.PLP.Chemscore.CHOScore>
0.0000

> <Gold.PLP.Chemscore.Metal>
0.0000

> <Gold.Chemscore.Hbonds>
donor molecule, donor type, donor heavy atom, donor atom, acceptor molecule, acceptor atom, score
      L1  H    12    23       P1  8028  1.00

> <Gold.PLP.Chemscore.Internal.Correction>
0.0654

> <Gold.Rescore>
     Score         DG    S(hbond)    S(metal)    S(lipo)     H(rot)  DE(clash)    DE(int)     intcor
     12.86     -15.23       0.98        0.00      92.60       1.71       0.59       1.78       ----

> <Gold.Chemscore.Fitness>
12.8563

> <Gold.Chemscore.DG>
-15.2319

> <Gold.Chemscore.ZeroCoef>
-5.4800

> <Gold.Chemscore.Hbond>
0.9850

> <Gold.Chemscore.Metal>
0.0000

> <Gold.Chemscore.Lipo>
92.5989

> <Gold.Chemscore.Internal_Hbond>
0.0000

> <Gold.Chemscore.DEClash>
0.5942

> <Gold.Chemscore.DEInternal>
1.7815

> <Gold.Chemscore.Rot>
1.7078

> <Gold.Chemscore.Internal.Correction>
   9.000000E+99

> <Gold.Chemscore.Hbonds>
donor molecule, donor type, donor heavy atom, donor atom, acceptor molecule, acceptor atom, score
      L1  H    12    23       P1  8028  1.00

> <Gold.Chemscore.Hbond.Weighted>
-3.2898

> <Gold.Chemscore.Metal.Weighted>
-0.0000

> <Gold.Chemscore.Lipo.Weighted>
-10.8341

> <Gold.Chemscore.Internal_Hbond.Weighted>
0.0000

> <Gold.Chemscore.DEClash.Weighted>
0.5942

> <Gold.Chemscore.DEInternal.Weighted>
1.7815

> <Gold.Chemscore.Rot.Weighted>
4.3719

> <Gold.Chemscore.Internal.Correction.Weighted>
   9.000000E+99

> <Gold.Protein.RotatedTorsions>
[ 6907 6896 6895 6894 ] final   28.20 input  -60.11 | X-H torsion
[ 7974 7965 7964 7962 ] final   15.40 input  175.53 | X-H torsion
[ 8008 7997 7996 7995 ] final   39.74 input   59.86 | X-H torsion
[ 10167 10162 10161 10158 ] final  -93.66 input  -65.29 | X-H torsion
[ 10718 10713 10712 10709 ] final  113.26 input   66.30 | X-H torsion
[ 10763 10752 10751 10750 ] final   23.80 input  -60.55 | X-H torsion
[ 11005 11000 10999 10996 ] final  118.60 input  -57.11 | X-H torsion

> <Gold.Protein.ActiveResidues>
 VAL166  LYS551  ARG553  GLY616  TRP617  ASP618  TYR619  PRO620  LYS621  CYS622 
 ASP623  PHE694  ASN695  SER759  ASP760  ASP761  ALA762  ILE779  LEU786  VAL792 
 PHE793  MET794  SER795  GLU796  ALA797  LYS798  CYS799  TRP800  GLU811  SER814 

> <Gold.Protein.RotatedAtoms>
  152.0135  134.9863  160.0568 H   0  0  0  0  0  0  0  0  0  0  0  0  # atno 6907 bound_to 6896
  152.1406  133.4457  159.4773 H   0  0  0  0  0  0  0  0  0  0  0  0  # atno 6908 bound_to 6896
  150.6864  134.2228  159.4447 H   0  0  0  0  0  0  0  0  0  0  0  0  # atno 6909 bound_to 6896
  146.2279  139.8900  142.8556 H   0  0  0  0  0  0  0  0  0  0  0  0  # atno 7974 bound_to 7965
  155.2417  140.3346  155.4291 H   0  0  0  0  0  0  0  0  0  0  0  0  # atno 8008 bound_to 7997
  156.2253  140.1826  156.7423 H   0  0  0  0  0  0  0  0  0  0  0  0  # atno 8009 bound_to 7997
  154.5889  140.0641  156.9196 H   0  0  0  0  0  0  0  0  0  0  0  0  # atno 8010 bound_to 7997
  140.3224  143.3041  152.0031 H   0  0  0  0  0  0  0  0  0  0  0  0  # atno 10167 bound_to 10162
  157.6347  131.0981  150.7016 H   0  0  0  0  0  0  0  0  0  0  0  0  # atno 10718 bound_to 10713
  153.0811  135.6619  154.0043 H   0  0  0  0  0  0  0  0  0  0  0  0  # atno 10763 bound_to 10752
  153.9664  135.2969  155.3431 H   0  0  0  0  0  0  0  0  0  0  0  0  # atno 10764 bound_to 10752
  154.7211  135.5164  153.8884 H   0  0  0  0  0  0  0  0  0  0  0  0  # atno 10765 bound_to 10752
  139.9115  134.9622  156.7528 H   0  0  0  0  0  0  0  0  0  0  0  0  # atno 11005 bound_to 11000
  145.2427  141.0015  143.3926 LP  0  0  0  0  0  0  0  0  0  0  0  0  # atno 17320 bound_to 7965
  144.9439  139.4158  143.6435 LP  0  0  0  0  0  0  0  0  0  0  0  0  # atno 17321 bound_to 7965
  139.4871  144.6300  151.7088 LP  0  0  0  0  0  0  0  0  0  0  0  0  # atno 17342 bound_to 10162
  140.5471  144.0485  150.6111 LP  0  0  0  0  0  0  0  0  0  0  0  0  # atno 17343 bound_to 10162
  156.7349  130.4721  149.5491 LP  0  0  0  0  0  0  0  0  0  0  0  0  # atno 17370 bound_to 10713
  156.1578  130.6353  151.0679 LP  0  0  0  0  0  0  0  0  0  0  0  0  # atno 17371 bound_to 10713
  140.6759  133.9517  155.7883 LP  0  0  0  0  0  0  0  0  0  0  0  0  # atno 17394 bound_to 11000
  141.0544  134.0437  157.3741 LP  0  0  0  0  0  0  0  0  0  0  0  0  # atno 17395 bound_to 11000

$$$$
