AV-unprocessed.smi:2151|AV-procd|sdf|8760|dock10
  -GOLD-   2272011543D 1   1.00000     0.00000
 Structure written by MMmdl.
 39 40  0  0  0  0  0  0  0  0  1 V2000
  150.9715  136.7891  154.9074 C   0  0  0  0  0  0  0  0  0  0  0  0
  151.3010  138.2691  155.1516 C   0  0  2  0  0  0  0  0  0  0  0  0
  151.2923  138.5241  156.5911 N   0  0  0  0  0  0  0  0  0  0  0  0
  152.3627  138.8142  157.3470 C   0  0  0  0  0  0  0  0  0  0  0  0
  153.5114  138.8667  156.9058 O   0  0  0  0  0  0  0  0  0  0  0  0
  152.0817  139.0769  158.8332 C   0  0  0  0  0  0  0  0  0  0  0  0
  152.5757  140.3859  159.2925 N   0  0  0  0  0  0  0  0  0  0  0  0
  151.9219  141.5299  158.7945 C   0  0  0  0  0  0  0  0  0  0  0  0
  152.2811  142.7840  159.1301 C   0  0  0  0  0  0  0  0  0  0  0  0
  151.5133  143.9974  158.6289 C   0  0  0  0  0  0  0  0  0  0  0  0
  152.0170  145.1250  159.1311 F   0  0  0  0  0  0  0  0  0  0  0  0
  151.5895  144.0646  157.3006 F   0  0  0  0  0  0  0  0  0  0  0  0
  150.2252  143.9268  158.9675 F   0  0  0  0  0  0  0  0  0  0  0  0
  153.3769  142.9111  160.0707 C   0  0  0  0  0  0  0  0  0  0  0  0
  154.0038  141.8267  160.5677 C   0  0  0  0  0  0  0  0  0  0  0  0
  153.6102  140.4697  160.1822 C   0  0  0  0  0  0  0  0  0  0  0  0
  154.1732  139.4710  160.6320 O   0  0  0  0  0  0  0  0  0  0  0  0
  150.3040  139.2042  154.4357 C   0  0  1  0  0  0  0  0  0  0  0  0
  148.8472  139.0690  154.8864 C   0  0  0  0  0  0  0  0  0  0  0  0
  148.2834  140.4172  154.5021 C   0  0  0  0  0  0  0  0  0  0  0  0
  149.4439  141.3462  154.8444 C   0  0  0  0  0  0  0  0  0  0  0  0
  150.6293  140.5704  154.6852 O   0  0  0  0  0  0  0  0  0  0  0  0
  150.9993  136.5500  153.8441 H   0  0  0  0  0  0  0  0  0  0  0  0
  149.9777  136.5358  155.2786 H   0  0  0  0  0  0  0  0  0  0  0  0
  151.6906  136.1393  155.4070 H   0  0  0  0  0  0  0  0  0  0  0  0
  152.2976  138.4547  154.7472 H   0  0  0  0  0  0  0  0  0  0  0  0
  150.3910  138.5000  157.0457 H   0  0  0  0  0  0  0  0  0  0  0  0
  151.0092  138.9979  159.0214 H   0  0  0  0  0  0  0  0  0  0  0  0
  152.5331  138.2696  159.4114 H   0  0  0  0  0  0  0  0  0  0  0  0
  151.0965  141.3217  158.1292 H   0  0  0  0  0  0  0  0  0  0  0  0
  153.7032  143.8928  160.3805 H   0  0  0  0  0  0  0  0  0  0  0  0
  154.8172  141.9593  161.2662 H   0  0  0  0  0  0  0  0  0  0  0  0
  150.3525  139.0457  153.3569 H   0  0  0  0  0  0  0  0  0  0  0  0
  148.3274  138.2371  154.4102 H   0  0  0  0  0  0  0  0  0  0  0  0
  148.7885  138.9360  155.9677 H   0  0  0  0  0  0  0  0  0  0  0  0
  148.0809  140.4461  153.4306 H   0  0  0  0  0  0  0  0  0  0  0  0
  147.3642  140.6677  155.0323 H   0  0  0  0  0  0  0  0  0  0  0  0
  149.4621  142.2359  154.2144 H   0  0  0  0  0  0  0  0  0  0  0  0
  149.3802  141.6688  155.8843 H   0  0  0  0  0  0  0  0  0  0  0  0
  1  2  1  0  0  0  0
  1 23  1  0  0  0  0
  1 24  1  0  0  0  0
  1 25  1  0  0  0  0
  2  3  1  0  0  0  0
  2 18  1  0  0  0  0
  2 26  1  0  0  0  0
  3  4  1  0  0  0  0
  3 27  1  0  0  0  0
  4  5  2  0  0  0  0
  4  6  1  0  0  0  0
  6  7  1  0  0  0  0
  6 28  1  0  0  0  0
  6 29  1  0  0  0  0
  7 16  1  0  0  0  0
  7  8  1  0  0  0  0
  8  9  2  0  0  0  0
  8 30  1  0  0  0  0
  9 10  1  0  0  0  0
  9 14  1  0  0  0  0
 10 11  1  0  0  0  0
 10 12  1  0  0  0  0
 10 13  1  0  0  0  0
 14 15  2  0  0  0  0
 14 31  1  0  0  0  0
 15 16  1  0  0  0  0
 15 32  1  0  0  0  0
 16 17  2  0  0  0  0
 18 22  1  0  0  0  0
 18 19  1  0  0  0  0
 18 33  1  0  0  0  0
 19 20  1  0  0  0  0
 19 34  1  0  0  0  0
 19 35  1  0  0  0  0
 20 21  1  0  0  0  0
 20 36  1  0  0  0  0
 20 37  1  0  0  0  0
 21 22  1  0  0  0  0
 21 38  1  0  0  0  0
 21 39  1  0  0  0  0
M  END
> <s_m_source_file>
AV-unprocessed.smi

> <i_m_source_file_index>
2151

> <i_lp_mmshare_version>
43012

> <i_f3d_flags>
0

> <s_epik_input>
TzFbQ0gyXVtDSDJdW0NIMl1bQ0BIXTFbQ0BIXShbQ0gzXSlbTkhdQyg9TylbQ0gyXW4yW2NIXWMoQyhGKShGKUYpW2NIXVtjSF1jMj1P

> <s_epik_cmdline>
J2VwaWtfcHl0aG9uJywgJy1waCcsICc3LjAnLCAnLXRuJywgJzgnLCAnLW1hJywgJzIwMCcsICctbWV0YWxfYmluZGluZycsICctaW1hZScsICc8aW5maWxlLm1hZT4nLCAnLW9tYWUnLCAnPG91dGZpbGUubWFlPic=

> <r_lp_tautomer_probability>
1

> <r_epik_Ionization_Penalty>
4.20109e-08

> <r_epik_Ionization_Penalty_Charging>
1.89977e-08

> <r_epik_Ionization_Penalty_Neutral>
2.30132e-08

> <r_epik_State_Penalty>
-0

> <r_epik_Charging_Adjusted_Penalty>
1.89977e-08

> <i_epik_Tot_Q>
0

> <i_epik_Tot_abs_Q>
0

> <r_epik_Metal_State_Penalty>
-0

> <b_epik_Metal_Only>
0

> <s_lp_Force_Field>
OPLS_2005

> <r_lp_Energy>
29.4657

> <b_lp_Chiralities_Consistent>
1

> <s_lp_Variant>
AV-unprocessed.smi:2151-3

> <Gold.Version>
5.8.1

> <Gold.Id.Protein>
6NUR|6NUR_protein|mol2

> <Gold.PLP.Fitness>
54.3692

> <Gold.PLP.PLP>
-48.6172

> <Gold.PLP.part.hbond>
-1.6101

> <Gold.PLP.part.metal>
0.0000

> <Gold.PLP.part.buried>
-4.9062

> <Gold.PLP.part.nonpolar>
-42.4442

> <Gold.PLP.part.repulsive>
0.1424

> <Gold.PLP.ligand.clash>
0.0000

> <Gold.PLP.ligand.torsion>
0.1484

> <Gold.PLP.Chemscore.Hbond>
1.9920

> <Gold.PLP.Chemscore.CHOScore>
0.0000

> <Gold.PLP.Chemscore.Metal>
0.0000

> <Gold.Chemscore.Hbonds>
donor molecule, donor type, donor heavy atom, donor atom, acceptor molecule, acceptor atom, score
      P1  H  7989  7998       L1    22  0.99
      P1  H  7997  8010       L1     5  0.96

> <Gold.PLP.Chemscore.Internal.Correction>
0.0727

> <Gold.Rescore>
     Score         DG    S(hbond)    S(metal)    S(lipo)     H(rot)  DE(clash)    DE(int)     intcor
     17.36     -17.74       1.83        0.00      92.36       1.82       0.26       0.12       ----

> <Gold.Chemscore.Fitness>
17.3572

> <Gold.Chemscore.DG>
-17.7415

> <Gold.Chemscore.ZeroCoef>
-5.4800

> <Gold.Chemscore.Hbond>
1.8330

> <Gold.Chemscore.Metal>
0.0000

> <Gold.Chemscore.Lipo>
92.3566

> <Gold.Chemscore.Internal_Hbond>
0.0000

> <Gold.Chemscore.DEClash>
0.2629

> <Gold.Chemscore.DEInternal>
0.1214

> <Gold.Chemscore.Rot>
1.8228

> <Gold.Chemscore.Internal.Correction>
   9.000000E+99

> <Gold.Chemscore.Hbonds>
donor molecule, donor type, donor heavy atom, donor atom, acceptor molecule, acceptor atom, score
      P1  H  7989  7998       L1    22  0.31
      P1  H  7997  8010       L1     5  0.87

> <Gold.Chemscore.Hbond.Weighted>
-6.1222

> <Gold.Chemscore.Metal.Weighted>
-0.0000

> <Gold.Chemscore.Lipo.Weighted>
-10.8057

> <Gold.Chemscore.Internal_Hbond.Weighted>
0.0000

> <Gold.Chemscore.DEClash.Weighted>
0.2629

> <Gold.Chemscore.DEInternal.Weighted>
0.1214

> <Gold.Chemscore.Rot.Weighted>
4.6665

> <Gold.Chemscore.Internal.Correction.Weighted>
   9.000000E+99

> <Gold.Protein.RotatedTorsions>
[ 6907 6896 6895 6894 ] final   60.47 input  -60.11 | X-H torsion
[ 7974 7965 7964 7962 ] final  121.30 input  175.53 | X-H torsion
[ 8008 7997 7996 7995 ] final   64.45 input   59.86 | X-H torsion
[ 10167 10162 10161 10158 ] final  169.43 input  -65.29 | X-H torsion
[ 10718 10713 10712 10709 ] final  168.08 input   66.30 | X-H torsion
[ 10763 10752 10751 10750 ] final   -5.72 input  -60.55 | X-H torsion
[ 11005 11000 10999 10996 ] final  -37.29 input  -57.11 | X-H torsion

> <Gold.Protein.ActiveResidues>
 VAL166  LYS551  ARG553  GLY616  TRP617  ASP618  TYR619  PRO620  LYS621  CYS622 
 ASP623  PHE694  ASN695  SER759  ASP760  ASP761  ALA762  ILE779  LEU786  VAL792 
 PHE793  MET794  SER795  GLU796  ALA797  LYS798  CYS799  TRP800  GLU811  SER814 

> <Gold.Protein.RotatedAtoms>
  152.4006  134.6292  160.0070 H   0  0  0  0  0  0  0  0  0  0  0  0  # atno 6907 bound_to 6896
  151.6499  133.3316  159.3157 H   0  0  0  0  0  0  0  0  0  0  0  0  # atno 6908 bound_to 6896
  150.7907  134.6971  159.6574 H   0  0  0  0  0  0  0  0  0  0  0  0  # atno 6909 bound_to 6896
  145.1209  139.3389  143.4714 H   0  0  0  0  0  0  0  0  0  0  0  0  # atno 7974 bound_to 7965
  155.6463  140.3497  155.4732 H   0  0  0  0  0  0  0  0  0  0  0  0  # atno 8008 bound_to 7997
  155.9885  140.1189  157.0684 H   0  0  0  0  0  0  0  0  0  0  0  0  # atno 8009 bound_to 7997
  154.4212  140.1124  156.5519 H   0  0  0  0  0  0  0  0  0  0  0  0  # atno 8010 bound_to 7997
  139.4992  144.3707  151.9728 H   0  0  0  0  0  0  0  0  0  0  0  0  # atno 10167 bound_to 10162
  157.0422  131.0290  151.2709 H   0  0  0  0  0  0  0  0  0  0  0  0  # atno 10718 bound_to 10713
  153.4025  135.7005  153.6416 H   0  0  0  0  0  0  0  0  0  0  0  0  # atno 10763 bound_to 10752
  153.4944  135.3666  155.2508 H   0  0  0  0  0  0  0  0  0  0  0  0  # atno 10764 bound_to 10752
  154.8711  135.4097  154.3362 H   0  0  0  0  0  0  0  0  0  0  0  0  # atno 10765 bound_to 10752
  140.9940  133.6990  156.1902 H   0  0  0  0  0  0  0  0  0  0  0  0  # atno 11005 bound_to 11000
  146.3521  140.1168  142.8602 LP  0  0  0  0  0  0  0  0  0  0  0  0  # atno 17320 bound_to 7965
  145.0741  140.9176  143.4864 LP  0  0  0  0  0  0  0  0  0  0  0  0  # atno 17321 bound_to 7965
  140.3143  144.3502  150.6026 LP  0  0  0  0  0  0  0  0  0  0  0  0  # atno 17342 bound_to 10162
  140.5774  143.2175  151.7491 LP  0  0  0  0  0  0  0  0  0  0  0  0  # atno 17343 bound_to 10162
  157.5096  130.7930  149.7690 LP  0  0  0  0  0  0  0  0  0  0  0  0  # atno 17370 bound_to 10713
  156.0034  130.3868  150.2519 LP  0  0  0  0  0  0  0  0  0  0  0  0  # atno 17371 bound_to 10713
  140.6994  134.4580  157.5586 LP  0  0  0  0  0  0  0  0  0  0  0  0  # atno 17394 bound_to 11000
  139.9006  134.8565  156.1913 LP  0  0  0  0  0  0  0  0  0  0  0  0  # atno 17395 bound_to 11000

$$$$
