AV-unprocessed.smi:1295|AV-procd|sdf|5403|dock10
  -GOLD-   22720 4563D 1   1.00000     0.00000
 Structure written by MMmdl.
 43 44  0  0  0  0  0  0  0  0  1 V2000
  146.3957  132.7004  161.4300 C   0  0  0  0  0  0  0  0  0  0  0  0
  146.9797  133.6331  160.3902 C   0  0  0  0  0  0  0  0  0  0  0  0
  147.2990  133.2679  159.1924 N   0  0  0  0  0  0  0  0  0  0  0  0
  147.8291  134.2237  158.3150 C   0  0  0  0  0  0  0  0  0  0  0  0
  148.1620  133.7214  156.9208 C   0  0  0  0  0  0  0  0  0  0  0  0
  148.0183  135.5203  158.6982 C   0  0  0  0  0  0  0  0  0  0  0  0
  148.5748  136.5905  157.7575 C   0  0  0  0  0  0  0  0  0  0  0  0
  149.9205  137.1928  158.1672 C   0  0  0  0  0  0  0  0  0  0  0  0
  150.4490  136.8603  159.2272 O   0  0  0  0  0  0  0  0  0  0  0  0
  150.4589  138.0718  157.3090 N   0  0  0  0  0  0  0  0  0  0  0  0
  151.7639  138.7184  157.4239 C   0  0  2  0  0  0  0  0  0  0  0  0
  151.8493  139.5122  158.7431 C   0  0  0  0  0  0  0  0  0  0  0  0
  150.9242  140.7419  158.7402 C   0  0  0  0  0  0  0  0  0  0  0  0
  151.2039  141.6449  157.5294 C   0  0  0  0  0  0  0  0  0  0  0  0
  151.0980  140.8635  156.2098 C   0  0  0  0  0  0  0  0  0  0  0  0
  152.0290  139.6325  156.2016 C   0  0  2  0  0  0  0  0  0  0  0  0
  151.9478  138.8752  154.8639 C   0  0  0  0  0  0  0  0  0  0  0  0
  147.6460  135.9272  160.0672 C   0  0  0  0  0  0  0  0  0  0  0  0
  147.7522  137.0707  160.5075 O   0  0  0  0  0  0  0  0  0  0  0  0
  147.1435  134.9410  160.8432 N   0  0  0  0  0  0  0  0  0  0  0  0
  146.8723  135.1694  161.7886 H   0  0  0  0  0  0  0  0  0  0  0  0
  145.4639  132.2685  161.0645 H   0  0  0  0  0  0  0  0  0  0  0  0
  146.1867  133.2203  162.3660 H   0  0  0  0  0  0  0  0  0  0  0  0
  147.0918  131.8877  161.6388 H   0  0  0  0  0  0  0  0  0  0  0  0
  149.2264  133.8361  156.7156 H   0  0  0  0  0  0  0  0  0  0  0  0
  147.6000  134.2759  156.1691 H   0  0  0  0  0  0  0  0  0  0  0  0
  147.9129  132.6653  156.8096 H   0  0  0  0  0  0  0  0  0  0  0  0
  148.6696  136.2000  156.7437 H   0  0  0  0  0  0  0  0  0  0  0  0
  147.8465  137.3978  157.6759 H   0  0  0  0  0  0  0  0  0  0  0  0
  149.9305  138.2866  156.4759 H   0  0  0  0  0  0  0  0  0  0  0  0
  152.5425  137.9538  157.4413 H   0  0  0  0  0  0  0  0  0  0  0  0
  151.6095  138.8661  159.5886 H   0  0  0  0  0  0  0  0  0  0  0  0
  152.8780  139.8412  158.8962 H   0  0  0  0  0  0  0  0  0  0  0  0
  149.8816  140.4212  158.7250 H   0  0  0  0  0  0  0  0  0  0  0  0
  151.0572  141.3075  159.6628 H   0  0  0  0  0  0  0  0  0  0  0  0
  150.5055  142.4822  157.5223 H   0  0  0  0  0  0  0  0  0  0  0  0
  152.2018  142.0762  157.6187 H   0  0  0  0  0  0  0  0  0  0  0  0
  150.0646  140.5512  156.0529 H   0  0  0  0  0  0  0  0  0  0  0  0
  151.3468  141.5227  155.3777 H   0  0  0  0  0  0  0  0  0  0  0  0
  153.0520  140.0006  156.2935 H   0  0  0  0  0  0  0  0  0  0  0  0
  150.9364  138.5232  154.6573 H   0  0  0  0  0  0  0  0  0  0  0  0
  152.6082  138.0077  154.8638 H   0  0  0  0  0  0  0  0  0  0  0  0
  152.2473  139.5159  154.0342 H   0  0  0  0  0  0  0  0  0  0  0  0
  1  2  1  0  0  0  0
  1 22  1  0  0  0  0
  1 23  1  0  0  0  0
  1 24  1  0  0  0  0
  2 20  1  0  0  0  0
  2  3  2  0  0  0  0
  3  4  1  0  0  0  0
  4  5  1  0  0  0  0
  4  6  2  0  0  0  0
  5 25  1  0  0  0  0
  5 26  1  0  0  0  0
  5 27  1  0  0  0  0
  6  7  1  0  0  0  0
  6 18  1  0  0  0  0
  7  8  1  0  0  0  0
  7 28  1  0  0  0  0
  7 29  1  0  0  0  0
  8  9  2  0  0  0  0
  8 10  1  0  0  0  0
 10 11  1  0  0  0  0
 10 30  1  0  0  0  0
 11 16  1  0  0  0  0
 11 12  1  0  0  0  0
 11 31  1  0  0  0  0
 12 13  1  0  0  0  0
 12 32  1  0  0  0  0
 12 33  1  0  0  0  0
 13 14  1  0  0  0  0
 13 34  1  0  0  0  0
 13 35  1  0  0  0  0
 14 15  1  0  0  0  0
 14 36  1  0  0  0  0
 14 37  1  0  0  0  0
 15 16  1  0  0  0  0
 15 38  1  0  0  0  0
 15 39  1  0  0  0  0
 16 17  1  0  0  0  0
 16 40  1  0  0  0  0
 17 41  1  0  0  0  0
 17 42  1  0  0  0  0
 17 43  1  0  0  0  0
 18 19  2  0  0  0  0
 18 20  1  0  0  0  0
 20 21  1  0  0  0  0
M  END
> <s_m_source_file>
AV-unprocessed.smi

> <i_m_source_file_index>
1295

> <i_lp_mmshare_version>
43012

> <i_f3d_flags>
0

> <s_epik_input>
W0NIM11jMW5jKFtDSDNdKWMoYyg9TylbbkhdMSlbQ0gyXUMoPU8pW05IXVtDQEBIXTJbQ0gyXVtDSDJdW0NIMl1bQ0gyXVtDQEhdMltDSDNd

> <s_epik_cmdline>
J2VwaWtfcHl0aG9uJywgJy1waCcsICc3LjAnLCAnLXRuJywgJzgnLCAnLW1hJywgJzIwMCcsICctbWV0YWxfYmluZGluZycsICctaW1hZScsICc8aW5maWxlLm1hZT4nLCAnLW9tYWUnLCAnPG91dGZpbGUubWFlPic=

> <r_lp_tautomer_probability>
0.839158

> <r_epik_Ionization_Penalty>
0.00037085

> <r_epik_Ionization_Penalty_Charging>
0.000336002

> <r_epik_Ionization_Penalty_Neutral>
3.48485e-05

> <r_epik_State_Penalty>
0.09125

> <r_epik_Charging_Adjusted_Penalty>
0.091586

> <i_epik_Tot_Q>
0

> <i_epik_Tot_abs_Q>
0

> <r_epik_Metal_State_Penalty>
0.251445

> <b_epik_Metal_Only>
0

> <s_lp_Force_Field>
OPLS_2005

> <r_lp_Energy>
10.0645

> <b_lp_Chiralities_Consistent>
1

> <s_lp_Variant>
AV-unprocessed.smi:1295-3

> <Gold.Version>
5.8.1

> <Gold.Id.Protein>
6NUR|6NUR_protein|mol2

> <Gold.PLP.Fitness>
37.6792

> <Gold.PLP.PLP>
-30.0393

> <Gold.PLP.part.hbond>
-3.0000

> <Gold.PLP.part.metal>
0.0000

> <Gold.PLP.part.buried>
-4.5176

> <Gold.PLP.part.nonpolar>
-23.5528

> <Gold.PLP.part.repulsive>
0.0782

> <Gold.PLP.ligand.clash>
0.0000

> <Gold.PLP.ligand.torsion>
0.0363

> <Gold.PLP.Chemscore.Hbond>
2.5680

> <Gold.PLP.Chemscore.CHOScore>
0.0000

> <Gold.PLP.Chemscore.Metal>
0.0000

> <Gold.Chemscore.Hbonds>
donor molecule, donor type, donor heavy atom, donor atom, acceptor molecule, acceptor atom, score
      P1  H  6896  6909       L1     9  1.00
      P1  H  6931  6943       L1    19  0.40
      P1  H  6934  6947       L1    19  0.82

> <Gold.PLP.Chemscore.Internal.Correction>
0.0086

> <Gold.Rescore>
     Score         DG    S(hbond)    S(metal)    S(lipo)     H(rot)  DE(clash)    DE(int)     intcor
     17.58     -17.84       2.67        0.00      61.76       1.48       0.05       0.21       ----

> <Gold.Chemscore.Fitness>
17.5812

> <Gold.Chemscore.DG>
-17.8379

> <Gold.Chemscore.ZeroCoef>
-5.4800

> <Gold.Chemscore.Hbond>
2.6708

> <Gold.Chemscore.Metal>
0.0000

> <Gold.Chemscore.Lipo>
61.7646

> <Gold.Chemscore.Internal_Hbond>
0.0000

> <Gold.Chemscore.DEClash>
0.0515

> <Gold.Chemscore.DEInternal>
0.2052

> <Gold.Chemscore.Rot>
1.4801

> <Gold.Chemscore.Internal.Correction>
   9.000000E+99

> <Gold.Chemscore.Hbonds>
donor molecule, donor type, donor heavy atom, donor atom, acceptor molecule, acceptor atom, score
      P1  H  6896  6909       L1     9  0.96
      P1  H  6931  6943       L1    19  0.40
      P1  H  6934  6947       L1    19  0.78

> <Gold.Chemscore.Hbond.Weighted>
-8.9206

> <Gold.Chemscore.Metal.Weighted>
-0.0000

> <Gold.Chemscore.Lipo.Weighted>
-7.2265

> <Gold.Chemscore.Internal_Hbond.Weighted>
0.0000

> <Gold.Chemscore.DEClash.Weighted>
0.0515

> <Gold.Chemscore.DEInternal.Weighted>
0.2052

> <Gold.Chemscore.Rot.Weighted>
3.7891

> <Gold.Chemscore.Internal.Correction.Weighted>
   9.000000E+99

> <Gold.Protein.RotatedTorsions>
[ 6907 6896 6895 6894 ] final   96.46 input  -60.11 | X-H torsion
[ 7974 7965 7964 7962 ] final  -95.25 input  175.53 | X-H torsion
[ 8008 7997 7996 7995 ] final   72.46 input   59.86 | X-H torsion
[ 10167 10162 10161 10158 ] final  143.92 input  -65.29 | X-H torsion
[ 10718 10713 10712 10709 ] final   94.65 input   66.30 | X-H torsion
[ 10763 10752 10751 10750 ] final  172.53 input  -60.55 | X-H torsion
[ 11005 11000 10999 10996 ] final  152.32 input  -57.11 | X-H torsion

> <Gold.Protein.ActiveResidues>
 VAL166  LYS551  ARG553  GLY616  TRP617  ASP618  TYR619  PRO620  LYS621  CYS622 
 ASP623  PHE694  ASN695  SER759  ASP760  ASP761  ALA762  ILE779  LEU786  VAL792 
 PHE793  MET794  SER795  GLU796  ALA797  LYS798  CYS799  TRP800  GLU811  SER814 

> <Gold.Protein.RotatedAtoms>
  152.5434  134.0883  159.8265 H   0  0  0  0  0  0  0  0  0  0  0  0  # atno 6907 bound_to 6896
  151.0976  133.5261  159.2619 H   0  0  0  0  0  0  0  0  0  0  0  0  # atno 6908 bound_to 6896
  151.2028  135.0458  159.8933 H   0  0  0  0  0  0  0  0  0  0  0  0  # atno 6909 bound_to 6896
  145.3625  140.9494  143.2493 H   0  0  0  0  0  0  0  0  0  0  0  0  # atno 7974 bound_to 7965
  155.7692  140.3485  155.5238 H   0  0  0  0  0  0  0  0  0  0  0  0  # atno 8008 bound_to 7997
  155.8839  140.1006  157.1487 H   0  0  0  0  0  0  0  0  0  0  0  0  # atno 8009 bound_to 7997
  154.4027  140.1317  156.4218 H   0  0  0  0  0  0  0  0  0  0  0  0  # atno 8010 bound_to 7997
  139.4958  144.6008  151.6486 H   0  0  0  0  0  0  0  0  0  0  0  0  # atno 10167 bound_to 10162
  157.6946  131.0519  150.4218 H   0  0  0  0  0  0  0  0  0  0  0  0  # atno 10718 bound_to 10713
  154.4273  135.2759  155.1936 H   0  0  0  0  0  0  0  0  0  0  0  0  # atno 10763 bound_to 10752
  154.3856  135.6077  153.5818 H   0  0  0  0  0  0  0  0  0  0  0  0  # atno 10764 bound_to 10752
  152.9835  135.5891  154.4579 H   0  0  0  0  0  0  0  0  0  0  0  0  # atno 10765 bound_to 10752
  140.1297  134.8810  157.2187 H   0  0  0  0  0  0  0  0  0  0  0  0  # atno 11005 bound_to 11000
  144.8636  139.5141  143.6801 LP  0  0  0  0  0  0  0  0  0  0  0  0  # atno 17320 bound_to 7965
  146.2921  139.7170  142.9153 LP  0  0  0  0  0  0  0  0  0  0  0  0  # atno 17321 bound_to 7965
  140.5657  144.0194  150.6191 LP  0  0  0  0  0  0  0  0  0  0  0  0  # atno 17342 bound_to 10162
  140.3295  143.3086  152.0702 LP  0  0  0  0  0  0  0  0  0  0  0  0  # atno 17343 bound_to 10162
  156.4593  130.4028  149.6586 LP  0  0  0  0  0  0  0  0  0  0  0  0  # atno 17370 bound_to 10713
  156.3707  130.7529  151.2512 LP  0  0  0  0  0  0  0  0  0  0  0  0  # atno 17371 bound_to 10713
  140.2858  134.3297  155.7329 LP  0  0  0  0  0  0  0  0  0  0  0  0  # atno 17394 bound_to 11000
  141.2168  133.7505  156.9431 LP  0  0  0  0  0  0  0  0  0  0  0  0  # atno 17395 bound_to 11000

$$$$
