AV-unprocessed.smi:3094|AV-procd|sdf|11790|dock1
  -GOLD-   2272017163D 1   1.00000     0.00000
 Structure written by MMmdl.
 29 30  0  0  0  0  0  0  0  0  1 V2000
  154.1100  140.0860  160.5050 C   0  0  0  0  0  0  0  0  0  0  0  0
  153.5373  141.3320  159.8123 C   0  0  2  0  0  0  0  0  0  0  0  0
  152.9335  142.3170  160.8312 C   0  0  0  0  0  0  0  0  0  0  0  0
  152.5349  143.5696  160.2160 N   0  0  0  0  0  0  0  0  0  0  0  0
  151.9096  144.6446  160.8339 C   0  0  0  0  0  0  0  0  0  0  0  0
  151.7325  145.6063  159.8650 C   0  0  0  0  0  0  0  0  0  0  0  0
  152.2353  145.1462  158.6503 N   0  0  0  0  0  0  0  0  0  0  0  0
  152.6914  143.9335  158.9357 C   0  0  0  0  0  0  0  0  0  0  0  0
  152.5239  140.9368  158.8355 N   0  0  0  0  0  0  0  0  0  0  0  0
  152.6184  139.8991  157.9901 C   0  0  0  0  0  0  0  0  0  0  0  0
  153.5861  139.1376  157.9647 O   0  0  0  0  0  0  0  0  0  0  0  0
  151.4428  139.7531  157.0806 C   0  0  0  0  0  0  0  0  0  0  0  0
  151.7095  139.6951  155.5904 C   0  0  0  0  0  0  0  0  0  0  0  0
  151.0905  140.9306  156.1946 C   0  0  0  0  0  0  0  0  0  0  0  0
  154.8806  140.3585  161.2265 H   0  0  0  0  0  0  0  0  0  0  0  0
  154.5643  139.4066  159.7830 H   0  0  0  0  0  0  0  0  0  0  0  0
  153.3342  139.5359  161.0385 H   0  0  0  0  0  0  0  0  0  0  0  0
  154.3567  141.8395  159.2996 H   0  0  0  0  0  0  0  0  0  0  0  0
  152.0691  141.8760  161.3306 H   0  0  0  0  0  0  0  0  0  0  0  0
  153.6621  142.5447  161.6101 H   0  0  0  0  0  0  0  0  0  0  0  0
  151.6529  144.6377  161.8831 H   0  0  0  0  0  0  0  0  0  0  0  0
  151.2851  146.5858  159.9485 H   0  0  0  0  0  0  0  0  0  0  0  0
  153.1550  143.2963  158.1968 H   0  0  0  0  0  0  0  0  0  0  0  0
  151.6928  141.5079  158.7873 H   0  0  0  0  0  0  0  0  0  0  0  0
  150.6109  139.1563  157.4523 H   0  0  0  0  0  0  0  0  0  0  0  0
  152.7382  139.7701  155.2420 H   0  0  0  0  0  0  0  0  0  0  0  0
  151.0719  139.0398  155.0006 H   0  0  0  0  0  0  0  0  0  0  0  0
  150.0330  141.1132  156.0147 H   0  0  0  0  0  0  0  0  0  0  0  0
  151.7085  141.8253  156.2471 H   0  0  0  0  0  0  0  0  0  0  0  0
  1  2  1  0  0  0  0
  1 15  1  0  0  0  0
  1 16  1  0  0  0  0
  1 17  1  0  0  0  0
  2  3  1  0  0  0  0
  2  9  1  0  0  0  0
  2 18  1  0  0  0  0
  3  4  1  0  0  0  0
  3 19  1  0  0  0  0
  3 20  1  0  0  0  0
  4  8  1  0  0  0  0
  4  5  1  0  0  0  0
  5  6  2  0  0  0  0
  5 21  1  0  0  0  0
  6  7  1  0  0  0  0
  6 22  1  0  0  0  0
  7  8  2  0  0  0  0
  8 23  1  0  0  0  0
  9 10  1  0  0  0  0
  9 24  1  0  0  0  0
 10 11  2  0  0  0  0
 10 12  1  0  0  0  0
 12 14  1  0  0  0  0
 12 13  1  0  0  0  0
 12 25  1  0  0  0  0
 13 14  1  0  0  0  0
 13 26  1  0  0  0  0
 13 27  1  0  0  0  0
 14 28  1  0  0  0  0
 14 29  1  0  0  0  0
M  END
> <s_m_source_file>
AV-unprocessed.smi

> <i_m_source_file_index>
3094

> <i_lp_mmshare_version>
43012

> <i_f3d_flags>
0

> <s_epik_input>
W0NIMl0xW0NIMl1bQ0hdMUMoPU8pW05IXVtDQEhdKFtDSDNdKVtDSDJdbjJbY0hdW2NIXW5bY0hdMg==

> <s_epik_cmdline>
J2VwaWtfcHl0aG9uJywgJy1waCcsICc3LjAnLCAnLXRuJywgJzgnLCAnLW1hJywgJzIwMCcsICctbWV0YWxfYmluZGluZycsICctaW1hZScsICc8aW5maWxlLm1hZT4nLCAnLW9tYWUnLCAnPG91dGZpbGUubWFlPic=

> <r_lp_tautomer_probability>
1

> <r_epik_Ionization_Penalty>
0.642614

> <r_epik_Ionization_Penalty_Charging>
0.642614

> <r_epik_Ionization_Penalty_Neutral>
4.09963e-08

> <r_epik_State_Penalty>
0.660429

> <r_epik_Charging_Adjusted_Penalty>
1.30304

> <i_epik_Tot_Q>
0

> <i_epik_Tot_abs_Q>
0

> <r_epik_Metal_State_Penalty>
0.31224

> <b_epik_Metal_Only>
0

> <s_lp_Force_Field>
OPLS_2005

> <r_lp_Energy>
8.14958

> <b_lp_Chiralities_Consistent>
1

> <s_lp_Variant>
AV-unprocessed.smi:3094-3

> <Gold.Version>
5.8.1

> <Gold.Id.Protein>
6NUR|6NUR_protein|mol2

> <Gold.PLP.Fitness>
39.5894

> <Gold.PLP.PLP>
-37.0085

> <Gold.PLP.part.hbond>
-1.0000

> <Gold.PLP.part.metal>
0.0000

> <Gold.PLP.part.buried>
-3.9280

> <Gold.PLP.part.nonpolar>
-32.5802

> <Gold.PLP.part.repulsive>
0.1618

> <Gold.PLP.ligand.clash>
0.0000

> <Gold.PLP.ligand.torsion>
0.2782

> <Gold.PLP.Chemscore.Hbond>
1.0000

> <Gold.PLP.Chemscore.CHOScore>
0.0000

> <Gold.PLP.Chemscore.Metal>
0.0000

> <Gold.Chemscore.Hbonds>
donor molecule, donor type, donor heavy atom, donor atom, acceptor molecule, acceptor atom, score
      P1  H  7997  8009       L1    11  1.00

> <Gold.PLP.Chemscore.Internal.Correction>
0.1373

> <Gold.Rescore>
     Score         DG    S(hbond)    S(metal)    S(lipo)     H(rot)  DE(clash)    DE(int)     intcor
     10.64     -12.23       0.96        0.00      70.52       1.83       0.08       1.50       ----

> <Gold.Chemscore.Fitness>
10.6390

> <Gold.Chemscore.DG>
-12.2273

> <Gold.Chemscore.ZeroCoef>
-5.4800

> <Gold.Chemscore.Hbond>
0.9560

> <Gold.Chemscore.Metal>
0.0000

> <Gold.Chemscore.Lipo>
70.5233

> <Gold.Chemscore.Internal_Hbond>
0.0000

> <Gold.Chemscore.DEClash>
0.0841

> <Gold.Chemscore.DEInternal>
1.5041

> <Gold.Chemscore.Rot>
1.8347

> <Gold.Chemscore.Internal.Correction>
   9.000000E+99

> <Gold.Chemscore.Hbonds>
donor molecule, donor type, donor heavy atom, donor atom, acceptor molecule, acceptor atom, score
      P1  H  7997  8009       L1    11  0.35

> <Gold.Chemscore.Hbond.Weighted>
-3.1929

> <Gold.Chemscore.Metal.Weighted>
-0.0000

> <Gold.Chemscore.Lipo.Weighted>
-8.2512

> <Gold.Chemscore.Internal_Hbond.Weighted>
0.0000

> <Gold.Chemscore.DEClash.Weighted>
0.0841

> <Gold.Chemscore.DEInternal.Weighted>
1.5041

> <Gold.Chemscore.Rot.Weighted>
4.6969

> <Gold.Chemscore.Internal.Correction.Weighted>
   9.000000E+99

> <Gold.Protein.RotatedTorsions>
[ 6907 6896 6895 6894 ] final   15.19 input  -60.11 | X-H torsion
[ 7974 7965 7964 7962 ] final  -25.77 input  175.53 | X-H torsion
[ 8008 7997 7996 7995 ] final  148.32 input   59.86 | X-H torsion
[ 10167 10162 10161 10158 ] final  147.46 input  -65.29 | X-H torsion
[ 10718 10713 10712 10709 ] final  136.30 input   66.30 | X-H torsion
[ 10763 10752 10751 10750 ] final -166.23 input  -60.55 | X-H torsion
[ 11005 11000 10999 10996 ] final  -84.86 input  -57.11 | X-H torsion

> <Gold.Protein.ActiveResidues>
 VAL166  LYS551  ARG553  GLY616  TRP617  ASP618  TYR619  PRO620  LYS621  CYS622 
 ASP623  PHE694  ASN695  SER759  ASP760  ASP761  ALA762  ILE779  LEU786  VAL792 
 PHE793  MET794  SER795  GLU796  ALA797  LYS798  CYS799  TRP800  GLU811  SER814 

> <Gold.Protein.RotatedAtoms>
  151.8142  135.0671  160.0416 H   0  0  0  0  0  0  0  0  0  0  0  0  # atno 6907 bound_to 6896
  152.2998  133.5639  159.5619 H   0  0  0  0  0  0  0  0  0  0  0  0  # atno 6908 bound_to 6896
  150.7268  134.0224  159.3748 H   0  0  0  0  0  0  0  0  0  0  0  0  # atno 6909 bound_to 6896
  146.1469  140.4930  142.8628 H   0  0  0  0  0  0  0  0  0  0  0  0  # atno 7974 bound_to 7965
  156.2795  140.2132  156.5680 H   0  0  0  0  0  0  0  0  0  0  0  0  # atno 8008 bound_to 7997
  154.7159  140.0508  157.0617 H   0  0  0  0  0  0  0  0  0  0  0  0  # atno 8009 bound_to 7997
  155.0543  140.3159  155.4684 H   0  0  0  0  0  0  0  0  0  0  0  0  # atno 8010 bound_to 7997
  139.4890  144.5753  151.6977 H   0  0  0  0  0  0  0  0  0  0  0  0  # atno 10167 bound_to 10162
  157.4481  131.1063  151.0066 H   0  0  0  0  0  0  0  0  0  0  0  0  # atno 10718 bound_to 10713
  154.6854  135.2961  154.9555 H   0  0  0  0  0  0  0  0  0  0  0  0  # atno 10763 bound_to 10752
  154.0536  135.6641  153.4807 H   0  0  0  0  0  0  0  0  0  0  0  0  # atno 10764 bound_to 10752
  153.0575  135.5135  154.7918 H   0  0  0  0  0  0  0  0  0  0  0  0  # atno 10765 bound_to 10752
  141.1647  133.7368  156.8930 H   0  0  0  0  0  0  0  0  0  0  0  0  # atno 11005 bound_to 11000
  144.7857  140.5932  143.6575 LP  0  0  0  0  0  0  0  0  0  0  0  0  # atno 17320 bound_to 7965
  145.4915  139.1488  143.3707 LP  0  0  0  0  0  0  0  0  0  0  0  0  # atno 17321 bound_to 7965
  140.5348  144.0673  150.6066 LP  0  0  0  0  0  0  0  0  0  0  0  0  # atno 17342 bound_to 10162
  140.3675  143.2873  152.0315 LP  0  0  0  0  0  0  0  0  0  0  0  0  # atno 17343 bound_to 10162
  157.0905  130.5940  149.5439 LP  0  0  0  0  0  0  0  0  0  0  0  0  # atno 17370 bound_to 10713
  155.9975  130.5047  150.7538 LP  0  0  0  0  0  0  0  0  0  0  0  0  # atno 17371 bound_to 10713
  140.1635  134.9149  157.2745 LP  0  0  0  0  0  0  0  0  0  0  0  0  # atno 17394 bound_to 11000
  140.2583  134.3601  155.7416 LP  0  0  0  0  0  0  0  0  0  0  0  0  # atno 17395 bound_to 11000

$$$$
