AV-unprocessed.smi:2229|AV-procd|sdf|9027|dock9
  -GOLD-   2272012233D 1   1.00000     0.00000
 Structure written by MMmdl.
 44 45  0  0  0  0  0  0  0  0  1 V2000
  154.3855  138.1469  160.3420 C   0  0  0  0  0  0  0  0  0  0  0  0
  153.0526  138.6771  159.7917 C   0  0  0  0  0  0  0  0  0  0  0  0
  152.4867  137.7079  158.7389 C   0  0  0  0  0  0  0  0  0  0  0  0
  153.2200  140.1102  159.2465 C   0  0  0  0  0  0  0  0  0  0  0  0
  151.9124  140.7453  158.7417 C   0  0  0  0  0  0  0  0  0  0  0  0
  152.0748  142.2158  158.3167 C   0  0  2  0  0  0  0  0  0  0  0  0
  152.8039  143.1101  159.3211 C   0  0  0  0  0  0  0  0  0  0  0  0
  152.4416  144.5273  158.8795 C   0  0  0  0  0  0  0  0  0  0  0  0
  151.0126  144.4320  158.3296 C   0  0  0  0  0  0  0  0  0  0  0  0
  150.7356  142.9348  158.0875 C   0  0  1  0  0  0  0  0  0  0  0  0
  150.2446  142.6618  156.7429 N   0  0  0  0  0  0  0  0  0  0  0  0
  149.8179  141.4721  156.2908 C   0  0  0  0  0  0  0  0  0  0  0  0
  149.7116  140.4832  157.0146 O   0  0  0  0  0  0  0  0  0  0  0  0
  149.4725  141.3508  154.7969 C   0  0  0  0  0  0  0  0  0  0  0  0
  148.0362  141.3076  154.4973 N   0  0  0  0  0  0  0  0  0  0  0  0
  147.1606  142.3175  154.8357 C   0  0  0  0  0  0  0  0  0  0  0  0
  145.9539  142.0519  154.4670 N   0  0  0  0  0  0  0  0  0  0  0  0
  146.0840  140.8360  153.8848 N   0  0  0  0  0  0  0  0  0  0  0  0
  147.3288  140.3573  153.8896 C   0  0  0  0  0  0  0  0  0  0  0  0
  147.7261  139.2897  153.4270 O   0  0  0  0  0  0  0  0  0  0  0  0
  145.2679  140.3829  153.4994 H   0  0  0  0  0  0  0  0  0  0  0  0
  155.1406  138.0831  159.5577 H   0  0  0  0  0  0  0  0  0  0  0  0
  154.2665  137.1514  160.7706 H   0  0  0  0  0  0  0  0  0  0  0  0
  154.7750  138.7954  161.1273 H   0  0  0  0  0  0  0  0  0  0  0  0
  152.3509  138.7123  160.6261 H   0  0  0  0  0  0  0  0  0  0  0  0
  153.1217  137.6694  157.8535 H   0  0  0  0  0  0  0  0  0  0  0  0
  151.4853  137.9945  158.4192 H   0  0  0  0  0  0  0  0  0  0  0  0
  152.4146  136.6958  159.1383 H   0  0  0  0  0  0  0  0  0  0  0  0
  153.6274  140.7415  160.0369 H   0  0  0  0  0  0  0  0  0  0  0  0
  153.9626  140.1117  158.4472 H   0  0  0  0  0  0  0  0  0  0  0  0
  151.5494  140.1837  157.8812 H   0  0  0  0  0  0  0  0  0  0  0  0
  151.1392  140.6638  159.5064 H   0  0  0  0  0  0  0  0  0  0  0  0
  152.6432  142.2459  157.3846 H   0  0  0  0  0  0  0  0  0  0  0  0
  152.4268  142.9295  160.3287 H   0  0  0  0  0  0  0  0  0  0  0  0
  153.8813  142.9429  159.3314 H   0  0  0  0  0  0  0  0  0  0  0  0
  152.5286  145.2499  159.6914 H   0  0  0  0  0  0  0  0  0  0  0  0
  153.1176  144.8434  158.0842 H   0  0  0  0  0  0  0  0  0  0  0  0
  150.2965  144.8283  159.0505 H   0  0  0  0  0  0  0  0  0  0  0  0
  150.9144  145.0279  157.4211 H   0  0  0  0  0  0  0  0  0  0  0  0
  150.0106  142.5857  158.8258 H   0  0  0  0  0  0  0  0  0  0  0  0
  150.2945  143.4237  156.0822 H   0  0  0  0  0  0  0  0  0  0  0  0
  149.9089  142.2020  154.2724 H   0  0  0  0  0  0  0  0  0  0  0  0
  149.9707  140.4642  154.4021 H   0  0  0  0  0  0  0  0  0  0  0  0
  147.5311  143.2043  155.3529 H   0  0  0  0  0  0  0  0  0  0  0  0
  1  2  1  0  0  0  0
  1 22  1  0  0  0  0
  1 23  1  0  0  0  0
  1 24  1  0  0  0  0
  2  3  1  0  0  0  0
  2  4  1  0  0  0  0
  2 25  1  0  0  0  0
  3 26  1  0  0  0  0
  3 27  1  0  0  0  0
  3 28  1  0  0  0  0
  4  5  1  0  0  0  0
  4 29  1  0  0  0  0
  4 30  1  0  0  0  0
  5  6  1  0  0  0  0
  5 31  1  0  0  0  0
  5 32  1  0  0  0  0
  6 10  1  0  0  0  0
  6  7  1  0  0  0  0
  6 33  1  0  0  0  0
  7  8  1  0  0  0  0
  7 34  1  0  0  0  0
  7 35  1  0  0  0  0
  8  9  1  0  0  0  0
  8 36  1  0  0  0  0
  8 37  1  0  0  0  0
  9 10  1  0  0  0  0
  9 38  1  0  0  0  0
  9 39  1  0  0  0  0
 10 11  1  0  0  0  0
 10 40  1  0  0  0  0
 11 12  1  0  0  0  0
 11 41  1  0  0  0  0
 12 13  2  0  0  0  0
 12 14  1  0  0  0  0
 14 15  1  0  0  0  0
 14 42  1  0  0  0  0
 14 43  1  0  0  0  0
 15 19  1  0  0  0  0
 15 16  1  0  0  0  0
 16 17  2  0  0  0  0
 16 44  1  0  0  0  0
 17 18  1  0  0  0  0
 18 21  1  0  0  0  0
 18 19  1  0  0  0  0
 19 20  2  0  0  0  0
M  END
> <s_m_source_file>
AV-unprocessed.smi

> <i_m_source_file_index>
2229

> <i_lp_mmshare_version>
43012

> <i_f3d_flags>
0

> <s_epik_input>
W0NIM11bQ0hdKFtDSDNdKVtDSDJdW0NIMl1bQ0BASF0xW0NIMl1bQ0gyXVtDSDJdW0NASF0xW05IXUMoPU8pW0NIMl1uMltjSF1uW25IXWMyPU8=

> <s_epik_cmdline>
J2VwaWtfcHl0aG9uJywgJy1waCcsICc3LjAnLCAnLXRuJywgJzgnLCAnLW1hJywgJzIwMCcsICctbWV0YWxfYmluZGluZycsICctaW1hZScsICc8aW5maWxlLm1hZT4nLCAnLW9tYWUnLCAnPG91dGZpbGUubWFlPic=

> <r_lp_tautomer_probability>
1

> <r_epik_Ionization_Penalty>
4.14174e-05

> <r_epik_Ionization_Penalty_Charging>
4.13165e-05

> <r_epik_Ionization_Penalty_Neutral>
1.00911e-07

> <r_epik_State_Penalty>
-0

> <r_epik_Charging_Adjusted_Penalty>
4.13165e-05

> <i_epik_Tot_Q>
0

> <i_epik_Tot_abs_Q>
0

> <r_epik_Metal_State_Penalty>
0.0399369

> <b_epik_Metal_Only>
0

> <s_lp_Force_Field>
OPLS_2005

> <r_lp_Energy>
36.5056

> <b_lp_Chiralities_Consistent>
1

> <s_lp_Variant>
AV-unprocessed.smi:2229-1

> <Gold.Version>
5.8.1

> <Gold.Id.Protein>
6NUR|6NUR_protein|mol2

> <Gold.PLP.Fitness>
44.4466

> <Gold.PLP.PLP>
-37.4455

> <Gold.PLP.part.hbond>
-2.0000

> <Gold.PLP.part.metal>
0.0000

> <Gold.PLP.part.buried>
-4.8403

> <Gold.PLP.part.nonpolar>
-31.6408

> <Gold.PLP.part.repulsive>
1.2928

> <Gold.PLP.ligand.clash>
0.0000

> <Gold.PLP.ligand.torsion>
0.3154

> <Gold.PLP.Chemscore.Hbond>
1.5360

> <Gold.PLP.Chemscore.CHOScore>
1.0000

> <Gold.PLP.Chemscore.Metal>
0.0000

> <Gold.Chemscore.Hbonds>
donor molecule, donor type, donor heavy atom, donor atom, acceptor molecule, acceptor atom, score
      L1  H    11    41       P1  8028  0.56
      L1  H    18    21       P1 10175  0.98
      L1  C    16    44       P1  8028  0.94

> <Gold.PLP.Chemscore.Internal.Correction>
0.0238

> <Gold.Rescore>
     Score         DG    S(hbond)    S(metal)    S(lipo)     H(rot)  DE(clash)    DE(int)     intcor
     13.52     -15.32       1.75        0.00      91.82       2.64       0.05       1.76       ----

> <Gold.Chemscore.Fitness>
13.5185

> <Gold.Chemscore.DG>
-15.3229

> <Gold.Chemscore.ZeroCoef>
-5.4800

> <Gold.Chemscore.Hbond>
1.7515

> <Gold.Chemscore.Metal>
0.0000

> <Gold.Chemscore.Lipo>
91.8209

> <Gold.Chemscore.Internal_Hbond>
0.0000

> <Gold.Chemscore.DEClash>
0.0477

> <Gold.Chemscore.DEInternal>
1.7567

> <Gold.Chemscore.Rot>
2.6368

> <Gold.Chemscore.Internal.Correction>
   9.000000E+99

> <Gold.Chemscore.Hbonds>
donor molecule, donor type, donor heavy atom, donor atom, acceptor molecule, acceptor atom, score
      L1  H    11    41       P1  8028  0.55
      L1  H    18    21       P1 10175  0.93

> <Gold.Chemscore.Hbond.Weighted>
-5.8499

> <Gold.Chemscore.Metal.Weighted>
-0.0000

> <Gold.Chemscore.Lipo.Weighted>
-10.7430

> <Gold.Chemscore.Internal_Hbond.Weighted>
0.0000

> <Gold.Chemscore.DEClash.Weighted>
0.0477

> <Gold.Chemscore.DEInternal.Weighted>
1.7567

> <Gold.Chemscore.Rot.Weighted>
6.7501

> <Gold.Chemscore.Internal.Correction.Weighted>
   9.000000E+99

> <Gold.Protein.RotatedTorsions>
[ 6907 6896 6895 6894 ] final  138.18 input  -60.11 | X-H torsion
[ 7974 7965 7964 7962 ] final -170.77 input  175.53 | X-H torsion
[ 8008 7997 7996 7995 ] final  -24.98 input   59.86 | X-H torsion
[ 10167 10162 10161 10158 ] final  130.76 input  -65.29 | X-H torsion
[ 10718 10713 10712 10709 ] final   72.19 input   66.30 | X-H torsion
[ 10763 10752 10751 10750 ] final -118.42 input  -60.55 | X-H torsion
[ 11005 11000 10999 10996 ] final  105.73 input  -57.11 | X-H torsion

> <Gold.Protein.ActiveResidues>
 VAL166  LYS551  ARG553  GLY616  TRP617  ASP618  TYR619  PRO620  LYS621  CYS622 
 ASP623  PHE694  ASN695  SER759  ASP760  ASP761  ALA762  ILE779  LEU786  VAL792 
 PHE793  MET794  SER795  GLU796  ALA797  LYS798  CYS799  TRP800  GLU811  SER814 

> <Gold.Protein.RotatedAtoms>
  152.2696  133.5370  159.5430 H   0  0  0  0  0  0  0  0  0  0  0  0  # atno 6907 bound_to 6896
  150.7154  134.0716  159.3875 H   0  0  0  0  0  0  0  0  0  0  0  0  # atno 6908 bound_to 6896
  151.8632  135.0517  160.0522 H   0  0  0  0  0  0  0  0  0  0  0  0  # atno 6909 bound_to 6896
  144.7165  140.2023  143.6337 H   0  0  0  0  0  0  0  0  0  0  0  0  # atno 7974 bound_to 7965
  154.4500  140.1939  156.0548 H   0  0  0  0  0  0  0  0  0  0  0  0  # atno 8008 bound_to 7997
  156.0627  140.3294  155.7454 H   0  0  0  0  0  0  0  0  0  0  0  0  # atno 8009 bound_to 7997
  155.5386  140.0584  157.2865 H   0  0  0  0  0  0  0  0  0  0  0  0  # atno 8010 bound_to 7997
  139.5415  144.6734  151.4610 H   0  0  0  0  0  0  0  0  0  0  0  0  # atno 10167 bound_to 10162
  157.6489  130.9566  150.0894 H   0  0  0  0  0  0  0  0  0  0  0  0  # atno 10718 bound_to 10713
  154.8587  135.4274  154.2137 H   0  0  0  0  0  0  0  0  0  0  0  0  # atno 10763 bound_to 10752
  153.3157  135.6979  153.7081 H   0  0  0  0  0  0  0  0  0  0  0  0  # atno 10764 bound_to 10752
  153.6156  135.3511  155.2967 H   0  0  0  0  0  0  0  0  0  0  0  0  # atno 10765 bound_to 10752
  139.8805  134.9345  156.5558 H   0  0  0  0  0  0  0  0  0  0  0  0  # atno 11005 bound_to 11000
  145.8668  139.2251  143.1684 LP  0  0  0  0  0  0  0  0  0  0  0  0  # atno 17320 bound_to 7965
  146.0122  140.8425  142.9965 LP  0  0  0  0  0  0  0  0  0  0  0  0  # atno 17321 bound_to 7965
  140.6646  143.8425  150.6927 LP  0  0  0  0  0  0  0  0  0  0  0  0  # atno 17342 bound_to 10162
  140.1830  143.4099  152.1919 LP  0  0  0  0  0  0  0  0  0  0  0  0  # atno 17343 bound_to 10162
  156.1847  130.3651  149.8988 LP  0  0  0  0  0  0  0  0  0  0  0  0  # atno 17370 bound_to 10713
  156.6931  130.8904  151.3590 LP  0  0  0  0  0  0  0  0  0  0  0  0  # atno 17371 bound_to 10713
  140.8206  133.8357  155.8892 LP  0  0  0  0  0  0  0  0  0  0  0  0  # atno 17394 bound_to 11000
  140.9422  134.1886  157.4789 LP  0  0  0  0  0  0  0  0  0  0  0  0  # atno 17395 bound_to 11000

$$$$
