AV-unprocessed.smi:3029|AV-procd|sdf|11530|dock5
  -GOLD-   2272016473D 1   1.00000     0.00000
 Structure written by MMmdl.
 41 42  0  0  0  0  0  0  0  0  3 V2000
  147.0814  140.9843  154.3495 O   0  0  0  0  0  0  0  0  0  0  0  0
  148.1844  140.4430  154.4268 C   0  0  0  0  0  0  0  0  0  0  0  0
  149.3334  141.1125  155.0450 C   0  0  0  0  0  0  0  0  0  0  0  0
  150.5428  140.5228  155.1169 C   0  0  0  0  0  0  0  0  0  0  0  0
  150.7448  139.1919  154.5783 C   0  0  0  0  0  0  0  0  0  0  0  0
  152.0426  138.5560  154.6353 N   0  3  0  0  0  0  0  0  0  0  0  0
  152.9734  139.1492  155.1721 O   0  0  0  0  0  0  0  0  0  0  0  0
  152.1727  137.4395  154.1438 O   0  5  0  0  0  0  0  0  0  0  0  0
  149.6859  138.5758  154.0173 C   0  0  0  0  0  0  0  0  0  0  0  0
  148.4194  139.1866  153.9388 N   0  0  0  0  0  0  0  0  0  0  0  0
  147.3583  138.4178  153.2699 C   0  0  0  0  0  0  0  0  0  0  0  0
  146.8895  137.2254  154.1234 C   0  0  0  0  0  0  0  0  0  0  0  0
  147.6956  136.0476  153.8368 N   0  0  0  0  0  0  0  0  0  0  0  0
  146.9926  134.8048  154.1381 C   0  0  1  0  0  0  0  0  0  0  0  0
  145.7047  134.7574  153.2884 C   0  0  0  0  0  0  0  0  0  0  0  0
  145.9826  134.4843  151.7995 C   0  0  0  0  0  0  0  0  0  0  0  0
  146.8333  133.2221  151.6073 C   0  0  0  0  0  0  0  0  0  0  0  0
  148.1430  133.3102  152.4044 C   0  0  0  0  0  0  0  0  0  0  0  0
  147.8780  133.5470  153.9069 C   0  0  1  0  0  0  0  0  0  0  0  0
  149.1700  133.4890  154.7540 C   0  0  0  0  0  0  0  0  0  0  0  0
  149.9780  134.5173  154.4960 F   0  0  0  0  0  0  0  0  0  0  0  0
  148.8677  133.4842  156.0522 F   0  0  0  0  0  0  0  0  0  0  0  0
  149.8287  132.3623  154.4830 F   0  0  0  0  0  0  0  0  0  0  0  0
  149.2050  142.1048  155.4517 H   0  0  0  0  0  0  0  0  0  0  0  0
  151.3590  141.0572  155.5807 H   0  0  0  0  0  0  0  0  0  0  0  0
  149.7317  137.5883  153.5808 H   0  0  0  0  0  0  0  0  0  0  0  0
  146.5096  139.0798  153.0921 H   0  0  0  0  0  0  0  0  0  0  0  0
  147.6567  138.0793  152.2762 H   0  0  0  0  0  0  0  0  0  0  0  0
  146.9367  137.4776  155.1823 H   0  0  0  0  0  0  0  0  0  0  0  0
  145.8476  136.9986  153.8946 H   0  0  0  0  0  0  0  0  0  0  0  0
  147.9675  136.0592  152.8639 H   0  0  0  0  0  0  0  0  0  0  0  0
  146.6823  134.8211  155.1841 H   0  0  0  0  0  0  0  0  0  0  0  0
  145.0611  133.9653  153.6730 H   0  0  0  0  0  0  0  0  0  0  0  0
  145.1378  135.6827  153.4005 H   0  0  0  0  0  0  0  0  0  0  0  0
  145.0408  134.3820  151.2598 H   0  0  0  0  0  0  0  0  0  0  0  0
  146.4964  135.3392  151.3576 H   0  0  0  0  0  0  0  0  0  0  0  0
  146.2673  132.3464  151.9271 H   0  0  0  0  0  0  0  0  0  0  0  0
  147.0515  133.0790  150.5487 H   0  0  0  0  0  0  0  0  0  0  0  0
  148.7097  132.3896  152.2639 H   0  0  0  0  0  0  0  0  0  0  0  0
  148.7628  134.1143  152.0055 H   0  0  0  0  0  0  0  0  0  0  0  0
  147.2752  132.7019  154.2438 H   0  0  0  0  0  0  0  0  0  0  0  0
  1  2  2  0  0  0  0
  2 10  1  0  0  0  0
  2  3  1  0  0  0  0
  3  4  2  0  0  0  0
  3 24  1  0  0  0  0
  4  5  1  0  0  0  0
  4 25  1  0  0  0  0
  5  6  1  0  0  0  0
  5  9  2  0  0  0  0
  6  7  2  0  0  0  0
  6  8  1  0  0  0  0
  9 10  1  0  0  0  0
  9 26  1  0  0  0  0
 10 11  1  0  0  0  0
 11 12  1  0  0  0  0
 11 27  1  0  0  0  0
 11 28  1  0  0  0  0
 12 13  1  0  0  0  0
 12 29  1  0  0  0  0
 12 30  1  0  0  0  0
 13 14  1  0  0  0  0
 13 31  1  0  0  0  0
 14 19  1  0  0  0  0
 14 15  1  0  0  0  0
 14 32  1  0  0  0  0
 15 16  1  0  0  0  0
 15 33  1  0  0  0  0
 15 34  1  0  0  0  0
 16 17  1  0  0  0  0
 16 35  1  0  0  0  0
 16 36  1  0  0  0  0
 17 18  1  0  0  0  0
 17 37  1  0  0  0  0
 17 38  1  0  0  0  0
 18 19  1  0  0  0  0
 18 39  1  0  0  0  0
 18 40  1  0  0  0  0
 19 20  1  0  0  0  0
 19 41  1  0  0  0  0
 20 21  1  0  0  0  0
 20 22  1  0  0  0  0
 20 23  1  0  0  0  0
M  CHG  1   6   1
M  CHG  1   8  -1
M  END
> <s_m_source_file>
AV-unprocessed.smi

> <i_m_source_file_index>
3029

> <i_lp_mmshare_version>
43012

> <i_f3d_flags>
0

> <s_epik_input>
Tz1jMVtjSF1bY0hdYyhbTitdKD1PKVtPLV0pW2NIXW4xW0NIMl1bQ0gyXVtOSF1bQ0BASF0yW0NIMl1bQ0gyXVtDSDJdW0NIMl1bQ0BIXTJDKEYpKEYpRg==

> <s_epik_cmdline>
J2VwaWtfcHl0aG9uJywgJy1waCcsICc3LjAnLCAnLXRuJywgJzgnLCAnLW1hJywgJzIwMCcsICctbWV0YWxfYmluZGluZycsICctaW1hZScsICc8aW5maWxlLm1hZT4nLCAnLW9tYWUnLCAnPG91dGZpbGUubWFlPic=

> <r_lp_tautomer_probability>
1

> <r_epik_Ionization_Penalty>
1.65565

> <r_epik_Ionization_Penalty_Charging>
3.32684e-10

> <r_epik_Ionization_Penalty_Neutral>
1.65565

> <r_epik_State_Penalty>
1.75811

> <r_epik_Charging_Adjusted_Penalty>
1.75811

> <i_epik_Tot_Q>
0

> <i_epik_Tot_abs_Q>
2

> <r_epik_Metal_State_Penalty>
1.75811

> <b_epik_Metal_Only>
0

> <s_lp_Force_Field>
OPLS_2005

> <r_lp_Energy>
39.0204

> <b_lp_Chiralities_Consistent>
1

> <s_lp_Variant>
AV-unprocessed.smi:3029-6

> <Gold.Version>
5.8.1

> <Gold.Id.Protein>
6NUR|6NUR_protein|mol2

> <Gold.PLP.Fitness>
47.8661

> <Gold.PLP.PLP>
-37.1490

> <Gold.PLP.part.hbond>
-2.8332

> <Gold.PLP.part.metal>
0.0000

> <Gold.PLP.part.buried>
-1.0821

> <Gold.PLP.part.nonpolar>
-33.4194

> <Gold.PLP.part.repulsive>
0.2827

> <Gold.PLP.ligand.clash>
0.0000

> <Gold.PLP.ligand.torsion>
0.4854

> <Gold.PLP.Chemscore.Hbond>
2.8480

> <Gold.PLP.Chemscore.CHOScore>
1.0000

> <Gold.PLP.Chemscore.Metal>
0.0000

> <Gold.Chemscore.Hbonds>
donor molecule, donor type, donor heavy atom, donor atom, acceptor molecule, acceptor atom, score
      L1  H    13    31       P1  7948  0.70
      P1  H  7997  8009       L1     7  1.00
      P1  H 10752 10765       L1     8  0.86
      L1  C     9    26       P1  7948  1.00

> <Gold.PLP.Chemscore.Internal.Correction>
0.1440

> <Gold.Rescore>
     Score         DG    S(hbond)    S(metal)    S(lipo)     H(rot)  DE(clash)    DE(int)     intcor
     12.40     -14.44       1.85        0.00      64.44       1.86       0.08       1.97       ----

> <Gold.Chemscore.Fitness>
12.4009

> <Gold.Chemscore.DG>
-14.4440

> <Gold.Chemscore.ZeroCoef>
-5.4800

> <Gold.Chemscore.Hbond>
1.8510

> <Gold.Chemscore.Metal>
0.0000

> <Gold.Chemscore.Lipo>
64.4393

> <Gold.Chemscore.Internal_Hbond>
0.0000

> <Gold.Chemscore.DEClash>
0.0777

> <Gold.Chemscore.DEInternal>
1.9654

> <Gold.Chemscore.Rot>
1.8584

> <Gold.Chemscore.Internal.Correction>
   9.000000E+99

> <Gold.Chemscore.Hbonds>
donor molecule, donor type, donor heavy atom, donor atom, acceptor molecule, acceptor atom, score
      L1  H    13    31       P1  7948  0.68
      P1  H  7997  8009       L1     7  0.98
      P1  H 10752 10765       L1     8  0.85

> <Gold.Chemscore.Hbond.Weighted>
-6.1822

> <Gold.Chemscore.Metal.Weighted>
-0.0000

> <Gold.Chemscore.Lipo.Weighted>
-7.5394

> <Gold.Chemscore.Internal_Hbond.Weighted>
0.0000

> <Gold.Chemscore.DEClash.Weighted>
0.0777

> <Gold.Chemscore.DEInternal.Weighted>
1.9654

> <Gold.Chemscore.Rot.Weighted>
4.7576

> <Gold.Chemscore.Internal.Correction.Weighted>
   9.000000E+99

> <Gold.Protein.RotatedTorsions>
[ 6907 6896 6895 6894 ] final   31.85 input  -60.11 | X-H torsion
[ 7974 7965 7964 7962 ] final  -14.64 input  175.53 | X-H torsion
[ 8008 7997 7996 7995 ] final -128.44 input   59.86 | X-H torsion
[ 10167 10162 10161 10158 ] final -155.18 input  -65.29 | X-H torsion
[ 10718 10713 10712 10709 ] final -131.84 input   66.30 | X-H torsion
[ 10763 10752 10751 10750 ] final  149.27 input  -60.55 | X-H torsion
[ 11005 11000 10999 10996 ] final -132.59 input  -57.11 | X-H torsion

> <Gold.Protein.ActiveResidues>
 VAL166  LYS551  ARG553  GLY616  TRP617  ASP618  TYR619  PRO620  LYS621  CYS622 
 ASP623  PHE694  ASN695  SER759  ASP760  ASP761  ALA762  ILE779  LEU786  VAL792 
 PHE793  MET794  SER795  GLU796  ALA797  LYS798  CYS799  TRP800  GLU811  SER814 

> <Gold.Protein.RotatedAtoms>
  152.0662  134.9563  160.0574 H   0  0  0  0  0  0  0  0  0  0  0  0  # atno 6907 bound_to 6896
  152.0907  133.4194  159.4550 H   0  0  0  0  0  0  0  0  0  0  0  0  # atno 6908 bound_to 6896
  150.6837  134.2795  159.4664 H   0  0  0  0  0  0  0  0  0  0  0  0  # atno 6909 bound_to 6896
  146.2066  140.3378  142.8405 H   0  0  0  0  0  0  0  0  0  0  0  0  # atno 7974 bound_to 7965
  155.2628  140.0437  157.2999 H   0  0  0  0  0  0  0  0  0  0  0  0  # atno 8008 bound_to 7997
  154.5700  140.2371  155.8174 H   0  0  0  0  0  0  0  0  0  0  0  0  # atno 8009 bound_to 7997
  156.2115  140.2997  155.9752 H   0  0  0  0  0  0  0  0  0  0  0  0  # atno 8010 bound_to 7997
  139.6952  143.9354  152.2404 H   0  0  0  0  0  0  0  0  0  0  0  0  # atno 10167 bound_to 10162
  156.2285  130.7023  151.0833 H   0  0  0  0  0  0  0  0  0  0  0  0  # atno 10718 bound_to 10713
  154.0684  135.2868  155.3312 H   0  0  0  0  0  0  0  0  0  0  0  0  # atno 10763 bound_to 10752
  154.6762  135.5280  153.8206 H   0  0  0  0  0  0  0  0  0  0  0  0  # atno 10764 bound_to 10752
  153.0495  135.6570  154.0868 H   0  0  0  0  0  0  0  0  0  0  0  0  # atno 10765 bound_to 10752
  140.9157  134.1510  157.4354 H   0  0  0  0  0  0  0  0  0  0  0  0  # atno 11005 bound_to 11000
  144.8807  140.7396  143.5988 LP  0  0  0  0  0  0  0  0  0  0  0  0  # atno 17320 bound_to 7965
  145.3298  139.1763  143.4543 LP  0  0  0  0  0  0  0  0  0  0  0  0  # atno 17321 bound_to 7965
  139.9181  144.6816  150.8490 LP  0  0  0  0  0  0  0  0  0  0  0  0  # atno 17342 bound_to 10162
  140.7694  143.3394  151.2239 LP  0  0  0  0  0  0  0  0  0  0  0  0  # atno 17343 bound_to 10162
  157.7122  131.0728  150.6460 LP  0  0  0  0  0  0  0  0  0  0  0  0  # atno 17370 bound_to 10713
  156.6526  130.4489  149.5714 LP  0  0  0  0  0  0  0  0  0  0  0  0  # atno 17371 bound_to 10713
  139.8765  134.9952  156.5734 LP  0  0  0  0  0  0  0  0  0  0  0  0  # atno 17394 bound_to 11000
  140.8053  133.8472  155.8762 LP  0  0  0  0  0  0  0  0  0  0  0  0  # atno 17395 bound_to 11000

$$$$
