AV-unprocessed.smi:2774|AV-procd|sdf|10680|dock8
  -GOLD-   2272015123D 1   1.00000     0.00000
 Structure written by MMmdl.
 35 36  0  0  0  0  0  0  0  0  2 V2000
  147.0535  138.6644  150.9048 O   0  0  0  0  0  0  0  0  0  0  0  0
  146.1874  138.4309  151.9981 C   0  0  2  0  0  0  0  0  0  0  0  0
  146.9536  138.7113  153.3028 C   0  0  0  0  0  0  0  0  0  0  0  0
  148.4165  138.7005  153.0841 N   0  3  0  0  0  0  0  0  0  0  0  0
  149.2353  139.0068  154.2779 C   0  0  2  0  0  0  0  0  0  0  0  0
  149.1147  140.5076  154.6078 C   0  0  0  0  0  0  0  0  0  0  0  0
  149.8657  140.9001  155.8911 C   0  0  0  0  0  0  0  0  0  0  0  0
  151.3726  140.6263  155.7953 C   0  0  0  0  0  0  0  0  0  0  0  0
  151.7004  138.8604  155.5534 S   0  0  0  0  0  0  0  0  0  0  0  0
  150.7074  138.6008  154.0582 C   0  0  0  0  0  0  0  0  0  0  0  0
  145.6332  137.0152  151.9781 C   0  0  0  0  0  0  0  0  0  0  0  0
  145.8011  136.1837  150.8496 C   0  0  0  0  0  0  0  0  0  0  0  0
  145.2729  134.8779  150.8899 C   0  0  0  0  0  0  0  0  0  0  0  0
  144.6126  134.3785  151.9563 N   0  0  0  0  0  0  0  0  0  0  0  0
  144.4545  135.1779  153.0328 C   0  0  0  0  0  0  0  0  0  0  0  0
  144.9439  136.4982  153.0949 C   0  0  0  0  0  0  0  0  0  0  0  0
  147.6633  139.3457  151.1461 H   0  0  0  0  0  0  0  0  0  0  0  0
  145.3550  139.1311  151.9114 H   0  0  0  0  0  0  0  0  0  0  0  0
  146.6695  139.6913  153.6887 H   0  0  0  0  0  0  0  0  0  0  0  0
  146.6795  137.9789  154.0621 H   0  0  0  0  0  0  0  0  0  0  0  0
  148.6890  137.7975  152.7221 H   0  0  0  0  0  0  0  0  0  0  0  0
  148.8290  138.4431  155.1192 H   0  0  0  0  0  0  0  0  0  0  0  0
  149.4860  141.1037  153.7727 H   0  0  0  0  0  0  0  0  0  0  0  0
  148.0625  140.7703  154.7247 H   0  0  0  0  0  0  0  0  0  0  0  0
  149.7064  141.9602  156.0907 H   0  0  0  0  0  0  0  0  0  0  0  0
  149.4476  140.3637  156.7437 H   0  0  0  0  0  0  0  0  0  0  0  0
  151.8106  141.1866  154.9685 H   0  0  0  0  0  0  0  0  0  0  0  0
  151.8753  140.9541  156.7056 H   0  0  0  0  0  0  0  0  0  0  0  0
  150.7921  137.5484  153.7895 H   0  0  0  0  0  0  0  0  0  0  0  0
  151.1455  139.1733  153.2396 H   0  0  0  0  0  0  0  0  0  0  0  0
  146.3234  136.5338  149.9713 H   0  0  0  0  0  0  0  0  0  0  0  0
  145.3850  134.2169  150.0432 H   0  0  0  0  0  0  0  0  0  0  0  0
  143.9229  134.7523  153.8710 H   0  0  0  0  0  0  0  0  0  0  0  0
  144.7896  137.0943  153.9824 H   0  0  0  0  0  0  0  0  0  0  0  0
  148.6190  139.3988  152.3833 H   0  0  0  0  0  0  0  0  0  0  0  0
  1  2  1  0  0  0  0
  1 17  1  0  0  0  0
  2  3  1  0  0  0  0
  2 11  1  0  0  0  0
  2 18  1  0  0  0  0
  3  4  1  0  0  0  0
  3 19  1  0  0  0  0
  3 20  1  0  0  0  0
  4  5  1  0  0  0  0
  4 21  1  0  0  0  0
  4 35  1  0  0  0  0
  5 10  1  0  0  0  0
  5  6  1  0  0  0  0
  5 22  1  0  0  0  0
  6  7  1  0  0  0  0
  6 23  1  0  0  0  0
  6 24  1  0  0  0  0
  7  8  1  0  0  0  0
  7 25  1  0  0  0  0
  7 26  1  0  0  0  0
  8  9  1  0  0  0  0
  8 27  1  0  0  0  0
  8 28  1  0  0  0  0
  9 10  1  0  0  0  0
 10 29  1  0  0  0  0
 10 30  1  0  0  0  0
 11 16  1  0  0  0  0
 11 12  2  0  0  0  0
 12 13  1  0  0  0  0
 12 31  1  0  0  0  0
 13 14  2  0  0  0  0
 13 32  1  0  0  0  0
 14 15  1  0  0  0  0
 15 16  2  0  0  0  0
 15 33  1  0  0  0  0
 16 34  1  0  0  0  0
M  CHG  1   4   1
M  END
> <s_m_source_file>
AV-unprocessed.smi

> <i_m_source_file_index>
2774

> <i_lp_mmshare_version>
43012

> <i_f3d_flags>
0

> <s_epik_input>
W2NIXTFbY0hdbltjSF1bY0hdYzFbQ0BIXShbT0hdKVtDSDJdW05IXVtDQEBIXTJbQ0gyXVtDSDJdW0NIMl1TW0NIMl0y

> <s_epik_cmdline>
J2VwaWtfcHl0aG9uJywgJy1waCcsICc3LjAnLCAnLXRuJywgJzgnLCAnLW1hJywgJzIwMCcsICctbWV0YWxfYmluZGluZycsICctaW1hZScsICc8aW5maWxlLm1hZT4nLCAnLW9tYWUnLCAnPG91dGZpbGUubWFlPic=

> <r_epik_Ionization_Penalty>
0.0205977

> <r_epik_Ionization_Penalty_Charging>
0.0185619

> <r_epik_Ionization_Penalty_Neutral>
0.00203589

> <r_epik_State_Penalty>
0.0147768

> <r_epik_Charging_Adjusted_Penalty>
0.0333386

> <i_epik_Tot_Q>
1

> <i_epik_Tot_abs_Q>
1

> <r_epik_Metal_State_Penalty>
0.0152254

> <b_epik_Metal_Only>
0

> <s_lp_Force_Field>
OPLS_2005

> <r_lp_Energy>
9.96587

> <b_lp_Chiralities_Consistent>
1

> <s_lp_Variant>
AV-unprocessed.smi:2774-1

> <Gold.Version>
5.8.1

> <Gold.Id.Protein>
6NUR|6NUR_protein|mol2

> <Gold.PLP.Fitness>
47.0023

> <Gold.PLP.PLP>
-32.0562

> <Gold.PLP.part.hbond>
-4.5968

> <Gold.PLP.part.metal>
0.0000

> <Gold.PLP.part.buried>
-0.2231

> <Gold.PLP.part.nonpolar>
-26.2559

> <Gold.PLP.part.repulsive>
0.1756

> <Gold.PLP.ligand.clash>
0.0000

> <Gold.PLP.ligand.torsion>
0.9667

> <Gold.PLP.Chemscore.Hbond>
4.6704

> <Gold.PLP.Chemscore.CHOScore>
0.9522

> <Gold.PLP.Chemscore.Metal>
0.0000

> <Gold.Chemscore.Hbonds>
donor molecule, donor type, donor heavy atom, donor atom, acceptor molecule, acceptor atom, score
      L1  H     1    17       P1  7957  0.94
      L1  H     4    21       P1  7948  2.00
      L1  H     4    35       P1  7957  1.00
      P1  H  7954  7966       L1     1  0.60
      L1  C    13    32       P1  7921  0.82

> <Gold.PLP.Chemscore.Internal.Correction>
0.0118

> <Gold.Rescore>
     Score         DG    S(hbond)    S(metal)    S(lipo)     H(rot)  DE(clash)    DE(int)     intcor
     18.71     -19.99       2.96        0.00      82.62       1.97       0.36       0.92       ----

> <Gold.Chemscore.Fitness>
18.7102

> <Gold.Chemscore.DG>
-19.9913

> <Gold.Chemscore.ZeroCoef>
-5.4800

> <Gold.Chemscore.Hbond>
2.9594

> <Gold.Chemscore.Metal>
0.0000

> <Gold.Chemscore.Lipo>
82.6186

> <Gold.Chemscore.Internal_Hbond>
0.0000

> <Gold.Chemscore.DEClash>
0.3639

> <Gold.Chemscore.DEInternal>
0.9172

> <Gold.Chemscore.Rot>
1.9686

> <Gold.Chemscore.Internal.Correction>
   9.000000E+99

> <Gold.Chemscore.Hbonds>
donor molecule, donor type, donor heavy atom, donor atom, acceptor molecule, acceptor atom, score
      L1  H     1    17       P1  7957  0.68
      L1  H     4    21       P1  7948  1.00
      L1  H     4    35       P1  7957  0.95
      P1  H  7954  7966       L1     1  0.05

> <Gold.Chemscore.Hbond.Weighted>
-9.8845

> <Gold.Chemscore.Metal.Weighted>
-0.0000

> <Gold.Chemscore.Lipo.Weighted>
-9.6664

> <Gold.Chemscore.Internal_Hbond.Weighted>
0.0000

> <Gold.Chemscore.DEClash.Weighted>
0.3639

> <Gold.Chemscore.DEInternal.Weighted>
0.9172

> <Gold.Chemscore.Rot.Weighted>
5.0396

> <Gold.Chemscore.Internal.Correction.Weighted>
   9.000000E+99

> <Gold.Protein.RotatedTorsions>
[ 6907 6896 6895 6894 ] final  -87.84 input  -60.11 | X-H torsion
[ 7974 7965 7964 7962 ] final  109.00 input  175.53 | X-H torsion
[ 8008 7997 7996 7995 ] final  -74.04 input   59.86 | X-H torsion
[ 10167 10162 10161 10158 ] final  -49.23 input  -65.29 | X-H torsion
[ 10718 10713 10712 10709 ] final -177.81 input   66.30 | X-H torsion
[ 10763 10752 10751 10750 ] final  148.90 input  -60.55 | X-H torsion
[ 11005 11000 10999 10996 ] final -108.49 input  -57.11 | X-H torsion

> <Gold.Protein.ActiveResidues>
 VAL166  LYS551  ARG553  GLY616  TRP617  ASP618  TYR619  PRO620  LYS621  CYS622 
 ASP623  PHE694  ASN695  SER759  ASP760  ASP761  ALA762  ILE779  LEU786  VAL792 
 PHE793  MET794  SER795  GLU796  ALA797  LYS798  CYS799  TRP800  GLU811  SER814 

> <Gold.Protein.RotatedAtoms>
  150.6867  134.2833  159.4636 H   0  0  0  0  0  0  0  0  0  0  0  0  # atno 6907 bound_to 6896
  152.0745  134.9509  160.0583 H   0  0  0  0  0  0  0  0  0  0  0  0  # atno 6908 bound_to 6896
  152.0886  133.4154  159.4570 H   0  0  0  0  0  0  0  0  0  0  0  0  # atno 6909 bound_to 6896
  145.2734  139.2658  143.3954 H   0  0  0  0  0  0  0  0  0  0  0  0  # atno 7974 bound_to 7965
  154.5298  140.0768  156.8324 H   0  0  0  0  0  0  0  0  0  0  0  0  # atno 8008 bound_to 7997
  155.3400  140.3406  155.4221 H   0  0  0  0  0  0  0  0  0  0  0  0  # atno 8009 bound_to 7997
  156.1769  140.1639  156.8333 H   0  0  0  0  0  0  0  0  0  0  0  0  # atno 8010 bound_to 7997
  140.6694  143.2706  151.4186 H   0  0  0  0  0  0  0  0  0  0  0  0  # atno 10167 bound_to 10162
  156.8350  130.9666  151.3104 H   0  0  0  0  0  0  0  0  0  0  0  0  # atno 10718 bound_to 10713
  154.0623  135.2873  155.3323 H   0  0  0  0  0  0  0  0  0  0  0  0  # atno 10763 bound_to 10752
  154.6800  135.5267  153.8254 H   0  0  0  0  0  0  0  0  0  0  0  0  # atno 10764 bound_to 10752
  153.0518  135.6579  154.0810 H   0  0  0  0  0  0  0  0  0  0  0  0  # atno 10765 bound_to 10752
  141.0899  133.9074  157.2100 H   0  0  0  0  0  0  0  0  0  0  0  0  # atno 11005 bound_to 11000
  146.3239  140.3182  142.8631 LP  0  0  0  0  0  0  0  0  0  0  0  0  # atno 17320 bound_to 7965
  144.9315  140.7980  143.5686 LP  0  0  0  0  0  0  0  0  0  0  0  0  # atno 17321 bound_to 7965
  139.5956  144.1404  152.2140 LP  0  0  0  0  0  0  0  0  0  0  0  0  # atno 17342 bound_to 10162
  140.0772  144.5730  150.7148 LP  0  0  0  0  0  0  0  0  0  0  0  0  # atno 17343 bound_to 10162
  157.6386  130.8787  149.9406 LP  0  0  0  0  0  0  0  0  0  0  0  0  # atno 17370 bound_to 10713
  156.0912  130.3663  150.0390 LP  0  0  0  0  0  0  0  0  0  0  0  0  # atno 17371 bound_to 10713
  139.9723  135.0124  156.9542 LP  0  0  0  0  0  0  0  0  0  0  0  0  # atno 17394 bound_to 11000
  140.5277  134.0844  155.7308 LP  0  0  0  0  0  0  0  0  0  0  0  0  # atno 17395 bound_to 11000

$$$$
