AV-unprocessed.smi:2047|AV-procd|sdf|8318|dock4
  -GOLD-   2272010583D 1   1.00000     0.00000
 Structure written by MMmdl.
 43 45  0  0  0  0  0  0  0  0  2 V2000
  148.4065  137.4250  156.1911 O   0  0  0  0  0  0  0  0  0  0  0  0
  148.2467  137.1090  155.0126 C   0  0  0  0  0  0  0  0  0  0  0  0
  147.3117  136.2581  154.5571 N   0  0  0  0  0  0  0  0  0  0  0  0
  146.3058  135.5654  155.2915 C   0  0  0  0  0  0  0  0  0  0  0  0
  146.0558  135.8011  156.6683 C   0  0  0  0  0  0  0  0  0  0  0  0
  145.0291  135.0929  157.3237 C   0  0  0  0  0  0  0  0  0  0  0  0
  144.2600  134.1686  156.5935 C   0  0  0  0  0  0  0  0  0  0  0  0
  144.5116  133.9778  155.2817 N   0  3  0  0  0  0  0  0  0  0  0  0
  145.4872  134.6320  154.6047 C   0  0  0  0  0  0  0  0  0  0  0  0
  145.6697  134.3559  153.2385 N   0  0  0  0  0  0  0  0  0  0  0  0
  144.5359  134.6458  152.3763 C   0  0  0  0  0  0  0  0  0  0  0  0
  144.8278  133.9173  151.0621 C   0  0  0  0  0  0  0  0  0  0  0  0
  145.8282  132.8162  151.4354 C   0  0  0  0  0  0  0  0  0  0  0  0
  146.0651  132.9902  152.9380 C   0  0  0  0  0  0  0  0  0  0  0  0
  149.0106  137.5717  154.0131 N   0  0  0  0  0  0  0  0  0  0  0  0
  150.1117  138.5176  154.1705 C   0  0  1  0  0  0  0  0  0  0  0  0
  149.7022  139.7044  155.0622 C   0  0  0  0  0  0  0  0  0  0  0  0
  150.9674  140.4608  155.4847 C   0  0  0  0  0  0  0  0  0  0  0  0
  152.3003  139.2063  155.5849 S   0  0  0  0  0  0  0  0  0  0  0  0
  153.4003  139.6074  154.6952 O   0  0  0  0  0  0  0  0  0  0  0  0
  152.5511  138.8648  156.9933 O   0  0  0  0  0  0  0  0  0  0  0  0
  151.3444  137.8519  154.8037 C   0  0  0  0  0  0  0  0  0  0  0  0
  147.3620  136.0312  153.5746 H   0  0  0  0  0  0  0  0  0  0  0  0
  146.6222  136.5239  157.2348 H   0  0  0  0  0  0  0  0  0  0  0  0
  144.8318  135.2618  158.3725 H   0  0  0  0  0  0  0  0  0  0  0  0
  143.4537  133.5848  157.0134 H   0  0  0  0  0  0  0  0  0  0  0  0
  143.6106  134.2696  152.8143 H   0  0  0  0  0  0  0  0  0  0  0  0
  144.4247  135.7198  152.2232 H   0  0  0  0  0  0  0  0  0  0  0  0
  143.9177  133.5181  150.6136 H   0  0  0  0  0  0  0  0  0  0  0  0
  145.2805  134.6006  150.3424 H   0  0  0  0  0  0  0  0  0  0  0  0
  145.4530  131.8193  151.2027 H   0  0  0  0  0  0  0  0  0  0  0  0
  146.7591  132.9567  150.8846 H   0  0  0  0  0  0  0  0  0  0  0  0
  147.1085  132.8157  153.2028 H   0  0  0  0  0  0  0  0  0  0  0  0
  145.4522  132.2830  153.4987 H   0  0  0  0  0  0  0  0  0  0  0  0
  148.8164  137.2532  153.0748 H   0  0  0  0  0  0  0  0  0  0  0  0
  150.3941  138.9177  153.1946 H   0  0  0  0  0  0  0  0  0  0  0  0
  148.9921  140.3632  154.5611 H   0  0  0  0  0  0  0  0  0  0  0  0
  149.2079  139.3269  155.9587 H   0  0  0  0  0  0  0  0  0  0  0  0
  151.2513  141.1919  154.7272 H   0  0  0  0  0  0  0  0  0  0  0  0
  150.8589  140.9741  156.4402 H   0  0  0  0  0  0  0  0  0  0  0  0
  151.0570  137.1532  155.5902 H   0  0  0  0  0  0  0  0  0  0  0  0
  151.9644  137.3240  154.0786 H   0  0  0  0  0  0  0  0  0  0  0  0
  143.9367  133.3051  154.7740 H   0  0  0  0  0  0  0  0  0  0  0  0
  1  2  2  0  0  0  0
  2  3  1  0  0  0  0
  2 15  1  0  0  0  0
  3  4  1  0  0  0  0
  3 23  1  0  0  0  0
  4  9  1  0  0  0  0
  4  5  2  0  0  0  0
  5  6  1  0  0  0  0
  5 24  1  0  0  0  0
  6  7  2  0  0  0  0
  6 25  1  0  0  0  0
  7  8  1  0  0  0  0
  7 26  1  0  0  0  0
  8  9  2  0  0  0  0
  8 43  1  0  0  0  0
  9 10  1  0  0  0  0
 10 14  1  0  0  0  0
 10 11  1  0  0  0  0
 11 12  1  0  0  0  0
 11 27  1  0  0  0  0
 11 28  1  0  0  0  0
 12 13  1  0  0  0  0
 12 29  1  0  0  0  0
 12 30  1  0  0  0  0
 13 14  1  0  0  0  0
 13 31  1  0  0  0  0
 13 32  1  0  0  0  0
 14 33  1  0  0  0  0
 14 34  1  0  0  0  0
 15 16  1  0  0  0  0
 15 35  1  0  0  0  0
 16 22  1  0  0  0  0
 16 17  1  0  0  0  0
 16 36  1  0  0  0  0
 17 18  1  0  0  0  0
 17 37  1  0  0  0  0
 17 38  1  0  0  0  0
 18 19  1  0  0  0  0
 18 39  1  0  0  0  0
 18 40  1  0  0  0  0
 19 20  2  0  0  0  0
 19 21  2  0  0  0  0
 19 22  1  0  0  0  0
 22 41  1  0  0  0  0
 22 42  1  0  0  0  0
M  CHG  1   8   1
M  END
> <s_m_source_file>
AV-unprocessed.smi

> <i_m_source_file_index>
2047

> <i_lp_mmshare_version>
43012

> <i_f3d_flags>
0

> <s_epik_input>
Tz1TMSg9TylbQ0gyXVtDSDJdW0NASF0oW0NIMl0xKVtOSF1DKD1PKVtOSF1jMltjSF1bY0hdW2NIXW5jMk4zW0NIMl1bQ0gyXVtDSDJdW0NIMl0z

> <s_epik_cmdline>
J2VwaWtfcHl0aG9uJywgJy1waCcsICc3LjAnLCAnLXRuJywgJzgnLCAnLW1hJywgJzIwMCcsICctbWV0YWxfYmluZGluZycsICctaW1hZScsICc8aW5maWxlLm1hZT4nLCAnLW9tYWUnLCAnPG91dGZpbGUubWFlPic=

> <r_lp_tautomer_probability>
0.999994

> <r_epik_Ionization_Penalty>
1.20225

> <r_epik_Ionization_Penalty_Charging>
1.20223

> <r_epik_Ionization_Penalty_Neutral>
2.10783e-05

> <r_epik_State_Penalty>
1.26794

> <r_epik_Charging_Adjusted_Penalty>
2.47017

> <i_epik_Tot_Q>
1

> <i_epik_Tot_abs_Q>
1

> <r_epik_Metal_State_Penalty>
1.34322

> <b_epik_Metal_Only>
0

> <s_lp_Force_Field>
OPLS_2005

> <r_lp_Energy>
42.594

> <b_lp_Chiralities_Consistent>
1

> <s_lp_Variant>
AV-unprocessed.smi:2047-4

> <Gold.Version>
5.8.1

> <Gold.Id.Protein>
6NUR|6NUR_protein|mol2

> <Gold.PLP.Fitness>
38.2072

> <Gold.PLP.PLP>
-26.1295

> <Gold.PLP.part.hbond>
-4.8978

> <Gold.PLP.part.metal>
0.0000

> <Gold.PLP.part.buried>
-2.9526

> <Gold.PLP.part.nonpolar>
-19.1206

> <Gold.PLP.part.repulsive>
0.1384

> <Gold.PLP.ligand.clash>
0.0000

> <Gold.PLP.ligand.torsion>
0.1810

> <Gold.PLP.Chemscore.Hbond>
4.1395

> <Gold.PLP.Chemscore.CHOScore>
0.0000

> <Gold.PLP.Chemscore.Metal>
0.0000

> <Gold.Chemscore.Hbonds>
donor molecule, donor type, donor heavy atom, donor atom, acceptor molecule, acceptor atom, score
      L1  H     3    23       P1  7948  0.16
      L1  H     8    43       P1 10957  1.98
      L1  H    15    35       P1  7948  1.00
      P1  H  7997  8010       L1    20  1.00

> <Gold.PLP.Chemscore.Internal.Correction>
0.0211

> <Gold.Rescore>
     Score         DG    S(hbond)    S(metal)    S(lipo)     H(rot)  DE(clash)    DE(int)     intcor
     15.61     -18.32       3.01        0.00      51.35       1.26       0.08       2.64       ----

> <Gold.Chemscore.Fitness>
15.6055

> <Gold.Chemscore.DG>
-18.3192

> <Gold.Chemscore.ZeroCoef>
-5.4800

> <Gold.Chemscore.Hbond>
3.0104

> <Gold.Chemscore.Metal>
0.0000

> <Gold.Chemscore.Lipo>
51.3468

> <Gold.Chemscore.Internal_Hbond>
0.0000

> <Gold.Chemscore.DEClash>
0.0761

> <Gold.Chemscore.DEInternal>
2.6376

> <Gold.Chemscore.Rot>
1.2590

> <Gold.Chemscore.Internal.Correction>
   9.000000E+99

> <Gold.Chemscore.Hbonds>
donor molecule, donor type, donor heavy atom, donor atom, acceptor molecule, acceptor atom, score
      L1  H     3    23       P1  7948  0.17
      L1  H     8    43       P1 10957  0.90
      L1  H    15    35       P1  7948  0.94
      P1  H  7997  8010       L1    20  0.50

> <Gold.Chemscore.Hbond.Weighted>
-10.0547

> <Gold.Chemscore.Metal.Weighted>
-0.0000

> <Gold.Chemscore.Lipo.Weighted>
-6.0076

> <Gold.Chemscore.Internal_Hbond.Weighted>
0.0000

> <Gold.Chemscore.DEClash.Weighted>
0.0761

> <Gold.Chemscore.DEInternal.Weighted>
2.6376

> <Gold.Chemscore.Rot.Weighted>
3.2231

> <Gold.Chemscore.Internal.Correction.Weighted>
   9.000000E+99

> <Gold.Protein.RotatedTorsions>
[ 6907 6896 6895 6894 ] final  177.16 input  -60.11 | X-H torsion
[ 7974 7965 7964 7962 ] final -139.03 input  175.53 | X-H torsion
[ 8008 7997 7996 7995 ] final  116.75 input   59.86 | X-H torsion
[ 10167 10162 10161 10158 ] final   46.27 input  -65.29 | X-H torsion
[ 10718 10713 10712 10709 ] final  -52.84 input   66.30 | X-H torsion
[ 10763 10752 10751 10750 ] final  -63.06 input  -60.55 | X-H torsion
[ 11005 11000 10999 10996 ] final  -97.85 input  -57.11 | X-H torsion

> <Gold.Protein.ActiveResidues>
 VAL166  LYS551  ARG553  GLY616  TRP617  ASP618  TYR619  PRO620  LYS621  CYS622 
 ASP623  PHE694  ASN695  SER759  ASP760  ASP761  ALA762  ILE779  LEU786  VAL792 
 PHE793  MET794  SER795  GLU796  ALA797  LYS798  CYS799  TRP800  GLU811  SER814 

> <Gold.Protein.RotatedAtoms>
  151.7085  133.3312  159.3284 H   0  0  0  0  0  0  0  0  0  0  0  0  # atno 6907 bound_to 6896
  150.7704  134.6553  159.6320 H   0  0  0  0  0  0  0  0  0  0  0  0  # atno 6908 bound_to 6896
  152.3726  134.6714  160.0222 H   0  0  0  0  0  0  0  0  0  0  0  0  # atno 6909 bound_to 6896
  144.8710  140.6366  143.5267 H   0  0  0  0  0  0  0  0  0  0  0  0  # atno 7974 bound_to 7965
  156.2457  140.2911  156.0572 H   0  0  0  0  0  0  0  0  0  0  0  0  # atno 8008 bound_to 7997
  155.1816  140.0404  157.2900 H   0  0  0  0  0  0  0  0  0  0  0  0  # atno 8009 bound_to 7997
  154.6256  140.2486  155.7503 H   0  0  0  0  0  0  0  0  0  0  0  0  # atno 8010 bound_to 7997
  140.3157  144.2767  150.6191 H   0  0  0  0  0  0  0  0  0  0  0  0  # atno 10167 bound_to 10162
  156.1587  130.4150  149.9828 H   0  0  0  0  0  0  0  0  0  0  0  0  # atno 10718 bound_to 10713
  154.3093  135.6219  153.5458 H   0  0  0  0  0  0  0  0  0  0  0  0  # atno 10763 bound_to 10752
  152.9831  135.5697  154.5196 H   0  0  0  0  0  0  0  0  0  0  0  0  # atno 10764 bound_to 10752
  154.4842  135.2864  155.1523 H   0  0  0  0  0  0  0  0  0  0  0  0  # atno 10765 bound_to 10752
  141.1365  133.8201  157.0761 H   0  0  0  0  0  0  0  0  0  0  0  0  # atno 11005 bound_to 11000
  145.4131  139.1576  143.4115 LP  0  0  0  0  0  0  0  0  0  0  0  0  # atno 17320 bound_to 7965
  146.2930  140.4236  142.8732 LP  0  0  0  0  0  0  0  0  0  0  0  0  # atno 17321 bound_to 7965
  140.5529  143.2203  151.7897 LP  0  0  0  0  0  0  0  0  0  0  0  0  # atno 17342 bound_to 10162
  139.4884  144.4453  151.9718 LP  0  0  0  0  0  0  0  0  0  0  0  0  # atno 17343 bound_to 10162
  156.7664  130.9170  151.3643 LP  0  0  0  0  0  0  0  0  0  0  0  0  # atno 17370 bound_to 10713
  157.6715  130.9055  150.0051 LP  0  0  0  0  0  0  0  0  0  0  0  0  # atno 17371 bound_to 10713
  140.0481  134.9820  157.1085 LP  0  0  0  0  0  0  0  0  0  0  0  0  # atno 17394 bound_to 11000
  140.4032  134.2060  155.7163 LP  0  0  0  0  0  0  0  0  0  0  0  0  # atno 17395 bound_to 11000

$$$$
