AV-unprocessed.smi:3041|AV-procd|sdf|11598|dock4
  -GOLD-   2272016573D 1   1.00000     0.00000
 Structure written by MMmdl.
 38 39  0  0  0  0  0  0  0  0  1 V2000
  150.7844  141.2731  156.3460 C   0  0  0  0  0  0  0  0  0  0  0  0
  150.6740  140.0064  155.6552 N   0  0  0  0  0  0  0  0  0  0  0  0
  151.0135  138.7490  156.1052 C   0  0  0  0  0  0  0  0  0  0  0  0
  150.7274  137.8642  155.1038 C   0  0  0  0  0  0  0  0  0  0  0  0
  150.8955  136.3679  155.0909 C   0  0  0  0  0  0  0  0  0  0  0  0
  149.6021  135.6143  155.4521 C   0  0  0  0  0  0  0  0  0  0  0  0
  148.8625  135.1850  154.2675 N   0  0  0  0  0  0  0  0  0  0  0  0
  148.1982  134.0268  154.1422 C   0  0  0  0  0  0  0  0  0  0  0  0
  148.1189  133.1773  155.0296 O   0  0  0  0  0  0  0  0  0  0  0  0
  147.6391  133.9068  152.9303 N   0  0  0  0  0  0  0  0  0  0  0  0
  146.8427  132.7724  152.4741 C   0  0  0  0  0  0  0  0  0  0  0  0
  146.1195  133.1030  151.1581 C   0  0  1  0  0  0  0  0  0  0  0  0
  145.1946  132.0151  150.6475 C   0  0  0  0  0  0  0  0  0  0  0  0
  144.3038  132.7882  149.6796 C   0  0  0  0  0  0  0  0  0  0  0  0
  144.2212  134.1131  150.1975 O   0  0  0  0  0  0  0  0  0  0  0  0
  145.1544  134.2832  151.2602 C   0  0  0  0  0  0  0  0  0  0  0  0
  150.2142  138.6942  154.0665 C   0  0  0  0  0  0  0  0  0  0  0  0
  150.1849  139.9743  154.3988 N   0  0  0  0  0  0  0  0  0  0  0  0
  150.9977  141.1053  157.4021 H   0  0  0  0  0  0  0  0  0  0  0  0
  149.8494  141.8277  156.2588 H   0  0  0  0  0  0  0  0  0  0  0  0
  151.5922  141.8606  155.9089 H   0  0  0  0  0  0  0  0  0  0  0  0
  151.4196  138.5875  157.0928 H   0  0  0  0  0  0  0  0  0  0  0  0
  151.2298  136.0353  154.1079 H   0  0  0  0  0  0  0  0  0  0  0  0
  151.6842  136.0677  155.7819 H   0  0  0  0  0  0  0  0  0  0  0  0
  149.8306  134.7638  156.0968 H   0  0  0  0  0  0  0  0  0  0  0  0
  148.9520  136.2677  156.0343 H   0  0  0  0  0  0  0  0  0  0  0  0
  148.8660  135.8158  153.4795 H   0  0  0  0  0  0  0  0  0  0  0  0
  147.7685  134.6618  152.2729 H   0  0  0  0  0  0  0  0  0  0  0  0
  147.5074  131.9184  152.3388 H   0  0  0  0  0  0  0  0  0  0  0  0
  146.1065  132.4769  153.2234 H   0  0  0  0  0  0  0  0  0  0  0  0
  146.8572  133.3271  150.3854 H   0  0  0  0  0  0  0  0  0  0  0  0
  145.7221  131.1893  150.1690 H   0  0  0  0  0  0  0  0  0  0  0  0
  144.5946  131.6107  151.4642 H   0  0  0  0  0  0  0  0  0  0  0  0
  144.7629  132.8308  148.6911 H   0  0  0  0  0  0  0  0  0  0  0  0
  143.3163  132.3387  149.5751 H   0  0  0  0  0  0  0  0  0  0  0  0
  144.6078  134.2562  152.2039 H   0  0  0  0  0  0  0  0  0  0  0  0
  145.6633  135.2450  151.1927 H   0  0  0  0  0  0  0  0  0  0  0  0
  149.8593  138.4039  153.0887 H   0  0  0  0  0  0  0  0  0  0  0  0
  1  2  1  0  0  0  0
  1 19  1  0  0  0  0
  1 20  1  0  0  0  0
  1 21  1  0  0  0  0
  2 18  1  0  0  0  0
  2  3  1  0  0  0  0
  3  4  2  0  0  0  0
  3 22  1  0  0  0  0
  4  5  1  0  0  0  0
  4 17  1  0  0  0  0
  5  6  1  0  0  0  0
  5 23  1  0  0  0  0
  5 24  1  0  0  0  0
  6  7  1  0  0  0  0
  6 25  1  0  0  0  0
  6 26  1  0  0  0  0
  7  8  1  0  0  0  0
  7 27  1  0  0  0  0
  8  9  2  0  0  0  0
  8 10  1  0  0  0  0
 10 11  1  0  0  0  0
 10 28  1  0  0  0  0
 11 12  1  0  0  0  0
 11 29  1  0  0  0  0
 11 30  1  0  0  0  0
 12 16  1  0  0  0  0
 12 13  1  0  0  0  0
 12 31  1  0  0  0  0
 13 14  1  0  0  0  0
 13 32  1  0  0  0  0
 13 33  1  0  0  0  0
 14 15  1  0  0  0  0
 14 34  1  0  0  0  0
 14 35  1  0  0  0  0
 15 16  1  0  0  0  0
 16 36  1  0  0  0  0
 16 37  1  0  0  0  0
 17 18  2  0  0  0  0
 17 38  1  0  0  0  0
M  END
> <s_m_source_file>
AV-unprocessed.smi

> <i_m_source_file_index>
3041

> <i_lp_mmshare_version>
43012

> <i_f3d_flags>
0

> <s_epik_input>
W0NIM11uMVtjSF1jKFtjSF1uMSlbQ0gyXVtDSDJdW05IXUMoPU8pW05IXVtDSDJdW0NAQEhdMltDSDJdW0NIMl1PW0NIMl0y

> <s_epik_cmdline>
J2VwaWtfcHl0aG9uJywgJy1waCcsICc3LjAnLCAnLXRuJywgJzgnLCAnLW1hJywgJzIwMCcsICctbWV0YWxfYmluZGluZycsICctaW1hZScsICc8aW5maWxlLm1hZT4nLCAnLW9tYWUnLCAnPG91dGZpbGUubWFlPic=

> <r_lp_tautomer_probability>
1

> <r_epik_Ionization_Penalty>
0.000557811

> <r_epik_Ionization_Penalty_Charging>
0

> <r_epik_Ionization_Penalty_Neutral>
0.000557811

> <r_epik_State_Penalty>
-0

> <r_epik_Charging_Adjusted_Penalty>
0

> <i_epik_Tot_Q>
0

> <i_epik_Tot_abs_Q>
0

> <r_epik_Metal_State_Penalty>
-0

> <b_epik_Metal_Only>
0

> <s_lp_Force_Field>
OPLS_2005

> <r_lp_Energy>
14.3495

> <b_lp_Chiralities_Consistent>
1

> <s_lp_Variant>
AV-unprocessed.smi:3041-2

> <Gold.Version>
5.8.1

> <Gold.Id.Protein>
6NUR|6NUR_protein|mol2

> <Gold.PLP.Fitness>
44.0491

> <Gold.PLP.PLP>
-31.7230

> <Gold.PLP.part.hbond>
-3.0000

> <Gold.PLP.part.metal>
0.0000

> <Gold.PLP.part.buried>
-3.9351

> <Gold.PLP.part.nonpolar>
-25.3414

> <Gold.PLP.part.repulsive>
0.3738

> <Gold.PLP.ligand.clash>
0.0000

> <Gold.PLP.ligand.torsion>
0.8120

> <Gold.PLP.Chemscore.Hbond>
2.8800

> <Gold.PLP.Chemscore.CHOScore>
1.7661

> <Gold.PLP.Chemscore.Metal>
0.0000

> <Gold.Chemscore.Hbonds>
donor molecule, donor type, donor heavy atom, donor atom, acceptor molecule, acceptor atom, score
      L1  H     7    27       P1  7948  1.00
      L1  H    10    28       P1  7948  0.86
      P1  H  7989  7998       L1    18  0.95
      L1  C    17    38       P1  7948  0.81
      L1  C    17    38       P1  7957  0.88

> <Gold.PLP.Chemscore.Internal.Correction>
0.0116

> <Gold.Rescore>
     Score         DG    S(hbond)    S(metal)    S(lipo)     H(rot)  DE(clash)    DE(int)     intcor
     16.77     -17.77       2.72        0.00      68.02       1.85       0.13       0.86       ----

> <Gold.Chemscore.Fitness>
16.7731

> <Gold.Chemscore.DG>
-17.7658

> <Gold.Chemscore.ZeroCoef>
-5.4800

> <Gold.Chemscore.Hbond>
2.7158

> <Gold.Chemscore.Metal>
0.0000

> <Gold.Chemscore.Lipo>
68.0199

> <Gold.Chemscore.Internal_Hbond>
0.0000

> <Gold.Chemscore.DEClash>
0.1327

> <Gold.Chemscore.DEInternal>
0.8599

> <Gold.Chemscore.Rot>
1.8528

> <Gold.Chemscore.Internal.Correction>
   9.000000E+99

> <Gold.Chemscore.Hbonds>
donor molecule, donor type, donor heavy atom, donor atom, acceptor molecule, acceptor atom, score
      L1  H     7    27       P1  7948  0.93
      L1  H    10    28       P1  7948  0.54
      P1  H  7989  7998       L1    18  0.14

> <Gold.Chemscore.Hbond.Weighted>
-9.0707

> <Gold.Chemscore.Metal.Weighted>
-0.0000

> <Gold.Chemscore.Lipo.Weighted>
-7.9583

> <Gold.Chemscore.Internal_Hbond.Weighted>
0.0000

> <Gold.Chemscore.DEClash.Weighted>
0.1327

> <Gold.Chemscore.DEInternal.Weighted>
0.8599

> <Gold.Chemscore.Rot.Weighted>
4.7433

> <Gold.Chemscore.Internal.Correction.Weighted>
   9.000000E+99

> <Gold.Protein.RotatedTorsions>
[ 6907 6896 6895 6894 ] final  156.87 input  -60.11 | X-H torsion
[ 7974 7965 7964 7962 ] final  -73.17 input  175.53 | X-H torsion
[ 8008 7997 7996 7995 ] final  -15.12 input   59.86 | X-H torsion
[ 10167 10162 10161 10158 ] final   13.31 input  -65.29 | X-H torsion
[ 10718 10713 10712 10709 ] final  -17.13 input   66.30 | X-H torsion
[ 10763 10752 10751 10750 ] final   -6.45 input  -60.55 | X-H torsion
[ 11005 11000 10999 10996 ] final   94.72 input  -57.11 | X-H torsion

> <Gold.Protein.ActiveResidues>
 VAL166  LYS551  ARG553  GLY616  TRP617  ASP618  TYR619  PRO620  LYS621  CYS622 
 ASP623  PHE694  ASN695  SER759  ASP760  ASP761  ALA762  ILE779  LEU786  VAL792 
 PHE793  MET794  SER795  GLU796  ALA797  LYS798  CYS799  TRP800  GLU811  SER814 

> <Gold.Protein.RotatedAtoms>
  152.0234  133.3908  159.4267 H   0  0  0  0  0  0  0  0  0  0  0  0  # atno 6907 bound_to 6896
  150.6888  134.3601  159.4956 H   0  0  0  0  0  0  0  0  0  0  0  0  # atno 6908 bound_to 6896
  152.1377  134.9086  160.0606 H   0  0  0  0  0  0  0  0  0  0  0  0  # atno 6909 bound_to 6896
  145.6556  140.9269  143.0961 H   0  0  0  0  0  0  0  0  0  0  0  0  # atno 7974 bound_to 7965
  154.5155  140.2205  155.9073 H   0  0  0  0  0  0  0  0  0  0  0  0  # atno 8008 bound_to 7997
  156.1603  140.3143  155.8761 H   0  0  0  0  0  0  0  0  0  0  0  0  # atno 8009 bound_to 7997
  155.3765  140.0470  157.3035 H   0  0  0  0  0  0  0  0  0  0  0  0  # atno 8010 bound_to 7997
  140.6010  143.8603  150.6966 H   0  0  0  0  0  0  0  0  0  0  0  0  # atno 10167 bound_to 10162
  156.5779  130.4766  149.6333 H   0  0  0  0  0  0  0  0  0  0  0  0  # atno 10718 bound_to 10713
  153.4125  135.7008  153.6349 H   0  0  0  0  0  0  0  0  0  0  0  0  # atno 10763 bound_to 10752
  153.4837  135.3688  155.2456 H   0  0  0  0  0  0  0  0  0  0  0  0  # atno 10764 bound_to 10752
  154.8718  135.4072  154.3480 H   0  0  0  0  0  0  0  0  0  0  0  0  # atno 10765 bound_to 10752
  139.8796  134.8860  156.3905 H   0  0  0  0  0  0  0  0  0  0  0  0  # atno 11005 bound_to 11000
  144.7107  139.8383  143.7415 LP  0  0  0  0  0  0  0  0  0  0  0  0  # atno 17320 bound_to 7965
  146.1167  139.4179  143.0254 LP  0  0  0  0  0  0  0  0  0  0  0  0  # atno 17321 bound_to 7965
  140.2149  143.3854  152.1689 LP  0  0  0  0  0  0  0  0  0  0  0  0  # atno 17342 bound_to 10162
  139.5291  144.7138  151.5119 LP  0  0  0  0  0  0  0  0  0  0  0  0  # atno 17343 bound_to 10162
  156.2657  130.6988  151.1771 LP  0  0  0  0  0  0  0  0  0  0  0  0  # atno 17370 bound_to 10713
  157.7333  131.0592  150.5582 LP  0  0  0  0  0  0  0  0  0  0  0  0  # atno 17371 bound_to 10713
  140.9336  133.7562  156.0056 LP  0  0  0  0  0  0  0  0  0  0  0  0  # atno 17394 bound_to 11000
  140.8302  134.3188  157.5351 LP  0  0  0  0  0  0  0  0  0  0  0  0  # atno 17395 bound_to 11000

$$$$
