AV-unprocessed.smi:2823|AV-procd|sdf|10885|dock5
  -GOLD-   2272015323D 1   1.00000     0.00000
 Structure written by MMmdl.
 41 42  0  0  0  0  0  0  0  0  2 V2000
  144.3770  134.6905  162.5803 C   0  0  0  0  0  0  0  0  0  0  0  0
  145.5957  135.0907  161.8212 C   0  0  0  0  0  0  0  0  0  0  0  0
  146.4699  134.1898  161.3980 N   0  0  0  0  0  0  0  0  0  0  0  0
  147.4353  134.9675  160.7435 O   0  0  0  0  0  0  0  0  0  0  0  0
  147.0328  136.2604  160.8521 C   0  0  0  0  0  0  0  0  0  0  0  0
  147.7495  137.2627  160.3174 N   0  5  0  0  0  0  0  0  0  0  0  0
  148.5592  137.0221  159.2617 C   0  0  0  0  0  0  0  0  0  0  0  0
  149.0478  135.9337  158.9520 O   0  0  0  0  0  0  0  0  0  0  0  0
  148.8119  138.1094  158.5180 N   0  0  0  0  0  0  0  0  0  0  0  0
  149.6293  138.1724  157.3046 C   0  0  0  0  0  0  0  0  0  0  0  0
  150.5210  139.4515  157.2374 C   0  0  0  0  0  0  0  0  0  0  0  0
  151.8189  139.2340  156.3877 C   0  0  0  0  0  0  0  0  0  0  0  0
  152.9069  139.4659  156.9213 O   0  0  0  0  0  0  0  0  0  0  0  0
  151.7789  138.8232  155.0906 N   0  0  0  0  0  0  0  0  0  0  0  0
  153.0236  138.7569  154.3182 C   0  0  0  0  0  0  0  0  0  0  0  0
  150.6072  138.4209  154.3058 C   0  0  0  0  0  0  0  0  0  0  0  0
  149.6569  140.6070  156.6575 C   0  0  0  0  0  0  0  0  0  0  0  0
  150.2645  141.9245  157.1506 C   0  0  0  0  0  0  0  0  0  0  0  0
  151.0233  141.5700  158.4307 C   0  0  0  0  0  0  0  0  0  0  0  0
  150.8556  140.0564  158.6240 C   0  0  0  0  0  0  0  0  0  0  0  0
  145.8796  136.3837  161.5109 N   0  0  0  0  0  0  0  0  0  0  0  0
  144.5624  133.7828  163.1558 H   0  0  0  0  0  0  0  0  0  0  0  0
  143.5519  134.5043  161.8928 H   0  0  0  0  0  0  0  0  0  0  0  0
  144.0818  135.4805  163.2713 H   0  0  0  0  0  0  0  0  0  0  0  0
  148.3851  138.9740  158.8167 H   0  0  0  0  0  0  0  0  0  0  0  0
  150.2678  137.2886  157.3184 H   0  0  0  0  0  0  0  0  0  0  0  0
  149.0121  138.0353  156.4205 H   0  0  0  0  0  0  0  0  0  0  0  0
  153.7026  138.0168  154.7443 H   0  0  0  0  0  0  0  0  0  0  0  0
  153.5277  139.7248  154.3160 H   0  0  0  0  0  0  0  0  0  0  0  0
  152.8531  138.4843  153.2758 H   0  0  0  0  0  0  0  0  0  0  0  0
  149.6929  138.2706  154.8691 H   0  0  0  0  0  0  0  0  0  0  0  0
  150.8061  137.4772  153.7969 H   0  0  0  0  0  0  0  0  0  0  0  0
  150.3995  139.1687  153.5404 H   0  0  0  0  0  0  0  0  0  0  0  0
  149.5575  140.5826  155.5713 H   0  0  0  0  0  0  0  0  0  0  0  0
  148.6405  140.5390  157.0486 H   0  0  0  0  0  0  0  0  0  0  0  0
  150.9539  142.3280  156.4083 H   0  0  0  0  0  0  0  0  0  0  0  0
  149.4958  142.6779  157.3249 H   0  0  0  0  0  0  0  0  0  0  0  0
  152.0783  141.8212  158.3138 H   0  0  0  0  0  0  0  0  0  0  0  0
  150.6502  142.1234  159.2930 H   0  0  0  0  0  0  0  0  0  0  0  0
  150.0284  139.8741  159.3113 H   0  0  0  0  0  0  0  0  0  0  0  0
  151.7474  139.6520  159.0976 H   0  0  0  0  0  0  0  0  0  0  0  0
  1  2  1  0  0  0  0
  1 22  1  0  0  0  0
  1 23  1  0  0  0  0
  1 24  1  0  0  0  0
  2 21  1  0  0  0  0
  2  3  2  0  0  0  0
  3  4  1  0  0  0  0
  4  5  1  0  0  0  0
  5  6  1  0  0  0  0
  5 21  2  0  0  0  0
  6  7  1  0  0  0  0
  7  8  2  0  0  0  0
  7  9  1  0  0  0  0
  9 10  1  0  0  0  0
  9 25  1  0  0  0  0
 10 11  1  0  0  0  0
 10 26  1  0  0  0  0
 10 27  1  0  0  0  0
 11 20  1  0  0  0  0
 11 12  1  0  0  0  0
 11 17  1  0  0  0  0
 12 13  2  0  0  0  0
 12 14  1  0  0  0  0
 14 15  1  0  0  0  0
 14 16  1  0  0  0  0
 15 28  1  0  0  0  0
 15 29  1  0  0  0  0
 15 30  1  0  0  0  0
 16 31  1  0  0  0  0
 16 32  1  0  0  0  0
 16 33  1  0  0  0  0
 17 18  1  0  0  0  0
 17 34  1  0  0  0  0
 17 35  1  0  0  0  0
 18 19  1  0  0  0  0
 18 36  1  0  0  0  0
 18 37  1  0  0  0  0
 19 20  1  0  0  0  0
 19 38  1  0  0  0  0
 19 39  1  0  0  0  0
 20 40  1  0  0  0  0
 20 41  1  0  0  0  0
M  CHG  1   6  -1
M  END
> <s_m_source_file>
AV-unprocessed.smi

> <i_m_source_file_index>
2823

> <i_lp_mmshare_version>
43012

> <i_f3d_flags>
0

> <s_epik_input>
W0NIM11jMW5vYyhuMSlbTkhdQyg9TylbTkhdW0NIMl1DMihDKD1PKU4oW0NIM10pW0NIM10pW0NIMl1bQ0gyXVtDSDJdW0NIMl0y

> <s_epik_cmdline>
J2VwaWtfcHl0aG9uJywgJy1waCcsICc3LjAnLCAnLXRuJywgJzgnLCAnLW1hJywgJzIwMCcsICctbWV0YWxfYmluZGluZycsICctaW1hZScsICc8aW5maWxlLm1hZT4nLCAnLW9tYWUnLCAnPG91dGZpbGUubWFlPic=

> <r_lp_tautomer_probability>
1

> <r_epik_Ionization_Penalty>
6.03325

> <r_epik_Ionization_Penalty_Charging>
6.03318

> <r_epik_Ionization_Penalty_Neutral>
6.91426e-05

> <r_epik_State_Penalty>
6.03316

> <r_epik_Charging_Adjusted_Penalty>
12.0663

> <i_epik_Tot_Q>
-1

> <i_epik_Tot_abs_Q>
1

> <r_epik_Metal_State_Penalty>
1.98358

> <b_epik_Metal_Only>
1

> <s_lp_Force_Field>
OPLS_2005

> <r_lp_Energy>
29.6758

> <b_lp_Chiralities_Consistent>
1

> <s_lp_Variant>
AV-unprocessed.smi:2823-2

> <Gold.Version>
5.8.1

> <Gold.Id.Protein>
6NUR|6NUR_protein|mol2

> <Gold.PLP.Fitness>
46.1246

> <Gold.PLP.PLP>
-32.7579

> <Gold.PLP.part.hbond>
-3.9617

> <Gold.PLP.part.metal>
0.0000

> <Gold.PLP.part.buried>
-6.3300

> <Gold.PLP.part.nonpolar>
-22.8403

> <Gold.PLP.part.repulsive>
0.1880

> <Gold.PLP.ligand.clash>
0.0000

> <Gold.PLP.ligand.torsion>
1.0064

> <Gold.PLP.Chemscore.Hbond>
5.0586

> <Gold.PLP.Chemscore.CHOScore>
0.0000

> <Gold.PLP.Chemscore.Metal>
0.0000

> <Gold.Chemscore.Hbonds>
donor molecule, donor type, donor heavy atom, donor atom, acceptor molecule, acceptor atom, score
      P1  H  6896  6907       L1     8  0.55
      P1  H  6931  6943       L1     6  0.57
      P1  H  6934  6947       L1     6  1.73
      P1  H  7997  8009       L1    13  1.00

> <Gold.PLP.Chemscore.Internal.Correction>
0.2039

> <Gold.Rescore>
     Score         DG    S(hbond)    S(metal)    S(lipo)     H(rot)  DE(clash)    DE(int)     intcor
     14.52     -17.17       3.06        0.00      50.25       1.71       0.00       2.65       ----

> <Gold.Chemscore.Fitness>
14.5234

> <Gold.Chemscore.DG>
-17.1731

> <Gold.Chemscore.ZeroCoef>
-5.4800

> <Gold.Chemscore.Hbond>
3.0550

> <Gold.Chemscore.Metal>
0.0000

> <Gold.Chemscore.Lipo>
50.2516

> <Gold.Chemscore.Internal_Hbond>
0.0000

> <Gold.Chemscore.DEClash>
0.0019

> <Gold.Chemscore.DEInternal>
2.6479

> <Gold.Chemscore.Rot>
1.7149

> <Gold.Chemscore.Internal.Correction>
   9.000000E+99

> <Gold.Chemscore.Hbonds>
donor molecule, donor type, donor heavy atom, donor atom, acceptor molecule, acceptor atom, score
      P1  H  6896  6907       L1     8  0.56
      P1  H  6931  6943       L1     6  0.13
      P1  H  6934  6947       L1     6  0.74
      P1  H  7997  8009       L1    13  0.99

> <Gold.Chemscore.Hbond.Weighted>
-10.2038

> <Gold.Chemscore.Metal.Weighted>
-0.0000

> <Gold.Chemscore.Lipo.Weighted>
-5.8794

> <Gold.Chemscore.Internal_Hbond.Weighted>
0.0000

> <Gold.Chemscore.DEClash.Weighted>
0.0019

> <Gold.Chemscore.DEInternal.Weighted>
2.6479

> <Gold.Chemscore.Rot.Weighted>
4.3901

> <Gold.Chemscore.Internal.Correction.Weighted>
   9.000000E+99

> <Gold.Protein.RotatedTorsions>
[ 6907 6896 6895 6894 ] final  -49.57 input  -60.11 | X-H torsion
[ 7974 7965 7964 7962 ] final  -58.98 input  175.53 | X-H torsion
[ 8008 7997 7996 7995 ] final -170.27 input   59.86 | X-H torsion
[ 10167 10162 10161 10158 ] final   91.86 input  -65.29 | X-H torsion
[ 10718 10713 10712 10709 ] final -101.01 input   66.30 | X-H torsion
[ 10763 10752 10751 10750 ] final -126.00 input  -60.55 | X-H torsion
[ 11005 11000 10999 10996 ] final  116.66 input  -57.11 | X-H torsion

> <Gold.Protein.ActiveResidues>
 VAL166  LYS551  ARG553  GLY616  TRP617  ASP618  TYR619  PRO620  LYS621  CYS622 
 ASP623  PHE694  ASN695  SER759  ASP760  ASP761  ALA762  ILE779  LEU786  VAL792 
 PHE793  MET794  SER795  GLU796  ALA797  LYS798  CYS799  TRP800  GLU811  SER814 

> <Gold.Protein.RotatedAtoms>
  150.8792  134.8180  159.7212 H   0  0  0  0  0  0  0  0  0  0  0  0  # atno 6907 bound_to 6896
  152.4767  134.4823  159.9679 H   0  0  0  0  0  0  0  0  0  0  0  0  # atno 6908 bound_to 6896
  151.4900  133.3488  159.2887 H   0  0  0  0  0  0  0  0  0  0  0  0  # atno 6909 bound_to 6896
  145.8328  140.8468  143.0074 H   0  0  0  0  0  0  0  0  0  0  0  0  # atno 7974 bound_to 7965
  155.9161  140.1066  157.1242 H   0  0  0  0  0  0  0  0  0  0  0  0  # atno 8008 bound_to 7997
  154.4047  140.1265  156.4685 H   0  0  0  0  0  0  0  0  0  0  0  0  # atno 8009 bound_to 7997
  155.7252  140.3469  155.5036 H   0  0  0  0  0  0  0  0  0  0  0  0  # atno 8010 bound_to 7997
  139.8333  144.6676  150.9372 H   0  0  0  0  0  0  0  0  0  0  0  0  # atno 10167 bound_to 10162
  156.0181  130.5353  150.6900 H   0  0  0  0  0  0  0  0  0  0  0  0  # atno 10718 bound_to 10713
  154.8741  135.4010  154.3359 H   0  0  0  0  0  0  0  0  0  0  0  0  # atno 10763 bound_to 10752
  153.4166  135.7022  153.6328 H   0  0  0  0  0  0  0  0  0  0  0  0  # atno 10764 bound_to 10752
  153.5008  135.3728  155.2509 H   0  0  0  0  0  0  0  0  0  0  0  0  # atno 10765 bound_to 10752
  139.9049  134.9601  156.7233 H   0  0  0  0  0  0  0  0  0  0  0  0  # atno 11005 bound_to 11000
  144.6738  140.0698  143.7473 LP  0  0  0  0  0  0  0  0  0  0  0  0  # atno 17320 bound_to 7965
  145.9551  139.2761  143.1189 LP  0  0  0  0  0  0  0  0  0  0  0  0  # atno 17321 bound_to 7965
  140.7805  143.3980  151.1197 LP  0  0  0  0  0  0  0  0  0  0  0  0  # atno 17342 bound_to 10162
  139.7632  143.8604  152.3105 LP  0  0  0  0  0  0  0  0  0  0  0  0  # atno 17343 bound_to 10162
  157.4584  131.0880  151.0772 LP  0  0  0  0  0  0  0  0  0  0  0  0  # atno 17370 bound_to 10713
  157.1267  130.6085  149.5519 LP  0  0  0  0  0  0  0  0  0  0  0  0  # atno 17371 bound_to 10713
  140.6983  133.9328  155.8008 LP  0  0  0  0  0  0  0  0  0  0  0  0  # atno 17394 bound_to 11000
  141.0390  134.0648  157.3924 LP  0  0  0  0  0  0  0  0  0  0  0  0  # atno 17395 bound_to 11000

$$$$
