AV-unprocessed.smi:1328|AV-procd|sdf|5480|dock4
  -GOLD-   22720 5 53D 1   1.00000     0.00000
 Structure written by MMmdl.
 38 39  0  0  0  0  0  0  0  0  1 V2000
  153.5703  137.7906  156.6132 C   0  0  0  0  0  0  0  0  0  0  0  0
  152.3039  137.8253  155.8065 C   0  0  0  0  0  0  0  0  0  0  0  0
  151.8244  136.7026  155.2983 N   0  0  0  0  0  0  0  0  0  0  0  0
  150.6564  137.0585  154.6175 O   0  0  0  0  0  0  0  0  0  0  0  0
  150.4766  138.3979  154.7427 C   0  0  0  0  0  0  0  0  0  0  0  0
  149.2692  138.9733  154.0818 C   0  0  0  0  0  0  0  0  0  0  0  0
  151.4891  138.9477  155.4813 C   0  0  0  0  0  0  0  0  0  0  0  0
  151.6995  140.3883  155.8720 C   0  0  0  0  0  0  0  0  0  0  0  0
  151.4820  140.5434  157.3765 C   0  0  0  0  0  0  0  0  0  0  0  0
  150.4399  140.1441  157.8955 O   0  0  0  0  0  0  0  0  0  0  0  0
  152.4701  141.1427  158.0574 N   0  0  0  0  0  0  0  0  0  0  0  0
  152.4382  141.4985  159.4716 C   0  0  1  0  0  0  0  0  0  0  0  0
  153.5587  140.7572  160.2202 C   0  0  0  0  0  0  0  0  0  0  0  0
  152.5613  143.0289  159.5946 C   0  0  2  0  0  0  0  0  0  0  0  0
  152.2871  143.5878  160.9901 C   0  0  0  0  0  0  0  0  0  0  0  0
  151.8777  145.0264  160.7172 C   0  0  0  0  0  0  0  0  0  0  0  0
  151.4996  145.0324  159.2329 C   0  0  0  0  0  0  0  0  0  0  0  0
  151.5586  143.6732  158.8228 O   0  0  0  0  0  0  0  0  0  0  0  0
  153.5395  138.5173  157.4250 H   0  0  0  0  0  0  0  0  0  0  0  0
  154.4346  138.0237  155.9912 H   0  0  0  0  0  0  0  0  0  0  0  0
  153.7351  136.8092  157.0593 H   0  0  0  0  0  0  0  0  0  0  0  0
  148.8256  139.7585  154.6937 H   0  0  0  0  0  0  0  0  0  0  0  0
  148.5098  138.2083  153.9196 H   0  0  0  0  0  0  0  0  0  0  0  0
  149.5283  139.4043  153.1148 H   0  0  0  0  0  0  0  0  0  0  0  0
  152.7054  140.7261  155.6199 H   0  0  0  0  0  0  0  0  0  0  0  0
  151.0157  141.0507  155.3394 H   0  0  0  0  0  0  0  0  0  0  0  0
  153.2867  141.4327  157.5392 H   0  0  0  0  0  0  0  0  0  0  0  0
  151.4770  141.1977  159.8928 H   0  0  0  0  0  0  0  0  0  0  0  0
  153.5333  140.9746  161.2880 H   0  0  0  0  0  0  0  0  0  0  0  0
  154.5422  141.0421  159.8454 H   0  0  0  0  0  0  0  0  0  0  0  0
  153.4600  139.6770  160.1086 H   0  0  0  0  0  0  0  0  0  0  0  0
  153.5407  143.3638  159.2464 H   0  0  0  0  0  0  0  0  0  0  0  0
  151.4563  143.0537  161.4535 H   0  0  0  0  0  0  0  0  0  0  0  0
  153.1489  143.5124  161.6536 H   0  0  0  0  0  0  0  0  0  0  0  0
  151.0446  145.3272  161.3533 H   0  0  0  0  0  0  0  0  0  0  0  0
  152.7056  145.7123  160.9005 H   0  0  0  0  0  0  0  0  0  0  0  0
  150.5069  145.4472  159.0558 H   0  0  0  0  0  0  0  0  0  0  0  0
  152.2193  145.6141  158.6553 H   0  0  0  0  0  0  0  0  0  0  0  0
  1  2  1  0  0  0  0
  1 19  1  0  0  0  0
  1 20  1  0  0  0  0
  1 21  1  0  0  0  0
  2  7  1  0  0  0  0
  2  3  2  0  0  0  0
  3  4  1  0  0  0  0
  4  5  1  0  0  0  0
  5  6  1  0  0  0  0
  5  7  2  0  0  0  0
  6 22  1  0  0  0  0
  6 23  1  0  0  0  0
  6 24  1  0  0  0  0
  7  8  1  0  0  0  0
  8  9  1  0  0  0  0
  8 25  1  0  0  0  0
  8 26  1  0  0  0  0
  9 10  2  0  0  0  0
  9 11  1  0  0  0  0
 11 12  1  0  0  0  0
 11 27  1  0  0  0  0
 12 13  1  0  0  0  0
 12 14  1  0  0  0  0
 12 28  1  0  0  0  0
 13 29  1  0  0  0  0
 13 30  1  0  0  0  0
 13 31  1  0  0  0  0
 14 18  1  0  0  0  0
 14 15  1  0  0  0  0
 14 32  1  0  0  0  0
 15 16  1  0  0  0  0
 15 33  1  0  0  0  0
 15 34  1  0  0  0  0
 16 17  1  0  0  0  0
 16 35  1  0  0  0  0
 16 36  1  0  0  0  0
 17 18  1  0  0  0  0
 17 37  1  0  0  0  0
 17 38  1  0  0  0  0
M  END
> <s_m_source_file>
AV-unprocessed.smi

> <i_m_source_file_index>
1328

> <i_lp_mmshare_version>
43012

> <i_f3d_flags>
0

> <s_epik_input>
W0NIM11jMW5vYyhbQ0gzXSljMVtDSDJdQyg9TylbTkhdW0NASF0oW0NIM10pW0NAQEhdMltDSDJdW0NIMl1bQ0gyXU8y

> <s_epik_cmdline>
J2VwaWtfcHl0aG9uJywgJy1waCcsICc3LjAnLCAnLXRuJywgJzgnLCAnLW1hJywgJzIwMCcsICctbWV0YWxfYmluZGluZycsICctaW1hZScsICc8aW5maWxlLm1hZT4nLCAnLW9tYWUnLCAnPG91dGZpbGUubWFlPic=

> <r_lp_tautomer_probability>
1

> <r_epik_Ionization_Penalty>
2.66156e-08

> <r_epik_Ionization_Penalty_Charging>
0

> <r_epik_Ionization_Penalty_Neutral>
2.66156e-08

> <r_epik_State_Penalty>
-0

> <r_epik_Charging_Adjusted_Penalty>
0

> <i_epik_Tot_Q>
0

> <i_epik_Tot_abs_Q>
0

> <r_epik_Metal_State_Penalty>
-0

> <b_epik_Metal_Only>
0

> <s_lp_Force_Field>
OPLS_2005

> <r_lp_Energy>
11.7374

> <b_lp_Chiralities_Consistent>
1

> <s_lp_Variant>
AV-unprocessed.smi:1328-2

> <Gold.Version>
5.8.1

> <Gold.Id.Protein>
6NUR|6NUR_protein|mol2

> <Gold.PLP.Fitness>
38.6739

> <Gold.PLP.PLP>
-36.0233

> <Gold.PLP.part.hbond>
-1.0000

> <Gold.PLP.part.metal>
0.0000

> <Gold.PLP.part.buried>
-2.0829

> <Gold.PLP.part.nonpolar>
-32.1911

> <Gold.PLP.part.repulsive>
0.4205

> <Gold.PLP.ligand.clash>
0.0000

> <Gold.PLP.ligand.torsion>
0.1935

> <Gold.PLP.Chemscore.Hbond>
1.0000

> <Gold.PLP.Chemscore.CHOScore>
0.0000

> <Gold.PLP.Chemscore.Metal>
0.0000

> <Gold.Chemscore.Hbonds>
donor molecule, donor type, donor heavy atom, donor atom, acceptor molecule, acceptor atom, score
      P1  H 10752 10765       L1     3  1.00

> <Gold.PLP.Chemscore.Internal.Correction>
0.0375

> <Gold.Rescore>
     Score         DG    S(hbond)    S(metal)    S(lipo)     H(rot)  DE(clash)    DE(int)     intcor
     16.81     -17.17       0.95        0.00     106.03       1.52       0.13       0.23       ----

> <Gold.Chemscore.Fitness>
16.8093

> <Gold.Chemscore.DG>
-17.1691

> <Gold.Chemscore.ZeroCoef>
-5.4800

> <Gold.Chemscore.Hbond>
0.9475

> <Gold.Chemscore.Metal>
0.0000

> <Gold.Chemscore.Lipo>
106.0274

> <Gold.Chemscore.Internal_Hbond>
0.0000

> <Gold.Chemscore.DEClash>
0.1306

> <Gold.Chemscore.DEInternal>
0.2291

> <Gold.Chemscore.Rot>
1.5159

> <Gold.Chemscore.Internal.Correction>
   9.000000E+99

> <Gold.Chemscore.Hbonds>
donor molecule, donor type, donor heavy atom, donor atom, acceptor molecule, acceptor atom, score
      P1  H 10752 10765       L1     3  0.88

> <Gold.Chemscore.Hbond.Weighted>
-3.1646

> <Gold.Chemscore.Metal.Weighted>
-0.0000

> <Gold.Chemscore.Lipo.Weighted>
-12.4052

> <Gold.Chemscore.Internal_Hbond.Weighted>
0.0000

> <Gold.Chemscore.DEClash.Weighted>
0.1306

> <Gold.Chemscore.DEInternal.Weighted>
0.2291

> <Gold.Chemscore.Rot.Weighted>
3.8807

> <Gold.Chemscore.Internal.Correction.Weighted>
   9.000000E+99

> <Gold.Protein.RotatedTorsions>
[ 6907 6896 6895 6894 ] final   -6.09 input  -60.11 | X-H torsion
[ 7974 7965 7964 7962 ] final   24.08 input  175.53 | X-H torsion
[ 8008 7997 7996 7995 ] final   72.00 input   59.86 | X-H torsion
[ 10167 10162 10161 10158 ] final   81.70 input  -65.29 | X-H torsion
[ 10718 10713 10712 10709 ] final -136.97 input   66.30 | X-H torsion
[ 10763 10752 10751 10750 ] final  172.36 input  -60.55 | X-H torsion
[ 11005 11000 10999 10996 ] final -101.33 input  -57.11 | X-H torsion

> <Gold.Protein.ActiveResidues>
 VAL166  LYS551  ARG553  GLY616  TRP617  ASP618  TYR619  PRO620  LYS621  CYS622 
 ASP623  PHE694  ASN695  SER759  ASP760  ASP761  ALA762  ILE779  LEU786  VAL792 
 PHE793  MET794  SER795  GLU796  ALA797  LYS798  CYS799  TRP800  GLU811  SER814 

> <Gold.Protein.RotatedAtoms>
  151.4711  135.1046  159.9751 H   0  0  0  0  0  0  0  0  0  0  0  0  # atno 6907 bound_to 6896
  152.4816  133.8265  159.7091 H   0  0  0  0  0  0  0  0  0  0  0  0  # atno 6908 bound_to 6896
  150.8892  133.7205  159.2936 H   0  0  0  0  0  0  0  0  0  0  0  0  # atno 6909 bound_to 6896
  146.1954  139.7654  142.8801 H   0  0  0  0  0  0  0  0  0  0  0  0  # atno 7974 bound_to 7965
  155.7623  140.3486  155.5204 H   0  0  0  0  0  0  0  0  0  0  0  0  # atno 8008 bound_to 7997
  155.8902  140.1016  157.1445 H   0  0  0  0  0  0  0  0  0  0  0  0  # atno 8009 bound_to 7997
  154.4033  140.1306  156.4293 H   0  0  0  0  0  0  0  0  0  0  0  0  # atno 8010 bound_to 7997
  139.9365  144.6118  150.8294 H   0  0  0  0  0  0  0  0  0  0  0  0  # atno 10167 bound_to 10162
  156.2829  130.7331  151.1334 H   0  0  0  0  0  0  0  0  0  0  0  0  # atno 10718 bound_to 10713
  154.4249  135.2758  155.1951 H   0  0  0  0  0  0  0  0  0  0  0  0  # atno 10763 bound_to 10752
  154.3881  135.6072  153.5831 H   0  0  0  0  0  0  0  0  0  0  0  0  # atno 10764 bound_to 10752
  152.9834  135.5896  154.4551 H   0  0  0  0  0  0  0  0  0  0  0  0  # atno 10765 bound_to 10752
  141.1235  133.8469  157.1218 H   0  0  0  0  0  0  0  0  0  0  0  0  # atno 11005 bound_to 11000
  145.3659  141.0334  143.3258 LP  0  0  0  0  0  0  0  0  0  0  0  0  # atno 17320 bound_to 7965
  144.8570  139.5234  143.6830 LP  0  0  0  0  0  0  0  0  0  0  0  0  # atno 17321 bound_to 7965
  140.7623  143.3195  151.2655 LP  0  0  0  0  0  0  0  0  0  0  0  0  # atno 17342 bound_to 10162
  139.6739  143.9971  152.2770 LP  0  0  0  0  0  0  0  0  0  0  0  0  # atno 17343 bound_to 10162
  157.7320  131.0603  150.5651 LP  0  0  0  0  0  0  0  0  0  0  0  0  # atno 17370 bound_to 10713
  156.5759  130.4292  149.5999 LP  0  0  0  0  0  0  0  0  0  0  0  0  # atno 17371 bound_to 10713
  140.0213  134.9945  157.0596 LP  0  0  0  0  0  0  0  0  0  0  0  0  # atno 17394 bound_to 11000
  140.4436  134.1655  155.7175 LP  0  0  0  0  0  0  0  0  0  0  0  0  # atno 17395 bound_to 11000

$$$$
