AV-unprocessed.smi:49|AV-procd|sdf|463|dock2
  -GOLD-   2262016333D 1   1.00000     0.00000
 Structure written by MMmdl.
 28 29  0  0  0  0  0  0  0  0  2 V2000
  139.6726  137.2333  153.4903 C   0  0  0  0  0  0  0  0  0  0  0  0
  140.8833  138.1272  153.2010 C   0  0  0  0  0  0  0  0  0  0  0  0
  142.1183  137.3422  152.9016 C   0  0  0  0  0  0  0  0  0  0  0  0
  142.2115  136.0171  152.9379 N   0  0  0  0  0  0  0  0  0  0  0  0
  143.5154  135.8524  152.5622 C   0  0  0  0  0  0  0  0  0  0  0  0
  144.1599  134.5007  152.4912 C   0  0  2  0  0  0  0  0  0  0  0  0
  145.1651  134.3874  151.3332 C   0  0  0  0  0  0  0  0  0  0  0  0
  144.4103  133.6055  150.2610 C   0  0  1  0  0  0  0  0  0  0  0  0
  145.2813  132.9117  149.3933 O   0  0  0  0  0  0  0  0  0  0  0  0
  143.5418  132.6581  151.0860 C   0  0  0  0  0  0  0  0  0  0  0  0
  143.1575  133.4319  152.2799 N   0  3  0  0  0  0  0  0  0  0  0  0
  144.1985  136.9741  152.3267 N   0  0  0  0  0  0  0  0  0  0  0  0
  143.2640  137.9239  152.5418 N   0  0  0  0  0  0  0  0  0  0  0  0
  144.6708  134.3120  153.4364 H   0  0  0  0  0  0  0  0  0  0  0  0
  143.7784  134.2819  149.6833 H   0  0  0  0  0  0  0  0  0  0  0  0
  143.4466  138.9127  152.4426 H   0  0  0  0  0  0  0  0  0  0  0  0
  138.7888  137.8342  153.7056 H   0  0  0  0  0  0  0  0  0  0  0  0
  139.8549  136.5896  154.3513 H   0  0  0  0  0  0  0  0  0  0  0  0
  139.4418  136.5950  152.6369 H   0  0  0  0  0  0  0  0  0  0  0  0
  140.6657  138.7854  152.3590 H   0  0  0  0  0  0  0  0  0  0  0  0
  141.0794  138.7732  154.0574 H   0  0  0  0  0  0  0  0  0  0  0  0
  145.5444  135.3487  150.9836 H   0  0  0  0  0  0  0  0  0  0  0  0
  146.0230  133.8020  151.6688 H   0  0  0  0  0  0  0  0  0  0  0  0
  145.3673  133.4049  148.5912 H   0  0  0  0  0  0  0  0  0  0  0  0
  142.6709  132.2949  150.5399 H   0  0  0  0  0  0  0  0  0  0  0  0
  144.1223  131.7942  151.4140 H   0  0  0  0  0  0  0  0  0  0  0  0
  143.0831  132.8342  153.0905 H   0  0  0  0  0  0  0  0  0  0  0  0
  142.2681  133.8774  152.1029 H   0  0  0  0  0  0  0  0  0  0  0  0
  1  2  1  0  0  0  0
  1 17  1  0  0  0  0
  1 18  1  0  0  0  0
  1 19  1  0  0  0  0
  2  3  1  0  0  0  0
  2 20  1  0  0  0  0
  2 21  1  0  0  0  0
  3 13  1  0  0  0  0
  3  4  2  0  0  0  0
  4  5  1  0  0  0  0
  5  6  1  0  0  0  0
  5 12  2  0  0  0  0
  6 14  1  0  0  0  0
  6 11  1  0  0  0  0
  6  7  1  0  0  0  0
  7  8  1  0  0  0  0
  7 22  1  0  0  0  0
  7 23  1  0  0  0  0
  8 15  1  0  0  0  0
  8  9  1  0  0  0  0
  8 10  1  0  0  0  0
  9 24  1  0  0  0  0
 10 11  1  0  0  0  0
 10 25  1  0  0  0  0
 10 26  1  0  0  0  0
 11 27  1  0  0  0  0
 11 28  1  0  0  0  0
 12 13  1  0  0  0  0
 13 16  1  0  0  0  0
M  CHG  1  11   1
M  END
> <s_m_source_file>
AV-unprocessed.smi

> <i_m_source_file_index>
49

> <i_lp_mmshare_version>
43012

> <i_f3d_flags>
0

> <s_epik_input>
W0NIM11bQ0gyXWMxbmMobltuSF0xKVtDQEBIXTJbQ0gyXVtDQEBIXShbT0hdKVtDSDJdW05IXTI=

> <s_epik_cmdline>
J2VwaWtfcHl0aG9uJywgJy1waCcsICc3LjAnLCAnLXRuJywgJzgnLCAnLW1hJywgJzIwMCcsICctbWV0YWxfYmluZGluZycsICctaW1hZScsICc8aW5maWxlLm1hZT4nLCAnLW9tYWUnLCAnPG91dGZpbGUubWFlPic=

> <r_lp_tautomer_probability>
0.948284

> <r_epik_Ionization_Penalty>
0.045643

> <r_epik_Ionization_Penalty_Charging>
0.0371552

> <r_epik_Ionization_Penalty_Neutral>
0.00848778

> <r_epik_State_Penalty>
0.283309

> <r_epik_Charging_Adjusted_Penalty>
0.320465

> <i_epik_Tot_Q>
1

> <i_epik_Tot_abs_Q>
1

> <r_epik_Metal_State_Penalty>
0.558162

> <b_epik_Metal_Only>
0

> <s_lp_Force_Field>
OPLS_2005

> <r_lp_Energy>
17.5806

> <b_lp_Chiralities_Consistent>
1

> <s_lp_Variant>
AV-unprocessed.smi:49-1

> <Gold.Version>
5.8.1

> <Gold.Id.Protein>
6NUR|6NUR_protein|mol2

> <Gold.PLP.Fitness>
34.1449

> <Gold.PLP.PLP>
-23.4592

> <Gold.PLP.part.hbond>
-4.0000

> <Gold.PLP.part.metal>
0.0000

> <Gold.PLP.part.buried>
-5.4204

> <Gold.PLP.part.nonpolar>
-14.9108

> <Gold.PLP.part.repulsive>
0.7747

> <Gold.PLP.ligand.clash>
0.0000

> <Gold.PLP.ligand.torsion>
0.6635

> <Gold.PLP.Chemscore.Hbond>
4.0000

> <Gold.PLP.Chemscore.CHOScore>
0.0000

> <Gold.PLP.Chemscore.Metal>
0.0000

> <Gold.Chemscore.Hbonds>
donor molecule, donor type, donor heavy atom, donor atom, acceptor molecule, acceptor atom, score
      L1  H     9    24       P1  7921  1.00
      L1  H    11    27       P1 10957  2.00
      L1  H    13    16       P1 10175  0.99

> <Gold.PLP.Chemscore.Internal.Correction>
0.0128

> <Gold.Rescore>
     Score         DG    S(hbond)    S(metal)    S(lipo)     H(rot)  DE(clash)    DE(int)     intcor
     13.69     -14.03       2.69        0.00      37.50       1.89       0.00       0.34       ----

> <Gold.Chemscore.Fitness>
13.6918

> <Gold.Chemscore.DG>
-14.0304

> <Gold.Chemscore.ZeroCoef>
-5.4800

> <Gold.Chemscore.Hbond>
2.6938

> <Gold.Chemscore.Metal>
0.0000

> <Gold.Chemscore.Lipo>
37.4963

> <Gold.Chemscore.Internal_Hbond>
0.0000

> <Gold.Chemscore.DEClash>
0.0000

> <Gold.Chemscore.DEInternal>
0.3386

> <Gold.Chemscore.Rot>
1.8883

> <Gold.Chemscore.Internal.Correction>
   9.000000E+99

> <Gold.Chemscore.Hbonds>
donor molecule, donor type, donor heavy atom, donor atom, acceptor molecule, acceptor atom, score
      L1  H     9    24       P1  7921  0.29
      L1  H    11    27       P1 10957  0.37
      L1  H    13    16       P1 10175  0.92

> <Gold.Chemscore.Hbond.Weighted>
-8.9973

> <Gold.Chemscore.Metal.Weighted>
-0.0000

> <Gold.Chemscore.Lipo.Weighted>
-4.3871

> <Gold.Chemscore.Internal_Hbond.Weighted>
0.0000

> <Gold.Chemscore.DEClash.Weighted>
0.0000

> <Gold.Chemscore.DEInternal.Weighted>
0.3386

> <Gold.Chemscore.Rot.Weighted>
4.8340

> <Gold.Chemscore.Internal.Correction.Weighted>
   9.000000E+99

> <Gold.Protein.RotatedTorsions>
[ 6907 6896 6895 6894 ] final -111.19 input  -60.11 | X-H torsion
[ 7974 7965 7964 7962 ] final   53.28 input  175.53 | X-H torsion
[ 8008 7997 7996 7995 ] final   25.84 input   59.86 | X-H torsion
[ 10167 10162 10161 10158 ] final -116.59 input  -65.29 | X-H torsion
[ 10718 10713 10712 10709 ] final  104.82 input   66.30 | X-H torsion
[ 10763 10752 10751 10750 ] final  -71.48 input  -60.55 | X-H torsion
[ 11005 11000 10999 10996 ] final -164.37 input  -57.11 | X-H torsion

> <Gold.Protein.ActiveResidues>
 VAL166  LYS551  ARG553  GLY616  TRP617  ASP618  TYR619  PRO620  LYS621  CYS622 
 ASP623  PHE694  ASN695  SER759  ASP760  ASP761  ALA762  ILE779  LEU786  VAL792 
 PHE793  MET794  SER795  GLU796  ALA797  LYS798  CYS799  TRP800  GLU811  SER814 

> <Gold.Protein.RotatedAtoms>
  150.7674  133.9271  159.3415 H   0  0  0  0  0  0  0  0  0  0  0  0  # atno 6907 bound_to 6896
  151.7166  135.0900  160.0286 H   0  0  0  0  0  0  0  0  0  0  0  0  # atno 6908 bound_to 6896
  152.3676  133.6339  159.6098 H   0  0  0  0  0  0  0  0  0  0  0  0  # atno 6909 bound_to 6896
  145.9727  139.4165  143.0180 H   0  0  0  0  0  0  0  0  0  0  0  0  # atno 7974 bound_to 7965
  155.0179  140.3144  155.4804 H   0  0  0  0  0  0  0  0  0  0  0  0  # atno 8008 bound_to 7997
  156.2897  140.2202  156.5238 H   0  0  0  0  0  0  0  0  0  0  0  0  # atno 8009 bound_to 7997
  154.7477  140.0468  157.0854 H   0  0  0  0  0  0  0  0  0  0  0  0  # atno 8010 bound_to 7997
  140.0776  143.4818  152.1944 H   0  0  0  0  0  0  0  0  0  0  0  0  # atno 10167 bound_to 10162
  157.6727  131.0813  150.5764 H   0  0  0  0  0  0  0  0  0  0  0  0  # atno 10718 bound_to 10713
  154.4323  135.5961  153.6076 H   0  0  0  0  0  0  0  0  0  0  0  0  # atno 10763 bound_to 10752
  152.9799  135.5978  154.3824 H   0  0  0  0  0  0  0  0  0  0  0  0  # atno 10764 bound_to 10752
  154.3664  135.2841  155.2270 H   0  0  0  0  0  0  0  0  0  0  0  0  # atno 10765 bound_to 10752
  140.5876  134.5077  157.5188 H   0  0  0  0  0  0  0  0  0  0  0  0  # atno 11005 bound_to 11000
  145.7882  140.9826  143.1063 LP  0  0  0  0  0  0  0  0  0  0  0  0  # atno 17320 bound_to 7965
  144.6841  139.9650  143.7481 LP  0  0  0  0  0  0  0  0  0  0  0  0  # atno 17321 bound_to 7965
  139.5799  144.7505  151.3668 LP  0  0  0  0  0  0  0  0  0  0  0  0  # atno 17342 bound_to 10162
  140.7094  143.7429  150.7540 LP  0  0  0  0  0  0  0  0  0  0  0  0  # atno 17343 bound_to 10162
  156.6065  130.4368  149.5876 LP  0  0  0  0  0  0  0  0  0  0  0  0  # atno 17370 bound_to 10713
  156.2465  130.6882  151.1605 LP  0  0  0  0  0  0  0  0  0  0  0  0  # atno 17371 bound_to 10713
  139.9288  134.8003  156.0989 LP  0  0  0  0  0  0  0  0  0  0  0  0  # atno 17394 bound_to 11000
  141.0956  133.6697  156.2637 LP  0  0  0  0  0  0  0  0  0  0  0  0  # atno 17395 bound_to 11000

$$$$
