AV-unprocessed.smi:226|AV-procd|sdf|1726|dock4
  -GOLD-   2262020213D 1   1.00000     0.00000
 Structure written by MMmdl.
 54 58  0  0  0  0  0  0  0  0  1 V2000
  152.0284  142.2257  162.0466 O   0  0  0  0  0  0  0  0  0  0  0  0
  152.3618  142.1726  160.8629 C   0  0  0  0  0  0  0  0  0  0  0  0
  152.0548  143.1343  159.9767 N   0  0  0  0  0  0  0  0  0  0  0  0
  151.3246  144.3266  160.2558 C   0  0  0  0  0  0  0  0  0  0  0  0
  151.0704  145.2770  159.1060 C   0  0  0  0  0  0  0  0  0  0  0  0
  152.0720  145.6394  160.1677 C   0  0  0  0  0  0  0  0  0  0  0  0
  153.1826  140.9624  160.3658 C   0  0  1  0  0  0  0  0  0  0  0  0
  154.4384  140.7298  161.2238 C   0  0  0  0  0  0  0  0  0  0  0  0
  153.9814  139.7433  162.2971 C   0  0  0  0  0  0  0  0  0  0  0  0
  152.9799  138.8581  161.5543 C   0  0  0  0  0  0  0  0  0  0  0  0
  152.4763  139.6793  160.4615 N   0  0  0  0  0  0  0  0  0  0  0  0
  151.5589  139.2464  159.5531 C   0  0  0  0  0  0  0  0  0  0  0  0
  150.9772  138.0343  159.7542 N   0  0  0  0  0  0  0  0  0  0  0  0
  150.0788  137.5553  158.8909 C   0  0  0  0  0  0  0  0  0  0  0  0
  149.6239  138.1123  157.7690 N   0  0  0  0  0  0  0  0  0  0  0  0
  150.2013  139.3279  157.5514 C   0  0  0  0  0  0  0  0  0  0  0  0
  151.1627  139.9691  158.3869 C   0  0  0  0  0  0  0  0  0  0  0  0
  151.4981  141.2032  157.8392 N   0  0  0  0  0  0  0  0  0  0  0  0
  150.7781  141.2871  156.7548 C   0  0  0  0  0  0  0  0  0  0  0  0
  149.9949  140.1889  156.4871 N   0  0  0  0  0  0  0  0  0  0  0  0
  149.0857  140.0314  155.3891 C   0  0  0  0  0  0  0  0  0  0  0  0
  148.9538  141.1111  154.3110 C   0  0  0  0  0  0  0  0  0  0  0  0
  147.4357  140.8456  154.2100 C   0  0  0  0  0  0  0  0  0  0  0  0
  146.5527  142.1029  154.2083 C   0  0  0  0  0  0  0  0  0  0  0  0
  145.2110  141.7914  154.5248 O   0  0  0  0  0  0  0  0  0  0  0  0
  146.9521  139.9502  153.0475 C   0  0  0  0  0  0  0  0  0  0  0  0
  146.9412  140.6113  151.7988 O   0  0  0  0  0  0  0  0  0  0  0  0
  147.5723  140.1627  155.5895 C   0  0  0  0  0  0  0  0  0  0  0  0
  152.3731  143.0102  159.0266 H   0  0  0  0  0  0  0  0  0  0  0  0
  150.5407  144.2699  161.0097 H   0  0  0  0  0  0  0  0  0  0  0  0
  151.4540  145.0029  158.1248 H   0  0  0  0  0  0  0  0  0  0  0  0
  150.1257  145.8172  159.1016 H   0  0  0  0  0  0  0  0  0  0  0  0
  151.7966  146.4207  160.8732 H   0  0  0  0  0  0  0  0  0  0  0  0
  153.1263  145.6062  159.8987 H   0  0  0  0  0  0  0  0  0  0  0  0
  153.4898  141.1605  159.3379 H   0  0  0  0  0  0  0  0  0  0  0  0
  155.2168  140.2695  160.6135 H   0  0  0  0  0  0  0  0  0  0  0  0
  154.8585  141.6426  161.6484 H   0  0  0  0  0  0  0  0  0  0  0  0
  154.8035  139.1779  162.7366 H   0  0  0  0  0  0  0  0  0  0  0  0
  153.4766  140.2826  163.0996 H   0  0  0  0  0  0  0  0  0  0  0  0
  153.4766  137.9771  161.1454 H   0  0  0  0  0  0  0  0  0  0  0  0
  152.1807  138.5325  162.2205 H   0  0  0  0  0  0  0  0  0  0  0  0
  149.6684  136.5859  159.1328 H   0  0  0  0  0  0  0  0  0  0  0  0
  150.8067  142.1556  156.1129 H   0  0  0  0  0  0  0  0  0  0  0  0
  149.3324  139.0692  154.9387 H   0  0  0  0  0  0  0  0  0  0  0  0
  149.1850  142.1068  154.6938 H   0  0  0  0  0  0  0  0  0  0  0  0
  149.5163  140.9051  153.3997 H   0  0  0  0  0  0  0  0  0  0  0  0
  146.9204  142.8449  154.9179 H   0  0  0  0  0  0  0  0  0  0  0  0
  146.5590  142.5832  153.2293 H   0  0  0  0  0  0  0  0  0  0  0  0
  144.6765  141.9604  153.7637 H   0  0  0  0  0  0  0  0  0  0  0  0
  147.5874  139.0694  152.9487 H   0  0  0  0  0  0  0  0  0  0  0  0
  145.9408  139.5857  153.2300 H   0  0  0  0  0  0  0  0  0  0  0  0
  147.7718  140.4625  151.3733 H   0  0  0  0  0  0  0  0  0  0  0  0
  147.0485  139.2110  155.6850 H   0  0  0  0  0  0  0  0  0  0  0  0
  147.3201  140.8274  156.4175 H   0  0  0  0  0  0  0  0  0  0  0  0
  1  2  2  0  0  0  0
  2  3  1  0  0  0  0
  2  7  1  0  0  0  0
  3  4  1  0  0  0  0
  3 29  1  0  0  0  0
  4  6  1  0  0  0  0
  4  5  1  0  0  0  0
  4 30  1  0  0  0  0
  5  6  1  0  0  0  0
  5 31  1  0  0  0  0
  5 32  1  0  0  0  0
  6 33  1  0  0  0  0
  6 34  1  0  0  0  0
  7 11  1  0  0  0  0
  7  8  1  0  0  0  0
  7 35  1  0  0  0  0
  8  9  1  0  0  0  0
  8 36  1  0  0  0  0
  8 37  1  0  0  0  0
  9 10  1  0  0  0  0
  9 38  1  0  0  0  0
  9 39  1  0  0  0  0
 10 11  1  0  0  0  0
 10 40  1  0  0  0  0
 10 41  1  0  0  0  0
 11 12  1  0  0  0  0
 12 17  1  0  0  0  0
 12 13  2  0  0  0  0
 13 14  1  0  0  0  0
 14 15  2  0  0  0  0
 14 42  1  0  0  0  0
 15 16  1  0  0  0  0
 16 20  1  0  0  0  0
 16 17  2  0  0  0  0
 17 18  1  0  0  0  0
 18 19  2  0  0  0  0
 19 20  1  0  0  0  0
 19 43  1  0  0  0  0
 20 21  1  0  0  0  0
 21 28  1  0  0  0  0
 21 22  1  0  0  0  0
 21 44  1  0  0  0  0
 22 23  1  0  0  0  0
 22 45  1  0  0  0  0
 22 46  1  0  0  0  0
 23 24  1  0  0  0  0
 23 26  1  0  0  0  0
 23 28  1  0  0  0  0
 24 25  1  0  0  0  0
 24 47  1  0  0  0  0
 24 48  1  0  0  0  0
 25 49  1  0  0  0  0
 26 27  1  0  0  0  0
 26 50  1  0  0  0  0
 26 51  1  0  0  0  0
 27 52  1  0  0  0  0
 28 53  1  0  0  0  0
 28 54  1  0  0  0  0
M  END
> <s_m_source_file>
AV-unprocessed.smi

> <i_m_source_file_index>
226

> <i_lp_mmshare_version>
43012

> <i_f3d_flags>
0

> <s_epik_input>
W0NIMl0xW0NIMl1bQ0hdMVtOSF1DKD1PKVtDQEBIXTJbQ0gyXVtDSDJdW0NIMl1OMmMobltjSF1uMyljKGMzNCluW2NIXW40W0NIXShbQ0gyXTUpW0NIMl1DNShbQ0gyXVtPSF0pW0NIMl1bT0hd

> <s_epik_cmdline>
J2VwaWtfcHl0aG9uJywgJy1waCcsICc3LjAnLCAnLXRuJywgJzgnLCAnLW1hJywgJzIwMCcsICctbWV0YWxfYmluZGluZycsICctaW1hZScsICc8aW5maWxlLm1hZT4nLCAnLW9tYWUnLCAnPG91dGZpbGUubWFlPic=

> <r_lp_tautomer_probability>
1

> <r_epik_Ionization_Penalty>
0.000818715

> <r_epik_Ionization_Penalty_Charging>
0

> <r_epik_Ionization_Penalty_Neutral>
0.000818715

> <r_epik_State_Penalty>
0.000426447

> <r_epik_Charging_Adjusted_Penalty>
0.000426447

> <i_epik_Tot_Q>
0

> <i_epik_Tot_abs_Q>
0

> <r_epik_Metal_State_Penalty>
-0

> <b_epik_Metal_Only>
0

> <s_lp_Force_Field>
OPLS_2005

> <r_lp_Energy>
62.928

> <b_lp_Chiralities_Consistent>
1

> <s_lp_Variant>
AV-unprocessed.smi:226-2

> <Gold.Version>
5.8.1

> <Gold.Id.Protein>
6NUR|6NUR_protein|mol2

> <Gold.PLP.Fitness>
55.1938

> <Gold.PLP.PLP>
-49.4998

> <Gold.PLP.part.hbond>
-2.4738

> <Gold.PLP.part.metal>
0.0000

> <Gold.PLP.part.buried>
-5.2959

> <Gold.PLP.part.nonpolar>
-41.5012

> <Gold.PLP.part.repulsive>
0.1031

> <Gold.PLP.ligand.clash>
0.0000

> <Gold.PLP.ligand.torsion>
0.4377

> <Gold.PLP.Chemscore.Hbond>
2.0000

> <Gold.PLP.Chemscore.CHOScore>
0.0000

> <Gold.PLP.Chemscore.Metal>
0.0000

> <Gold.Chemscore.Hbonds>
donor molecule, donor type, donor heavy atom, donor atom, acceptor molecule, acceptor atom, score
      L1  H    25    49       P1 10175  0.13
      L1  H    27    52       P1  7957  1.00
      P1  H  6933  6945       L1     1  0.92

> <Gold.PLP.Chemscore.Internal.Correction>
0.5695

> <Gold.Rescore>
     Score         DG    S(hbond)    S(metal)    S(lipo)     H(rot)  DE(clash)    DE(int)     intcor
     14.01     -16.55       2.40        0.00     103.33       3.52       0.18       2.36       ----

> <Gold.Chemscore.Fitness>
14.0135

> <Gold.Chemscore.DG>
-16.5506

> <Gold.Chemscore.ZeroCoef>
-5.4800

> <Gold.Chemscore.Hbond>
2.3963

> <Gold.Chemscore.Metal>
0.0000

> <Gold.Chemscore.Lipo>
103.3290

> <Gold.Chemscore.Internal_Hbond>
0.0000

> <Gold.Chemscore.DEClash>
0.1804

> <Gold.Chemscore.DEInternal>
2.3567

> <Gold.Chemscore.Rot>
3.5244

> <Gold.Chemscore.Internal.Correction>
   9.000000E+99

> <Gold.Chemscore.Hbonds>
donor molecule, donor type, donor heavy atom, donor atom, acceptor molecule, acceptor atom, score
      L1  H    27    52       P1  7957  1.00
      P1  H  6933  6945       L1     1  0.62

> <Gold.Chemscore.Hbond.Weighted>
-8.0036

> <Gold.Chemscore.Metal.Weighted>
-0.0000

> <Gold.Chemscore.Lipo.Weighted>
-12.0895

> <Gold.Chemscore.Internal_Hbond.Weighted>
0.0000

> <Gold.Chemscore.DEClash.Weighted>
0.1804

> <Gold.Chemscore.DEInternal.Weighted>
2.3567

> <Gold.Chemscore.Rot.Weighted>
9.0225

> <Gold.Chemscore.Internal.Correction.Weighted>
   9.000000E+99

> <Gold.Protein.RotatedTorsions>
[ 6907 6896 6895 6894 ] final -172.52 input  -60.11 | X-H torsion
[ 7974 7965 7964 7962 ] final -163.13 input  175.53 | X-H torsion
[ 8008 7997 7996 7995 ] final  -27.40 input   59.86 | X-H torsion
[ 10167 10162 10161 10158 ] final  -24.16 input  -65.29 | X-H torsion
[ 10718 10713 10712 10709 ] final -111.78 input   66.30 | X-H torsion
[ 10763 10752 10751 10750 ] final  -50.34 input  -60.55 | X-H torsion
[ 11005 11000 10999 10996 ] final   58.82 input  -57.11 | X-H torsion

> <Gold.Protein.ActiveResidues>
 VAL166  LYS551  ARG553  GLY616  TRP617  ASP618  TYR619  PRO620  LYS621  CYS622 
 ASP623  PHE694  ASN695  SER759  ASP760  ASP761  ALA762  ILE779  LEU786  VAL792 
 PHE793  MET794  SER795  GLU796  ALA797  LYS798  CYS799  TRP800  GLU811  SER814 

> <Gold.Protein.RotatedAtoms>
  151.5413  133.3432  159.2935 H   0  0  0  0  0  0  0  0  0  0  0  0  # atno 6907 bound_to 6896
  150.8534  134.7868  159.7037 H   0  0  0  0  0  0  0  0  0  0  0  0  # atno 6908 bound_to 6896
  152.4574  134.5269  159.9851 H   0  0  0  0  0  0  0  0  0  0  0  0  # atno 6909 bound_to 6896
  144.7335  140.3152  143.6181 H   0  0  0  0  0  0  0  0  0  0  0  0  # atno 7974 bound_to 7965
  154.4379  140.1873  156.0926 H   0  0  0  0  0  0  0  0  0  0  0  0  # atno 8008 bound_to 7997
  156.0354  140.3326  155.7158 H   0  0  0  0  0  0  0  0  0  0  0  0  # atno 8009 bound_to 7997
  155.5779  140.0619  157.2781 H   0  0  0  0  0  0  0  0  0  0  0  0  # atno 8010 bound_to 7997
  140.7288  143.4378  151.0703 H   0  0  0  0  0  0  0  0  0  0  0  0  # atno 10167 bound_to 10162
  156.0667  130.5885  150.8420 H   0  0  0  0  0  0  0  0  0  0  0  0  # atno 10718 bound_to 10713
  154.1087  135.6552  153.4881 H   0  0  0  0  0  0  0  0  0  0  0  0  # atno 10763 bound_to 10752
  153.0264  135.5242  154.7214 H   0  0  0  0  0  0  0  0  0  0  0  0  # atno 10764 bound_to 10752
  154.6387  135.2985  155.0099 H   0  0  0  0  0  0  0  0  0  0  0  0  # atno 10765 bound_to 10752
  140.0349  134.5958  155.9458 H   0  0  0  0  0  0  0  0  0  0  0  0  # atno 11005 bound_to 11000
  145.7624  139.1829  143.2259 LP  0  0  0  0  0  0  0  0  0  0  0  0  # atno 17320 bound_to 7965
  146.0976  140.7583  142.9565 LP  0  0  0  0  0  0  0  0  0  0  0  0  # atno 17321 bound_to 7965
  139.8042  143.8042  152.3166 LP  0  0  0  0  0  0  0  0  0  0  0  0  # atno 17342 bound_to 10162
  139.8069  144.7352  150.9750 LP  0  0  0  0  0  0  0  0  0  0  0  0  # atno 17343 bound_to 10162
  157.5713  131.0946  150.9413 LP  0  0  0  0  0  0  0  0  0  0  0  0  # atno 17370 bound_to 10713
  156.9629  130.5462  149.5287 LP  0  0  0  0  0  0  0  0  0  0  0  0  # atno 17371 bound_to 10713
  141.1852  133.6554  156.5186 LP  0  0  0  0  0  0  0  0  0  0  0  0  # atno 17394 bound_to 11000
  140.4164  134.7226  157.4865 LP  0  0  0  0  0  0  0  0  0  0  0  0  # atno 17395 bound_to 11000

$$$$
