AV-unprocessed.smi:1794|AV-procd|sdf|7234|dock1
  -GOLD-   22720 8483D 1   1.00000     0.00000
 Structure written by MMmdl.
 55 57  0  0  0  0  0  0  0  0  2 V2000
  151.7912  138.2404  154.2057 C   0  0  0  0  0  0  0  0  0  0  0  0
  150.6023  138.2005  155.1953 C   0  0  0  0  0  0  0  0  0  0  0  0
  149.3164  138.4853  154.3764 C   0  0  0  0  0  0  0  0  0  0  0  0
  150.4761  136.7365  155.7125 C   0  0  0  0  0  0  0  0  0  0  0  0
  149.9632  135.8302  154.6856 N   0  0  0  0  0  0  0  0  0  0  0  0
  149.8194  134.5037  154.8090 C   0  0  0  0  0  0  0  0  0  0  0  0
  150.1930  133.8585  155.7882 O   0  0  0  0  0  0  0  0  0  0  0  0
  149.1906  133.9863  153.7415 N   0  0  0  0  0  0  0  0  0  0  0  0
  148.7467  132.6468  153.5612 C   0  0  0  0  0  0  0  0  0  0  0  0
  149.4716  131.5422  154.0756 C   0  0  0  0  0  0  0  0  0  0  0  0
  148.9938  130.2342  153.8661 C   0  0  0  0  0  0  0  0  0  0  0  0
  147.8048  130.0506  153.1376 C   0  0  0  0  0  0  0  0  0  0  0  0
  147.1471  131.1222  152.6480 N   0  3  0  0  0  0  0  0  0  0  0  0
  147.5583  132.4028  152.8211 C   0  0  0  0  0  0  0  0  0  0  0  0
  146.8045  133.4470  152.2460 N   0  0  0  0  0  0  0  0  0  0  0  0
  146.6425  133.3350  150.7989 C   0  0  0  0  0  0  0  0  0  0  0  0
  145.2292  133.8285  150.4812 C   0  0  0  0  0  0  0  0  0  0  0  0
  144.4677  133.5502  151.7714 C   0  0  0  0  0  0  0  0  0  0  0  0
  145.5233  133.8246  152.8405 C   0  0  0  0  0  0  0  0  0  0  0  0
  150.7505  139.1667  156.3198 N   0  0  0  0  0  0  0  0  0  0  0  0
  150.8474  140.5761  155.9238 C   0  0  0  0  0  0  0  0  0  0  0  0
  150.8679  141.5168  157.1417 C   0  0  0  0  0  0  0  0  0  0  0  0
  151.9364  141.1615  158.0114 O   0  0  0  0  0  0  0  0  0  0  0  0
  151.8503  139.8138  158.4581 C   0  0  0  0  0  0  0  0  0  0  0  0
  151.8512  138.8708  157.2444 C   0  0  0  0  0  0  0  0  0  0  0  0
  151.6362  137.5449  153.3800 H   0  0  0  0  0  0  0  0  0  0  0  0
  152.7306  137.9571  154.6803 H   0  0  0  0  0  0  0  0  0  0  0  0
  151.9271  139.2276  153.7646 H   0  0  0  0  0  0  0  0  0  0  0  0
  149.1073  137.6839  153.6669 H   0  0  0  0  0  0  0  0  0  0  0  0
  149.3992  139.3972  153.7848 H   0  0  0  0  0  0  0  0  0  0  0  0
  148.4408  138.5888  155.0184 H   0  0  0  0  0  0  0  0  0  0  0  0
  151.4565  136.3607  156.0080 H   0  0  0  0  0  0  0  0  0  0  0  0
  149.8801  136.6855  156.6242 H   0  0  0  0  0  0  0  0  0  0  0  0
  149.6275  136.2639  153.8383 H   0  0  0  0  0  0  0  0  0  0  0  0
  148.8663  134.6504  153.0542 H   0  0  0  0  0  0  0  0  0  0  0  0
  150.3939  131.6787  154.6200 H   0  0  0  0  0  0  0  0  0  0  0  0
  149.5355  129.3847  154.2554 H   0  0  0  0  0  0  0  0  0  0  0  0
  147.3668  129.0860  152.9261 H   0  0  0  0  0  0  0  0  0  0  0  0
  147.3938  133.9235  150.2712 H   0  0  0  0  0  0  0  0  0  0  0  0
  146.7523  132.2947  150.4870 H   0  0  0  0  0  0  0  0  0  0  0  0
  145.2466  134.9022  150.2889 H   0  0  0  0  0  0  0  0  0  0  0  0
  144.7929  133.3362  149.6116 H   0  0  0  0  0  0  0  0  0  0  0  0
  143.5766  134.1681  151.8851 H   0  0  0  0  0  0  0  0  0  0  0  0
  144.1638  132.5030  151.8064 H   0  0  0  0  0  0  0  0  0  0  0  0
  145.2911  133.3217  153.7792 H   0  0  0  0  0  0  0  0  0  0  0  0
  145.5623  134.8930  153.0562 H   0  0  0  0  0  0  0  0  0  0  0  0
  151.7485  140.7416  155.3331 H   0  0  0  0  0  0  0  0  0  0  0  0
  150.0024  140.8650  155.3015 H   0  0  0  0  0  0  0  0  0  0  0  0
  151.0002  142.5497  156.8198 H   0  0  0  0  0  0  0  0  0  0  0  0
  149.9209  141.4688  157.6815 H   0  0  0  0  0  0  0  0  0  0  0  0
  152.6999  139.5988  159.1059 H   0  0  0  0  0  0  0  0  0  0  0  0
  150.9476  139.6742  159.0550 H   0  0  0  0  0  0  0  0  0  0  0  0
  151.7939  137.8499  157.6131 H   0  0  0  0  0  0  0  0  0  0  0  0
  152.8087  138.9640  156.7315 H   0  0  0  0  0  0  0  0  0  0  0  0
  146.2933  130.9588  152.1140 H   0  0  0  0  0  0  0  0  0  0  0  0
  1  2  1  0  0  0  0
  1 26  1  0  0  0  0
  1 27  1  0  0  0  0
  1 28  1  0  0  0  0
  2  3  1  0  0  0  0
  2  4  1  0  0  0  0
  2 20  1  0  0  0  0
  3 29  1  0  0  0  0
  3 30  1  0  0  0  0
  3 31  1  0  0  0  0
  4  5  1  0  0  0  0
  4 32  1  0  0  0  0
  4 33  1  0  0  0  0
  5  6  1  0  0  0  0
  5 34  1  0  0  0  0
  6  7  2  0  0  0  0
  6  8  1  0  0  0  0
  8  9  1  0  0  0  0
  8 35  1  0  0  0  0
  9 14  1  0  0  0  0
  9 10  2  0  0  0  0
 10 11  1  0  0  0  0
 10 36  1  0  0  0  0
 11 12  2  0  0  0  0
 11 37  1  0  0  0  0
 12 13  1  0  0  0  0
 12 38  1  0  0  0  0
 13 14  2  0  0  0  0
 13 55  1  0  0  0  0
 14 15  1  0  0  0  0
 15 19  1  0  0  0  0
 15 16  1  0  0  0  0
 16 17  1  0  0  0  0
 16 39  1  0  0  0  0
 16 40  1  0  0  0  0
 17 18  1  0  0  0  0
 17 41  1  0  0  0  0
 17 42  1  0  0  0  0
 18 19  1  0  0  0  0
 18 43  1  0  0  0  0
 18 44  1  0  0  0  0
 19 45  1  0  0  0  0
 19 46  1  0  0  0  0
 20 25  1  0  0  0  0
 20 21  1  0  0  0  0
 21 22  1  0  0  0  0
 21 47  1  0  0  0  0
 21 48  1  0  0  0  0
 22 23  1  0  0  0  0
 22 49  1  0  0  0  0
 22 50  1  0  0  0  0
 23 24  1  0  0  0  0
 24 25  1  0  0  0  0
 24 51  1  0  0  0  0
 24 52  1  0  0  0  0
 25 53  1  0  0  0  0
 25 54  1  0  0  0  0
M  CHG  1  13   1
M  END
> <s_m_source_file>
AV-unprocessed.smi

> <i_m_source_file_index>
1794

> <i_lp_mmshare_version>
43012

> <i_f3d_flags>
0

> <s_epik_input>
W0NIMl0xW0NIMl1PW0NIMl1bQ0gyXU4xQyhbQ0gzXSkoW0NIM10pW0NIMl1bTkhdQyg9TylbTkhdYzJbY0hdW2NIXVtjSF1uYzJOM1tDSDJdW0NIMl1bQ0gyXVtDSDJdMw==

> <s_epik_cmdline>
J2VwaWtfcHl0aG9uJywgJy1waCcsICc3LjAnLCAnLXRuJywgJzgnLCAnLW1hJywgJzIwMCcsICctbWV0YWxfYmluZGluZycsICctaW1hZScsICc8aW5maWxlLm1hZT4nLCAnLW9tYWUnLCAnPG91dGZpbGUubWFlPic=

> <r_epik_Ionization_Penalty>
1.36967

> <r_epik_Ionization_Penalty_Charging>
1.10366

> <r_epik_Ionization_Penalty_Neutral>
0.266011

> <r_epik_State_Penalty>
1.45237

> <r_epik_Charging_Adjusted_Penalty>
2.55603

> <i_epik_Tot_Q>
1

> <i_epik_Tot_abs_Q>
1

> <r_epik_Metal_State_Penalty>
1.53539

> <b_epik_Metal_Only>
0

> <s_lp_Force_Field>
OPLS_2005

> <r_lp_Energy>
75.8074

> <b_lp_Chiralities_Consistent>
1

> <s_lp_Variant>
AV-unprocessed.smi:1794-3

> <Gold.Version>
5.8.1

> <Gold.Id.Protein>
6NUR|6NUR_protein|mol2

> <Gold.PLP.Fitness>
44.5168

> <Gold.PLP.PLP>
-40.1564

> <Gold.PLP.part.hbond>
-2.8844

> <Gold.PLP.part.metal>
0.0000

> <Gold.PLP.part.buried>
-5.2629

> <Gold.PLP.part.nonpolar>
-32.1701

> <Gold.PLP.part.repulsive>
0.2231

> <Gold.PLP.ligand.clash>
0.0000

> <Gold.PLP.ligand.torsion>
0.6127

> <Gold.PLP.Chemscore.Hbond>
1.7413

> <Gold.PLP.Chemscore.CHOScore>
0.0000

> <Gold.PLP.Chemscore.Metal>
0.0000

> <Gold.Chemscore.Hbonds>
donor molecule, donor type, donor heavy atom, donor atom, acceptor molecule, acceptor atom, score
      L1  H     5    34       P1  7948  0.94
      L1  H     8    35       P1  7948  0.75

> <Gold.PLP.Chemscore.Internal.Correction>
0.3620

> <Gold.Rescore>
     Score         DG    S(hbond)    S(metal)    S(lipo)     H(rot)  DE(clash)    DE(int)     intcor
     11.27     -13.01       0.19        0.00      93.44       1.58       0.04       1.70       ----

> <Gold.Chemscore.Fitness>
11.2660

> <Gold.Chemscore.DG>
-13.0105

> <Gold.Chemscore.ZeroCoef>
-5.4800

> <Gold.Chemscore.Hbond>
0.1926

> <Gold.Chemscore.Metal>
0.0000

> <Gold.Chemscore.Lipo>
93.4355

> <Gold.Chemscore.Internal_Hbond>
0.0000

> <Gold.Chemscore.DEClash>
0.0424

> <Gold.Chemscore.DEInternal>
1.7021

> <Gold.Chemscore.Rot>
1.5800

> <Gold.Chemscore.Internal.Correction>
   9.000000E+99

> <Gold.Chemscore.Hbonds>
donor molecule, donor type, donor heavy atom, donor atom, acceptor molecule, acceptor atom, score
      L1  H     5    34       P1  7948  0.48
      L1  H     8    35       P1  7948  0.09

> <Gold.Chemscore.Hbond.Weighted>
-0.6434

> <Gold.Chemscore.Metal.Weighted>
-0.0000

> <Gold.Chemscore.Lipo.Weighted>
-10.9319

> <Gold.Chemscore.Internal_Hbond.Weighted>
0.0000

> <Gold.Chemscore.DEClash.Weighted>
0.0424

> <Gold.Chemscore.DEInternal.Weighted>
1.7021

> <Gold.Chemscore.Rot.Weighted>
4.0449

> <Gold.Chemscore.Internal.Correction.Weighted>
   9.000000E+99

> <Gold.Protein.RotatedTorsions>
[ 6907 6896 6895 6894 ] final    0.01 input  -60.11 | X-H torsion
[ 7974 7965 7964 7962 ] final   90.67 input  175.53 | X-H torsion
[ 8008 7997 7996 7995 ] final   80.15 input   59.86 | X-H torsion
[ 10167 10162 10161 10158 ] final -136.34 input  -65.29 | X-H torsion
[ 10718 10713 10712 10709 ] final  -70.07 input   66.30 | X-H torsion
[ 10763 10752 10751 10750 ] final  -99.30 input  -60.55 | X-H torsion
[ 11005 11000 10999 10996 ] final  101.16 input  -57.11 | X-H torsion

> <Gold.Protein.ActiveResidues>
 VAL166  LYS551  ARG553  GLY616  TRP617  ASP618  TYR619  PRO620  LYS621  CYS622 
 ASP623  PHE694  ASN695  SER759  ASP760  ASP761  ALA762  ILE779  LEU786  VAL792 
 PHE793  MET794  SER795  GLU796  ALA797  LYS798  CYS799  TRP800  GLU811  SER814 

> <Gold.Protein.RotatedAtoms>
  151.5695  135.1063  159.9991 H   0  0  0  0  0  0  0  0  0  0  0  0  # atno 6907 bound_to 6896
  152.4408  133.7440  159.6667 H   0  0  0  0  0  0  0  0  0  0  0  0  # atno 6908 bound_to 6896
  150.8313  133.8017  159.3121 H   0  0  0  0  0  0  0  0  0  0  0  0  # atno 6909 bound_to 6896
  145.5159  139.2278  143.2698 H   0  0  0  0  0  0  0  0  0  0  0  0  # atno 7974 bound_to 7965
  155.8796  140.3445  155.5878 H   0  0  0  0  0  0  0  0  0  0  0  0  # atno 8008 bound_to 7997
  155.7735  140.0848  157.2115 H   0  0  0  0  0  0  0  0  0  0  0  0  # atno 8009 bound_to 7997
  154.4023  140.1514  156.2957 H   0  0  0  0  0  0  0  0  0  0  0  0  # atno 8010 bound_to 7997
  139.8688  143.6984  152.2642 H   0  0  0  0  0  0  0  0  0  0  0  0  # atno 10167 bound_to 10162
  156.0425  130.4324  150.2240 H   0  0  0  0  0  0  0  0  0  0  0  0  # atno 10718 bound_to 10713
  154.7486  135.4977  153.9249 H   0  0  0  0  0  0  0  0  0  0  0  0  # atno 10763 bound_to 10752
  153.1119  135.6711  153.9494 H   0  0  0  0  0  0  0  0  0  0  0  0  # atno 10764 bound_to 10752
  153.9251  135.3084  155.3426 H   0  0  0  0  0  0  0  0  0  0  0  0  # atno 10765 bound_to 10752
  139.8772  134.9171  156.4865 H   0  0  0  0  0  0  0  0  0  0  0  0  # atno 11005 bound_to 11000
  146.2137  140.5969  142.9048 LP  0  0  0  0  0  0  0  0  0  0  0  0  # atno 17320 bound_to 7965
  144.7702  140.5620  143.6675 LP  0  0  0  0  0  0  0  0  0  0  0  0  # atno 17321 bound_to 7965
  139.7304  144.7583  151.0811 LP  0  0  0  0  0  0  0  0  0  0  0  0  # atno 17342 bound_to 10162
  140.7764  143.5096  150.9669 LP  0  0  0  0  0  0  0  0  0  0  0  0  # atno 17343 bound_to 10162
  157.0334  131.0014  151.3305 LP  0  0  0  0  0  0  0  0  0  0  0  0  # atno 17370 bound_to 10713
  157.5261  130.8029  149.7864 LP  0  0  0  0  0  0  0  0  0  0  0  0  # atno 17371 bound_to 10713
  140.8689  133.8003  155.9343 LP  0  0  0  0  0  0  0  0  0  0  0  0  # atno 17394 bound_to 11000
  140.8973  134.2422  157.5061 LP  0  0  0  0  0  0  0  0  0  0  0  0  # atno 17395 bound_to 11000

$$$$
