AV-unprocessed.smi:1667|AV-procd|sdf|6673|dock8
  -GOLD-   22720 7383D 1   1.00000     0.00000
 Structure written by MMmdl.
 45 47  0  0  0  0  0  0  0  0  1 V2000
  150.1390  134.2352  155.9440 C   0  0  0  0  0  0  0  0  0  0  0  0
  150.5397  135.6433  156.3697 C   0  0  0  0  0  0  0  0  0  0  0  0
  150.5869  135.9317  157.5642 O   0  0  0  0  0  0  0  0  0  0  0  0
  150.8244  136.4994  155.3736 N   0  0  0  0  0  0  0  0  0  0  0  0
  151.2496  137.8976  155.4791 C   0  0  1  0  0  0  0  0  0  0  0  0
  152.6539  138.1591  154.9003 C   0  0  0  0  0  0  0  0  0  0  0  0
  150.1726  138.8035  154.9292 C   0  0  0  0  0  0  0  0  0  0  0  0
  149.1843  138.3381  154.1617 N   0  0  0  0  0  0  0  0  0  0  0  0
  148.4023  139.4534  153.9491 C   0  0  0  0  0  0  0  0  0  0  0  0
  147.2077  139.6077  153.2102 C   0  0  0  0  0  0  0  0  0  0  0  0
  146.5671  140.8619  153.1432 C   0  0  0  0  0  0  0  0  0  0  0  0
  147.1097  141.9761  153.8149 C   0  0  0  0  0  0  0  0  0  0  0  0
  148.2990  141.8423  154.5568 C   0  0  0  0  0  0  0  0  0  0  0  0
  148.9389  140.5892  154.6163 C   0  0  0  0  0  0  0  0  0  0  0  0
  150.0947  140.1264  155.2416 N   0  0  0  0  0  0  0  0  0  0  0  0
  150.9914  140.9245  156.0752 C   0  0  0  0  0  0  0  0  0  0  0  0
  150.7819  140.7336  157.5964 C   0  0  2  0  0  0  0  0  0  0  0  0
  149.4080  140.8157  157.9202 O   0  0  0  0  0  0  0  0  0  0  0  0
  151.6409  141.6677  158.4387 C   0  0  0  0  0  0  0  0  0  0  0  0
  152.5438  141.1581  159.3993 C   0  0  0  0  0  0  0  0  0  0  0  0
  153.3183  142.0355  160.1825 C   0  0  0  0  0  0  0  0  0  0  0  0
  153.1934  143.4275  160.0136 C   0  0  0  0  0  0  0  0  0  0  0  0
  152.2955  143.9416  159.0588 C   0  0  0  0  0  0  0  0  0  0  0  0
  152.1712  145.2801  158.8980 F   0  0  0  0  0  0  0  0  0  0  0  0
  151.5235  143.0644  158.2726 C   0  0  0  0  0  0  0  0  0  0  0  0
  151.3449  138.0864  156.5451 H   0  0  0  0  0  0  0  0  0  0  0  0
  149.2447  134.2647  155.3211 H   0  0  0  0  0  0  0  0  0  0  0  0
  149.9286  133.6122  156.8138 H   0  0  0  0  0  0  0  0  0  0  0  0
  150.9423  133.7663  155.3751 H   0  0  0  0  0  0  0  0  0  0  0  0
  150.7458  136.1398  154.4336 H   0  0  0  0  0  0  0  0  0  0  0  0
  152.9685  139.1840  155.0964 H   0  0  0  0  0  0  0  0  0  0  0  0
  152.6921  138.0087  153.8216 H   0  0  0  0  0  0  0  0  0  0  0  0
  153.3920  137.4972  155.3534 H   0  0  0  0  0  0  0  0  0  0  0  0
  146.7823  138.7583  152.6967 H   0  0  0  0  0  0  0  0  0  0  0  0
  145.6539  140.9688  152.5764 H   0  0  0  0  0  0  0  0  0  0  0  0
  146.6125  142.9335  153.7609 H   0  0  0  0  0  0  0  0  0  0  0  0
  148.7155  142.6948  155.0719 H   0  0  0  0  0  0  0  0  0  0  0  0
  152.0151  140.6519  155.8159 H   0  0  0  0  0  0  0  0  0  0  0  0
  150.9017  141.9764  155.8061 H   0  0  0  0  0  0  0  0  0  0  0  0
  151.0784  139.7134  157.8426 H   0  0  0  0  0  0  0  0  0  0  0  0
  148.9085  140.4716  157.1956 H   0  0  0  0  0  0  0  0  0  0  0  0
  152.6389  140.0925  159.5487 H   0  0  0  0  0  0  0  0  0  0  0  0
  154.0031  141.6401  160.9179 H   0  0  0  0  0  0  0  0  0  0  0  0
  153.7842  144.1000  160.6176 H   0  0  0  0  0  0  0  0  0  0  0  0
  150.8336  143.4682  157.5462 H   0  0  0  0  0  0  0  0  0  0  0  0
  1  2  1  0  0  0  0
  1 27  1  0  0  0  0
  1 28  1  0  0  0  0
  1 29  1  0  0  0  0
  2  3  2  0  0  0  0
  2  4  1  0  0  0  0
  4  5  1  0  0  0  0
  4 30  1  0  0  0  0
  5 26  1  0  0  0  0
  5  6  1  0  0  0  0
  5  7  1  0  0  0  0
  6 31  1  0  0  0  0
  6 32  1  0  0  0  0
  6 33  1  0  0  0  0
  7 15  1  0  0  0  0
  7  8  2  0  0  0  0
  8  9  1  0  0  0  0
  9 14  2  0  0  0  0
  9 10  1  0  0  0  0
 10 11  2  0  0  0  0
 10 34  1  0  0  0  0
 11 12  1  0  0  0  0
 11 35  1  0  0  0  0
 12 13  2  0  0  0  0
 12 36  1  0  0  0  0
 13 14  1  0  0  0  0
 13 37  1  0  0  0  0
 14 15  1  0  0  0  0
 15 16  1  0  0  0  0
 16 17  1  0  0  0  0
 16 38  1  0  0  0  0
 16 39  1  0  0  0  0
 17 18  1  0  0  0  0
 17 19  1  0  0  0  0
 17 40  1  0  0  0  0
 18 41  1  0  0  0  0
 19 25  1  0  0  0  0
 19 20  2  0  0  0  0
 20 21  1  0  0  0  0
 20 42  1  0  0  0  0
 21 22  2  0  0  0  0
 21 43  1  0  0  0  0
 22 23  1  0  0  0  0
 22 44  1  0  0  0  0
 23 24  1  0  0  0  0
 23 25  2  0  0  0  0
 25 45  1  0  0  0  0
M  END
> <s_m_source_file>
AV-unprocessed.smi

> <i_m_source_file_index>
1667

> <i_lp_mmshare_version>
43012

> <i_f3d_flags>
0

> <s_epik_input>
W0NIM11DKD1PKVtOSF1bQ0BASF0oW0NIM10pYyhuMSluKGMoYzEyKVtjSF1bY0hdW2NIXVtjSF0yKVtDSDJdW0NASF0oW09IXSljM1tjSF1bY0hdW2NIXWMoRilbY0hdMw==

> <s_epik_cmdline>
J2VwaWtfcHl0aG9uJywgJy1waCcsICc3LjAnLCAnLXRuJywgJzgnLCAnLW1hJywgJzIwMCcsICctbWV0YWxfYmluZGluZycsICctaW1hZScsICc8aW5maWxlLm1hZT4nLCAnLW9tYWUnLCAnPG91dGZpbGUubWFlPic=

> <r_epik_Ionization_Penalty>
0.133011

> <r_epik_Ionization_Penalty_Charging>
0

> <r_epik_Ionization_Penalty_Neutral>
0.133011

> <r_epik_State_Penalty>
0.122384

> <r_epik_Charging_Adjusted_Penalty>
0.122384

> <i_epik_Tot_Q>
0

> <i_epik_Tot_abs_Q>
0

> <r_epik_Metal_State_Penalty>
0.0997374

> <b_epik_Metal_Only>
0

> <s_lp_Force_Field>
OPLS_2005

> <r_lp_Energy>
8.264

> <b_lp_Chiralities_Consistent>
1

> <s_lp_Variant>
AV-unprocessed.smi:1667-1

> <Gold.Version>
5.8.1

> <Gold.Id.Protein>
6NUR|6NUR_protein|mol2

> <Gold.PLP.Fitness>
52.1057

> <Gold.PLP.PLP>
-53.3603

> <Gold.PLP.part.hbond>
-0.4861

> <Gold.PLP.part.metal>
0.0000

> <Gold.PLP.part.buried>
-2.2244

> <Gold.PLP.part.nonpolar>
-52.0818

> <Gold.PLP.part.repulsive>
1.1369

> <Gold.PLP.ligand.clash>
0.0000

> <Gold.PLP.ligand.torsion>
0.7330

> <Gold.PLP.Chemscore.Hbond>
0.0000

> <Gold.PLP.Chemscore.CHOScore>
0.0000

> <Gold.PLP.Chemscore.Metal>
0.0000

> <Gold.PLP.Chemscore.Internal.Correction>
0.2112

> <Gold.Rescore>
     Score         DG    S(hbond)    S(metal)    S(lipo)     H(rot)  DE(clash)    DE(int)     intcor
     13.80     -14.97       0.00        0.00     135.29       2.48       0.49       0.67       ----

> <Gold.Chemscore.Fitness>
13.8042

> <Gold.Chemscore.DG>
-14.9704

> <Gold.Chemscore.ZeroCoef>
-5.4800

> <Gold.Chemscore.Hbond>
0.0000

> <Gold.Chemscore.Metal>
0.0000

> <Gold.Chemscore.Lipo>
135.2896

> <Gold.Chemscore.Internal_Hbond>
0.0000

> <Gold.Chemscore.DEClash>
0.4927

> <Gold.Chemscore.DEInternal>
0.6735

> <Gold.Chemscore.Rot>
2.4760

> <Gold.Chemscore.Internal.Correction>
   9.000000E+99

> <Gold.Chemscore.Hbond.Weighted>
-0.0000

> <Gold.Chemscore.Metal.Weighted>
-0.0000

> <Gold.Chemscore.Lipo.Weighted>
-15.8289

> <Gold.Chemscore.Internal_Hbond.Weighted>
0.0000

> <Gold.Chemscore.DEClash.Weighted>
0.4927

> <Gold.Chemscore.DEInternal.Weighted>
0.6735

> <Gold.Chemscore.Rot.Weighted>
6.3385

> <Gold.Chemscore.Internal.Correction.Weighted>
   9.000000E+99

> <Gold.Protein.RotatedTorsions>
[ 6907 6896 6895 6894 ] final -112.52 input  -60.11 | X-H torsion
[ 7974 7965 7964 7962 ] final  -53.87 input  175.53 | X-H torsion
[ 8008 7997 7996 7995 ] final   62.58 input   59.86 | X-H torsion
[ 10167 10162 10161 10158 ] final    5.17 input  -65.29 | X-H torsion
[ 10718 10713 10712 10709 ] final    9.62 input   66.30 | X-H torsion
[ 10763 10752 10751 10750 ] final  -31.34 input  -60.55 | X-H torsion
[ 11005 11000 10999 10996 ] final -107.27 input  -57.11 | X-H torsion

> <Gold.Protein.ActiveResidues>
 VAL166  LYS551  ARG553  GLY616  TRP617  ASP618  TYR619  PRO620  LYS621  CYS622 
 ASP623  PHE694  ASN695  SER759  ASP760  ASP761  ALA762  ILE779  LEU786  VAL792 
 PHE793  MET794  SER795  GLU796  ALA797  LYS798  CYS799  TRP800  GLU811  SER814 

> <Gold.Protein.RotatedAtoms>
  150.7764  133.9078  159.3360 H   0  0  0  0  0  0  0  0  0  0  0  0  # atno 6907 bound_to 6896
  151.6952  135.0938  160.0250 H   0  0  0  0  0  0  0  0  0  0  0  0  # atno 6908 bound_to 6896
  152.3801  133.6496  159.6190 H   0  0  0  0  0  0  0  0  0  0  0  0  # atno 6909 bound_to 6896
  145.8919  140.8063  142.9787 H   0  0  0  0  0  0  0  0  0  0  0  0  # atno 7974 bound_to 7965
  155.6166  140.3495  155.4639 H   0  0  0  0  0  0  0  0  0  0  0  0  # atno 8008 bound_to 7997
  156.0112  140.1233  157.0476 H   0  0  0  0  0  0  0  0  0  0  0  0  # atno 8009 bound_to 7997
  154.4281  140.1081  156.5818 H   0  0  0  0  0  0  0  0  0  0  0  0  # atno 8010 bound_to 7997
  140.6496  143.7577  150.7554 H   0  0  0  0  0  0  0  0  0  0  0  0  # atno 10167 bound_to 10162
  156.9689  130.5961  149.5667 H   0  0  0  0  0  0  0  0  0  0  0  0  # atno 10718 bound_to 10713
  153.7958  135.6894  153.4864 H   0  0  0  0  0  0  0  0  0  0  0  0  # atno 10763 bound_to 10752
  153.1720  135.4539  154.9914 H   0  0  0  0  0  0  0  0  0  0  0  0  # atno 10764 bound_to 10752
  154.8026  135.3344  154.7450 H   0  0  0  0  0  0  0  0  0  0  0  0  # atno 10765 bound_to 10752
  141.0962  133.8966  157.1956 H   0  0  0  0  0  0  0  0  0  0  0  0  # atno 11005 bound_to 11000
  144.6731  140.1543  143.7427 LP  0  0  0  0  0  0  0  0  0  0  0  0  # atno 17320 bound_to 7965
  145.8898  139.2369  143.1556 LP  0  0  0  0  0  0  0  0  0  0  0  0  # atno 17321 bound_to 7965
  140.1225  143.4599  152.2304 LP  0  0  0  0  0  0  0  0  0  0  0  0  # atno 17342 bound_to 10162
  139.5710  144.7462  151.3891 LP  0  0  0  0  0  0  0  0  0  0  0  0  # atno 17343 bound_to 10162
  156.0291  130.5383  150.8486 LP  0  0  0  0  0  0  0  0  0  0  0  0  # atno 17370 bound_to 10713
  157.5606  131.0946  150.9564 LP  0  0  0  0  0  0  0  0  0  0  0  0  # atno 17371 bound_to 10713
  139.9800  135.0101  156.9726 LP  0  0  0  0  0  0  0  0  0  0  0  0  # atno 17394 bound_to 11000
  140.5133  134.0980  155.7275 LP  0  0  0  0  0  0  0  0  0  0  0  0  # atno 17395 bound_to 11000

$$$$
