AV-unprocessed.smi:3158|AV-procd|sdf|12043|dock5
  -GOLD-   2272017463D 1   1.00000     0.00000
 Structure written by MMmdl.
 40 40  0  0  0  0  0  0  0  0  2 V2000
  152.1543  139.0168  154.9424 C   0  0  0  0  0  0  0  0  0  0  0  0
  150.9726  138.4073  154.1736 C   0  0  0  0  0  0  0  0  0  0  0  0
  149.6630  139.2171  154.2734 C   0  0  2  0  0  0  0  0  0  0  0  0
  149.2217  139.3934  155.7329 C   0  0  0  0  0  0  0  0  0  0  0  0
  148.5846  138.5712  153.5262 N   0  0  0  0  0  0  0  0  0  0  0  0
  147.2866  138.9108  153.5710 C   0  0  0  0  0  0  0  0  0  0  0  0
  146.8482  139.8302  154.2637 O   0  0  0  0  0  0  0  0  0  0  0  0
  146.3310  138.0869  152.6979 C   0  0  1  0  0  0  0  0  0  0  0  0
  146.5276  138.4491  151.2181 C   0  0  0  0  0  0  0  0  0  0  0  0
  146.5610  136.6395  152.8969 N   0  3  0  0  0  0  0  0  0  0  0  0
  145.7168  135.7541  152.0647 C   0  0  0  0  0  0  0  0  0  0  0  0
  146.3708  134.3755  151.8792 C   0  0  0  0  0  0  0  0  0  0  0  0
  145.4381  133.3924  151.3547 N   0  0  0  0  0  0  0  0  0  0  0  0
  145.6928  132.0996  150.9469 C   0  0  0  0  0  0  0  0  0  0  0  0
  144.5073  131.5631  150.5328 C   0  0  0  0  0  0  0  0  0  0  0  0
  143.5738  132.6213  150.7161 C   0  0  0  0  0  0  0  0  0  0  0  0
  144.1356  133.7170  151.2000 N   0  0  0  0  0  0  0  0  0  0  0  0
  153.0197  138.3546  154.9087 H   0  0  0  0  0  0  0  0  0  0  0  0
  151.9014  139.1800  155.9905 H   0  0  0  0  0  0  0  0  0  0  0  0
  152.4592  139.9726  154.5174 H   0  0  0  0  0  0  0  0  0  0  0  0
  151.2519  138.2816  153.1267 H   0  0  0  0  0  0  0  0  0  0  0  0
  150.7956  137.4026  154.5597 H   0  0  0  0  0  0  0  0  0  0  0  0
  149.8465  140.2150  153.8710 H   0  0  0  0  0  0  0  0  0  0  0  0
  149.9863  139.9095  156.3142 H   0  0  0  0  0  0  0  0  0  0  0  0
  149.0336  138.4316  156.2113 H   0  0  0  0  0  0  0  0  0  0  0  0
  148.3069  139.9834  155.7986 H   0  0  0  0  0  0  0  0  0  0  0  0
  148.8508  137.8019  152.9285 H   0  0  0  0  0  0  0  0  0  0  0  0
  145.2985  138.3140  152.9698 H   0  0  0  0  0  0  0  0  0  0  0  0
  146.3556  139.5121  151.0441 H   0  0  0  0  0  0  0  0  0  0  0  0
  145.8304  137.8992  150.5853 H   0  0  0  0  0  0  0  0  0  0  0  0
  147.5375  138.2158  150.8774 H   0  0  0  0  0  0  0  0  0  0  0  0
  147.5280  136.4290  152.6972 H   0  0  0  0  0  0  0  0  0  0  0  0
  144.7303  135.6322  152.5137 H   0  0  0  0  0  0  0  0  0  0  0  0
  145.5582  136.2315  151.0975 H   0  0  0  0  0  0  0  0  0  0  0  0
  147.2109  134.4497  151.1876 H   0  0  0  0  0  0  0  0  0  0  0  0
  146.7727  134.0127  152.8261 H   0  0  0  0  0  0  0  0  0  0  0  0
  146.6835  131.6707  150.9886 H   0  0  0  0  0  0  0  0  0  0  0  0
  144.3333  130.5669  150.1534 H   0  0  0  0  0  0  0  0  0  0  0  0
  142.5132  132.6275  150.5112 H   0  0  0  0  0  0  0  0  0  0  0  0
  146.3798  136.4377  153.8703 H   0  0  0  0  0  0  0  0  0  0  0  0
  1  2  1  0  0  0  0
  1 18  1  0  0  0  0
  1 19  1  0  0  0  0
  1 20  1  0  0  0  0
  2  3  1  0  0  0  0
  2 21  1  0  0  0  0
  2 22  1  0  0  0  0
  3  4  1  0  0  0  0
  3  5  1  0  0  0  0
  3 23  1  0  0  0  0
  4 24  1  0  0  0  0
  4 25  1  0  0  0  0
  4 26  1  0  0  0  0
  5  6  1  0  0  0  0
  5 27  1  0  0  0  0
  6  7  2  0  0  0  0
  6  8  1  0  0  0  0
  8  9  1  0  0  0  0
  8 10  1  0  0  0  0
  8 28  1  0  0  0  0
  9 29  1  0  0  0  0
  9 30  1  0  0  0  0
  9 31  1  0  0  0  0
 10 11  1  0  0  0  0
 10 32  1  0  0  0  0
 10 40  1  0  0  0  0
 11 12  1  0  0  0  0
 11 33  1  0  0  0  0
 11 34  1  0  0  0  0
 12 13  1  0  0  0  0
 12 35  1  0  0  0  0
 12 36  1  0  0  0  0
 13 17  1  0  0  0  0
 13 14  1  0  0  0  0
 14 15  2  0  0  0  0
 14 37  1  0  0  0  0
 15 16  1  0  0  0  0
 15 38  1  0  0  0  0
 16 17  2  0  0  0  0
 16 39  1  0  0  0  0
M  CHG  1  10   1
M  END
> <s_m_source_file>
AV-unprocessed.smi

> <i_m_source_file_index>
3158

> <i_lp_mmshare_version>
43012

> <i_f3d_flags>
0

> <s_epik_input>
W0NIM11bQ0gyXVtDQEhdKFtDSDNdKVtOSF1DKD1PKVtDQEhdKFtDSDNdKVtOSF1bQ0gyXVtDSDJdbjFbY0hdW2NIXVtjSF1uMQ==

> <s_epik_cmdline>
J2VwaWtfcHl0aG9uJywgJy1waCcsICc3LjAnLCAnLXRuJywgJzgnLCAnLW1hJywgJzIwMCcsICctbWV0YWxfYmluZGluZycsICctaW1hZScsICc8aW5maWxlLm1hZT4nLCAnLW9tYWUnLCAnPG91dGZpbGUubWFlPic=

> <r_lp_tautomer_probability>
1

> <r_epik_Ionization_Penalty>
0.20724

> <r_epik_Ionization_Penalty_Charging>
0.207237

> <r_epik_Ionization_Penalty_Neutral>
3.33806e-06

> <r_epik_State_Penalty>
0.197234

> <r_epik_Charging_Adjusted_Penalty>
0.404471

> <i_epik_Tot_Q>
1

> <i_epik_Tot_abs_Q>
1

> <r_epik_Metal_State_Penalty>
0.197524

> <b_epik_Metal_Only>
0

> <s_lp_Force_Field>
OPLS_2005

> <r_lp_Energy>
5.46656

> <b_lp_Chiralities_Consistent>
1

> <s_lp_Variant>
AV-unprocessed.smi:3158-3

> <Gold.Version>
5.8.1

> <Gold.Id.Protein>
6NUR|6NUR_protein|mol2

> <Gold.PLP.Fitness>
45.9922

> <Gold.PLP.PLP>
-32.1128

> <Gold.PLP.part.hbond>
-3.0000

> <Gold.PLP.part.metal>
0.0000

> <Gold.PLP.part.buried>
-1.8472

> <Gold.PLP.part.nonpolar>
-29.0835

> <Gold.PLP.part.repulsive>
0.3163

> <Gold.PLP.ligand.clash>
0.0000

> <Gold.PLP.ligand.torsion>
0.6011

> <Gold.PLP.Chemscore.Hbond>
3.0000

> <Gold.PLP.Chemscore.CHOScore>
1.9964

> <Gold.PLP.Chemscore.Metal>
0.0000

> <Gold.Chemscore.Hbonds>
donor molecule, donor type, donor heavy atom, donor atom, acceptor molecule, acceptor atom, score
      L1  H     5    27       P1  7948  1.00
      L1  H    10    32       P1  7948  2.00
      L1  C    14    37       P1 10747  0.99
      L1  C    16    39       P1 10186  1.00

> <Gold.PLP.Chemscore.Internal.Correction>
0.0925

> <Gold.Rescore>
     Score         DG    S(hbond)    S(metal)    S(lipo)     H(rot)  DE(clash)    DE(int)     intcor
     14.45     -16.14       1.99        0.00      82.74       2.21       0.08       1.61       ----

> <Gold.Chemscore.Fitness>
14.4500

> <Gold.Chemscore.DG>
-16.1405

> <Gold.Chemscore.ZeroCoef>
-5.4800

> <Gold.Chemscore.Hbond>
1.9898

> <Gold.Chemscore.Metal>
0.0000

> <Gold.Chemscore.Lipo>
82.7374

> <Gold.Chemscore.Internal_Hbond>
0.0000

> <Gold.Chemscore.DEClash>
0.0815

> <Gold.Chemscore.DEInternal>
1.6090

> <Gold.Chemscore.Rot>
2.2132

> <Gold.Chemscore.Internal.Correction>
   9.000000E+99

> <Gold.Chemscore.Hbonds>
donor molecule, donor type, donor heavy atom, donor atom, acceptor molecule, acceptor atom, score
      L1  H     5    27       P1  7948  1.00
      L1  H    10    32       P1  7948  0.99

> <Gold.Chemscore.Hbond.Weighted>
-6.6461

> <Gold.Chemscore.Metal.Weighted>
-0.0000

> <Gold.Chemscore.Lipo.Weighted>
-9.6803

> <Gold.Chemscore.Internal_Hbond.Weighted>
0.0000

> <Gold.Chemscore.DEClash.Weighted>
0.0815

> <Gold.Chemscore.DEInternal.Weighted>
1.6090

> <Gold.Chemscore.Rot.Weighted>
5.6658

> <Gold.Chemscore.Internal.Correction.Weighted>
   9.000000E+99

> <Gold.Protein.RotatedTorsions>
[ 6907 6896 6895 6894 ] final -111.31 input  -60.11 | X-H torsion
[ 7974 7965 7964 7962 ] final  178.66 input  175.53 | X-H torsion
[ 8008 7997 7996 7995 ] final -155.79 input   59.86 | X-H torsion
[ 10167 10162 10161 10158 ] final   90.06 input  -65.29 | X-H torsion
[ 10718 10713 10712 10709 ] final -123.32 input   66.30 | X-H torsion
[ 10763 10752 10751 10750 ] final  -50.01 input  -60.55 | X-H torsion
[ 11005 11000 10999 10996 ] final   35.51 input  -57.11 | X-H torsion

> <Gold.Protein.ActiveResidues>
 VAL166  LYS551  ARG553  GLY616  TRP617  ASP618  TYR619  PRO620  LYS621  CYS622 
 ASP623  PHE694  ASN695  SER759  ASP760  ASP761  ALA762  ILE779  LEU786  VAL792 
 PHE793  MET794  SER795  GLU796  ALA797  LYS798  CYS799  TRP800  GLU811  SER814 

> <Gold.Protein.RotatedAtoms>
  150.7682  133.9254  159.3410 H   0  0  0  0  0  0  0  0  0  0  0  0  # atno 6907 bound_to 6896
  151.7147  135.0904  160.0283 H   0  0  0  0  0  0  0  0  0  0  0  0  # atno 6908 bound_to 6896
  152.3687  133.6353  159.6106 H   0  0  0  0  0  0  0  0  0  0  0  0  # atno 6909 bound_to 6896
  144.7154  140.0431  143.6437 H   0  0  0  0  0  0  0  0  0  0  0  0  # atno 7974 bound_to 7965
  155.7073  140.0774  157.2386 H   0  0  0  0  0  0  0  0  0  0  0  0  # atno 8008 bound_to 7997
  154.4064  140.1636  156.2310 H   0  0  0  0  0  0  0  0  0  0  0  0  # atno 8009 bound_to 7997
  155.9314  140.3391  155.6255 H   0  0  0  0  0  0  0  0  0  0  0  0  # atno 8010 bound_to 7997
  139.8511  144.6593  150.9169 H   0  0  0  0  0  0  0  0  0  0  0  0  # atno 10167 bound_to 10162
  156.1492  130.6522  150.9888 H   0  0  0  0  0  0  0  0  0  0  0  0  # atno 10718 bound_to 10713
  154.1034  135.6560  153.4872 H   0  0  0  0  0  0  0  0  0  0  0  0  # atno 10763 bound_to 10752
  153.0281  135.5230  154.7263 H   0  0  0  0  0  0  0  0  0  0  0  0  # atno 10764 bound_to 10752
  154.6422  135.2990  155.0059 H   0  0  0  0  0  0  0  0  0  0  0  0  # atno 10765 bound_to 10752
  140.2419  134.3404  155.7922 H   0  0  0  0  0  0  0  0  0  0  0  0  # atno 11005 bound_to 11000
  146.0007  139.3088  143.0929 LP  0  0  0  0  0  0  0  0  0  0  0  0  # atno 17320 bound_to 7965
  145.8797  140.9370  143.0608 LP  0  0  0  0  0  0  0  0  0  0  0  0  # atno 17321 bound_to 7965
  140.7787  143.3827  151.1449 LP  0  0  0  0  0  0  0  0  0  0  0  0  # atno 17342 bound_to 10162
  139.7465  143.8844  152.3065 LP  0  0  0  0  0  0  0  0  0  0  0  0  # atno 17343 bound_to 10162
  157.6642  131.0875  150.7767 LP  0  0  0  0  0  0  0  0  0  0  0  0  # atno 17370 bound_to 10713
  156.7836  130.4867  149.5397 LP  0  0  0  0  0  0  0  0  0  0  0  0  # atno 17371 bound_to 10713
  141.2209  133.7304  156.8900 LP  0  0  0  0  0  0  0  0  0  0  0  0  # atno 17394 bound_to 11000
  140.1644  134.9143  157.2755 LP  0  0  0  0  0  0  0  0  0  0  0  0  # atno 17395 bound_to 11000

$$$$
