AV-unprocessed.smi:757|AV-procd|sdf|3615|dock2
  -GOLD-   22720 1 13D 1   1.00000     0.00000
 Structure written by MMmdl.
 45 46  0  0  0  0  0  0  0  0  2 V2000
  146.4110  128.7858  151.6686 C   0  0  0  0  0  0  0  0  0  0  0  0
  145.9724  129.9132  151.5032 C   0  0  0  0  0  0  0  0  0  0  0  0
  145.4309  131.2665  151.2988 C   0  0  0  0  0  0  0  0  0  0  0  0
  145.6191  132.1839  152.5208 C   0  0  0  0  0  0  0  0  0  0  0  0
  145.0806  133.5491  152.2933 N   0  3  2  0  0  0  0  0  0  0  0  0
  145.7585  134.2381  151.1646 C   0  0  0  0  0  0  0  0  0  0  0  0
  145.0947  135.5923  150.8525 C   0  0  0  0  0  0  0  0  0  0  0  0
  145.0342  136.5060  152.0883 C   0  0  2  0  0  0  0  0  0  0  0  0
  146.3679  137.0064  152.4219 N   0  0  0  0  0  0  0  0  0  0  0  0
  146.6351  137.9491  153.3374 C   0  0  0  0  0  0  0  0  0  0  0  0
  145.7691  138.4866  154.0265 O   0  0  0  0  0  0  0  0  0  0  0  0
  147.9538  138.2000  153.4051 N   0  0  0  0  0  0  0  0  0  0  0  0
  148.6415  139.1257  154.2366 C   0  0  0  0  0  0  0  0  0  0  0  0
  148.0289  139.9016  155.2498 C   0  0  0  0  0  0  0  0  0  0  0  0
  148.8209  140.7966  155.9942 C   0  0  0  0  0  0  0  0  0  0  0  0
  150.1956  140.8969  155.7021 C   0  0  0  0  0  0  0  0  0  0  0  0
  150.9644  141.7755  156.4374 O   0  0  0  0  0  0  0  0  0  0  0  0
  150.4308  142.2847  157.6549 C   0  0  0  0  0  0  0  0  0  0  0  0
  150.7869  140.1664  154.7247 N   0  0  0  0  0  0  0  0  0  0  0  0
  150.0219  139.3110  154.0147 C   0  0  0  0  0  0  0  0  0  0  0  0
  144.3915  135.7438  153.2641 C   0  0  0  0  0  0  0  0  0  0  0  0
  145.0769  134.3900  153.5199 C   0  0  0  0  0  0  0  0  0  0  0  0
  146.7916  127.7990  151.8100 H   0  0  0  0  0  0  0  0  0  0  0  0
  145.9279  131.6899  150.4254 H   0  0  0  0  0  0  0  0  0  0  0  0
  144.3776  131.1502  151.0458 H   0  0  0  0  0  0  0  0  0  0  0  0
  145.1606  131.7503  153.4115 H   0  0  0  0  0  0  0  0  0  0  0  0
  146.6881  132.2562  152.7291 H   0  0  0  0  0  0  0  0  0  0  0  0
  146.8143  134.3771  151.4031 H   0  0  0  0  0  0  0  0  0  0  0  0
  145.7173  133.6116  150.2726 H   0  0  0  0  0  0  0  0  0  0  0  0
  145.6226  136.0903  150.0381 H   0  0  0  0  0  0  0  0  0  0  0  0
  144.0812  135.4145  150.4906 H   0  0  0  0  0  0  0  0  0  0  0  0
  144.4079  137.3654  151.8419 H   0  0  0  0  0  0  0  0  0  0  0  0
  147.1429  136.6212  151.9020 H   0  0  0  0  0  0  0  0  0  0  0  0
  148.5453  137.6254  152.8228 H   0  0  0  0  0  0  0  0  0  0  0  0
  146.9735  139.8422  155.4639 H   0  0  0  0  0  0  0  0  0  0  0  0
  148.3795  141.3996  156.7740 H   0  0  0  0  0  0  0  0  0  0  0  0
  151.1535  142.9613  158.1106 H   0  0  0  0  0  0  0  0  0  0  0  0
  150.2316  141.4842  158.3689 H   0  0  0  0  0  0  0  0  0  0  0  0
  149.5128  142.8487  157.4832 H   0  0  0  0  0  0  0  0  0  0  0  0
  150.5328  138.7517  153.2444 H   0  0  0  0  0  0  0  0  0  0  0  0
  144.4077  136.3482  154.1717 H   0  0  0  0  0  0  0  0  0  0  0  0
  143.3380  135.5698  153.0410 H   0  0  0  0  0  0  0  0  0  0  0  0
  144.5512  133.8820  154.3273 H   0  0  0  0  0  0  0  0  0  0  0  0
  146.1015  134.5440  153.8620 H   0  0  0  0  0  0  0  0  0  0  0  0
  144.1172  133.4317  152.0127 H   0  0  0  0  0  0  0  0  0  0  0  0
  1  2  3  0  0  0  0
  1 23  1  0  0  0  0
  2  3  1  0  0  0  0
  3  4  1  0  0  0  0
  3 24  1  0  0  0  0
  3 25  1  0  0  0  0
  4  5  1  0  0  0  0
  4 26  1  0  0  0  0
  4 27  1  0  0  0  0
  5 22  1  0  0  0  0
  5  6  1  0  0  0  0
  5 45  1  0  0  0  0
  6  7  1  0  0  0  0
  6 28  1  0  0  0  0
  6 29  1  0  0  0  0
  7  8  1  0  0  0  0
  7 30  1  0  0  0  0
  7 31  1  0  0  0  0
  8  9  1  0  0  0  0
  8 21  1  0  0  0  0
  8 32  1  0  0  0  0
  9 10  1  0  0  0  0
  9 33  1  0  0  0  0
 10 11  2  0  0  0  0
 10 12  1  0  0  0  0
 12 13  1  0  0  0  0
 12 34  1  0  0  0  0
 13 20  1  0  0  0  0
 13 14  2  0  0  0  0
 14 15  1  0  0  0  0
 14 35  1  0  0  0  0
 15 16  2  0  0  0  0
 15 36  1  0  0  0  0
 16 17  1  0  0  0  0
 16 19  1  0  0  0  0
 17 18  1  0  0  0  0
 18 37  1  0  0  0  0
 18 38  1  0  0  0  0
 18 39  1  0  0  0  0
 19 20  2  0  0  0  0
 20 40  1  0  0  0  0
 21 22  1  0  0  0  0
 21 41  1  0  0  0  0
 21 42  1  0  0  0  0
 22 43  1  0  0  0  0
 22 44  1  0  0  0  0
M  CHG  1   5   1
M  END
> <s_m_source_file>
AV-unprocessed.smi

> <i_m_source_file_index>
757

> <i_lp_mmshare_version>
43012

> <i_f3d_flags>
0

> <s_epik_input>
W0NIXSNDW0NIMl1bQ0gyXU4xW0NIMl1bQ0gyXVtDSF0oW0NIMl1bQ0gyXTEpW05IXUMoPU8pW05IXWMyW2NIXVtjSF1jKE9bQ0gzXSluW2NIXTI=

> <s_epik_cmdline>
J2VwaWtfcHl0aG9uJywgJy1waCcsICc3LjAnLCAnLXRuJywgJzgnLCAnLW1hJywgJzIwMCcsICctbWV0YWxfYmluZGluZycsICctaW1hZScsICc8aW5maWxlLm1hZT4nLCAnLW9tYWUnLCAnPG91dGZpbGUubWFlPic=

> <r_lp_tautomer_probability>
1

> <r_epik_Ionization_Penalty>
0.0402573

> <r_epik_Ionization_Penalty_Charging>
0.0401786

> <r_epik_Ionization_Penalty_Neutral>
7.86509e-05

> <r_epik_State_Penalty>
0.0338029

> <r_epik_Charging_Adjusted_Penalty>
0.0739815

> <i_epik_Tot_Q>
1

> <i_epik_Tot_abs_Q>
1

> <r_epik_Metal_State_Penalty>
0.0338035

> <b_epik_Metal_Only>
0

> <s_lp_Force_Field>
OPLS_2005

> <r_lp_Energy>
19.9555

> <b_lp_Chiralities_Consistent>
1

> <s_lp_Variant>
AV-unprocessed.smi:757-2

> <Gold.Version>
5.8.1

> <Gold.Id.Protein>
6NUR|6NUR_protein|mol2

> <Gold.PLP.Fitness>
42.9016

> <Gold.PLP.PLP>
-33.4631

> <Gold.PLP.part.hbond>
-3.0868

> <Gold.PLP.part.metal>
0.0000

> <Gold.PLP.part.buried>
-4.6681

> <Gold.PLP.part.nonpolar>
-26.5842

> <Gold.PLP.part.repulsive>
0.3598

> <Gold.PLP.ligand.clash>
0.0000

> <Gold.PLP.ligand.torsion>
0.2745

> <Gold.PLP.Chemscore.Hbond>
2.9760

> <Gold.PLP.Chemscore.CHOScore>
0.3381

> <Gold.PLP.Chemscore.Metal>
0.0000

> <Gold.Chemscore.Hbonds>
donor molecule, donor type, donor heavy atom, donor atom, acceptor molecule, acceptor atom, score
      L1  H     9    33       P1  7948  0.98
      L1  H    12    34       P1  7948  1.00
      P1  H  7989  7998       L1    19  1.00
      L1  C    20    40       P1  7957  0.32

> <Gold.PLP.Chemscore.Internal.Correction>
0.0452

> <Gold.Rescore>
     Score         DG    S(hbond)    S(metal)    S(lipo)     H(rot)  DE(clash)    DE(int)     intcor
     17.12     -18.86       2.28        0.00      83.89       1.59       0.27       1.47       ----

> <Gold.Chemscore.Fitness>
17.1204

> <Gold.Chemscore.DG>
-18.8619

> <Gold.Chemscore.ZeroCoef>
-5.4800

> <Gold.Chemscore.Hbond>
2.2850

> <Gold.Chemscore.Metal>
0.0000

> <Gold.Chemscore.Lipo>
83.8889

> <Gold.Chemscore.Internal_Hbond>
0.0000

> <Gold.Chemscore.DEClash>
0.2713

> <Gold.Chemscore.DEInternal>
1.4701

> <Gold.Chemscore.Rot>
1.5879

> <Gold.Chemscore.Internal.Correction>
   9.000000E+99

> <Gold.Chemscore.Hbonds>
donor molecule, donor type, donor heavy atom, donor atom, acceptor molecule, acceptor atom, score
      L1  H     9    33       P1  7948  0.93
      L1  H    12    34       P1  7948  0.99
      P1  H  7989  7998       L1    19  0.25

> <Gold.Chemscore.Hbond.Weighted>
-7.6318

> <Gold.Chemscore.Metal.Weighted>
-0.0000

> <Gold.Chemscore.Lipo.Weighted>
-9.8150

> <Gold.Chemscore.Internal_Hbond.Weighted>
0.0000

> <Gold.Chemscore.DEClash.Weighted>
0.2713

> <Gold.Chemscore.DEInternal.Weighted>
1.4701

> <Gold.Chemscore.Rot.Weighted>
4.0649

> <Gold.Chemscore.Internal.Correction.Weighted>
   9.000000E+99

> <Gold.Protein.RotatedTorsions>
[ 6907 6896 6895 6894 ] final  164.79 input  -60.11 | X-H torsion
[ 7974 7965 7964 7962 ] final   -8.44 input  175.53 | X-H torsion
[ 8008 7997 7996 7995 ] final  157.68 input   59.86 | X-H torsion
[ 10167 10162 10161 10158 ] final  106.68 input  -65.29 | X-H torsion
[ 10718 10713 10712 10709 ] final  -55.32 input   66.30 | X-H torsion
[ 10763 10752 10751 10750 ] final -107.27 input  -60.55 | X-H torsion
[ 11005 11000 10999 10996 ] final    5.87 input  -57.11 | X-H torsion

> <Gold.Protein.ActiveResidues>
 VAL166  LYS551  ARG553  GLY616  TRP617  ASP618  TYR619  PRO620  LYS621  CYS622 
 ASP623  PHE694  ASN695  SER759  ASP760  ASP761  ALA762  ILE779  LEU786  VAL792 
 PHE793  MET794  SER795  GLU796  ALA797  LYS798  CYS799  TRP800  GLU811  SER814 

> <Gold.Protein.RotatedAtoms>
  151.9044  133.3546  159.3841 H   0  0  0  0  0  0  0  0  0  0  0  0  # atno 6907 bound_to 6896
  150.7072  134.4796  159.5473 H   0  0  0  0  0  0  0  0  0  0  0  0  # atno 6908 bound_to 6896
  152.2390  134.8247  160.0514 H   0  0  0  0  0  0  0  0  0  0  0  0  # atno 6909 bound_to 6896
  146.2280  140.2468  142.8345 H   0  0  0  0  0  0  0  0  0  0  0  0  # atno 7974 bound_to 7965
  156.2349  140.1879  156.7146 H   0  0  0  0  0  0  0  0  0  0  0  0  # atno 8008 bound_to 7997
  154.6088  140.0625  156.9494 H   0  0  0  0  0  0  0  0  0  0  0  0  # atno 8009 bound_to 7997
  155.2050  140.3295  155.4340 H   0  0  0  0  0  0  0  0  0  0  0  0  # atno 8010 bound_to 7997
  139.6989  144.7097  151.1219 H   0  0  0  0  0  0  0  0  0  0  0  0  # atno 10167 bound_to 10162
  156.1378  130.4156  150.0155 H   0  0  0  0  0  0  0  0  0  0  0  0  # atno 10718 bound_to 10713
  154.8065  135.4681  154.0406 H   0  0  0  0  0  0  0  0  0  0  0  0  # atno 10763 bound_to 10752
  153.1870  135.6849  153.8409 H   0  0  0  0  0  0  0  0  0  0  0  0  # atno 10764 bound_to 10752
  153.7939  135.3239  155.3359 H   0  0  0  0  0  0  0  0  0  0  0  0  # atno 10765 bound_to 10752
  140.5659  134.0148  155.7989 H   0  0  0  0  0  0  0  0  0  0  0  0  # atno 11005 bound_to 11000
  144.9442  140.8110  143.5612 LP  0  0  0  0  0  0  0  0  0  0  0  0  # atno 17320 bound_to 7965
  145.2423  139.2067  143.4986 LP  0  0  0  0  0  0  0  0  0  0  0  0  # atno 17321 bound_to 7965
  140.7704  143.5452  150.9267 LP  0  0  0  0  0  0  0  0  0  0  0  0  # atno 17342 bound_to 10162
  139.9133  143.6694  152.3111 LP  0  0  0  0  0  0  0  0  0  0  0  0  # atno 17343 bound_to 10162
  156.8049  130.9304  151.3645 LP  0  0  0  0  0  0  0  0  0  0  0  0  # atno 17370 bound_to 10713
  157.6548  130.8915  149.9707 LP  0  0  0  0  0  0  0  0  0  0  0  0  # atno 17371 bound_to 10713
  141.1086  133.9653  157.2951 LP  0  0  0  0  0  0  0  0  0  0  0  0  # atno 17394 bound_to 11000
  139.9385  135.0194  156.8634 LP  0  0  0  0  0  0  0  0  0  0  0  0  # atno 17395 bound_to 11000

$$$$
