AV-unprocessed.smi:3093|AV-procd|sdf|11786|dock3
  -GOLD-   2272017163D 1   1.00000     0.00000
 Structure written by MMmdl.
 25 26  0  0  0  0  0  0  0  0  2 V2000
  148.1631  141.3356  155.3659 C   0  0  0  0  0  0  0  0  0  0  0  0
  149.2131  140.8459  154.5402 C   0  0  0  0  0  0  0  0  0  0  0  0
  150.3975  140.9195  155.1257 N   0  0  0  0  0  0  0  0  0  0  0  0
  150.1468  141.4670  156.3352 N   0  0  0  0  0  0  0  0  0  0  0  0
  151.2317  141.6774  157.2792 C   0  0  0  0  0  0  0  0  0  0  0  0
  151.5380  143.1672  157.5302 C   0  0  2  0  0  0  0  0  0  0  0  0
  152.5165  143.4075  158.6819 C   0  0  0  0  0  0  0  0  0  0  0  0
  152.2053  144.8406  159.0970 C   0  0  0  0  0  0  0  0  0  0  0  0
  150.6907  144.9465  158.9009 C   0  0  0  0  0  0  0  0  0  0  0  0
  150.3293  143.9419  157.8802 N   0  3  0  0  0  0  0  0  0  0  0  0
  148.8014  141.7157  156.5116 C   0  0  0  0  0  0  0  0  0  0  0  0
  147.1060  141.3919  155.1524 H   0  0  0  0  0  0  0  0  0  0  0  0
  149.1501  140.4391  153.5416 H   0  0  0  0  0  0  0  0  0  0  0  0
  150.9762  141.1809  158.2164 H   0  0  0  0  0  0  0  0  0  0  0  0
  152.1180  141.1747  156.8904 H   0  0  0  0  0  0  0  0  0  0  0  0
  151.9609  143.6193  156.6314 H   0  0  0  0  0  0  0  0  0  0  0  0
  152.3060  142.7303  159.5112 H   0  0  0  0  0  0  0  0  0  0  0  0
  153.5574  143.2678  158.3884 H   0  0  0  0  0  0  0  0  0  0  0  0
  152.5181  145.0660  160.1169 H   0  0  0  0  0  0  0  0  0  0  0  0
  152.7151  145.5355  158.4282 H   0  0  0  0  0  0  0  0  0  0  0  0
  150.1689  144.6990  159.8258 H   0  0  0  0  0  0  0  0  0  0  0  0
  150.3839  145.9481  158.5985 H   0  0  0  0  0  0  0  0  0  0  0  0
  149.9567  144.3869  157.0534 H   0  0  0  0  0  0  0  0  0  0  0  0
  148.4128  142.1381  157.4268 H   0  0  0  0  0  0  0  0  0  0  0  0
  149.6351  143.3212  158.2711 H   0  0  0  0  0  0  0  0  0  0  0  0
  1 11  2  0  0  0  0
  1  2  1  0  0  0  0
  1 12  1  0  0  0  0
  2  3  2  0  0  0  0
  2 13  1  0  0  0  0
  3  4  1  0  0  0  0
  4  5  1  0  0  0  0
  4 11  1  0  0  0  0
  5  6  1  0  0  0  0
  5 14  1  0  0  0  0
  5 15  1  0  0  0  0
  6 10  1  0  0  0  0
  6  7  1  0  0  0  0
  6 16  1  0  0  0  0
  7  8  1  0  0  0  0
  7 17  1  0  0  0  0
  7 18  1  0  0  0  0
  8  9  1  0  0  0  0
  8 19  1  0  0  0  0
  8 20  1  0  0  0  0
  9 10  1  0  0  0  0
  9 21  1  0  0  0  0
  9 22  1  0  0  0  0
 10 23  1  0  0  0  0
 10 25  1  0  0  0  0
 11 24  1  0  0  0  0
M  CHG  1  10   1
M  END
> <s_m_source_file>
AV-unprocessed.smi

> <i_m_source_file_index>
3093

> <i_lp_mmshare_version>
43012

> <i_f3d_flags>
0

> <s_epik_input>
W2NIXTFbY0hdW2NIXW5uMVtDSDJdW0NAQEhdMltDSDJdW0NIMl1bQ0gyXVtOSF0y

> <s_epik_cmdline>
J2VwaWtfcHl0aG9uJywgJy1waCcsICc3LjAnLCAnLXRuJywgJzgnLCAnLW1hJywgJzIwMCcsICctbWV0YWxfYmluZGluZycsICctaW1hZScsICc8aW5maWxlLm1hZT4nLCAnLW9tYWUnLCAnPG91dGZpbGUubWFlPic=

> <r_lp_tautomer_probability>
1

> <r_epik_Ionization_Penalty>
0.000867737

> <r_epik_Ionization_Penalty_Charging>
0.000863359

> <r_epik_Ionization_Penalty_Neutral>
4.37747e-06

> <r_epik_State_Penalty>
0.000557253

> <r_epik_Charging_Adjusted_Penalty>
0.00142061

> <i_epik_Tot_Q>
1

> <i_epik_Tot_abs_Q>
1

> <r_epik_Metal_State_Penalty>
-0

> <b_epik_Metal_Only>
0

> <s_lp_Force_Field>
OPLS_2005

> <r_lp_Energy>
25.0009

> <b_lp_Chiralities_Consistent>
1

> <s_lp_Variant>
AV-unprocessed.smi:3093-1

> <Gold.Version>
5.8.1

> <Gold.Id.Protein>
6NUR|6NUR_protein|mol2

> <Gold.PLP.Fitness>
37.6203

> <Gold.PLP.PLP>
-26.5451

> <Gold.PLP.part.hbond>
-2.4530

> <Gold.PLP.part.metal>
0.0000

> <Gold.PLP.part.buried>
-2.4095

> <Gold.PLP.part.nonpolar>
-22.2001

> <Gold.PLP.part.repulsive>
0.1186

> <Gold.PLP.ligand.clash>
0.0000

> <Gold.PLP.ligand.torsion>
0.1161

> <Gold.PLP.Chemscore.Hbond>
2.7680

> <Gold.PLP.Chemscore.CHOScore>
1.0000

> <Gold.PLP.Chemscore.Metal>
0.0000

> <Gold.Chemscore.Hbonds>
donor molecule, donor type, donor heavy atom, donor atom, acceptor molecule, acceptor atom, score
      L1  H    10    23       P1  8028  2.00
      P1  H  7989  7998       L1     3  0.76
      L1  C     2    13       P1  7957  1.00

> <Gold.PLP.Chemscore.Internal.Correction>
0.0034

> <Gold.Rescore>
     Score         DG    S(hbond)    S(metal)    S(lipo)     H(rot)  DE(clash)    DE(int)     intcor
     14.93     -16.01       1.58        0.00      71.30       1.21       0.20       0.87       ----

> <Gold.Chemscore.Fitness>
14.9350

> <Gold.Chemscore.DG>
-16.0109

> <Gold.Chemscore.ZeroCoef>
-5.4800

> <Gold.Chemscore.Hbond>
1.5796

> <Gold.Chemscore.Metal>
0.0000

> <Gold.Chemscore.Lipo>
71.2954

> <Gold.Chemscore.Internal_Hbond>
0.0000

> <Gold.Chemscore.DEClash>
0.2036

> <Gold.Chemscore.DEInternal>
0.8723

> <Gold.Chemscore.Rot>
1.2056

> <Gold.Chemscore.Internal.Correction>
   9.000000E+99

> <Gold.Chemscore.Hbonds>
donor molecule, donor type, donor heavy atom, donor atom, acceptor molecule, acceptor atom, score
      L1  H    10    23       P1  8028  0.60
      P1  H  7989  7998       L1     3  0.21

> <Gold.Chemscore.Hbond.Weighted>
-5.2758

> <Gold.Chemscore.Metal.Weighted>
-0.0000

> <Gold.Chemscore.Lipo.Weighted>
-8.3416

> <Gold.Chemscore.Internal_Hbond.Weighted>
0.0000

> <Gold.Chemscore.DEClash.Weighted>
0.2036

> <Gold.Chemscore.DEInternal.Weighted>
0.8723

> <Gold.Chemscore.Rot.Weighted>
3.0864

> <Gold.Chemscore.Internal.Correction.Weighted>
   9.000000E+99

> <Gold.Protein.RotatedTorsions>
[ 6907 6896 6895 6894 ] final -168.64 input  -60.11 | X-H torsion
[ 7974 7965 7964 7962 ] final  168.48 input  175.53 | X-H torsion
[ 8008 7997 7996 7995 ] final   93.65 input   59.86 | X-H torsion
[ 10167 10162 10161 10158 ] final  163.00 input  -65.29 | X-H torsion
[ 10718 10713 10712 10709 ] final -102.76 input   66.30 | X-H torsion
[ 10763 10752 10751 10750 ] final  129.85 input  -60.55 | X-H torsion
[ 11005 11000 10999 10996 ] final  174.79 input  -57.11 | X-H torsion

> <Gold.Protein.ActiveResidues>
 VAL166  LYS551  ARG553  GLY616  TRP617  ASP618  TYR619  PRO620  LYS621  CYS622 
 ASP623  PHE694  ASN695  SER759  ASP760  ASP761  ALA762  ILE779  LEU786  VAL792 
 PHE793  MET794  SER795  GLU796  ALA797  LYS798  CYS799  TRP800  GLU811  SER814 

> <Gold.Protein.RotatedAtoms>
  151.4788  133.3551  159.2834 H   0  0  0  0  0  0  0  0  0  0  0  0  # atno 6907 bound_to 6896
  150.8911  134.8317  159.7305 H   0  0  0  0  0  0  0  0  0  0  0  0  # atno 6908 bound_to 6896
  152.4823  134.4698  159.9683 H   0  0  0  0  0  0  0  0  0  0  0  0  # atno 6909 bound_to 6896
  144.7387  139.8914  143.6403 H   0  0  0  0  0  0  0  0  0  0  0  0  # atno 7974 bound_to 7965
  156.0491  140.3310  155.7330 H   0  0  0  0  0  0  0  0  0  0  0  0  # atno 8008 bound_to 7997
  155.5629  140.0620  157.2842 H   0  0  0  0  0  0  0  0  0  0  0  0  # atno 8009 bound_to 7997
  154.4427  140.1874  156.0789 H   0  0  0  0  0  0  0  0  0  0  0  0  # atno 8010 bound_to 7997
  139.4868  144.4381  151.8986 H   0  0  0  0  0  0  0  0  0  0  0  0  # atno 10167 bound_to 10162
  156.0240  130.5435  150.7155 H   0  0  0  0  0  0  0  0  0  0  0  0  # atno 10718 bound_to 10713
  153.7484  135.3213  155.3317 H   0  0  0  0  0  0  0  0  0  0  0  0  # atno 10763 bound_to 10752
  154.8271  135.4561  154.0956 H   0  0  0  0  0  0  0  0  0  0  0  0  # atno 10764 bound_to 10752
  153.2152  135.6941  153.8148 H   0  0  0  0  0  0  0  0  0  0  0  0  # atno 10765 bound_to 10752
  140.3552  134.7161  157.4294 H   0  0  0  0  0  0  0  0  0  0  0  0  # atno 11005 bound_to 11000
  146.1139  139.4147  143.0270 LP  0  0  0  0  0  0  0  0  0  0  0  0  # atno 17320 bound_to 7965
  145.7403  141.0010  143.1304 LP  0  0  0  0  0  0  0  0  0  0  0  0  # atno 17321 bound_to 7965
  140.3832  144.2710  150.5906 LP  0  0  0  0  0  0  0  0  0  0  0  0  # atno 17342 bound_to 10162
  140.5214  143.2265  151.8382 LP  0  0  0  0  0  0  0  0  0  0  0  0  # atno 17343 bound_to 10162
  157.4783  131.0900  151.0565 LP  0  0  0  0  0  0  0  0  0  0  0  0  # atno 17370 bound_to 10713
  157.1006  130.5980  149.5459 LP  0  0  0  0  0  0  0  0  0  0  0  0  # atno 17371 bound_to 10713
  140.0671  134.5914  155.8683 LP  0  0  0  0  0  0  0  0  0  0  0  0  # atno 17394 bound_to 11000
  141.2000  133.6610  156.5876 LP  0  0  0  0  0  0  0  0  0  0  0  0  # atno 17395 bound_to 11000

$$$$
