AV-unprocessed.smi:625|AV-procd|sdf|3106|dock5
  -GOLD-   22720 0 23D 1   1.00000     0.00000
 Structure written by MMmdl.
 49 51  0  0  0  0  0  0  0  0  1 V2000
  145.4861  135.1095  161.2355 C   0  0  0  0  0  0  0  0  0  0  0  0
  146.5942  135.4622  160.3607 N   0  0  0  0  0  0  0  0  0  0  0  0
  147.4504  136.4741  160.5852 C   0  0  0  0  0  0  0  0  0  0  0  0
  147.3515  137.1935  161.5802 O   0  0  0  0  0  0  0  0  0  0  0  0
  148.4814  136.6317  159.5551 C   0  0  0  0  0  0  0  0  0  0  0  0
  148.2436  136.0951  158.2288 C   0  0  0  0  0  0  0  0  0  0  0  0
  149.1757  136.2055  157.2622 C   0  0  0  0  0  0  0  0  0  0  0  0
  150.4601  136.8678  157.5035 C   0  0  0  0  0  0  0  0  0  0  0  0
  151.3249  136.9532  156.6314 O   0  0  0  0  0  0  0  0  0  0  0  0
  150.6404  137.3746  158.7614 N   0  0  0  0  0  0  0  0  0  0  0  0
  151.8994  138.0488  159.1303 C   0  0  0  0  0  0  0  0  0  0  0  0
  152.2061  139.3205  158.3202 C   0  0  0  0  0  0  0  0  0  0  0  0
  153.3273  139.4674  157.8357 O   0  0  0  0  0  0  0  0  0  0  0  0
  151.2264  140.2300  158.1832 N   0  0  0  0  0  0  0  0  0  0  0  0
  151.3388  141.5268  157.5239 C   0  0  1  0  0  0  0  0  0  0  0  0
  150.2885  141.6187  156.4028 C   0  0  0  0  0  0  0  0  0  0  0  0
  151.1761  142.6510  158.5758 C   0  0  2  0  0  0  0  0  0  0  0  0
  151.2780  144.0769  157.9822 C   0  0  0  0  0  0  0  0  0  0  0  0
  152.3621  144.7443  158.8470 C   0  0  1  0  0  0  0  0  0  0  0  0
  151.8228  144.9679  160.2717 C   0  0  0  0  0  0  0  0  0  0  0  0
  151.7922  143.5407  160.8492 C   0  0  0  0  0  0  0  0  0  0  0  0
  152.2812  142.6852  159.6649 C   0  0  2  0  0  0  0  0  0  0  0  0
  153.3400  143.5952  159.0514 C   0  0  0  0  0  0  0  0  0  0  0  0
  149.6634  137.2507  159.7694 C   0  0  0  0  0  0  0  0  0  0  0  0
  144.9373  134.2653  160.8182 H   0  0  0  0  0  0  0  0  0  0  0  0
  144.7943  135.9461  161.3431 H   0  0  0  0  0  0  0  0  0  0  0  0
  145.8477  134.8260  162.2249 H   0  0  0  0  0  0  0  0  0  0  0  0
  146.7210  134.9041  159.5286 H   0  0  0  0  0  0  0  0  0  0  0  0
  147.3123  135.5974  157.9991 H   0  0  0  0  0  0  0  0  0  0  0  0
  148.9727  135.7955  156.2837 H   0  0  0  0  0  0  0  0  0  0  0  0
  151.8952  138.3065  160.1909 H   0  0  0  0  0  0  0  0  0  0  0  0
  152.7410  137.3647  159.0133 H   0  0  0  0  0  0  0  0  0  0  0  0
  150.3348  140.0215  158.6089 H   0  0  0  0  0  0  0  0  0  0  0  0
  152.3310  141.6107  157.0772 H   0  0  0  0  0  0  0  0  0  0  0  0
  150.3602  142.5623  155.8623 H   0  0  0  0  0  0  0  0  0  0  0  0
  149.2761  141.5412  156.8008 H   0  0  0  0  0  0  0  0  0  0  0  0
  150.4206  140.8192  155.6732 H   0  0  0  0  0  0  0  0  0  0  0  0
  150.2046  142.5221  159.0566 H   0  0  0  0  0  0  0  0  0  0  0  0
  151.6015  144.0545  156.9407 H   0  0  0  0  0  0  0  0  0  0  0  0
  150.3279  144.6108  158.0204 H   0  0  0  0  0  0  0  0  0  0  0  0
  152.7909  145.6395  158.3954 H   0  0  0  0  0  0  0  0  0  0  0  0
  152.4974  145.6007  160.8497 H   0  0  0  0  0  0  0  0  0  0  0  0
  150.8387  145.4382  160.2712 H   0  0  0  0  0  0  0  0  0  0  0  0
  152.4765  143.4554  161.6943 H   0  0  0  0  0  0  0  0  0  0  0  0
  150.7998  143.2495  161.1953 H   0  0  0  0  0  0  0  0  0  0  0  0
  152.6492  141.7081  159.9781 H   0  0  0  0  0  0  0  0  0  0  0  0
  153.7605  143.2111  158.1207 H   0  0  0  0  0  0  0  0  0  0  0  0
  154.1542  143.8364  159.7373 H   0  0  0  0  0  0  0  0  0  0  0  0
  149.9590  137.6830  160.7147 H   0  0  0  0  0  0  0  0  0  0  0  0
  1  2  1  0  0  0  0
  1 25  1  0  0  0  0
  1 26  1  0  0  0  0
  1 27  1  0  0  0  0
  2  3  1  0  0  0  0
  2 28  1  0  0  0  0
  3  4  2  0  0  0  0
  3  5  1  0  0  0  0
  5 24  2  0  0  0  0
  5  6  1  0  0  0  0
  6  7  2  0  0  0  0
  6 29  1  0  0  0  0
  7  8  1  0  0  0  0
  7 30  1  0  0  0  0
  8  9  2  0  0  0  0
  8 10  1  0  0  0  0
 10 11  1  0  0  0  0
 10 24  1  0  0  0  0
 11 12  1  0  0  0  0
 11 31  1  0  0  0  0
 11 32  1  0  0  0  0
 12 13  2  0  0  0  0
 12 14  1  0  0  0  0
 14 15  1  0  0  0  0
 14 33  1  0  0  0  0
 15 16  1  0  0  0  0
 15 17  1  0  0  0  0
 15 34  1  0  0  0  0
 16 35  1  0  0  0  0
 16 36  1  0  0  0  0
 16 37  1  0  0  0  0
 17 22  1  0  0  0  0
 17 18  1  0  0  0  0
 17 38  1  0  0  0  0
 18 19  1  0  0  0  0
 18 39  1  0  0  0  0
 18 40  1  0  0  0  0
 19 23  1  0  0  0  0
 19 20  1  0  0  0  0
 19 41  1  0  0  0  0
 20 21  1  0  0  0  0
 20 42  1  0  0  0  0
 20 43  1  0  0  0  0
 21 22  1  0  0  0  0
 21 44  1  0  0  0  0
 21 45  1  0  0  0  0
 22 23  1  0  0  0  0
 22 46  1  0  0  0  0
 23 47  1  0  0  0  0
 23 48  1  0  0  0  0
 24 49  1  0  0  0  0
M  END
> <s_m_source_file>
AV-unprocessed.smi

> <i_m_source_file_index>
625

> <i_lp_mmshare_version>
43012

> <i_f3d_flags>
0

> <s_epik_input>
W0NIM11bTkhdQyg9TyljMVtjSF1bY0hdYyg9TyluKFtjSF0xKVtDSDJdQyg9TylbTkhdW0NASF0oW0NIM10pW0NASF0oW0NIMl1bQ0BIXTIzKVtDQEhdKFtDSDJdMylbQ0gyXVtDSDJdMg==

> <s_epik_cmdline>
J2VwaWtfcHl0aG9uJywgJy1waCcsICc3LjAnLCAnLXRuJywgJzgnLCAnLW1hJywgJzIwMCcsICctbWV0YWxfYmluZGluZycsICctaW1hZScsICc8aW5maWxlLm1hZT4nLCAnLW9tYWUnLCAnPG91dGZpbGUubWFlPic=

> <r_lp_tautomer_probability>
1

> <r_epik_Ionization_Penalty>
3.7129e-07

> <r_epik_Ionization_Penalty_Charging>
5.04114e-08

> <r_epik_Ionization_Penalty_Neutral>
3.20879e-07

> <r_epik_State_Penalty>
-0

> <r_epik_Charging_Adjusted_Penalty>
5.04114e-08

> <i_epik_Tot_Q>
0

> <i_epik_Tot_abs_Q>
0

> <r_epik_Metal_State_Penalty>
-0

> <b_epik_Metal_Only>
0

> <s_lp_Force_Field>
OPLS_2005

> <r_lp_Energy>
63.073

> <b_lp_Chiralities_Consistent>
1

> <s_lp_Variant>
AV-unprocessed.smi:625-6

> <Gold.Version>
5.8.1

> <Gold.Id.Protein>
6NUR|6NUR_protein|mol2

> <Gold.PLP.Fitness>
51.5790

> <Gold.PLP.PLP>
-44.1029

> <Gold.PLP.part.hbond>
-3.0000

> <Gold.PLP.part.metal>
0.0000

> <Gold.PLP.part.buried>
-3.3988

> <Gold.PLP.part.nonpolar>
-37.4618

> <Gold.PLP.part.repulsive>
0.1384

> <Gold.PLP.ligand.clash>
0.0000

> <Gold.PLP.ligand.torsion>
0.3831

> <Gold.PLP.Chemscore.Hbond>
2.7373

> <Gold.PLP.Chemscore.CHOScore>
0.0000

> <Gold.PLP.Chemscore.Metal>
0.0000

> <Gold.Chemscore.Hbonds>
donor molecule, donor type, donor heavy atom, donor atom, acceptor molecule, acceptor atom, score
      P1  H  6931  6943       L1     4  0.90
      P1  H  6934  6947       L1     4  0.88
      P1  H  7997  8008       L1    13  1.00

> <Gold.PLP.Chemscore.Internal.Correction>
0.0305

> <Gold.Rescore>
     Score         DG    S(hbond)    S(metal)    S(lipo)     H(rot)  DE(clash)    DE(int)     intcor
     22.78     -23.23       2.53        0.00     116.01       1.67       0.00       0.46       ----

> <Gold.Chemscore.Fitness>
22.7756

> <Gold.Chemscore.DG>
-23.2320

> <Gold.Chemscore.ZeroCoef>
-5.4800

> <Gold.Chemscore.Hbond>
2.5319

> <Gold.Chemscore.Metal>
0.0000

> <Gold.Chemscore.Lipo>
116.0059

> <Gold.Chemscore.Internal_Hbond>
0.0000

> <Gold.Chemscore.DEClash>
0.0000

> <Gold.Chemscore.DEInternal>
0.4564

> <Gold.Chemscore.Rot>
1.6709

> <Gold.Chemscore.Internal.Correction>
   9.000000E+99

> <Gold.Chemscore.Hbonds>
donor molecule, donor type, donor heavy atom, donor atom, acceptor molecule, acceptor atom, score
      P1  H  6931  6943       L1     4  0.69
      P1  H  6934  6947       L1     4  0.52
      P1  H  7997  8008       L1    13  0.97

> <Gold.Chemscore.Hbond.Weighted>
-8.4567

> <Gold.Chemscore.Metal.Weighted>
-0.0000

> <Gold.Chemscore.Lipo.Weighted>
-13.5727

> <Gold.Chemscore.Internal_Hbond.Weighted>
0.0000

> <Gold.Chemscore.DEClash.Weighted>
0.0000

> <Gold.Chemscore.DEInternal.Weighted>
0.4564

> <Gold.Chemscore.Rot.Weighted>
4.2774

> <Gold.Chemscore.Internal.Correction.Weighted>
   9.000000E+99

> <Gold.Protein.RotatedTorsions>
[ 6907 6896 6895 6894 ] final   37.44 input  -60.11 | X-H torsion
[ 7974 7965 7964 7962 ] final -172.06 input  175.53 | X-H torsion
[ 8008 7997 7996 7995 ] final  -64.60 input   59.86 | X-H torsion
[ 10167 10162 10161 10158 ] final  -26.92 input  -65.29 | X-H torsion
[ 10718 10713 10712 10709 ] final   53.73 input   66.30 | X-H torsion
[ 10763 10752 10751 10750 ] final   91.34 input  -60.55 | X-H torsion
[ 11005 11000 10999 10996 ] final -151.59 input  -57.11 | X-H torsion

> <Gold.Protein.ActiveResidues>
 VAL166  LYS551  ARG553  GLY616  TRP617  ASP618  TYR619  PRO620  LYS621  CYS622 
 ASP623  PHE694  ASN695  SER759  ASP760  ASP761  ALA762  ILE779  LEU786  VAL792 
 PHE793  MET794  SER795  GLU796  ALA797  LYS798  CYS799  TRP800  GLU811  SER814 

> <Gold.Protein.RotatedAtoms>
  152.1432  134.9046  160.0552 H   0  0  0  0  0  0  0  0  0  0  0  0  # atno 6907 bound_to 6896
  152.0107  133.3855  159.4226 H   0  0  0  0  0  0  0  0  0  0  0  0  # atno 6908 bound_to 6896
  150.6867  134.3655  159.5013 H   0  0  0  0  0  0  0  0  0  0  0  0  # atno 6909 bound_to 6896
  144.7150  140.1829  143.6356 H   0  0  0  0  0  0  0  0  0  0  0  0  # atno 7974 bound_to 7965
  154.4621  140.0950  156.6921 H   0  0  0  0  0  0  0  0  0  0  0  0  # atno 8008 bound_to 7997
  155.4964  140.3472  155.4345 H   0  0  0  0  0  0  0  0  0  0  0  0  # atno 8009 bound_to 7997
  156.0890  140.1392  156.9605 H   0  0  0  0  0  0  0  0  0  0  0  0  # atno 8010 bound_to 7997
  140.7280  143.4137  151.1064 H   0  0  0  0  0  0  0  0  0  0  0  0  # atno 10167 bound_to 10162
  157.5193  130.8554  149.8538 H   0  0  0  0  0  0  0  0  0  0  0  0  # atno 10718 bound_to 10713
  153.2072  135.4401  155.0337 H   0  0  0  0  0  0  0  0  0  0  0  0  # atno 10763 bound_to 10752
  154.8180  135.3324  154.7123 H   0  0  0  0  0  0  0  0  0  0  0  0  # atno 10764 bound_to 10752
  153.7563  135.6994  153.4990 H   0  0  0  0  0  0  0  0  0  0  0  0  # atno 10765 bound_to 10752
  140.7280  134.3653  157.5172 H   0  0  0  0  0  0  0  0  0  0  0  0  # atno 11005 bound_to 11000
  145.8840  139.2338  143.1589 LP  0  0  0  0  0  0  0  0  0  0  0  0  # atno 17320 bound_to 7965
  145.9968  140.8555  143.0039 LP  0  0  0  0  0  0  0  0  0  0  0  0  # atno 17321 bound_to 7965
  139.7774  143.8406  152.3131 LP  0  0  0  0  0  0  0  0  0  0  0  0  # atno 17342 bound_to 10162
  139.8345  144.7238  150.9409 LP  0  0  0  0  0  0  0  0  0  0  0  0  # atno 17343 bound_to 10162
  156.0342  130.3756  150.1604 LP  0  0  0  0  0  0  0  0  0  0  0  0  # atno 17370 bound_to 10713
  156.9792  130.9859  151.3441 LP  0  0  0  0  0  0  0  0  0  0  0  0  # atno 17371 bound_to 10713
  139.8833  134.8999  156.2777 LP  0  0  0  0  0  0  0  0  0  0  0  0  # atno 17394 bound_to 11000
  140.9946  133.7188  156.0866 LP  0  0  0  0  0  0  0  0  0  0  0  0  # atno 17395 bound_to 11000

$$$$
