AV-unprocessed.smi:2202|AV-procd|sdf|8931|dock2
  -GOLD-   2272012143D 1   1.00000     0.00000
 Structure written by MMmdl.
 42 44  0  0  0  0  0  0  0  0  1 V2000
  152.0300  135.6299  156.9926 O   0  0  0  0  0  0  0  0  0  0  0  0
  151.6917  136.8086  157.1118 C   0  0  0  0  0  0  0  0  0  0  0  0
  152.4916  137.9330  156.4384 C   0  0  0  0  0  0  0  0  0  0  0  0
  152.2847  139.2466  157.0614 N   0  0  0  0  0  0  0  0  0  0  0  0
  152.7478  139.5918  158.2789 C   0  0  0  0  0  0  0  0  0  0  0  0
  153.4620  138.9196  159.0221 O   0  0  0  0  0  0  0  0  0  0  0  0
  152.1820  140.9530  158.6545 C   0  0  1  0  0  0  0  0  0  0  0  0
  152.9743  141.9848  159.4663 C   0  0  0  0  0  0  0  0  0  0  0  0
  152.2070  143.3106  159.4262 C   0  0  0  0  0  0  0  0  0  0  0  0
  151.2146  143.5795  158.5424 C   0  0  0  0  0  0  0  0  0  0  0  0
  150.7646  142.6071  157.4469 C   0  0  0  0  0  0  0  0  0  0  0  0
  151.8458  141.5306  157.2941 C   0  0  2  0  0  0  0  0  0  0  0  0
  151.6429  140.2714  156.4657 C   0  0  0  0  0  0  0  0  0  0  0  0
  151.0417  140.2490  155.3920 O   0  0  0  0  0  0  0  0  0  0  0  0
  150.6258  137.1965  157.8279 N   0  0  0  0  0  0  0  0  0  0  0  0
  149.7220  136.2975  158.5366 C   0  0  0  0  0  0  0  0  0  0  0  0
  148.7614  137.0708  159.4559 C   0  0  0  0  0  0  0  0  0  0  0  0
  148.3891  136.2796  160.6955 C   0  0  0  0  0  0  0  0  0  0  0  0
  148.4588  134.8699  160.6991 C   0  0  0  0  0  0  0  0  0  0  0  0
  148.0984  134.1836  161.8752 C   0  0  0  0  0  0  0  0  0  0  0  0
  147.6834  134.9291  162.9956 C   0  0  0  0  0  0  0  0  0  0  0  0
  147.6463  136.3338  162.8894 C   0  0  0  0  0  0  0  0  0  0  0  0
  147.9894  137.0015  161.7668 N   0  0  0  0  0  0  0  0  0  0  0  0
  153.5534  137.6806  156.4623 H   0  0  0  0  0  0  0  0  0  0  0  0
  152.2179  137.9682  155.3827 H   0  0  0  0  0  0  0  0  0  0  0  0
  151.2580  140.7425  159.1986 H   0  0  0  0  0  0  0  0  0  0  0  0
  153.0742  141.6546  160.5007 H   0  0  0  0  0  0  0  0  0  0  0  0
  153.9788  142.1288  159.0665 H   0  0  0  0  0  0  0  0  0  0  0  0
  152.4887  144.0549  160.1565 H   0  0  0  0  0  0  0  0  0  0  0  0
  150.6998  144.5278  158.5891 H   0  0  0  0  0  0  0  0  0  0  0  0
  149.7987  142.1755  157.7117 H   0  0  0  0  0  0  0  0  0  0  0  0
  150.6385  143.1500  156.5098 H   0  0  0  0  0  0  0  0  0  0  0  0
  152.7332  142.0108  156.8745 H   0  0  0  0  0  0  0  0  0  0  0  0
  150.4216  138.1841  157.8792 H   0  0  0  0  0  0  0  0  0  0  0  0
  149.1652  135.6881  157.8225 H   0  0  0  0  0  0  0  0  0  0  0  0
  150.3256  135.6086  159.1282 H   0  0  0  0  0  0  0  0  0  0  0  0
  149.2148  138.0163  159.7568 H   0  0  0  0  0  0  0  0  0  0  0  0
  147.8472  137.3282  158.9188 H   0  0  0  0  0  0  0  0  0  0  0  0
  148.7794  134.3256  159.8230 H   0  0  0  0  0  0  0  0  0  0  0  0
  148.1394  133.1052  161.9169 H   0  0  0  0  0  0  0  0  0  0  0  0
  147.3997  134.4367  163.9139 H   0  0  0  0  0  0  0  0  0  0  0  0
  147.3323  136.9371  163.7283 H   0  0  0  0  0  0  0  0  0  0  0  0
  1  2  2  0  0  0  0
  2  3  1  0  0  0  0
  2 15  1  0  0  0  0
  3  4  1  0  0  0  0
  3 24  1  0  0  0  0
  3 25  1  0  0  0  0
  4 13  1  0  0  0  0
  4  5  1  0  0  0  0
  5  6  2  0  0  0  0
  5  7  1  0  0  0  0
  7 12  1  0  0  0  0
  7  8  1  0  0  0  0
  7 26  1  0  0  0  0
  8  9  1  0  0  0  0
  8 27  1  0  0  0  0
  8 28  1  0  0  0  0
  9 10  2  0  0  0  0
  9 29  1  0  0  0  0
 10 11  1  0  0  0  0
 10 30  1  0  0  0  0
 11 12  1  0  0  0  0
 11 31  1  0  0  0  0
 11 32  1  0  0  0  0
 12 13  1  0  0  0  0
 12 33  1  0  0  0  0
 13 14  2  0  0  0  0
 15 16  1  0  0  0  0
 15 34  1  0  0  0  0
 16 17  1  0  0  0  0
 16 35  1  0  0  0  0
 16 36  1  0  0  0  0
 17 18  1  0  0  0  0
 17 37  1  0  0  0  0
 17 38  1  0  0  0  0
 18 23  1  0  0  0  0
 18 19  2  0  0  0  0
 19 20  1  0  0  0  0
 19 39  1  0  0  0  0
 20 21  2  0  0  0  0
 20 40  1  0  0  0  0
 21 22  1  0  0  0  0
 21 41  1  0  0  0  0
 22 23  2  0  0  0  0
 22 42  1  0  0  0  0
M  END
> <s_m_source_file>
AV-unprocessed.smi

> <i_m_source_file_index>
2202

> <i_lp_mmshare_version>
43012

> <i_f3d_flags>
0

> <s_epik_input>
W0NIMl0xW0NIXT1bQ0hdW0NIMl1bQ0BIXShbQ0BIXTEyKUMoPU8pTihDMj1PKVtDSDJdQyg9TylbTkhdW0NIMl1bQ0gyXWMzW2NIXVtjSF1bY0hdW2NIXW4z

> <s_epik_cmdline>
J2VwaWtfcHl0aG9uJywgJy1waCcsICc3LjAnLCAnLXRuJywgJzgnLCAnLW1hJywgJzIwMCcsICctbWV0YWxfYmluZGluZycsICctaW1hZScsICc8aW5maWxlLm1hZT4nLCAnLW9tYWUnLCAnPG91dGZpbGUubWFlPic=

> <r_lp_tautomer_probability>
1

> <r_epik_Ionization_Penalty>
0.0244696

> <r_epik_Ionization_Penalty_Charging>
0

> <r_epik_Ionization_Penalty_Neutral>
0.0244696

> <r_epik_State_Penalty>
0.0198648

> <r_epik_Charging_Adjusted_Penalty>
0.0198648

> <i_epik_Tot_Q>
0

> <i_epik_Tot_abs_Q>
0

> <r_epik_Metal_State_Penalty>
0.0190699

> <b_epik_Metal_Only>
0

> <s_lp_Force_Field>
OPLS_2005

> <r_lp_Energy>
20.8302

> <b_lp_Chiralities_Consistent>
1

> <s_lp_Variant>
AV-unprocessed.smi:2202-3

> <Gold.Version>
5.8.1

> <Gold.Id.Protein>
6NUR|6NUR_protein|mol2

> <Gold.PLP.Fitness>
50.9283

> <Gold.PLP.PLP>
-42.7131

> <Gold.PLP.part.hbond>
-3.3572

> <Gold.PLP.part.metal>
0.0000

> <Gold.PLP.part.buried>
-6.2665

> <Gold.PLP.part.nonpolar>
-33.0407

> <Gold.PLP.part.repulsive>
0.0873

> <Gold.PLP.ligand.clash>
0.0000

> <Gold.PLP.ligand.torsion>
0.9831

> <Gold.PLP.Chemscore.Hbond>
3.3840

> <Gold.PLP.Chemscore.CHOScore>
0.0000

> <Gold.PLP.Chemscore.Metal>
0.0000

> <Gold.Chemscore.Hbonds>
donor molecule, donor type, donor heavy atom, donor atom, acceptor molecule, acceptor atom, score
      P1  H  6931  6943       L1    23  1.00
      P1  H  6934  6947       L1    23  0.17
      P1  H  7989  7998       L1    14  0.89
      P1  H 10752 10765       L1     1  0.57

> <Gold.PLP.Chemscore.Internal.Correction>
0.0293

> <Gold.Rescore>
     Score         DG    S(hbond)    S(metal)    S(lipo)     H(rot)  DE(clash)    DE(int)     intcor
     20.01     -22.45       2.86        0.00     103.97       1.85       1.28       1.15       ----

> <Gold.Chemscore.Fitness>
20.0122

> <Gold.Chemscore.DG>
-22.4506

> <Gold.Chemscore.ZeroCoef>
-5.4800

> <Gold.Chemscore.Hbond>
2.8601

> <Gold.Chemscore.Metal>
0.0000

> <Gold.Chemscore.Lipo>
103.9675

> <Gold.Chemscore.Internal_Hbond>
0.0000

> <Gold.Chemscore.DEClash>
1.2848

> <Gold.Chemscore.DEInternal>
1.1536

> <Gold.Chemscore.Rot>
1.8540

> <Gold.Chemscore.Internal.Correction>
   9.000000E+99

> <Gold.Chemscore.Hbonds>
donor molecule, donor type, donor heavy atom, donor atom, acceptor molecule, acceptor atom, score
      P1  H  6931  6943       L1    23  0.56
      P1  H  6934  6947       L1    23  0.10
      P1  H  7989  7998       L1    14  0.83
      P1  H 10752 10765       L1     1  0.41

> <Gold.Chemscore.Hbond.Weighted>
-9.5527

> <Gold.Chemscore.Metal.Weighted>
-0.0000

> <Gold.Chemscore.Lipo.Weighted>
-12.1642

> <Gold.Chemscore.Internal_Hbond.Weighted>
0.0000

> <Gold.Chemscore.DEClash.Weighted>
1.2848

> <Gold.Chemscore.DEInternal.Weighted>
1.1536

> <Gold.Chemscore.Rot.Weighted>
4.7462

> <Gold.Chemscore.Internal.Correction.Weighted>
   9.000000E+99

> <Gold.Protein.RotatedTorsions>
[ 6907 6896 6895 6894 ] final   17.94 input  -60.11 | X-H torsion
[ 7974 7965 7964 7962 ] final -135.42 input  175.53 | X-H torsion
[ 8008 7997 7996 7995 ] final   17.55 input   59.86 | X-H torsion
[ 10167 10162 10161 10158 ] final  156.63 input  -65.29 | X-H torsion
[ 10718 10713 10712 10709 ] final   21.46 input   66.30 | X-H torsion
[ 10763 10752 10751 10750 ] final -139.60 input  -60.55 | X-H torsion
[ 11005 11000 10999 10996 ] final  -29.12 input  -57.11 | X-H torsion

> <Gold.Protein.ActiveResidues>
 VAL166  LYS551  ARG553  GLY616  TRP617  ASP618  TYR619  PRO620  LYS621  CYS622 
 ASP623  PHE694  ASN695  SER759  ASP760  ASP761  ALA762  ILE779  LEU786  VAL792 
 PHE793  MET794  SER795  GLU796  ALA797  LYS798  CYS799  TRP800  GLU811  SER814 

> <Gold.Protein.RotatedAtoms>
  151.8575  135.0536  160.0465 H   0  0  0  0  0  0  0  0  0  0  0  0  # atno 6907 bound_to 6896
  152.2688  133.5359  159.5435 H   0  0  0  0  0  0  0  0  0  0  0  0  # atno 6908 bound_to 6896
  150.7144  134.0642  159.3884 H   0  0  0  0  0  0  0  0  0  0  0  0  # atno 6909 bound_to 6896
  144.9015  140.6777  143.5082 H   0  0  0  0  0  0  0  0  0  0  0  0  # atno 7974 bound_to 7965
  154.8931  140.2990  155.5360 H   0  0  0  0  0  0  0  0  0  0  0  0  # atno 8008 bound_to 7997
  156.3020  140.2421  156.3883 H   0  0  0  0  0  0  0  0  0  0  0  0  # atno 8009 bound_to 7997
  154.8598  140.0406  157.1647 H   0  0  0  0  0  0  0  0  0  0  0  0  # atno 8010 bound_to 7997
  139.4821  144.4991  151.8194 H   0  0  0  0  0  0  0  0  0  0  0  0  # atno 10167 bound_to 10162
  157.1387  130.6623  149.5974 H   0  0  0  0  0  0  0  0  0  0  0  0  # atno 10718 bound_to 10713
  154.8604  135.3578  154.5572 H   0  0  0  0  0  0  0  0  0  0  0  0  # atno 10763 bound_to 10752
  153.6188  135.7006  153.5323 H   0  0  0  0  0  0  0  0  0  0  0  0  # atno 10764 bound_to 10752
  153.3146  135.4168  155.1326 H   0  0  0  0  0  0  0  0  0  0  0  0  # atno 10765 bound_to 10752
  140.9268  133.7363  156.0879 H   0  0  0  0  0  0  0  0  0  0  0  0  # atno 11005 bound_to 11000
  145.3608  139.1682  143.4384 LP  0  0  0  0  0  0  0  0  0  0  0  0  # atno 17320 bound_to 7965
  146.3111  140.3670  142.8670 LP  0  0  0  0  0  0  0  0  0  0  0  0  # atno 17321 bound_to 7965
  140.4483  144.1891  150.5895 LP  0  0  0  0  0  0  0  0  0  0  0  0  # atno 17342 bound_to 10162
  140.4611  143.2448  151.9218 LP  0  0  0  0  0  0  0  0  0  0  0  0  # atno 17343 bound_to 10162
  155.9793  130.4785  150.6706 LP  0  0  0  0  0  0  0  0  0  0  0  0  # atno 17370 bound_to 10713
  157.4326  131.0851  151.1023 LP  0  0  0  0  0  0  0  0  0  0  0  0  # atno 17371 bound_to 10713
  140.7915  134.3612  157.5463 LP  0  0  0  0  0  0  0  0  0  0  0  0  # atno 17394 bound_to 11000
  139.8787  134.9143  156.3104 LP  0  0  0  0  0  0  0  0  0  0  0  0  # atno 17395 bound_to 11000

$$$$
