AV-unprocessed.smi:2445|AV-procd|sdf|9634|dock10
  -GOLD-   2272013263D 1   1.00000     0.00000
 Structure written by MMmdl.
 40 41  0  0  0  0  0  0  0  0  1 V2000
  153.2821  142.3643  158.8514 C   0  0  0  0  0  0  0  0  0  0  0  0
  152.2278  141.8307  157.9420 C   0  0  0  0  0  0  0  0  0  0  0  0
  151.1279  142.4905  157.4526 C   0  0  0  0  0  0  0  0  0  0  0  0
  150.3256  141.7085  156.6189 N   0  0  0  0  0  0  0  0  0  0  0  0
  150.7994  140.4682  156.4687 C   0  0  0  0  0  0  0  0  0  0  0  0
  150.1392  139.4212  155.6276 C   0  0  1  0  0  0  0  0  0  0  0  0
  148.7783  139.8998  155.0926 C   0  0  0  0  0  0  0  0  0  0  0  0
  151.0949  138.8829  154.5406 C   0  0  0  0  0  0  0  0  0  0  0  0
  150.7171  137.5570  154.0617 N   0  0  0  0  0  0  0  0  0  0  0  0
  151.2223  136.4029  154.5174 C   0  0  0  0  0  0  0  0  0  0  0  0
  152.0852  136.3252  155.3921 O   0  0  0  0  0  0  0  0  0  0  0  0
  150.6646  135.3450  153.9136 N   0  0  0  0  0  0  0  0  0  0  0  0
  150.9722  133.9504  154.2145 C   0  0  2  0  0  0  0  0  0  0  0  0
  152.4561  133.7398  154.4335 C   0  0  0  0  0  0  0  0  0  0  0  0
  152.6244  132.2564  154.1171 C   0  0  0  0  0  0  0  0  0  0  0  0
  151.5916  131.9243  153.1938 O   0  0  0  0  0  0  0  0  0  0  0  0
  150.7103  133.0287  153.0174 C   0  0  1  0  0  0  0  0  0  0  0  0
  149.2631  132.5366  152.8956 C   0  0  0  0  0  0  0  0  0  0  0  0
  152.2899  140.1870  157.3621 S   0  0  0  0  0  0  0  0  0  0  0  0
  153.0848  143.4037  159.1153 H   0  0  0  0  0  0  0  0  0  0  0  0
  154.2621  142.3177  158.3763 H   0  0  0  0  0  0  0  0  0  0  0  0
  153.3252  141.7853  159.7741 H   0  0  0  0  0  0  0  0  0  0  0  0
  150.8400  143.5135  157.6450 H   0  0  0  0  0  0  0  0  0  0  0  0
  149.9252  138.5900  156.3009 H   0  0  0  0  0  0  0  0  0  0  0  0
  148.1327  140.2273  155.9079 H   0  0  0  0  0  0  0  0  0  0  0  0
  148.2528  139.1053  154.5626 H   0  0  0  0  0  0  0  0  0  0  0  0
  148.8962  140.7373  154.4045 H   0  0  0  0  0  0  0  0  0  0  0  0
  151.1021  139.5572  153.6837 H   0  0  0  0  0  0  0  0  0  0  0  0
  152.1187  138.8549  154.9178 H   0  0  0  0  0  0  0  0  0  0  0  0
  150.0111  137.5178  153.3413 H   0  0  0  0  0  0  0  0  0  0  0  0
  149.9635  135.5143  153.2072 H   0  0  0  0  0  0  0  0  0  0  0  0
  150.4302  133.5988  155.0950 H   0  0  0  0  0  0  0  0  0  0  0  0
  153.0359  134.3326  153.7240 H   0  0  0  0  0  0  0  0  0  0  0  0
  152.7831  133.9991  155.4406 H   0  0  0  0  0  0  0  0  0  0  0  0
  153.6099  132.0301  153.7096 H   0  0  0  0  0  0  0  0  0  0  0  0
  152.4860  131.6572  155.0178 H   0  0  0  0  0  0  0  0  0  0  0  0
  151.0065  133.5307  152.0945 H   0  0  0  0  0  0  0  0  0  0  0  0
  148.5763  133.3676  152.7351 H   0  0  0  0  0  0  0  0  0  0  0  0
  148.9481  132.0101  153.7966 H   0  0  0  0  0  0  0  0  0  0  0  0
  149.1555  131.8520  152.0541 H   0  0  0  0  0  0  0  0  0  0  0  0
  1  2  1  0  0  0  0
  1 20  1  0  0  0  0
  1 21  1  0  0  0  0
  1 22  1  0  0  0  0
  2 19  1  0  0  0  0
  2  3  2  0  0  0  0
  3  4  1  0  0  0  0
  3 23  1  0  0  0  0
  4  5  2  0  0  0  0
  5  6  1  0  0  0  0
  5 19  1  0  0  0  0
  6  7  1  0  0  0  0
  6  8  1  0  0  0  0
  6 24  1  0  0  0  0
  7 25  1  0  0  0  0
  7 26  1  0  0  0  0
  7 27  1  0  0  0  0
  8  9  1  0  0  0  0
  8 28  1  0  0  0  0
  8 29  1  0  0  0  0
  9 10  1  0  0  0  0
  9 30  1  0  0  0  0
 10 11  2  0  0  0  0
 10 12  1  0  0  0  0
 12 13  1  0  0  0  0
 12 31  1  0  0  0  0
 13 17  1  0  0  0  0
 13 14  1  0  0  0  0
 13 32  1  0  0  0  0
 14 15  1  0  0  0  0
 14 33  1  0  0  0  0
 14 34  1  0  0  0  0
 15 16  1  0  0  0  0
 15 35  1  0  0  0  0
 15 36  1  0  0  0  0
 16 17  1  0  0  0  0
 17 18  1  0  0  0  0
 17 37  1  0  0  0  0
 18 38  1  0  0  0  0
 18 39  1  0  0  0  0
 18 40  1  0  0  0  0
M  END
> <s_m_source_file>
AV-unprocessed.smi

> <i_m_source_file_index>
2445

> <i_lp_mmshare_version>
43012

> <i_f3d_flags>
0

> <s_epik_input>
W0NIM11jMVtjSF1uYyhzMSlbQ0BIXShbQ0gzXSlbQ0gyXVtOSF1DKD1PKVtOSF1bQ0BASF0yW0NIMl1bQ0gyXU9bQ0BIXTJbQ0gzXQ==

> <s_epik_cmdline>
J2VwaWtfcHl0aG9uJywgJy1waCcsICc3LjAnLCAnLXRuJywgJzgnLCAnLW1hJywgJzIwMCcsICctbWV0YWxfYmluZGluZycsICctaW1hZScsICc8aW5maWxlLm1hZT4nLCAnLW9tYWUnLCAnPG91dGZpbGUubWFlPic=

> <r_epik_Ionization_Penalty>
0.000649483

> <r_epik_Ionization_Penalty_Charging>
0

> <r_epik_Ionization_Penalty_Neutral>
0.000649483

> <r_epik_State_Penalty>
0.000379895

> <r_epik_Charging_Adjusted_Penalty>
0.000379895

> <i_epik_Tot_Q>
0

> <i_epik_Tot_abs_Q>
0

> <r_epik_Metal_State_Penalty>
-0

> <b_epik_Metal_Only>
0

> <s_lp_Force_Field>
OPLS_2005

> <r_lp_Energy>
5.33919

> <b_lp_Chiralities_Consistent>
1

> <s_lp_Variant>
AV-unprocessed.smi:2445-2

> <Gold.Version>
5.8.1

> <Gold.Id.Protein>
6NUR|6NUR_protein|mol2

> <Gold.PLP.Fitness>
41.0119

> <Gold.PLP.PLP>
-34.1989

> <Gold.PLP.part.hbond>
-2.4879

> <Gold.PLP.part.metal>
0.0000

> <Gold.PLP.part.buried>
-3.3522

> <Gold.PLP.part.nonpolar>
-29.0324

> <Gold.PLP.part.repulsive>
0.4644

> <Gold.PLP.ligand.clash>
0.0000

> <Gold.PLP.ligand.torsion>
0.7003

> <Gold.PLP.Chemscore.Hbond>
1.9920

> <Gold.PLP.Chemscore.CHOScore>
0.7024

> <Gold.PLP.Chemscore.Metal>
0.0000

> <Gold.Chemscore.Hbonds>
donor molecule, donor type, donor heavy atom, donor atom, acceptor molecule, acceptor atom, score
      L1  H     9    30       P1  7948  0.56
      L1  H    12    31       P1  7948  0.05
      P1  H 10752 10764       L1    11  0.19

> <Gold.PLP.Chemscore.Internal.Correction>
0.1305

> <Gold.Rescore>
     Score         DG    S(hbond)    S(metal)    S(lipo)     H(rot)  DE(clash)    DE(int)     intcor
     14.11     -16.43       1.59        0.00      81.74       1.53       0.09       2.23       ----

> <Gold.Chemscore.Fitness>
14.1086

> <Gold.Chemscore.DG>
-16.4306

> <Gold.Chemscore.ZeroCoef>
-5.4800

> <Gold.Chemscore.Hbond>
1.5900

> <Gold.Chemscore.Metal>
0.0000

> <Gold.Chemscore.Lipo>
81.7381

> <Gold.Chemscore.Internal_Hbond>
0.0000

> <Gold.Chemscore.DEClash>
0.0904

> <Gold.Chemscore.DEInternal>
2.2316

> <Gold.Chemscore.Rot>
1.5325

> <Gold.Chemscore.Internal.Correction>
   9.000000E+99

> <Gold.Chemscore.Hbonds>
donor molecule, donor type, donor heavy atom, donor atom, acceptor molecule, acceptor atom, score
      L1  H     9    30       P1  7948  0.19

> <Gold.Chemscore.Hbond.Weighted>
-5.3105

> <Gold.Chemscore.Metal.Weighted>
-0.0000

> <Gold.Chemscore.Lipo.Weighted>
-9.5634

> <Gold.Chemscore.Internal_Hbond.Weighted>
0.0000

> <Gold.Chemscore.DEClash.Weighted>
0.0904

> <Gold.Chemscore.DEInternal.Weighted>
2.2316

> <Gold.Chemscore.Rot.Weighted>
3.9233

> <Gold.Chemscore.Internal.Correction.Weighted>
   9.000000E+99

> <Gold.Protein.RotatedTorsions>
[ 6907 6896 6895 6894 ] final  127.01 input  -60.11 | X-H torsion
[ 7974 7965 7964 7962 ] final -107.21 input  175.53 | X-H torsion
[ 8008 7997 7996 7995 ] final   67.17 input   59.86 | X-H torsion
[ 10167 10162 10161 10158 ] final   -4.45 input  -65.29 | X-H torsion
[ 10718 10713 10712 10709 ] final  -99.52 input   66.30 | X-H torsion
[ 10763 10752 10751 10750 ] final  -76.87 input  -60.55 | X-H torsion
[ 11005 11000 10999 10996 ] final  -79.84 input  -57.11 | X-H torsion

> <Gold.Protein.ActiveResidues>
 VAL166  LYS551  ARG553  GLY616  TRP617  ASP618  TYR619  PRO620  LYS621  CYS622 
 ASP623  PHE694  ASN695  SER759  ASP760  ASP761  ALA762  ILE779  LEU786  VAL792 
 PHE793  MET794  SER795  GLU796  ALA797  LYS798  CYS799  TRP800  GLU811  SER814 

> <Gold.Protein.RotatedAtoms>
  152.3852  133.6601  159.6192 H   0  0  0  0  0  0  0  0  0  0  0  0  # atno 6907 bound_to 6896
  150.7773  133.9047  159.3360 H   0  0  0  0  0  0  0  0  0  0  0  0  # atno 6908 bound_to 6896
  151.6845  135.0958  160.0273 H   0  0  0  0  0  0  0  0  0  0  0  0  # atno 6909 bound_to 6896
  145.2081  140.9085  143.3330 H   0  0  0  0  0  0  0  0  0  0  0  0  # atno 7974 bound_to 7965
  155.6888  140.3496  155.4885 H   0  0  0  0  0  0  0  0  0  0  0  0  # atno 8008 bound_to 7997
  155.9542  140.1125  157.0973 H   0  0  0  0  0  0  0  0  0  0  0  0  # atno 8009 bound_to 7997
  154.4128  140.1188  156.5079 H   0  0  0  0  0  0  0  0  0  0  0  0  # atno 8010 bound_to 7997
  140.6928  143.6422  150.8425 H   0  0  0  0  0  0  0  0  0  0  0  0  # atno 10167 bound_to 10162
  156.0136  130.5286  150.6681 H   0  0  0  0  0  0  0  0  0  0  0  0  # atno 10718 bound_to 10713
  154.5056  135.5783  153.6564 H   0  0  0  0  0  0  0  0  0  0  0  0  # atno 10763 bound_to 10752
  152.9887  135.6146  154.2946 H   0  0  0  0  0  0  0  0  0  0  0  0  # atno 10764 bound_to 10752
  154.2857  135.2850  155.2657 H   0  0  0  0  0  0  0  0  0  0  0  0  # atno 10765 bound_to 10752
  141.1668  133.7124  156.8184 H   0  0  0  0  0  0  0  0  0  0  0  0  # atno 11005 bound_to 11000
  144.9882  139.3715  143.6228 LP  0  0  0  0  0  0  0  0  0  0  0  0  # atno 17320 bound_to 7965
  146.3403  139.9053  142.8788 LP  0  0  0  0  0  0  0  0  0  0  0  0  # atno 17321 bound_to 7965
  140.0137  143.5615  152.2828 LP  0  0  0  0  0  0  0  0  0  0  0  0  # atno 17342 bound_to 10162
  139.6348  144.7648  151.2460 LP  0  0  0  0  0  0  0  0  0  0  0  0  # atno 17343 bound_to 10162
  157.4410  131.0861  151.0944 LP  0  0  0  0  0  0  0  0  0  0  0  0  # atno 17370 bound_to 10713
  157.1488  130.6175  149.5576 LP  0  0  0  0  0  0  0  0  0  0  0  0  # atno 17371 bound_to 10713
  140.2137  134.8808  157.3302 LP  0  0  0  0  0  0  0  0  0  0  0  0  # atno 17394 bound_to 11000
  140.2060  134.4197  155.7637 LP  0  0  0  0  0  0  0  0  0  0  0  0  # atno 17395 bound_to 11000

$$$$
