AV-unprocessed.smi:3234|AV-procd|sdf|12356|dock7
  -GOLD-   2272018213D 1   1.00000     0.00000
 Structure written by MMmdl.
 37 39  0  0  0  0  0  0  0  0  4 V2000
  146.8858  132.6612  154.0659 O   0  0  0  0  0  0  0  0  0  0  0  0
  147.5757  132.1034  153.2047 C   0  0  0  0  0  0  0  0  0  0  0  0
  147.1662  132.0694  151.9241 N   0  0  0  0  0  0  0  0  0  0  0  0
  145.9583  132.5621  151.3619 C   0  0  0  0  0  0  0  0  0  0  0  0
  145.5702  132.0664  150.0978 C   0  0  0  0  0  0  0  0  0  0  0  0
  144.3665  132.5138  149.5164 C   0  0  0  0  0  0  0  0  0  0  0  0
  143.5891  133.3989  150.1764 N   0  3  0  0  0  0  0  0  0  0  0  0
  143.9092  133.8860  151.3946 C   0  0  0  0  0  0  0  0  0  0  0  0
  145.1012  133.4759  152.0254 C   0  0  0  0  0  0  0  0  0  0  0  0
  148.7839  131.5006  153.3728 N   0  5  0  0  0  0  0  0  0  0  0  0
  149.3314  131.0694  154.6622 C   0  0  2  0  0  0  0  0  0  0  0  0
  150.1202  132.2096  155.3344 C   0  0  0  0  0  0  0  0  0  0  0  0
  151.4194  131.5623  155.8101 C   0  0  0  0  0  0  0  0  0  0  0  0
  151.6743  130.4948  154.8285 N   0  3  1  0  0  0  0  0  0  0  0  0
  152.6675  129.4902  155.2636 C   0  0  0  0  0  0  0  0  0  0  0  0
  153.9850  130.0910  155.6912 C   0  0  0  0  0  0  0  0  0  0  0  0
  153.8675  129.3957  154.3522 C   0  0  0  0  0  0  0  0  0  0  0  0
  150.3563  129.9357  154.4676 C   0  0  0  0  0  0  0  0  0  0  0  0
  147.8355  131.6989  151.2655 H   0  0  0  0  0  0  0  0  0  0  0  0
  146.1919  131.3550  149.5731 H   0  0  0  0  0  0  0  0  0  0  0  0
  144.0041  132.1901  148.5517 H   0  0  0  0  0  0  0  0  0  0  0  0
  143.2040  134.5791  151.8293 H   0  0  0  0  0  0  0  0  0  0  0  0
  145.3328  133.8557  153.0092 H   0  0  0  0  0  0  0  0  0  0  0  0
  148.5573  130.7146  155.3444 H   0  0  0  0  0  0  0  0  0  0  0  0
  150.3611  132.9983  154.6190 H   0  0  0  0  0  0  0  0  0  0  0  0
  149.5657  132.6719  156.1516 H   0  0  0  0  0  0  0  0  0  0  0  0
  152.2457  132.2726  155.8524 H   0  0  0  0  0  0  0  0  0  0  0  0
  151.2953  131.1328  156.8073 H   0  0  0  0  0  0  0  0  0  0  0  0
  152.2768  128.6015  155.7566 H   0  0  0  0  0  0  0  0  0  0  0  0
  154.0824  131.1753  155.6872 H   0  0  0  0  0  0  0  0  0  0  0  0
  154.5412  129.5770  156.4725 H   0  0  0  0  0  0  0  0  0  0  0  0
  154.3466  128.4239  154.2519 H   0  0  0  0  0  0  0  0  0  0  0  0
  153.8854  130.0176  153.4588 H   0  0  0  0  0  0  0  0  0  0  0  0
  150.1138  129.1138  155.1434 H   0  0  0  0  0  0  0  0  0  0  0  0
  150.3749  129.5278  153.4556 H   0  0  0  0  0  0  0  0  0  0  0  0
  152.0261  130.9477  153.9972 H   0  0  0  0  0  0  0  0  0  0  0  0
  142.7206  133.7082  149.7392 H   0  0  0  0  0  0  0  0  0  0  0  0
  1  2  2  0  0  0  0
  2  3  1  0  0  0  0
  2 10  1  0  0  0  0
  3  4  1  0  0  0  0
  3 19  1  0  0  0  0
  4  9  1  0  0  0  0
  4  5  2  0  0  0  0
  5  6  1  0  0  0  0
  5 20  1  0  0  0  0
  6  7  2  0  0  0  0
  6 21  1  0  0  0  0
  7  8  1  0  0  0  0
  7 37  1  0  0  0  0
  8  9  2  0  0  0  0
  8 22  1  0  0  0  0
  9 23  1  0  0  0  0
 10 11  1  0  0  0  0
 11 18  1  0  0  0  0
 11 12  1  0  0  0  0
 11 24  1  0  0  0  0
 12 13  1  0  0  0  0
 12 25  1  0  0  0  0
 12 26  1  0  0  0  0
 13 14  1  0  0  0  0
 13 27  1  0  0  0  0
 13 28  1  0  0  0  0
 14 15  1  0  0  0  0
 14 18  1  0  0  0  0
 14 36  1  0  0  0  0
 15 17  1  0  0  0  0
 15 16  1  0  0  0  0
 15 29  1  0  0  0  0
 16 17  1  0  0  0  0
 16 30  1  0  0  0  0
 16 31  1  0  0  0  0
 17 32  1  0  0  0  0
 17 33  1  0  0  0  0
 18 34  1  0  0  0  0
 18 35  1  0  0  0  0
M  CHG  1   7   1
M  CHG  1  10  -1
M  CHG  1  14   1
M  END
> <s_m_source_file>
AV-unprocessed.smi

> <i_m_source_file_index>
3234

> <i_lp_mmshare_version>
43012

> <i_f3d_flags>
0

> <s_epik_input>
W2NIXTFbY0hdbltjSF1bY0hdYzFbTkhdQyg9TylbTkhdW0NAQEhdMltDSDJdW0NIMl1OKFtDSDJdMilbQ0hdM1tDSDJdW0NIMl0z

> <s_epik_cmdline>
J2VwaWtfcHl0aG9uJywgJy1waCcsICc3LjAnLCAnLXRuJywgJzgnLCAnLW1hJywgJzIwMCcsICctbWV0YWxfYmluZGluZycsICctaW1hZScsICc8aW5maWxlLm1hZT4nLCAnLW9tYWUnLCAnPG91dGZpbGUubWFlPic=

> <r_epik_Ionization_Penalty>
8.3234

> <r_epik_Ionization_Penalty_Charging>
8.3234

> <r_epik_Ionization_Penalty_Neutral>
3.58513e-06

> <r_epik_State_Penalty>
7.99376

> <r_epik_Charging_Adjusted_Penalty>
16.3172

> <i_epik_Tot_Q>
1

> <i_epik_Tot_abs_Q>
3

> <r_epik_Metal_State_Penalty>
3.98956

> <b_epik_Metal_Only>
1

> <s_lp_Force_Field>
OPLS_2005

> <r_lp_Energy>
40.8871

> <b_lp_Chiralities_Consistent>
1

> <s_lp_Variant>
AV-unprocessed.smi:3234-9

> <Gold.Version>
5.8.1

> <Gold.Id.Protein>
6NUR|6NUR_protein|mol2

> <Gold.PLP.Fitness>
40.5967

> <Gold.PLP.PLP>
-32.8267

> <Gold.PLP.part.hbond>
-2.0000

> <Gold.PLP.part.metal>
0.0000

> <Gold.PLP.part.buried>
-4.0663

> <Gold.PLP.part.nonpolar>
-27.7886

> <Gold.PLP.part.repulsive>
0.2579

> <Gold.PLP.ligand.clash>
0.0000

> <Gold.PLP.ligand.torsion>
1.2486

> <Gold.PLP.Chemscore.Hbond>
3.0000

> <Gold.PLP.Chemscore.CHOScore>
0.0000

> <Gold.PLP.Chemscore.Metal>
0.0000

> <Gold.Chemscore.Hbonds>
donor molecule, donor type, donor heavy atom, donor atom, acceptor molecule, acceptor atom, score
      L1  H     3    19       P1 10747  1.00
      L1  H     7    37       P1 10186  2.00

> <Gold.PLP.Chemscore.Internal.Correction>
1.2671

> <Gold.Rescore>
     Score         DG    S(hbond)    S(metal)    S(lipo)     H(rot)  DE(clash)    DE(int)     intcor
     15.39     -18.06       1.97        0.00      77.74       1.21       0.02       2.65       ----

> <Gold.Chemscore.Fitness>
15.3911

> <Gold.Chemscore.DG>
-18.0608

> <Gold.Chemscore.ZeroCoef>
-5.4800

> <Gold.Chemscore.Hbond>
1.9717

> <Gold.Chemscore.Metal>
0.0000

> <Gold.Chemscore.Lipo>
77.7359

> <Gold.Chemscore.Internal_Hbond>
0.0000

> <Gold.Chemscore.DEClash>
0.0246

> <Gold.Chemscore.DEInternal>
2.6451

> <Gold.Chemscore.Rot>
1.2108

> <Gold.Chemscore.Internal.Correction>
   9.000000E+99

> <Gold.Chemscore.Hbonds>
donor molecule, donor type, donor heavy atom, donor atom, acceptor molecule, acceptor atom, score
      L1  H     3    19       P1 10747  1.00
      L1  H     7    37       P1 10186  1.00

> <Gold.Chemscore.Hbond.Weighted>
-6.5853

> <Gold.Chemscore.Metal.Weighted>
-0.0000

> <Gold.Chemscore.Lipo.Weighted>
-9.0951

> <Gold.Chemscore.Internal_Hbond.Weighted>
0.0000

> <Gold.Chemscore.DEClash.Weighted>
0.0246

> <Gold.Chemscore.DEInternal.Weighted>
2.6451

> <Gold.Chemscore.Rot.Weighted>
3.0996

> <Gold.Chemscore.Internal.Correction.Weighted>
   9.000000E+99

> <Gold.Protein.RotatedTorsions>
[ 6907 6896 6895 6894 ] final  155.86 input  -60.11 | X-H torsion
[ 7974 7965 7964 7962 ] final  -58.61 input  175.53 | X-H torsion
[ 8008 7997 7996 7995 ] final -122.68 input   59.86 | X-H torsion
[ 10167 10162 10161 10158 ] final  -81.27 input  -65.29 | X-H torsion
[ 10718 10713 10712 10709 ] final   64.50 input   66.30 | X-H torsion
[ 10763 10752 10751 10750 ] final  -81.12 input  -60.55 | X-H torsion
[ 11005 11000 10999 10996 ] final  -69.34 input  -57.11 | X-H torsion

> <Gold.Protein.ActiveResidues>
 VAL166  LYS551  ARG553  GLY616  TRP617  ASP618  TYR619  PRO620  LYS621  CYS622 
 ASP623  PHE694  ASN695  SER759  ASP760  ASP761  ALA762  ILE779  LEU786  VAL792 
 PHE793  MET794  SER795  GLU796  ALA797  LYS798  CYS799  TRP800  GLU811  SER814 

> <Gold.Protein.RotatedAtoms>
  152.0381  133.3965  159.4325 H   0  0  0  0  0  0  0  0  0  0  0  0  # atno 6907 bound_to 6896
  150.6877  134.3446  159.4892 H   0  0  0  0  0  0  0  0  0  0  0  0  # atno 6908 bound_to 6896
  152.1240  134.9184  160.0612 H   0  0  0  0  0  0  0  0  0  0  0  0  # atno 6909 bound_to 6896
  145.8373  140.8440  143.0052 H   0  0  0  0  0  0  0  0  0  0  0  0  # atno 7974 bound_to 7965
  155.1681  140.0407  157.2857 H   0  0  0  0  0  0  0  0  0  0  0  0  # atno 8008 bound_to 7997
  154.6288  140.2519  155.7431 H   0  0  0  0  0  0  0  0  0  0  0  0  # atno 8009 bound_to 7997
  156.2474  140.2879  156.0631 H   0  0  0  0  0  0  0  0  0  0  0  0  # atno 8010 bound_to 7997
  140.4427  143.2509  151.8603 H   0  0  0  0  0  0  0  0  0  0  0  0  # atno 10167 bound_to 10162
  157.6043  130.9163  149.9853 H   0  0  0  0  0  0  0  0  0  0  0  0  # atno 10718 bound_to 10713
  154.5596  135.5637  153.6996 H   0  0  0  0  0  0  0  0  0  0  0  0  # atno 10763 bound_to 10752
  153.0014  135.6271  154.2262 H   0  0  0  0  0  0  0  0  0  0  0  0  # atno 10764 bound_to 10752
  154.2200  135.2870  155.2908 H   0  0  0  0  0  0  0  0  0  0  0  0  # atno 10765 bound_to 10752
  141.1552  133.6762  156.6584 H   0  0  0  0  0  0  0  0  0  0  0  0  # atno 11005 bound_to 11000
  144.6735  140.0760  143.7471 LP  0  0  0  0  0  0  0  0  0  0  0  0  # atno 17320 bound_to 7965
  145.9504  139.2730  143.1215 LP  0  0  0  0  0  0  0  0  0  0  0  0  # atno 17321 bound_to 7965
  139.4790  144.5211  151.8800 LP  0  0  0  0  0  0  0  0  0  0  0  0  # atno 17342 bound_to 10162
  140.4300  144.2129  150.5888 LP  0  0  0  0  0  0  0  0  0  0  0  0  # atno 17343 bound_to 10162
  156.1125  130.3649  150.0024 LP  0  0  0  0  0  0  0  0  0  0  0  0  # atno 17370 bound_to 10713
  156.8120  130.9328  151.3644 LP  0  0  0  0  0  0  0  0  0  0  0  0  # atno 17371 bound_to 10713
  140.3266  134.7963  157.4294 LP  0  0  0  0  0  0  0  0  0  0  0  0  # atno 17394 bound_to 11000
  140.1052  134.5420  155.8316 LP  0  0  0  0  0  0  0  0  0  0  0  0  # atno 17395 bound_to 11000

$$$$
