AV-unprocessed.smi:2279|AV-procd|sdf|9183|dock2
  -GOLD-   2272012403D 1   1.00000     0.00000
 Structure written by MMmdl.
 58 60  0  0  0  0  0  0  0  0  3 V2000
  151.8381  145.5742  159.2694 C   0  0  0  0  0  0  0  0  0  0  0  0
  151.8216  144.1270  158.8243 C   0  0  0  0  0  0  0  0  0  0  0  0
  152.6895  143.1814  159.4034 C   0  0  0  0  0  0  0  0  0  0  0  0
  152.6245  141.8510  158.9448 C   0  0  0  0  0  0  0  0  0  0  0  0
  153.5280  140.7825  159.5230 C   0  0  0  0  0  0  0  0  0  0  0  0
  151.7717  141.4453  157.9800 N   0  0  0  0  0  0  0  0  0  0  0  0
  150.9312  142.3473  157.4150 C   0  0  0  0  0  0  0  0  0  0  0  0
  149.9982  142.0228  156.3948 N   0  0  0  0  0  0  0  0  0  0  0  0
  149.6315  140.8035  155.9619 C   0  0  0  0  0  0  0  0  0  0  0  0
  150.0617  139.7349  156.3967 O   0  0  0  0  0  0  0  0  0  0  0  0
  148.7223  140.8924  154.9796 N   0  0  0  0  0  0  0  0  0  0  0  0
  148.1088  139.7652  154.2821 C   0  0  2  0  0  0  0  0  0  0  0  0
  147.5492  140.2201  152.9311 C   0  0  0  0  0  0  0  0  0  0  0  0
  146.8246  139.0702  152.2119 C   0  0  0  0  0  0  0  0  0  0  0  0
  145.7264  138.4812  153.0369 N   0  3  1  0  0  0  0  0  0  0  0  0
  144.9506  137.4089  152.3220 C   0  0  2  0  0  0  0  0  0  0  0  0
  144.0228  136.6091  153.2751 C   0  0  0  0  0  0  0  0  0  0  0  0
  143.2849  135.4611  152.5651 C   0  0  0  0  0  0  0  0  0  0  0  0
  144.2366  134.5358  151.9104 N   0  3  1  0  0  0  0  0  0  0  0  0
  143.5645  133.3557  151.3240 C   0  0  0  0  0  0  0  0  0  0  0  0
  145.0864  135.2477  150.9298 C   0  0  0  0  0  0  0  0  0  0  0  0
  145.8707  136.3902  151.5977 C   0  0  0  0  0  0  0  0  0  0  0  0
  146.2471  138.0494  154.3697 C   0  0  0  0  0  0  0  0  0  0  0  0
  146.9639  139.1855  155.1178 C   0  0  0  0  0  0  0  0  0  0  0  0
  150.9320  143.7018  157.8173 C   0  0  0  0  0  0  0  0  0  0  0  0
  152.5784  145.7414  160.0522 H   0  0  0  0  0  0  0  0  0  0  0  0
  150.8603  145.8605  159.6579 H   0  0  0  0  0  0  0  0  0  0  0  0
  152.0781  146.2249  158.4283 H   0  0  0  0  0  0  0  0  0  0  0  0
  153.3861  143.4675  160.1781 H   0  0  0  0  0  0  0  0  0  0  0  0
  154.1828  141.1919  160.2927 H   0  0  0  0  0  0  0  0  0  0  0  0
  154.1520  140.3495  158.7406 H   0  0  0  0  0  0  0  0  0  0  0  0
  152.9342  139.9851  159.9703 H   0  0  0  0  0  0  0  0  0  0  0  0
  149.5598  142.8114  155.9431 H   0  0  0  0  0  0  0  0  0  0  0  0
  148.4316  141.8155  154.6918 H   0  0  0  0  0  0  0  0  0  0  0  0
  148.8422  138.9761  154.1051 H   0  0  0  0  0  0  0  0  0  0  0  0
  146.8579  141.0524  153.0733 H   0  0  0  0  0  0  0  0  0  0  0  0
  148.3573  140.5945  152.3012 H   0  0  0  0  0  0  0  0  0  0  0  0
  146.4396  139.4879  151.2846 H   0  0  0  0  0  0  0  0  0  0  0  0
  147.5365  138.2887  151.9414 H   0  0  0  0  0  0  0  0  0  0  0  0
  144.3271  137.8979  151.5714 H   0  0  0  0  0  0  0  0  0  0  0  0
  144.6038  136.2087  154.1073 H   0  0  0  0  0  0  0  0  0  0  0  0
  143.2535  137.2474  153.7064 H   0  0  0  0  0  0  0  0  0  0  0  0
  142.6848  134.9116  153.2917 H   0  0  0  0  0  0  0  0  0  0  0  0
  142.5930  135.8615  151.8219 H   0  0  0  0  0  0  0  0  0  0  0  0
  142.8776  133.6494  150.5289 H   0  0  0  0  0  0  0  0  0  0  0  0
  142.9974  132.8176  152.0844 H   0  0  0  0  0  0  0  0  0  0  0  0
  144.2961  132.6638  150.9055 H   0  0  0  0  0  0  0  0  0  0  0  0
  145.7861  134.5442  150.4765 H   0  0  0  0  0  0  0  0  0  0  0  0
  144.4648  135.6398  150.1228 H   0  0  0  0  0  0  0  0  0  0  0  0
  146.4468  136.8691  150.8078 H   0  0  0  0  0  0  0  0  0  0  0  0
  146.5898  135.9734  152.3045 H   0  0  0  0  0  0  0  0  0  0  0  0
  145.4399  137.7205  155.0200 H   0  0  0  0  0  0  0  0  0  0  0  0
  146.9213  137.2011  154.2401 H   0  0  0  0  0  0  0  0  0  0  0  0
  147.3492  138.8125  156.0678 H   0  0  0  0  0  0  0  0  0  0  0  0
  146.2451  139.9692  155.3629 H   0  0  0  0  0  0  0  0  0  0  0  0
  150.2578  144.4117  157.3600 H   0  0  0  0  0  0  0  0  0  0  0  0
  145.0766  139.2329  153.2187 H   0  0  0  0  0  0  0  0  0  0  0  0
  144.8502  134.1847  152.6322 H   0  0  0  0  0  0  0  0  0  0  0  0
  1  2  1  0  0  0  0
  1 26  1  0  0  0  0
  1 27  1  0  0  0  0
  1 28  1  0  0  0  0
  2 25  1  0  0  0  0
  2  3  2  0  0  0  0
  3  4  1  0  0  0  0
  3 29  1  0  0  0  0
  4  5  1  0  0  0  0
  4  6  2  0  0  0  0
  5 30  1  0  0  0  0
  5 31  1  0  0  0  0
  5 32  1  0  0  0  0
  6  7  1  0  0  0  0
  7  8  1  0  0  0  0
  7 25  2  0  0  0  0
  8  9  1  0  0  0  0
  8 33  1  0  0  0  0
  9 10  2  0  0  0  0
  9 11  1  0  0  0  0
 11 12  1  0  0  0  0
 11 34  1  0  0  0  0
 12 24  1  0  0  0  0
 12 13  1  0  0  0  0
 12 35  1  0  0  0  0
 13 14  1  0  0  0  0
 13 36  1  0  0  0  0
 13 37  1  0  0  0  0
 14 15  1  0  0  0  0
 14 38  1  0  0  0  0
 14 39  1  0  0  0  0
 15 16  1  0  0  0  0
 15 23  1  0  0  0  0
 15 57  1  0  0  0  0
 16 22  1  0  0  0  0
 16 17  1  0  0  0  0
 16 40  1  0  0  0  0
 17 18  1  0  0  0  0
 17 41  1  0  0  0  0
 17 42  1  0  0  0  0
 18 19  1  0  0  0  0
 18 43  1  0  0  0  0
 18 44  1  0  0  0  0
 19 20  1  0  0  0  0
 19 21  1  0  0  0  0
 19 58  1  0  0  0  0
 20 45  1  0  0  0  0
 20 46  1  0  0  0  0
 20 47  1  0  0  0  0
 21 22  1  0  0  0  0
 21 48  1  0  0  0  0
 21 49  1  0  0  0  0
 22 50  1  0  0  0  0
 22 51  1  0  0  0  0
 23 24  1  0  0  0  0
 23 52  1  0  0  0  0
 23 53  1  0  0  0  0
 24 54  1  0  0  0  0
 24 55  1  0  0  0  0
 25 56  1  0  0  0  0
M  CHG  1  15   1
M  CHG  1  19   1
M  END
> <s_m_source_file>
AV-unprocessed.smi

> <i_m_source_file_index>
2279

> <i_lp_mmshare_version>
43012

> <i_f3d_flags>
0

> <s_epik_input>
W0NIM11jMVtjSF1jKFtDSDNdKW5jKFtjSF0xKVtOSF1DKD1PKVtOSF1bQ0hdMltDSDJdW0NIMl1OKFtDSDJdW0NIMl0yKVtDSF0zW0NIMl1bQ0gyXU4oW0NIM10pW0NIMl1bQ0gyXTM=

> <s_epik_cmdline>
J2VwaWtfcHl0aG9uJywgJy1waCcsICc3LjAnLCAnLXRuJywgJzgnLCAnLW1hJywgJzIwMCcsICctbWV0YWxfYmluZGluZycsICctaW1hZScsICc8aW5maWxlLm1hZT4nLCAnLW9tYWUnLCAnPG91dGZpbGUubWFlPic=

> <r_epik_Ionization_Penalty>
0.180973

> <r_epik_Ionization_Penalty_Charging>
0.180787

> <r_epik_Ionization_Penalty_Neutral>
0.000186186

> <r_epik_State_Penalty>
0.153592

> <r_epik_Charging_Adjusted_Penalty>
0.334379

> <i_epik_Tot_Q>
2

> <i_epik_Tot_abs_Q>
2

> <r_epik_Metal_State_Penalty>
0.153604

> <b_epik_Metal_Only>
0

> <s_lp_Force_Field>
OPLS_2005

> <r_lp_Energy>
41.0771

> <b_lp_Chiralities_Consistent>
1

> <s_lp_Variant>
AV-unprocessed.smi:2279-1

> <Gold.Version>
5.8.1

> <Gold.Id.Protein>
6NUR|6NUR_protein|mol2

> <Gold.PLP.Fitness>
49.9751

> <Gold.PLP.PLP>
-42.7473

> <Gold.PLP.part.hbond>
-2.0000

> <Gold.PLP.part.metal>
0.0000

> <Gold.PLP.part.buried>
1.6222

> <Gold.PLP.part.nonpolar>
-42.1188

> <Gold.PLP.part.repulsive>
0.1737

> <Gold.PLP.ligand.clash>
0.0000

> <Gold.PLP.ligand.torsion>
0.6004

> <Gold.PLP.Chemscore.Hbond>
2.7985

> <Gold.PLP.Chemscore.CHOScore>
0.0000

> <Gold.PLP.Chemscore.Metal>
0.0000

> <Gold.Chemscore.Hbonds>
donor molecule, donor type, donor heavy atom, donor atom, acceptor molecule, acceptor atom, score
      L1  H     8    33       P1  8028  0.96
      L1  H    15    57       P1 10175  1.86

> <Gold.PLP.Chemscore.Internal.Correction>
0.0332

> <Gold.Rescore>
     Score         DG    S(hbond)    S(metal)    S(lipo)     H(rot)  DE(clash)    DE(int)     intcor
     19.29     -23.26       1.80        0.00     126.98       1.21       1.93       2.04       ----

> <Gold.Chemscore.Fitness>
19.2880

> <Gold.Chemscore.DG>
-23.2568

> <Gold.Chemscore.ZeroCoef>
-5.4800

> <Gold.Chemscore.Hbond>
1.8011

> <Gold.Chemscore.Metal>
0.0000

> <Gold.Chemscore.Lipo>
126.9847

> <Gold.Chemscore.Internal_Hbond>
0.0000

> <Gold.Chemscore.DEClash>
1.9264

> <Gold.Chemscore.DEInternal>
2.0424

> <Gold.Chemscore.Rot>
1.2095

> <Gold.Chemscore.Internal.Correction>
   9.000000E+99

> <Gold.Chemscore.Hbonds>
donor molecule, donor type, donor heavy atom, donor atom, acceptor molecule, acceptor atom, score
      L1  H     8    33       P1  8028  0.91
      L1  H    15    57       P1 10175  0.87

> <Gold.Chemscore.Hbond.Weighted>
-6.0158

> <Gold.Chemscore.Metal.Weighted>
-0.0000

> <Gold.Chemscore.Lipo.Weighted>
-14.8572

> <Gold.Chemscore.Internal_Hbond.Weighted>
0.0000

> <Gold.Chemscore.DEClash.Weighted>
1.9264

> <Gold.Chemscore.DEInternal.Weighted>
2.0424

> <Gold.Chemscore.Rot.Weighted>
3.0963

> <Gold.Chemscore.Internal.Correction.Weighted>
   9.000000E+99

> <Gold.Protein.RotatedTorsions>
[ 6907 6896 6895 6894 ] final   25.36 input  -60.11 | X-H torsion
[ 7974 7965 7964 7962 ] final   54.60 input  175.53 | X-H torsion
[ 8008 7997 7996 7995 ] final  148.68 input   59.86 | X-H torsion
[ 10167 10162 10161 10158 ] final  -20.90 input  -65.29 | X-H torsion
[ 10718 10713 10712 10709 ] final  -14.26 input   66.30 | X-H torsion
[ 10763 10752 10751 10750 ] final  -22.93 input  -60.55 | X-H torsion
[ 11005 11000 10999 10996 ] final -154.76 input  -57.11 | X-H torsion

> <Gold.Protein.ActiveResidues>
 VAL166  LYS551  ARG553  GLY616  TRP617  ASP618  TYR619  PRO620  LYS621  CYS622 
 ASP623  PHE694  ASN695  SER759  ASP760  ASP761  ALA762  ILE779  LEU786  VAL792 
 PHE793  MET794  SER795  GLU796  ALA797  LYS798  CYS799  TRP800  GLU811  SER814 

> <Gold.Protein.RotatedAtoms>
  151.9714  135.0075  160.0552 H   0  0  0  0  0  0  0  0  0  0  0  0  # atno 6907 bound_to 6896
  152.1779  133.4683  159.4951 H   0  0  0  0  0  0  0  0  0  0  0  0  # atno 6908 bound_to 6896
  150.6912  134.1788  159.4283 H   0  0  0  0  0  0  0  0  0  0  0  0  # atno 6909 bound_to 6896
  145.9591  139.4043  143.0259 H   0  0  0  0  0  0  0  0  0  0  0  0  # atno 7974 bound_to 7965
  156.2782  140.2122  156.5737 H   0  0  0  0  0  0  0  0  0  0  0  0  # atno 8008 bound_to 7997
  154.7115  140.0511  157.0577 H   0  0  0  0  0  0  0  0  0  0  0  0  # atno 8009 bound_to 7997
  155.0599  140.3165  155.4667 H   0  0  0  0  0  0  0  0  0  0  0  0  # atno 8010 bound_to 7997
  140.7279  143.4679  151.0288 H   0  0  0  0  0  0  0  0  0  0  0  0  # atno 10167 bound_to 10162
  156.6185  130.4869  149.6173 H   0  0  0  0  0  0  0  0  0  0  0  0  # atno 10718 bound_to 10713
  153.6597  135.6977  153.5181 H   0  0  0  0  0  0  0  0  0  0  0  0  # atno 10763 bound_to 10752
  153.2641  135.4235  155.0923 H   0  0  0  0  0  0  0  0  0  0  0  0  # atno 10764 bound_to 10752
  154.8455  135.3562  154.6142 H   0  0  0  0  0  0  0  0  0  0  0  0  # atno 10765 bound_to 10752
  140.6939  134.4011  157.5216 H   0  0  0  0  0  0  0  0  0  0  0  0  # atno 11005 bound_to 11000
  145.8064  140.9746  143.0972 LP  0  0  0  0  0  0  0  0  0  0  0  0  # atno 17320 bound_to 7965
  144.6811  139.9866  143.7484 LP  0  0  0  0  0  0  0  0  0  0  0  0  # atno 17321 bound_to 7965
  139.8368  143.7617  152.3180 LP  0  0  0  0  0  0  0  0  0  0  0  0  # atno 17342 bound_to 10162
  139.7752  144.7463  151.0167 LP  0  0  0  0  0  0  0  0  0  0  0  0  # atno 17343 bound_to 10162
  156.2331  130.6806  151.1483 LP  0  0  0  0  0  0  0  0  0  0  0  0  # atno 17370 bound_to 10713
  157.7234  131.0666  150.6038 LP  0  0  0  0  0  0  0  0  0  0  0  0  # atno 17371 bound_to 10713
  139.8916  134.8777  156.2314 LP  0  0  0  0  0  0  0  0  0  0  0  0  # atno 17394 bound_to 11000
  141.0219  133.7036  156.1283 LP  0  0  0  0  0  0  0  0  0  0  0  0  # atno 17395 bound_to 11000

$$$$
