AV-unprocessed.smi:901|AV-procd|sdf|4090|dock5
  -GOLD-   22720 1583D 1   1.00000     0.00000
 Structure written by MMmdl.
 43 44  0  0  0  0  0  0  0  0  1 V2000
  151.8254  139.0479  155.8635 C   0  0  0  0  0  0  0  0  0  0  0  0
  150.3173  139.1833  155.7934 C   0  0  0  0  0  0  0  0  0  0  0  0
  149.7285  140.1925  156.7637 C   0  0  0  0  0  0  0  0  0  0  0  0
  149.5829  138.4537  154.9314 C   0  0  0  0  0  0  0  0  0  0  0  0
  148.1044  138.4756  154.7705 C   0  0  2  0  0  0  0  0  0  0  0  0
  147.4545  138.7295  153.4211 C   0  0  1  0  0  0  0  0  0  0  0  0
  146.2307  137.9459  153.0573 C   0  0  0  0  0  0  0  0  0  0  0  0
  145.0938  138.3002  153.3697 O   0  0  0  0  0  0  0  0  0  0  0  0
  146.5130  136.8212  152.3754 N   0  0  0  0  0  0  0  0  0  0  0  0
  145.6197  135.8402  151.8719 C   0  0  0  0  0  0  0  0  0  0  0  0
  144.1942  135.9131  151.8829 C   0  0  0  0  0  0  0  0  0  0  0  0
  143.8162  134.7402  151.2949 C   0  0  0  0  0  0  0  0  0  0  0  0
  144.9655  134.0475  150.9705 N   0  0  0  0  0  0  0  0  0  0  0  0
  145.0850  132.7522  150.3252 C   0  0  0  0  0  0  0  0  0  0  0  0
  144.0993  132.6214  149.1629 C   0  0  0  0  0  0  0  0  0  0  0  0
  144.3099  133.3943  148.0941 N   0  0  0  0  0  0  0  0  0  0  0  0
  143.1592  131.8324  149.2281 O   0  0  0  0  0  0  0  0  0  0  0  0
  146.0784  134.7255  151.3288 N   0  0  0  0  0  0  0  0  0  0  0  0
  147.3707  139.7825  154.5216 C   0  0  0  0  0  0  0  0  0  0  0  0
  146.0935  140.0684  155.3035 C   0  0  0  0  0  0  0  0  0  0  0  0
  148.1287  141.0841  154.3059 C   0  0  0  0  0  0  0  0  0  0  0  0
  152.3018  140.0026  155.6386 H   0  0  0  0  0  0  0  0  0  0  0  0
  152.1968  138.3083  155.1532 H   0  0  0  0  0  0  0  0  0  0  0  0
  152.1301  138.7396  156.8640 H   0  0  0  0  0  0  0  0  0  0  0  0
  149.8945  139.8670  157.7908 H   0  0  0  0  0  0  0  0  0  0  0  0
  148.6583  140.3364  156.6224 H   0  0  0  0  0  0  0  0  0  0  0  0
  150.2096  141.1619  156.6318 H   0  0  0  0  0  0  0  0  0  0  0  0
  150.0996  137.7732  154.2704 H   0  0  0  0  0  0  0  0  0  0  0  0
  147.6234  137.7782  155.4542 H   0  0  0  0  0  0  0  0  0  0  0  0
  148.1198  138.9648  152.5910 H   0  0  0  0  0  0  0  0  0  0  0  0
  147.4901  136.6486  152.1891 H   0  0  0  0  0  0  0  0  0  0  0  0
  143.5404  136.6870  152.2548 H   0  0  0  0  0  0  0  0  0  0  0  0
  142.8343  134.3451  151.0800 H   0  0  0  0  0  0  0  0  0  0  0  0
  146.1054  132.6187  149.9619 H   0  0  0  0  0  0  0  0  0  0  0  0
  144.9048  131.9723  151.0660 H   0  0  0  0  0  0  0  0  0  0  0  0
  143.6851  133.3454  147.3028 H   0  0  0  0  0  0  0  0  0  0  0  0
  145.0957  134.0286  148.0834 H   0  0  0  0  0  0  0  0  0  0  0  0
  145.3778  140.6009  154.6768 H   0  0  0  0  0  0  0  0  0  0  0  0
  146.3125  140.6834  156.1766 H   0  0  0  0  0  0  0  0  0  0  0  0
  145.6263  139.1522  155.6624 H   0  0  0  0  0  0  0  0  0  0  0  0
  147.4980  141.8079  153.7890 H   0  0  0  0  0  0  0  0  0  0  0  0
  149.0225  140.9237  153.7023 H   0  0  0  0  0  0  0  0  0  0  0  0
  148.4348  141.5090  155.2622 H   0  0  0  0  0  0  0  0  0  0  0  0
  1  2  1  0  0  0  0
  1 22  1  0  0  0  0
  1 23  1  0  0  0  0
  1 24  1  0  0  0  0
  2  3  1  0  0  0  0
  2  4  2  0  0  0  0
  3 25  1  0  0  0  0
  3 26  1  0  0  0  0
  3 27  1  0  0  0  0
  4  5  1  0  0  0  0
  4 28  1  0  0  0  0
  5 19  1  0  0  0  0
  5  6  1  0  0  0  0
  5 29  1  0  0  0  0
  6  7  1  0  0  0  0
  6 19  1  0  0  0  0
  6 30  1  0  0  0  0
  7  8  2  0  0  0  0
  7  9  1  0  0  0  0
  9 10  1  0  0  0  0
  9 31  1  0  0  0  0
 10 18  2  0  0  0  0
 10 11  1  0  0  0  0
 11 12  2  0  0  0  0
 11 32  1  0  0  0  0
 12 13  1  0  0  0  0
 12 33  1  0  0  0  0
 13 14  1  0  0  0  0
 13 18  1  0  0  0  0
 14 15  1  0  0  0  0
 14 34  1  0  0  0  0
 14 35  1  0  0  0  0
 15 16  1  0  0  0  0
 15 17  2  0  0  0  0
 16 36  1  0  0  0  0
 16 37  1  0  0  0  0
 19 20  1  0  0  0  0
 19 21  1  0  0  0  0
 20 38  1  0  0  0  0
 20 39  1  0  0  0  0
 20 40  1  0  0  0  0
 21 41  1  0  0  0  0
 21 42  1  0  0  0  0
 21 43  1  0  0  0  0
M  END
> <s_m_source_file>
AV-unprocessed.smi

> <i_m_source_file_index>
901

> <i_lp_mmshare_version>
43012

> <i_f3d_flags>
0

> <s_epik_input>
W0NIM11DKFtDSDNdKT1bQ0hdW0NAQEhdKEMxKFtDSDNdKVtDSDNdKVtDQEhdMUMoPU8pW05IXWMyW2NIXVtjSF1uKG4yKVtDSDJdQyg9TylbTkgyXQ==

> <s_epik_cmdline>
J2VwaWtfcHl0aG9uJywgJy1waCcsICc3LjAnLCAnLXRuJywgJzgnLCAnLW1hJywgJzIwMCcsICctbWV0YWxfYmluZGluZycsICctaW1hZScsICc8aW5maWxlLm1hZT4nLCAnLW9tYWUnLCAnPG91dGZpbGUubWFlPic=

> <r_lp_tautomer_probability>
1

> <r_epik_Ionization_Penalty>
1.01454e-05

> <r_epik_Ionization_Penalty_Charging>
0

> <r_epik_Ionization_Penalty_Neutral>
1.01454e-05

> <r_epik_State_Penalty>
-0

> <r_epik_Charging_Adjusted_Penalty>
0

> <i_epik_Tot_Q>
0

> <i_epik_Tot_abs_Q>
0

> <r_epik_Metal_State_Penalty>
-0

> <b_epik_Metal_Only>
0

> <s_lp_Force_Field>
OPLS_2005

> <r_lp_Energy>
20.5353

> <b_lp_Chiralities_Consistent>
1

> <s_lp_Variant>
AV-unprocessed.smi:901-1

> <Gold.Version>
5.8.1

> <Gold.Id.Protein>
6NUR|6NUR_protein|mol2

> <Gold.PLP.Fitness>
44.6583

> <Gold.PLP.PLP>
-31.9468

> <Gold.PLP.part.hbond>
-3.8714

> <Gold.PLP.part.metal>
0.0000

> <Gold.PLP.part.buried>
-3.2286

> <Gold.PLP.part.nonpolar>
-30.4533

> <Gold.PLP.part.repulsive>
4.3861

> <Gold.PLP.ligand.clash>
0.0000

> <Gold.PLP.ligand.torsion>
0.9409

> <Gold.PLP.Chemscore.Hbond>
3.8045

> <Gold.PLP.Chemscore.CHOScore>
1.0000

> <Gold.PLP.Chemscore.Metal>
0.0000

> <Gold.Chemscore.Hbonds>
donor molecule, donor type, donor heavy atom, donor atom, acceptor molecule, acceptor atom, score
      L1  H     9    31       P1  7948  1.00
      L1  H    16    37       P1  7921  0.57
      P1  H 10785 10796       L1    17  1.00
      L1  C    12    33       P1 10186  0.98

> <Gold.PLP.Chemscore.Internal.Correction>
0.1799

> <Gold.Rescore>
     Score         DG    S(hbond)    S(metal)    S(lipo)     H(rot)  DE(clash)    DE(int)     intcor
     14.18     -19.60       3.42        0.00      69.72       2.13       1.97       3.45       ----

> <Gold.Chemscore.Fitness>
14.1765

> <Gold.Chemscore.DG>
-19.6015

> <Gold.Chemscore.ZeroCoef>
-5.4800

> <Gold.Chemscore.Hbond>
3.4189

> <Gold.Chemscore.Metal>
0.0000

> <Gold.Chemscore.Lipo>
69.7225

> <Gold.Chemscore.Internal_Hbond>
0.0000

> <Gold.Chemscore.DEClash>
1.9704

> <Gold.Chemscore.DEInternal>
3.4546

> <Gold.Chemscore.Rot>
2.1309

> <Gold.Chemscore.Internal.Correction>
   9.000000E+99

> <Gold.Chemscore.Hbonds>
donor molecule, donor type, donor heavy atom, donor atom, acceptor molecule, acceptor atom, score
      L1  H     9    31       P1  7948  0.94
      L1  H    16    37       P1  7921  0.57
      P1  H 10785 10796       L1    17  0.99

> <Gold.Chemscore.Hbond.Weighted>
-11.4192

> <Gold.Chemscore.Metal.Weighted>
-0.0000

> <Gold.Chemscore.Lipo.Weighted>
-8.1575

> <Gold.Chemscore.Internal_Hbond.Weighted>
0.0000

> <Gold.Chemscore.DEClash.Weighted>
1.9704

> <Gold.Chemscore.DEInternal.Weighted>
3.4546

> <Gold.Chemscore.Rot.Weighted>
5.4552

> <Gold.Chemscore.Internal.Correction.Weighted>
   9.000000E+99

> <Gold.Protein.RotatedTorsions>
[ 6907 6896 6895 6894 ] final   18.89 input  -60.11 | X-H torsion
[ 7974 7965 7964 7962 ] final  -14.57 input  175.53 | X-H torsion
[ 8008 7997 7996 7995 ] final  -24.52 input   59.86 | X-H torsion
[ 10167 10162 10161 10158 ] final   -4.87 input  -65.29 | X-H torsion
[ 10718 10713 10712 10709 ] final  -96.32 input   66.30 | X-H torsion
[ 10763 10752 10751 10750 ] final  123.48 input  -60.55 | X-H torsion
[ 11005 11000 10999 10996 ] final   19.27 input  -57.11 | X-H torsion

> <Gold.Protein.ActiveResidues>
 VAL166  LYS551  ARG553  GLY616  TRP617  ASP618  TYR619  PRO620  LYS621  CYS622 
 ASP623  PHE694  ASN695  SER759  ASP760  ASP761  ALA762  ILE779  LEU786  VAL792 
 PHE793  MET794  SER795  GLU796  ALA797  LYS798  CYS799  TRP800  GLU811  SER814 

> <Gold.Protein.RotatedAtoms>
  151.8724  135.0484  160.0480 H   0  0  0  0  0  0  0  0  0  0  0  0  # atno 6907 bound_to 6896
  152.2578  133.5266  159.5372 H   0  0  0  0  0  0  0  0  0  0  0  0  # atno 6908 bound_to 6896
  150.7105  134.0788  159.3933 H   0  0  0  0  0  0  0  0  0  0  0  0  # atno 6909 bound_to 6896
  146.2068  140.3368  142.8404 H   0  0  0  0  0  0  0  0  0  0  0  0  # atno 7974 bound_to 7965
  154.4525  140.1951  156.0477 H   0  0  0  0  0  0  0  0  0  0  0  0  # atno 8008 bound_to 7997
  156.0677  140.3288  155.7511 H   0  0  0  0  0  0  0  0  0  0  0  0  # atno 8009 bound_to 7997
  155.5312  140.0578  157.2879 H   0  0  0  0  0  0  0  0  0  0  0  0  # atno 8010 bound_to 7997
  140.6943  143.6373  150.8467 H   0  0  0  0  0  0  0  0  0  0  0  0  # atno 10167 bound_to 10162
  156.0060  130.5146  150.6208 H   0  0  0  0  0  0  0  0  0  0  0  0  # atno 10718 bound_to 10713
  153.6462  135.3370  155.3086 H   0  0  0  0  0  0  0  0  0  0  0  0  # atno 10763 bound_to 10752
  154.8548  135.4330  154.1952 H   0  0  0  0  0  0  0  0  0  0  0  0  # atno 10764 bound_to 10752
  153.2883  135.7015  153.7392 H   0  0  0  0  0  0  0  0  0  0  0  0  # atno 10765 bound_to 10752
  140.4156  134.1572  155.7669 H   0  0  0  0  0  0  0  0  0  0  0  0  # atno 11005 bound_to 11000
  144.8814  140.7405  143.5984 LP  0  0  0  0  0  0  0  0  0  0  0  0  # atno 17320 bound_to 7965
  145.3288  139.1766  143.4548 LP  0  0  0  0  0  0  0  0  0  0  0  0  # atno 17321 bound_to 7965
  140.0090  143.5663  152.2846 LP  0  0  0  0  0  0  0  0  0  0  0  0  # atno 17342 bound_to 10162
  139.6380  144.7652  151.2398 LP  0  0  0  0  0  0  0  0  0  0  0  0  # atno 17343 bound_to 10162
  157.4023  131.0812  151.1297 LP  0  0  0  0  0  0  0  0  0  0  0  0  # atno 17370 bound_to 10713
  157.1954  130.6371  149.5719 LP  0  0  0  0  0  0  0  0  0  0  0  0  # atno 17371 bound_to 10713
  141.1804  133.8426  157.1277 LP  0  0  0  0  0  0  0  0  0  0  0  0  # atno 17394 bound_to 11000
  140.0236  134.9934  157.0642 LP  0  0  0  0  0  0  0  0  0  0  0  0  # atno 17395 bound_to 11000

$$$$
