AV-unprocessed.smi:784|AV-procd|sdf|3718|dock4
  -GOLD-   22720 1143D 1   1.00000     0.00000
 Structure written by MMmdl.
 38 39  0  0  0  0  0  0  0  0  1 V2000
  150.9810  133.6097  154.9087 C   0  0  0  0  0  0  0  0  0  0  0  0
  151.1535  134.9717  155.5132 C   0  0  0  0  0  0  0  0  0  0  0  0
  150.1540  135.9333  155.8270 C   0  0  0  0  0  0  0  0  0  0  0  0
  150.8633  136.9745  156.3546 C   0  0  0  0  0  0  0  0  0  0  0  0
  150.4649  138.3045  156.8971 C   0  0  0  0  0  0  0  0  0  0  0  0
  151.3271  139.6317  155.9528 S   0  0  0  0  0  0  0  0  0  0  0  0
  152.7622  139.5674  156.2687 O   0  0  0  0  0  0  0  0  0  0  0  0
  150.8762  139.5907  154.5533 O   0  0  0  0  0  0  0  0  0  0  0  0
  150.7095  141.0769  156.6647 N   0  0  0  0  0  0  0  0  0  0  0  0
  151.5785  141.9888  157.4125 C   0  0  0  0  0  0  0  0  0  0  0  0
  151.7046  141.4817  158.8631 C   0  0  0  0  0  0  0  0  0  0  0  0
  152.8488  142.1552  159.6392 C   0  0  0  0  0  0  0  0  0  0  0  0
  152.4888  143.4797  160.3352 C   0  0  0  0  0  0  0  0  0  0  0  0
  151.5694  144.4389  159.5583 C   0  0  0  0  0  0  0  0  0  0  0  0
  151.8084  144.4984  158.0408 C   0  0  0  0  0  0  0  0  0  0  0  0
  151.0267  143.4194  157.2721 C   0  0  0  0  0  0  0  0  0  0  0  0
  152.1891  136.6822  156.3631 O   0  0  0  0  0  0  0  0  0  0  0  0
  152.3643  135.4025  155.8254 N   0  0  0  0  0  0  0  0  0  0  0  0
  149.9968  133.5039  154.4523 H   0  0  0  0  0  0  0  0  0  0  0  0
  151.0811  132.8315  155.6653 H   0  0  0  0  0  0  0  0  0  0  0  0
  151.7259  133.4217  154.1347 H   0  0  0  0  0  0  0  0  0  0  0  0
  149.0849  135.8672  155.6915 H   0  0  0  0  0  0  0  0  0  0  0  0
  149.3884  138.4508  156.8098 H   0  0  0  0  0  0  0  0  0  0  0  0
  150.7367  138.3912  157.9487 H   0  0  0  0  0  0  0  0  0  0  0  0
  149.9416  141.5128  156.1543 H   0  0  0  0  0  0  0  0  0  0  0  0
  152.5691  141.9582  156.9569 H   0  0  0  0  0  0  0  0  0  0  0  0
  150.7600  141.5785  159.3998 H   0  0  0  0  0  0  0  0  0  0  0  0
  151.9195  140.4124  158.8289 H   0  0  0  0  0  0  0  0  0  0  0  0
  153.2108  141.4657  160.4027 H   0  0  0  0  0  0  0  0  0  0  0  0
  153.6976  142.3107  158.9724 H   0  0  0  0  0  0  0  0  0  0  0  0
  152.0182  143.2627  161.2948 H   0  0  0  0  0  0  0  0  0  0  0  0
  153.4182  143.9961  160.5779 H   0  0  0  0  0  0  0  0  0  0  0  0
  150.5272  144.1807  159.7505 H   0  0  0  0  0  0  0  0  0  0  0  0
  151.6969  145.4377  159.9769 H   0  0  0  0  0  0  0  0  0  0  0  0
  151.4625  145.4698  157.6861 H   0  0  0  0  0  0  0  0  0  0  0  0
  152.8727  144.4580  157.8065 H   0  0  0  0  0  0  0  0  0  0  0  0
  151.0299  143.6863  156.2146 H   0  0  0  0  0  0  0  0  0  0  0  0
  149.9798  143.4454  157.5772 H   0  0  0  0  0  0  0  0  0  0  0  0
  1  2  1  0  0  0  0
  1 19  1  0  0  0  0
  1 20  1  0  0  0  0
  1 21  1  0  0  0  0
  2 18  2  0  0  0  0
  2  3  1  0  0  0  0
  3  4  2  0  0  0  0
  3 22  1  0  0  0  0
  4  5  1  0  0  0  0
  4 17  1  0  0  0  0
  5  6  1  0  0  0  0
  5 23  1  0  0  0  0
  5 24  1  0  0  0  0
  6  7  2  0  0  0  0
  6  8  2  0  0  0  0
  6  9  1  0  0  0  0
  9 10  1  0  0  0  0
  9 25  1  0  0  0  0
 10 16  1  0  0  0  0
 10 11  1  0  0  0  0
 10 26  1  0  0  0  0
 11 12  1  0  0  0  0
 11 27  1  0  0  0  0
 11 28  1  0  0  0  0
 12 13  1  0  0  0  0
 12 29  1  0  0  0  0
 12 30  1  0  0  0  0
 13 14  1  0  0  0  0
 13 31  1  0  0  0  0
 13 32  1  0  0  0  0
 14 15  1  0  0  0  0
 14 33  1  0  0  0  0
 14 34  1  0  0  0  0
 15 16  1  0  0  0  0
 15 35  1  0  0  0  0
 15 36  1  0  0  0  0
 16 37  1  0  0  0  0
 16 38  1  0  0  0  0
 17 18  1  0  0  0  0
M  END
> <s_m_source_file>
AV-unprocessed.smi

> <i_m_source_file_index>
784

> <i_lp_mmshare_version>
43012

> <i_f3d_flags>
0

> <s_epik_input>
W0NIM11jMVtjSF1jKG9uMSlbQ0gyXVMoPU8pKD1PKVtOSF1bQ0hdMltDSDJdW0NIMl1bQ0gyXVtDSDJdW0NIMl1bQ0gyXTI=

> <s_epik_cmdline>
J2VwaWtfcHl0aG9uJywgJy1waCcsICc3LjAnLCAnLXRuJywgJzgnLCAnLW1hJywgJzIwMCcsICctbWV0YWxfYmluZGluZycsICctaW1hZScsICc8aW5maWxlLm1hZT4nLCAnLW9tYWUnLCAnPG91dGZpbGUubWFlPic=

> <r_lp_tautomer_probability>
1

> <r_epik_Ionization_Penalty>
4.92328e-05

> <r_epik_Ionization_Penalty_Charging>
0

> <r_epik_Ionization_Penalty_Neutral>
4.92328e-05

> <r_epik_State_Penalty>
-0

> <r_epik_Charging_Adjusted_Penalty>
0

> <i_epik_Tot_Q>
0

> <i_epik_Tot_abs_Q>
0

> <r_epik_Metal_State_Penalty>
0.0438012

> <b_epik_Metal_Only>
0

> <s_lp_Force_Field>
OPLS_2005

> <r_lp_Energy>
5.5121

> <b_lp_Chiralities_Consistent>
1

> <s_lp_Variant>
AV-unprocessed.smi:784-1

> <Gold.Version>
5.8.1

> <Gold.Id.Protein>
6NUR|6NUR_protein|mol2

> <Gold.PLP.Fitness>
44.2049

> <Gold.PLP.PLP>
-35.9626

> <Gold.PLP.part.hbond>
-2.9750

> <Gold.PLP.part.metal>
0.0000

> <Gold.PLP.part.buried>
-5.8847

> <Gold.PLP.part.nonpolar>
-27.3322

> <Gold.PLP.part.repulsive>
0.1599

> <Gold.PLP.ligand.clash>
0.0000

> <Gold.PLP.ligand.torsion>
0.9342

> <Gold.PLP.Chemscore.Hbond>
3.0000

> <Gold.PLP.Chemscore.CHOScore>
0.0000

> <Gold.PLP.Chemscore.Metal>
0.0000

> <Gold.Chemscore.Hbonds>
donor molecule, donor type, donor heavy atom, donor atom, acceptor molecule, acceptor atom, score
      P1  H  7989  7998       L1     8  1.00
      P1  H  7997  8008       L1     7  0.90

> <Gold.PLP.Chemscore.Internal.Correction>
1.1107

> <Gold.Rescore>
     Score         DG    S(hbond)    S(metal)    S(lipo)     H(rot)  DE(clash)    DE(int)     intcor
     21.78     -22.82       2.87        0.00      96.39       1.37       0.17       0.87       ----

> <Gold.Chemscore.Fitness>
21.7840

> <Gold.Chemscore.DG>
-22.8208

> <Gold.Chemscore.ZeroCoef>
-5.4800

> <Gold.Chemscore.Hbond>
2.8681

> <Gold.Chemscore.Metal>
0.0000

> <Gold.Chemscore.Lipo>
96.3938

> <Gold.Chemscore.Internal_Hbond>
0.0000

> <Gold.Chemscore.DEClash>
0.1693

> <Gold.Chemscore.DEInternal>
0.8675

> <Gold.Chemscore.Rot>
1.3738

> <Gold.Chemscore.Internal.Correction>
   9.000000E+99

> <Gold.Chemscore.Hbonds>
donor molecule, donor type, donor heavy atom, donor atom, acceptor molecule, acceptor atom, score
      P1  H  7989  7998       L1     8  0.88
      P1  H  7997  8008       L1     7  0.88
      P1  H 10752 10765       L1    18  0.03

> <Gold.Chemscore.Hbond.Weighted>
-9.5796

> <Gold.Chemscore.Metal.Weighted>
-0.0000

> <Gold.Chemscore.Lipo.Weighted>
-11.2781

> <Gold.Chemscore.Internal_Hbond.Weighted>
0.0000

> <Gold.Chemscore.DEClash.Weighted>
0.1693

> <Gold.Chemscore.DEInternal.Weighted>
0.8675

> <Gold.Chemscore.Rot.Weighted>
3.5168

> <Gold.Chemscore.Internal.Correction.Weighted>
   9.000000E+99

> <Gold.Protein.RotatedTorsions>
[ 6907 6896 6895 6894 ] final   33.92 input  -60.11 | X-H torsion
[ 7974 7965 7964 7962 ] final   11.16 input  175.53 | X-H torsion
[ 8008 7997 7996 7995 ] final  -67.98 input   59.86 | X-H torsion
[ 10167 10162 10161 10158 ] final  162.89 input  -65.29 | X-H torsion
[ 10718 10713 10712 10709 ] final    1.09 input   66.30 | X-H torsion
[ 10763 10752 10751 10750 ] final -154.74 input  -60.55 | X-H torsion
[ 11005 11000 10999 10996 ] final  114.77 input  -57.11 | X-H torsion

> <Gold.Protein.ActiveResidues>
 VAL166  LYS551  ARG553  GLY616  TRP617  ASP618  TYR619  PRO620  LYS621  CYS622 
 ASP623  PHE694  ASN695  SER759  ASP760  ASP761  ALA762  ILE779  LEU786  VAL792 
 PHE793  MET794  SER795  GLU796  ALA797  LYS798  CYS799  TRP800  GLU811  SER814 

> <Gold.Protein.RotatedAtoms>
  152.0952  134.9380  160.0570 H   0  0  0  0  0  0  0  0  0  0  0  0  # atno 6907 bound_to 6896
  152.0616  133.4060  159.4428 H   0  0  0  0  0  0  0  0  0  0  0  0  # atno 6908 bound_to 6896
  150.6838  134.3114  159.4791 H   0  0  0  0  0  0  0  0  0  0  0  0  # atno 6909 bound_to 6896
  146.2376  139.9527  142.8468 H   0  0  0  0  0  0  0  0  0  0  0  0  # atno 7974 bound_to 7965
  154.4837  140.0882  156.7436 H   0  0  0  0  0  0  0  0  0  0  0  0  # atno 8008 bound_to 7997
  155.4405  140.3453  155.4271 H   0  0  0  0  0  0  0  0  0  0  0  0  # atno 8009 bound_to 7997
  156.1229  140.1479  156.9166 H   0  0  0  0  0  0  0  0  0  0  0  0  # atno 8010 bound_to 7997
  139.4866  144.4392  151.8974 H   0  0  0  0  0  0  0  0  0  0  0  0  # atno 10167 bound_to 10162
  156.8430  130.5527  149.5676 H   0  0  0  0  0  0  0  0  0  0  0  0  # atno 10718 bound_to 10713
  154.7837  135.3183  154.7934 H   0  0  0  0  0  0  0  0  0  0  0  0  # atno 10763 bound_to 10752
  153.8639  135.6850  153.4784 H   0  0  0  0  0  0  0  0  0  0  0  0  # atno 10764 bound_to 10752
  153.1481  135.4711  154.9535 H   0  0  0  0  0  0  0  0  0  0  0  0  # atno 10765 bound_to 10752
  139.8990  134.9573  156.6943 H   0  0  0  0  0  0  0  0  0  0  0  0  # atno 11005 bound_to 11000
  145.1846  140.9783  143.4246 LP  0  0  0  0  0  0  0  0  0  0  0  0  # atno 17320 bound_to 7965
  144.9911  139.3688  143.6214 LP  0  0  0  0  0  0  0  0  0  0  0  0  # atno 17321 bound_to 7965
  140.3843  144.2697  150.5905 LP  0  0  0  0  0  0  0  0  0  0  0  0  # atno 17342 bound_to 10162
  140.5205  143.2267  151.8396 LP  0  0  0  0  0  0  0  0  0  0  0  0  # atno 17343 bound_to 10162
  156.0870  130.5866  150.9665 LP  0  0  0  0  0  0  0  0  0  0  0  0  # atno 17370 bound_to 10713
  157.6345  131.0917  150.8376 LP  0  0  0  0  0  0  0  0  0  0  0  0  # atno 17371 bound_to 10713
  140.7201  133.9148  155.8141 LP  0  0  0  0  0  0  0  0  0  0  0  0  # atno 17394 bound_to 11000
  141.0234  134.0857  157.4095 LP  0  0  0  0  0  0  0  0  0  0  0  0  # atno 17395 bound_to 11000

$$$$
