AV-unprocessed.smi:532|AV-procd|sdf|2852|dock9
  -GOLD-   2262023343D 1   1.00000     0.00000
 Structure written by MMmdl.
 48 50  0  0  0  0  0  0  0  0  2 V2000
  147.6559  141.3615  153.6474 C   0  0  0  0  0  0  0  0  0  0  0  0
  148.9582  141.6785  154.1052 O   0  0  0  0  0  0  0  0  0  0  0  0
  149.0694  141.5998  155.5159 C   0  0  0  0  0  0  0  0  0  0  0  0
  150.4941  141.9916  155.9234 C   0  0  0  0  0  0  0  0  0  0  0  0
  151.1122  140.9648  156.7545 N   0  0  0  0  0  0  0  0  0  0  0  0
  151.6672  141.0969  157.9910 C   0  0  0  0  0  0  0  0  0  0  0  0
  151.6971  142.3101  158.6867 N   0  0  0  0  0  0  0  0  0  0  0  0
  150.5651  143.2374  158.6534 C   0  0  0  0  0  0  0  0  0  0  0  0
  150.3272  143.9320  160.0061 C   0  0  2  0  0  0  0  0  0  0  0  0
  149.1019  144.8544  159.9525 C   0  0  0  0  0  0  0  0  0  0  0  0
  151.5910  144.7009  160.4210 C   0  0  0  0  0  0  0  0  0  0  0  0
  152.8265  143.7856  160.3968 C   0  0  1  0  0  0  0  0  0  0  0  0
  152.8880  142.8532  161.6182 C   0  0  0  0  0  0  0  0  0  0  0  0
  152.9184  143.0402  159.0441 C   0  0  0  0  0  0  0  0  0  0  0  0
  152.2158  139.9780  158.4711 N   0  0  0  0  0  0  0  0  0  0  0  0
  151.9796  139.0535  157.4665 C   0  0  0  0  0  0  0  0  0  0  0  0
  151.3280  139.6236  156.4184 C   0  0  0  0  0  0  0  0  0  0  0  0
  150.9765  138.8974  155.1771 C   0  0  0  0  0  0  0  0  0  0  0  0
  150.4181  139.4677  154.2424 O   0  0  0  0  0  0  0  0  0  0  0  0
  151.3517  137.5799  155.2247 N   0  5  0  0  0  0  0  0  0  0  0  0
  152.0033  136.9602  156.2694 C   0  0  0  0  0  0  0  0  0  0  0  0
  152.3058  135.7668  156.2305 O   0  0  0  0  0  0  0  0  0  0  0  0
  152.3311  137.6784  157.3890 N   0  0  0  0  0  0  0  0  0  0  0  0
  153.0348  137.0488  158.5100 C   0  0  0  0  0  0  0  0  0  0  0  0
  147.6201  141.4423  152.5611 H   0  0  0  0  0  0  0  0  0  0  0  0
  146.9144  142.0462  154.0611 H   0  0  0  0  0  0  0  0  0  0  0  0
  147.3810  140.3413  153.9182 H   0  0  0  0  0  0  0  0  0  0  0  0
  148.3445  142.2640  155.9888 H   0  0  0  0  0  0  0  0  0  0  0  0
  148.8514  140.5838  155.8498 H   0  0  0  0  0  0  0  0  0  0  0  0
  151.0979  142.1632  155.0407 H   0  0  0  0  0  0  0  0  0  0  0  0
  150.5002  142.9441  156.4507 H   0  0  0  0  0  0  0  0  0  0  0  0
  150.7328  143.9767  157.8690 H   0  0  0  0  0  0  0  0  0  0  0  0
  149.6656  142.6884  158.3718 H   0  0  0  0  0  0  0  0  0  0  0  0
  150.1235  143.1634  160.7524 H   0  0  0  0  0  0  0  0  0  0  0  0
  149.2359  145.6497  159.2185 H   0  0  0  0  0  0  0  0  0  0  0  0
  148.9193  145.3211  160.9208 H   0  0  0  0  0  0  0  0  0  0  0  0
  148.2045  144.2984  159.6805 H   0  0  0  0  0  0  0  0  0  0  0  0
  151.7501  145.5297  159.7295 H   0  0  0  0  0  0  0  0  0  0  0  0
  151.4638  145.1469  161.4080 H   0  0  0  0  0  0  0  0  0  0  0  0
  153.7037  144.4297  160.4680 H   0  0  0  0  0  0  0  0  0  0  0  0
  152.0632  142.1420  161.6284 H   0  0  0  0  0  0  0  0  0  0  0  0
  152.8423  143.4225  162.5469 H   0  0  0  0  0  0  0  0  0  0  0  0
  153.8197  142.2877  161.6332 H   0  0  0  0  0  0  0  0  0  0  0  0
  153.7833  142.3785  159.0280 H   0  0  0  0  0  0  0  0  0  0  0  0
  153.1052  143.7681  158.2535 H   0  0  0  0  0  0  0  0  0  0  0  0
  152.4477  136.2232  158.9144 H   0  0  0  0  0  0  0  0  0  0  0  0
  153.2284  137.7417  159.3285 H   0  0  0  0  0  0  0  0  0  0  0  0
  153.9979  136.6549  158.1827 H   0  0  0  0  0  0  0  0  0  0  0  0
  1  2  1  0  0  0  0
  1 25  1  0  0  0  0
  1 26  1  0  0  0  0
  1 27  1  0  0  0  0
  2  3  1  0  0  0  0
  3  4  1  0  0  0  0
  3 28  1  0  0  0  0
  3 29  1  0  0  0  0
  4  5  1  0  0  0  0
  4 30  1  0  0  0  0
  4 31  1  0  0  0  0
  5 17  1  0  0  0  0
  5  6  1  0  0  0  0
  6  7  1  0  0  0  0
  6 15  2  0  0  0  0
  7 14  1  0  0  0  0
  7  8  1  0  0  0  0
  8  9  1  0  0  0  0
  8 32  1  0  0  0  0
  8 33  1  0  0  0  0
  9 10  1  0  0  0  0
  9 11  1  0  0  0  0
  9 34  1  0  0  0  0
 10 35  1  0  0  0  0
 10 36  1  0  0  0  0
 10 37  1  0  0  0  0
 11 12  1  0  0  0  0
 11 38  1  0  0  0  0
 11 39  1  0  0  0  0
 12 13  1  0  0  0  0
 12 14  1  0  0  0  0
 12 40  1  0  0  0  0
 13 41  1  0  0  0  0
 13 42  1  0  0  0  0
 13 43  1  0  0  0  0
 14 44  1  0  0  0  0
 14 45  1  0  0  0  0
 15 16  1  0  0  0  0
 16 23  1  0  0  0  0
 16 17  2  0  0  0  0
 17 18  1  0  0  0  0
 18 19  2  0  0  0  0
 18 20  1  0  0  0  0
 20 21  1  0  0  0  0
 21 22  2  0  0  0  0
 21 23  1  0  0  0  0
 23 24  1  0  0  0  0
 24 46  1  0  0  0  0
 24 47  1  0  0  0  0
 24 48  1  0  0  0  0
M  CHG  1  20  -1
M  END
> <s_m_source_file>
AV-unprocessed.smi

> <i_m_source_file_index>
532

> <i_lp_mmshare_version>
43012

> <i_f3d_flags>
0

> <s_epik_input>
W0NIM11uMWMoPU8pW25IXWMoPU8pYyhjMTIpbihbQ0gyXVtDSDJdT1tDSDNdKWMobjIpTjNbQ0gyXVtDQEBIXShbQ0gzXSlbQ0gyXVtDQEBIXShbQ0gzXSlbQ0gyXTM=

> <s_epik_cmdline>
J2VwaWtfcHl0aG9uJywgJy1waCcsICc3LjAnLCAnLXRuJywgJzgnLCAnLW1hJywgJzIwMCcsICctbWV0YWxfYmluZGluZycsICctaW1hZScsICc8aW5maWxlLm1hZT4nLCAnLW9tYWUnLCAnPG91dGZpbGUubWFlPic=

> <r_lp_tautomer_probability>
1

> <r_epik_Ionization_Penalty>
5.12128

> <r_epik_Ionization_Penalty_Charging>
0.0789629

> <r_epik_Ionization_Penalty_Neutral>
5.04232

> <r_epik_State_Penalty>
5.03111

> <r_epik_Charging_Adjusted_Penalty>
5.11007

> <i_epik_Tot_Q>
-1

> <i_epik_Tot_abs_Q>
1

> <r_epik_Metal_State_Penalty>
1.14201

> <b_epik_Metal_Only>
1

> <s_lp_Force_Field>
OPLS_2005

> <r_lp_Energy>
45.9264

> <b_lp_Chiralities_Consistent>
1

> <s_lp_Variant>
AV-unprocessed.smi:532-5

> <Gold.Version>
5.8.1

> <Gold.Id.Protein>
6NUR|6NUR_protein|mol2

> <Gold.PLP.Fitness>
45.9163

> <Gold.PLP.PLP>
-40.4336

> <Gold.PLP.part.hbond>
-3.3346

> <Gold.PLP.part.metal>
0.0000

> <Gold.PLP.part.buried>
-4.5172

> <Gold.PLP.part.nonpolar>
-33.2283

> <Gold.PLP.part.repulsive>
0.4419

> <Gold.PLP.ligand.clash>
0.0000

> <Gold.PLP.ligand.torsion>
1.2568

> <Gold.PLP.Chemscore.Hbond>
2.5184

> <Gold.PLP.Chemscore.CHOScore>
0.0000

> <Gold.PLP.Chemscore.Metal>
0.0000

> <Gold.Chemscore.Hbonds>
donor molecule, donor type, donor heavy atom, donor atom, acceptor molecule, acceptor atom, score
      P1  H  7989  7998       L1    19  1.00
      P1  H  8011  8017       L1     2  0.49
      P1  H 10752 10763       L1    22  0.86

> <Gold.PLP.Chemscore.Internal.Correction>
0.4410

> <Gold.Rescore>
     Score         DG    S(hbond)    S(metal)    S(lipo)     H(rot)  DE(clash)    DE(int)     intcor
     13.70     -19.10       1.59        0.00     101.85       1.41       0.96       4.44       ----

> <Gold.Chemscore.Fitness>
13.7032

> <Gold.Chemscore.DG>
-19.0983

> <Gold.Chemscore.ZeroCoef>
-5.4800

> <Gold.Chemscore.Hbond>
1.5939

> <Gold.Chemscore.Metal>
0.0000

> <Gold.Chemscore.Lipo>
101.8484

> <Gold.Chemscore.Internal_Hbond>
0.0000

> <Gold.Chemscore.DEClash>
0.9590

> <Gold.Chemscore.DEInternal>
4.4362

> <Gold.Chemscore.Rot>
1.4147

> <Gold.Chemscore.Internal.Correction>
   9.000000E+99

> <Gold.Chemscore.Hbonds>
donor molecule, donor type, donor heavy atom, donor atom, acceptor molecule, acceptor atom, score
      P1  H  7989  7998       L1    19  0.72
      P1  H  8011  8017       L1     2  0.12
      P1  H 10752 10763       L1    22  0.66

> <Gold.Chemscore.Hbond.Weighted>
-5.3236

> <Gold.Chemscore.Metal.Weighted>
-0.0000

> <Gold.Chemscore.Lipo.Weighted>
-11.9163

> <Gold.Chemscore.Internal_Hbond.Weighted>
0.0000

> <Gold.Chemscore.DEClash.Weighted>
0.9590

> <Gold.Chemscore.DEInternal.Weighted>
4.4362

> <Gold.Chemscore.Rot.Weighted>
3.6216

> <Gold.Chemscore.Internal.Correction.Weighted>
   9.000000E+99

> <Gold.Protein.RotatedTorsions>
[ 6907 6896 6895 6894 ] final  104.62 input  -60.11 | X-H torsion
[ 7974 7965 7964 7962 ] final  110.48 input  175.53 | X-H torsion
[ 8008 7997 7996 7995 ] final   16.55 input   59.86 | X-H torsion
[ 10167 10162 10161 10158 ] final -152.47 input  -65.29 | X-H torsion
[ 10718 10713 10712 10709 ] final  127.08 input   66.30 | X-H torsion
[ 10763 10752 10751 10750 ] final   88.17 input  -60.55 | X-H torsion
[ 11005 11000 10999 10996 ] final  -20.68 input  -57.11 | X-H torsion

> <Gold.Protein.ActiveResidues>
 VAL166  LYS551  ARG553  GLY616  TRP617  ASP618  TYR619  PRO620  LYS621  CYS622 
 ASP623  PHE694  ASN695  SER759  ASP760  ASP761  ALA762  ILE779  LEU786  VAL792 
 PHE793  MET794  SER795  GLU796  ALA797  LYS798  CYS799  TRP800  GLU811  SER814 

> <Gold.Protein.RotatedAtoms>
  152.5258  133.9650  159.7734 H   0  0  0  0  0  0  0  0  0  0  0  0  # atno 6907 bound_to 6896
  150.9933  133.6120  159.2712 H   0  0  0  0  0  0  0  0  0  0  0  0  # atno 6908 bound_to 6896
  151.3255  135.0835  159.9374 H   0  0  0  0  0  0  0  0  0  0  0  0  # atno 6909 bound_to 6896
  145.2544  139.2727  143.4050 H   0  0  0  0  0  0  0  0  0  0  0  0  # atno 7974 bound_to 7965
  154.8786  140.2969  155.5438 H   0  0  0  0  0  0  0  0  0  0  0  0  # atno 8008 bound_to 7997
  156.3022  140.2446  156.3719 H   0  0  0  0  0  0  0  0  0  0  0  0  # atno 8009 bound_to 7997
  154.8741  140.0400  157.1731 H   0  0  0  0  0  0  0  0  0  0  0  0  # atno 8010 bound_to 7997
  139.7178  143.9005  152.2492 H   0  0  0  0  0  0  0  0  0  0  0  0  # atno 10167 bound_to 10162
  157.5364  131.1097  150.8928 H   0  0  0  0  0  0  0  0  0  0  0  0  # atno 10718 bound_to 10713
  153.1741  135.4517  154.9942 H   0  0  0  0  0  0  0  0  0  0  0  0  # atno 10763 bound_to 10752
  154.7986  135.3247  154.7608 H   0  0  0  0  0  0  0  0  0  0  0  0  # atno 10764 bound_to 10752
  153.8080  135.6957  153.4900 H   0  0  0  0  0  0  0  0  0  0  0  0  # atno 10765 bound_to 10752
  140.8488  133.7872  155.9942 H   0  0  0  0  0  0  0  0  0  0  0  0  # atno 11005 bound_to 11000
  146.3293  140.2944  142.8617 LP  0  0  0  0  0  0  0  0  0  0  0  0  # atno 17320 bound_to 7965
  144.9474  140.8142  143.5593 LP  0  0  0  0  0  0  0  0  0  0  0  0  # atno 17321 bound_to 7965
  139.8892  144.6975  150.8789 LP  0  0  0  0  0  0  0  0  0  0  0  0  # atno 17342 bound_to 10162
  140.7747  143.3599  151.1848 LP  0  0  0  0  0  0  0  0  0  0  0  0  # atno 17343 bound_to 10162
  156.9494  130.5414  149.5282 LP  0  0  0  0  0  0  0  0  0  0  0  0  # atno 17370 bound_to 10713
  156.0462  130.5538  150.8886 LP  0  0  0  0  0  0  0  0  0  0  0  0  # atno 17371 bound_to 10713
  140.8814  134.2607  157.5142 LP  0  0  0  0  0  0  0  0  0  0  0  0  # atno 17394 bound_to 11000
  139.8704  134.9616  156.4403 LP  0  0  0  0  0  0  0  0  0  0  0  0  # atno 17395 bound_to 11000

$$$$
