AV-unprocessed.smi:1013|AV-procd|sdf|4427|dock10
  -GOLD-   22720 2383D 1   1.00000     0.00000
 Structure written by MMmdl.
 30 31  0  0  0  0  0  0  0  0  3 V2000
  150.9584  140.1724  154.5697 O   0  0  0  0  0  0  0  0  0  0  0  0
  151.4070  140.6471  155.6359 C   0  0  0  0  0  0  0  0  0  0  0  0
  152.3302  140.1434  156.3158 O   0  5  0  0  0  0  0  0  0  0  0  0
  150.7807  141.9602  156.1352 C   0  0  1  0  0  0  0  0  0  0  0  0
  151.8917  143.0041  156.4006 C   0  0  0  0  0  0  0  0  0  0  0  0
  152.4145  142.9569  157.7569 N   0  0  0  0  0  0  0  0  0  0  0  0
  152.3146  143.9170  158.7406 C   0  0  0  0  0  0  0  0  0  0  0  0
  152.9805  143.4482  159.8363 C   0  0  0  0  0  0  0  0  0  0  0  0
  153.4794  142.1792  159.4223 C   0  0  0  0  0  0  0  0  0  0  0  0
  154.2990  141.1932  160.2125 C   0  0  0  0  0  0  0  0  0  0  0  0
  153.6818  140.0124  160.2480 F   0  0  0  0  0  0  0  0  0  0  0  0
  155.4979  141.0347  159.6521 F   0  0  0  0  0  0  0  0  0  0  0  0
  154.4633  141.6368  161.4587 F   0  0  0  0  0  0  0  0  0  0  0  0
  153.1416  141.8970  158.1715 N   0  0  0  0  0  0  0  0  0  0  0  0
  149.8159  142.4654  155.1317 N   0  3  0  0  0  0  0  0  0  0  0  0
  148.5821  141.6631  154.9984 C   0  0  0  0  0  0  0  0  0  0  0  0
  147.4518  142.3806  154.3006 C   0  0  0  0  0  0  0  0  0  0  0  0
  147.4324  142.2156  155.8052 C   0  0  0  0  0  0  0  0  0  0  0  0
  150.2457  141.7731  157.0687 H   0  0  0  0  0  0  0  0  0  0  0  0
  152.7271  142.8472  155.7165 H   0  0  0  0  0  0  0  0  0  0  0  0
  151.5242  144.0150  156.2155 H   0  0  0  0  0  0  0  0  0  0  0  0
  151.7826  144.8437  158.5825 H   0  0  0  0  0  0  0  0  0  0  0  0
  153.0999  143.9410  160.7898 H   0  0  0  0  0  0  0  0  0  0  0  0
  149.5438  143.3948  155.4165 H   0  0  0  0  0  0  0  0  0  0  0  0
  148.7084  140.5846  154.9210 H   0  0  0  0  0  0  0  0  0  0  0  0
  147.6428  143.3764  153.9041 H   0  0  0  0  0  0  0  0  0  0  0  0
  146.7579  141.7753  153.7208 H   0  0  0  0  0  0  0  0  0  0  0  0
  146.7196  141.5045  156.2179 H   0  0  0  0  0  0  0  0  0  0  0  0
  147.6058  143.1040  156.4098 H   0  0  0  0  0  0  0  0  0  0  0  0
  150.2819  142.5200  154.2373 H   0  0  0  0  0  0  0  0  0  0  0  0
  1  2  2  0  0  0  0
  2  3  1  0  0  0  0
  2  4  1  0  0  0  0
  4  5  1  0  0  0  0
  4 15  1  0  0  0  0
  4 19  1  0  0  0  0
  5  6  1  0  0  0  0
  5 20  1  0  0  0  0
  5 21  1  0  0  0  0
  6 14  1  0  0  0  0
  6  7  1  0  0  0  0
  7  8  2  0  0  0  0
  7 22  1  0  0  0  0
  8  9  1  0  0  0  0
  8 23  1  0  0  0  0
  9 10  1  0  0  0  0
  9 14  2  0  0  0  0
 10 11  1  0  0  0  0
 10 12  1  0  0  0  0
 10 13  1  0  0  0  0
 15 16  1  0  0  0  0
 15 24  1  0  0  0  0
 15 30  1  0  0  0  0
 16 18  1  0  0  0  0
 16 17  1  0  0  0  0
 16 25  1  0  0  0  0
 17 18  1  0  0  0  0
 17 26  1  0  0  0  0
 17 27  1  0  0  0  0
 18 28  1  0  0  0  0
 18 29  1  0  0  0  0
M  CHG  1   3  -1
M  CHG  1  15   1
M  END
> <s_m_source_file>
AV-unprocessed.smi

> <i_m_source_file_index>
1013

> <i_lp_mmshare_version>
43012

> <i_f3d_flags>
0

> <s_epik_input>
W0NIMl0xW0NIMl1bQ0hdMVtOSF1bQ0BIXShDKD1PKVtPSF0pW0NIMl1uMltjSF1bY0hdYyhuMilDKEYpKEYpRg==

> <s_epik_cmdline>
J2VwaWtfcHl0aG9uJywgJy1waCcsICc3LjAnLCAnLXRuJywgJzgnLCAnLW1hJywgJzIwMCcsICctbWV0YWxfYmluZGluZycsICctaW1hZScsICc8aW5maWxlLm1hZT4nLCAnLW9tYWUnLCAnPG91dGZpbGUubWFlPic=

> <r_lp_tautomer_probability>
1

> <r_epik_Ionization_Penalty>
0.183175

> <r_epik_Ionization_Penalty_Charging>
0.183175

> <r_epik_Ionization_Penalty_Neutral>
3.57035e-11

> <r_epik_State_Penalty>
0.172705

> <r_epik_Charging_Adjusted_Penalty>
0.35588

> <i_epik_Tot_Q>
0

> <i_epik_Tot_abs_Q>
2

> <r_epik_Metal_State_Penalty>
0.172705

> <b_epik_Metal_Only>
0

> <s_lp_Force_Field>
OPLS_2005

> <r_lp_Energy>
10.483

> <b_lp_Chiralities_Consistent>
1

> <s_lp_Variant>
AV-unprocessed.smi:1013-2

> <Gold.Version>
5.8.1

> <Gold.Id.Protein>
6NUR|6NUR_protein|mol2

> <Gold.PLP.Fitness>
52.4998

> <Gold.PLP.PLP>
-38.6646

> <Gold.PLP.part.hbond>
-2.9721

> <Gold.PLP.part.metal>
0.0000

> <Gold.PLP.part.buried>
-1.3404

> <Gold.PLP.part.nonpolar>
-32.7215

> <Gold.PLP.part.repulsive>
0.2638

> <Gold.PLP.ligand.clash>
0.0000

> <Gold.PLP.ligand.torsion>
0.9294

> <Gold.PLP.Chemscore.Hbond>
4.9825

> <Gold.PLP.Chemscore.CHOScore>
0.0000

> <Gold.PLP.Chemscore.Metal>
0.0000

> <Gold.Chemscore.Hbonds>
donor molecule, donor type, donor heavy atom, donor atom, acceptor molecule, acceptor atom, score
      L1  H    15    24       P1  8028  1.82
      P1  H  7989  7998       L1     1  0.78
      P1  H  7997  8008       L1     3  2.00

> <Gold.PLP.Chemscore.Internal.Correction>
0.7465

> <Gold.Rescore>
     Score         DG    S(hbond)    S(metal)    S(lipo)     H(rot)  DE(clash)    DE(int)     intcor
     13.47     -16.93       2.94        0.00      70.72       2.60       0.73       2.73       ----

> <Gold.Chemscore.Fitness>
13.4660

> <Gold.Chemscore.DG>
-16.9296

> <Gold.Chemscore.ZeroCoef>
-5.4800

> <Gold.Chemscore.Hbond>
2.9411

> <Gold.Chemscore.Metal>
0.0000

> <Gold.Chemscore.Lipo>
70.7245

> <Gold.Chemscore.Internal_Hbond>
0.0000

> <Gold.Chemscore.DEClash>
0.7343

> <Gold.Chemscore.DEInternal>
2.7294

> <Gold.Chemscore.Rot>
2.5970

> <Gold.Chemscore.Internal.Correction>
   9.000000E+99

> <Gold.Chemscore.Hbonds>
donor molecule, donor type, donor heavy atom, donor atom, acceptor molecule, acceptor atom, score
      L1  H    15    24       P1  8028  0.87
      P1  H  7989  7998       L1     1  0.43
      P1  H  7997  8008       L1     3  0.95

> <Gold.Chemscore.Hbond.Weighted>
-9.8232

> <Gold.Chemscore.Metal.Weighted>
-0.0000

> <Gold.Chemscore.Lipo.Weighted>
-8.2748

> <Gold.Chemscore.Internal_Hbond.Weighted>
0.0000

> <Gold.Chemscore.DEClash.Weighted>
0.7343

> <Gold.Chemscore.DEInternal.Weighted>
2.7294

> <Gold.Chemscore.Rot.Weighted>
6.6484

> <Gold.Chemscore.Internal.Correction.Weighted>
   9.000000E+99

> <Gold.Protein.RotatedTorsions>
[ 6907 6896 6895 6894 ] final  145.97 input  -60.11 | X-H torsion
[ 7974 7965 7964 7962 ] final   36.25 input  175.53 | X-H torsion
[ 8008 7997 7996 7995 ] final  -47.84 input   59.86 | X-H torsion
[ 10167 10162 10161 10158 ] final  -11.97 input  -65.29 | X-H torsion
[ 10718 10713 10712 10709 ] final  -44.55 input   66.30 | X-H torsion
[ 10763 10752 10751 10750 ] final  154.88 input  -60.55 | X-H torsion
[ 11005 11000 10999 10996 ] final  -56.45 input  -57.11 | X-H torsion

> <Gold.Protein.ActiveResidues>
 VAL166  LYS551  ARG553  GLY616  TRP617  ASP618  TYR619  PRO620  LYS621  CYS622 
 ASP623  PHE694  ASN695  SER759  ASP760  ASP761  ALA762  ILE779  LEU786  VAL792 
 PHE793  MET794  SER795  GLU796  ALA797  LYS798  CYS799  TRP800  GLU811  SER814 

> <Gold.Protein.RotatedAtoms>
  152.1740  133.4663  159.4923 H   0  0  0  0  0  0  0  0  0  0  0  0  # atno 6907 bound_to 6896
  150.6924  134.1917  159.4297 H   0  0  0  0  0  0  0  0  0  0  0  0  # atno 6908 bound_to 6896
  151.9825  135.0021  160.0608 H   0  0  0  0  0  0  0  0  0  0  0  0  # atno 6909 bound_to 6896
  146.1224  139.6040  142.9280 H   0  0  0  0  0  0  0  0  0  0  0  0  # atno 7974 bound_to 7965
  154.4021  140.1336  156.4241 H   0  0  0  0  0  0  0  0  0  0  0  0  # atno 8008 bound_to 7997
  155.7614  140.3486  155.5180 H   0  0  0  0  0  0  0  0  0  0  0  0  # atno 8009 bound_to 7997
  155.8855  140.0994  157.1446 H   0  0  0  0  0  0  0  0  0  0  0  0  # atno 8010 bound_to 7997
  140.7151  143.5582  150.9225 H   0  0  0  0  0  0  0  0  0  0  0  0  # atno 10167 bound_to 10162
  156.2374  130.4177  149.8801 H   0  0  0  0  0  0  0  0  0  0  0  0  # atno 10718 bound_to 10713
  154.1594  135.2810  155.3113 H   0  0  0  0  0  0  0  0  0  0  0  0  # atno 10763 bound_to 10752
  154.6158  135.5484  153.7525 H   0  0  0  0  0  0  0  0  0  0  0  0  # atno 10764 bound_to 10752
  153.0197  135.6426  154.1737 H   0  0  0  0  0  0  0  0  0  0  0  0  # atno 10765 bound_to 10752
  141.1120  133.6610  156.4621 H   0  0  0  0  0  0  0  0  0  0  0  0  # atno 11005 bound_to 11000
  145.5437  141.0419  143.2317 LP  0  0  0  0  0  0  0  0  0  0  0  0  # atno 17320 bound_to 7965
  144.7610  139.6957  143.7234 LP  0  0  0  0  0  0  0  0  0  0  0  0  # atno 17321 bound_to 7965
  139.9307  143.6496  152.3077 LP  0  0  0  0  0  0  0  0  0  0  0  0  # atno 17342 bound_to 10162
  139.6946  144.7643  151.1378 LP  0  0  0  0  0  0  0  0  0  0  0  0  # atno 17343 bound_to 10162
  156.6395  130.8699  151.3511 LP  0  0  0  0  0  0  0  0  0  0  0  0  # atno 17370 bound_to 10713
  157.7160  130.9498  150.1258 LP  0  0  0  0  0  0  0  0  0  0  0  0  # atno 17371 bound_to 10713
  140.4748  134.6720  157.5145 LP  0  0  0  0  0  0  0  0  0  0  0  0  # atno 17394 bound_to 11000
  140.0020  134.6822  155.9515 LP  0  0  0  0  0  0  0  0  0  0  0  0  # atno 17395 bound_to 11000

$$$$
