AV-unprocessed.smi:1830|AV-procd|sdf|7436|dock7
  -GOLD-   22720 9123D 1   1.00000     0.00000
 Structure written by MMmdl.
 53 56  0  0  0  0  0  0  0  0  2 V2000
  146.4726  137.1198  154.2462 O   0  0  0  0  0  0  0  0  0  0  0  0
  145.5459  137.9280  154.1896 C   0  0  0  0  0  0  0  0  0  0  0  0
  144.2625  137.5740  154.0344 N   0  0  0  0  0  0  0  0  0  0  0  0
  143.7821  136.2038  153.8908 C   0  0  0  0  0  0  0  0  0  0  0  0
  143.7222  135.7743  152.4141 C   0  0  2  0  0  0  0  0  0  0  0  0
  143.5780  134.2503  152.2682 C   0  0  0  0  0  0  0  0  0  0  0  0
  143.5635  133.8372  150.8416 N   0  3  2  0  0  0  0  0  0  0  0  0
  143.7249  132.3757  150.6798 C   0  0  0  0  0  0  0  0  0  0  0  0
  145.2189  132.1260  150.4025 C   0  0  0  0  0  0  0  0  0  0  0  0
  145.8544  133.5146  150.2671 C   0  0  0  0  0  0  0  0  0  0  0  0
  144.6579  134.4417  150.0512 C   0  0  2  0  0  0  0  0  0  0  0  0
  144.8911  135.9312  150.3742 C   0  0  0  0  0  0  0  0  0  0  0  0
  144.9373  136.1465  151.7763 O   0  0  0  0  0  0  0  0  0  0  0  0
  145.6766  139.2634  154.2483 N   0  0  0  0  0  0  0  0  0  0  0  0
  146.8752  140.0259  154.3415 C   0  0  0  0  0  0  0  0  0  0  0  0
  148.1383  139.4665  154.0283 C   0  0  0  0  0  0  0  0  0  0  0  0
  149.2891  140.2682  154.1178 C   0  0  0  0  0  0  0  0  0  0  0  0
  149.1379  141.6049  154.5219 C   0  0  0  0  0  0  0  0  0  0  0  0
  147.9461  142.1465  154.8428 N   0  0  0  0  0  0  0  0  0  0  0  0
  146.8286  141.3815  154.7766 C   0  0  0  0  0  0  0  0  0  0  0  0
  145.6102  141.9961  155.1459 N   0  0  0  0  0  0  0  0  0  0  0  0
  145.2879  143.3406  154.6795 C   0  0  0  0  0  0  0  0  0  0  0  0
  144.1444  143.8063  155.5763 C   0  0  0  0  0  0  0  0  0  0  0  0
  144.5064  143.1754  156.9170 C   0  0  0  0  0  0  0  0  0  0  0  0
  145.1593  141.8456  156.5262 C   0  0  0  0  0  0  0  0  0  0  0  0
  143.5684  138.3063  154.0007 H   0  0  0  0  0  0  0  0  0  0  0  0
  144.3965  135.5130  154.4709 H   0  0  0  0  0  0  0  0  0  0  0  0
  142.7827  136.1631  154.3249 H   0  0  0  0  0  0  0  0  0  0  0  0
  142.8777  136.2734  151.9344 H   0  0  0  0  0  0  0  0  0  0  0  0
  144.4032  133.7587  152.7868 H   0  0  0  0  0  0  0  0  0  0  0  0
  142.6582  133.9088  152.7444 H   0  0  0  0  0  0  0  0  0  0  0  0
  143.3582  131.8147  151.5408 H   0  0  0  0  0  0  0  0  0  0  0  0
  143.1367  132.0618  149.8167 H   0  0  0  0  0  0  0  0  0  0  0  0
  145.6885  131.5629  151.2096 H   0  0  0  0  0  0  0  0  0  0  0  0
  145.3421  131.5494  149.4851 H   0  0  0  0  0  0  0  0  0  0  0  0
  146.3725  133.7753  151.1911 H   0  0  0  0  0  0  0  0  0  0  0  0
  146.5784  133.5688  149.4536 H   0  0  0  0  0  0  0  0  0  0  0  0
  144.3735  134.3645  149.0004 H   0  0  0  0  0  0  0  0  0  0  0  0
  145.8245  136.2743  149.9274 H   0  0  0  0  0  0  0  0  0  0  0  0
  144.0971  136.5422  149.9419 H   0  0  0  0  0  0  0  0  0  0  0  0
  144.8361  139.7998  154.0921 H   0  0  0  0  0  0  0  0  0  0  0  0
  148.2434  138.4351  153.7283 H   0  0  0  0  0  0  0  0  0  0  0  0
  150.2637  139.8677  153.8808 H   0  0  0  0  0  0  0  0  0  0  0  0
  149.9965  142.2552  154.5975 H   0  0  0  0  0  0  0  0  0  0  0  0
  146.1400  144.0102  154.8037 H   0  0  0  0  0  0  0  0  0  0  0  0
  145.0031  143.3386  153.6269 H   0  0  0  0  0  0  0  0  0  0  0  0
  144.0554  144.8916  155.6238 H   0  0  0  0  0  0  0  0  0  0  0  0
  143.1975  143.4011  155.2166 H   0  0  0  0  0  0  0  0  0  0  0  0
  145.2341  143.8045  157.4315 H   0  0  0  0  0  0  0  0  0  0  0  0
  143.6467  143.0483  157.5754 H   0  0  0  0  0  0  0  0  0  0  0  0
  144.4204  141.0450  156.5676 H   0  0  0  0  0  0  0  0  0  0  0  0
  145.9765  141.5894  157.2017 H   0  0  0  0  0  0  0  0  0  0  0  0
  142.6781  134.1261  150.4508 H   0  0  0  0  0  0  0  0  0  0  0  0
  1  2  2  0  0  0  0
  2  3  1  0  0  0  0
  2 14  1  0  0  0  0
  3  4  1  0  0  0  0
  3 26  1  0  0  0  0
  4  5  1  0  0  0  0
  4 27  1  0  0  0  0
  4 28  1  0  0  0  0
  5 13  1  0  0  0  0
  5  6  1  0  0  0  0
  5 29  1  0  0  0  0
  6  7  1  0  0  0  0
  6 30  1  0  0  0  0
  6 31  1  0  0  0  0
  7 11  1  0  0  0  0
  7  8  1  0  0  0  0
  7 53  1  0  0  0  0
  8  9  1  0  0  0  0
  8 32  1  0  0  0  0
  8 33  1  0  0  0  0
  9 10  1  0  0  0  0
  9 34  1  0  0  0  0
  9 35  1  0  0  0  0
 10 11  1  0  0  0  0
 10 36  1  0  0  0  0
 10 37  1  0  0  0  0
 11 12  1  0  0  0  0
 11 38  1  0  0  0  0
 12 13  1  0  0  0  0
 12 39  1  0  0  0  0
 12 40  1  0  0  0  0
 14 15  1  0  0  0  0
 14 41  1  0  0  0  0
 15 20  1  0  0  0  0
 15 16  2  0  0  0  0
 16 17  1  0  0  0  0
 16 42  1  0  0  0  0
 17 18  2  0  0  0  0
 17 43  1  0  0  0  0
 18 19  1  0  0  0  0
 18 44  1  0  0  0  0
 19 20  2  0  0  0  0
 20 21  1  0  0  0  0
 21 25  1  0  0  0  0
 21 22  1  0  0  0  0
 22 23  1  0  0  0  0
 22 45  1  0  0  0  0
 22 46  1  0  0  0  0
 23 24  1  0  0  0  0
 23 47  1  0  0  0  0
 23 48  1  0  0  0  0
 24 25  1  0  0  0  0
 24 49  1  0  0  0  0
 24 50  1  0  0  0  0
 25 51  1  0  0  0  0
 25 52  1  0  0  0  0
M  CHG  1   7   1
M  END
> <s_m_source_file>
AV-unprocessed.smi

> <i_m_source_file_index>
1830

> <i_lp_mmshare_version>
43012

> <i_f3d_flags>
0

> <s_epik_input>
W0NIMl0xW0NIMl1bQ0gyXVtDQEhdKE4xMilbQ0gyXU9bQ0BASF0oW0NIMl0yKVtDSDJdW05IXUMoPU8pW05IXWMzW2NIXVtjSF1bY0hdbmMzTjRbQ0gyXVtDSDJdW0NIMl1bQ0gyXTQ=

> <s_epik_cmdline>
J2VwaWtfcHl0aG9uJywgJy1waCcsICc3LjAnLCAnLXRuJywgJzgnLCAnLW1hJywgJzIwMCcsICctbWV0YWxfYmluZGluZycsICctaW1hZScsICc8aW5maWxlLm1hZT4nLCAnLW9tYWUnLCAnPG91dGZpbGUubWFlPic=

> <r_lp_tautomer_probability>
1

> <r_epik_Ionization_Penalty>
0.193547

> <r_epik_Ionization_Penalty_Charging>
0.10673

> <r_epik_Ionization_Penalty_Neutral>
0.0868166

> <r_epik_State_Penalty>
0.173595

> <r_epik_Charging_Adjusted_Penalty>
0.280326

> <i_epik_Tot_Q>
1

> <i_epik_Tot_abs_Q>
1

> <r_epik_Metal_State_Penalty>
0.164683

> <b_epik_Metal_Only>
0

> <s_lp_Force_Field>
OPLS_2005

> <r_lp_Energy>
65.0875

> <b_lp_Chiralities_Consistent>
1

> <s_lp_Variant>
AV-unprocessed.smi:1830-5

> <Gold.Version>
5.8.1

> <Gold.Id.Protein>
6NUR|6NUR_protein|mol2

> <Gold.PLP.Fitness>
52.4870

> <Gold.PLP.PLP>
-42.3007

> <Gold.PLP.part.hbond>
-3.2228

> <Gold.PLP.part.metal>
0.0000

> <Gold.PLP.part.buried>
-5.9566

> <Gold.PLP.part.nonpolar>
-34.5906

> <Gold.PLP.part.repulsive>
1.6991

> <Gold.PLP.ligand.clash>
0.0000

> <Gold.PLP.ligand.torsion>
0.9154

> <Gold.PLP.Chemscore.Hbond>
3.8960

> <Gold.PLP.Chemscore.CHOScore>
0.0000

> <Gold.PLP.Chemscore.Metal>
0.0000

> <Gold.Chemscore.Hbonds>
donor molecule, donor type, donor heavy atom, donor atom, acceptor molecule, acceptor atom, score
      L1  H     7    53       P1 10186  2.00
      L1  H    14    41       P1 10175  0.66
      L1  C    18    44       P1  8028  0.04

> <Gold.PLP.Chemscore.Internal.Correction>
0.3291

> <Gold.Rescore>
     Score         DG    S(hbond)    S(metal)    S(lipo)     H(rot)  DE(clash)    DE(int)     intcor
     19.45     -22.11       2.69        0.00      95.97       1.41       0.34       2.31       ----

> <Gold.Chemscore.Fitness>
19.4527

> <Gold.Chemscore.DG>
-22.1051

> <Gold.Chemscore.ZeroCoef>
-5.4800

> <Gold.Chemscore.Hbond>
2.6940

> <Gold.Chemscore.Metal>
0.0000

> <Gold.Chemscore.Lipo>
95.9671

> <Gold.Chemscore.Internal_Hbond>
0.0000

> <Gold.Chemscore.DEClash>
0.3396

> <Gold.Chemscore.DEInternal>
2.3128

> <Gold.Chemscore.Rot>
1.4067

> <Gold.Chemscore.Internal.Correction>
   9.000000E+99

> <Gold.Chemscore.Hbonds>
donor molecule, donor type, donor heavy atom, donor atom, acceptor molecule, acceptor atom, score
      L1  H     7    53       P1 10186  0.82
      L1  H    14    41       P1 10175  0.64

> <Gold.Chemscore.Hbond.Weighted>
-8.9981

> <Gold.Chemscore.Metal.Weighted>
-0.0000

> <Gold.Chemscore.Lipo.Weighted>
-11.2282

> <Gold.Chemscore.Internal_Hbond.Weighted>
0.0000

> <Gold.Chemscore.DEClash.Weighted>
0.3396

> <Gold.Chemscore.DEInternal.Weighted>
2.3128

> <Gold.Chemscore.Rot.Weighted>
3.6011

> <Gold.Chemscore.Internal.Correction.Weighted>
   9.000000E+99

> <Gold.Protein.RotatedTorsions>
[ 6907 6896 6895 6894 ] final  -35.80 input  -60.11 | X-H torsion
[ 7974 7965 7964 7962 ] final -173.50 input  175.53 | X-H torsion
[ 8008 7997 7996 7995 ] final   31.55 input   59.86 | X-H torsion
[ 10167 10162 10161 10158 ] final -176.70 input  -65.29 | X-H torsion
[ 10718 10713 10712 10709 ] final   77.51 input   66.30 | X-H torsion
[ 10763 10752 10751 10750 ] final  -15.84 input  -60.55 | X-H torsion
[ 11005 11000 10999 10996 ] final   97.32 input  -57.11 | X-H torsion

> <Gold.Protein.ActiveResidues>
 VAL166  LYS551  ARG553  GLY616  TRP617  ASP618  TYR619  PRO620  LYS621  CYS622 
 ASP623  PHE694  ASN695  SER759  ASP760  ASP761  ALA762  ILE779  LEU786  VAL792 
 PHE793  MET794  SER795  GLU796  ALA797  LYS798  CYS799  TRP800  GLU811  SER814 

> <Gold.Protein.RotatedAtoms>
  151.0352  134.9568  159.8131 H   0  0  0  0  0  0  0  0  0  0  0  0  # atno 6907 bound_to 6896
  152.5353  134.2729  159.8988 H   0  0  0  0  0  0  0  0  0  0  0  0  # atno 6908 bound_to 6896
  151.2739  133.4199  159.2657 H   0  0  0  0  0  0  0  0  0  0  0  0  # atno 6909 bound_to 6896
  144.7137  140.1613  143.6376 H   0  0  0  0  0  0  0  0  0  0  0  0  # atno 7974 bound_to 7965
  155.1082  140.3236  155.4529 H   0  0  0  0  0  0  0  0  0  0  0  0  # atno 8008 bound_to 7997
  156.2698  140.2049  156.6154 H   0  0  0  0  0  0  0  0  0  0  0  0  # atno 8009 bound_to 7997
  154.6777  140.0529  157.0219 H   0  0  0  0  0  0  0  0  0  0  0  0  # atno 8010 bound_to 7997
  139.5516  144.2094  152.1087 H   0  0  0  0  0  0  0  0  0  0  0  0  # atno 10167 bound_to 10162
  157.6713  130.9825  150.1652 H   0  0  0  0  0  0  0  0  0  0  0  0  # atno 10718 bound_to 10713
  153.5494  135.7012  153.5598 H   0  0  0  0  0  0  0  0  0  0  0  0  # atno 10763 bound_to 10752
  153.3529  135.3990  155.1659 H   0  0  0  0  0  0  0  0  0  0  0  0  # atno 10764 bound_to 10752
  154.8663  135.3770  154.5004 H   0  0  0  0  0  0  0  0  0  0  0  0  # atno 10765 bound_to 10752
  139.8776  134.8995  156.4290 H   0  0  0  0  0  0  0  0  0  0  0  0  # atno 11005 bound_to 11000
  145.9028  139.2440  143.1484 LP  0  0  0  0  0  0  0  0  0  0  0  0  # atno 17320 bound_to 7965
  145.9794  140.8695  143.0122 LP  0  0  0  0  0  0  0  0  0  0  0  0  # atno 17321 bound_to 7965
  140.1590  144.5043  150.6643 LP  0  0  0  0  0  0  0  0  0  0  0  0  # atno 17342 bound_to 10162
  140.6780  143.2314  151.5457 LP  0  0  0  0  0  0  0  0  0  0  0  0  # atno 17343 bound_to 10162
  156.2419  130.3692  149.8327 LP  0  0  0  0  0  0  0  0  0  0  0  0  # atno 17370 bound_to 10713
  156.6125  130.8592  151.3457 LP  0  0  0  0  0  0  0  0  0  0  0  0  # atno 17371 bound_to 10713
  140.9080  133.7732  155.9758 LP  0  0  0  0  0  0  0  0  0  0  0  0  # atno 17394 bound_to 11000
  140.8577  134.2878  157.5248 LP  0  0  0  0  0  0  0  0  0  0  0  0  # atno 17395 bound_to 11000

$$$$
