AV-unprocessed.smi:221|AV-procd|sdf|1694|dock9
  -GOLD-   2262020143D 1   1.00000     0.00000
 Structure written by MMmdl.
 50 53  0  0  0  0  0  0  0  0  1 V2000
  152.5677  131.6593  156.1487 N   0  0  0  0  0  0  0  0  0  0  0  0
  151.6686  132.3018  156.8976 C   0  0  0  0  0  0  0  0  0  0  0  0
  151.7866  132.4025  158.1177 O   0  0  0  0  0  0  0  0  0  0  0  0
  150.4792  132.9342  156.1604 C   0  0  2  0  0  0  0  0  0  0  0  0
  150.0058  132.0666  154.9866 C   0  0  0  0  0  0  0  0  0  0  0  0
  149.3022  133.0688  154.0784 C   0  0  1  0  0  0  0  0  0  0  0  0
  148.0593  133.2729  154.5174 F   0  0  0  0  0  0  0  0  0  0  0  0
  150.1252  134.3466  154.2583 C   0  0  0  0  0  0  0  0  0  0  0  0
  150.8283  134.2095  155.5311 N   0  0  0  0  0  0  0  0  0  0  0  0
  150.7968  135.2936  156.3371 C   0  0  0  0  0  0  0  0  0  0  0  0
  150.0331  135.2131  157.4539 N   0  0  0  0  0  0  0  0  0  0  0  0
  149.9562  136.2562  158.2862 C   0  0  0  0  0  0  0  0  0  0  0  0
  150.5505  137.4480  158.1899 N   0  0  0  0  0  0  0  0  0  0  0  0
  151.3192  137.5285  157.0658 C   0  0  0  0  0  0  0  0  0  0  0  0
  151.5004  136.5063  156.0933 C   0  0  0  0  0  0  0  0  0  0  0  0
  152.3553  136.9494  155.0911 N   0  0  0  0  0  0  0  0  0  0  0  0
  152.6593  138.1670  155.4491 C   0  0  0  0  0  0  0  0  0  0  0  0
  152.0744  138.5975  156.6188 N   0  0  0  0  0  0  0  0  0  0  0  0
  152.2285  139.8981  157.2445 C   0  0  0  0  0  0  0  0  0  0  0  0
  150.9326  140.7459  157.2376 C   0  0  2  0  0  0  0  0  0  0  0  0
  150.5299  141.2257  155.8189 C   0  0  0  0  0  0  0  0  0  0  0  0
  150.4712  140.1515  154.9029 O   0  0  0  0  0  0  0  0  0  0  0  0
  151.0519  141.9010  158.2646 C   0  0  1  0  0  0  0  0  0  0  0  0
  151.9698  141.6465  159.4551 C   0  0  0  0  0  0  0  0  0  0  0  0
  152.3959  143.0566  159.8378 C   0  0  0  0  0  0  0  0  0  0  0  0
  152.5866  143.6780  158.5778 O   0  0  0  0  0  0  0  0  0  0  0  0
  151.5547  143.2415  157.6992 C   0  0  0  0  0  0  0  0  0  0  0  0
  149.6515  133.0747  156.8584 H   0  0  0  0  0  0  0  0  0  0  0  0
  149.2343  132.7415  153.0406 H   0  0  0  0  0  0  0  0  0  0  0  0
  153.3654  131.2239  156.5887 H   0  0  0  0  0  0  0  0  0  0  0  0
  152.4463  131.6072  155.1477 H   0  0  0  0  0  0  0  0  0  0  0  0
  150.8551  131.6309  154.4568 H   0  0  0  0  0  0  0  0  0  0  0  0
  149.3524  131.2513  155.2990 H   0  0  0  0  0  0  0  0  0  0  0  0
  150.8799  134.4165  153.4743 H   0  0  0  0  0  0  0  0  0  0  0  0
  149.5046  135.2418  154.1884 H   0  0  0  0  0  0  0  0  0  0  0  0
  149.3272  136.1159  159.1528 H   0  0  0  0  0  0  0  0  0  0  0  0
  153.3159  138.7916  154.8609 H   0  0  0  0  0  0  0  0  0  0  0  0
  152.5672  139.7336  158.2682 H   0  0  0  0  0  0  0  0  0  0  0  0
  153.0322  140.4317  156.7361 H   0  0  0  0  0  0  0  0  0  0  0  0
  150.1266  140.1095  157.6072 H   0  0  0  0  0  0  0  0  0  0  0  0
  149.5463  141.6936  155.8224 H   0  0  0  0  0  0  0  0  0  0  0  0
  151.2297  141.9747  155.4472 H   0  0  0  0  0  0  0  0  0  0  0  0
  149.5852  140.0777  154.5822 H   0  0  0  0  0  0  0  0  0  0  0  0
  150.0554  142.0972  158.6641 H   0  0  0  0  0  0  0  0  0  0  0  0
  151.4731  141.1198  160.2704 H   0  0  0  0  0  0  0  0  0  0  0  0
  152.8499  141.0718  159.1685 H   0  0  0  0  0  0  0  0  0  0  0  0
  151.6049  143.5705  160.3861 H   0  0  0  0  0  0  0  0  0  0  0  0
  153.3051  143.0758  160.4391 H   0  0  0  0  0  0  0  0  0  0  0  0
  151.9402  143.1680  156.6824 H   0  0  0  0  0  0  0  0  0  0  0  0
  150.7495  143.9773  157.6891 H   0  0  0  0  0  0  0  0  0  0  0  0
  1  2  1  0  0  0  0
  1 30  1  0  0  0  0
  1 31  1  0  0  0  0
  2  3  2  0  0  0  0
  2  4  1  0  0  0  0
  4 28  1  0  0  0  0
  4  9  1  0  0  0  0
  4  5  1  0  0  0  0
  5  6  1  0  0  0  0
  5 32  1  0  0  0  0
  5 33  1  0  0  0  0
  6 29  1  0  0  0  0
  6  7  1  0  0  0  0
  6  8  1  0  0  0  0
  8  9  1  0  0  0  0
  8 34  1  0  0  0  0
  8 35  1  0  0  0  0
  9 10  1  0  0  0  0
 10 15  1  0  0  0  0
 10 11  2  0  0  0  0
 11 12  1  0  0  0  0
 12 13  2  0  0  0  0
 12 36  1  0  0  0  0
 13 14  1  0  0  0  0
 14 18  1  0  0  0  0
 14 15  2  0  0  0  0
 15 16  1  0  0  0  0
 16 17  2  0  0  0  0
 17 18  1  0  0  0  0
 17 37  1  0  0  0  0
 18 19  1  0  0  0  0
 19 20  1  0  0  0  0
 19 38  1  0  0  0  0
 19 39  1  0  0  0  0
 20 21  1  0  0  0  0
 20 23  1  0  0  0  0
 20 40  1  0  0  0  0
 21 22  1  0  0  0  0
 21 41  1  0  0  0  0
 21 42  1  0  0  0  0
 22 43  1  0  0  0  0
 23 27  1  0  0  0  0
 23 24  1  0  0  0  0
 23 44  1  0  0  0  0
 24 25  1  0  0  0  0
 24 45  1  0  0  0  0
 24 46  1  0  0  0  0
 25 26  1  0  0  0  0
 25 47  1  0  0  0  0
 25 48  1  0  0  0  0
 26 27  1  0  0  0  0
 27 49  1  0  0  0  0
 27 50  1  0  0  0  0
M  END
> <s_m_source_file>
AV-unprocessed.smi

> <i_m_source_file_index>
221

> <i_lp_mmshare_version>
43012

> <i_f3d_flags>
0

> <s_epik_input>
W05IMl1DKD1PKVtDQEBIXTFbQ0gyXVtDQEBIXShGKVtDSDJdTjFjKG5bY0hdbjIpYyhjMjMpbltjSF1uM1tDSDJdW0NASF0oW0NIMl1bT0hdKVtDQEBIXTRbQ0gyXVtDSDJdT1tDSDJdNA==

> <s_epik_cmdline>
J2VwaWtfcHl0aG9uJywgJy1waCcsICc3LjAnLCAnLXRuJywgJzgnLCAnLW1hJywgJzIwMCcsICctbWV0YWxfYmluZGluZycsICctaW1hZScsICc8aW5maWxlLm1hZT4nLCAnLW9tYWUnLCAnPG91dGZpbGUubWFlPic=

> <r_lp_tautomer_probability>
1

> <r_epik_Ionization_Penalty>
0.000818822

> <r_epik_Ionization_Penalty_Charging>
0

> <r_epik_Ionization_Penalty_Neutral>
0.000818822

> <r_epik_State_Penalty>
0.000440551

> <r_epik_Charging_Adjusted_Penalty>
0.000440551

> <i_epik_Tot_Q>
0

> <i_epik_Tot_abs_Q>
0

> <r_epik_Metal_State_Penalty>
-0

> <b_epik_Metal_Only>
0

> <s_lp_Force_Field>
OPLS_2005

> <r_lp_Energy>
51.8706

> <b_lp_Chiralities_Consistent>
1

> <s_lp_Variant>
AV-unprocessed.smi:221-9

> <Gold.Version>
5.8.1

> <Gold.Id.Protein>
6NUR|6NUR_protein|mol2

> <Gold.PLP.Fitness>
42.5854

> <Gold.PLP.PLP>
-37.8348

> <Gold.PLP.part.hbond>
-3.0533

> <Gold.PLP.part.metal>
0.0000

> <Gold.PLP.part.buried>
-4.8043

> <Gold.PLP.part.nonpolar>
-30.4728

> <Gold.PLP.part.repulsive>
0.2204

> <Gold.PLP.ligand.clash>
0.0000

> <Gold.PLP.ligand.torsion>
1.9236

> <Gold.PLP.Chemscore.Hbond>
2.7840

> <Gold.PLP.Chemscore.CHOScore>
0.0000

> <Gold.PLP.Chemscore.Metal>
0.0000

> <Gold.Chemscore.Hbonds>
donor molecule, donor type, donor heavy atom, donor atom, acceptor molecule, acceptor atom, score
      P1  H  6896  6908       L1     3  0.83
      P1  H  7989  7998       L1    22  0.95
      P1  H 10752 10763       L1    16  0.64

> <Gold.PLP.Chemscore.Internal.Correction>
0.2458

> <Gold.Rescore>
     Score         DG    S(hbond)    S(metal)    S(lipo)     H(rot)  DE(clash)    DE(int)     intcor
     12.16     -13.50       2.63        0.00      74.84       3.72       0.04       1.29       ----

> <Gold.Chemscore.Fitness>
12.1639

> <Gold.Chemscore.DG>
-13.4951

> <Gold.Chemscore.ZeroCoef>
-5.4800

> <Gold.Chemscore.Hbond>
2.6296

> <Gold.Chemscore.Metal>
0.0000

> <Gold.Chemscore.Lipo>
74.8371

> <Gold.Chemscore.Internal_Hbond>
0.0000

> <Gold.Chemscore.DEClash>
0.0436

> <Gold.Chemscore.DEInternal>
1.2877

> <Gold.Chemscore.Rot>
3.7202

> <Gold.Chemscore.Internal.Correction>
   9.000000E+99

> <Gold.Chemscore.Hbonds>
donor molecule, donor type, donor heavy atom, donor atom, acceptor molecule, acceptor atom, score
      P1  H  6896  6908       L1     3  0.82
      P1  H  7989  7998       L1    22  0.16
      P1  H 10752 10763       L1    16  0.44

> <Gold.Chemscore.Hbond.Weighted>
-8.7829

> <Gold.Chemscore.Metal.Weighted>
-0.0000

> <Gold.Chemscore.Lipo.Weighted>
-8.7559

> <Gold.Chemscore.Internal_Hbond.Weighted>
0.0000

> <Gold.Chemscore.DEClash.Weighted>
0.0436

> <Gold.Chemscore.DEInternal.Weighted>
1.2877

> <Gold.Chemscore.Rot.Weighted>
9.5237

> <Gold.Chemscore.Internal.Correction.Weighted>
   9.000000E+99

> <Gold.Protein.RotatedTorsions>
[ 6907 6896 6895 6894 ] final   55.07 input  -60.11 | X-H torsion
[ 7974 7965 7964 7962 ] final  -10.24 input  175.53 | X-H torsion
[ 8008 7997 7996 7995 ] final   -1.87 input   59.86 | X-H torsion
[ 10167 10162 10161 10158 ] final   79.83 input  -65.29 | X-H torsion
[ 10718 10713 10712 10709 ] final   89.97 input   66.30 | X-H torsion
[ 10763 10752 10751 10750 ] final   42.19 input  -60.55 | X-H torsion
[ 11005 11000 10999 10996 ] final   15.28 input  -57.11 | X-H torsion

> <Gold.Protein.ActiveResidues>
 VAL166  LYS551  ARG553  GLY616  TRP617  ASP618  TYR619  PRO620  LYS621  CYS622 
 ASP623  PHE694  ASN695  SER759  ASP760  ASP761  ALA762  ILE779  LEU786  VAL792 
 PHE793  MET794  SER795  GLU796  ALA797  LYS798  CYS799  TRP800  GLU811  SER814 

> <Gold.Protein.RotatedAtoms>
  152.3502  134.7016  160.0238 H   0  0  0  0  0  0  0  0  0  0  0  0  # atno 6907 bound_to 6896
  151.7373  133.3315  159.3364 H   0  0  0  0  0  0  0  0  0  0  0  0  # atno 6908 bound_to 6896
  150.7535  134.6243  159.6197 H   0  0  0  0  0  0  0  0  0  0  0  0  # atno 6909 bound_to 6896
  146.2227  140.2735  142.8358 H   0  0  0  0  0  0  0  0  0  0  0  0  # atno 7974 bound_to 7965
  154.6420  140.2548  155.7311 H   0  0  0  0  0  0  0  0  0  0  0  0  # atno 8008 bound_to 7997
  156.2533  140.2885  156.0738 H   0  0  0  0  0  0  0  0  0  0  0  0  # atno 8009 bound_to 7997
  155.1582  140.0383  157.2827 H   0  0  0  0  0  0  0  0  0  0  0  0  # atno 8010 bound_to 7997
  139.9562  144.5992  150.8115 H   0  0  0  0  0  0  0  0  0  0  0  0  # atno 10167 bound_to 10162
  157.6957  131.0353  150.3507 H   0  0  0  0  0  0  0  0  0  0  0  0  # atno 10718 bound_to 10713
  152.9889  135.6139  154.2909 H   0  0  0  0  0  0  0  0  0  0  0  0  # atno 10763 bound_to 10752
  154.2634  135.2781  155.2770 H   0  0  0  0  0  0  0  0  0  0  0  0  # atno 10764 bound_to 10752
  154.5186  135.5821  153.6719 H   0  0  0  0  0  0  0  0  0  0  0  0  # atno 10765 bound_to 10752
  140.4600  134.1137  155.7715 H   0  0  0  0  0  0  0  0  0  0  0  0  # atno 11005 bound_to 11000
  144.9250  140.7911  143.5725 LP  0  0  0  0  0  0  0  0  0  0  0  0  # atno 17320 bound_to 7965
  145.2675  139.1968  143.4859 LP  0  0  0  0  0  0  0  0  0  0  0  0  # atno 17321 bound_to 7965
  140.7567  143.3072  151.2932 LP  0  0  0  0  0  0  0  0  0  0  0  0  # atno 17342 bound_to 10162
  139.6590  144.0224  152.2679 LP  0  0  0  0  0  0  0  0  0  0  0  0  # atno 17343 bound_to 10162
  156.3956  130.3906  149.6998 LP  0  0  0  0  0  0  0  0  0  0  0  0  # atno 17370 bound_to 10713
  156.4333  130.7825  151.2846 LP  0  0  0  0  0  0  0  0  0  0  0  0  # atno 17371 bound_to 10713
  141.1625  133.8765  157.1807 LP  0  0  0  0  0  0  0  0  0  0  0  0  # atno 17394 bound_to 11000
  139.9951  135.0050  157.0064 LP  0  0  0  0  0  0  0  0  0  0  0  0  # atno 17395 bound_to 11000

$$$$
