AV-unprocessed.smi:1653|AV-procd|sdf|6641|dock5
  -GOLD-   22720 7343D 1   1.00000     0.00000
 Structure written by MMmdl.
 41 42  0  0  0  0  0  0  0  0  3 V2000
  149.5036  135.0440  158.1995 N   0  0  0  0  0  0  0  0  0  0  0  0
  149.2943  135.0324  157.0614 C   0  0  0  0  0  0  0  0  0  0  0  0
  149.0281  135.0166  155.6094 C   0  0  0  0  0  0  0  0  0  0  0  0
  149.6565  136.1796  154.9721 N   0  0  0  0  0  0  0  0  0  0  0  0
  150.8768  136.6824  155.2209 C   0  0  0  0  0  0  0  0  0  0  0  0
  151.6592  136.1943  156.0365 O   0  0  0  0  0  0  0  0  0  0  0  0
  151.2748  137.9146  154.3970 C   0  0  0  0  0  0  0  0  0  0  0  0
  150.8964  139.1849  155.0393 N   0  0  0  0  0  0  0  0  0  0  0  0
  149.8200  139.8917  154.4714 C   0  0  0  0  0  0  0  0  0  0  0  0
  149.3974  141.0612  154.9721 C   0  0  0  0  0  0  0  0  0  0  0  0
  150.0739  141.5926  156.1300 C   0  0  0  0  0  0  0  0  0  0  0  0
  151.1125  140.9322  156.6921 C   0  0  0  0  0  0  0  0  0  0  0  0
  151.7412  141.5167  157.8543 N   0  3  0  0  0  0  0  0  0  0  0  0
  152.5367  140.8417  158.5003 O   0  0  0  0  0  0  0  0  0  0  0  0
  151.4458  142.6671  158.1638 O   0  5  0  0  0  0  0  0  0  0  0  0
  151.5831  139.6497  156.1292 C   0  0  0  0  0  0  0  0  0  0  0  0
  152.5394  139.0256  156.5937 O   0  0  0  0  0  0  0  0  0  0  0  0
  149.5679  133.6822  155.0229 C   0  0  0  0  0  0  0  0  0  0  0  0
  149.5560  133.5717  153.4835 C   0  0  0  0  0  0  0  0  0  0  0  0
  148.2433  133.0662  152.8606 C   0  0  0  0  0  0  0  0  0  0  0  0
  146.9366  133.5753  153.4925 C   0  0  0  0  0  0  0  0  0  0  0  0
  146.9645  135.0278  153.9933 C   0  0  0  0  0  0  0  0  0  0  0  0
  147.4993  135.1490  155.4334 C   0  0  0  0  0  0  0  0  0  0  0  0
  149.0982  136.6546  154.2778 H   0  0  0  0  0  0  0  0  0  0  0  0
  152.3518  137.8742  154.2284 H   0  0  0  0  0  0  0  0  0  0  0  0
  150.8291  137.8520  153.4022 H   0  0  0  0  0  0  0  0  0  0  0  0
  149.3714  139.4304  153.6033 H   0  0  0  0  0  0  0  0  0  0  0  0
  148.5733  141.5927  154.5196 H   0  0  0  0  0  0  0  0  0  0  0  0
  149.7303  142.5271  156.5494 H   0  0  0  0  0  0  0  0  0  0  0  0
  150.6007  133.5608  155.3515 H   0  0  0  0  0  0  0  0  0  0  0  0
  149.0359  132.8358  155.4592 H   0  0  0  0  0  0  0  0  0  0  0  0
  149.8298  134.5218  153.0269 H   0  0  0  0  0  0  0  0  0  0  0  0
  150.3464  132.8843  153.1807 H   0  0  0  0  0  0  0  0  0  0  0  0
  148.2512  133.3274  151.8017 H   0  0  0  0  0  0  0  0  0  0  0  0
  148.2303  131.9761  152.8895 H   0  0  0  0  0  0  0  0  0  0  0  0
  146.1440  133.4711  152.7507 H   0  0  0  0  0  0  0  0  0  0  0  0
  146.6477  132.9153  154.3113 H   0  0  0  0  0  0  0  0  0  0  0  0
  147.5079  135.6735  153.3030 H   0  0  0  0  0  0  0  0  0  0  0  0
  145.9383  135.3967  153.9945 H   0  0  0  0  0  0  0  0  0  0  0  0
  146.9954  134.4139  156.0628 H   0  0  0  0  0  0  0  0  0  0  0  0
  147.1913  136.1175  155.8308 H   0  0  0  0  0  0  0  0  0  0  0  0
  1  2  3  0  0  0  0
  2  3  1  0  0  0  0
  3 23  1  0  0  0  0
  3  4  1  0  0  0  0
  3 18  1  0  0  0  0
  4  5  1  0  0  0  0
  4 24  1  0  0  0  0
  5  6  2  0  0  0  0
  5  7  1  0  0  0  0
  7  8  1  0  0  0  0
  7 25  1  0  0  0  0
  7 26  1  0  0  0  0
  8 16  1  0  0  0  0
  8  9  1  0  0  0  0
  9 10  2  0  0  0  0
  9 27  1  0  0  0  0
 10 11  1  0  0  0  0
 10 28  1  0  0  0  0
 11 12  2  0  0  0  0
 11 29  1  0  0  0  0
 12 13  1  0  0  0  0
 12 16  1  0  0  0  0
 13 14  2  0  0  0  0
 13 15  1  0  0  0  0
 16 17  2  0  0  0  0
 18 19  1  0  0  0  0
 18 30  1  0  0  0  0
 18 31  1  0  0  0  0
 19 20  1  0  0  0  0
 19 32  1  0  0  0  0
 19 33  1  0  0  0  0
 20 21  1  0  0  0  0
 20 34  1  0  0  0  0
 20 35  1  0  0  0  0
 21 22  1  0  0  0  0
 21 36  1  0  0  0  0
 21 37  1  0  0  0  0
 22 23  1  0  0  0  0
 22 38  1  0  0  0  0
 22 39  1  0  0  0  0
 23 40  1  0  0  0  0
 23 41  1  0  0  0  0
M  CHG  1  13   1
M  CHG  1  15  -1
M  END
> <s_m_source_file>
AV-unprocessed.smi

> <i_m_source_file_index>
1653

> <i_lp_mmshare_version>
43012

> <i_f3d_flags>
0

> <s_epik_input>
W0NIMl0xW0NIMl1bQ0gyXVtDSDJdW0NIMl1bQ0gyXUMxKEMjTilbTkhdQyg9TylbQ0gyXW4yW2NIXVtjSF1bY0hdYyhbTitdKD1PKVtPLV0pYzI9Tw==

> <s_epik_cmdline>
J2VwaWtfcHl0aG9uJywgJy1waCcsICc3LjAnLCAnLXRuJywgJzgnLCAnLW1hJywgJzIwMCcsICctbWV0YWxfYmluZGluZycsICctaW1hZScsICc8aW5maWxlLm1hZT4nLCAnLW9tYWUnLCAnPG91dGZpbGUubWFlPic=

> <r_lp_tautomer_probability>
1

> <r_epik_Ionization_Penalty>
4.51252e-07

> <r_epik_Ionization_Penalty_Charging>
1.09758e-10

> <r_epik_Ionization_Penalty_Neutral>
4.51142e-07

> <r_epik_State_Penalty>
-0

> <r_epik_Charging_Adjusted_Penalty>
1.09758e-10

> <i_epik_Tot_Q>
0

> <i_epik_Tot_abs_Q>
2

> <r_epik_Metal_State_Penalty>
-0

> <b_epik_Metal_Only>
0

> <s_lp_Force_Field>
OPLS_2005

> <r_lp_Energy>
31.6459

> <b_lp_Chiralities_Consistent>
1

> <s_lp_Variant>
AV-unprocessed.smi:1653-1

> <Gold.Version>
5.8.1

> <Gold.Id.Protein>
6NUR|6NUR_protein|mol2

> <Gold.PLP.Fitness>
46.4167

> <Gold.PLP.PLP>
-36.4890

> <Gold.PLP.part.hbond>
-3.5457

> <Gold.PLP.part.metal>
0.0000

> <Gold.PLP.part.buried>
-2.1605

> <Gold.PLP.part.nonpolar>
-29.8925

> <Gold.PLP.part.repulsive>
0.1008

> <Gold.PLP.ligand.clash>
0.0000

> <Gold.PLP.ligand.torsion>
0.9838

> <Gold.PLP.Chemscore.Hbond>
3.0000

> <Gold.PLP.Chemscore.CHOScore>
0.9596

> <Gold.PLP.Chemscore.Metal>
0.0000

> <Gold.Chemscore.Hbonds>
donor molecule, donor type, donor heavy atom, donor atom, acceptor molecule, acceptor atom, score
      P1  H  6896  6908       L1     1  1.00
      P1  H  7997  8009       L1    17  0.83
      P1  H 10752 10765       L1     6  1.00
      L1  C     9    27       P1  7957  0.99

> <Gold.PLP.Chemscore.Internal.Correction>
0.0164

> <Gold.Rescore>
     Score         DG    S(hbond)    S(metal)    S(lipo)     H(rot)  DE(clash)    DE(int)     intcor
     14.14     -18.25       2.76        0.00      65.95       1.63       0.04       4.07       ----

> <Gold.Chemscore.Fitness>
14.1383

> <Gold.Chemscore.DG>
-18.2489

> <Gold.Chemscore.ZeroCoef>
-5.4800

> <Gold.Chemscore.Hbond>
2.7613

> <Gold.Chemscore.Metal>
0.0000

> <Gold.Chemscore.Lipo>
65.9463

> <Gold.Chemscore.Internal_Hbond>
0.0000

> <Gold.Chemscore.DEClash>
0.0432

> <Gold.Chemscore.DEInternal>
4.0674

> <Gold.Chemscore.Rot>
1.6287

> <Gold.Chemscore.Internal.Correction>
   9.000000E+99

> <Gold.Chemscore.Hbonds>
donor molecule, donor type, donor heavy atom, donor atom, acceptor molecule, acceptor atom, score
      L1  H     4    24       P1  7948  0.03
      P1  H  6896  6908       L1     1  1.00
      P1  H  7997  8009       L1    17  0.69
      P1  H 10752 10765       L1     6  0.45

> <Gold.Chemscore.Hbond.Weighted>
-9.2226

> <Gold.Chemscore.Metal.Weighted>
-0.0000

> <Gold.Chemscore.Lipo.Weighted>
-7.7157

> <Gold.Chemscore.Internal_Hbond.Weighted>
0.0000

> <Gold.Chemscore.DEClash.Weighted>
0.0432

> <Gold.Chemscore.DEInternal.Weighted>
4.0674

> <Gold.Chemscore.Rot.Weighted>
4.1694

> <Gold.Chemscore.Internal.Correction.Weighted>
   9.000000E+99

> <Gold.Protein.RotatedTorsions>
[ 6907 6896 6895 6894 ] final  157.20 input  -60.11 | X-H torsion
[ 7974 7965 7964 7962 ] final   72.80 input  175.53 | X-H torsion
[ 8008 7997 7996 7995 ] final -172.60 input   59.86 | X-H torsion
[ 10167 10162 10161 10158 ] final   38.80 input  -65.29 | X-H torsion
[ 10718 10713 10712 10709 ] final  -17.24 input   66.30 | X-H torsion
[ 10763 10752 10751 10750 ] final -156.71 input  -60.55 | X-H torsion
[ 11005 11000 10999 10996 ] final   54.86 input  -57.11 | X-H torsion

> <Gold.Protein.ActiveResidues>
 VAL166  LYS551  ARG553  GLY616  TRP617  ASP618  TYR619  PRO620  LYS621  CYS622 
 ASP623  PHE694  ASN695  SER759  ASP760  ASP761  ALA762  ILE779  LEU786  VAL792 
 PHE793  MET794  SER795  GLU796  ALA797  LYS798  CYS799  TRP800  GLU811  SER814 

> <Gold.Protein.RotatedAtoms>
  152.0185  133.3889  159.4248 H   0  0  0  0  0  0  0  0  0  0  0  0  # atno 6907 bound_to 6896
  150.6892  134.3652  159.4977 H   0  0  0  0  0  0  0  0  0  0  0  0  # atno 6908 bound_to 6896
  152.1422  134.9053  160.0604 H   0  0  0  0  0  0  0  0  0  0  0  0  # atno 6909 bound_to 6896
  145.7489  139.2751  143.1443 H   0  0  0  0  0  0  0  0  0  0  0  0  # atno 7974 bound_to 7965
  155.9466  140.1118  157.1011 H   0  0  0  0  0  0  0  0  0  0  0  0  # atno 8008 bound_to 7997
  154.4100  140.1208  156.5064 H   0  0  0  0  0  0  0  0  0  0  0  0  # atno 8009 bound_to 7997
  155.6894  140.3472  155.4890 H   0  0  0  0  0  0  0  0  0  0  0  0  # atno 8010 bound_to 7997
  140.3902  144.1863  150.6131 H   0  0  0  0  0  0  0  0  0  0  0  0  # atno 10167 bound_to 10162
  156.5763  130.4762  149.6340 H   0  0  0  0  0  0  0  0  0  0  0  0  # atno 10718 bound_to 10713
  154.7692  135.3140  154.8224 H   0  0  0  0  0  0  0  0  0  0  0  0  # atno 10763 bound_to 10752
  153.8964  135.6820  153.4762 H   0  0  0  0  0  0  0  0  0  0  0  0  # atno 10764 bound_to 10752
  153.1303  135.4783  154.9272 H   0  0  0  0  0  0  0  0  0  0  0  0  # atno 10765 bound_to 10752
  140.0653  134.5545  155.9106 H   0  0  0  0  0  0  0  0  0  0  0  0  # atno 11005 bound_to 11000
  146.0376  140.8197  142.9845 LP  0  0  0  0  0  0  0  0  0  0  0  0  # atno 17320 bound_to 7965
  144.6854  140.2862  143.7285 LP  0  0  0  0  0  0  0  0  0  0  0  0  # atno 17321 bound_to 7965
  140.4848  143.2367  151.8904 LP  0  0  0  0  0  0  0  0  0  0  0  0  # atno 17342 bound_to 10162
  139.4789  144.5230  151.8774 LP  0  0  0  0  0  0  0  0  0  0  0  0  # atno 17343 bound_to 10162
  156.2670  130.6995  151.1781 LP  0  0  0  0  0  0  0  0  0  0  0  0  # atno 17370 bound_to 10713
  157.7337  131.0589  150.5564 LP  0  0  0  0  0  0  0  0  0  0  0  0  # atno 17371 bound_to 10713
  141.1990  133.6604  156.5821 LP  0  0  0  0  0  0  0  0  0  0  0  0  # atno 17394 bound_to 11000
  140.3709  134.7607  157.4597 LP  0  0  0  0  0  0  0  0  0  0  0  0  # atno 17395 bound_to 11000

$$$$
