AV-unprocessed.smi:2648|AV-procd|sdf|10286|dock8
  -GOLD-   2272014303D 1   1.00000     0.00000
 Structure written by MMmdl.
 33 34  0  0  0  0  0  0  0  0  2 V2000
  146.5701  132.1709  153.8661 O   0  0  0  0  0  0  0  0  0  0  0  0
  147.2473  131.7867  152.9129 C   0  0  0  0  0  0  0  0  0  0  0  0
  148.4605  131.2312  153.0453 N   0  0  0  0  0  0  0  0  0  0  0  0
  149.1366  131.0045  154.3171 C   0  0  0  0  0  0  0  0  0  0  0  0
  150.3766  131.9053  154.4633 C   0  0  0  0  0  0  0  0  0  0  0  0
  151.3182  131.3578  155.4426 N   0  0  0  0  0  0  0  0  0  0  0  0
  151.7350  132.0133  156.5338 C   0  0  0  0  0  0  0  0  0  0  0  0
  151.4244  133.1494  156.8900 O   0  0  0  0  0  0  0  0  0  0  0  0
  152.6773  131.1127  157.3025 C   0  0  0  0  0  0  0  0  0  0  0  0
  152.6436  129.9492  156.4426 N   0  0  0  0  0  0  0  0  0  0  0  0
  151.8469  130.1223  155.3799 C   0  0  0  0  0  0  0  0  0  0  0  0
  151.6389  129.2824  154.5055 O   0  0  0  0  0  0  0  0  0  0  0  0
  146.8913  131.8843  151.6200 N   0  0  0  0  0  0  0  0  0  0  0  0
  145.6787  132.3862  151.0731 C   0  0  0  0  0  0  0  0  0  0  0  0
  144.9217  133.2778  151.8655 C   0  0  0  0  0  0  0  0  0  0  0  0
  143.7219  133.8149  151.3560 C   0  0  0  0  0  0  0  0  0  0  0  0
  143.3103  133.4823  150.1137 N   0  3  0  0  0  0  0  0  0  0  0  0
  144.0057  132.6456  149.3141 C   0  0  0  0  0  0  0  0  0  0  0  0
  145.2129  132.0773  149.7694 C   0  0  0  0  0  0  0  0  0  0  0  0
  148.9536  130.9472  152.2112 H   0  0  0  0  0  0  0  0  0  0  0  0
  148.4415  131.1707  155.1423 H   0  0  0  0  0  0  0  0  0  0  0  0
  149.4288  129.9552  154.3669 H   0  0  0  0  0  0  0  0  0  0  0  0
  150.8693  132.0228  153.4965 H   0  0  0  0  0  0  0  0  0  0  0  0
  150.0790  132.9111  154.7654 H   0  0  0  0  0  0  0  0  0  0  0  0
  153.6794  131.5381  157.3661 H   0  0  0  0  0  0  0  0  0  0  0  0
  152.2967  130.8884  158.2995 H   0  0  0  0  0  0  0  0  0  0  0  0
  153.1619  129.1049  156.6380 H   0  0  0  0  0  0  0  0  0  0  0  0
  147.5923  131.6127  150.9462 H   0  0  0  0  0  0  0  0  0  0  0  0
  145.2514  133.5461  152.8590 H   0  0  0  0  0  0  0  0  0  0  0  0
  143.0850  134.4970  151.9000 H   0  0  0  0  0  0  0  0  0  0  0  0
  143.5820  132.4613  148.3376 H   0  0  0  0  0  0  0  0  0  0  0  0
  145.7623  131.4275  149.1056 H   0  0  0  0  0  0  0  0  0  0  0  0
  142.4404  133.8837  149.7625 H   0  0  0  0  0  0  0  0  0  0  0  0
  1  2  2  0  0  0  0
  2  3  1  0  0  0  0
  2 13  1  0  0  0  0
  3  4  1  0  0  0  0
  3 20  1  0  0  0  0
  4  5  1  0  0  0  0
  4 21  1  0  0  0  0
  4 22  1  0  0  0  0
  5  6  1  0  0  0  0
  5 23  1  0  0  0  0
  5 24  1  0  0  0  0
  6 11  1  0  0  0  0
  6  7  1  0  0  0  0
  7  8  2  0  0  0  0
  7  9  1  0  0  0  0
  9 10  1  0  0  0  0
  9 25  1  0  0  0  0
  9 26  1  0  0  0  0
 10 11  1  0  0  0  0
 10 27  1  0  0  0  0
 11 12  2  0  0  0  0
 13 14  1  0  0  0  0
 13 28  1  0  0  0  0
 14 19  1  0  0  0  0
 14 15  2  0  0  0  0
 15 16  1  0  0  0  0
 15 29  1  0  0  0  0
 16 17  2  0  0  0  0
 16 30  1  0  0  0  0
 17 18  1  0  0  0  0
 17 33  1  0  0  0  0
 18 19  2  0  0  0  0
 18 31  1  0  0  0  0
 19 32  1  0  0  0  0
M  CHG  1  17   1
M  END
> <s_m_source_file>
AV-unprocessed.smi

> <i_m_source_file_index>
2648

> <i_lp_mmshare_version>
43012

> <i_f3d_flags>
0

> <s_epik_input>
W2NIXTFbY0hdbltjSF1bY0hdYzFbTkhdQyg9TylbTkhdW0NIMl1bQ0gyXU4yQyg9TylbQ0gyXVtOSF1DMj1P

> <s_epik_cmdline>
J2VwaWtfcHl0aG9uJywgJy1waCcsICc3LjAnLCAnLXRuJywgJzgnLCAnLW1hJywgJzIwMCcsICctbWV0YWxfYmluZGluZycsICctaW1hZScsICc8aW5maWxlLm1hZT4nLCAnLW9tYWUnLCAnPG91dGZpbGUubWFlPic=

> <r_lp_tautomer_probability>
1

> <r_epik_Ionization_Penalty>
1.05701

> <r_epik_Ionization_Penalty_Charging>
1.05694

> <r_epik_Ionization_Penalty_Neutral>
7.31213e-05

> <r_epik_State_Penalty>
1.11031

> <r_epik_Charging_Adjusted_Penalty>
2.16725

> <i_epik_Tot_Q>
1

> <i_epik_Tot_abs_Q>
1

> <r_epik_Metal_State_Penalty>
1.22924

> <b_epik_Metal_Only>
0

> <s_lp_Force_Field>
OPLS_2005

> <r_lp_Energy>
27.1091

> <b_lp_Chiralities_Consistent>
1

> <s_lp_Variant>
AV-unprocessed.smi:2648-2

> <Gold.Version>
5.8.1

> <Gold.Id.Protein>
6NUR|6NUR_protein|mol2

> <Gold.PLP.Fitness>
46.7625

> <Gold.PLP.PLP>
-32.5403

> <Gold.PLP.part.hbond>
-4.0000

> <Gold.PLP.part.metal>
0.0000

> <Gold.PLP.part.buried>
-5.7473

> <Gold.PLP.part.nonpolar>
-23.1086

> <Gold.PLP.part.repulsive>
0.3222

> <Gold.PLP.ligand.clash>
0.0000

> <Gold.PLP.ligand.torsion>
0.2503

> <Gold.PLP.Chemscore.Hbond>
4.9040

> <Gold.PLP.Chemscore.CHOScore>
0.0000

> <Gold.PLP.Chemscore.Metal>
0.0000

> <Gold.Chemscore.Hbonds>
donor molecule, donor type, donor heavy atom, donor atom, acceptor molecule, acceptor atom, score
      L1  H     3    20       P1 10747  0.99
      L1  H    13    28       P1 10747  1.00
      L1  H    17    33       P1 10186  2.00
      P1  H  6896  6909       L1     8  0.18

> <Gold.PLP.Chemscore.Internal.Correction>
0.0109

> <Gold.Rescore>
     Score         DG    S(hbond)    S(metal)    S(lipo)     H(rot)  DE(clash)    DE(int)     intcor
     16.77     -18.36       3.40        0.00      56.16       1.96       0.00       1.59       ----

> <Gold.Chemscore.Fitness>
16.7673

> <Gold.Chemscore.DG>
-18.3609

> <Gold.Chemscore.ZeroCoef>
-5.4800

> <Gold.Chemscore.Hbond>
3.3952

> <Gold.Chemscore.Metal>
0.0000

> <Gold.Chemscore.Lipo>
56.1608

> <Gold.Chemscore.Internal_Hbond>
0.0000

> <Gold.Chemscore.DEClash>
0.0021

> <Gold.Chemscore.DEInternal>
1.5915

> <Gold.Chemscore.Rot>
1.9648

> <Gold.Chemscore.Internal.Correction>
   9.000000E+99

> <Gold.Chemscore.Hbonds>
donor molecule, donor type, donor heavy atom, donor atom, acceptor molecule, acceptor atom, score
      L1  H     3    20       P1 10747  0.47
      L1  H    13    28       P1 10747  1.00
      L1  H    17    33       P1 10186  0.94
      P1  H  6896  6909       L1     8  0.16

> <Gold.Chemscore.Hbond.Weighted>
-11.3400

> <Gold.Chemscore.Metal.Weighted>
-0.0000

> <Gold.Chemscore.Lipo.Weighted>
-6.5708

> <Gold.Chemscore.Internal_Hbond.Weighted>
0.0000

> <Gold.Chemscore.DEClash.Weighted>
0.0021

> <Gold.Chemscore.DEInternal.Weighted>
1.5915

> <Gold.Chemscore.Rot.Weighted>
5.0299

> <Gold.Chemscore.Internal.Correction.Weighted>
   9.000000E+99

> <Gold.Protein.RotatedTorsions>
[ 6907 6896 6895 6894 ] final  -46.58 input  -60.11 | X-H torsion
[ 7974 7965 7964 7962 ] final   19.89 input  175.53 | X-H torsion
[ 8008 7997 7996 7995 ] final   34.39 input   59.86 | X-H torsion
[ 10167 10162 10161 10158 ] final -128.87 input  -65.29 | X-H torsion
[ 10718 10713 10712 10709 ] final   -0.46 input   66.30 | X-H torsion
[ 10763 10752 10751 10750 ] final  162.09 input  -60.55 | X-H torsion
[ 11005 11000 10999 10996 ] final  174.54 input  -57.11 | X-H torsion

> <Gold.Protein.ActiveResidues>
 VAL166  LYS551  ARG553  GLY616  TRP617  ASP618  TYR619  PRO620  LYS621  CYS622 
 ASP623  PHE694  ASN695  SER759  ASP760  ASP761  ALA762  ILE779  LEU786  VAL792 
 PHE793  MET794  SER795  GLU796  ALA797  LYS798  CYS799  TRP800  GLU811  SER814 

> <Gold.Protein.RotatedAtoms>
  150.9098  134.8514  159.7417 H   0  0  0  0  0  0  0  0  0  0  0  0  # atno 6907 bound_to 6896
  152.4938  134.4376  159.9543 H   0  0  0  0  0  0  0  0  0  0  0  0  # atno 6908 bound_to 6896
  151.4420  133.3601  159.2818 H   0  0  0  0  0  0  0  0  0  0  0  0  # atno 6909 bound_to 6896
  146.2132  139.8248  142.8672 H   0  0  0  0  0  0  0  0  0  0  0  0  # atno 7974 bound_to 7965
  155.1540  140.3277  155.4425 H   0  0  0  0  0  0  0  0  0  0  0  0  # atno 8008 bound_to 7997
  156.2564  140.1972  156.6601 H   0  0  0  0  0  0  0  0  0  0  0  0  # atno 8009 bound_to 7997
  154.6452  140.0565  156.9879 H   0  0  0  0  0  0  0  0  0  0  0  0  # atno 8010 bound_to 7997
  139.9457  143.6112  152.2490 H   0  0  0  0  0  0  0  0  0  0  0  0  # atno 10167 bound_to 10162
  156.8200  130.5453  149.5698 H   0  0  0  0  0  0  0  0  0  0  0  0  # atno 10718 bound_to 10713
  154.2730  135.2765  155.2730 H   0  0  0  0  0  0  0  0  0  0  0  0  # atno 10763 bound_to 10752
  154.5285  135.5736  153.6742 H   0  0  0  0  0  0  0  0  0  0  0  0  # atno 10764 bound_to 10752
  152.9942  135.6222  154.2886 H   0  0  0  0  0  0  0  0  0  0  0  0  # atno 10765 bound_to 10752
  140.3524  134.7183  157.4277 H   0  0  0  0  0  0  0  0  0  0  0  0  # atno 11005 bound_to 11000
  145.3059  141.0207  143.3582 LP  0  0  0  0  0  0  0  0  0  0  0  0  # atno 17320 bound_to 7965
  144.8972  139.4697  143.6650 LP  0  0  0  0  0  0  0  0  0  0  0  0  # atno 17321 bound_to 7965
  139.6668  144.7662  151.1858 LP  0  0  0  0  0  0  0  0  0  0  0  0  # atno 17342 bound_to 10162
  140.7598  143.5925  150.8781 LP  0  0  0  0  0  0  0  0  0  0  0  0  # atno 17343 bound_to 10162
  156.0994  130.5957  150.9868 LP  0  0  0  0  0  0  0  0  0  0  0  0  # atno 17370 bound_to 10713
  157.6461  131.0903  150.8149 LP  0  0  0  0  0  0  0  0  0  0  0  0  # atno 17371 bound_to 10713
  140.0692  134.5886  155.8661 LP  0  0  0  0  0  0  0  0  0  0  0  0  # atno 17394 bound_to 11000
  141.2008  133.6615  156.5917 LP  0  0  0  0  0  0  0  0  0  0  0  0  # atno 17395 bound_to 11000

$$$$
