AV-unprocessed.smi:2744|AV-procd|sdf|10569|dock1
  -GOLD-   2272015 23D 1   1.00000     0.00000
 Structure written by MMmdl.
 40 41  0  0  0  0  0  0  0  0  1 V2000
  152.0635  143.8839  159.7691 C   0  0  0  0  0  0  0  0  0  0  0  0
  152.0401  143.5638  158.2653 C   0  0  0  0  0  0  0  0  0  0  0  0
  151.2516  142.2901  157.8632 C   0  0  2  0  0  0  0  0  0  0  0  0
  149.7810  142.3449  158.3185 C   0  0  0  0  0  0  0  0  0  0  0  0
  151.8524  141.1858  158.5130 O   0  0  0  0  0  0  0  0  0  0  0  0
  151.3009  142.0354  156.3340 C   0  0  0  0  0  0  0  0  0  0  0  0
  150.7478  140.7553  155.9181 N   0  0  0  0  0  0  0  0  0  0  0  0
  149.4169  140.4011  155.8923 C   0  0  0  0  0  0  0  0  0  0  0  0
  149.1697  139.1886  155.4767 N   0  0  0  0  0  0  0  0  0  0  0  0
  150.4272  138.6641  155.2070 C   0  0  0  0  0  0  0  0  0  0  0  0
  150.8879  137.4092  154.7312 C   0  0  0  0  0  0  0  0  0  0  0  0
  150.0194  136.4164  154.4354 N   0  0  0  0  0  0  0  0  0  0  0  0
  150.2513  135.0439  154.8772 C   0  0  0  0  0  0  0  0  0  0  0  0
  149.0882  134.1238  154.4708 C   0  0  0  0  0  0  0  0  0  0  0  0
  150.4703  135.0139  156.3954 C   0  0  0  0  0  0  0  0  0  0  0  0
  152.2293  137.2408  154.5904 N   0  0  0  0  0  0  0  0  0  0  0  0
  153.0656  138.2387  154.8930 C   0  0  0  0  0  0  0  0  0  0  0  0
  152.7778  139.4619  155.3444 N   0  0  0  0  0  0  0  0  0  0  0  0
  151.4319  139.6328  155.4852 C   0  0  0  0  0  0  0  0  0  0  0  0
  152.6933  144.7521  159.9643 H   0  0  0  0  0  0  0  0  0  0  0  0
  152.4636  143.0522  160.3497 H   0  0  0  0  0  0  0  0  0  0  0  0
  151.0690  144.1162  160.1490 H   0  0  0  0  0  0  0  0  0  0  0  0
  151.6274  144.4233  157.7358 H   0  0  0  0  0  0  0  0  0  0  0  0
  153.0742  143.4762  157.9310 H   0  0  0  0  0  0  0  0  0  0  0  0
  149.2742  143.2172  157.9048 H   0  0  0  0  0  0  0  0  0  0  0  0
  149.6893  142.3911  159.4038 H   0  0  0  0  0  0  0  0  0  0  0  0
  149.2324  141.4611  157.9911 H   0  0  0  0  0  0  0  0  0  0  0  0
  152.2357  140.6222  157.8583 H   0  0  0  0  0  0  0  0  0  0  0  0
  150.7687  142.8236  155.7993 H   0  0  0  0  0  0  0  0  0  0  0  0
  152.3337  142.0820  155.9859 H   0  0  0  0  0  0  0  0  0  0  0  0
  148.6290  141.0793  156.1860 H   0  0  0  0  0  0  0  0  0  0  0  0
  149.2166  136.5539  153.8382 H   0  0  0  0  0  0  0  0  0  0  0  0
  151.1664  134.6734  154.4137 H   0  0  0  0  0  0  0  0  0  0  0  0
  149.2717  133.0981  154.7918 H   0  0  0  0  0  0  0  0  0  0  0  0
  148.9492  134.1050  153.3898 H   0  0  0  0  0  0  0  0  0  0  0  0
  148.1497  134.4501  154.9203 H   0  0  0  0  0  0  0  0  0  0  0  0
  150.6756  134.0007  156.7422 H   0  0  0  0  0  0  0  0  0  0  0  0
  149.5931  135.3782  156.9317 H   0  0  0  0  0  0  0  0  0  0  0  0
  151.3185  135.6367  156.6816 H   0  0  0  0  0  0  0  0  0  0  0  0
  154.1153  138.0267  154.7537 H   0  0  0  0  0  0  0  0  0  0  0  0
  1  2  1  0  0  0  0
  1 20  1  0  0  0  0
  1 21  1  0  0  0  0
  1 22  1  0  0  0  0
  2  3  1  0  0  0  0
  2 23  1  0  0  0  0
  2 24  1  0  0  0  0
  3  4  1  0  0  0  0
  3  5  1  0  0  0  0
  3  6  1  0  0  0  0
  4 25  1  0  0  0  0
  4 26  1  0  0  0  0
  4 27  1  0  0  0  0
  5 28  1  0  0  0  0
  6  7  1  0  0  0  0
  6 29  1  0  0  0  0
  6 30  1  0  0  0  0
  7 19  1  0  0  0  0
  7  8  1  0  0  0  0
  8  9  2  0  0  0  0
  8 31  1  0  0  0  0
  9 10  1  0  0  0  0
 10 19  2  0  0  0  0
 10 11  1  0  0  0  0
 11 12  1  0  0  0  0
 11 16  2  0  0  0  0
 12 13  1  0  0  0  0
 12 32  1  0  0  0  0
 13 14  1  0  0  0  0
 13 15  1  0  0  0  0
 13 33  1  0  0  0  0
 14 34  1  0  0  0  0
 14 35  1  0  0  0  0
 14 36  1  0  0  0  0
 15 37  1  0  0  0  0
 15 38  1  0  0  0  0
 15 39  1  0  0  0  0
 16 17  1  0  0  0  0
 17 18  2  0  0  0  0
 17 40  1  0  0  0  0
 18 19  1  0  0  0  0
M  END
> <s_m_source_file>
AV-unprocessed.smi

> <i_m_source_file_index>
2744

> <i_lp_mmshare_version>
43012

> <i_f3d_flags>
0

> <s_epik_input>
W0NIM11bQ0gyXVtDQEBdKFtDSDNdKShbT0hdKVtDSDJdbihbY0hdbjEpYyhjMTIpbltjSF1uYzJbTkhdW0NIXShbQ0gzXSlbQ0gzXQ==

> <s_epik_cmdline>
J2VwaWtfcHl0aG9uJywgJy1waCcsICc3LjAnLCAnLXRuJywgJzgnLCAnLW1hJywgJzIwMCcsICctbWV0YWxfYmluZGluZycsICctaW1hZScsICc8aW5maWxlLm1hZT4nLCAnLW9tYWUnLCAnPG91dGZpbGUubWFlPic=

> <r_lp_tautomer_probability>
1

> <r_epik_Ionization_Penalty>
0.00217876

> <r_epik_Ionization_Penalty_Charging>
0

> <r_epik_Ionization_Penalty_Neutral>
0.00217876

> <r_epik_State_Penalty>
-0

> <r_epik_Charging_Adjusted_Penalty>
0

> <i_epik_Tot_Q>
0

> <i_epik_Tot_abs_Q>
0

> <r_epik_Metal_State_Penalty>
-0

> <b_epik_Metal_Only>
0

> <s_lp_Force_Field>
OPLS_2005

> <r_lp_Energy>
9.28896

> <b_lp_Chiralities_Consistent>
1

> <s_lp_Variant>
AV-unprocessed.smi:2744-2

> <Gold.Version>
5.8.1

> <Gold.Id.Protein>
6NUR|6NUR_protein|mol2

> <Gold.PLP.Fitness>
43.7183

> <Gold.PLP.PLP>
-37.6715

> <Gold.PLP.part.hbond>
-4.6732

> <Gold.PLP.part.metal>
0.0000

> <Gold.PLP.part.buried>
-4.9422

> <Gold.PLP.part.nonpolar>
-29.6821

> <Gold.PLP.part.repulsive>
0.2308

> <Gold.PLP.ligand.clash>
0.0000

> <Gold.PLP.ligand.torsion>
0.5880

> <Gold.PLP.Chemscore.Hbond>
2.3600

> <Gold.PLP.Chemscore.CHOScore>
0.0000

> <Gold.PLP.Chemscore.Metal>
0.0000

> <Gold.Chemscore.Hbonds>
donor molecule, donor type, donor heavy atom, donor atom, acceptor molecule, acceptor atom, score
      L1  H    12    32       P1  7948  0.59
      P1  H  7997  8008       L1    18  1.00
      P1  H 10752 10765       L1    16  0.82

> <Gold.PLP.Chemscore.Internal.Correction>
0.1428

> <Gold.Rescore>
     Score         DG    S(hbond)    S(metal)    S(lipo)     H(rot)  DE(clash)    DE(int)     intcor
     12.59     -15.12       2.29        0.00      69.00       2.38       1.81       0.73       ----

> <Gold.Chemscore.Fitness>
12.5899

> <Gold.Chemscore.DG>
-15.1226

> <Gold.Chemscore.ZeroCoef>
-5.4800

> <Gold.Chemscore.Hbond>
2.2942

> <Gold.Chemscore.Metal>
0.0000

> <Gold.Chemscore.Lipo>
69.0015

> <Gold.Chemscore.Internal_Hbond>
0.0000

> <Gold.Chemscore.DEClash>
1.8072

> <Gold.Chemscore.DEInternal>
0.7255

> <Gold.Chemscore.Rot>
2.3802

> <Gold.Chemscore.Internal.Correction>
   9.000000E+99

> <Gold.Chemscore.Hbonds>
donor molecule, donor type, donor heavy atom, donor atom, acceptor molecule, acceptor atom, score
      L1  H    12    32       P1  7948  0.56
      P1  H  7997  8008       L1    18  0.60
      P1  H 10752 10765       L1    16  0.75

> <Gold.Chemscore.Hbond.Weighted>
-7.6627

> <Gold.Chemscore.Metal.Weighted>
-0.0000

> <Gold.Chemscore.Lipo.Weighted>
-8.0732

> <Gold.Chemscore.Internal_Hbond.Weighted>
0.0000

> <Gold.Chemscore.DEClash.Weighted>
1.8072

> <Gold.Chemscore.DEInternal.Weighted>
0.7255

> <Gold.Chemscore.Rot.Weighted>
6.0933

> <Gold.Chemscore.Internal.Correction.Weighted>
   9.000000E+99

> <Gold.Protein.RotatedTorsions>
[ 6907 6896 6895 6894 ] final  139.37 input  -60.11 | X-H torsion
[ 7974 7965 7964 7962 ] final  -72.88 input  175.53 | X-H torsion
[ 8008 7997 7996 7995 ] final  -32.47 input   59.86 | X-H torsion
[ 10167 10162 10161 10158 ] final  147.66 input  -65.29 | X-H torsion
[ 10718 10713 10712 10709 ] final -119.76 input   66.30 | X-H torsion
[ 10763 10752 10751 10750 ] final  165.48 input  -60.55 | X-H torsion
[ 11005 11000 10999 10996 ] final  -71.05 input  -57.11 | X-H torsion

> <Gold.Protein.ActiveResidues>
 VAL166  LYS551  ARG553  GLY616  TRP617  ASP618  TYR619  PRO620  LYS621  CYS622 
 ASP623  PHE694  ASN695  SER759  ASP760  ASP761  ALA762  ILE779  LEU786  VAL792 
 PHE793  MET794  SER795  GLU796  ALA797  LYS798  CYS799  TRP800  GLU811  SER814 

> <Gold.Protein.RotatedAtoms>
  152.2557  133.5253  159.5351 H   0  0  0  0  0  0  0  0  0  0  0  0  # atno 6907 bound_to 6896
  150.7108  134.0899  159.3937 H   0  0  0  0  0  0  0  0  0  0  0  0  # atno 6908 bound_to 6896
  151.8818  135.0450  160.0540 H   0  0  0  0  0  0  0  0  0  0  0  0  # atno 6909 bound_to 6896
  145.6594  140.9257  143.0942 H   0  0  0  0  0  0  0  0  0  0  0  0  # atno 7974 bound_to 7965
  154.4179  140.1736  156.1732 H   0  0  0  0  0  0  0  0  0  0  0  0  # atno 8008 bound_to 7997
  155.9743  140.3383  155.6580 H   0  0  0  0  0  0  0  0  0  0  0  0  # atno 8009 bound_to 7997
  155.6584  140.0698  157.2553 H   0  0  0  0  0  0  0  0  0  0  0  0  # atno 8010 bound_to 7997
  139.4886  144.5739  151.7003 H   0  0  0  0  0  0  0  0  0  0  0  0  # atno 10167 bound_to 10162
  156.1206  130.6320  150.9457 H   0  0  0  0  0  0  0  0  0  0  0  0  # atno 10718 bound_to 10713
  154.3247  135.2755  155.2502 H   0  0  0  0  0  0  0  0  0  0  0  0  # atno 10763 bound_to 10752
  154.4840  135.5851  153.6414 H   0  0  0  0  0  0  0  0  0  0  0  0  # atno 10764 bound_to 10752
  152.9873  135.6118  154.3434 H   0  0  0  0  0  0  0  0  0  0  0  0  # atno 10765 bound_to 10752
  141.1585  133.6807  156.6847 H   0  0  0  0  0  0  0  0  0  0  0  0  # atno 11005 bound_to 11000
  144.7094  139.8429  143.7419 LP  0  0  0  0  0  0  0  0  0  0  0  0  # atno 17320 bound_to 7965
  146.1138  139.4146  143.0271 LP  0  0  0  0  0  0  0  0  0  0  0  0  # atno 17321 bound_to 7965
  140.5331  144.0699  150.6061 LP  0  0  0  0  0  0  0  0  0  0  0  0  # atno 17342 bound_to 10162
  140.3695  143.2862  152.0294 LP  0  0  0  0  0  0  0  0  0  0  0  0  # atno 17343 bound_to 10162
  157.6389  131.0912  150.8291 LP  0  0  0  0  0  0  0  0  0  0  0  0  # atno 17370 bound_to 10713
  156.8388  130.5041  149.5323 LP  0  0  0  0  0  0  0  0  0  0  0  0  # atno 17371 bound_to 10713
  140.3076  134.8112  157.4150 LP  0  0  0  0  0  0  0  0  0  0  0  0  # atno 17394 bound_to 11000
  140.1207  134.5224  155.8186 LP  0  0  0  0  0  0  0  0  0  0  0  0  # atno 17395 bound_to 11000

$$$$
