AV-unprocessed.smi:3112|AV-procd|sdf|11845|dock10
  -GOLD-   2272017223D 1   1.00000     0.00000
 Structure written by MMmdl.
 36 36  0  0  0  0  0  0  0  0  1 V2000
  144.4291  135.7497  151.6212 C   0  0  0  0  0  0  0  0  0  0  0  0
  144.7724  137.0471  152.3654 C   0  0  0  0  0  0  0  0  0  0  0  0
  146.2329  137.4973  152.1619 C   0  0  1  0  0  0  0  0  0  0  0  0
  146.4985  137.7507  150.7967 O   0  0  0  0  0  0  0  0  0  0  0  0
  146.6399  138.7314  152.9894 C   0  0  0  0  0  0  0  0  0  0  0  0
  148.0945  138.8791  153.0922 N   0  0  0  0  0  0  0  0  0  0  0  0
  148.5554  139.7151  154.2050 C   0  0  2  0  0  0  0  0  0  0  0  0
  148.0451  141.1498  153.9715 C   0  0  0  0  0  0  0  0  0  0  0  0
  150.1046  139.6582  154.3659 C   0  0  2  0  0  0  0  0  0  0  0  0
  150.6910  138.2347  154.4034 C   0  0  0  0  0  0  0  0  0  0  0  0
  150.5562  140.4015  155.5363 N   0  0  0  0  0  0  0  0  0  0  0  0
  150.3231  141.7251  155.8489 C   0  0  0  0  0  0  0  0  0  0  0  0
  150.9410  141.9792  157.0396 C   0  0  0  0  0  0  0  0  0  0  0  0
  151.5362  140.7337  157.3839 C   0  0  0  0  0  0  0  0  0  0  0  0
  151.3053  139.7923  156.4838 N   0  0  0  0  0  0  0  0  0  0  0  0
  143.3993  135.4513  151.8183 H   0  0  0  0  0  0  0  0  0  0  0  0
  145.0774  134.9311  151.9353 H   0  0  0  0  0  0  0  0  0  0  0  0
  144.5370  135.8691  150.5431 H   0  0  0  0  0  0  0  0  0  0  0  0
  144.0861  137.8343  152.0513 H   0  0  0  0  0  0  0  0  0  0  0  0
  144.5925  136.8920  153.4298 H   0  0  0  0  0  0  0  0  0  0  0  0
  146.8891  136.6783  152.4582 H   0  0  0  0  0  0  0  0  0  0  0  0
  145.6904  137.9983  150.3745 H   0  0  0  0  0  0  0  0  0  0  0  0
  146.2285  139.6198  152.5087 H   0  0  0  0  0  0  0  0  0  0  0  0
  146.1716  138.6828  153.9702 H   0  0  0  0  0  0  0  0  0  0  0  0
  148.4496  139.2530  152.2182 H   0  0  0  0  0  0  0  0  0  0  0  0
  148.0943  139.3684  155.1311 H   0  0  0  0  0  0  0  0  0  0  0  0
  148.2417  141.7958  154.8272 H   0  0  0  0  0  0  0  0  0  0  0  0
  146.9666  141.1603  153.8104 H   0  0  0  0  0  0  0  0  0  0  0  0
  148.5152  141.6012  153.0972 H   0  0  0  0  0  0  0  0  0  0  0  0
  150.5425  140.1585  153.5004 H   0  0  0  0  0  0  0  0  0  0  0  0
  150.5884  137.7374  153.4395 H   0  0  0  0  0  0  0  0  0  0  0  0
  150.2040  137.6192  155.1602 H   0  0  0  0  0  0  0  0  0  0  0  0
  151.7576  138.2574  154.6298 H   0  0  0  0  0  0  0  0  0  0  0  0
  149.7416  142.3692  155.2055 H   0  0  0  0  0  0  0  0  0  0  0  0
  150.9643  142.9125  157.5823 H   0  0  0  0  0  0  0  0  0  0  0  0
  152.1251  140.4871  158.2549 H   0  0  0  0  0  0  0  0  0  0  0  0
  1  2  1  0  0  0  0
  1 16  1  0  0  0  0
  1 17  1  0  0  0  0
  1 18  1  0  0  0  0
  2  3  1  0  0  0  0
  2 19  1  0  0  0  0
  2 20  1  0  0  0  0
  3  4  1  0  0  0  0
  3  5  1  0  0  0  0
  3 21  1  0  0  0  0
  4 22  1  0  0  0  0
  5  6  1  0  0  0  0
  5 23  1  0  0  0  0
  5 24  1  0  0  0  0
  6  7  1  0  0  0  0
  6 25  1  0  0  0  0
  7  8  1  0  0  0  0
  7  9  1  0  0  0  0
  7 26  1  0  0  0  0
  8 27  1  0  0  0  0
  8 28  1  0  0  0  0
  8 29  1  0  0  0  0
  9 10  1  0  0  0  0
  9 11  1  0  0  0  0
  9 30  1  0  0  0  0
 10 31  1  0  0  0  0
 10 32  1  0  0  0  0
 10 33  1  0  0  0  0
 11 15  1  0  0  0  0
 11 12  1  0  0  0  0
 12 13  2  0  0  0  0
 12 34  1  0  0  0  0
 13 14  1  0  0  0  0
 13 35  1  0  0  0  0
 14 15  2  0  0  0  0
 14 36  1  0  0  0  0
M  END
> <s_m_source_file>
AV-unprocessed.smi

> <i_m_source_file_index>
3112

> <i_lp_mmshare_version>
43012

> <i_f3d_flags>
0

> <s_epik_input>
W0NIM11bQ0gyXVtDQEhdKFtPSF0pW0NIMl1bTkhdW0NASF0oW0NIM10pW0NASF0oW0NIM10pbjFbY0hdW2NIXVtjSF1uMQ==

> <s_epik_cmdline>
J2VwaWtfcHl0aG9uJywgJy1waCcsICc3LjAnLCAnLXRuJywgJzgnLCAnLW1hJywgJzIwMCcsICctbWV0YWxfYmluZGluZycsICctaW1hZScsICc8aW5maWxlLm1hZT4nLCAnLW9tYWUnLCAnPG91dGZpbGUubWFlPic=

> <r_lp_tautomer_probability>
1

> <r_epik_Ionization_Penalty>
2.16876

> <r_epik_Ionization_Penalty_Charging>
0

> <r_epik_Ionization_Penalty_Neutral>
2.16876

> <r_epik_State_Penalty>
2.30854

> <r_epik_Charging_Adjusted_Penalty>
2.30854

> <i_epik_Tot_Q>
0

> <i_epik_Tot_abs_Q>
0

> <r_epik_Metal_State_Penalty>
2.3073

> <b_epik_Metal_Only>
0

> <s_lp_Force_Field>
OPLS_2005

> <r_lp_Energy>
23.3328

> <b_lp_Chiralities_Consistent>
1

> <s_lp_Variant>
AV-unprocessed.smi:3112-10

> <Gold.Version>
5.8.1

> <Gold.Id.Protein>
6NUR|6NUR_protein|mol2

> <Gold.PLP.Fitness>
44.7323

> <Gold.PLP.PLP>
-33.2044

> <Gold.PLP.part.hbond>
-4.9028

> <Gold.PLP.part.metal>
0.0000

> <Gold.PLP.part.buried>
-0.8180

> <Gold.PLP.part.nonpolar>
-27.9261

> <Gold.PLP.part.repulsive>
0.0000

> <Gold.PLP.ligand.clash>
0.0000

> <Gold.PLP.ligand.torsion>
0.3156

> <Gold.PLP.Chemscore.Hbond>
3.0000

> <Gold.PLP.Chemscore.CHOScore>
1.0000

> <Gold.PLP.Chemscore.Metal>
0.0000

> <Gold.Chemscore.Hbonds>
donor molecule, donor type, donor heavy atom, donor atom, acceptor molecule, acceptor atom, score
      L1  H     4    22       P1 10171  1.00
      L1  H     6    25       P1  7957  1.00
      P1  H  7954  7966       L1     4  1.00
      L1  C    12    34       P1  8028  0.97

> <Gold.PLP.Chemscore.Internal.Correction>
0.1590

> <Gold.Rescore>
     Score         DG    S(hbond)    S(metal)    S(lipo)     H(rot)  DE(clash)    DE(int)     intcor
     17.09     -17.90       2.94        0.00      72.85       2.31       0.29       0.52       ----

> <Gold.Chemscore.Fitness>
17.0913

> <Gold.Chemscore.DG>
-17.9008

> <Gold.Chemscore.ZeroCoef>
-5.4800

> <Gold.Chemscore.Hbond>
2.9381

> <Gold.Chemscore.Metal>
0.0000

> <Gold.Chemscore.Lipo>
72.8486

> <Gold.Chemscore.Internal_Hbond>
0.0000

> <Gold.Chemscore.DEClash>
0.2913

> <Gold.Chemscore.DEInternal>
0.5182

> <Gold.Chemscore.Rot>
2.3108

> <Gold.Chemscore.Internal.Correction>
   9.000000E+99

> <Gold.Chemscore.Hbonds>
donor molecule, donor type, donor heavy atom, donor atom, acceptor molecule, acceptor atom, score
      L1  H     4    22       P1 10171  0.98
      L1  H     6    25       P1  7957  0.99
      P1  H  7954  7966       L1     4  0.96

> <Gold.Chemscore.Hbond.Weighted>
-9.8132

> <Gold.Chemscore.Metal.Weighted>
-0.0000

> <Gold.Chemscore.Lipo.Weighted>
-8.5233

> <Gold.Chemscore.Internal_Hbond.Weighted>
0.0000

> <Gold.Chemscore.DEClash.Weighted>
0.2913

> <Gold.Chemscore.DEInternal.Weighted>
0.5182

> <Gold.Chemscore.Rot.Weighted>
5.9157

> <Gold.Chemscore.Internal.Correction.Weighted>
   9.000000E+99

> <Gold.Protein.RotatedTorsions>
[ 6907 6896 6895 6894 ] final    5.23 input  -60.11 | X-H torsion
[ 7974 7965 7964 7962 ] final  -51.15 input  175.53 | X-H torsion
[ 8008 7997 7996 7995 ] final  -33.33 input   59.86 | X-H torsion
[ 10167 10162 10161 10158 ] final   86.22 input  -65.29 | X-H torsion
[ 10718 10713 10712 10709 ] final -116.02 input   66.30 | X-H torsion
[ 10763 10752 10751 10750 ] final   12.16 input  -60.55 | X-H torsion
[ 11005 11000 10999 10996 ] final  108.73 input  -57.11 | X-H torsion

> <Gold.Protein.ActiveResidues>
 VAL166  LYS551  ARG553  GLY616  TRP617  ASP618  TYR619  PRO620  LYS621  CYS622 
 ASP623  PHE694  ASN695  SER759  ASP760  ASP761  ALA762  ILE779  LEU786  VAL792 
 PHE793  MET794  SER795  GLU796  ALA797  LYS798  CYS799  TRP800  GLU811  SER814 

> <Gold.Protein.RotatedAtoms>
  151.6541  135.0998  160.0166 H   0  0  0  0  0  0  0  0  0  0  0  0  # atno 6907 bound_to 6896
  152.3984  133.6777  159.6304 H   0  0  0  0  0  0  0  0  0  0  0  0  # atno 6908 bound_to 6896
  150.7887  133.8751  159.3311 H   0  0  0  0  0  0  0  0  0  0  0  0  # atno 6909 bound_to 6896
  145.9221  140.7824  142.9642 H   0  0  0  0  0  0  0  0  0  0  0  0  # atno 7974 bound_to 7965
  154.4152  140.1713  156.1871 H   0  0  0  0  0  0  0  0  0  0  0  0  # atno 8008 bound_to 7997
  155.9634  140.3391  155.6487 H   0  0  0  0  0  0  0  0  0  0  0  0  # atno 8009 bound_to 7997
  155.6719  140.0712  157.2507 H   0  0  0  0  0  0  0  0  0  0  0  0  # atno 8010 bound_to 7997
  139.8897  144.6393  150.8752 H   0  0  0  0  0  0  0  0  0  0  0  0  # atno 10167 bound_to 10162
  156.0935  130.6112  150.8981 H   0  0  0  0  0  0  0  0  0  0  0  0  # atno 10718 bound_to 10713
  153.1851  135.6834  153.8426 H   0  0  0  0  0  0  0  0  0  0  0  0  # atno 10763 bound_to 10752
  153.7744  135.3191  155.3358 H   0  0  0  0  0  0  0  0  0  0  0  0  # atno 10764 bound_to 10752
  154.8084  135.4734  154.0547 H   0  0  0  0  0  0  0  0  0  0  0  0  # atno 10765 bound_to 10752
  139.8849  134.9438  156.6017 H   0  0  0  0  0  0  0  0  0  0  0  0  # atno 11005 bound_to 11000
  144.6754  140.1992  143.7389 LP  0  0  0  0  0  0  0  0  0  0  0  0  # atno 17320 bound_to 7965
  145.8537  139.2188  143.1757 LP  0  0  0  0  0  0  0  0  0  0  0  0  # atno 17321 bound_to 7965
  140.7729  143.3520  151.1996 LP  0  0  0  0  0  0  0  0  0  0  0  0  # atno 17342 bound_to 10162
  139.7121  143.9360  152.2951 LP  0  0  0  0  0  0  0  0  0  0  0  0  # atno 17343 bound_to 10162
  157.6090  131.0937  150.8828 LP  0  0  0  0  0  0  0  0  0  0  0  0  # atno 17370 bound_to 10713
  156.8971  130.5233  149.5284 LP  0  0  0  0  0  0  0  0  0  0  0  0  # atno 17371 bound_to 10713
  140.7879  133.8606  155.8621 LP  0  0  0  0  0  0  0  0  0  0  0  0  # atno 17394 bound_to 11000
  140.9703  134.1539  157.4581 LP  0  0  0  0  0  0  0  0  0  0  0  0  # atno 17395 bound_to 11000

$$$$
