AV-unprocessed.smi:2221|AV-procd|sdf|8982|dock2
  -GOLD-   2272012193D 1   1.00000     0.00000
 Structure written by MMmdl.
 53 54  0  0  0  0  0  0  0  0  2 V2000
  151.8378  145.8570  160.4163 C   0  0  0  0  0  0  0  0  0  0  0  0
  151.8841  144.5008  159.7443 C   0  0  0  0  0  0  0  0  0  0  0  0
  152.7483  143.4961  160.2190 C   0  0  0  0  0  0  0  0  0  0  0  0
  152.7530  142.2543  159.5545 C   0  0  0  0  0  0  0  0  0  0  0  0
  153.6545  141.1292  160.0172 C   0  0  0  0  0  0  0  0  0  0  0  0
  151.9684  141.9862  158.4891 N   0  0  0  0  0  0  0  0  0  0  0  0
  151.1331  142.9467  158.0213 C   0  0  0  0  0  0  0  0  0  0  0  0
  150.2710  142.7663  156.9071 N   0  0  0  0  0  0  0  0  0  0  0  0
  149.8945  141.6133  156.3262 C   0  0  0  0  0  0  0  0  0  0  0  0
  150.2477  140.4877  156.6797 O   0  0  0  0  0  0  0  0  0  0  0  0
  149.0726  141.8369  155.2907 N   0  0  0  0  0  0  0  0  0  0  0  0
  148.4904  140.8000  154.4478 C   0  0  0  0  0  0  0  0  0  0  0  0
  147.4272  141.3863  153.4982 C   0  0  0  0  0  0  0  0  0  0  0  0
  146.7651  142.5601  154.0669 N   0  0  0  0  0  0  0  0  0  0  0  0
  145.9467  142.1325  155.2050 C   0  0  0  0  0  0  0  0  0  0  0  0
  145.3117  143.3499  155.8993 C   0  0  0  0  0  0  0  0  0  0  0  0
  144.4348  144.1390  154.9069 C   0  0  0  0  0  0  0  0  0  0  0  0
  143.7706  145.3394  155.4934 N   0  3  0  0  0  0  0  0  0  0  0  0
  142.9301  145.0838  156.6885 C   0  0  0  0  0  0  0  0  0  0  0  0
  143.0562  146.1550  154.4847 C   0  0  0  0  0  0  0  0  0  0  0  0
  145.2735  144.4865  153.6650 C   0  0  0  0  0  0  0  0  0  0  0  0
  145.9157  143.2210  153.0694 C   0  0  0  0  0  0  0  0  0  0  0  0
  151.0672  144.2205  158.6298 C   0  0  0  0  0  0  0  0  0  0  0  0
  151.9693  145.7573  161.4942 H   0  0  0  0  0  0  0  0  0  0  0  0
  150.8820  146.3497  160.2363 H   0  0  0  0  0  0  0  0  0  0  0  0
  152.6322  146.4957  160.0304 H   0  0  0  0  0  0  0  0  0  0  0  0
  153.3896  143.6730  161.0701 H   0  0  0  0  0  0  0  0  0  0  0  0
  154.4856  141.5121  160.6101 H   0  0  0  0  0  0  0  0  0  0  0  0
  154.0686  140.5900  159.1643 H   0  0  0  0  0  0  0  0  0  0  0  0
  153.0919  140.4241  160.6293 H   0  0  0  0  0  0  0  0  0  0  0  0
  149.8999  143.6139  156.5046 H   0  0  0  0  0  0  0  0  0  0  0  0
  148.8326  142.7921  155.0688 H   0  0  0  0  0  0  0  0  0  0  0  0
  149.2755  140.2957  153.8812 H   0  0  0  0  0  0  0  0  0  0  0  0
  148.0571  140.0542  155.1126 H   0  0  0  0  0  0  0  0  0  0  0  0
  147.8630  141.6280  152.5273 H   0  0  0  0  0  0  0  0  0  0  0  0
  146.6760  140.6158  153.3178 H   0  0  0  0  0  0  0  0  0  0  0  0
  145.1750  141.4356  154.8738 H   0  0  0  0  0  0  0  0  0  0  0  0
  146.5692  141.6004  155.9254 H   0  0  0  0  0  0  0  0  0  0  0  0
  144.7195  143.0137  156.7505 H   0  0  0  0  0  0  0  0  0  0  0  0
  146.1091  143.9764  156.2998 H   0  0  0  0  0  0  0  0  0  0  0  0
  143.6413  143.4733  154.5628 H   0  0  0  0  0  0  0  0  0  0  0  0
  142.0266  144.5298  156.4314 H   0  0  0  0  0  0  0  0  0  0  0  0
  142.6199  146.0281  157.1369 H   0  0  0  0  0  0  0  0  0  0  0  0
  143.4702  144.5272  157.4535 H   0  0  0  0  0  0  0  0  0  0  0  0
  142.2030  145.6161  154.0712 H   0  0  0  0  0  0  0  0  0  0  0  0
  143.7190  146.4311  153.6639 H   0  0  0  0  0  0  0  0  0  0  0  0
  142.6878  147.0791  154.9316 H   0  0  0  0  0  0  0  0  0  0  0  0
  144.6468  144.9666  152.9130 H   0  0  0  0  0  0  0  0  0  0  0  0
  146.0622  145.1970  153.9117 H   0  0  0  0  0  0  0  0  0  0  0  0
  146.5039  143.5110  152.2002 H   0  0  0  0  0  0  0  0  0  0  0  0
  145.1450  142.5333  152.7173 H   0  0  0  0  0  0  0  0  0  0  0  0
  150.3970  144.9765  158.2464 H   0  0  0  0  0  0  0  0  0  0  0  0
  144.5279  145.9261  155.8139 H   0  0  0  0  0  0  0  0  0  0  0  0
  1  2  1  0  0  0  0
  1 24  1  0  0  0  0
  1 25  1  0  0  0  0
  1 26  1  0  0  0  0
  2 23  1  0  0  0  0
  2  3  2  0  0  0  0
  3  4  1  0  0  0  0
  3 27  1  0  0  0  0
  4  5  1  0  0  0  0
  4  6  2  0  0  0  0
  5 28  1  0  0  0  0
  5 29  1  0  0  0  0
  5 30  1  0  0  0  0
  6  7  1  0  0  0  0
  7  8  1  0  0  0  0
  7 23  2  0  0  0  0
  8  9  1  0  0  0  0
  8 31  1  0  0  0  0
  9 10  2  0  0  0  0
  9 11  1  0  0  0  0
 11 12  1  0  0  0  0
 11 32  1  0  0  0  0
 12 13  1  0  0  0  0
 12 33  1  0  0  0  0
 12 34  1  0  0  0  0
 13 14  1  0  0  0  0
 13 35  1  0  0  0  0
 13 36  1  0  0  0  0
 14 22  1  0  0  0  0
 14 15  1  0  0  0  0
 15 16  1  0  0  0  0
 15 37  1  0  0  0  0
 15 38  1  0  0  0  0
 16 17  1  0  0  0  0
 16 39  1  0  0  0  0
 16 40  1  0  0  0  0
 17 18  1  0  0  0  0
 17 21  1  0  0  0  0
 17 41  1  0  0  0  0
 18 19  1  0  0  0  0
 18 20  1  0  0  0  0
 18 53  1  0  0  0  0
 19 42  1  0  0  0  0
 19 43  1  0  0  0  0
 19 44  1  0  0  0  0
 20 45  1  0  0  0  0
 20 46  1  0  0  0  0
 20 47  1  0  0  0  0
 21 22  1  0  0  0  0
 21 48  1  0  0  0  0
 21 49  1  0  0  0  0
 22 50  1  0  0  0  0
 22 51  1  0  0  0  0
 23 52  1  0  0  0  0
M  CHG  1  18   1
M  END
> <s_m_source_file>
AV-unprocessed.smi

> <i_m_source_file_index>
2221

> <i_lp_mmshare_version>
43012

> <i_f3d_flags>
0

> <s_epik_input>
W0NIM11jMVtjSF1jKFtDSDNdKW5jKFtjSF0xKVtOSF1DKD1PKVtOSF1bQ0gyXVtDSDJdTjJbQ0gyXVtDSDJdW0NIXShOKFtDSDNdKVtDSDNdKVtDSDJdW0NIMl0y

> <s_epik_cmdline>
J2VwaWtfcHl0aG9uJywgJy1waCcsICc3LjAnLCAnLXRuJywgJzgnLCAnLW1hJywgJzIwMCcsICctbWV0YWxfYmluZGluZycsICctaW1hZScsICc8aW5maWxlLm1hZT4nLCAnLW9tYWUnLCAnPG91dGZpbGUubWFlPic=

> <r_epik_Ionization_Penalty>
0.929621

> <r_epik_Ionization_Penalty_Charging>
0.000679816

> <r_epik_Ionization_Penalty_Neutral>
0.928941

> <r_epik_State_Penalty>
1.01912

> <r_epik_Charging_Adjusted_Penalty>
1.0198

> <i_epik_Tot_Q>
1

> <i_epik_Tot_abs_Q>
1

> <r_epik_Metal_State_Penalty>
1.01908

> <b_epik_Metal_Only>
0

> <s_lp_Force_Field>
OPLS_2005

> <r_lp_Energy>
22.8604

> <b_lp_Chiralities_Consistent>
1

> <s_lp_Variant>
AV-unprocessed.smi:2221-3

> <Gold.Version>
5.8.1

> <Gold.Id.Protein>
6NUR|6NUR_protein|mol2

> <Gold.PLP.Fitness>
52.2669

> <Gold.PLP.PLP>
-47.0752

> <Gold.PLP.part.hbond>
-2.0000

> <Gold.PLP.part.metal>
0.0000

> <Gold.PLP.part.buried>
-9.9328

> <Gold.PLP.part.nonpolar>
-36.8015

> <Gold.PLP.part.repulsive>
0.4052

> <Gold.PLP.ligand.clash>
0.0000

> <Gold.PLP.ligand.torsion>
0.3714

> <Gold.PLP.Chemscore.Hbond>
1.9440

> <Gold.PLP.Chemscore.CHOScore>
0.0000

> <Gold.PLP.Chemscore.Metal>
0.0000

> <Gold.Chemscore.Hbonds>
donor molecule, donor type, donor heavy atom, donor atom, acceptor molecule, acceptor atom, score
      L1  H     8    31       P1  8028  1.00
      L1  H    11    32       P1  8028  0.96

> <Gold.PLP.Chemscore.Internal.Correction>
0.1026

> <Gold.Rescore>
     Score         DG    S(hbond)    S(metal)    S(lipo)     H(rot)  DE(clash)    DE(int)     intcor
     19.92     -21.64       1.88        0.00     120.37       1.64       0.10       1.62       ----

> <Gold.Chemscore.Fitness>
19.9242

> <Gold.Chemscore.DG>
-21.6442

> <Gold.Chemscore.ZeroCoef>
-5.4800

> <Gold.Chemscore.Hbond>
1.8788

> <Gold.Chemscore.Metal>
0.0000

> <Gold.Chemscore.Lipo>
120.3727

> <Gold.Chemscore.Internal_Hbond>
0.0000

> <Gold.Chemscore.DEClash>
0.1022

> <Gold.Chemscore.DEInternal>
1.6178

> <Gold.Chemscore.Rot>
1.6385

> <Gold.Chemscore.Internal.Correction>
   9.000000E+99

> <Gold.Chemscore.Hbonds>
donor molecule, donor type, donor heavy atom, donor atom, acceptor molecule, acceptor atom, score
      L1  H     8    31       P1  8028  1.00
      L1  H    11    32       P1  8028  0.89

> <Gold.Chemscore.Hbond.Weighted>
-6.2751

> <Gold.Chemscore.Metal.Weighted>
-0.0000

> <Gold.Chemscore.Lipo.Weighted>
-14.0836

> <Gold.Chemscore.Internal_Hbond.Weighted>
0.0000

> <Gold.Chemscore.DEClash.Weighted>
0.1022

> <Gold.Chemscore.DEInternal.Weighted>
1.6178

> <Gold.Chemscore.Rot.Weighted>
4.1945

> <Gold.Chemscore.Internal.Correction.Weighted>
   9.000000E+99

> <Gold.Protein.RotatedTorsions>
[ 6907 6896 6895 6894 ] final  142.08 input  -60.11 | X-H torsion
[ 7974 7965 7964 7962 ] final   14.73 input  175.53 | X-H torsion
[ 8008 7997 7996 7995 ] final    3.92 input   59.86 | X-H torsion
[ 10167 10162 10161 10158 ] final  125.74 input  -65.29 | X-H torsion
[ 10718 10713 10712 10709 ] final -133.13 input   66.30 | X-H torsion
[ 10763 10752 10751 10750 ] final   28.72 input  -60.55 | X-H torsion
[ 11005 11000 10999 10996 ] final  -44.97 input  -57.11 | X-H torsion

> <Gold.Protein.ActiveResidues>
 VAL166  LYS551  ARG553  GLY616  TRP617  ASP618  TYR619  PRO620  LYS621  CYS622 
 ASP623  PHE694  ASN695  SER759  ASP760  ASP761  ALA762  ILE779  LEU786  VAL792 
 PHE793  MET794  SER795  GLU796  ALA797  LYS798  CYS799  TRP800  GLU811  SER814 

> <Gold.Protein.RotatedAtoms>
  152.2231  133.4999  159.5173 H   0  0  0  0  0  0  0  0  0  0  0  0  # atno 6907 bound_to 6896
  150.7018  134.1316  159.4081 H   0  0  0  0  0  0  0  0  0  0  0  0  # atno 6908 bound_to 6896
  151.9237  135.0287  160.0575 H   0  0  0  0  0  0  0  0  0  0  0  0  # atno 6909 bound_to 6896
  146.2297  139.8998  142.8541 H   0  0  0  0  0  0  0  0  0  0  0  0  # atno 7974 bound_to 7965
  154.7096  140.2690  155.6642 H   0  0  0  0  0  0  0  0  0  0  0  0  # atno 8008 bound_to 7997
  156.2791  140.2756  156.1657 H   0  0  0  0  0  0  0  0  0  0  0  0  # atno 8009 bound_to 7997
  155.0653  140.0371  157.2580 H   0  0  0  0  0  0  0  0  0  0  0  0  # atno 8010 bound_to 7997
  139.5669  144.6916  151.3886 H   0  0  0  0  0  0  0  0  0  0  0  0  # atno 10167 bound_to 10162
  156.2417  130.7100  151.0963 H   0  0  0  0  0  0  0  0  0  0  0  0  # atno 10718 bound_to 10713
  153.0474  135.6506  154.0781 H   0  0  0  0  0  0  0  0  0  0  0  0  # atno 10763 bound_to 10752
  154.0476  135.2898  155.3347 H   0  0  0  0  0  0  0  0  0  0  0  0  # atno 10764 bound_to 10752
  154.6741  135.5345  153.8242 H   0  0  0  0  0  0  0  0  0  0  0  0  # atno 10765 bound_to 10752
  141.0485  133.6752  156.2947 H   0  0  0  0  0  0  0  0  0  0  0  0  # atno 11005 bound_to 11000
  145.2335  140.9982  143.3977 LP  0  0  0  0  0  0  0  0  0  0  0  0  # atno 17320 bound_to 7965
  144.9511  139.4082  143.6402 LP  0  0  0  0  0  0  0  0  0  0  0  0  # atno 17321 bound_to 7965
  140.6952  143.7765  150.7316 LP  0  0  0  0  0  0  0  0  0  0  0  0  # atno 17342 bound_to 10162
  140.1259  143.4569  152.2284 LP  0  0  0  0  0  0  0  0  0  0  0  0  # atno 17343 bound_to 10162
  157.7178  131.0700  150.6258 LP  0  0  0  0  0  0  0  0  0  0  0  0  # atno 17370 bound_to 10713
  156.6332  130.4438  149.5779 LP  0  0  0  0  0  0  0  0  0  0  0  0  # atno 17371 bound_to 10713
  140.6101  134.5467  157.5532 LP  0  0  0  0  0  0  0  0  0  0  0  0  # atno 17394 bound_to 11000
  139.9331  134.7926  156.0876 LP  0  0  0  0  0  0  0  0  0  0  0  0  # atno 17395 bound_to 11000

$$$$
