AV-unprocessed.smi:2928|AV-procd|sdf|11234|dock4
  -GOLD-   2272016123D 1   1.00000     0.00000
 Structure written by MMmdl.
 55 58  0  0  0  0  0  0  0  0  2 V2000
  143.5584  132.6149  151.1084 C   0  0  0  0  0  0  0  0  0  0  0  0
  144.6950  132.9921  151.9823 N   0  3  2  0  0  0  0  0  0  0  0  0
  144.4214  134.1159  152.9092 C   0  0  1  0  0  0  0  0  0  0  0  0
  145.4902  134.1208  154.0264 C   0  0  0  0  0  0  0  0  0  0  0  0
  146.9404  134.1167  153.5054 C   0  0  0  0  0  0  0  0  0  0  0  0
  147.1346  133.1747  152.3009 C   0  0  0  0  0  0  0  0  0  0  0  0
  145.9781  133.2171  151.2749 C   0  0  2  0  0  0  0  0  0  0  0  0
  145.9241  134.4897  150.3923 C   0  0  0  0  0  0  0  0  0  0  0  0
  145.3308  135.7535  151.0631 C   0  0  2  0  0  0  0  0  0  0  0  0
  146.3820  136.6522  151.5331 N   0  0  0  0  0  0  0  0  0  0  0  0
  146.1976  137.7821  152.2307 C   0  0  0  0  0  0  0  0  0  0  0  0
  145.0891  138.2144  152.5453 O   0  0  0  0  0  0  0  0  0  0  0  0
  147.3737  138.3453  152.5514 N   0  0  0  0  0  0  0  0  0  0  0  0
  147.6132  139.4945  153.3564 C   0  0  0  0  0  0  0  0  0  0  0  0
  146.7848  140.6423  153.3241 C   0  0  0  0  0  0  0  0  0  0  0  0
  147.1077  141.7431  154.1385 C   0  0  0  0  0  0  0  0  0  0  0  0
  148.2533  141.6617  154.9502 C   0  0  0  0  0  0  0  0  0  0  0  0
  149.0611  140.5822  154.9811 N   0  0  0  0  0  0  0  0  0  0  0  0
  148.7545  139.5190  154.1983 C   0  0  0  0  0  0  0  0  0  0  0  0
  149.6093  138.4032  154.2472 N   0  0  0  0  0  0  0  0  0  0  0  0
  151.0103  138.6714  153.9700 C   0  0  0  0  0  0  0  0  0  0  0  0
  151.7628  137.4244  154.4415 C   0  0  0  0  0  0  0  0  0  0  0  0
  150.8202  136.7517  155.4476 C   0  0  0  0  0  0  0  0  0  0  0  0
  149.5836  137.6530  155.4913 C   0  0  0  0  0  0  0  0  0  0  0  0
  144.2595  135.4545  152.1465 C   0  0  0  0  0  0  0  0  0  0  0  0
  143.2863  133.4124  150.4171 H   0  0  0  0  0  0  0  0  0  0  0  0
  142.6808  132.3751  151.7094 H   0  0  0  0  0  0  0  0  0  0  0  0
  143.8074  131.7301  150.5217 H   0  0  0  0  0  0  0  0  0  0  0  0
  143.4698  133.9124  153.4027 H   0  0  0  0  0  0  0  0  0  0  0  0
  145.3364  134.9661  154.6980 H   0  0  0  0  0  0  0  0  0  0  0  0
  145.3476  133.2272  154.6359 H   0  0  0  0  0  0  0  0  0  0  0  0
  147.2532  135.1243  153.2538 H   0  0  0  0  0  0  0  0  0  0  0  0
  147.6137  133.8196  154.3100 H   0  0  0  0  0  0  0  0  0  0  0  0
  148.0866  133.3833  151.8117 H   0  0  0  0  0  0  0  0  0  0  0  0
  147.2128  132.1546  152.6800 H   0  0  0  0  0  0  0  0  0  0  0  0
  146.1375  132.3707  150.6052 H   0  0  0  0  0  0  0  0  0  0  0  0
  146.9091  134.7002  149.9732 H   0  0  0  0  0  0  0  0  0  0  0  0
  145.3032  134.2596  149.5257 H   0  0  0  0  0  0  0  0  0  0  0  0
  144.8295  136.3080  150.2670 H   0  0  0  0  0  0  0  0  0  0  0  0
  147.3323  136.3831  151.3242 H   0  0  0  0  0  0  0  0  0  0  0  0
  148.2002  137.8296  152.2863 H   0  0  0  0  0  0  0  0  0  0  0  0
  145.9200  140.7040  152.6815 H   0  0  0  0  0  0  0  0  0  0  0  0
  146.4935  142.6314  154.1359 H   0  0  0  0  0  0  0  0  0  0  0  0
  148.5329  142.4877  155.5872 H   0  0  0  0  0  0  0  0  0  0  0  0
  151.1715  138.8613  152.9084 H   0  0  0  0  0  0  0  0  0  0  0  0
  151.3512  139.5467  154.5251 H   0  0  0  0  0  0  0  0  0  0  0  0
  151.9489  136.7534  153.6019 H   0  0  0  0  0  0  0  0  0  0  0  0
  152.7266  137.6812  154.8819 H   0  0  0  0  0  0  0  0  0  0  0  0
  150.5512  135.7550  155.0957 H   0  0  0  0  0  0  0  0  0  0  0  0
  151.2728  136.6453  156.4339 H   0  0  0  0  0  0  0  0  0  0  0  0
  149.6418  138.3277  156.3467 H   0  0  0  0  0  0  0  0  0  0  0  0
  148.6651  137.0723  155.5820 H   0  0  0  0  0  0  0  0  0  0  0  0
  143.2914  135.4299  151.6450 H   0  0  0  0  0  0  0  0  0  0  0  0
  144.1748  136.2778  152.8566 H   0  0  0  0  0  0  0  0  0  0  0  0
  144.8460  132.1848  152.5704 H   0  0  0  0  0  0  0  0  0  0  0  0
  1  2  1  0  0  0  0
  1 26  1  0  0  0  0
  1 27  1  0  0  0  0
  1 28  1  0  0  0  0
  2  7  1  0  0  0  0
  2  3  1  0  0  0  0
  2 55  1  0  0  0  0
  3 25  1  0  0  0  0
  3  4  1  0  0  0  0
  3 29  1  0  0  0  0
  4  5  1  0  0  0  0
  4 30  1  0  0  0  0
  4 31  1  0  0  0  0
  5  6  1  0  0  0  0
  5 32  1  0  0  0  0
  5 33  1  0  0  0  0
  6  7  1  0  0  0  0
  6 34  1  0  0  0  0
  6 35  1  0  0  0  0
  7  8  1  0  0  0  0
  7 36  1  0  0  0  0
  8  9  1  0  0  0  0
  8 37  1  0  0  0  0
  8 38  1  0  0  0  0
  9 10  1  0  0  0  0
  9 25  1  0  0  0  0
  9 39  1  0  0  0  0
 10 11  1  0  0  0  0
 10 40  1  0  0  0  0
 11 12  2  0  0  0  0
 11 13  1  0  0  0  0
 13 14  1  0  0  0  0
 13 41  1  0  0  0  0
 14 19  1  0  0  0  0
 14 15  2  0  0  0  0
 15 16  1  0  0  0  0
 15 42  1  0  0  0  0
 16 17  2  0  0  0  0
 16 43  1  0  0  0  0
 17 18  1  0  0  0  0
 17 44  1  0  0  0  0
 18 19  2  0  0  0  0
 19 20  1  0  0  0  0
 20 24  1  0  0  0  0
 20 21  1  0  0  0  0
 21 22  1  0  0  0  0
 21 45  1  0  0  0  0
 21 46  1  0  0  0  0
 22 23  1  0  0  0  0
 22 47  1  0  0  0  0
 22 48  1  0  0  0  0
 23 24  1  0  0  0  0
 23 49  1  0  0  0  0
 23 50  1  0  0  0  0
 24 51  1  0  0  0  0
 24 52  1  0  0  0  0
 25 53  1  0  0  0  0
 25 54  1  0  0  0  0
M  CHG  1   2   1
M  END
> <s_m_source_file>
AV-unprocessed.smi

> <i_m_source_file_index>
2928

> <i_lp_mmshare_version>
43012

> <i_f3d_flags>
0

> <s_epik_input>
W0NIMl0xW0NIMl1bQ0gyXVtDQEhdKE4oW0NIM10pW0NIXTEyKVtDSDJdW0NASF0oW0NIMl0yKVtOSF1DKD1PKVtOSF1jM1tjSF1bY0hdW2NIXW5jM040W0NIMl1bQ0gyXVtDSDJdW0NIMl00

> <s_epik_cmdline>
J2VwaWtfcHl0aG9uJywgJy1waCcsICc3LjAnLCAnLXRuJywgJzgnLCAnLW1hJywgJzIwMCcsICctbWV0YWxfYmluZGluZycsICctaW1hZScsICc8aW5maWxlLm1hZT4nLCAnLW9tYWUnLCAnPG91dGZpbGUubWFlPic=

> <r_lp_tautomer_probability>
1

> <r_epik_Ionization_Penalty>
0.07954

> <r_epik_Ionization_Penalty_Charging>
0.00089841

> <r_epik_Ionization_Penalty_Neutral>
0.0786416

> <r_epik_State_Penalty>
0.0689917

> <r_epik_Charging_Adjusted_Penalty>
0.0698901

> <i_epik_Tot_Q>
1

> <i_epik_Tot_abs_Q>
1

> <r_epik_Metal_State_Penalty>
0.0608947

> <b_epik_Metal_Only>
0

> <s_lp_Force_Field>
OPLS_2005

> <r_lp_Energy>
66.3718

> <b_lp_Chiralities_Consistent>
1

> <s_lp_Variant>
AV-unprocessed.smi:2928-4

> <Gold.Version>
5.8.1

> <Gold.Id.Protein>
6NUR|6NUR_protein|mol2

> <Gold.PLP.Fitness>
42.1426

> <Gold.PLP.PLP>
-34.0387

> <Gold.PLP.part.hbond>
-2.6510

> <Gold.PLP.part.metal>
0.0000

> <Gold.PLP.part.buried>
-2.2332

> <Gold.PLP.part.nonpolar>
-33.9307

> <Gold.PLP.part.repulsive>
4.9038

> <Gold.PLP.ligand.clash>
0.0000

> <Gold.PLP.ligand.torsion>
0.4865

> <Gold.PLP.Chemscore.Hbond>
2.0000

> <Gold.PLP.Chemscore.CHOScore>
1.0000

> <Gold.PLP.Chemscore.Metal>
0.0000

> <Gold.Chemscore.Hbonds>
donor molecule, donor type, donor heavy atom, donor atom, acceptor molecule, acceptor atom, score
      L1  H    10    40       P1  7948  1.00
      L1  H    13    41       P1  7948  0.99
      L1  C    17    44       P1  8028  1.00

> <Gold.PLP.Chemscore.Internal.Correction>
0.0768

> <Gold.Rescore>
     Score         DG    S(hbond)    S(metal)    S(lipo)     H(rot)  DE(clash)    DE(int)     intcor
     16.37     -20.34       1.96        0.00      96.79       1.18       2.91       1.06       ----

> <Gold.Chemscore.Fitness>
16.3679

> <Gold.Chemscore.DG>
-20.3373

> <Gold.Chemscore.ZeroCoef>
-5.4800

> <Gold.Chemscore.Hbond>
1.9605

> <Gold.Chemscore.Metal>
0.0000

> <Gold.Chemscore.Lipo>
96.7861

> <Gold.Chemscore.Internal_Hbond>
0.0000

> <Gold.Chemscore.DEClash>
2.9068

> <Gold.Chemscore.DEInternal>
1.0626

> <Gold.Chemscore.Rot>
1.1776

> <Gold.Chemscore.Internal.Correction>
   9.000000E+99

> <Gold.Chemscore.Hbonds>
donor molecule, donor type, donor heavy atom, donor atom, acceptor molecule, acceptor atom, score
      L1  H    10    40       P1  7948  0.94
      L1  H    13    41       P1  7948  0.93

> <Gold.Chemscore.Hbond.Weighted>
-6.5481

> <Gold.Chemscore.Metal.Weighted>
-0.0000

> <Gold.Chemscore.Lipo.Weighted>
-11.3240

> <Gold.Chemscore.Internal_Hbond.Weighted>
0.0000

> <Gold.Chemscore.DEClash.Weighted>
2.9068

> <Gold.Chemscore.DEInternal.Weighted>
1.0626

> <Gold.Chemscore.Rot.Weighted>
3.0147

> <Gold.Chemscore.Internal.Correction.Weighted>
   9.000000E+99

> <Gold.Protein.RotatedTorsions>
[ 6907 6896 6895 6894 ] final   12.43 input  -60.11 | X-H torsion
[ 7974 7965 7964 7962 ] final  -66.31 input  175.53 | X-H torsion
[ 8008 7997 7996 7995 ] final   25.89 input   59.86 | X-H torsion
[ 10167 10162 10161 10158 ] final  -27.90 input  -65.29 | X-H torsion
[ 10718 10713 10712 10709 ] final  -67.50 input   66.30 | X-H torsion
[ 10763 10752 10751 10750 ] final   82.28 input  -60.55 | X-H torsion
[ 11005 11000 10999 10996 ] final  -34.73 input  -57.11 | X-H torsion

> <Gold.Protein.ActiveResidues>
 VAL166  LYS551  ARG553  GLY616  TRP617  ASP618  TYR619  PRO620  LYS621  CYS622 
 ASP623  PHE694  ASN695  SER759  ASP760  ASP761  ALA762  ILE779  LEU786  VAL792 
 PHE793  MET794  SER795  GLU796  ALA797  LYS798  CYS799  TRP800  GLU811  SER814 

> <Gold.Protein.RotatedAtoms>
  151.7703  135.0788  160.0358 H   0  0  0  0  0  0  0  0  0  0  0  0  # atno 6907 bound_to 6896
  152.3293  133.5936  159.5807 H   0  0  0  0  0  0  0  0  0  0  0  0  # atno 6908 bound_to 6896
  150.7413  133.9808  159.3617 H   0  0  0  0  0  0  0  0  0  0  0  0  # atno 6909 bound_to 6896
  145.7434  140.8943  143.0518 H   0  0  0  0  0  0  0  0  0  0  0  0  # atno 7974 bound_to 7965
  155.0188  140.3145  155.4801 H   0  0  0  0  0  0  0  0  0  0  0  0  # atno 8008 bound_to 7997
  156.2896  140.2201  156.5247 H   0  0  0  0  0  0  0  0  0  0  0  0  # atno 8009 bound_to 7997
  154.7470  140.0469  157.0849 H   0  0  0  0  0  0  0  0  0  0  0  0  # atno 8010 bound_to 7997
  140.7274  143.4055  151.1193 H   0  0  0  0  0  0  0  0  0  0  0  0  # atno 10167 bound_to 10162
  156.0554  130.4279  150.1864 H   0  0  0  0  0  0  0  0  0  0  0  0  # atno 10718 bound_to 10713
  153.1189  135.4734  154.9162 H   0  0  0  0  0  0  0  0  0  0  0  0  # atno 10763 bound_to 10752
  154.7556  135.3117  154.8479 H   0  0  0  0  0  0  0  0  0  0  0  0  # atno 10764 bound_to 10752
  153.9048  135.6871  153.4807 H   0  0  0  0  0  0  0  0  0  0  0  0  # atno 10765 bound_to 10752
  140.9740  133.7093  156.1571 H   0  0  0  0  0  0  0  0  0  0  0  0  # atno 11005 bound_to 11000
  144.6865  139.9492  143.7477 LP  0  0  0  0  0  0  0  0  0  0  0  0  # atno 17320 bound_to 7965
  146.0426  139.3435  143.0688 LP  0  0  0  0  0  0  0  0  0  0  0  0  # atno 17321 bound_to 7965
  139.7681  143.8535  152.3115 LP  0  0  0  0  0  0  0  0  0  0  0  0  # atno 17342 bound_to 10162
  139.8444  144.7194  150.9291 LP  0  0  0  0  0  0  0  0  0  0  0  0  # atno 17343 bound_to 10162
  156.9941  130.9902  151.3407 LP  0  0  0  0  0  0  0  0  0  0  0  0  # atno 17370 bound_to 10713
  157.5519  130.8188  149.8156 LP  0  0  0  0  0  0  0  0  0  0  0  0  # atno 17371 bound_to 10713
  140.7287  134.4279  157.5568 LP  0  0  0  0  0  0  0  0  0  0  0  0  # atno 17394 bound_to 11000
  139.8923  134.8758  156.2277 LP  0  0  0  0  0  0  0  0  0  0  0  0  # atno 17395 bound_to 11000

$$$$
