AV-unprocessed.smi:2605|AV-procd|sdf|10195|dock1
  -GOLD-   2272014203D 1   1.00000     0.00000
 Structure written by MMmdl.
 26 27  0  0  0  0  0  0  0  0  2 V2000
  146.3070  132.7859  150.6197 C   0  0  0  0  0  0  0  0  0  0  0  0
  146.4999  133.8156  151.5626 C   0  0  0  0  0  0  0  0  0  0  0  0
  145.3890  134.5945  151.9502 C   0  0  0  0  0  0  0  0  0  0  0  0
  145.5540  135.7241  152.9548 C   0  0  2  0  0  0  0  0  0  0  0  0
  145.1139  137.0978  152.3971 C   0  0  0  0  0  0  0  0  0  0  0  0
  145.2726  138.1266  153.4211 N   0  0  0  0  0  0  0  0  0  0  0  0
  146.6838  138.2199  153.7823 C   0  0  0  0  0  0  0  0  0  0  0  0
  147.1583  136.8833  154.3828 C   0  0  0  0  0  0  0  0  0  0  0  0
  146.9587  135.7901  153.4100 N   0  3  0  0  0  0  0  0  0  0  0  0
  144.1352  134.3089  151.3660 C   0  0  0  0  0  0  0  0  0  0  0  0
  144.0502  133.2567  150.4321 C   0  0  0  0  0  0  0  0  0  0  0  0
  145.1099  132.5072  150.0616 N   0  0  0  0  0  0  0  0  0  0  0  0
  147.1373  132.1715  150.3047 H   0  0  0  0  0  0  0  0  0  0  0  0
  147.4813  133.9963  151.9763 H   0  0  0  0  0  0  0  0  0  0  0  0
  144.9362  135.4923  153.8246 H   0  0  0  0  0  0  0  0  0  0  0  0
  145.6890  137.3746  151.5129 H   0  0  0  0  0  0  0  0  0  0  0  0
  144.0657  137.0617  152.0990 H   0  0  0  0  0  0  0  0  0  0  0  0
  144.9569  139.0159  153.0585 H   0  0  0  0  0  0  0  0  0  0  0  0
  147.2772  138.4863  152.9063 H   0  0  0  0  0  0  0  0  0  0  0  0
  146.8098  139.0221  154.5099 H   0  0  0  0  0  0  0  0  0  0  0  0
  148.2150  136.9381  154.6445 H   0  0  0  0  0  0  0  0  0  0  0  0
  146.6125  136.6593  155.3005 H   0  0  0  0  0  0  0  0  0  0  0  0
  147.2158  134.9098  153.8329 H   0  0  0  0  0  0  0  0  0  0  0  0
  143.2539  134.8794  151.6190 H   0  0  0  0  0  0  0  0  0  0  0  0
  143.1059  133.0135  149.9679 H   0  0  0  0  0  0  0  0  0  0  0  0
  147.5482  135.9567  152.6071 H   0  0  0  0  0  0  0  0  0  0  0  0
  1 12  1  0  0  0  0
  1  2  2  0  0  0  0
  1 13  1  0  0  0  0
  2  3  1  0  0  0  0
  2 14  1  0  0  0  0
  3  4  1  0  0  0  0
  3 10  2  0  0  0  0
  4  9  1  0  0  0  0
  4  5  1  0  0  0  0
  4 15  1  0  0  0  0
  5  6  1  0  0  0  0
  5 16  1  0  0  0  0
  5 17  1  0  0  0  0
  6  7  1  0  0  0  0
  6 18  1  0  0  0  0
  7  8  1  0  0  0  0
  7 19  1  0  0  0  0
  7 20  1  0  0  0  0
  8  9  1  0  0  0  0
  8 21  1  0  0  0  0
  8 22  1  0  0  0  0
  9 23  1  0  0  0  0
  9 26  1  0  0  0  0
 10 11  1  0  0  0  0
 10 24  1  0  0  0  0
 11 12  2  0  0  0  0
 11 25  1  0  0  0  0
M  CHG  1   9   1
M  END
> <s_m_source_file>
AV-unprocessed.smi

> <i_m_source_file_index>
2605

> <i_lp_mmshare_version>
43012

> <i_f3d_flags>
0

> <s_epik_input>
W2NIXTFbY0hdbltjSF1bY0hdYzFbQ0BASF0yW0NIMl1bTkhdW0NIMl1bQ0gyXVtOSF0y

> <s_epik_cmdline>
J2VwaWtfcHl0aG9uJywgJy1waCcsICc3LjAnLCAnLXRuJywgJzgnLCAnLW1hJywgJzIwMCcsICctbWV0YWxfYmluZGluZycsICctaW1hZScsICc8aW5maWxlLm1hZT4nLCAnLW9tYWUnLCAnPG91dGZpbGUubWFlPic=

> <r_epik_Ionization_Penalty>
0.0246915

> <r_epik_Ionization_Penalty_Charging>
0.015072

> <r_epik_Ionization_Penalty_Neutral>
0.00961942

> <r_epik_State_Penalty>
0.518662

> <r_epik_Charging_Adjusted_Penalty>
0.533734

> <i_epik_Tot_Q>
1

> <i_epik_Tot_abs_Q>
1

> <r_epik_Metal_State_Penalty>
0.520249

> <b_epik_Metal_Only>
0

> <s_lp_Force_Field>
OPLS_2005

> <r_lp_Energy>
7.08803

> <b_lp_Chiralities_Consistent>
1

> <s_lp_Variant>
AV-unprocessed.smi:2605-3

> <Gold.Version>
5.8.1

> <Gold.Id.Protein>
6NUR|6NUR_protein|mol2

> <Gold.PLP.Fitness>
31.9586

> <Gold.PLP.PLP>
-17.2262

> <Gold.PLP.part.hbond>
-2.0000

> <Gold.PLP.part.metal>
0.0000

> <Gold.PLP.part.buried>
-2.2786

> <Gold.PLP.part.nonpolar>
-13.3914

> <Gold.PLP.part.repulsive>
0.1549

> <Gold.PLP.ligand.clash>
0.2658

> <Gold.PLP.ligand.torsion>
0.0067

> <Gold.PLP.Chemscore.Hbond>
3.0000

> <Gold.PLP.Chemscore.CHOScore>
2.0000

> <Gold.PLP.Chemscore.Metal>
0.0000

> <Gold.Chemscore.Hbonds>
donor molecule, donor type, donor heavy atom, donor atom, acceptor molecule, acceptor atom, score
      L1  H     6    18       P1 10175  1.00
      L1  H     9    26       P1  7948  2.00
      L1  C     1    13       P1 10747  1.00
      L1  C    11    25       P1 10186  0.92

> <Gold.PLP.Chemscore.Internal.Correction>
0.0118

> <Gold.Rescore>
     Score         DG    S(hbond)    S(metal)    S(lipo)     H(rot)  DE(clash)    DE(int)     intcor
     14.83     -14.87       1.99        0.00      45.43       1.00       0.00       0.04       ----

> <Gold.Chemscore.Fitness>
14.8297

> <Gold.Chemscore.DG>
-14.8701

> <Gold.Chemscore.ZeroCoef>
-5.4800

> <Gold.Chemscore.Hbond>
1.9866

> <Gold.Chemscore.Metal>
0.0000

> <Gold.Chemscore.Lipo>
45.4263

> <Gold.Chemscore.Internal_Hbond>
0.0000

> <Gold.Chemscore.DEClash>
0.0018

> <Gold.Chemscore.DEInternal>
0.0385

> <Gold.Chemscore.Rot>
1.0000

> <Gold.Chemscore.Internal.Correction>
   9.000000E+99

> <Gold.Chemscore.Hbonds>
donor molecule, donor type, donor heavy atom, donor atom, acceptor molecule, acceptor atom, score
      L1  H     6    18       P1 10175  0.94
      L1  H     9    26       P1  7948  0.97

> <Gold.Chemscore.Hbond.Weighted>
-6.6352

> <Gold.Chemscore.Metal.Weighted>
-0.0000

> <Gold.Chemscore.Lipo.Weighted>
-5.3149

> <Gold.Chemscore.Internal_Hbond.Weighted>
0.0000

> <Gold.Chemscore.DEClash.Weighted>
0.0018

> <Gold.Chemscore.DEInternal.Weighted>
0.0385

> <Gold.Chemscore.Rot.Weighted>
2.5600

> <Gold.Chemscore.Internal.Correction.Weighted>
   9.000000E+99

> <Gold.Protein.RotatedTorsions>
[ 6907 6896 6895 6894 ] final  -48.99 input  -60.11 | X-H torsion
[ 7974 7965 7964 7962 ] final   14.46 input  175.53 | X-H torsion
[ 8008 7997 7996 7995 ] final  -84.17 input   59.86 | X-H torsion
[ 10167 10162 10161 10158 ] final -158.97 input  -65.29 | X-H torsion
[ 10718 10713 10712 10709 ] final -131.89 input   66.30 | X-H torsion
[ 10763 10752 10751 10750 ] final  155.74 input  -60.55 | X-H torsion
[ 11005 11000 10999 10996 ] final  120.65 input  -57.11 | X-H torsion

> <Gold.Protein.ActiveResidues>
 VAL166  LYS551  ARG553  GLY616  TRP617  ASP618  TYR619  PRO620  LYS621  CYS622 
 ASP623  PHE694  ASN695  SER759  ASP760  ASP761  ALA762  ILE779  LEU786  VAL792 
 PHE793  MET794  SER795  GLU796  ALA797  LYS798  CYS799  TRP800  GLU811  SER814 

> <Gold.Protein.RotatedAtoms>
  150.8850  134.8246  159.7252 H   0  0  0  0  0  0  0  0  0  0  0  0  # atno 6907 bound_to 6896
  152.4802  134.4737  159.9653 H   0  0  0  0  0  0  0  0  0  0  0  0  # atno 6908 bound_to 6896
  151.4806  133.3508  159.2873 H   0  0  0  0  0  0  0  0  0  0  0  0  # atno 6909 bound_to 6896
  146.2304  139.9038  142.8535 H   0  0  0  0  0  0  0  0  0  0  0  0  # atno 7974 bound_to 7965
  154.6269  140.0608  156.9685 H   0  0  0  0  0  0  0  0  0  0  0  0  # atno 8008 bound_to 7997
  155.1727  140.3292  155.4371 H   0  0  0  0  0  0  0  0  0  0  0  0  # atno 8009 bound_to 7997
  156.2462  140.1911  156.6828 H   0  0  0  0  0  0  0  0  0  0  0  0  # atno 8010 bound_to 7997
  139.6651  143.9844  152.2249 H   0  0  0  0  0  0  0  0  0  0  0  0  # atno 10167 bound_to 10162
  156.2289  130.7025  151.0837 H   0  0  0  0  0  0  0  0  0  0  0  0  # atno 10718 bound_to 10713
  154.1733  135.2803  155.3074 H   0  0  0  0  0  0  0  0  0  0  0  0  # atno 10763 bound_to 10752
  154.6059  135.5514  153.7425 H   0  0  0  0  0  0  0  0  0  0  0  0  # atno 10764 bound_to 10752
  153.0158  135.6403  154.1873 H   0  0  0  0  0  0  0  0  0  0  0  0  # atno 10765 bound_to 10752
  139.9194  134.9635  156.7839 H   0  0  0  0  0  0  0  0  0  0  0  0  # atno 11005 bound_to 11000
  145.2297  140.9968  143.3998 LP  0  0  0  0  0  0  0  0  0  0  0  0  # atno 17320 bound_to 7965
  144.9541  139.4051  143.6388 LP  0  0  0  0  0  0  0  0  0  0  0  0  # atno 17321 bound_to 7965
  139.9593  144.6568  150.8095 LP  0  0  0  0  0  0  0  0  0  0  0  0  # atno 17342 bound_to 10162
  140.7596  143.3132  151.2795 LP  0  0  0  0  0  0  0  0  0  0  0  0  # atno 17343 bound_to 10162
  157.7124  131.0727  150.6453 LP  0  0  0  0  0  0  0  0  0  0  0  0  # atno 17370 bound_to 10713
  156.6520  130.4488  149.5716 LP  0  0  0  0  0  0  0  0  0  0  0  0  # atno 17371 bound_to 10713
  140.6522  133.9721  155.7761 LP  0  0  0  0  0  0  0  0  0  0  0  0  # atno 17394 bound_to 11000
  141.0700  134.0219  157.3539 LP  0  0  0  0  0  0  0  0  0  0  0  0  # atno 17395 bound_to 11000

$$$$
