AV-unprocessed.smi:246|AV-procd|sdf|1887|dock6
  -GOLD-   2262020543D 1   1.00000     0.00000
 Structure written by MMmdl.
 57 60  0  0  0  0  0  0  0  0  1 V2000
  145.7227  131.8678  149.6034 C   0  0  0  0  0  0  0  0  0  0  0  0
  146.0944  132.8911  150.6852 C   0  0  0  0  0  0  0  0  0  0  0  0
  144.9873  133.2099  151.5169 O   0  0  0  0  0  0  0  0  0  0  0  0
  145.3303  133.4827  152.8678 C   0  0  0  0  0  0  0  0  0  0  0  0
  145.8741  134.9107  152.9650 C   0  0  0  0  0  0  0  0  0  0  0  0
  144.7850  135.8215  152.9863 O   0  0  0  0  0  0  0  0  0  0  0  0
  145.1843  137.1825  152.9209 C   0  0  2  0  0  0  0  0  0  0  0  0
  145.8095  137.5060  151.5653 C   0  0  0  0  0  0  0  0  0  0  0  0
  146.6593  138.7364  151.8772 C   0  0  0  0  0  0  0  0  0  0  0  0
  147.1355  138.5218  153.2373 N   0  0  0  0  0  0  0  0  0  0  0  0
  147.7536  139.5046  153.9412 C   0  0  0  0  0  0  0  0  0  0  0  0
  147.5965  140.7965  153.5479 N   0  0  0  0  0  0  0  0  0  0  0  0
  148.1835  141.7879  154.2243 C   0  0  0  0  0  0  0  0  0  0  0  0
  148.9633  141.7137  155.3039 N   0  0  0  0  0  0  0  0  0  0  0  0
  149.1385  140.4201  155.6982 C   0  0  0  0  0  0  0  0  0  0  0  0
  148.5831  139.2651  155.0760 C   0  0  0  0  0  0  0  0  0  0  0  0
  149.0093  138.1228  155.7450 N   0  0  0  0  0  0  0  0  0  0  0  0
  149.7613  138.5760  156.7094 C   0  0  0  0  0  0  0  0  0  0  0  0
  149.8788  139.9460  156.7673 N   0  0  0  0  0  0  0  0  0  0  0  0
  150.6394  140.7119  157.7415 C   0  0  0  0  0  0  0  0  0  0  0  0
  150.5708  142.2444  157.5448 C   0  0  1  0  0  0  0  0  0  0  0  0
  149.2456  142.7180  157.6867 O   0  0  0  0  0  0  0  0  0  0  0  0
  151.5323  143.0708  158.4300 C   0  0  1  0  0  0  0  0  0  0  0  0
  151.7520  144.5247  157.9965 C   0  0  0  0  0  0  0  0  0  0  0  0
  152.1191  145.1847  159.3069 C   0  0  0  0  0  0  0  0  0  0  0  0
  151.1988  144.4572  160.2801 C   0  0  0  0  0  0  0  0  0  0  0  0
  151.1261  143.1213  159.7968 O   0  0  0  0  0  0  0  0  0  0  0  0
  146.2988  137.5397  153.9152 C   0  0  0  0  0  0  0  0  0  0  0  0
  144.3283  137.8431  153.0713 H   0  0  0  0  0  0  0  0  0  0  0  0
  146.5559  131.7141  148.9177 H   0  0  0  0  0  0  0  0  0  0  0  0
  144.8697  132.2111  149.0179 H   0  0  0  0  0  0  0  0  0  0  0  0
  145.4698  130.8978  150.0299 H   0  0  0  0  0  0  0  0  0  0  0  0
  146.9421  132.5454  151.2788 H   0  0  0  0  0  0  0  0  0  0  0  0
  146.4137  133.8134  150.1996 H   0  0  0  0  0  0  0  0  0  0  0  0
  144.4771  133.3602  153.5350 H   0  0  0  0  0  0  0  0  0  0  0  0
  146.1014  132.7815  153.1904 H   0  0  0  0  0  0  0  0  0  0  0  0
  146.4464  135.0153  153.8880 H   0  0  0  0  0  0  0  0  0  0  0  0
  146.5515  135.1162  152.1352 H   0  0  0  0  0  0  0  0  0  0  0  0
  146.4532  136.6853  151.2453 H   0  0  0  0  0  0  0  0  0  0  0  0
  145.0709  137.6834  150.7834 H   0  0  0  0  0  0  0  0  0  0  0  0
  147.4863  138.8463  151.1752 H   0  0  0  0  0  0  0  0  0  0  0  0
  146.0469  139.6383  151.8353 H   0  0  0  0  0  0  0  0  0  0  0  0
  148.0005  142.7831  153.8470 H   0  0  0  0  0  0  0  0  0  0  0  0
  150.2414  137.9196  157.4206 H   0  0  0  0  0  0  0  0  0  0  0  0
  150.2776  140.4527  158.7370 H   0  0  0  0  0  0  0  0  0  0  0  0
  151.6769  140.3779  157.7006 H   0  0  0  0  0  0  0  0  0  0  0  0
  150.8442  142.4398  156.5073 H   0  0  0  0  0  0  0  0  0  0  0  0
  148.9800  143.1180  156.8726 H   0  0  0  0  0  0  0  0  0  0  0  0
  152.5049  142.5765  158.4291 H   0  0  0  0  0  0  0  0  0  0  0  0
  152.5252  144.6278  157.2349 H   0  0  0  0  0  0  0  0  0  0  0  0
  150.8348  144.9700  157.6096 H   0  0  0  0  0  0  0  0  0  0  0  0
  153.1628  144.9828  159.5514 H   0  0  0  0  0  0  0  0  0  0  0  0
  151.9680  146.2643  159.3021 H   0  0  0  0  0  0  0  0  0  0  0  0
  151.5575  144.4927  161.3088 H   0  0  0  0  0  0  0  0  0  0  0  0
  150.1981  144.8904  160.2530 H   0  0  0  0  0  0  0  0  0  0  0  0
  145.8808  137.9196  154.8483 H   0  0  0  0  0  0  0  0  0  0  0  0
  146.9092  136.6650  154.1430 H   0  0  0  0  0  0  0  0  0  0  0  0
  1  2  1  0  0  0  0
  1 30  1  0  0  0  0
  1 31  1  0  0  0  0
  1 32  1  0  0  0  0
  2  3  1  0  0  0  0
  2 33  1  0  0  0  0
  2 34  1  0  0  0  0
  3  4  1  0  0  0  0
  4  5  1  0  0  0  0
  4 35  1  0  0  0  0
  4 36  1  0  0  0  0
  5  6  1  0  0  0  0
  5 37  1  0  0  0  0
  5 38  1  0  0  0  0
  6  7  1  0  0  0  0
  7 29  1  0  0  0  0
  7 28  1  0  0  0  0
  7  8  1  0  0  0  0
  8  9  1  0  0  0  0
  8 39  1  0  0  0  0
  8 40  1  0  0  0  0
  9 10  1  0  0  0  0
  9 41  1  0  0  0  0
  9 42  1  0  0  0  0
 10 11  1  0  0  0  0
 10 28  1  0  0  0  0
 11 16  1  0  0  0  0
 11 12  2  0  0  0  0
 12 13  1  0  0  0  0
 13 14  2  0  0  0  0
 13 43  1  0  0  0  0
 14 15  1  0  0  0  0
 15 19  1  0  0  0  0
 15 16  2  0  0  0  0
 16 17  1  0  0  0  0
 17 18  2  0  0  0  0
 18 19  1  0  0  0  0
 18 44  1  0  0  0  0
 19 20  1  0  0  0  0
 20 21  1  0  0  0  0
 20 45  1  0  0  0  0
 20 46  1  0  0  0  0
 21 22  1  0  0  0  0
 21 23  1  0  0  0  0
 21 47  1  0  0  0  0
 22 48  1  0  0  0  0
 23 27  1  0  0  0  0
 23 24  1  0  0  0  0
 23 49  1  0  0  0  0
 24 25  1  0  0  0  0
 24 50  1  0  0  0  0
 24 51  1  0  0  0  0
 25 26  1  0  0  0  0
 25 52  1  0  0  0  0
 25 53  1  0  0  0  0
 26 27  1  0  0  0  0
 26 54  1  0  0  0  0
 26 55  1  0  0  0  0
 28 56  1  0  0  0  0
 28 57  1  0  0  0  0
M  END
> <s_m_source_file>
AV-unprocessed.smi

> <i_m_source_file_index>
246

> <i_lp_mmshare_version>
43012

> <i_f3d_flags>
0

> <s_epik_input>
W0NIM11bQ0gyXU9bQ0gyXVtDSDJdT1tDQEhdMVtDSDJdW0NIMl1OKFtDSDJdMSljKG5bY0hdbjIpYyhjMjMpbltjSF1uM1tDSDJdW0NASF0oW09IXSlbQ0BASF00W0NIMl1bQ0gyXVtDSDJdTzQ=

> <s_epik_cmdline>
J2VwaWtfcHl0aG9uJywgJy1waCcsICc3LjAnLCAnLXRuJywgJzgnLCAnLW1hJywgJzIwMCcsICctbWV0YWxfYmluZGluZycsICctaW1hZScsICc8aW5maWxlLm1hZT4nLCAnLW9tYWUnLCAnPG91dGZpbGUubWFlPic=

> <r_lp_tautomer_probability>
1

> <r_epik_Ionization_Penalty>
0.0024631

> <r_epik_Ionization_Penalty_Charging>
0

> <r_epik_Ionization_Penalty_Neutral>
0.0024631

> <r_epik_State_Penalty>
0.00162428

> <r_epik_Charging_Adjusted_Penalty>
0.00162428

> <i_epik_Tot_Q>
0

> <i_epik_Tot_abs_Q>
0

> <r_epik_Metal_State_Penalty>
-0

> <b_epik_Metal_Only>
0

> <s_lp_Force_Field>
OPLS_2005

> <r_lp_Energy>
52.7235

> <b_lp_Chiralities_Consistent>
1

> <s_lp_Variant>
AV-unprocessed.smi:246-8

> <Gold.Version>
5.8.1

> <Gold.Id.Protein>
6NUR|6NUR_protein|mol2

> <Gold.PLP.Fitness>
47.2194

> <Gold.PLP.PLP>
-44.7101

> <Gold.PLP.part.hbond>
-1.3086

> <Gold.PLP.part.metal>
0.0000

> <Gold.PLP.part.buried>
-1.4500

> <Gold.PLP.part.nonpolar>
-43.6189

> <Gold.PLP.part.repulsive>
1.7270

> <Gold.PLP.ligand.clash>
0.0000

> <Gold.PLP.ligand.torsion>
1.1701

> <Gold.PLP.Chemscore.Hbond>
1.0000

> <Gold.PLP.Chemscore.CHOScore>
0.4312

> <Gold.PLP.Chemscore.Metal>
0.0000

> <Gold.Chemscore.Hbonds>
donor molecule, donor type, donor heavy atom, donor atom, acceptor molecule, acceptor atom, score
      L1  H    22    48       P1  8028  1.00
      L1  C    13    43       P1  8028  0.28

> <Gold.PLP.Chemscore.Internal.Correction>
0.5561

> <Gold.Rescore>
     Score         DG    S(hbond)    S(metal)    S(lipo)     H(rot)  DE(clash)    DE(int)     intcor
     10.09     -14.37       0.92        0.00     117.75       3.10       2.05       2.23       ----

> <Gold.Chemscore.Fitness>
10.0893

> <Gold.Chemscore.DG>
-14.3714

> <Gold.Chemscore.ZeroCoef>
-5.4800

> <Gold.Chemscore.Hbond>
0.9152

> <Gold.Chemscore.Metal>
0.0000

> <Gold.Chemscore.Lipo>
117.7539

> <Gold.Chemscore.Internal_Hbond>
0.0000

> <Gold.Chemscore.DEClash>
2.0510

> <Gold.Chemscore.DEInternal>
2.2311

> <Gold.Chemscore.Rot>
3.1026

> <Gold.Chemscore.Internal.Correction>
   9.000000E+99

> <Gold.Chemscore.Hbonds>
donor molecule, donor type, donor heavy atom, donor atom, acceptor molecule, acceptor atom, score
      L1  H    22    48       P1  8028  0.82

> <Gold.Chemscore.Hbond.Weighted>
-3.0568

> <Gold.Chemscore.Metal.Weighted>
-0.0000

> <Gold.Chemscore.Lipo.Weighted>
-13.7772

> <Gold.Chemscore.Internal_Hbond.Weighted>
0.0000

> <Gold.Chemscore.DEClash.Weighted>
2.0510

> <Gold.Chemscore.DEInternal.Weighted>
2.2311

> <Gold.Chemscore.Rot.Weighted>
7.9426

> <Gold.Chemscore.Internal.Correction.Weighted>
   9.000000E+99

> <Gold.Protein.RotatedTorsions>
[ 6907 6896 6895 6894 ] final  123.80 input  -60.11 | X-H torsion
[ 7974 7965 7964 7962 ] final  162.18 input  175.53 | X-H torsion
[ 8008 7997 7996 7995 ] final  -24.98 input   59.86 | X-H torsion
[ 10167 10162 10161 10158 ] final  125.79 input  -65.29 | X-H torsion
[ 10718 10713 10712 10709 ] final -126.92 input   66.30 | X-H torsion
[ 10763 10752 10751 10750 ] final  161.97 input  -60.55 | X-H torsion
[ 11005 11000 10999 10996 ] final  -88.78 input  -57.11 | X-H torsion

> <Gold.Protein.ActiveResidues>
 VAL166  LYS551  ARG553  GLY616  TRP617  ASP618  TYR619  PRO620  LYS621  CYS622 
 ASP623  PHE694  ASN695  SER759  ASP760  ASP761  ALA762  ILE779  LEU786  VAL792 
 PHE793  MET794  SER795  GLU796  ALA797  LYS798  CYS799  TRP800  GLU811  SER814 

> <Gold.Protein.RotatedAtoms>
  152.4132  133.6996  159.6415 H   0  0  0  0  0  0  0  0  0  0  0  0  # atno 6907 bound_to 6896
  150.8010  133.8587  159.3234 H   0  0  0  0  0  0  0  0  0  0  0  0  # atno 6908 bound_to 6896
  151.6324  135.1023  160.0176 H   0  0  0  0  0  0  0  0  0  0  0  0  # atno 6909 bound_to 6896
  144.7649  139.8003  143.6319 H   0  0  0  0  0  0  0  0  0  0  0  0  # atno 7974 bound_to 7965
  154.4500  140.1939  156.0549 H   0  0  0  0  0  0  0  0  0  0  0  0  # atno 8008 bound_to 7997
  156.0626  140.3295  155.7453 H   0  0  0  0  0  0  0  0  0  0  0  0  # atno 8009 bound_to 7997
  155.5387  140.0584  157.2865 H   0  0  0  0  0  0  0  0  0  0  0  0  # atno 8010 bound_to 7997
  139.5666  144.6915  151.3893 H   0  0  0  0  0  0  0  0  0  0  0  0  # atno 10167 bound_to 10162
  156.1809  130.6731  151.0303 H   0  0  0  0  0  0  0  0  0  0  0  0  # atno 10718 bound_to 10713
  154.2712  135.2765  155.2737 H   0  0  0  0  0  0  0  0  0  0  0  0  # atno 10763 bound_to 10752
  154.5300  135.5732  153.6754 H   0  0  0  0  0  0  0  0  0  0  0  0  # atno 10764 bound_to 10752
  152.9945  135.6225  154.2866 H   0  0  0  0  0  0  0  0  0  0  0  0  # atno 10765 bound_to 10752
  141.1596  133.7590  156.9500 H   0  0  0  0  0  0  0  0  0  0  0  0  # atno 11005 bound_to 11000
  146.1747  139.4913  142.9905 LP  0  0  0  0  0  0  0  0  0  0  0  0  # atno 17320 bound_to 7965
  145.6502  141.0265  143.1764 LP  0  0  0  0  0  0  0  0  0  0  0  0  # atno 17321 bound_to 7965
  140.6950  143.7771  150.7312 LP  0  0  0  0  0  0  0  0  0  0  0  0  # atno 17342 bound_to 10162
  140.1265  143.4565  152.2281 LP  0  0  0  0  0  0  0  0  0  0  0  0  # atno 17343 bound_to 10162
  157.6867  131.0822  150.7222 LP  0  0  0  0  0  0  0  0  0  0  0  0  # atno 17370 bound_to 10713
  156.7279  130.4700  149.5507 LP  0  0  0  0  0  0  0  0  0  0  0  0  # atno 17371 bound_to 10713
  140.1263  134.9384  157.2275 LP  0  0  0  0  0  0  0  0  0  0  0  0  # atno 17394 bound_to 11000
  140.3008  134.3133  155.7290 LP  0  0  0  0  0  0  0  0  0  0  0  0  # atno 17395 bound_to 11000

$$$$
