AV-unprocessed.smi:1226|AV-procd|sdf|5144|dock7
  -GOLD-   22720 4213D 1   1.00000     0.00000
 Structure written by MMmdl.
 37 38  0  0  0  0  0  0  0  0  1 V2000
  151.9759  145.3256  159.0679 C   0  0  0  0  0  0  0  0  0  0  0  0
  152.3532  144.0897  159.8107 C   0  0  0  0  0  0  0  0  0  0  0  0
  152.8206  142.9868  159.2203 N   0  0  0  0  0  0  0  0  0  0  0  0
  153.1020  141.9650  160.1325 C   0  0  0  0  0  0  0  0  0  0  0  0
  153.6419  140.6554  159.6437 C   0  0  0  0  0  0  0  0  0  0  0  0
  152.5831  139.5408  159.6811 C   0  0  0  0  0  0  0  0  0  0  0  0
  151.5130  139.7811  158.7199 N   0  0  0  0  0  0  0  0  0  0  0  0
  151.6865  139.9189  157.3983 C   0  0  0  0  0  0  0  0  0  0  0  0
  152.7790  139.8546  156.8347 O   0  0  0  0  0  0  0  0  0  0  0  0
  150.5271  140.1430  156.7653 N   0  0  0  0  0  0  0  0  0  0  0  0
  150.3880  140.3595  155.3294 C   0  0  0  0  0  0  0  0  0  0  0  0
  148.9207  140.5681  154.9148 C   0  0  2  0  0  0  0  0  0  0  0  0
  148.2228  139.3205  154.3701 C   0  0  0  0  0  0  0  0  0  0  0  0
  147.1590  139.8795  153.4368 C   0  0  0  0  0  0  0  0  0  0  0  0
  147.5261  141.3586  153.2884 C   0  0  0  0  0  0  0  0  0  0  0  0
  148.8375  141.4682  153.8226 O   0  0  0  0  0  0  0  0  0  0  0  0
  152.8360  142.3132  161.4335 C   0  0  0  0  0  0  0  0  0  0  0  0
  152.2228  143.9392  161.5586 S   0  0  0  0  0  0  0  0  0  0  0  0
  152.3180  145.2715  158.0339 H   0  0  0  0  0  0  0  0  0  0  0  0
  152.4289  146.1976  159.5398 H   0  0  0  0  0  0  0  0  0  0  0  0
  150.8927  145.4463  159.0725 H   0  0  0  0  0  0  0  0  0  0  0  0
  154.0157  140.7656  158.6249 H   0  0  0  0  0  0  0  0  0  0  0  0
  154.5033  140.3664  160.2472 H   0  0  0  0  0  0  0  0  0  0  0  0
  153.0418  138.5686  159.4926 H   0  0  0  0  0  0  0  0  0  0  0  0
  152.1379  139.4865  160.6750 H   0  0  0  0  0  0  0  0  0  0  0  0
  150.5758  139.8507  159.0885 H   0  0  0  0  0  0  0  0  0  0  0  0
  149.6812  140.1771  157.3150 H   0  0  0  0  0  0  0  0  0  0  0  0
  150.9929  141.2133  155.0195 H   0  0  0  0  0  0  0  0  0  0  0  0
  150.7983  139.4893  154.8166 H   0  0  0  0  0  0  0  0  0  0  0  0
  148.3455  140.9805  155.7461 H   0  0  0  0  0  0  0  0  0  0  0  0
  148.9251  138.7123  153.7985 H   0  0  0  0  0  0  0  0  0  0  0  0
  147.8063  138.6974  155.1622 H   0  0  0  0  0  0  0  0  0  0  0  0
  147.1820  139.3643  152.4758 H   0  0  0  0  0  0  0  0  0  0  0  0
  146.1570  139.7687  153.8526 H   0  0  0  0  0  0  0  0  0  0  0  0
  147.4916  141.6981  152.2530 H   0  0  0  0  0  0  0  0  0  0  0  0
  146.8486  141.9820  153.8738 H   0  0  0  0  0  0  0  0  0  0  0  0
  152.9640  141.7145  162.3232 H   0  0  0  0  0  0  0  0  0  0  0  0
  1  2  1  0  0  0  0
  1 19  1  0  0  0  0
  1 20  1  0  0  0  0
  1 21  1  0  0  0  0
  2 18  1  0  0  0  0
  2  3  2  0  0  0  0
  3  4  1  0  0  0  0
  4  5  1  0  0  0  0
  4 17  2  0  0  0  0
  5  6  1  0  0  0  0
  5 22  1  0  0  0  0
  5 23  1  0  0  0  0
  6  7  1  0  0  0  0
  6 24  1  0  0  0  0
  6 25  1  0  0  0  0
  7  8  1  0  0  0  0
  7 26  1  0  0  0  0
  8  9  2  0  0  0  0
  8 10  1  0  0  0  0
 10 11  1  0  0  0  0
 10 27  1  0  0  0  0
 11 12  1  0  0  0  0
 11 28  1  0  0  0  0
 11 29  1  0  0  0  0
 12 16  1  0  0  0  0
 12 13  1  0  0  0  0
 12 30  1  0  0  0  0
 13 14  1  0  0  0  0
 13 31  1  0  0  0  0
 13 32  1  0  0  0  0
 14 15  1  0  0  0  0
 14 33  1  0  0  0  0
 14 34  1  0  0  0  0
 15 16  1  0  0  0  0
 15 35  1  0  0  0  0
 15 36  1  0  0  0  0
 17 18  1  0  0  0  0
 17 37  1  0  0  0  0
M  END
> <s_m_source_file>
AV-unprocessed.smi

> <i_m_source_file_index>
1226

> <i_lp_mmshare_version>
43012

> <i_f3d_flags>
0

> <s_epik_input>
W0NIM11jMW5jKFtjSF1zMSlbQ0gyXVtDSDJdW05IXUMoPU8pW05IXVtDSDJdW0NAQEhdMltDSDJdW0NIMl1bQ0gyXU8y

> <s_epik_cmdline>
J2VwaWtfcHl0aG9uJywgJy1waCcsICc3LjAnLCAnLXRuJywgJzgnLCAnLW1hJywgJzIwMCcsICctbWV0YWxfYmluZGluZycsICctaW1hZScsICc8aW5maWxlLm1hZT4nLCAnLW9tYWUnLCAnPG91dGZpbGUubWFlPic=

> <r_epik_Ionization_Penalty>
0.00199722

> <r_epik_Ionization_Penalty_Charging>
0

> <r_epik_Ionization_Penalty_Neutral>
0.00199722

> <r_epik_State_Penalty>
0.00132705

> <r_epik_Charging_Adjusted_Penalty>
0.00132705

> <i_epik_Tot_Q>
0

> <i_epik_Tot_abs_Q>
0

> <r_epik_Metal_State_Penalty>
-0

> <b_epik_Metal_Only>
0

> <s_lp_Force_Field>
OPLS_2005

> <r_lp_Energy>
9.02747

> <b_lp_Chiralities_Consistent>
1

> <s_lp_Variant>
AV-unprocessed.smi:1226-1

> <Gold.Version>
5.8.1

> <Gold.Id.Protein>
6NUR|6NUR_protein|mol2

> <Gold.PLP.Fitness>
43.4845

> <Gold.PLP.PLP>
-39.6383

> <Gold.PLP.part.hbond>
-2.0000

> <Gold.PLP.part.metal>
0.0000

> <Gold.PLP.part.buried>
-4.6979

> <Gold.PLP.part.nonpolar>
-32.9041

> <Gold.PLP.part.repulsive>
0.3574

> <Gold.PLP.ligand.clash>
0.0000

> <Gold.PLP.ligand.torsion>
0.6708

> <Gold.PLP.Chemscore.Hbond>
1.7200

> <Gold.PLP.Chemscore.CHOScore>
0.0000

> <Gold.PLP.Chemscore.Metal>
0.0000

> <Gold.Chemscore.Hbonds>
donor molecule, donor type, donor heavy atom, donor atom, acceptor molecule, acceptor atom, score
      P1  H  7997  8009       L1     9  1.00
      P1  H  8011  8017       L1    16  0.74

> <Gold.PLP.Chemscore.Internal.Correction>
0.0278

> <Gold.Rescore>
     Score         DG    S(hbond)    S(metal)    S(lipo)     H(rot)  DE(clash)    DE(int)     intcor
     17.79     -18.31       1.48        0.00     105.68       1.75       0.16       0.36       ----

> <Gold.Chemscore.Fitness>
17.7911

> <Gold.Chemscore.DG>
-18.3149

> <Gold.Chemscore.ZeroCoef>
-5.4800

> <Gold.Chemscore.Hbond>
1.4811

> <Gold.Chemscore.Metal>
0.0000

> <Gold.Chemscore.Lipo>
105.6816

> <Gold.Chemscore.Internal_Hbond>
0.0000

> <Gold.Chemscore.DEClash>
0.1591

> <Gold.Chemscore.DEInternal>
0.3646

> <Gold.Chemscore.Rot>
1.7487

> <Gold.Chemscore.Internal.Correction>
   9.000000E+99

> <Gold.Chemscore.Hbonds>
donor molecule, donor type, donor heavy atom, donor atom, acceptor molecule, acceptor atom, score
      P1  H  7997  8009       L1     9  0.99
      P1  H  8011  8017       L1    16  0.21

> <Gold.Chemscore.Hbond.Weighted>
-4.9469

> <Gold.Chemscore.Metal.Weighted>
-0.0000

> <Gold.Chemscore.Lipo.Weighted>
-12.3647

> <Gold.Chemscore.Internal_Hbond.Weighted>
0.0000

> <Gold.Chemscore.DEClash.Weighted>
0.1591

> <Gold.Chemscore.DEInternal.Weighted>
0.3646

> <Gold.Chemscore.Rot.Weighted>
4.4768

> <Gold.Chemscore.Internal.Correction.Weighted>
   9.000000E+99

> <Gold.Protein.RotatedTorsions>
[ 6907 6896 6895 6894 ] final  -57.46 input  -60.11 | X-H torsion
[ 7974 7965 7964 7962 ] final -179.52 input  175.53 | X-H torsion
[ 8008 7997 7996 7995 ] final -177.23 input   59.86 | X-H torsion
[ 10167 10162 10161 10158 ] final -148.08 input  -65.29 | X-H torsion
[ 10718 10713 10712 10709 ] final -109.30 input   66.30 | X-H torsion
[ 10763 10752 10751 10750 ] final   85.69 input  -60.55 | X-H torsion
[ 11005 11000 10999 10996 ] final   25.40 input  -57.11 | X-H torsion

> <Gold.Protein.ActiveResidues>
 VAL166  LYS551  ARG553  GLY616  TRP617  ASP618  TYR619  PRO620  LYS621  CYS622 
 ASP623  PHE694  ASN695  SER759  ASP760  ASP761  ALA762  ILE779  LEU786  VAL792 
 PHE793  MET794  SER795  GLU796  ALA797  LYS798  CYS799  TRP800  GLU811  SER814 

> <Gold.Protein.RotatedAtoms>
  150.8084  134.7224  159.6665 H   0  0  0  0  0  0  0  0  0  0  0  0  # atno 6907 bound_to 6896
  152.4204  134.5962  159.9997 H   0  0  0  0  0  0  0  0  0  0  0  0  # atno 6908 bound_to 6896
  151.6179  133.3304  159.3117 H   0  0  0  0  0  0  0  0  0  0  0  0  # atno 6909 bound_to 6896
  144.7137  140.0706  143.6429 H   0  0  0  0  0  0  0  0  0  0  0  0  # atno 7974 bound_to 7965
  156.0044  140.1227  157.0516 H   0  0  0  0  0  0  0  0  0  0  0  0  # atno 8008 bound_to 7997
  154.4253  140.1100  156.5811 H   0  0  0  0  0  0  0  0  0  0  0  0  # atno 8009 bound_to 7997
  155.6168  140.3472  155.4641 H   0  0  0  0  0  0  0  0  0  0  0  0  # atno 8010 bound_to 7997
  139.7564  143.8442  152.2598 H   0  0  0  0  0  0  0  0  0  0  0  0  # atno 10167 bound_to 10162
  156.0530  130.5757  150.8080 H   0  0  0  0  0  0  0  0  0  0  0  0  # atno 10718 bound_to 10713
  153.1499  135.4608  154.9621 H   0  0  0  0  0  0  0  0  0  0  0  0  # atno 10763 bound_to 10752
  154.7816  135.3190  154.7980 H   0  0  0  0  0  0  0  0  0  0  0  0  # atno 10764 bound_to 10752
  153.8487  135.6923  153.4849 H   0  0  0  0  0  0  0  0  0  0  0  0  # atno 10765 bound_to 10752
  140.3482  134.2258  155.7682 H   0  0  0  0  0  0  0  0  0  0  0  0  # atno 11005 bound_to 11000
  145.9787  139.2924  143.1055 LP  0  0  0  0  0  0  0  0  0  0  0  0  # atno 17320 bound_to 7965
  145.9035  140.9227  143.0490 LP  0  0  0  0  0  0  0  0  0  0  0  0  # atno 17321 bound_to 7965
  139.8435  144.7198  150.9301 LP  0  0  0  0  0  0  0  0  0  0  0  0  # atno 17342 bound_to 10162
  140.7803  143.3962  151.1226 LP  0  0  0  0  0  0  0  0  0  0  0  0  # atno 17343 bound_to 10162
  157.5474  131.0943  150.9744 LP  0  0  0  0  0  0  0  0  0  0  0  0  # atno 17370 bound_to 10713
  157.0012  130.5600  149.5311 LP  0  0  0  0  0  0  0  0  0  0  0  0  # atno 17371 bound_to 10713
  141.2019  133.7950  157.0415 LP  0  0  0  0  0  0  0  0  0  0  0  0  # atno 17394 bound_to 11000
  140.0725  134.9694  157.1490 LP  0  0  0  0  0  0  0  0  0  0  0  0  # atno 17395 bound_to 11000

$$$$
