AV-unprocessed.smi:101|AV-procd|sdf|944|dock3
  -GOLD-   2262017463D 1   1.00000     0.00000
 Structure written by MMmdl.
 43 45  0  0  0  0  0  0  0  0  2 V2000
  144.9161  142.2853  158.0077 C   0  0  0  0  0  0  0  0  0  0  0  0
  145.2092  142.6838  156.5717 C   0  0  0  0  0  0  0  0  0  0  0  0
  146.0953  142.0132  155.8029 C   0  0  0  0  0  0  0  0  0  0  0  0
  146.3672  142.3749  154.4910 N   0  0  0  0  0  0  0  0  0  0  0  0
  147.4362  141.6683  153.6627 C   0  0  1  0  0  0  0  0  0  0  0  0
  148.6032  141.6206  154.4211 O   0  0  0  0  0  0  0  0  0  0  0  0
  148.6245  140.3978  155.1440 C   0  0  2  0  0  0  0  0  0  0  0  0
  150.0319  140.1083  155.6853 C   0  0  0  0  0  0  0  0  0  0  0  0
  150.4228  141.1757  156.5329 O   0  0  0  0  0  0  0  0  0  0  0  0
  151.5304  141.0687  157.2898 C   0  0  0  0  0  0  0  0  0  0  0  0
  152.2701  140.0826  157.2815 O   0  0  0  0  0  0  0  0  0  0  0  0
  151.7672  142.2693  158.1424 C   0  0  0  0  0  0  0  0  0  0  0  0
  152.3651  142.1097  159.4144 C   0  0  0  0  0  0  0  0  0  0  0  0
  152.6019  143.2253  160.2408 C   0  0  0  0  0  0  0  0  0  0  0  0
  152.2433  144.5142  159.8055 C   0  0  0  0  0  0  0  0  0  0  0  0
  151.6479  144.6864  158.5422 C   0  0  0  0  0  0  0  0  0  0  0  0
  151.4104  143.5720  157.7142 C   0  0  0  0  0  0  0  0  0  0  0  0
  148.0609  139.3848  154.1305 C   0  0  2  0  0  0  0  0  0  0  0  0
  149.1021  138.7894  153.3717 O   0  0  0  0  0  0  0  0  0  0  0  0
  147.0881  140.2151  153.2745 C   0  0  2  0  0  0  0  0  0  0  0  0
  147.2259  139.9855  151.8838 O   0  0  0  0  0  0  0  0  0  0  0  0
  145.7695  143.5563  153.9699 C   0  0  0  0  0  0  0  0  0  0  0  0
  146.0975  143.9309  152.8441 O   0  0  0  0  0  0  0  0  0  0  0  0
  144.8578  144.2271  154.7301 N   0  5  0  0  0  0  0  0  0  0  0  0
  144.5266  143.8462  155.9959 C   0  0  0  0  0  0  0  0  0  0  0  0
  143.6852  144.4480  156.6622 O   0  0  0  0  0  0  0  0  0  0  0  0
  145.5170  141.4281  158.3127 H   0  0  0  0  0  0  0  0  0  0  0  0
  143.8649  142.0191  158.1214 H   0  0  0  0  0  0  0  0  0  0  0  0
  145.1380  143.1105  158.6851 H   0  0  0  0  0  0  0  0  0  0  0  0
  146.6135  141.1803  156.2511 H   0  0  0  0  0  0  0  0  0  0  0  0
  147.5848  142.2846  152.7754 H   0  0  0  0  0  0  0  0  0  0  0  0
  147.9355  140.4715  155.9858 H   0  0  0  0  0  0  0  0  0  0  0  0
  150.0237  139.1829  156.2629 H   0  0  0  0  0  0  0  0  0  0  0  0
  150.7450  139.9860  154.8689 H   0  0  0  0  0  0  0  0  0  0  0  0
  152.6493  141.1299  159.7702 H   0  0  0  0  0  0  0  0  0  0  0  0
  153.0594  143.0910  161.2099 H   0  0  0  0  0  0  0  0  0  0  0  0
  152.4248  145.3696  160.4395 H   0  0  0  0  0  0  0  0  0  0  0  0
  151.3728  145.6753  158.2059 H   0  0  0  0  0  0  0  0  0  0  0  0
  150.9529  143.7403  156.7500 H   0  0  0  0  0  0  0  0  0  0  0  0
  147.5350  138.5805  154.6459 H   0  0  0  0  0  0  0  0  0  0  0  0
  149.2895  139.3439  152.6302 H   0  0  0  0  0  0  0  0  0  0  0  0
  146.0509  139.9842  153.5092 H   0  0  0  0  0  0  0  0  0  0  0  0
  148.0948  139.6519  151.7211 H   0  0  0  0  0  0  0  0  0  0  0  0
  1  2  1  0  0  0  0
  1 27  1  0  0  0  0
  1 28  1  0  0  0  0
  1 29  1  0  0  0  0
  2 25  1  0  0  0  0
  2  3  2  0  0  0  0
  3  4  1  0  0  0  0
  3 30  1  0  0  0  0
  4  5  1  0  0  0  0
  4 22  1  0  0  0  0
  5 20  1  0  0  0  0
  5  6  1  0  0  0  0
  5 31  1  0  0  0  0
  6  7  1  0  0  0  0
  7  8  1  0  0  0  0
  7 18  1  0  0  0  0
  7 32  1  0  0  0  0
  8  9  1  0  0  0  0
  8 33  1  0  0  0  0
  8 34  1  0  0  0  0
  9 10  1  0  0  0  0
 10 11  2  0  0  0  0
 10 12  1  0  0  0  0
 12 17  1  0  0  0  0
 12 13  2  0  0  0  0
 13 14  1  0  0  0  0
 13 35  1  0  0  0  0
 14 15  2  0  0  0  0
 14 36  1  0  0  0  0
 15 16  1  0  0  0  0
 15 37  1  0  0  0  0
 16 17  2  0  0  0  0
 16 38  1  0  0  0  0
 17 39  1  0  0  0  0
 18 19  1  0  0  0  0
 18 20  1  0  0  0  0
 18 40  1  0  0  0  0
 19 41  1  0  0  0  0
 20 21  1  0  0  0  0
 20 42  1  0  0  0  0
 21 43  1  0  0  0  0
 22 23  2  0  0  0  0
 22 24  1  0  0  0  0
 24 25  1  0  0  0  0
 25 26  2  0  0  0  0
M  CHG  1  24  -1
M  END
> <s_m_source_file>
AV-unprocessed.smi

> <i_m_source_file_index>
101

> <i_lp_mmshare_version>
43012

> <i_f3d_flags>
0

> <s_epik_input>
Tz1jMVtuSF1jKD1PKW4oW2NIXWMxW0NIM10pW0NAQEhdMk9bQ0BIXShbQ0BASF0oW09IXSlbQ0BIXTJbT0hdKVtDSDJdT0MoPU8pYzNbY0hdW2NIXVtjSF1bY0hdW2NIXTM=

> <s_epik_cmdline>
J2VwaWtfcHl0aG9uJywgJy1waCcsICc3LjAnLCAnLXRuJywgJzgnLCAnLW1hJywgJzIwMCcsICctbWV0YWxfYmluZGluZycsICctaW1hZScsICc8aW5maWxlLm1hZT4nLCAnLW9tYWUnLCAnPG91dGZpbGUubWFlPic=

> <r_lp_tautomer_probability>
0.999537

> <r_epik_Ionization_Penalty>
3.21006

> <r_epik_Ionization_Penalty_Charging>
5.75142e-08

> <r_epik_Ionization_Penalty_Neutral>
3.21006

> <r_epik_State_Penalty>
3.20925

> <r_epik_Charging_Adjusted_Penalty>
3.20925

> <i_epik_Tot_Q>
-1

> <i_epik_Tot_abs_Q>
1

> <r_epik_Metal_State_Penalty>
0.119957

> <b_epik_Metal_Only>
1

> <s_epik_Chemistry_Notes>
This compound has an ester and may undergo hydrolysis at high or low pH. This compound contains an acetal/aminal-like group ( X-CH(R)-Y where X, Y are N, S, or O) that may be acid/base labile, releasing an aldehyde.

> <s_lp_Force_Field>
OPLS_2005

> <r_lp_Energy>
46.0166

> <b_lp_Chiralities_Consistent>
1

> <s_lp_Variant>
AV-unprocessed.smi:101-32

> <Gold.Version>
5.8.1

> <Gold.Id.Protein>
6NUR|6NUR_protein|mol2

> <Gold.PLP.Fitness>
55.5226

> <Gold.PLP.PLP>
-47.5907

> <Gold.PLP.part.hbond>
-4.8232

> <Gold.PLP.part.metal>
0.0000

> <Gold.PLP.part.buried>
-8.0953

> <Gold.PLP.part.nonpolar>
-36.4658

> <Gold.PLP.part.repulsive>
0.6127

> <Gold.PLP.ligand.clash>
0.0000

> <Gold.PLP.ligand.torsion>
0.5733

> <Gold.PLP.Chemscore.Hbond>
2.9913

> <Gold.PLP.Chemscore.CHOScore>
0.0000

> <Gold.PLP.Chemscore.Metal>
0.0000

> <Gold.Chemscore.Hbonds>
donor molecule, donor type, donor heavy atom, donor atom, acceptor molecule, acceptor atom, score
      L1  H    19    41       P1  7957  1.00
      L1  H    21    43       P1  7957  0.88
      P1  H  7997  8009       L1    11  0.57

> <Gold.PLP.Chemscore.Internal.Correction>
0.1046

> <Gold.Rescore>
     Score         DG    S(hbond)    S(metal)    S(lipo)     H(rot)  DE(clash)    DE(int)     intcor
     16.93     -18.21       2.95        0.00      95.90       3.27       0.50       0.78       ----

> <Gold.Chemscore.Fitness>
16.9330

> <Gold.Chemscore.DG>
-18.2092

> <Gold.Chemscore.ZeroCoef>
-5.4800

> <Gold.Chemscore.Hbond>
2.9546

> <Gold.Chemscore.Metal>
0.0000

> <Gold.Chemscore.Lipo>
95.9023

> <Gold.Chemscore.Internal_Hbond>
0.0000

> <Gold.Chemscore.DEClash>
0.4992

> <Gold.Chemscore.DEInternal>
0.7770

> <Gold.Chemscore.Rot>
3.2656

> <Gold.Chemscore.Internal.Correction>
   9.000000E+99

> <Gold.Chemscore.Hbonds>
donor molecule, donor type, donor heavy atom, donor atom, acceptor molecule, acceptor atom, score
      L1  H    19    41       P1  7957  1.00
      L1  H    21    43       P1  7957  0.86
      P1  H  7997  8009       L1    11  0.57

> <Gold.Chemscore.Hbond.Weighted>
-9.8685

> <Gold.Chemscore.Metal.Weighted>
-0.0000

> <Gold.Chemscore.Lipo.Weighted>
-11.2206

> <Gold.Chemscore.Internal_Hbond.Weighted>
0.0000

> <Gold.Chemscore.DEClash.Weighted>
0.4992

> <Gold.Chemscore.DEInternal.Weighted>
0.7770

> <Gold.Chemscore.Rot.Weighted>
8.3598

> <Gold.Chemscore.Internal.Correction.Weighted>
   9.000000E+99

> <Gold.Protein.RotatedTorsions>
[ 6907 6896 6895 6894 ] final -172.13 input  -60.11 | X-H torsion
[ 7974 7965 7964 7962 ] final   54.00 input  175.53 | X-H torsion
[ 8008 7997 7996 7995 ] final -175.28 input   59.86 | X-H torsion
[ 10167 10162 10161 10158 ] final -163.20 input  -65.29 | X-H torsion
[ 10718 10713 10712 10709 ] final  141.68 input   66.30 | X-H torsion
[ 10763 10752 10751 10750 ] final  108.79 input  -60.55 | X-H torsion
[ 11005 11000 10999 10996 ] final   -8.43 input  -57.11 | X-H torsion

> <Gold.Protein.ActiveResidues>
 VAL166  LYS551  ARG553  GLY616  TRP617  ASP618  TYR619  PRO620  LYS621  CYS622 
 ASP623  PHE694  ASN695  SER759  ASP760  ASP761  ALA762  ILE779  LEU786  VAL792 
 PHE793  MET794  SER795  GLU796  ALA797  LYS798  CYS799  TRP800  GLU811  SER814 

> <Gold.Protein.RotatedAtoms>
  151.5351  133.3442  159.2924 H   0  0  0  0  0  0  0  0  0  0  0  0  # atno 6907 bound_to 6896
  150.8570  134.7914  159.7064 H   0  0  0  0  0  0  0  0  0  0  0  0  # atno 6908 bound_to 6896
  152.4600  134.5213  159.9835 H   0  0  0  0  0  0  0  0  0  0  0  0  # atno 6909 bound_to 6896
  145.9654  139.4098  143.0222 H   0  0  0  0  0  0  0  0  0  0  0  0  # atno 7974 bound_to 7965
  155.9806  140.1181  157.0730 H   0  0  0  0  0  0  0  0  0  0  0  0  # atno 8008 bound_to 7997
  154.4182  140.1145  156.5498 H   0  0  0  0  0  0  0  0  0  0  0  0  # atno 8009 bound_to 7997
  155.6475  140.3473  155.4739 H   0  0  0  0  0  0  0  0  0  0  0  0  # atno 8010 bound_to 7997
  139.6338  144.0389  152.2037 H   0  0  0  0  0  0  0  0  0  0  0  0  # atno 10167 bound_to 10162
  157.3893  131.1002  151.0663 H   0  0  0  0  0  0  0  0  0  0  0  0  # atno 10718 bound_to 10713
  153.4256  135.3800  155.2139 H   0  0  0  0  0  0  0  0  0  0  0  0  # atno 10763 bound_to 10752
  154.8747  135.3828  154.4330 H   0  0  0  0  0  0  0  0  0  0  0  0  # atno 10764 bound_to 10752
  153.4856  135.7088  153.5976 H   0  0  0  0  0  0  0  0  0  0  0  0  # atno 10765 bound_to 10752
  140.7234  133.8809  155.8838 H   0  0  0  0  0  0  0  0  0  0  0  0  # atno 11005 bound_to 11000
  145.7981  140.9783  143.1013 LP  0  0  0  0  0  0  0  0  0  0  0  0  # atno 17320 bound_to 7965
  144.6824  139.9767  143.7483 LP  0  0  0  0  0  0  0  0  0  0  0  0  # atno 17321 bound_to 7965
  140.0061  144.6258  150.7687 LP  0  0  0  0  0  0  0  0  0  0  0  0  # atno 17342 bound_to 10162
  140.7454  143.2875  151.3423 LP  0  0  0  0  0  0  0  0  0  0  0  0  # atno 17343 bound_to 10162
  157.1702  130.6264  149.5638 LP  0  0  0  0  0  0  0  0  0  0  0  0  # atno 17370 bound_to 10713
  155.9794  130.4787  150.6714 LP  0  0  0  0  0  0  0  0  0  0  0  0  # atno 17371 bound_to 10713
  140.9983  134.1184  157.4342 LP  0  0  0  0  0  0  0  0  0  0  0  0  # atno 17394 bound_to 11000
  139.8843  135.0061  156.6357 LP  0  0  0  0  0  0  0  0  0  0  0  0  # atno 17395 bound_to 11000

$$$$
