AV-unprocessed.smi:1956|AV-procd|sdf|7901|dock3
  -GOLD-   2272010 53D 1   1.00000     0.00000
 Structure written by MMmdl.
 46 47  0  0  0  0  0  0  0  0  2 V2000
  151.9994  141.6054  159.0392 C   0  0  0  0  0  0  0  0  0  0  0  0
  152.6858  140.9923  157.9532 O   0  0  0  0  0  0  0  0  0  0  0  0
  151.9383  140.4602  156.9226 C   0  0  0  0  0  0  0  0  0  0  0  0
  150.5823  140.8271  156.8139 C   0  0  0  0  0  0  0  0  0  0  0  0
  149.8159  140.2879  155.7636 C   0  0  0  0  0  0  0  0  0  0  0  0
  150.4264  139.4079  154.8474 C   0  0  0  0  0  0  0  0  0  0  0  0
  149.6247  138.8640  153.8074 N   0  0  0  0  0  0  0  0  0  0  0  0
  148.3066  139.0252  153.5991 C   0  0  0  0  0  0  0  0  0  0  0  0
  147.5416  139.6585  154.3264 O   0  0  0  0  0  0  0  0  0  0  0  0
  147.9058  138.3810  152.4939 N   0  0  0  0  0  0  0  0  0  0  0  0
  146.5363  138.3594  151.9927 C   0  0  0  0  0  0  0  0  0  0  0  0
  145.6698  137.3405  152.7580 C   0  0  0  0  0  0  0  0  0  0  0  0
  146.1123  135.9406  152.5366 N   0  3  2  0  0  0  0  0  0  0  0  0
  145.6112  135.3902  151.2506 C   0  0  0  0  0  0  0  0  0  0  0  0
  146.2094  134.0027  150.9690 C   0  0  0  0  0  0  0  0  0  0  0  0
  145.9316  133.0362  152.1288 C   0  0  0  0  0  0  0  0  0  0  0  0
  146.3938  133.6286  153.4730 C   0  0  1  0  0  0  0  0  0  0  0  0
  147.9238  133.6168  153.6363 C   0  0  0  0  0  0  0  0  0  0  0  0
  145.7981  135.0368  153.6769 C   0  0  0  0  0  0  0  0  0  0  0  0
  151.7921  139.0906  155.0494 C   0  0  0  0  0  0  0  0  0  0  0  0
  152.5316  139.6025  156.0560 N   0  0  0  0  0  0  0  0  0  0  0  0
  152.7257  141.9665  159.7673 H   0  0  0  0  0  0  0  0  0  0  0  0
  151.3444  140.8979  159.5495 H   0  0  0  0  0  0  0  0  0  0  0  0
  151.4115  142.4616  158.7057 H   0  0  0  0  0  0  0  0  0  0  0  0
  150.1380  141.5087  157.5240 H   0  0  0  0  0  0  0  0  0  0  0  0
  148.7733  140.5528  155.6629 H   0  0  0  0  0  0  0  0  0  0  0  0
  150.1040  138.2422  153.1728 H   0  0  0  0  0  0  0  0  0  0  0  0
  148.5984  137.8801  151.9559 H   0  0  0  0  0  0  0  0  0  0  0  0
  146.0999  139.3579  152.0578 H   0  0  0  0  0  0  0  0  0  0  0  0
  146.5857  138.1123  150.9330 H   0  0  0  0  0  0  0  0  0  0  0  0
  145.6616  137.5622  153.8263 H   0  0  0  0  0  0  0  0  0  0  0  0
  144.6391  137.4425  152.4154 H   0  0  0  0  0  0  0  0  0  0  0  0
  144.5218  135.3332  151.2773 H   0  0  0  0  0  0  0  0  0  0  0  0
  145.8737  136.0616  150.4321 H   0  0  0  0  0  0  0  0  0  0  0  0
  145.7931  133.6004  150.0447 H   0  0  0  0  0  0  0  0  0  0  0  0
  147.2839  134.0908  150.8050 H   0  0  0  0  0  0  0  0  0  0  0  0
  144.8603  132.8356  152.1749 H   0  0  0  0  0  0  0  0  0  0  0  0
  146.4137  132.0753  151.9464 H   0  0  0  0  0  0  0  0  0  0  0  0
  145.9969  132.9892  154.2624 H   0  0  0  0  0  0  0  0  0  0  0  0
  148.4185  134.2471  152.8974 H   0  0  0  0  0  0  0  0  0  0  0  0
  148.3213  132.6071  153.5304 H   0  0  0  0  0  0  0  0  0  0  0  0
  148.2137  133.9797  154.6229 H   0  0  0  0  0  0  0  0  0  0  0  0
  146.1731  135.4505  154.6123 H   0  0  0  0  0  0  0  0  0  0  0  0
  144.7146  134.9660  153.7848 H   0  0  0  0  0  0  0  0  0  0  0  0
  152.3182  138.3959  154.4135 H   0  0  0  0  0  0  0  0  0  0  0  0
  147.1185  135.9717  152.4533 H   0  0  0  0  0  0  0  0  0  0  0  0
  1  2  1  0  0  0  0
  1 22  1  0  0  0  0
  1 23  1  0  0  0  0
  1 24  1  0  0  0  0
  2  3  1  0  0  0  0
  3 21  1  0  0  0  0
  3  4  2  0  0  0  0
  4  5  1  0  0  0  0
  4 25  1  0  0  0  0
  5  6  2  0  0  0  0
  5 26  1  0  0  0  0
  6  7  1  0  0  0  0
  6 20  1  0  0  0  0
  7  8  1  0  0  0  0
  7 27  1  0  0  0  0
  8  9  2  0  0  0  0
  8 10  1  0  0  0  0
 10 11  1  0  0  0  0
 10 28  1  0  0  0  0
 11 12  1  0  0  0  0
 11 29  1  0  0  0  0
 11 30  1  0  0  0  0
 12 13  1  0  0  0  0
 12 31  1  0  0  0  0
 12 32  1  0  0  0  0
 13 19  1  0  0  0  0
 13 14  1  0  0  0  0
 13 46  1  0  0  0  0
 14 15  1  0  0  0  0
 14 33  1  0  0  0  0
 14 34  1  0  0  0  0
 15 16  1  0  0  0  0
 15 35  1  0  0  0  0
 15 36  1  0  0  0  0
 16 17  1  0  0  0  0
 16 37  1  0  0  0  0
 16 38  1  0  0  0  0
 17 18  1  0  0  0  0
 17 19  1  0  0  0  0
 17 39  1  0  0  0  0
 18 40  1  0  0  0  0
 18 41  1  0  0  0  0
 18 42  1  0  0  0  0
 19 43  1  0  0  0  0
 19 44  1  0  0  0  0
 20 21  2  0  0  0  0
 20 45  1  0  0  0  0
M  CHG  1  13   1
M  END
> <s_m_source_file>
AV-unprocessed.smi

> <i_m_source_file_index>
1956

> <i_lp_mmshare_version>
43012

> <i_f3d_flags>
0

> <s_epik_input>
W0NIM11PYzFbY0hdW2NIXWMoW2NIXW4xKVtOSF1DKD1PKVtOSF1bQ0gyXVtDSDJdTjJbQ0gyXVtDSDJdW0NIMl1bQ0BASF0oW0NIM10pW0NIMl0y

> <s_epik_cmdline>
J2VwaWtfcHl0aG9uJywgJy1waCcsICc3LjAnLCAnLXRuJywgJzgnLCAnLW1hJywgJzIwMCcsICctbWV0YWxfYmluZGluZycsICctaW1hZScsICc8aW5maWxlLm1hZT4nLCAnLW9tYWUnLCAnPG91dGZpbGUubWFlPic=

> <r_lp_tautomer_probability>
1

> <r_epik_Ionization_Penalty>
0.00179545

> <r_epik_Ionization_Penalty_Charging>
0.00171832

> <r_epik_Ionization_Penalty_Neutral>
7.7124e-05

> <r_epik_State_Penalty>
0.0011618

> <r_epik_Charging_Adjusted_Penalty>
0.00288012

> <i_epik_Tot_Q>
1

> <i_epik_Tot_abs_Q>
1

> <r_epik_Metal_State_Penalty>
-0

> <b_epik_Metal_Only>
0

> <s_lp_Force_Field>
OPLS_2005

> <r_lp_Energy>
22.351

> <b_lp_Chiralities_Consistent>
1

> <s_lp_Variant>
AV-unprocessed.smi:1956-2

> <Gold.Version>
5.8.1

> <Gold.Id.Protein>
6NUR|6NUR_protein|mol2

> <Gold.PLP.Fitness>
44.8443

> <Gold.PLP.PLP>
-35.1782

> <Gold.PLP.part.hbond>
-5.8664

> <Gold.PLP.part.metal>
0.0000

> <Gold.PLP.part.buried>
-1.8572

> <Gold.PLP.part.nonpolar>
-27.3648

> <Gold.PLP.part.repulsive>
0.2802

> <Gold.PLP.ligand.clash>
0.0000

> <Gold.PLP.ligand.torsion>
0.6211

> <Gold.PLP.Chemscore.Hbond>
3.6240

> <Gold.PLP.Chemscore.CHOScore>
0.0000

> <Gold.PLP.Chemscore.Metal>
0.0000

> <Gold.Chemscore.Hbonds>
donor molecule, donor type, donor heavy atom, donor atom, acceptor molecule, acceptor atom, score
      L1  H    10    28       P1  7948  0.67
      L1  H    13    46       P1  7948  2.00
      P1  H  7997  8009       L1    21  1.00

> <Gold.PLP.Chemscore.Internal.Correction>
0.0362

> <Gold.Rescore>
     Score         DG    S(hbond)    S(metal)    S(lipo)     H(rot)  DE(clash)    DE(int)     intcor
     15.90     -18.34       2.57        0.00      73.85       1.71       0.31       2.13       ----

> <Gold.Chemscore.Fitness>
15.9011

> <Gold.Chemscore.DG>
-18.3360

> <Gold.Chemscore.ZeroCoef>
-5.4800

> <Gold.Chemscore.Hbond>
2.5733

> <Gold.Chemscore.Metal>
0.0000

> <Gold.Chemscore.Lipo>
73.8517

> <Gold.Chemscore.Internal_Hbond>
0.0000

> <Gold.Chemscore.DEClash>
0.3051

> <Gold.Chemscore.DEInternal>
2.1298

> <Gold.Chemscore.Rot>
1.7107

> <Gold.Chemscore.Internal.Correction>
   9.000000E+99

> <Gold.Chemscore.Hbonds>
donor molecule, donor type, donor heavy atom, donor atom, acceptor molecule, acceptor atom, score
      L1  H    10    28       P1  7948  0.66
      L1  H    13    46       P1  7948  0.99
      P1  H  7997  8009       L1    21  0.26

> <Gold.Chemscore.Hbond.Weighted>
-8.5948

> <Gold.Chemscore.Metal.Weighted>
-0.0000

> <Gold.Chemscore.Lipo.Weighted>
-8.6407

> <Gold.Chemscore.Internal_Hbond.Weighted>
0.0000

> <Gold.Chemscore.DEClash.Weighted>
0.3051

> <Gold.Chemscore.DEInternal.Weighted>
2.1298

> <Gold.Chemscore.Rot.Weighted>
4.3794

> <Gold.Chemscore.Internal.Correction.Weighted>
   9.000000E+99

> <Gold.Protein.RotatedTorsions>
[ 6907 6896 6895 6894 ] final   85.61 input  -60.11 | X-H torsion
[ 7974 7965 7964 7962 ] final  153.39 input  175.53 | X-H torsion
[ 8008 7997 7996 7995 ] final -155.72 input   59.86 | X-H torsion
[ 10167 10162 10161 10158 ] final   -2.58 input  -65.29 | X-H torsion
[ 10718 10713 10712 10709 ] final  -72.23 input   66.30 | X-H torsion
[ 10763 10752 10751 10750 ] final   -6.62 input  -60.55 | X-H torsion
[ 11005 11000 10999 10996 ] final   64.43 input  -57.11 | X-H torsion

> <Gold.Protein.ActiveResidues>
 VAL166  LYS551  ARG553  GLY616  TRP617  ASP618  TYR619  PRO620  LYS621  CYS622 
 ASP623  PHE694  ASN695  SER759  ASP760  ASP761  ALA762  ILE779  LEU786  VAL792 
 PHE793  MET794  SER795  GLU796  ALA797  LYS798  CYS799  TRP800  GLU811  SER814 

> <Gold.Protein.RotatedAtoms>
  152.5378  134.2560  159.8916 H   0  0  0  0  0  0  0  0  0  0  0  0  # atno 6907 bound_to 6896
  151.2521  133.4338  159.2619 H   0  0  0  0  0  0  0  0  0  0  0  0  # atno 6908 bound_to 6896
  151.0529  134.9699  159.8277 H   0  0  0  0  0  0  0  0  0  0  0  0  # atno 6909 bound_to 6896
  144.8158  139.6794  143.6122 H   0  0  0  0  0  0  0  0  0  0  0  0  # atno 7974 bound_to 7965
  155.7062  140.0773  157.2390 H   0  0  0  0  0  0  0  0  0  0  0  0  # atno 8008 bound_to 7997
  154.4065  140.1638  156.2299 H   0  0  0  0  0  0  0  0  0  0  0  0  # atno 8009 bound_to 7997
  155.9323  140.3390  155.6262 H   0  0  0  0  0  0  0  0  0  0  0  0  # atno 8010 bound_to 7997
  140.6856  143.6641  150.8241 H   0  0  0  0  0  0  0  0  0  0  0  0  # atno 10167 bound_to 10162
  156.0329  130.4368  150.2561 H   0  0  0  0  0  0  0  0  0  0  0  0  # atno 10718 bound_to 10713
  153.4149  135.7008  153.6334 H   0  0  0  0  0  0  0  0  0  0  0  0  # atno 10763 bound_to 10752
  153.4812  135.3693  155.2443 H   0  0  0  0  0  0  0  0  0  0  0  0  # atno 10764 bound_to 10752
  154.8719  135.4066  154.3507 H   0  0  0  0  0  0  0  0  0  0  0  0  # atno 10765 bound_to 10752
  139.9959  134.6518  156.0011 H   0  0  0  0  0  0  0  0  0  0  0  0  # atno 11005 bound_to 11000
  146.2460  139.6100  142.9459 LP  0  0  0  0  0  0  0  0  0  0  0  0  # atno 17320 bound_to 7965
  145.5219  141.0431  143.2431 LP  0  0  0  0  0  0  0  0  0  0  0  0  # atno 17321 bound_to 7965
  140.0347  143.5407  152.2744 LP  0  0  0  0  0  0  0  0  0  0  0  0  # atno 17342 bound_to 10162
  139.6213  144.7629  151.2735 LP  0  0  0  0  0  0  0  0  0  0  0  0  # atno 17343 bound_to 10162
  157.0662  131.0104  151.3206 LP  0  0  0  0  0  0  0  0  0  0  0  0  # atno 17370 bound_to 10713
  157.5033  130.7893  149.7628 LP  0  0  0  0  0  0  0  0  0  0  0  0  # atno 17371 bound_to 10713
  141.1604  133.6539  156.4300 LP  0  0  0  0  0  0  0  0  0  0  0  0  # atno 17394 bound_to 11000
  140.4819  134.6657  157.5174 LP  0  0  0  0  0  0  0  0  0  0  0  0  # atno 17395 bound_to 11000

$$$$
