AV-unprocessed.smi:467|AV-procd|sdf|2644|dock3
  -GOLD-   2262023 53D 1   1.00000     0.00000
 Structure written by MMmdl.
 44 46  0  0  0  0  0  0  0  0  1 V2000
  153.6167  142.9134  163.5295 C   0  0  0  0  0  0  0  0  0  0  0  0
  153.1083  142.6037  162.1325 C   0  0  0  0  0  0  0  0  0  0  0  0
  152.2139  143.5043  161.5110 C   0  0  0  0  0  0  0  0  0  0  0  0
  151.7233  143.2559  160.2102 C   0  0  0  0  0  0  0  0  0  0  0  0
  150.8579  143.9932  159.4198 N   0  0  0  0  0  0  0  0  0  0  0  0
  150.7926  143.2435  158.3232 C   0  0  0  0  0  0  0  0  0  0  0  0
  151.5124  142.1053  158.3101 N   0  0  0  0  0  0  0  0  0  0  0  0
  151.5956  141.1373  157.2305 C   0  0  0  0  0  0  0  0  0  0  0  0
  150.5112  141.3527  156.1574 C   0  0  1  0  0  0  0  0  0  0  0  0
  150.7902  140.5342  155.0383 O   0  0  0  0  0  0  0  0  0  0  0  0
  149.1110  140.9868  156.6885 C   0  0  0  0  0  0  0  0  0  0  0  0
  148.0024  141.7727  156.1430 N   0  0  0  0  0  0  0  0  0  0  0  0
  146.6995  141.3520  156.6562 C   0  0  0  0  0  0  0  0  0  0  0  0
  145.5500  142.1736  156.0461 C   0  0  0  0  0  0  0  0  0  0  0  0
  145.5922  142.0773  154.6264 O   0  0  0  0  0  0  0  0  0  0  0  0
  146.8304  142.5235  154.0836 C   0  0  0  0  0  0  0  0  0  0  0  0
  147.9813  141.6996  154.6857 C   0  0  0  0  0  0  0  0  0  0  0  0
  152.1507  142.0696  159.5453 C   0  0  0  0  0  0  0  0  0  0  0  0
  153.0379  141.1648  160.1543 C   0  0  0  0  0  0  0  0  0  0  0  0
  153.5236  141.4311  161.4515 C   0  0  0  0  0  0  0  0  0  0  0  0
  154.4906  140.4533  162.0950 C   0  0  0  0  0  0  0  0  0  0  0  0
  153.1595  143.8192  163.9283 H   0  0  0  0  0  0  0  0  0  0  0  0
  154.6970  143.0601  163.5172 H   0  0  0  0  0  0  0  0  0  0  0  0
  153.3859  142.0955  164.2120 H   0  0  0  0  0  0  0  0  0  0  0  0
  151.8987  144.3984  162.0283 H   0  0  0  0  0  0  0  0  0  0  0  0
  150.1865  143.5384  157.4790 H   0  0  0  0  0  0  0  0  0  0  0  0
  152.5914  141.1924  156.7882 H   0  0  0  0  0  0  0  0  0  0  0  0
  151.5029  140.1395  157.6616 H   0  0  0  0  0  0  0  0  0  0  0  0
  150.5449  142.3946  155.8412 H   0  0  0  0  0  0  0  0  0  0  0  0
  150.4559  139.6677  155.2139 H   0  0  0  0  0  0  0  0  0  0  0  0
  148.9388  139.9301  156.4775 H   0  0  0  0  0  0  0  0  0  0  0  0
  149.1066  141.0739  157.7762 H   0  0  0  0  0  0  0  0  0  0  0  0
  146.5405  140.2943  156.4412 H   0  0  0  0  0  0  0  0  0  0  0  0
  146.6614  141.4605  157.7391 H   0  0  0  0  0  0  0  0  0  0  0  0
  144.5885  141.8023  156.4006 H   0  0  0  0  0  0  0  0  0  0  0  0
  145.6209  143.2198  156.3485 H   0  0  0  0  0  0  0  0  0  0  0  0
  146.8076  142.4083  153.0000 H   0  0  0  0  0  0  0  0  0  0  0  0
  146.9657  143.5862  154.2913 H   0  0  0  0  0  0  0  0  0  0  0  0
  148.9286  142.0604  154.2829 H   0  0  0  0  0  0  0  0  0  0  0  0
  147.8836  140.6600  154.3683 H   0  0  0  0  0  0  0  0  0  0  0  0
  153.3471  140.2771  159.6223 H   0  0  0  0  0  0  0  0  0  0  0  0
  154.7192  139.6225  161.4267 H   0  0  0  0  0  0  0  0  0  0  0  0
  154.0653  140.0403  163.0098 H   0  0  0  0  0  0  0  0  0  0  0  0
  155.4289  140.9508  162.3415 H   0  0  0  0  0  0  0  0  0  0  0  0
  1  2  1  0  0  0  0
  1 22  1  0  0  0  0
  1 23  1  0  0  0  0
  1 24  1  0  0  0  0
  2 20  1  0  0  0  0
  2  3  2  0  0  0  0
  3  4  1  0  0  0  0
  3 25  1  0  0  0  0
  4 18  2  0  0  0  0
  4  5  1  0  0  0  0
  5  6  2  0  0  0  0
  6  7  1  0  0  0  0
  6 26  1  0  0  0  0
  7  8  1  0  0  0  0
  7 18  1  0  0  0  0
  8  9  1  0  0  0  0
  8 27  1  0  0  0  0
  8 28  1  0  0  0  0
  9 10  1  0  0  0  0
  9 11  1  0  0  0  0
  9 29  1  0  0  0  0
 10 30  1  0  0  0  0
 11 12  1  0  0  0  0
 11 31  1  0  0  0  0
 11 32  1  0  0  0  0
 12 17  1  0  0  0  0
 12 13  1  0  0  0  0
 13 14  1  0  0  0  0
 13 33  1  0  0  0  0
 13 34  1  0  0  0  0
 14 15  1  0  0  0  0
 14 35  1  0  0  0  0
 14 36  1  0  0  0  0
 15 16  1  0  0  0  0
 16 17  1  0  0  0  0
 16 37  1  0  0  0  0
 16 38  1  0  0  0  0
 17 39  1  0  0  0  0
 17 40  1  0  0  0  0
 18 19  1  0  0  0  0
 19 20  2  0  0  0  0
 19 41  1  0  0  0  0
 20 21  1  0  0  0  0
 21 42  1  0  0  0  0
 21 43  1  0  0  0  0
 21 44  1  0  0  0  0
M  END
> <s_m_source_file>
AV-unprocessed.smi

> <i_m_source_file_index>
467

> <i_lp_mmshare_version>
43012

> <i_f3d_flags>
0

> <s_epik_input>
W0NIM11jKFtjSF0xKWMoW0NIM10pW2NIXWMoYzEyKW4oW2NIXW4yKVtDSDJdW0NASF0oW09IXSlbQ0gyXU4zW0NIMl1bQ0gyXU9bQ0gyXVtDSDJdMw==

> <s_epik_cmdline>
J2VwaWtfcHl0aG9uJywgJy1waCcsICc3LjAnLCAnLXRuJywgJzgnLCAnLW1hJywgJzIwMCcsICctbWV0YWxfYmluZGluZycsICctaW1hZScsICc8aW5maWxlLm1hZT4nLCAnLW9tYWUnLCAnPG91dGZpbGUubWFlPic=

> <r_epik_Ionization_Penalty>
0.345029

> <r_epik_Ionization_Penalty_Charging>
0

> <r_epik_Ionization_Penalty_Neutral>
0.345029

> <r_epik_State_Penalty>
0.314465

> <r_epik_Charging_Adjusted_Penalty>
0.314465

> <i_epik_Tot_Q>
0

> <i_epik_Tot_abs_Q>
0

> <r_epik_Metal_State_Penalty>
0.239717

> <b_epik_Metal_Only>
0

> <s_lp_Force_Field>
OPLS_2005

> <r_lp_Energy>
29.8688

> <b_lp_Chiralities_Consistent>
1

> <s_lp_Variant>
AV-unprocessed.smi:467-2

> <Gold.Version>
5.8.1

> <Gold.Id.Protein>
6NUR|6NUR_protein|mol2

> <Gold.PLP.Fitness>
51.5592

> <Gold.PLP.PLP>
-46.7545

> <Gold.PLP.part.hbond>
-1.0000

> <Gold.PLP.part.metal>
0.0000

> <Gold.PLP.part.buried>
-7.0278

> <Gold.PLP.part.nonpolar>
-39.1708

> <Gold.PLP.part.repulsive>
0.6536

> <Gold.PLP.ligand.clash>
0.0000

> <Gold.PLP.ligand.torsion>
0.6213

> <Gold.PLP.Chemscore.Hbond>
1.0000

> <Gold.PLP.Chemscore.CHOScore>
1.0000

> <Gold.PLP.Chemscore.Metal>
0.0000

> <Gold.Chemscore.Hbonds>
donor molecule, donor type, donor heavy atom, donor atom, acceptor molecule, acceptor atom, score
      P1  H  7989  7998       L1    10  1.00
      L1  C     6    26       P1  8028  1.00

> <Gold.PLP.Chemscore.Internal.Correction>
0.0474

> <Gold.Rescore>
     Score         DG    S(hbond)    S(metal)    S(lipo)     H(rot)  DE(clash)    DE(int)     intcor
     16.75     -17.39       0.96        0.00     118.50       2.02       0.00       0.64       ----

> <Gold.Chemscore.Fitness>
16.7457

> <Gold.Chemscore.DG>
-17.3888

> <Gold.Chemscore.ZeroCoef>
-5.4800

> <Gold.Chemscore.Hbond>
0.9646

> <Gold.Chemscore.Metal>
0.0000

> <Gold.Chemscore.Lipo>
118.5038

> <Gold.Chemscore.Internal_Hbond>
0.0000

> <Gold.Chemscore.DEClash>
0.0048

> <Gold.Chemscore.DEInternal>
0.6383

> <Gold.Chemscore.Rot>
2.0227

> <Gold.Chemscore.Internal.Correction>
   9.000000E+99

> <Gold.Chemscore.Hbonds>
donor molecule, donor type, donor heavy atom, donor atom, acceptor molecule, acceptor atom, score
      P1  H  7989  7998       L1    10  0.93

> <Gold.Chemscore.Hbond.Weighted>
-3.2218

> <Gold.Chemscore.Metal.Weighted>
-0.0000

> <Gold.Chemscore.Lipo.Weighted>
-13.8649

> <Gold.Chemscore.Internal_Hbond.Weighted>
0.0000

> <Gold.Chemscore.DEClash.Weighted>
0.0048

> <Gold.Chemscore.DEInternal.Weighted>
0.6383

> <Gold.Chemscore.Rot.Weighted>
5.1780

> <Gold.Chemscore.Internal.Correction.Weighted>
   9.000000E+99

> <Gold.Protein.RotatedTorsions>
[ 6907 6896 6895 6894 ] final  110.96 input  -60.11 | X-H torsion
[ 7974 7965 7964 7962 ] final -153.30 input  175.53 | X-H torsion
[ 8008 7997 7996 7995 ] final  -25.45 input   59.86 | X-H torsion
[ 10167 10162 10161 10158 ] final   99.77 input  -65.29 | X-H torsion
[ 10718 10713 10712 10709 ] final  -80.08 input   66.30 | X-H torsion
[ 10763 10752 10751 10750 ] final  -20.65 input  -60.55 | X-H torsion
[ 11005 11000 10999 10996 ] final -128.92 input  -57.11 | X-H torsion

> <Gold.Protein.ActiveResidues>
 VAL166  LYS551  ARG553  GLY616  TRP617  ASP618  TYR619  PRO620  LYS621  CYS622 
 ASP623  PHE694  ASN695  SER759  ASP760  ASP761  ALA762  ILE779  LEU786  VAL792 
 PHE793  MET794  SER795  GLU796  ALA797  LYS798  CYS799  TRP800  GLU811  SER814 

> <Gold.Protein.RotatedAtoms>
  152.4993  133.8726  159.7305 H   0  0  0  0  0  0  0  0  0  0  0  0  # atno 6907 bound_to 6896
  150.9208  133.6873  159.2839 H   0  0  0  0  0  0  0  0  0  0  0  0  # atno 6908 bound_to 6896
  151.4251  135.1007  159.9678 H   0  0  0  0  0  0  0  0  0  0  0  0  # atno 6909 bound_to 6896
  144.7748  140.4545  143.5881 H   0  0  0  0  0  0  0  0  0  0  0  0  # atno 7974 bound_to 7965
  154.4475  140.1926  156.0622 H   0  0  0  0  0  0  0  0  0  0  0  0  # atno 8008 bound_to 7997
  156.0574  140.3301  155.7395 H   0  0  0  0  0  0  0  0  0  0  0  0  # atno 8009 bound_to 7997
  155.5464  140.0591  157.2850 H   0  0  0  0  0  0  0  0  0  0  0  0  # atno 8010 bound_to 7997
  139.7587  144.6961  151.0324 H   0  0  0  0  0  0  0  0  0  0  0  0  # atno 10167 bound_to 10162
  156.0078  130.4564  150.3746 H   0  0  0  0  0  0  0  0  0  0  0  0  # atno 10718 bound_to 10713
  153.6237  135.6992  153.5301 H   0  0  0  0  0  0  0  0  0  0  0  0  # atno 10763 bound_to 10752
  153.2916  135.4155  155.1171 H   0  0  0  0  0  0  0  0  0  0  0  0  # atno 10764 bound_to 10752
  154.8537  135.3627  154.5779 H   0  0  0  0  0  0  0  0  0  0  0  0  # atno 10765 bound_to 10752
  140.9475  134.1110  157.4093 H   0  0  0  0  0  0  0  0  0  0  0  0  # atno 11005 bound_to 11000
  145.6218  139.1525  143.3018 LP  0  0  0  0  0  0  0  0  0  0  0  0  # atno 17320 bound_to 7965
  146.1920  140.6327  142.9141 LP  0  0  0  0  0  0  0  0  0  0  0  0  # atno 17321 bound_to 7965
  140.7805  143.4722  151.0131 LP  0  0  0  0  0  0  0  0  0  0  0  0  # atno 17342 bound_to 10162
  139.8409  143.7565  152.3180 LP  0  0  0  0  0  0  0  0  0  0  0  0  # atno 17343 bound_to 10162
  157.1829  131.0396  151.2739 LP  0  0  0  0  0  0  0  0  0  0  0  0  # atno 17370 bound_to 10713
  157.4130  130.7395  149.6853 LP  0  0  0  0  0  0  0  0  0  0  0  0  # atno 17371 bound_to 10713
  139.8838  135.0056  156.6323 LP  0  0  0  0  0  0  0  0  0  0  0  0  # atno 17394 bound_to 11000
  140.7648  133.8787  155.8446 LP  0  0  0  0  0  0  0  0  0  0  0  0  # atno 17395 bound_to 11000

$$$$
