AV-unprocessed.smi:2713|AV-procd|sdf|10478|dock3
  -GOLD-   2272014523D 1   1.00000     0.00000
 Structure written by MMmdl.
 53 54  0  0  0  0  0  0  0  0  2 V2000
  150.6943  131.8409  154.0017 C   0  0  0  0  0  0  0  0  0  0  0  0
  150.8962  133.0226  154.9759 C   0  0  0  0  0  0  0  0  0  0  0  0
  149.8849  132.8310  156.1262 C   0  0  0  0  0  0  0  0  0  0  0  0
  152.3104  132.9519  155.5854 C   0  0  0  0  0  0  0  0  0  0  0  0
  150.5733  134.3985  154.3036 C   0  0  0  0  0  0  0  0  0  0  0  0
  150.2340  135.6768  155.1400 C   0  0  0  0  0  0  0  0  0  0  0  0
  148.8245  135.6178  155.7577 C   0  0  0  0  0  0  0  0  0  0  0  0
  151.2321  135.7583  156.3170 C   0  0  0  0  0  0  0  0  0  0  0  0
  150.3151  136.9250  154.3324 N   0  3  0  0  0  0  0  0  0  0  0  0
  151.6251  137.6083  154.2224 C   0  0  0  0  0  0  0  0  0  0  0  0
  151.6853  138.7810  155.1788 C   0  0  0  0  0  0  0  0  0  0  0  0
  152.8105  139.0212  155.9926 C   0  0  0  0  0  0  0  0  0  0  0  0
  152.8559  140.0647  156.8470 N   0  0  0  0  0  0  0  0  0  0  0  0
  151.7923  140.8788  156.9024 C   0  0  0  0  0  0  0  0  0  0  0  0
  151.8455  141.9585  157.7932 N   0  0  0  0  0  0  0  0  0  0  0  0
  150.6428  142.6973  158.1862 C   0  0  0  0  0  0  0  0  0  0  0  0
  150.9764  144.1679  158.4884 C   0  0  0  0  0  0  0  0  0  0  0  0
  152.0025  144.2374  159.4704 O   0  0  0  0  0  0  0  0  0  0  0  0
  153.2031  143.6275  159.0139 C   0  0  0  0  0  0  0  0  0  0  0  0
  152.9552  142.1356  158.7337 C   0  0  0  0  0  0  0  0  0  0  0  0
  150.6805  140.7339  156.1675 N   0  0  0  0  0  0  0  0  0  0  0  0
  150.6214  139.6963  155.3070 C   0  0  0  0  0  0  0  0  0  0  0  0
  150.7478  130.8873  154.5283 H   0  0  0  0  0  0  0  0  0  0  0  0
  151.4494  131.7970  153.2213 H   0  0  0  0  0  0  0  0  0  0  0  0
  149.7189  131.8845  153.5162 H   0  0  0  0  0  0  0  0  0  0  0  0
  148.8571  132.8601  155.7618 H   0  0  0  0  0  0  0  0  0  0  0  0
  149.9854  133.6095  156.8836 H   0  0  0  0  0  0  0  0  0  0  0  0
  150.0239  131.8733  156.6299 H   0  0  0  0  0  0  0  0  0  0  0  0
  152.4594  132.0133  156.1206 H   0  0  0  0  0  0  0  0  0  0  0  0
  152.4783  133.7574  156.2997 H   0  0  0  0  0  0  0  0  0  0  0  0
  153.0884  133.0040  154.8248 H   0  0  0  0  0  0  0  0  0  0  0  0
  151.4243  134.6425  153.6657 H   0  0  0  0  0  0  0  0  0  0  0  0
  149.7631  134.2478  153.5904 H   0  0  0  0  0  0  0  0  0  0  0  0
  148.6519  134.6732  156.2746 H   0  0  0  0  0  0  0  0  0  0  0  0
  148.0449  135.7459  155.0085 H   0  0  0  0  0  0  0  0  0  0  0  0
  148.6807  136.4166  156.4866 H   0  0  0  0  0  0  0  0  0  0  0  0
  151.0882  134.9308  157.0130 H   0  0  0  0  0  0  0  0  0  0  0  0
  151.1110  136.6827  156.8836 H   0  0  0  0  0  0  0  0  0  0  0  0
  152.2688  135.7085  155.9835 H   0  0  0  0  0  0  0  0  0  0  0  0
  150.0051  136.7020  153.3973 H   0  0  0  0  0  0  0  0  0  0  0  0
  152.4420  136.9269  154.4583 H   0  0  0  0  0  0  0  0  0  0  0  0
  151.7901  137.9768  153.2106 H   0  0  0  0  0  0  0  0  0  0  0  0
  153.6741  138.3734  155.9636 H   0  0  0  0  0  0  0  0  0  0  0  0
  149.8730  142.6740  157.4156 H   0  0  0  0  0  0  0  0  0  0  0  0
  150.2173  142.2218  159.0706 H   0  0  0  0  0  0  0  0  0  0  0  0
  151.2869  144.6907  157.5824 H   0  0  0  0  0  0  0  0  0  0  0  0
  150.0918  144.6825  158.8639 H   0  0  0  0  0  0  0  0  0  0  0  0
  153.5666  144.1367  158.1197 H   0  0  0  0  0  0  0  0  0  0  0  0
  153.9713  143.7423  159.7787 H   0  0  0  0  0  0  0  0  0  0  0  0
  152.7145  141.6150  159.6612 H   0  0  0  0  0  0  0  0  0  0  0  0
  153.8821  141.7023  158.3585 H   0  0  0  0  0  0  0  0  0  0  0  0
  149.7178  139.5948  154.7243 H   0  0  0  0  0  0  0  0  0  0  0  0
  149.6605  137.5842  154.7289 H   0  0  0  0  0  0  0  0  0  0  0  0
  1  2  1  0  0  0  0
  1 23  1  0  0  0  0
  1 24  1  0  0  0  0
  1 25  1  0  0  0  0
  2  3  1  0  0  0  0
  2  4  1  0  0  0  0
  2  5  1  0  0  0  0
  3 26  1  0  0  0  0
  3 27  1  0  0  0  0
  3 28  1  0  0  0  0
  4 29  1  0  0  0  0
  4 30  1  0  0  0  0
  4 31  1  0  0  0  0
  5  6  1  0  0  0  0
  5 32  1  0  0  0  0
  5 33  1  0  0  0  0
  6  7  1  0  0  0  0
  6  8  1  0  0  0  0
  6  9  1  0  0  0  0
  7 34  1  0  0  0  0
  7 35  1  0  0  0  0
  7 36  1  0  0  0  0
  8 37  1  0  0  0  0
  8 38  1  0  0  0  0
  8 39  1  0  0  0  0
  9 10  1  0  0  0  0
  9 40  1  0  0  0  0
  9 53  1  0  0  0  0
 10 11  1  0  0  0  0
 10 41  1  0  0  0  0
 10 42  1  0  0  0  0
 11 22  1  0  0  0  0
 11 12  2  0  0  0  0
 12 13  1  0  0  0  0
 12 43  1  0  0  0  0
 13 14  2  0  0  0  0
 14 15  1  0  0  0  0
 14 21  1  0  0  0  0
 15 20  1  0  0  0  0
 15 16  1  0  0  0  0
 16 17  1  0  0  0  0
 16 44  1  0  0  0  0
 16 45  1  0  0  0  0
 17 18  1  0  0  0  0
 17 46  1  0  0  0  0
 17 47  1  0  0  0  0
 18 19  1  0  0  0  0
 19 20  1  0  0  0  0
 19 48  1  0  0  0  0
 19 49  1  0  0  0  0
 20 50  1  0  0  0  0
 20 51  1  0  0  0  0
 21 22  2  0  0  0  0
 22 52  1  0  0  0  0
M  CHG  1   9   1
M  END
> <s_m_source_file>
AV-unprocessed.smi

> <i_m_source_file_index>
2713

> <i_lp_mmshare_version>
43012

> <i_f3d_flags>
0

> <s_epik_input>
W0NIM11DKFtDSDNdKShbQ0gzXSlbQ0gyXUMoW0NIM10pKFtDSDNdKVtOSF1bQ0gyXWMxW2NIXW5jKG5bY0hdMSlOMltDSDJdW0NIMl1PW0NIMl1bQ0gyXTI=

> <s_epik_cmdline>
J2VwaWtfcHl0aG9uJywgJy1waCcsICc3LjAnLCAnLXRuJywgJzgnLCAnLW1hJywgJzIwMCcsICctbWV0YWxfYmluZGluZycsICctaW1hZScsICc8aW5maWxlLm1hZT4nLCAnLW9tYWUnLCAnPG91dGZpbGUubWFlPic=

> <r_lp_tautomer_probability>
1

> <r_epik_Ionization_Penalty>
0.036663

> <r_epik_Ionization_Penalty_Charging>
0.0366608

> <r_epik_Ionization_Penalty_Neutral>
2.19352e-06

> <r_epik_State_Penalty>
0.0306388

> <r_epik_Charging_Adjusted_Penalty>
0.0672996

> <i_epik_Tot_Q>
1

> <i_epik_Tot_abs_Q>
1

> <r_epik_Metal_State_Penalty>
0.0306391

> <b_epik_Metal_Only>
0

> <s_lp_Force_Field>
OPLS_2005

> <r_lp_Energy>
26.4039

> <b_lp_Chiralities_Consistent>
1

> <s_lp_Variant>
AV-unprocessed.smi:2713-1

> <Gold.Version>
5.8.1

> <Gold.Id.Protein>
6NUR|6NUR_protein|mol2

> <Gold.PLP.Fitness>
44.7421

> <Gold.PLP.PLP>
-39.1366

> <Gold.PLP.part.hbond>
-2.2163

> <Gold.PLP.part.metal>
0.0000

> <Gold.PLP.part.buried>
-5.0615

> <Gold.PLP.part.nonpolar>
-31.5854

> <Gold.PLP.part.repulsive>
0.0826

> <Gold.PLP.ligand.clash>
0.0000

> <Gold.PLP.ligand.torsion>
1.4456

> <Gold.PLP.Chemscore.Hbond>
2.7168

> <Gold.PLP.Chemscore.CHOScore>
0.0000

> <Gold.PLP.Chemscore.Metal>
0.0000

> <Gold.Chemscore.Hbonds>
donor molecule, donor type, donor heavy atom, donor atom, acceptor molecule, acceptor atom, score
      L1  H     9    40       P1  7948  1.60
      P1  H  7997  8010       L1    13  0.48

> <Gold.PLP.Chemscore.Internal.Correction>
0.3462

> <Gold.Rescore>
     Score         DG    S(hbond)    S(metal)    S(lipo)     H(rot)  DE(clash)    DE(int)     intcor
     14.70     -16.95       1.10        0.00     100.14       1.53       0.01       2.24       ----

> <Gold.Chemscore.Fitness>
14.6980

> <Gold.Chemscore.DG>
-16.9538

> <Gold.Chemscore.ZeroCoef>
-5.4800

> <Gold.Chemscore.Hbond>
1.1027

> <Gold.Chemscore.Metal>
0.0000

> <Gold.Chemscore.Lipo>
100.1357

> <Gold.Chemscore.Internal_Hbond>
0.0000

> <Gold.Chemscore.DEClash>
0.0118

> <Gold.Chemscore.DEInternal>
2.2440

> <Gold.Chemscore.Rot>
1.5332

> <Gold.Chemscore.Internal.Correction>
   9.000000E+99

> <Gold.Chemscore.Hbonds>
donor molecule, donor type, donor heavy atom, donor atom, acceptor molecule, acceptor atom, score
      L1  H     9    40       P1  7948  0.12
      P1  H  7997  8010       L1    13  0.05

> <Gold.Chemscore.Hbond.Weighted>
-3.6830

> <Gold.Chemscore.Metal.Weighted>
-0.0000

> <Gold.Chemscore.Lipo.Weighted>
-11.7159

> <Gold.Chemscore.Internal_Hbond.Weighted>
0.0000

> <Gold.Chemscore.DEClash.Weighted>
0.0118

> <Gold.Chemscore.DEInternal.Weighted>
2.2440

> <Gold.Chemscore.Rot.Weighted>
3.9251

> <Gold.Chemscore.Internal.Correction.Weighted>
   9.000000E+99

> <Gold.Protein.RotatedTorsions>
[ 6907 6896 6895 6894 ] final  157.43 input  -60.11 | X-H torsion
[ 7974 7965 7964 7962 ] final  153.44 input  175.53 | X-H torsion
[ 8008 7997 7996 7995 ] final   38.92 input   59.86 | X-H torsion
[ 10167 10162 10161 10158 ] final   36.78 input  -65.29 | X-H torsion
[ 10718 10713 10712 10709 ] final   38.44 input   66.30 | X-H torsion
[ 10763 10752 10751 10750 ] final  -58.81 input  -60.55 | X-H torsion
[ 11005 11000 10999 10996 ] final   51.10 input  -57.11 | X-H torsion

> <Gold.Protein.ActiveResidues>
 VAL166  LYS551  ARG553  GLY616  TRP617  ASP618  TYR619  PRO620  LYS621  CYS622 
 ASP623  PHE694  ASN695  SER759  ASP760  ASP761  ALA762  ILE779  LEU786  VAL792 
 PHE793  MET794  SER795  GLU796  ALA797  LYS798  CYS799  TRP800  GLU811  SER814 

> <Gold.Protein.RotatedAtoms>
  152.0153  133.3877  159.4235 H   0  0  0  0  0  0  0  0  0  0  0  0  # atno 6907 bound_to 6896
  150.6895  134.3686  159.4991 H   0  0  0  0  0  0  0  0  0  0  0  0  # atno 6908 bound_to 6896
  152.1452  134.9031  160.0602 H   0  0  0  0  0  0  0  0  0  0  0  0  # atno 6909 bound_to 6896
  144.8154  139.6801  143.6123 H   0  0  0  0  0  0  0  0  0  0  0  0  # atno 7974 bound_to 7965
  155.2282  140.3336  155.4307 H   0  0  0  0  0  0  0  0  0  0  0  0  # atno 8008 bound_to 7997
  156.2306  140.1849  156.7299 H   0  0  0  0  0  0  0  0  0  0  0  0  # atno 8009 bound_to 7997
  154.5971  140.0629  156.9304 H   0  0  0  0  0  0  0  0  0  0  0  0  # atno 8010 bound_to 7997
  140.4095  144.1612  150.6138 H   0  0  0  0  0  0  0  0  0  0  0  0  # atno 10167 bound_to 10162
  157.3589  130.7639  149.7033 H   0  0  0  0  0  0  0  0  0  0  0  0  # atno 10718 bound_to 10713
  154.2440  135.6338  153.5217 H   0  0  0  0  0  0  0  0  0  0  0  0  # atno 10763 bound_to 10752
  152.9925  135.5549  154.5880 H   0  0  0  0  0  0  0  0  0  0  0  0  # atno 10764 bound_to 10752
  154.5392  135.2893  155.1086 H   0  0  0  0  0  0  0  0  0  0  0  0  # atno 10765 bound_to 10752
  140.0961  134.5144  155.8806 H   0  0  0  0  0  0  0  0  0  0  0  0  # atno 11005 bound_to 11000
  146.2457  139.6093  142.9461 LP  0  0  0  0  0  0  0  0  0  0  0  0  # atno 17320 bound_to 7965
  145.5226  141.0431  143.2427 LP  0  0  0  0  0  0  0  0  0  0  0  0  # atno 17321 bound_to 7965
  140.4653  143.2433  151.9164 LP  0  0  0  0  0  0  0  0  0  0  0  0  # atno 17342 bound_to 10162
  139.4783  144.5426  151.8506 LP  0  0  0  0  0  0  0  0  0  0  0  0  # atno 17343 bound_to 10162
  155.9734  130.4119  150.4006 LP  0  0  0  0  0  0  0  0  0  0  0  0  # atno 17370 bound_to 10713
  157.2081  131.0454  151.2614 LP  0  0  0  0  0  0  0  0  0  0  0  0  # atno 17371 bound_to 10713
  141.2092  133.6682  156.6425 LP  0  0  0  0  0  0  0  0  0  0  0  0  # atno 17394 bound_to 11000
  140.3285  134.7949  157.4307 LP  0  0  0  0  0  0  0  0  0  0  0  0  # atno 17395 bound_to 11000

$$$$
