AV-unprocessed.smi:1133|AV-procd|sdf|4856|dock10
  -GOLD-   22720 3423D 1   1.00000     0.00000
 Structure written by MMmdl.
 41 42  0  0  0  0  0  0  0  0  1 V2000
  151.7662  138.4720  159.0158 C   0  0  0  0  0  0  0  0  0  0  0  0
  152.1801  138.9081  157.6084 C   0  0  0  0  0  0  0  0  0  0  0  0
  153.3291  138.6619  157.2412 O   0  0  0  0  0  0  0  0  0  0  0  0
  151.2783  139.5392  156.8184 N   0  0  0  0  0  0  0  0  0  0  0  0
  151.5645  139.9118  155.4282 C   0  0  0  0  0  0  0  0  0  0  0  0
  150.7523  138.9973  154.4933 C   0  0  0  0  0  0  0  0  0  0  0  0
  149.2430  139.0626  154.8129 C   0  0  0  0  0  0  0  0  0  0  0  0
  148.5337  138.0468  154.0412 N   0  0  0  0  0  0  0  0  0  0  0  0
  147.2107  137.8347  154.0779 C   0  0  0  0  0  0  0  0  0  0  0  0
  146.4249  138.4886  154.7641 O   0  0  0  0  0  0  0  0  0  0  0  0
  146.8468  136.8179  153.2841 N   0  0  0  0  0  0  0  0  0  0  0  0
  145.4801  136.3372  153.1204 C   0  0  0  0  0  0  0  0  0  0  0  0
  145.0853  136.2456  151.6369 C   0  0  0  0  0  0  0  0  0  0  0  0
  145.3086  134.9150  151.1100 N   0  0  0  0  0  0  0  0  0  0  0  0
  146.4899  134.1862  151.1453 C   0  0  0  0  0  0  0  0  0  0  0  0
  146.2281  132.9845  150.5267 C   0  0  0  0  0  0  0  0  0  0  0  0
  144.9012  132.9537  150.1040 N   0  0  0  0  0  0  0  0  0  0  0  0
  144.4205  134.1306  150.4841 C   0  0  0  0  0  0  0  0  0  0  0  0
  148.9766  138.8785  156.3253 C   0  0  0  0  0  0  0  0  0  0  0  0
  149.8766  139.7993  157.1683 C   0  0  0  0  0  0  0  0  0  0  0  0
  150.9118  137.7954  158.9762 H   0  0  0  0  0  0  0  0  0  0  0  0
  151.5075  139.3363  159.6279 H   0  0  0  0  0  0  0  0  0  0  0  0
  152.5832  137.9462  159.5111 H   0  0  0  0  0  0  0  0  0  0  0  0
  151.2873  140.9548  155.2677 H   0  0  0  0  0  0  0  0  0  0  0  0
  152.6252  139.8461  155.1827 H   0  0  0  0  0  0  0  0  0  0  0  0
  150.9278  139.2781  153.4542 H   0  0  0  0  0  0  0  0  0  0  0  0
  151.1101  137.9721  154.6016 H   0  0  0  0  0  0  0  0  0  0  0  0
  148.8862  140.0515  154.5180 H   0  0  0  0  0  0  0  0  0  0  0  0
  149.0937  137.4556  153.4447 H   0  0  0  0  0  0  0  0  0  0  0  0
  147.5649  136.3401  152.7595 H   0  0  0  0  0  0  0  0  0  0  0  0
  145.3665  135.3678  153.6091 H   0  0  0  0  0  0  0  0  0  0  0  0
  144.8145  137.0270  153.6401 H   0  0  0  0  0  0  0  0  0  0  0  0
  144.0327  136.5001  151.5051 H   0  0  0  0  0  0  0  0  0  0  0  0
  145.6603  136.9527  151.0373 H   0  0  0  0  0  0  0  0  0  0  0  0
  147.3931  134.5718  151.5947 H   0  0  0  0  0  0  0  0  0  0  0  0
  146.8874  132.1468  150.3537 H   0  0  0  0  0  0  0  0  0  0  0  0
  143.3988  134.4303  150.3013 H   0  0  0  0  0  0  0  0  0  0  0  0
  147.9284  139.0784  156.5504 H   0  0  0  0  0  0  0  0  0  0  0  0
  149.1613  137.8415  156.6104 H   0  0  0  0  0  0  0  0  0  0  0  0
  149.6577  139.6651  158.2266 H   0  0  0  0  0  0  0  0  0  0  0  0
  149.6425  140.8434  156.9553 H   0  0  0  0  0  0  0  0  0  0  0  0
  1  2  1  0  0  0  0
  1 21  1  0  0  0  0
  1 22  1  0  0  0  0
  1 23  1  0  0  0  0
  2  3  2  0  0  0  0
  2  4  1  0  0  0  0
  4 20  1  0  0  0  0
  4  5  1  0  0  0  0
  5  6  1  0  0  0  0
  5 24  1  0  0  0  0
  5 25  1  0  0  0  0
  6  7  1  0  0  0  0
  6 26  1  0  0  0  0
  6 27  1  0  0  0  0
  7  8  1  0  0  0  0
  7 19  1  0  0  0  0
  7 28  1  0  0  0  0
  8  9  1  0  0  0  0
  8 29  1  0  0  0  0
  9 10  2  0  0  0  0
  9 11  1  0  0  0  0
 11 12  1  0  0  0  0
 11 30  1  0  0  0  0
 12 13  1  0  0  0  0
 12 31  1  0  0  0  0
 12 32  1  0  0  0  0
 13 14  1  0  0  0  0
 13 33  1  0  0  0  0
 13 34  1  0  0  0  0
 14 18  1  0  0  0  0
 14 15  1  0  0  0  0
 15 16  2  0  0  0  0
 15 35  1  0  0  0  0
 16 17  1  0  0  0  0
 16 36  1  0  0  0  0
 17 18  2  0  0  0  0
 18 37  1  0  0  0  0
 19 20  1  0  0  0  0
 19 38  1  0  0  0  0
 19 39  1  0  0  0  0
 20 40  1  0  0  0  0
 20 41  1  0  0  0  0
M  END
> <s_m_source_file>
AV-unprocessed.smi

> <i_m_source_file_index>
1133

> <i_lp_mmshare_version>
43012

> <i_f3d_flags>
0

> <s_epik_input>
W0NIM11DKD1PKU4xW0NIMl1bQ0gyXVtDSF0oW0NIMl1bQ0gyXTEpW05IXUMoPU8pW05IXVtDSDJdW0NIMl1uMltjSF1bY0hdbltjSF0y

> <s_epik_cmdline>
J2VwaWtfcHl0aG9uJywgJy1waCcsICc3LjAnLCAnLXRuJywgJzgnLCAnLW1hJywgJzIwMCcsICctbWV0YWxfYmluZGluZycsICctaW1hZScsICc8aW5maWxlLm1hZT4nLCAnLW9tYWUnLCAnPG91dGZpbGUubWFlPic=

> <r_lp_tautomer_probability>
1

> <r_epik_Ionization_Penalty>
0.622276

> <r_epik_Ionization_Penalty_Charging>
0.622222

> <r_epik_Ionization_Penalty_Neutral>
5.3634e-05

> <r_epik_State_Penalty>
0.638348

> <r_epik_Charging_Adjusted_Penalty>
1.26057

> <i_epik_Tot_Q>
0

> <i_epik_Tot_abs_Q>
0

> <r_epik_Metal_State_Penalty>
0.307013

> <b_epik_Metal_Only>
0

> <s_lp_Force_Field>
OPLS_2005

> <r_lp_Energy>
21.3303

> <b_lp_Chiralities_Consistent>
1

> <s_lp_Variant>
AV-unprocessed.smi:1133-2

> <Gold.Version>
5.8.1

> <Gold.Id.Protein>
6NUR|6NUR_protein|mol2

> <Gold.PLP.Fitness>
45.4439

> <Gold.PLP.PLP>
-28.3918

> <Gold.PLP.part.hbond>
-3.0000

> <Gold.PLP.part.metal>
0.0000

> <Gold.PLP.part.buried>
-2.5476

> <Gold.PLP.part.nonpolar>
-21.7426

> <Gold.PLP.part.repulsive>
0.2332

> <Gold.PLP.ligand.clash>
0.0000

> <Gold.PLP.ligand.torsion>
0.3076

> <Gold.PLP.Chemscore.Hbond>
2.8800

> <Gold.PLP.Chemscore.CHOScore>
3.0000

> <Gold.PLP.Chemscore.Metal>
0.0000

> <Gold.Chemscore.Hbonds>
donor molecule, donor type, donor heavy atom, donor atom, acceptor molecule, acceptor atom, score
      L1  H     8    29       P1  7948  0.86
      L1  H    11    30       P1  7948  1.00
      P1  H  7997  8010       L1     3  1.00
      L1  C    15    35       P1  7948  1.00
      L1  C    16    36       P1 10747  1.00
      L1  C    18    37       P1 10186  1.00

> <Gold.PLP.Chemscore.Internal.Correction>
0.0273

> <Gold.Rescore>
     Score         DG    S(hbond)    S(metal)    S(lipo)     H(rot)  DE(clash)    DE(int)     intcor
     15.24     -15.63       2.78        0.00      51.47       2.01       0.01       0.38       ----

> <Gold.Chemscore.Fitness>
15.2372

> <Gold.Chemscore.DG>
-15.6322

> <Gold.Chemscore.ZeroCoef>
-5.4800

> <Gold.Chemscore.Hbond>
2.7788

> <Gold.Chemscore.Metal>
0.0000

> <Gold.Chemscore.Lipo>
51.4655

> <Gold.Chemscore.Internal_Hbond>
0.0000

> <Gold.Chemscore.DEClash>
0.0137

> <Gold.Chemscore.DEInternal>
0.3813

> <Gold.Chemscore.Rot>
2.0119

> <Gold.Chemscore.Internal.Correction>
   9.000000E+99

> <Gold.Chemscore.Hbonds>
donor molecule, donor type, donor heavy atom, donor atom, acceptor molecule, acceptor atom, score
      L1  H     8    29       P1  7948  0.83
      L1  H    11    30       P1  7948  0.98
      P1  H  7997  8010       L1     3  0.92

> <Gold.Chemscore.Hbond.Weighted>
-9.2811

> <Gold.Chemscore.Metal.Weighted>
-0.0000

> <Gold.Chemscore.Lipo.Weighted>
-6.0215

> <Gold.Chemscore.Internal_Hbond.Weighted>
0.0000

> <Gold.Chemscore.DEClash.Weighted>
0.0137

> <Gold.Chemscore.DEInternal.Weighted>
0.3813

> <Gold.Chemscore.Rot.Weighted>
5.1503

> <Gold.Chemscore.Internal.Correction.Weighted>
   9.000000E+99

> <Gold.Protein.RotatedTorsions>
[ 6907 6896 6895 6894 ] final  -59.78 input  -60.11 | X-H torsion
[ 7974 7965 7964 7962 ] final  140.22 input  175.53 | X-H torsion
[ 8008 7997 7996 7995 ] final   62.05 input   59.86 | X-H torsion
[ 10167 10162 10161 10158 ] final  -68.74 input  -65.29 | X-H torsion
[ 10718 10713 10712 10709 ] final  167.84 input   66.30 | X-H torsion
[ 10763 10752 10751 10750 ] final -119.93 input  -60.55 | X-H torsion
[ 11005 11000 10999 10996 ] final  -10.24 input  -57.11 | X-H torsion

> <Gold.Protein.ActiveResidues>
 VAL166  LYS551  ARG553  GLY616  TRP617  ASP618  TYR619  PRO620  LYS621  CYS622 
 ASP623  PHE694  ASN695  SER759  ASP760  ASP761  ALA762  ILE779  LEU786  VAL792 
 PHE793  MET794  SER795  GLU796  ALA797  LYS798  CYS799  TRP800  GLU811  SER814 

> <Gold.Protein.RotatedAtoms>
  150.7905  134.6924  159.6503 H   0  0  0  0  0  0  0  0  0  0  0  0  # atno 6907 bound_to 6896
  152.4009  134.6284  160.0079 H   0  0  0  0  0  0  0  0  0  0  0  0  # atno 6908 bound_to 6896
  151.6555  133.3282  159.3198 H   0  0  0  0  0  0  0  0  0  0  0  0  # atno 6909 bound_to 6896
  144.9206  139.5172  143.5665 H   0  0  0  0  0  0  0  0  0  0  0  0  # atno 7974 bound_to 7965
  155.6082  140.3494  155.4614 H   0  0  0  0  0  0  0  0  0  0  0  0  # atno 8008 bound_to 7997
  156.0175  140.1246  157.0415 H   0  0  0  0  0  0  0  0  0  0  0  0  # atno 8009 bound_to 7997
  154.4303  140.1069  156.5903 H   0  0  0  0  0  0  0  0  0  0  0  0  # atno 8010 bound_to 7997
  140.5484  143.2312  151.6957 H   0  0  0  0  0  0  0  0  0  0  0  0  # atno 10167 bound_to 10162
  157.0458  131.0299  151.2698 H   0  0  0  0  0  0  0  0  0  0  0  0  # atno 10718 bound_to 10713
  154.8631  135.4221  154.2378 H   0  0  0  0  0  0  0  0  0  0  0  0  # atno 10763 bound_to 10752
  153.3349  135.6990  153.6921 H   0  0  0  0  0  0  0  0  0  0  0  0  # atno 10764 bound_to 10752
  153.5923  135.3552  155.2888 H   0  0  0  0  0  0  0  0  0  0  0  0  # atno 10765 bound_to 10752
  140.7427  133.8657  155.8980 H   0  0  0  0  0  0  0  0  0  0  0  0  # atno 11005 bound_to 11000
  146.3203  139.8083  142.8951 LP  0  0  0  0  0  0  0  0  0  0  0  0  # atno 17320 bound_to 7965
  145.3302  141.0265  143.3451 LP  0  0  0  0  0  0  0  0  0  0  0  0  # atno 17321 bound_to 7965
  139.5017  144.3857  152.0331 LP  0  0  0  0  0  0  0  0  0  0  0  0  # atno 17342 bound_to 10162
  140.2972  144.3687  150.6071 LP  0  0  0  0  0  0  0  0  0  0  0  0  # atno 17343 bound_to 10162
  157.5069  130.7914  149.7663 LP  0  0  0  0  0  0  0  0  0  0  0  0  # atno 17370 bound_to 10713
  156.0023  130.3873  150.2558 LP  0  0  0  0  0  0  0  0  0  0  0  0  # atno 17371 bound_to 10713
  140.9822  134.1390  157.4484 LP  0  0  0  0  0  0  0  0  0  0  0  0  # atno 17394 bound_to 11000
  139.8803  135.0014  156.6066 LP  0  0  0  0  0  0  0  0  0  0  0  0  # atno 17395 bound_to 11000

$$$$
