AV-unprocessed.smi:1372|AV-procd|sdf|5584|dock3
  -GOLD-   22720 5183D 1   1.00000     0.00000
 Structure written by MMmdl.
 42 44  0  0  0  0  0  0  0  0  2 V2000
  150.1230  137.8132  156.9251 C   0  0  0  0  0  0  0  0  0  0  0  0
  151.7396  137.2279  156.2727 S   0  0  0  0  0  0  0  0  0  0  0  0
  152.8119  137.7782  157.1157 O   0  0  0  0  0  0  0  0  0  0  0  0
  151.6582  135.7745  156.0607 O   0  0  0  0  0  0  0  0  0  0  0  0
  151.8078  138.0532  154.6246 C   0  0  0  0  0  0  0  0  0  0  0  0
  150.5889  138.8962  154.4160 C   0  0  0  0  0  0  0  0  0  0  0  0
  149.5099  138.5668  153.6492 N   0  3  0  0  0  0  0  0  0  0  0  0
  148.5748  139.6013  153.6747 C   0  0  0  0  0  0  0  0  0  0  0  0
  147.3391  139.7285  153.0481 C   0  0  0  0  0  0  0  0  0  0  0  0
  146.6318  140.9263  153.2817 C   0  0  0  0  0  0  0  0  0  0  0  0
  147.1572  141.9396  154.1096 C   0  0  0  0  0  0  0  0  0  0  0  0
  148.4110  141.7983  154.7404 C   0  0  0  0  0  0  0  0  0  0  0  0
  149.1027  140.6102  154.5054 C   0  0  0  0  0  0  0  0  0  0  0  0
  150.3396  140.1287  154.9490 N   0  0  0  0  0  0  0  0  0  0  0  0
  151.1457  140.9646  155.8534 C   0  0  0  0  0  0  0  0  0  0  0  0
  150.7708  140.7753  157.3366 C   0  0  2  0  0  0  0  0  0  0  0  0
  149.3658  140.8354  157.4866 O   0  0  0  0  0  0  0  0  0  0  0  0
  151.4845  141.7863  158.2190 C   0  0  0  0  0  0  0  0  0  0  0  0
  151.3471  143.1674  157.9634 C   0  0  0  0  0  0  0  0  0  0  0  0
  151.9990  144.1092  158.7831 C   0  0  0  0  0  0  0  0  0  0  0  0
  152.7901  143.6756  159.8640 C   0  0  0  0  0  0  0  0  0  0  0  0
  152.9290  142.2992  160.1255 C   0  0  0  0  0  0  0  0  0  0  0  0
  152.2775  141.3570  159.3062 C   0  0  0  0  0  0  0  0  0  0  0  0
  149.9566  137.3868  157.9143 H   0  0  0  0  0  0  0  0  0  0  0  0
  149.3218  137.4982  156.2568 H   0  0  0  0  0  0  0  0  0  0  0  0
  150.1302  138.9005  156.9983 H   0  0  0  0  0  0  0  0  0  0  0  0
  152.7047  138.6703  154.5730 H   0  0  0  0  0  0  0  0  0  0  0  0
  151.8790  137.2801  153.8607 H   0  0  0  0  0  0  0  0  0  0  0  0
  146.9360  138.9544  152.4116 H   0  0  0  0  0  0  0  0  0  0  0  0
  145.6680  141.0710  152.8154 H   0  0  0  0  0  0  0  0  0  0  0  0
  146.5875  142.8445  154.2642 H   0  0  0  0  0  0  0  0  0  0  0  0
  148.8052  142.5818  155.3706 H   0  0  0  0  0  0  0  0  0  0  0  0
  152.1992  140.7361  155.6889 H   0  0  0  0  0  0  0  0  0  0  0  0
  151.0176  142.0047  155.5531 H   0  0  0  0  0  0  0  0  0  0  0  0
  151.0728  139.7751  157.6500 H   0  0  0  0  0  0  0  0  0  0  0  0
  149.1616  141.4869  158.1402 H   0  0  0  0  0  0  0  0  0  0  0  0
  150.7403  143.5109  157.1387 H   0  0  0  0  0  0  0  0  0  0  0  0
  151.8917  145.1651  158.5828 H   0  0  0  0  0  0  0  0  0  0  0  0
  153.2896  144.3981  160.4926 H   0  0  0  0  0  0  0  0  0  0  0  0
  153.5344  141.9662  160.9553 H   0  0  0  0  0  0  0  0  0  0  0  0
  152.3868  140.3031  159.5166 H   0  0  0  0  0  0  0  0  0  0  0  0
  149.4295  137.6998  153.1327 H   0  0  0  0  0  0  0  0  0  0  0  0
  1  2  1  0  0  0  0
  1 24  1  0  0  0  0
  1 25  1  0  0  0  0
  1 26  1  0  0  0  0
  2  3  2  0  0  0  0
  2  4  2  0  0  0  0
  2  5  1  0  0  0  0
  5  6  1  0  0  0  0
  5 27  1  0  0  0  0
  5 28  1  0  0  0  0
  6 14  1  0  0  0  0
  6  7  2  0  0  0  0
  7  8  1  0  0  0  0
  7 42  1  0  0  0  0
  8 13  2  0  0  0  0
  8  9  1  0  0  0  0
  9 10  2  0  0  0  0
  9 29  1  0  0  0  0
 10 11  1  0  0  0  0
 10 30  1  0  0  0  0
 11 12  2  0  0  0  0
 11 31  1  0  0  0  0
 12 13  1  0  0  0  0
 12 32  1  0  0  0  0
 13 14  1  0  0  0  0
 14 15  1  0  0  0  0
 15 16  1  0  0  0  0
 15 33  1  0  0  0  0
 15 34  1  0  0  0  0
 16 17  1  0  0  0  0
 16 18  1  0  0  0  0
 16 35  1  0  0  0  0
 17 36  1  0  0  0  0
 18 23  1  0  0  0  0
 18 19  2  0  0  0  0
 19 20  1  0  0  0  0
 19 37  1  0  0  0  0
 20 21  2  0  0  0  0
 20 38  1  0  0  0  0
 21 22  1  0  0  0  0
 21 39  1  0  0  0  0
 22 23  2  0  0  0  0
 22 40  1  0  0  0  0
 23 41  1  0  0  0  0
M  CHG  1   7   1
M  END
> <s_m_source_file>
AV-unprocessed.smi

> <i_m_source_file_index>
1372

> <i_lp_mmshare_version>
43012

> <i_f3d_flags>
0

> <s_epik_input>
W2NIXTFbY0hdW2NIXVtjSF1jKGMxMiluKGMobjIpW0NIMl1TKD1PKSg9TylbQ0gzXSlbQ0gyXVtDQEhdKFtPSF0pYzNbY0hdW2NIXVtjSF1bY0hdW2NIXTM=

> <s_epik_cmdline>
J2VwaWtfcHl0aG9uJywgJy1waCcsICc3LjAnLCAnLXRuJywgJzgnLCAnLW1hJywgJzIwMCcsICctbWV0YWxfYmluZGluZycsICctaW1hZScsICc8aW5maWxlLm1hZT4nLCAnLW9tYWUnLCAnPG91dGZpbGUubWFlPic=

> <r_epik_Ionization_Penalty>
2.1801

> <r_epik_Ionization_Penalty_Charging>
2.1801

> <r_epik_Ionization_Penalty_Neutral>
1.34362e-06

> <r_epik_State_Penalty>
2.32206

> <r_epik_Charging_Adjusted_Penalty>
4.50216

> <i_epik_Tot_Q>
1

> <i_epik_Tot_abs_Q>
1

> <r_epik_Metal_State_Penalty>
6.40294

> <b_epik_Metal_Only>
0

> <s_lp_Force_Field>
OPLS_2005

> <r_lp_Energy>
10.6003

> <b_lp_Chiralities_Consistent>
1

> <s_lp_Variant>
AV-unprocessed.smi:1372-3

> <Gold.Version>
5.8.1

> <Gold.Id.Protein>
6NUR|6NUR_protein|mol2

> <Gold.PLP.Fitness>
55.2160

> <Gold.PLP.PLP>
-47.5982

> <Gold.PLP.part.hbond>
-3.0000

> <Gold.PLP.part.metal>
0.0000

> <Gold.PLP.part.buried>
2.1777

> <Gold.PLP.part.nonpolar>
-46.8998

> <Gold.PLP.part.repulsive>
0.0764

> <Gold.PLP.ligand.clash>
0.0000

> <Gold.PLP.ligand.torsion>
0.7614

> <Gold.PLP.Chemscore.Hbond>
3.0000

> <Gold.PLP.Chemscore.CHOScore>
0.0000

> <Gold.PLP.Chemscore.Metal>
0.0000

> <Gold.Chemscore.Hbonds>
donor molecule, donor type, donor heavy atom, donor atom, acceptor molecule, acceptor atom, score
      L1  H     7    42       P1  7948  2.00
      P1  H 10752 10764       L1     4  1.00

> <Gold.PLP.Chemscore.Internal.Correction>
0.1406

> <Gold.Rescore>
     Score         DG    S(hbond)    S(metal)    S(lipo)     H(rot)  DE(clash)    DE(int)     intcor
     18.08     -19.29       1.43        0.00     129.55       2.40       0.39       0.82       ----

> <Gold.Chemscore.Fitness>
18.0766

> <Gold.Chemscore.DG>
-19.2918

> <Gold.Chemscore.ZeroCoef>
-5.4800

> <Gold.Chemscore.Hbond>
1.4329

> <Gold.Chemscore.Metal>
0.0000

> <Gold.Chemscore.Lipo>
129.5503

> <Gold.Chemscore.Internal_Hbond>
0.0000

> <Gold.Chemscore.DEClash>
0.3909

> <Gold.Chemscore.DEInternal>
0.8243

> <Gold.Chemscore.Rot>
2.3951

> <Gold.Chemscore.Internal.Correction>
   9.000000E+99

> <Gold.Chemscore.Hbonds>
donor molecule, donor type, donor heavy atom, donor atom, acceptor molecule, acceptor atom, score
      L1  H     7    42       P1  7948  0.91
      P1  H 10752 10764       L1     4  0.35

> <Gold.Chemscore.Hbond.Weighted>
-4.7859

> <Gold.Chemscore.Metal.Weighted>
-0.0000

> <Gold.Chemscore.Lipo.Weighted>
-15.1574

> <Gold.Chemscore.Internal_Hbond.Weighted>
0.0000

> <Gold.Chemscore.DEClash.Weighted>
0.3909

> <Gold.Chemscore.DEInternal.Weighted>
0.8243

> <Gold.Chemscore.Rot.Weighted>
6.1314

> <Gold.Chemscore.Internal.Correction.Weighted>
   9.000000E+99

> <Gold.Protein.RotatedTorsions>
[ 6907 6896 6895 6894 ] final   21.01 input  -60.11 | X-H torsion
[ 7974 7965 7964 7962 ] final -146.01 input  175.53 | X-H torsion
[ 8008 7997 7996 7995 ] final   97.89 input   59.86 | X-H torsion
[ 10167 10162 10161 10158 ] final  -61.55 input  -65.29 | X-H torsion
[ 10718 10713 10712 10709 ] final -129.49 input   66.30 | X-H torsion
[ 10763 10752 10751 10750 ] final  -28.15 input  -60.55 | X-H torsion
[ 11005 11000 10999 10996 ] final  -83.85 input  -57.11 | X-H torsion

> <Gold.Protein.ActiveResidues>
 VAL166  LYS551  ARG553  GLY616  TRP617  ASP618  TYR619  PRO620  LYS621  CYS622 
 ASP623  PHE694  ASN695  SER759  ASP760  ASP761  ALA762  ILE779  LEU786  VAL792 
 PHE793  MET794  SER795  GLU796  ALA797  LYS798  CYS799  TRP800  GLU811  SER814 

> <Gold.Protein.RotatedAtoms>
  151.9053  135.0361  160.0509 H   0  0  0  0  0  0  0  0  0  0  0  0  # atno 6907 bound_to 6896
  152.2325  133.5065  159.5232 H   0  0  0  0  0  0  0  0  0  0  0  0  # atno 6908 bound_to 6896
  150.7029  134.1114  159.4044 H   0  0  0  0  0  0  0  0  0  0  0  0  # atno 6909 bound_to 6896
  144.8188  140.5511  143.5592 H   0  0  0  0  0  0  0  0  0  0  0  0  # atno 7974 bound_to 7965
  156.0948  140.3252  155.7863 H   0  0  0  0  0  0  0  0  0  0  0  0  # atno 8008 bound_to 7997
  155.4936  140.0563  157.2967 H   0  0  0  0  0  0  0  0  0  0  0  0  # atno 8009 bound_to 7997
  154.4659  140.1989  156.0134 H   0  0  0  0  0  0  0  0  0  0  0  0  # atno 8010 bound_to 7997
  140.5998  143.2359  151.5953 H   0  0  0  0  0  0  0  0  0  0  0  0  # atno 10167 bound_to 10162
  156.2052  130.6883  151.0586 H   0  0  0  0  0  0  0  0  0  0  0  0  # atno 10718 bound_to 10713
  153.7436  135.6931  153.4961 H   0  0  0  0  0  0  0  0  0  0  0  0  # atno 10763 bound_to 10752
  153.2052  135.4422  155.0313 H   0  0  0  0  0  0  0  0  0  0  0  0  # atno 10764 bound_to 10752
  154.8212  135.3423  154.6961 H   0  0  0  0  0  0  0  0  0  0  0  0  # atno 10765 bound_to 10752
  141.1655  133.7315  156.8781 H   0  0  0  0  0  0  0  0  0  0  0  0  # atno 11005 bound_to 11000
  145.5152  139.1478  143.3583 LP  0  0  0  0  0  0  0  0  0  0  0  0  # atno 17320 bound_to 7965
  146.2493  140.5292  142.8900 LP  0  0  0  0  0  0  0  0  0  0  0  0  # atno 17321 bound_to 7965
  139.5283  144.2991  152.1088 LP  0  0  0  0  0  0  0  0  0  0  0  0  # atno 17342 bound_to 10162
  140.2170  144.4505  150.6359 LP  0  0  0  0  0  0  0  0  0  0  0  0  # atno 17343 bound_to 10162
  157.7008  131.0776  150.6825 LP  0  0  0  0  0  0  0  0  0  0  0  0  # atno 17370 bound_to 10713
  156.6884  130.4588  149.5607 LP  0  0  0  0  0  0  0  0  0  0  0  0  # atno 17371 bound_to 10713
  140.1734  134.9084  157.2861 LP  0  0  0  0  0  0  0  0  0  0  0  0  # atno 17394 bound_to 11000
  140.2476  134.3721  155.7455 LP  0  0  0  0  0  0  0  0  0  0  0  0  # atno 17395 bound_to 11000

$$$$
