AV-unprocessed.smi:2002|AV-procd|sdf|8113|dock9
  -GOLD-   2272010343D 1   1.00000     0.00000
 Structure written by MMmdl.
 39 40  0  0  0  0  0  0  0  0  2 V2000
  147.0266  128.1790  152.4059 C   0  0  0  0  0  0  0  0  0  0  0  0
  146.3294  129.5310  152.6076 C   0  0  0  0  0  0  0  0  0  0  0  0
  147.2288  130.6694  152.3087 N   0  3  1  0  0  0  0  0  0  0  0  0
  146.5476  131.9489  151.9956 C   0  0  0  0  0  0  0  0  0  0  0  0
  147.2779  133.0448  152.7826 C   0  0  0  0  0  0  0  0  0  0  0  0
  148.6125  132.4132  153.1756 C   0  0  1  0  0  0  0  0  0  0  0  0
  149.2770  133.0809  154.3953 C   0  0  0  0  0  0  0  0  0  0  0  0
  149.5756  134.4903  154.1595 N   0  0  0  0  0  0  0  0  0  0  0  0
  150.4198  135.2380  154.8853 C   0  0  0  0  0  0  0  0  0  0  0  0
  151.0635  134.8018  155.8402 O   0  0  0  0  0  0  0  0  0  0  0  0
  150.4689  136.5014  154.4304 N   0  0  0  0  0  0  0  0  0  0  0  0
  151.2609  137.5678  154.9274 C   0  0  0  0  0  0  0  0  0  0  0  0
  150.6769  138.8220  155.2480 C   0  0  0  0  0  0  0  0  0  0  0  0
  151.7450  139.5574  155.6791 C   0  0  0  0  0  0  0  0  0  0  0  0
  151.8791  140.9567  156.1746 C   0  0  0  0  0  0  0  0  0  0  0  0
  152.8841  138.8147  155.6257 O   0  0  0  0  0  0  0  0  0  0  0  0
  152.5674  137.5402  155.1412 N   0  0  0  0  0  0  0  0  0  0  0  0
  148.2223  130.9456  153.3654 C   0  0  0  0  0  0  0  0  0  0  0  0
  146.3589  127.3586  152.6694 H   0  0  0  0  0  0  0  0  0  0  0  0
  147.9151  128.0966  153.0329 H   0  0  0  0  0  0  0  0  0  0  0  0
  147.3320  128.0331  151.3695 H   0  0  0  0  0  0  0  0  0  0  0  0
  145.4297  129.5942  151.9936 H   0  0  0  0  0  0  0  0  0  0  0  0
  146.0052  129.6050  153.6467 H   0  0  0  0  0  0  0  0  0  0  0  0
  146.6178  132.1260  150.9220 H   0  0  0  0  0  0  0  0  0  0  0  0
  145.4891  131.9314  152.2591 H   0  0  0  0  0  0  0  0  0  0  0  0
  147.4009  133.9629  152.2073 H   0  0  0  0  0  0  0  0  0  0  0  0
  146.7043  133.2906  153.6777 H   0  0  0  0  0  0  0  0  0  0  0  0
  149.2858  132.4834  152.3194 H   0  0  0  0  0  0  0  0  0  0  0  0
  148.6013  133.0285  155.2493 H   0  0  0  0  0  0  0  0  0  0  0  0
  150.1786  132.5401  154.6890 H   0  0  0  0  0  0  0  0  0  0  0  0
  149.0888  134.9338  153.3939 H   0  0  0  0  0  0  0  0  0  0  0  0
  149.8798  136.7248  153.6419 H   0  0  0  0  0  0  0  0  0  0  0  0
  149.6455  139.1342  155.1759 H   0  0  0  0  0  0  0  0  0  0  0  0
  151.0877  141.5891  155.7720 H   0  0  0  0  0  0  0  0  0  0  0  0
  152.8364  141.3853  155.8772 H   0  0  0  0  0  0  0  0  0  0  0  0
  151.8171  140.9875  157.2624 H   0  0  0  0  0  0  0  0  0  0  0  0
  147.7619  130.8062  154.3453 H   0  0  0  0  0  0  0  0  0  0  0  0
  149.0752  130.2698  153.2936 H   0  0  0  0  0  0  0  0  0  0  0  0
  147.7614  130.4221  151.4868 H   0  0  0  0  0  0  0  0  0  0  0  0
  1  2  1  0  0  0  0
  1 19  1  0  0  0  0
  1 20  1  0  0  0  0
  1 21  1  0  0  0  0
  2  3  1  0  0  0  0
  2 22  1  0  0  0  0
  2 23  1  0  0  0  0
  3 18  1  0  0  0  0
  3  4  1  0  0  0  0
  3 39  1  0  0  0  0
  4  5  1  0  0  0  0
  4 24  1  0  0  0  0
  4 25  1  0  0  0  0
  5  6  1  0  0  0  0
  5 26  1  0  0  0  0
  5 27  1  0  0  0  0
  6  7  1  0  0  0  0
  6 18  1  0  0  0  0
  6 28  1  0  0  0  0
  7  8  1  0  0  0  0
  7 29  1  0  0  0  0
  7 30  1  0  0  0  0
  8  9  1  0  0  0  0
  8 31  1  0  0  0  0
  9 10  2  0  0  0  0
  9 11  1  0  0  0  0
 11 12  1  0  0  0  0
 11 32  1  0  0  0  0
 12 17  2  0  0  0  0
 12 13  1  0  0  0  0
 13 14  2  0  0  0  0
 13 33  1  0  0  0  0
 14 15  1  0  0  0  0
 14 16  1  0  0  0  0
 15 34  1  0  0  0  0
 15 35  1  0  0  0  0
 15 36  1  0  0  0  0
 16 17  1  0  0  0  0
 18 37  1  0  0  0  0
 18 38  1  0  0  0  0
M  CHG  1   3   1
M  END
> <s_m_source_file>
AV-unprocessed.smi

> <i_m_source_file_index>
2002

> <i_lp_mmshare_version>
43012

> <i_f3d_flags>
0

> <s_epik_input>
W0NIM11bQ0gyXU4xW0NIMl1bQ0gyXVtDQEhdKFtDSDJdMSlbQ0gyXVtOSF1DKD1PKVtOSF1jMltjSF1jKFtDSDNdKW9uMg==

> <s_epik_cmdline>
J2VwaWtfcHl0aG9uJywgJy1waCcsICc3LjAnLCAnLXRuJywgJzgnLCAnLW1hJywgJzIwMCcsICctbWV0YWxfYmluZGluZycsICctaW1hZScsICc8aW5maWxlLm1hZT4nLCAnLW9tYWUnLCAnPG91dGZpbGUubWFlPic=

> <r_epik_Ionization_Penalty>
0.000632871

> <r_epik_Ionization_Penalty_Charging>
0.000610951

> <r_epik_Ionization_Penalty_Neutral>
2.19198e-05

> <r_epik_State_Penalty>
0.000385263

> <r_epik_Charging_Adjusted_Penalty>
0.000996214

> <i_epik_Tot_Q>
1

> <i_epik_Tot_abs_Q>
1

> <r_epik_Metal_State_Penalty>
-0

> <b_epik_Metal_Only>
0

> <s_lp_Force_Field>
OPLS_2005

> <r_lp_Energy>
24.2793

> <b_lp_Chiralities_Consistent>
1

> <s_lp_Variant>
AV-unprocessed.smi:2002-1

> <Gold.Version>
5.8.1

> <Gold.Id.Protein>
6NUR|6NUR_protein|mol2

> <Gold.PLP.Fitness>
44.2040

> <Gold.PLP.PLP>
-32.5817

> <Gold.PLP.part.hbond>
-5.9131

> <Gold.PLP.part.metal>
0.0000

> <Gold.PLP.part.buried>
-4.2411

> <Gold.PLP.part.nonpolar>
-23.4891

> <Gold.PLP.part.repulsive>
0.1813

> <Gold.PLP.ligand.clash>
0.0000

> <Gold.PLP.ligand.torsion>
0.7386

> <Gold.PLP.Chemscore.Hbond>
4.3628

> <Gold.PLP.Chemscore.CHOScore>
0.0000

> <Gold.PLP.Chemscore.Metal>
0.0000

> <Gold.Chemscore.Hbonds>
donor molecule, donor type, donor heavy atom, donor atom, acceptor molecule, acceptor atom, score
      L1  H     3    39       P1 10747  1.00
      L1  H     8    31       P1  7948  0.90
      L1  H    11    32       P1  7948  1.00
      P1  H  7997  8008       L1    16  0.89
      P1  H 10752 10765       L1    17  0.53

> <Gold.PLP.Chemscore.Internal.Correction>
0.0113

> <Gold.Rescore>
     Score         DG    S(hbond)    S(metal)    S(lipo)     H(rot)  DE(clash)    DE(int)     intcor
     17.52     -18.19       2.67        0.00      65.84       1.52       0.01       0.66       ----

> <Gold.Chemscore.Fitness>
17.5187

> <Gold.Chemscore.DG>
-18.1927

> <Gold.Chemscore.ZeroCoef>
-5.4800

> <Gold.Chemscore.Hbond>
2.6667

> <Gold.Chemscore.Metal>
0.0000

> <Gold.Chemscore.Lipo>
65.8372

> <Gold.Chemscore.Internal_Hbond>
0.0000

> <Gold.Chemscore.DEClash>
0.0134

> <Gold.Chemscore.DEInternal>
0.6606

> <Gold.Chemscore.Rot>
1.5223

> <Gold.Chemscore.Internal.Correction>
   9.000000E+99

> <Gold.Chemscore.Hbonds>
donor molecule, donor type, donor heavy atom, donor atom, acceptor molecule, acceptor atom, score
      L1  H     3    39       P1 10747  0.94
      L1  H     8    31       P1  7948  0.17
      L1  H    11    32       P1  7948  0.31
      P1  H  7997  8008       L1    16  0.38
      P1  H 10752 10765       L1    17  0.17

> <Gold.Chemscore.Hbond.Weighted>
-8.9069

> <Gold.Chemscore.Metal.Weighted>
-0.0000

> <Gold.Chemscore.Lipo.Weighted>
-7.7030

> <Gold.Chemscore.Internal_Hbond.Weighted>
0.0000

> <Gold.Chemscore.DEClash.Weighted>
0.0134

> <Gold.Chemscore.DEInternal.Weighted>
0.6606

> <Gold.Chemscore.Rot.Weighted>
3.8971

> <Gold.Chemscore.Internal.Correction.Weighted>
   9.000000E+99

> <Gold.Protein.RotatedTorsions>
[ 6907 6896 6895 6894 ] final   86.99 input  -60.11 | X-H torsion
[ 7974 7965 7964 7962 ] final  162.91 input  175.53 | X-H torsion
[ 8008 7997 7996 7995 ] final  -42.53 input   59.86 | X-H torsion
[ 10167 10162 10161 10158 ] final   23.11 input  -65.29 | X-H torsion
[ 10718 10713 10712 10709 ] final -148.68 input   66.30 | X-H torsion
[ 10763 10752 10751 10750 ] final -168.95 input  -60.55 | X-H torsion
[ 11005 11000 10999 10996 ] final   74.18 input  -57.11 | X-H torsion

> <Gold.Protein.ActiveResidues>
 VAL166  LYS551  ARG553  GLY616  TRP617  ASP618  TYR619  PRO620  LYS621  CYS622 
 ASP623  PHE694  ASN695  SER759  ASP760  ASP761  ALA762  ILE779  LEU786  VAL792 
 PHE793  MET794  SER795  GLU796  ALA797  LYS798  CYS799  TRP800  GLU811  SER814 

> <Gold.Protein.RotatedAtoms>
  152.5404  134.2345  159.8837 H   0  0  0  0  0  0  0  0  0  0  0  0  # atno 6907 bound_to 6896
  151.2316  133.4441  159.2611 H   0  0  0  0  0  0  0  0  0  0  0  0  # atno 6908 bound_to 6896
  151.0710  134.9812  159.8365 H   0  0  0  0  0  0  0  0  0  0  0  0  # atno 6909 bound_to 6896
  144.7614  139.8108  143.6331 H   0  0  0  0  0  0  0  0  0  0  0  0  # atno 7974 bound_to 7965
  154.3999  140.1471  156.3369 H   0  0  0  0  0  0  0  0  0  0  0  0  # atno 8008 bound_to 7997
  155.8392  140.3462  155.5600 H   0  0  0  0  0  0  0  0  0  0  0  0  # atno 8009 bound_to 7997
  155.8105  140.0883  157.1897 H   0  0  0  0  0  0  0  0  0  0  0  0  # atno 8010 bound_to 7997
  140.5295  143.9865  150.6458 H   0  0  0  0  0  0  0  0  0  0  0  0  # atno 10167 bound_to 10162
  156.4233  130.8039  151.2263 H   0  0  0  0  0  0  0  0  0  0  0  0  # atno 10718 bound_to 10713
  154.6574  135.2920  154.9910 H   0  0  0  0  0  0  0  0  0  0  0  0  # atno 10763 bound_to 10752
  154.0982  135.6580  153.4867 H   0  0  0  0  0  0  0  0  0  0  0  0  # atno 10764 bound_to 10752
  153.0410  135.5236  154.7509 H   0  0  0  0  0  0  0  0  0  0  0  0  # atno 10765 bound_to 10752
  139.9403  134.7411  156.1116 H   0  0  0  0  0  0  0  0  0  0  0  0  # atno 11005 bound_to 11000
  146.1680  139.4820  142.9945 LP  0  0  0  0  0  0  0  0  0  0  0  0  # atno 17320 bound_to 7965
  145.6607  141.0241  143.1710 LP  0  0  0  0  0  0  0  0  0  0  0  0  # atno 17321 bound_to 7965
  140.3236  143.3121  152.0759 LP  0  0  0  0  0  0  0  0  0  0  0  0  # atno 17342 bound_to 10162
  139.4949  144.6557  151.6578 LP  0  0  0  0  0  0  0  0  0  0  0  0  # atno 17343 bound_to 10162
  157.7508  131.0221  150.3778 LP  0  0  0  0  0  0  0  0  0  0  0  0  # atno 17370 bound_to 10713
  156.4100  130.3932  149.6898 LP  0  0  0  0  0  0  0  0  0  0  0  0  # atno 17371 bound_to 10713
  141.1035  133.6668  156.2810 LP  0  0  0  0  0  0  0  0  0  0  0  0  # atno 17394 bound_to 11000
  140.5968  134.5595  157.5510 LP  0  0  0  0  0  0  0  0  0  0  0  0  # atno 17395 bound_to 11000

$$$$
