AV-unprocessed.smi:3185|AV-procd|sdf|12166|dock3
  -GOLD-   2272018 03D 1   1.00000     0.00000
 Structure written by MMmdl.
 38 39  0  0  0  0  0  0  0  0  2 V2000
  152.1539  135.0105  156.3102 N   0  0  0  0  0  0  0  0  0  0  0  0
  151.3158  134.3551  155.8571 C   0  0  0  0  0  0  0  0  0  0  0  0
  150.2497  133.5226  155.2803 C   0  0  0  0  0  0  0  0  0  0  0  0
  149.4495  134.2566  154.1984 C   0  0  0  0  0  0  0  0  0  0  0  0
  148.1864  133.4902  153.7882 C   0  0  0  0  0  0  0  0  0  0  0  0
  147.5023  134.1658  152.6660 N   0  3  0  0  0  0  0  0  0  0  0  0
  146.1785  134.7542  152.9794 C   0  0  1  0  0  0  0  0  0  0  0  0
  145.9629  136.1193  152.2784 C   0  0  0  0  0  0  0  0  0  0  0  0
  144.5599  136.6869  152.5469 C   0  0  0  0  0  0  0  0  0  0  0  0
  143.4596  135.6801  152.1829 C   0  0  0  0  0  0  0  0  0  0  0  0
  143.6539  134.3599  152.9453 C   0  0  0  0  0  0  0  0  0  0  0  0
  145.0402  133.7304  152.6949 C   0  0  1  0  0  0  0  0  0  0  0  0
  145.0981  133.0722  151.3872 N   0  0  0  0  0  0  0  0  0  0  0  0
  144.1069  133.0449  150.4262 C   0  0  0  0  0  0  0  0  0  0  0  0
  144.5892  132.3580  149.3495 C   0  0  0  0  0  0  0  0  0  0  0  0
  145.9124  132.0126  149.7370 C   0  0  0  0  0  0  0  0  0  0  0  0
  146.2144  132.4460  150.9494 N   0  0  0  0  0  0  0  0  0  0  0  0
  150.7126  132.6246  154.8702 H   0  0  0  0  0  0  0  0  0  0  0  0
  149.5954  133.2084  156.0940 H   0  0  0  0  0  0  0  0  0  0  0  0
  149.1744  135.2471  154.5635 H   0  0  0  0  0  0  0  0  0  0  0  0
  150.0842  134.4132  153.3249 H   0  0  0  0  0  0  0  0  0  0  0  0
  148.4510  132.4739  153.4930 H   0  0  0  0  0  0  0  0  0  0  0  0
  147.5140  133.4158  154.6426 H   0  0  0  0  0  0  0  0  0  0  0  0
  148.0993  134.8955  152.3022 H   0  0  0  0  0  0  0  0  0  0  0  0
  146.1599  134.9394  154.0547 H   0  0  0  0  0  0  0  0  0  0  0  0
  146.6970  136.8439  152.6299 H   0  0  0  0  0  0  0  0  0  0  0  0
  146.1229  136.0381  151.2042 H   0  0  0  0  0  0  0  0  0  0  0  0
  144.4714  136.9548  153.6004 H   0  0  0  0  0  0  0  0  0  0  0  0
  144.4200  137.6096  151.9827 H   0  0  0  0  0  0  0  0  0  0  0  0
  142.4826  136.1019  152.4206 H   0  0  0  0  0  0  0  0  0  0  0  0
  143.4605  135.4993  151.1077 H   0  0  0  0  0  0  0  0  0  0  0  0
  143.5360  134.5498  154.0130 H   0  0  0  0  0  0  0  0  0  0  0  0
  142.8650  133.6558  152.6781 H   0  0  0  0  0  0  0  0  0  0  0  0
  145.1555  132.9277  153.4252 H   0  0  0  0  0  0  0  0  0  0  0  0
  143.1466  133.5130  150.5863 H   0  0  0  0  0  0  0  0  0  0  0  0
  144.0780  132.1437  148.4226 H   0  0  0  0  0  0  0  0  0  0  0  0
  146.6580  131.4675  149.1769 H   0  0  0  0  0  0  0  0  0  0  0  0
  147.3638  133.4779  151.9397 H   0  0  0  0  0  0  0  0  0  0  0  0
  1  2  3  0  0  0  0
  2  3  1  0  0  0  0
  3  4  1  0  0  0  0
  3 18  1  0  0  0  0
  3 19  1  0  0  0  0
  4  5  1  0  0  0  0
  4 20  1  0  0  0  0
  4 21  1  0  0  0  0
  5  6  1  0  0  0  0
  5 22  1  0  0  0  0
  5 23  1  0  0  0  0
  6  7  1  0  0  0  0
  6 24  1  0  0  0  0
  6 38  1  0  0  0  0
  7 12  1  0  0  0  0
  7  8  1  0  0  0  0
  7 25  1  0  0  0  0
  8  9  1  0  0  0  0
  8 26  1  0  0  0  0
  8 27  1  0  0  0  0
  9 10  1  0  0  0  0
  9 28  1  0  0  0  0
  9 29  1  0  0  0  0
 10 11  1  0  0  0  0
 10 30  1  0  0  0  0
 10 31  1  0  0  0  0
 11 12  1  0  0  0  0
 11 32  1  0  0  0  0
 11 33  1  0  0  0  0
 12 13  1  0  0  0  0
 12 34  1  0  0  0  0
 13 17  1  0  0  0  0
 13 14  1  0  0  0  0
 14 15  2  0  0  0  0
 14 35  1  0  0  0  0
 15 16  1  0  0  0  0
 15 36  1  0  0  0  0
 16 17  2  0  0  0  0
 16 37  1  0  0  0  0
M  CHG  1   6   1
M  END
> <s_m_source_file>
AV-unprocessed.smi

> <i_m_source_file_index>
3185

> <i_lp_mmshare_version>
43012

> <i_f3d_flags>
0

> <s_epik_input>
TiNDW0NIMl1bQ0gyXVtDSDJdW05IXVtDQEBIXTFbQ0gyXVtDSDJdW0NIMl1bQ0gyXVtDQEhdMW4yW2NIXVtjSF1bY0hdbjI=

> <s_epik_cmdline>
J2VwaWtfcHl0aG9uJywgJy1waCcsICc3LjAnLCAnLXRuJywgJzgnLCAnLW1hJywgJzIwMCcsICctbWV0YWxfYmluZGluZycsICctaW1hZScsICc8aW5maWxlLm1hZT4nLCAnLW9tYWUnLCAnPG91dGZpbGUubWFlPic=

> <r_lp_tautomer_probability>
1

> <r_epik_Ionization_Penalty>
0.0143465

> <r_epik_Ionization_Penalty_Charging>
0.0143338

> <r_epik_Ionization_Penalty_Neutral>
1.27047e-05

> <r_epik_State_Penalty>
0.0112058

> <r_epik_Charging_Adjusted_Penalty>
0.0255397

> <i_epik_Tot_Q>
1

> <i_epik_Tot_abs_Q>
1

> <r_epik_Metal_State_Penalty>
0.0112253

> <b_epik_Metal_Only>
0

> <s_lp_Force_Field>
OPLS_2005

> <r_lp_Energy>
18.1439

> <b_lp_Chiralities_Consistent>
1

> <s_lp_Variant>
AV-unprocessed.smi:3185-2

> <Gold.Version>
5.8.1

> <Gold.Id.Protein>
6NUR|6NUR_protein|mol2

> <Gold.PLP.Fitness>
42.7069

> <Gold.PLP.PLP>
-29.6595

> <Gold.PLP.part.hbond>
-2.0000

> <Gold.PLP.part.metal>
0.0000

> <Gold.PLP.part.buried>
-2.0657

> <Gold.PLP.part.nonpolar>
-24.8462

> <Gold.PLP.part.repulsive>
0.1509

> <Gold.PLP.ligand.clash>
0.0000

> <Gold.PLP.ligand.torsion>
0.9167

> <Gold.PLP.Chemscore.Hbond>
3.0000

> <Gold.PLP.Chemscore.CHOScore>
1.9153

> <Gold.PLP.Chemscore.Metal>
0.0000

> <Gold.Chemscore.Hbonds>
donor molecule, donor type, donor heavy atom, donor atom, acceptor molecule, acceptor atom, score
      L1  H     6    24       P1  7948  2.00
      P1  H 10752 10764       L1     1  1.00
      L1  C    14    35       P1 10186  0.97
      L1  C    16    37       P1 10747  0.67

> <Gold.PLP.Chemscore.Internal.Correction>
0.1348

> <Gold.Rescore>
     Score         DG    S(hbond)    S(metal)    S(lipo)     H(rot)  DE(clash)    DE(int)     intcor
     12.49     -14.91       1.88        0.00      68.12       1.88       0.02       2.40       ----

> <Gold.Chemscore.Fitness>
12.4936

> <Gold.Chemscore.DG>
-14.9127

> <Gold.Chemscore.ZeroCoef>
-5.4800

> <Gold.Chemscore.Hbond>
1.8767

> <Gold.Chemscore.Metal>
0.0000

> <Gold.Chemscore.Lipo>
68.1160

> <Gold.Chemscore.Internal_Hbond>
0.0000

> <Gold.Chemscore.DEClash>
0.0224

> <Gold.Chemscore.DEInternal>
2.3967

> <Gold.Chemscore.Rot>
1.8769

> <Gold.Chemscore.Internal.Correction>
   9.000000E+99

> <Gold.Chemscore.Hbonds>
donor molecule, donor type, donor heavy atom, donor atom, acceptor molecule, acceptor atom, score
      L1  H     6    24       P1  7948  0.54
      P1  H 10752 10764       L1     1  0.71

> <Gold.Chemscore.Hbond.Weighted>
-6.2681

> <Gold.Chemscore.Metal.Weighted>
-0.0000

> <Gold.Chemscore.Lipo.Weighted>
-7.9696

> <Gold.Chemscore.Internal_Hbond.Weighted>
0.0000

> <Gold.Chemscore.DEClash.Weighted>
0.0224

> <Gold.Chemscore.DEInternal.Weighted>
2.3967

> <Gold.Chemscore.Rot.Weighted>
4.8049

> <Gold.Chemscore.Internal.Correction.Weighted>
   9.000000E+99

> <Gold.Protein.RotatedTorsions>
[ 6907 6896 6895 6894 ] final  -52.22 input  -60.11 | X-H torsion
[ 7974 7965 7964 7962 ] final   75.27 input  175.53 | X-H torsion
[ 8008 7997 7996 7995 ] final   86.17 input   59.86 | X-H torsion
[ 10167 10162 10161 10158 ] final -111.68 input  -65.29 | X-H torsion
[ 10718 10713 10712 10709 ] final  104.11 input   66.30 | X-H torsion
[ 10763 10752 10751 10750 ] final  -20.98 input  -60.55 | X-H torsion
[ 11005 11000 10999 10996 ] final   -2.58 input  -57.11 | X-H torsion

> <Gold.Protein.ActiveResidues>
 VAL166  LYS551  ARG553  GLY616  TRP617  ASP618  TYR619  PRO620  LYS621  CYS622 
 ASP623  PHE694  ASN695  SER759  ASP760  ASP761  ALA762  ILE779  LEU786  VAL792 
 PHE793  MET794  SER795  GLU796  ALA797  LYS798  CYS799  TRP800  GLU811  SER814 

> <Gold.Protein.RotatedAtoms>
  150.8538  134.7871  159.7029 H   0  0  0  0  0  0  0  0  0  0  0  0  # atno 6907 bound_to 6896
  152.4595  134.5212  159.9793 H   0  0  0  0  0  0  0  0  0  0  0  0  # atno 6908 bound_to 6896
  151.5328  133.3408  159.2957 H   0  0  0  0  0  0  0  0  0  0  0  0  # atno 6909 bound_to 6896
  145.7177  139.2637  143.1614 H   0  0  0  0  0  0  0  0  0  0  0  0  # atno 7974 bound_to 7965
  155.9594  140.3394  155.6477 H   0  0  0  0  0  0  0  0  0  0  0  0  # atno 8008 bound_to 7997
  155.6818  140.0738  157.2500 H   0  0  0  0  0  0  0  0  0  0  0  0  # atno 8009 bound_to 7997
  154.4140  140.1673  156.1978 H   0  0  0  0  0  0  0  0  0  0  0  0  # atno 8010 bound_to 7997
  140.1309  143.4361  152.1628 H   0  0  0  0  0  0  0  0  0  0  0  0  # atno 10167 bound_to 10162
  157.6751  131.0796  150.5657 H   0  0  0  0  0  0  0  0  0  0  0  0  # atno 10718 bound_to 10713
  153.6289  135.6990  153.5283 H   0  0  0  0  0  0  0  0  0  0  0  0  # atno 10763 bound_to 10752
  153.2876  135.4167  155.1136 H   0  0  0  0  0  0  0  0  0  0  0  0  # atno 10764 bound_to 10752
  154.8526  135.3617  154.5831 H   0  0  0  0  0  0  0  0  0  0  0  0  # atno 10765 bound_to 10752
  140.6599  133.9329  155.8430 H   0  0  0  0  0  0  0  0  0  0  0  0  # atno 11005 bound_to 11000
  146.0655  140.7925  142.9714 LP  0  0  0  0  0  0  0  0  0  0  0  0  # atno 17320 bound_to 7965
  144.6925  140.3261  143.7224 LP  0  0  0  0  0  0  0  0  0  0  0  0  # atno 17321 bound_to 7965
  139.5520  144.7344  151.4407 LP  0  0  0  0  0  0  0  0  0  0  0  0  # atno 17342 bound_to 10162
  140.6817  143.8066  150.7131 LP  0  0  0  0  0  0  0  0  0  0  0  0  # atno 17343 bound_to 10162
  156.5959  130.4341  149.5917 LP  0  0  0  0  0  0  0  0  0  0  0  0  # atno 17370 bound_to 10713
  156.2545  130.6926  151.1675 LP  0  0  0  0  0  0  0  0  0  0  0  0  # atno 17371 bound_to 10713
  141.0473  134.0536  157.3828 LP  0  0  0  0  0  0  0  0  0  0  0  0  # atno 17394 bound_to 11000
  139.9016  135.0166  156.7296 LP  0  0  0  0  0  0  0  0  0  0  0  0  # atno 17395 bound_to 11000

$$$$
