AV-unprocessed.smi:356|AV-procd|sdf|2411|dock4
  -GOLD-   2262022343D 1   1.00000     0.00000
 Structure written by MMmdl.
 42 44  0  0  0  0  0  0  0  0  2 V2000
  151.9964  138.7686  156.2987 C   0  0  0  0  0  0  0  0  0  0  0  0
  152.2365  139.8147  157.3406 C   0  0  0  0  0  0  0  0  0  0  0  0
  153.1504  139.6663  158.2994 N   0  0  0  0  0  0  0  0  0  0  0  0
  153.0344  140.8435  159.0132 C   0  0  0  0  0  0  0  0  0  0  0  0
  153.7309  141.2972  160.1562 C   0  0  0  0  0  0  0  0  0  0  0  0
  153.4362  142.5564  160.7185 C   0  0  0  0  0  0  0  0  0  0  0  0
  152.4427  143.3784  160.1482 C   0  0  0  0  0  0  0  0  0  0  0  0
  151.7360  142.9454  159.0099 C   0  0  0  0  0  0  0  0  0  0  0  0
  152.0338  141.6873  158.4521 C   0  0  0  0  0  0  0  0  0  0  0  0
  151.5355  140.9750  157.3649 N   0  0  0  0  0  0  0  0  0  0  0  0
  150.4811  141.4039  156.4558 C   0  0  0  0  0  0  0  0  0  0  0  0
  149.0683  141.1130  157.0012 C   0  0  1  0  0  0  0  0  0  0  0  0
  148.5342  142.2862  157.5849 O   0  0  0  0  0  0  0  0  0  0  0  0
  148.1135  140.6358  155.8894 C   0  0  0  0  0  0  0  0  0  0  0  0
  147.1504  141.6878  155.4743 N   0  3  0  0  0  0  0  0  0  0  0  0
  146.8437  141.6376  154.0249 C   0  0  0  0  0  0  0  0  0  0  0  0
  145.8970  142.7854  153.6353 C   0  0  0  0  0  0  0  0  0  0  0  0
  144.7111  142.7115  154.4167 O   0  0  0  0  0  0  0  0  0  0  0  0
  144.9800  142.8440  155.8068 C   0  0  0  0  0  0  0  0  0  0  0  0
  145.8961  141.6974  156.2677 C   0  0  0  0  0  0  0  0  0  0  0  0
  152.6387  137.9042  156.4703 H   0  0  0  0  0  0  0  0  0  0  0  0
  152.2152  139.1654  155.3072 H   0  0  0  0  0  0  0  0  0  0  0  0
  150.9595  138.4345  156.3265 H   0  0  0  0  0  0  0  0  0  0  0  0
  154.4926  140.6746  160.6018 H   0  0  0  0  0  0  0  0  0  0  0  0
  153.9747  142.8935  161.5921 H   0  0  0  0  0  0  0  0  0  0  0  0
  152.2229  144.3414  160.5858 H   0  0  0  0  0  0  0  0  0  0  0  0
  150.9735  143.5727  158.5736 H   0  0  0  0  0  0  0  0  0  0  0  0
  150.6015  142.4712  156.2652 H   0  0  0  0  0  0  0  0  0  0  0  0
  150.6243  140.9102  155.4943 H   0  0  0  0  0  0  0  0  0  0  0  0
  149.1452  140.3564  157.7806 H   0  0  0  0  0  0  0  0  0  0  0  0
  148.3012  142.8890  156.8951 H   0  0  0  0  0  0  0  0  0  0  0  0
  148.7109  140.3268  155.0300 H   0  0  0  0  0  0  0  0  0  0  0  0
  147.5626  139.7502  156.2101 H   0  0  0  0  0  0  0  0  0  0  0  0
  147.7658  141.7141  153.4475 H   0  0  0  0  0  0  0  0  0  0  0  0
  146.3885  140.6767  153.7797 H   0  0  0  0  0  0  0  0  0  0  0  0
  146.3802  143.7539  153.7746 H   0  0  0  0  0  0  0  0  0  0  0  0
  145.6309  142.7114  152.5808 H   0  0  0  0  0  0  0  0  0  0  0  0
  145.4364  143.8140  156.0112 H   0  0  0  0  0  0  0  0  0  0  0  0
  144.0373  142.8145  156.3536 H   0  0  0  0  0  0  0  0  0  0  0  0
  145.3811  140.7424  156.1518 H   0  0  0  0  0  0  0  0  0  0  0  0
  146.1131  141.8162  157.3285 H   0  0  0  0  0  0  0  0  0  0  0  0
  147.6107  142.5727  155.6358 H   0  0  0  0  0  0  0  0  0  0  0  0
  1  2  1  0  0  0  0
  1 21  1  0  0  0  0
  1 22  1  0  0  0  0
  1 23  1  0  0  0  0
  2 10  1  0  0  0  0
  2  3  2  0  0  0  0
  3  4  1  0  0  0  0
  4  9  2  0  0  0  0
  4  5  1  0  0  0  0
  5  6  2  0  0  0  0
  5 24  1  0  0  0  0
  6  7  1  0  0  0  0
  6 25  1  0  0  0  0
  7  8  2  0  0  0  0
  7 26  1  0  0  0  0
  8  9  1  0  0  0  0
  8 27  1  0  0  0  0
  9 10  1  0  0  0  0
 10 11  1  0  0  0  0
 11 12  1  0  0  0  0
 11 28  1  0  0  0  0
 11 29  1  0  0  0  0
 12 13  1  0  0  0  0
 12 14  1  0  0  0  0
 12 30  1  0  0  0  0
 13 31  1  0  0  0  0
 14 15  1  0  0  0  0
 14 32  1  0  0  0  0
 14 33  1  0  0  0  0
 15 20  1  0  0  0  0
 15 16  1  0  0  0  0
 15 42  1  0  0  0  0
 16 17  1  0  0  0  0
 16 34  1  0  0  0  0
 16 35  1  0  0  0  0
 17 18  1  0  0  0  0
 17 36  1  0  0  0  0
 17 37  1  0  0  0  0
 18 19  1  0  0  0  0
 19 20  1  0  0  0  0
 19 38  1  0  0  0  0
 19 39  1  0  0  0  0
 20 40  1  0  0  0  0
 20 41  1  0  0  0  0
M  CHG  1  15   1
M  END
> <s_m_source_file>
AV-unprocessed.smi

> <i_m_source_file_index>
356

> <i_lp_mmshare_version>
43012

> <i_f3d_flags>
0

> <s_epik_input>
W2NIXTFbY0hdW2NIXVtjSF1jKGMxMiluKGMobjIpW0NIM10pW0NIMl1bQ0BIXShbT0hdKVtDSDJdTjNbQ0gyXVtDSDJdT1tDSDJdW0NIMl0z

> <s_epik_cmdline>
J2VwaWtfcHl0aG9uJywgJy1waCcsICc3LjAnLCAnLXRuJywgJzgnLCAnLW1hJywgJzIwMCcsICctbWV0YWxfYmluZGluZycsICctaW1hZScsICc8aW5maWxlLm1hZT4nLCAnLW9tYWUnLCAnPG91dGZpbGUubWFlPic=

> <r_epik_Ionization_Penalty>
0.706388

> <r_epik_Ionization_Penalty_Charging>
0.608065

> <r_epik_Ionization_Penalty_Neutral>
0.0983237

> <r_epik_State_Penalty>
0.742533

> <r_epik_Charging_Adjusted_Penalty>
1.3506

> <i_epik_Tot_Q>
1

> <i_epik_Tot_abs_Q>
1

> <r_epik_Metal_State_Penalty>
0.651809

> <b_epik_Metal_Only>
0

> <s_lp_Force_Field>
OPLS_2005

> <r_lp_Energy>
21.7358

> <b_lp_Chiralities_Consistent>
1

> <s_lp_Variant>
AV-unprocessed.smi:356-4

> <Gold.Version>
5.8.1

> <Gold.Id.Protein>
6NUR|6NUR_protein|mol2

> <Gold.PLP.Fitness>
47.4135

> <Gold.PLP.PLP>
-40.4420

> <Gold.PLP.part.hbond>
-3.0000

> <Gold.PLP.part.metal>
0.0000

> <Gold.PLP.part.buried>
-5.7656

> <Gold.PLP.part.nonpolar>
-32.3875

> <Gold.PLP.part.repulsive>
0.2575

> <Gold.PLP.ligand.clash>
0.0000

> <Gold.PLP.ligand.torsion>
1.9235

> <Gold.PLP.Chemscore.Hbond>
3.6000

> <Gold.PLP.Chemscore.CHOScore>
0.0000

> <Gold.PLP.Chemscore.Metal>
0.0000

> <Gold.Chemscore.Hbonds>
donor molecule, donor type, donor heavy atom, donor atom, acceptor molecule, acceptor atom, score
      L1  H    13    31       P1  8028  0.39
      P1  H  7997  8008       L1     3  0.30

> <Gold.PLP.Chemscore.Internal.Correction>
0.0183

> <Gold.Rescore>
     Score         DG    S(hbond)    S(metal)    S(lipo)     H(rot)  DE(clash)    DE(int)     intcor
     11.98     -15.85       0.89        0.00     108.53       2.07       0.92       2.94       ----

> <Gold.Chemscore.Fitness>
11.9848

> <Gold.Chemscore.DG>
-15.8492

> <Gold.Chemscore.ZeroCoef>
-5.4800

> <Gold.Chemscore.Hbond>
0.8858

> <Gold.Chemscore.Metal>
0.0000

> <Gold.Chemscore.Lipo>
108.5349

> <Gold.Chemscore.Internal_Hbond>
0.0000

> <Gold.Chemscore.DEClash>
0.9217

> <Gold.Chemscore.DEInternal>
2.9427

> <Gold.Chemscore.Rot>
2.0656

> <Gold.Chemscore.Internal.Correction>
   9.000000E+99

> <Gold.Chemscore.Hbonds>
donor molecule, donor type, donor heavy atom, donor atom, acceptor molecule, acceptor atom, score
      L1  H    13    31       P1  8028  0.16
      L1  H    15    42       P1  8028  0.02

> <Gold.Chemscore.Hbond.Weighted>
-2.9585

> <Gold.Chemscore.Metal.Weighted>
-0.0000

> <Gold.Chemscore.Lipo.Weighted>
-12.6986

> <Gold.Chemscore.Internal_Hbond.Weighted>
0.0000

> <Gold.Chemscore.DEClash.Weighted>
0.9217

> <Gold.Chemscore.DEInternal.Weighted>
2.9427

> <Gold.Chemscore.Rot.Weighted>
5.2879

> <Gold.Chemscore.Internal.Correction.Weighted>
   9.000000E+99

> <Gold.Protein.RotatedTorsions>
[ 6907 6896 6895 6894 ] final   -3.22 input  -60.11 | X-H torsion
[ 7974 7965 7964 7962 ] final  -38.80 input  175.53 | X-H torsion
[ 8008 7997 7996 7995 ] final  -74.33 input   59.86 | X-H torsion
[ 10167 10162 10161 10158 ] final   71.95 input  -65.29 | X-H torsion
[ 10718 10713 10712 10709 ] final   52.31 input   66.30 | X-H torsion
[ 10763 10752 10751 10750 ] final -128.60 input  -60.55 | X-H torsion
[ 11005 11000 10999 10996 ] final -143.73 input  -57.11 | X-H torsion

> <Gold.Protein.ActiveResidues>
 VAL166  LYS551  ARG553  GLY616  TRP617  ASP618  TYR619  PRO620  LYS621  CYS622 
 ASP623  PHE694  ASN695  SER759  ASP760  ASP761  ALA762  ILE779  LEU786  VAL792 
 PHE793  MET794  SER795  GLU796  ALA797  LYS798  CYS799  TRP800  GLU811  SER814 

> <Gold.Protein.RotatedAtoms>
  151.5173  135.1066  159.9869 H   0  0  0  0  0  0  0  0  0  0  0  0  # atno 6907 bound_to 6896
  152.4636  133.7870  159.6892 H   0  0  0  0  0  0  0  0  0  0  0  0  # atno 6908 bound_to 6896
  150.8609  133.7581  159.3018 H   0  0  0  0  0  0  0  0  0  0  0  0  # atno 6909 bound_to 6896
  146.0454  140.6553  142.9067 H   0  0  0  0  0  0  0  0  0  0  0  0  # atno 7974 bound_to 7965
  154.5321  140.0763  156.8363 H   0  0  0  0  0  0  0  0  0  0  0  0  # atno 8008 bound_to 7997
  155.3353  140.3404  155.4221 H   0  0  0  0  0  0  0  0  0  0  0  0  # atno 8009 bound_to 7997
  156.1792  140.1646  156.8293 H   0  0  0  0  0  0  0  0  0  0  0  0  # atno 8010 bound_to 7997
  140.0405  144.5393  150.7438 H   0  0  0  0  0  0  0  0  0  0  0  0  # atno 10167 bound_to 10162
  157.5062  130.8470  149.8378 H   0  0  0  0  0  0  0  0  0  0  0  0  # atno 10718 bound_to 10713
  154.8756  135.3923  154.3783 H   0  0  0  0  0  0  0  0  0  0  0  0  # atno 10763 bound_to 10752
  153.4534  135.7028  153.6100 H   0  0  0  0  0  0  0  0  0  0  0  0  # atno 10764 bound_to 10752
  153.4630  135.3807  155.2317 H   0  0  0  0  0  0  0  0  0  0  0  0  # atno 10765 bound_to 10752
  140.8096  134.2760  157.4946 H   0  0  0  0  0  0  0  0  0  0  0  0  # atno 11005 bound_to 11000
  144.7095  140.3984  143.7091 LP  0  0  0  0  0  0  0  0  0  0  0  0  # atno 17320 bound_to 7965
  145.6815  139.1619  143.2698 LP  0  0  0  0  0  0  0  0  0  0  0  0  # atno 17321 bound_to 7965
  140.7262  143.2639  151.4112 LP  0  0  0  0  0  0  0  0  0  0  0  0  # atno 17342 bound_to 10162
  139.6017  144.1282  152.2205 LP  0  0  0  0  0  0  0  0  0  0  0  0  # atno 17343 bound_to 10162
  156.0260  130.3779  150.1822 LP  0  0  0  0  0  0  0  0  0  0  0  0  # atno 17370 bound_to 10713
  157.0012  130.9923  151.3390 LP  0  0  0  0  0  0  0  0  0  0  0  0  # atno 17371 bound_to 10713
  139.8715  134.9475  156.3970 LP  0  0  0  0  0  0  0  0  0  0  0  0  # atno 17394 bound_to 11000
  140.9211  133.7644  155.9908 LP  0  0  0  0  0  0  0  0  0  0  0  0  # atno 17395 bound_to 11000

$$$$
