AV-unprocessed.smi:3336|AV-procd|sdf|12860|dock8
  -GOLD-   2272019253D 1   1.00000     0.00000
 Structure written by MMmdl.
 41 42  0  0  0  0  0  0  0  0  1 V2000
  149.0261  140.0298  157.6905 C   0  0  0  0  0  0  0  0  0  0  0  0
  149.4595  141.4892  157.4777 C   0  0  1  0  0  0  0  0  0  0  0  0
  150.9635  141.6177  157.1236 C   0  0  0  0  0  0  0  0  0  0  0  0
  151.6646  142.6495  157.8716 N   0  0  0  0  0  0  0  0  0  0  0  0
  151.7001  144.0078  157.6333 C   0  0  0  0  0  0  0  0  0  0  0  0
  152.4923  144.5695  158.5933 C   0  0  0  0  0  0  0  0  0  0  0  0
  152.9062  143.4595  159.3814 C   0  0  0  0  0  0  0  0  0  0  0  0
  152.4141  142.3121  158.9440 N   0  0  0  0  0  0  0  0  0  0  0  0
  148.5762  142.0548  156.4531 N   0  0  0  0  0  0  0  0  0  0  0  0
  148.2395  141.1863  155.3050 C   0  0  1  0  0  0  0  0  0  0  0  0
  147.5759  142.0350  154.2089 C   0  0  0  0  0  0  0  0  0  0  0  0
  149.4500  140.4208  154.7204 C   0  0  0  0  0  0  0  0  0  0  0  0
  150.4602  141.0677  154.4365 O   0  0  0  0  0  0  0  0  0  0  0  0
  149.3851  139.0792  154.5248 N   0  0  0  0  0  0  0  0  0  0  0  0
  150.4830  138.1887  154.1270 C   0  0  0  0  0  0  0  0  0  0  0  0
  150.7510  137.1984  155.2752 C   0  0  0  0  0  0  0  0  0  0  0  0
  149.5638  136.4707  155.5764 O   0  0  0  0  0  0  0  0  0  0  0  0
  148.4773  137.3134  155.9489 C   0  0  0  0  0  0  0  0  0  0  0  0
  148.1759  138.2964  154.8048 C   0  0  0  0  0  0  0  0  0  0  0  0
  149.6518  139.5419  158.4382 H   0  0  0  0  0  0  0  0  0  0  0  0
  149.0920  139.4473  156.7709 H   0  0  0  0  0  0  0  0  0  0  0  0
  147.9952  139.9739  158.0417 H   0  0  0  0  0  0  0  0  0  0  0  0
  149.2944  142.0037  158.4238 H   0  0  0  0  0  0  0  0  0  0  0  0
  151.4869  140.6696  157.2488 H   0  0  0  0  0  0  0  0  0  0  0  0
  151.0590  141.8576  156.0640 H   0  0  0  0  0  0  0  0  0  0  0  0
  151.1619  144.4559  156.8110 H   0  0  0  0  0  0  0  0  0  0  0  0
  152.7389  145.6138  158.7138 H   0  0  0  0  0  0  0  0  0  0  0  0
  153.5472  143.4533  160.2508 H   0  0  0  0  0  0  0  0  0  0  0  0
  148.9539  142.9374  156.1391 H   0  0  0  0  0  0  0  0  0  0  0  0
  147.4988  140.4787  155.6651 H   0  0  0  0  0  0  0  0  0  0  0  0
  147.2653  141.4254  153.3602 H   0  0  0  0  0  0  0  0  0  0  0  0
  148.2522  142.8046  153.8344 H   0  0  0  0  0  0  0  0  0  0  0  0
  146.6850  142.5349  154.5903 H   0  0  0  0  0  0  0  0  0  0  0  0
  150.1978  137.6489  153.2229 H   0  0  0  0  0  0  0  0  0  0  0  0
  151.4148  138.6954  153.8912 H   0  0  0  0  0  0  0  0  0  0  0  0
  151.5328  136.4942  154.9908 H   0  0  0  0  0  0  0  0  0  0  0  0
  151.1017  137.7229  156.1655 H   0  0  0  0  0  0  0  0  0  0  0  0
  147.6047  136.6932  156.1542 H   0  0  0  0  0  0  0  0  0  0  0  0
  148.7153  137.8481  156.8697 H   0  0  0  0  0  0  0  0  0  0  0  0
  147.3160  138.9131  155.0686 H   0  0  0  0  0  0  0  0  0  0  0  0
  147.8859  137.7487  153.9066 H   0  0  0  0  0  0  0  0  0  0  0  0
  1  2  1  0  0  0  0
  1 20  1  0  0  0  0
  1 21  1  0  0  0  0
  1 22  1  0  0  0  0
  2  3  1  0  0  0  0
  2  9  1  0  0  0  0
  2 23  1  0  0  0  0
  3  4  1  0  0  0  0
  3 24  1  0  0  0  0
  3 25  1  0  0  0  0
  4  8  1  0  0  0  0
  4  5  1  0  0  0  0
  5  6  2  0  0  0  0
  5 26  1  0  0  0  0
  6  7  1  0  0  0  0
  6 27  1  0  0  0  0
  7  8  2  0  0  0  0
  7 28  1  0  0  0  0
  9 10  1  0  0  0  0
  9 29  1  0  0  0  0
 10 11  1  0  0  0  0
 10 12  1  0  0  0  0
 10 30  1  0  0  0  0
 11 31  1  0  0  0  0
 11 32  1  0  0  0  0
 11 33  1  0  0  0  0
 12 13  2  0  0  0  0
 12 14  1  0  0  0  0
 14 19  1  0  0  0  0
 14 15  1  0  0  0  0
 15 16  1  0  0  0  0
 15 34  1  0  0  0  0
 15 35  1  0  0  0  0
 16 17  1  0  0  0  0
 16 36  1  0  0  0  0
 16 37  1  0  0  0  0
 17 18  1  0  0  0  0
 18 19  1  0  0  0  0
 18 38  1  0  0  0  0
 18 39  1  0  0  0  0
 19 40  1  0  0  0  0
 19 41  1  0  0  0  0
M  END
> <s_m_source_file>
AV-unprocessed.smi

> <i_m_source_file_index>
3336

> <i_lp_mmshare_version>
43012

> <i_f3d_flags>
0

> <s_epik_input>
bjFbY0hdW2NIXVtjSF1uMVtDSDJdW0NAQEhdKFtDSDNdKVtOSF1bQ0BIXShbQ0gzXSlDKD1PKU4yW0NIMl1bQ0gyXU9bQ0gyXVtDSDJdMg==

> <s_epik_cmdline>
J2VwaWtfcHl0aG9uJywgJy1waCcsICc3LjAnLCAnLXRuJywgJzgnLCAnLW1hJywgJzIwMCcsICctbWV0YWxfYmluZGluZycsICctaW1hZScsICc8aW5maWxlLm1hZT4nLCAnLW9tYWUnLCAnPG91dGZpbGUubWFlPic=

> <r_lp_tautomer_probability>
1

> <r_epik_Ionization_Penalty>
0.739958

> <r_epik_Ionization_Penalty_Charging>
0

> <r_epik_Ionization_Penalty_Neutral>
0.739958

> <r_epik_State_Penalty>
0.765967

> <r_epik_Charging_Adjusted_Penalty>
0.765967

> <i_epik_Tot_Q>
0

> <i_epik_Tot_abs_Q>
0

> <r_epik_Metal_State_Penalty>
0.765947

> <b_epik_Metal_Only>
0

> <s_lp_Force_Field>
OPLS_2005

> <r_lp_Energy>
28.3858

> <b_lp_Chiralities_Consistent>
1

> <s_lp_Variant>
AV-unprocessed.smi:3336-8

> <Gold.Version>
5.8.1

> <Gold.Id.Protein>
6NUR|6NUR_protein|mol2

> <Gold.PLP.Fitness>
40.1633

> <Gold.PLP.PLP>
-35.5010

> <Gold.PLP.part.hbond>
-1.3854

> <Gold.PLP.part.metal>
0.0000

> <Gold.PLP.part.buried>
-3.2110

> <Gold.PLP.part.nonpolar>
-32.3954

> <Gold.PLP.part.repulsive>
0.2713

> <Gold.PLP.ligand.clash>
0.0000

> <Gold.PLP.ligand.torsion>
1.4774

> <Gold.PLP.Chemscore.Hbond>
1.5216

> <Gold.PLP.Chemscore.CHOScore>
1.0000

> <Gold.PLP.Chemscore.Metal>
0.0000

> <Gold.Chemscore.Hbonds>
donor molecule, donor type, donor heavy atom, donor atom, acceptor molecule, acceptor atom, score
      L1  H     9    29       P1  8028  1.00
      P1  H  7989  7998       L1    13  0.55
      L1  C     5    26       P1  8028  1.00

> <Gold.PLP.Chemscore.Internal.Correction>
0.0525

> <Gold.Rescore>
     Score         DG    S(hbond)    S(metal)    S(lipo)     H(rot)  DE(clash)    DE(int)     intcor
     12.16     -15.81       1.81        0.00      76.02       1.79       0.09       3.57       ----

> <Gold.Chemscore.Fitness>
12.1592

> <Gold.Chemscore.DG>
-15.8145

> <Gold.Chemscore.ZeroCoef>
-5.4800

> <Gold.Chemscore.Hbond>
1.8058

> <Gold.Chemscore.Metal>
0.0000

> <Gold.Chemscore.Lipo>
76.0215

> <Gold.Chemscore.Internal_Hbond>
0.0000

> <Gold.Chemscore.DEClash>
0.0884

> <Gold.Chemscore.DEInternal>
3.5669

> <Gold.Chemscore.Rot>
1.7935

> <Gold.Chemscore.Internal.Correction>
   9.000000E+99

> <Gold.Chemscore.Hbonds>
donor molecule, donor type, donor heavy atom, donor atom, acceptor molecule, acceptor atom, score
      L1  H     9    29       P1  8028  0.98
      P1  H  7989  7998       L1    13  0.53

> <Gold.Chemscore.Hbond.Weighted>
-6.0312

> <Gold.Chemscore.Metal.Weighted>
-0.0000

> <Gold.Chemscore.Lipo.Weighted>
-8.8945

> <Gold.Chemscore.Internal_Hbond.Weighted>
0.0000

> <Gold.Chemscore.DEClash.Weighted>
0.0884

> <Gold.Chemscore.DEInternal.Weighted>
3.5669

> <Gold.Chemscore.Rot.Weighted>
4.5912

> <Gold.Chemscore.Internal.Correction.Weighted>
   9.000000E+99

> <Gold.Protein.RotatedTorsions>
[ 6907 6896 6895 6894 ] final  118.75 input  -60.11 | X-H torsion
[ 7974 7965 7964 7962 ] final   70.81 input  175.53 | X-H torsion
[ 8008 7997 7996 7995 ] final -144.75 input   59.86 | X-H torsion
[ 10167 10162 10161 10158 ] final -157.93 input  -65.29 | X-H torsion
[ 10718 10713 10712 10709 ] final   67.46 input   66.30 | X-H torsion
[ 10763 10752 10751 10750 ] final    4.89 input  -60.55 | X-H torsion
[ 11005 11000 10999 10996 ] final    4.08 input  -57.11 | X-H torsion

> <Gold.Protein.ActiveResidues>
 VAL166  LYS551  ARG553  GLY616  TRP617  ASP618  TYR619  PRO620  LYS621  CYS622 
 ASP623  PHE694  ASN695  SER759  ASP760  ASP761  ALA762  ILE779  LEU786  VAL792 
 PHE793  MET794  SER795  GLU796  ALA797  LYS798  CYS799  TRP800  GLU811  SER814 

> <Gold.Protein.RotatedAtoms>
  152.4521  133.7650  159.6767 H   0  0  0  0  0  0  0  0  0  0  0  0  # atno 6907 bound_to 6896
  150.8436  133.7887  159.3058 H   0  0  0  0  0  0  0  0  0  0  0  0  # atno 6908 bound_to 6896
  151.5504  135.1070  160.0000 H   0  0  0  0  0  0  0  0  0  0  0  0  # atno 6909 bound_to 6896
  145.7736  139.2854  143.1307 H   0  0  0  0  0  0  0  0  0  0  0  0  # atno 7974 bound_to 7965
  155.5320  140.0600  157.2887 H   0  0  0  0  0  0  0  0  0  0  0  0  # atno 8008 bound_to 7997
  154.4481  140.1934  156.0548 H   0  0  0  0  0  0  0  0  0  0  0  0  # atno 8009 bound_to 7997
  156.0646  140.3268  155.7506 H   0  0  0  0  0  0  0  0  0  0  0  0  # atno 8010 bound_to 7997
  139.6732  143.9709  152.2295 H   0  0  0  0  0  0  0  0  0  0  0  0  # atno 10167 bound_to 10162
  157.6231  130.9322  150.0245 H   0  0  0  0  0  0  0  0  0  0  0  0  # atno 10718 bound_to 10713
  153.2658  135.6927  153.7531 H   0  0  0  0  0  0  0  0  0  0  0  0  # atno 10763 bound_to 10752
  153.6573  135.3366  155.3118 H   0  0  0  0  0  0  0  0  0  0  0  0  # atno 10764 bound_to 10752
  154.8447  135.4468  154.1664 H   0  0  0  0  0  0  0  0  0  0  0  0  # atno 10765 bound_to 10752
  140.5859  133.9969  155.8067 H   0  0  0  0  0  0  0  0  0  0  0  0  # atno 11005 bound_to 11000
  146.0145  140.8405  142.9954 LP  0  0  0  0  0  0  0  0  0  0  0  0  # atno 17320 bound_to 7965
  144.6808  140.2538  143.7328 LP  0  0  0  0  0  0  0  0  0  0  0  0  # atno 17321 bound_to 7965
  139.9479  144.6639  150.8201 LP  0  0  0  0  0  0  0  0  0  0  0  0  # atno 17342 bound_to 10162
  140.7626  143.3201  151.2641 LP  0  0  0  0  0  0  0  0  0  0  0  0  # atno 17343 bound_to 10162
  156.1388  130.3642  149.9615 LP  0  0  0  0  0  0  0  0  0  0  0  0  # atno 17370 bound_to 10713
  156.7660  130.9168  151.3643 LP  0  0  0  0  0  0  0  0  0  0  0  0  # atno 17371 bound_to 10713
  141.0966  133.9834  157.3149 LP  0  0  0  0  0  0  0  0  0  0  0  0  # atno 17394 bound_to 11000
  139.9296  135.0200  156.8354 LP  0  0  0  0  0  0  0  0  0  0  0  0  # atno 17395 bound_to 11000

$$$$
