AV-unprocessed.smi:442|AV-procd|sdf|2583|dock4
  -GOLD-   2262022573D 1   1.00000     0.00000
 Structure written by MMmdl.
 37 37  0  0  0  0  0  0  0  0  3 V2000
  152.2568  143.7956  161.9295 C   0  0  0  0  0  0  0  0  0  0  0  0
  152.2498  143.6785  160.3984 C   0  0  0  0  0  0  0  0  0  0  0  0
  152.1170  142.2325  159.8810 C   0  0  2  0  0  0  0  0  0  0  0  0
  153.3439  141.3858  160.2473 C   0  0  0  0  0  0  0  0  0  0  0  0
  151.9426  142.2169  158.4293 N   0  0  0  0  0  0  0  0  0  0  0  0
  150.8492  141.8028  157.7697 C   0  0  0  0  0  0  0  0  0  0  0  0
  149.8314  141.3944  158.3305 O   0  0  0  0  0  0  0  0  0  0  0  0
  150.9195  141.8910  156.2385 C   0  0  0  0  0  0  0  0  0  0  0  0
  150.3150  140.7294  155.5606 N   0  0  0  0  0  0  0  0  0  0  0  0
  150.9160  139.4808  155.8000 C   0  0  0  0  0  0  0  0  0  0  0  0
  150.4652  138.3476  155.2343 C   0  0  0  0  0  0  0  0  0  0  0  0
  151.1057  137.0755  155.4913 N   0  3  0  0  0  0  0  0  0  0  0  0
  152.2507  137.0700  155.9316 O   0  0  0  0  0  0  0  0  0  0  0  0
  150.4878  136.0402  155.2611 O   0  5  0  0  0  0  0  0  0  0  0  0
  149.3188  138.4402  154.3540 C   0  0  0  0  0  0  0  0  0  0  0  0
  148.7254  139.6355  154.1042 C   0  0  0  0  0  0  0  0  0  0  0  0
  147.5518  139.7768  153.2131 C   0  0  0  0  0  0  0  0  0  0  0  0
  147.3780  138.7560  152.3641 N   0  0  0  0  0  0  0  0  0  0  0  0
  146.7535  140.7130  153.1843 O   0  0  0  0  0  0  0  0  0  0  0  0
  149.2359  140.8851  154.7312 C   0  0  0  0  0  0  0  0  0  0  0  0
  148.7599  142.0092  154.5506 O   0  0  0  0  0  0  0  0  0  0  0  0
  152.4122  144.8299  162.2369 H   0  0  0  0  0  0  0  0  0  0  0  0
  153.0556  143.1957  162.3664 H   0  0  0  0  0  0  0  0  0  0  0  0
  151.3128  143.4635  162.3621 H   0  0  0  0  0  0  0  0  0  0  0  0
  151.4423  144.2912  159.9951 H   0  0  0  0  0  0  0  0  0  0  0  0
  153.1757  144.1094  160.0155 H   0  0  0  0  0  0  0  0  0  0  0  0
  151.2537  141.7764  160.3690 H   0  0  0  0  0  0  0  0  0  0  0  0
  153.4895  141.3528  161.3275 H   0  0  0  0  0  0  0  0  0  0  0  0
  154.2541  141.7886  159.8015 H   0  0  0  0  0  0  0  0  0  0  0  0
  153.2295  140.3581  159.9009 H   0  0  0  0  0  0  0  0  0  0  0  0
  152.7246  142.5424  157.8800 H   0  0  0  0  0  0  0  0  0  0  0  0
  150.4274  142.8147  155.9312 H   0  0  0  0  0  0  0  0  0  0  0  0
  151.9594  142.0120  155.9285 H   0  0  0  0  0  0  0  0  0  0  0  0
  151.7689  139.5134  156.4625 H   0  0  0  0  0  0  0  0  0  0  0  0
  148.9512  137.5295  153.9056 H   0  0  0  0  0  0  0  0  0  0  0  0
  146.6033  138.7603  151.7171 H   0  0  0  0  0  0  0  0  0  0  0  0
  148.0257  137.9815  152.3766 H   0  0  0  0  0  0  0  0  0  0  0  0
  1  2  1  0  0  0  0
  1 22  1  0  0  0  0
  1 23  1  0  0  0  0
  1 24  1  0  0  0  0
  2  3  1  0  0  0  0
  2 25  1  0  0  0  0
  2 26  1  0  0  0  0
  3  4  1  0  0  0  0
  3  5  1  0  0  0  0
  3 27  1  0  0  0  0
  4 28  1  0  0  0  0
  4 29  1  0  0  0  0
  4 30  1  0  0  0  0
  5  6  1  0  0  0  0
  5 31  1  0  0  0  0
  6  7  2  0  0  0  0
  6  8  1  0  0  0  0
  8  9  1  0  0  0  0
  8 32  1  0  0  0  0
  8 33  1  0  0  0  0
  9 20  1  0  0  0  0
  9 10  1  0  0  0  0
 10 11  2  0  0  0  0
 10 34  1  0  0  0  0
 11 12  1  0  0  0  0
 11 15  1  0  0  0  0
 12 13  2  0  0  0  0
 12 14  1  0  0  0  0
 15 16  2  0  0  0  0
 15 35  1  0  0  0  0
 16 17  1  0  0  0  0
 16 20  1  0  0  0  0
 17 18  1  0  0  0  0
 17 19  2  0  0  0  0
 18 36  1  0  0  0  0
 18 37  1  0  0  0  0
 20 21  2  0  0  0  0
M  CHG  1  12   1
M  CHG  1  14  -1
M  END
> <s_m_source_file>
AV-unprocessed.smi

> <i_m_source_file_index>
442

> <i_lp_mmshare_version>
43012

> <i_f3d_flags>
0

> <s_epik_input>
W0NIM11bQ0gyXVtDQEhdKFtDSDNdKVtOSF1DKD1PKVtDSDJdbjFbY0hdYyhbTitdKD1PKVtPLV0pW2NIXWMoYzE9TylDKD1PKVtOSDJd

> <s_epik_cmdline>
J2VwaWtfcHl0aG9uJywgJy1waCcsICc3LjAnLCAnLXRuJywgJzgnLCAnLW1hJywgJzIwMCcsICctbWV0YWxfYmluZGluZycsICctaW1hZScsICc8aW5maWxlLm1hZT4nLCAnLW9tYWUnLCAnPG91dGZpbGUubWFlPic=

> <r_lp_tautomer_probability>
1

> <r_epik_Ionization_Penalty>
2.86914e-06

> <r_epik_Ionization_Penalty_Charging>
2.2828e-12

> <r_epik_Ionization_Penalty_Neutral>
2.86914e-06

> <r_epik_State_Penalty>
-0

> <r_epik_Charging_Adjusted_Penalty>
2.2828e-12

> <i_epik_Tot_Q>
0

> <i_epik_Tot_abs_Q>
2

> <r_epik_Metal_State_Penalty>
-0

> <b_epik_Metal_Only>
0

> <s_lp_Force_Field>
OPLS_2005

> <r_lp_Energy>
21.8648

> <b_lp_Chiralities_Consistent>
1

> <s_lp_Variant>
AV-unprocessed.smi:442-1

> <Gold.Version>
5.8.1

> <Gold.Id.Protein>
6NUR|6NUR_protein|mol2

> <Gold.PLP.Fitness>
43.6250

> <Gold.PLP.PLP>
-38.9494

> <Gold.PLP.part.hbond>
-4.0000

> <Gold.PLP.part.metal>
0.0000

> <Gold.PLP.part.buried>
-3.6347

> <Gold.PLP.part.nonpolar>
-32.9323

> <Gold.PLP.part.repulsive>
1.9553

> <Gold.PLP.ligand.clash>
0.0000

> <Gold.PLP.ligand.torsion>
0.6447

> <Gold.PLP.Chemscore.Hbond>
1.9603

> <Gold.PLP.Chemscore.CHOScore>
0.0000

> <Gold.PLP.Chemscore.Metal>
0.0000

> <Gold.Chemscore.Hbonds>
donor molecule, donor type, donor heavy atom, donor atom, acceptor molecule, acceptor atom, score
      L1  H    18    37       P1  7948  1.00
      P1  H 10752 10765       L1    13  0.93

> <Gold.PLP.Chemscore.Internal.Correction>
0.0842

> <Gold.Rescore>
     Score         DG    S(hbond)    S(metal)    S(lipo)     H(rot)  DE(clash)    DE(int)     intcor
     12.36     -14.68       1.81        0.00      71.58       2.03       0.23       2.08       ----

> <Gold.Chemscore.Fitness>
12.3611

> <Gold.Chemscore.DG>
-14.6781

> <Gold.Chemscore.ZeroCoef>
-5.4800

> <Gold.Chemscore.Hbond>
1.8054

> <Gold.Chemscore.Metal>
0.0000

> <Gold.Chemscore.Lipo>
71.5824

> <Gold.Chemscore.Internal_Hbond>
0.0000

> <Gold.Chemscore.DEClash>
0.2328

> <Gold.Chemscore.DEInternal>
2.0842

> <Gold.Chemscore.Rot>
2.0340

> <Gold.Chemscore.Internal.Correction>
   9.000000E+99

> <Gold.Chemscore.Hbonds>
donor molecule, donor type, donor heavy atom, donor atom, acceptor molecule, acceptor atom, score
      L1  H    18    37       P1  7948  0.93
      P1  H 10752 10765       L1    13  0.30

> <Gold.Chemscore.Hbond.Weighted>
-6.0301

> <Gold.Chemscore.Metal.Weighted>
-0.0000

> <Gold.Chemscore.Lipo.Weighted>
-8.3751

> <Gold.Chemscore.Internal_Hbond.Weighted>
0.0000

> <Gold.Chemscore.DEClash.Weighted>
0.2328

> <Gold.Chemscore.DEInternal.Weighted>
2.0842

> <Gold.Chemscore.Rot.Weighted>
5.2071

> <Gold.Chemscore.Internal.Correction.Weighted>
   9.000000E+99

> <Gold.Protein.RotatedTorsions>
[ 6907 6896 6895 6894 ] final   22.78 input  -60.11 | X-H torsion
[ 7974 7965 7964 7962 ] final    2.13 input  175.53 | X-H torsion
[ 8008 7997 7996 7995 ] final -109.43 input   59.86 | X-H torsion
[ 10167 10162 10161 10158 ] final  -95.04 input  -65.29 | X-H torsion
[ 10718 10713 10712 10709 ] final   70.19 input   66.30 | X-H torsion
[ 10763 10752 10751 10750 ] final -158.42 input  -60.55 | X-H torsion
[ 11005 11000 10999 10996 ] final  -19.04 input  -57.11 | X-H torsion

> <Gold.Protein.ActiveResidues>
 VAL166  LYS551  ARG553  GLY616  TRP617  ASP618  TYR619  PRO620  LYS621  CYS622 
 ASP623  PHE694  ASN695  SER759  ASP760  ASP761  ALA762  ILE779  LEU786  VAL792 
 PHE793  MET794  SER795  GLU796  ALA797  LYS798  CYS799  TRP800  GLU811  SER814 

> <Gold.Protein.RotatedAtoms>
  151.9324  135.0250  160.0529 H   0  0  0  0  0  0  0  0  0  0  0  0  # atno 6907 bound_to 6896
  152.2107  133.4904  159.5117 H   0  0  0  0  0  0  0  0  0  0  0  0  # atno 6908 bound_to 6896
  150.6975  134.1387  159.4139 H   0  0  0  0  0  0  0  0  0  0  0  0  # atno 6909 bound_to 6896
  146.2443  140.0883  142.8353 H   0  0  0  0  0  0  0  0  0  0  0  0  # atno 7974 bound_to 7965
  154.9592  140.0399  157.2182 H   0  0  0  0  0  0  0  0  0  0  0  0  # atno 8008 bound_to 7997
  154.7905  140.2834  155.5973 H   0  0  0  0  0  0  0  0  0  0  0  0  # atno 8009 bound_to 7997
  156.2949  140.2574  156.2751 H   0  0  0  0  0  0  0  0  0  0  0  0  # atno 8010 bound_to 7997
  140.3082  143.3121  152.0176 H   0  0  0  0  0  0  0  0  0  0  0  0  # atno 10167 bound_to 10162
  157.6387  130.9464  150.0617 H   0  0  0  0  0  0  0  0  0  0  0  0  # atno 10718 bound_to 10713
  154.7557  135.3104  154.8473 H   0  0  0  0  0  0  0  0  0  0  0  0  # atno 10763 bound_to 10752
  153.9248  135.6791  153.4751 H   0  0  0  0  0  0  0  0  0  0  0  0  # atno 10764 bound_to 10752
  153.1155  135.4846  154.9037 H   0  0  0  0  0  0  0  0  0  0  0  0  # atno 10765 bound_to 10752
  140.8327  133.7984  155.9776 H   0  0  0  0  0  0  0  0  0  0  0  0  # atno 11005 bound_to 11000
  145.0673  140.9130  143.4903 LP  0  0  0  0  0  0  0  0  0  0  0  0  # atno 17320 bound_to 7965
  145.1010  139.2823  143.5686 LP  0  0  0  0  0  0  0  0  0  0  0  0  # atno 17321 bound_to 7965
  139.4899  144.6404  151.6888 LP  0  0  0  0  0  0  0  0  0  0  0  0  # atno 17342 bound_to 10162
  140.5591  144.0298  150.6161 LP  0  0  0  0  0  0  0  0  0  0  0  0  # atno 17343 bound_to 10162
  156.1647  130.3645  149.9249 LP  0  0  0  0  0  0  0  0  0  0  0  0  # atno 17370 bound_to 10713
  156.7238  130.9017  151.3620 LP  0  0  0  0  0  0  0  0  0  0  0  0  # atno 17371 bound_to 10713
  140.8980  134.2413  157.5057 LP  0  0  0  0  0  0  0  0  0  0  0  0  # atno 17394 bound_to 11000
  139.8704  134.9693  156.4662 LP  0  0  0  0  0  0  0  0  0  0  0  0  # atno 17395 bound_to 11000

$$$$
