AV-unprocessed.smi:3249|AV-procd|sdf|12421|dock6
  -GOLD-   2272018303D 1   1.00000     0.00000
 Structure written by MMmdl.
 44 45  0  0  0  0  0  0  0  0  2 V2000
  151.3980  143.9443  157.0681 C   0  0  0  0  0  0  0  0  0  0  0  0
  151.7782  143.8166  158.5152 C   0  0  0  0  0  0  0  0  0  0  0  0
  151.9886  144.8600  159.4607 C   0  0  0  0  0  0  0  0  0  0  0  0
  152.3156  144.4079  160.6602 N   0  0  0  0  0  0  0  0  0  0  0  0
  152.3306  143.0644  160.5258 N   0  0  0  0  0  0  0  0  0  0  0  0
  152.6472  142.2262  161.6753 C   0  0  2  0  0  0  0  0  0  0  0  0
  153.1789  143.0999  162.8263 C   0  0  0  0  0  0  0  0  0  0  0  0
  153.6082  141.0684  161.2955 C   0  0  2  0  0  0  0  0  0  0  0  0
  152.8996  139.9028  160.5818 C   0  0  0  0  0  0  0  0  0  0  0  0
  154.2870  140.5447  162.5019 N   0  3  0  0  0  0  0  0  0  0  0  0
  155.0882  139.3226  162.2844 C   0  0  0  0  0  0  0  0  0  0  0  0
  154.5748  138.1665  163.1529 C   0  0  1  0  0  0  0  0  0  0  0  0
  154.7506  138.4575  164.6559 C   0  0  0  0  0  0  0  0  0  0  0  0
  154.1373  137.3338  165.4987 C   0  0  0  0  0  0  0  0  0  0  0  0
  152.6847  137.1006  165.0702 C   0  0  0  0  0  0  0  0  0  0  0  0
  152.6036  136.8856  163.5506 C   0  0  0  0  0  0  0  0  0  0  0  0
  153.1869  137.9944  162.8724 O   0  0  0  0  0  0  0  0  0  0  0  0
  152.0056  142.6814  159.2397 C   0  0  0  0  0  0  0  0  0  0  0  0
  151.2921  144.9867  156.7664 H   0  0  0  0  0  0  0  0  0  0  0  0
  150.4493  143.4506  156.8571 H   0  0  0  0  0  0  0  0  0  0  0  0
  152.1468  143.4962  156.4149 H   0  0  0  0  0  0  0  0  0  0  0  0
  151.9128  145.9270  159.3111 H   0  0  0  0  0  0  0  0  0  0  0  0
  151.7102  141.7811  162.0168 H   0  0  0  0  0  0  0  0  0  0  0  0
  153.2850  142.5265  163.7474 H   0  0  0  0  0  0  0  0  0  0  0  0
  152.4961  143.9233  163.0388 H   0  0  0  0  0  0  0  0  0  0  0  0
  154.1524  143.5290  162.5877 H   0  0  0  0  0  0  0  0  0  0  0  0
  154.3586  141.4541  160.6027 H   0  0  0  0  0  0  0  0  0  0  0  0
  152.4722  140.2104  159.6273 H   0  0  0  0  0  0  0  0  0  0  0  0
  152.0920  139.4971  161.1922 H   0  0  0  0  0  0  0  0  0  0  0  0
  153.5968  139.0913  160.3707 H   0  0  0  0  0  0  0  0  0  0  0  0
  154.8926  141.2676  162.8644 H   0  0  0  0  0  0  0  0  0  0  0  0
  155.0268  139.0531  161.2292 H   0  0  0  0  0  0  0  0  0  0  0  0
  156.1383  139.5176  162.5059 H   0  0  0  0  0  0  0  0  0  0  0  0
  155.1163  137.2545  162.8942 H   0  0  0  0  0  0  0  0  0  0  0  0
  155.8075  138.5700  164.8995 H   0  0  0  0  0  0  0  0  0  0  0  0
  154.2699  139.4039  164.9070 H   0  0  0  0  0  0  0  0  0  0  0  0
  154.7127  136.4169  165.3636 H   0  0  0  0  0  0  0  0  0  0  0  0
  154.1863  137.5823  166.5592 H   0  0  0  0  0  0  0  0  0  0  0  0
  152.2686  136.2413  165.5969 H   0  0  0  0  0  0  0  0  0  0  0  0
  152.0775  137.9630  165.3481 H   0  0  0  0  0  0  0  0  0  0  0  0
  153.1062  135.9619  163.2598 H   0  0  0  0  0  0  0  0  0  0  0  0
  151.5625  136.7922  163.2412 H   0  0  0  0  0  0  0  0  0  0  0  0
  151.9635  141.6425  158.9475 H   0  0  0  0  0  0  0  0  0  0  0  0
  153.5849  140.3391  163.1984 H   0  0  0  0  0  0  0  0  0  0  0  0
  1  2  1  0  0  0  0
  1 19  1  0  0  0  0
  1 20  1  0  0  0  0
  1 21  1  0  0  0  0
  2 18  2  0  0  0  0
  2  3  1  0  0  0  0
  3  4  2  0  0  0  0
  3 22  1  0  0  0  0
  4  5  1  0  0  0  0
  5  6  1  0  0  0  0
  5 18  1  0  0  0  0
  6  7  1  0  0  0  0
  6  8  1  0  0  0  0
  6 23  1  0  0  0  0
  7 24  1  0  0  0  0
  7 25  1  0  0  0  0
  7 26  1  0  0  0  0
  8  9  1  0  0  0  0
  8 10  1  0  0  0  0
  8 27  1  0  0  0  0
  9 28  1  0  0  0  0
  9 29  1  0  0  0  0
  9 30  1  0  0  0  0
 10 11  1  0  0  0  0
 10 31  1  0  0  0  0
 10 44  1  0  0  0  0
 11 12  1  0  0  0  0
 11 32  1  0  0  0  0
 11 33  1  0  0  0  0
 12 17  1  0  0  0  0
 12 13  1  0  0  0  0
 12 34  1  0  0  0  0
 13 14  1  0  0  0  0
 13 35  1  0  0  0  0
 13 36  1  0  0  0  0
 14 15  1  0  0  0  0
 14 37  1  0  0  0  0
 14 38  1  0  0  0  0
 15 16  1  0  0  0  0
 15 39  1  0  0  0  0
 15 40  1  0  0  0  0
 16 17  1  0  0  0  0
 16 41  1  0  0  0  0
 16 42  1  0  0  0  0
 18 43  1  0  0  0  0
M  CHG  1  10   1
M  END
> <s_m_source_file>
AV-unprocessed.smi

> <i_m_source_file_index>
3249

> <i_lp_mmshare_version>
43012

> <i_f3d_flags>
0

> <s_epik_input>
W0NIM11jMVtjSF1ubihbY0hdMSlbQ0BIXShbQ0gzXSlbQ0BIXShbQ0gzXSlbTkhdW0NIMl1bQ0BASF0yW0NIMl1bQ0gyXVtDSDJdW0NIMl1PMg==

> <s_epik_cmdline>
J2VwaWtfcHl0aG9uJywgJy1waCcsICc3LjAnLCAnLXRuJywgJzgnLCAnLW1hJywgJzIwMCcsICctbWV0YWxfYmluZGluZycsICctaW1hZScsICc8aW5maWxlLm1hZT4nLCAnLW9tYWUnLCAnPG91dGZpbGUubWFlPic=

> <r_lp_tautomer_probability>
1

> <r_epik_Ionization_Penalty>
0.00659207

> <r_epik_Ionization_Penalty_Charging>
0.00656881

> <r_epik_Ionization_Penalty_Neutral>
2.32662e-05

> <r_epik_State_Penalty>
0.0048654

> <r_epik_Charging_Adjusted_Penalty>
0.0114342

> <i_epik_Tot_Q>
1

> <i_epik_Tot_abs_Q>
1

> <r_epik_Metal_State_Penalty>
-0

> <b_epik_Metal_Only>
0

> <s_lp_Force_Field>
OPLS_2005

> <r_lp_Energy>
18.8744

> <b_lp_Chiralities_Consistent>
1

> <s_lp_Variant>
AV-unprocessed.smi:3249-5

> <Gold.Version>
5.8.1

> <Gold.Id.Protein>
6NUR|6NUR_protein|mol2

> <Gold.PLP.Fitness>
47.2083

> <Gold.PLP.PLP>
-49.4325

> <Gold.PLP.part.hbond>
-1.0000

> <Gold.PLP.part.metal>
0.0000

> <Gold.PLP.part.buried>
-4.4029

> <Gold.PLP.part.nonpolar>
-43.6479

> <Gold.PLP.part.repulsive>
0.1243

> <Gold.PLP.ligand.clash>
0.0000

> <Gold.PLP.ligand.torsion>
1.1788

> <Gold.PLP.Chemscore.Hbond>
0.0000

> <Gold.PLP.Chemscore.CHOScore>
0.0000

> <Gold.PLP.Chemscore.Metal>
0.0000

> <Gold.PLP.Chemscore.Internal.Correction>
0.1333

> <Gold.Rescore>
     Score         DG    S(hbond)    S(metal)    S(lipo)     H(rot)  DE(clash)    DE(int)     intcor
     16.31     -17.51       0.00        0.00     136.36       1.53       0.61       0.59       ----

> <Gold.Chemscore.Fitness>
16.3109

> <Gold.Chemscore.DG>
-17.5095

> <Gold.Chemscore.ZeroCoef>
-5.4800

> <Gold.Chemscore.Hbond>
0.0000

> <Gold.Chemscore.Metal>
0.0000

> <Gold.Chemscore.Lipo>
136.3649

> <Gold.Chemscore.Internal_Hbond>
0.0000

> <Gold.Chemscore.DEClash>
0.6082

> <Gold.Chemscore.DEInternal>
0.5904

> <Gold.Chemscore.Rot>
1.5333

> <Gold.Chemscore.Internal.Correction>
   9.000000E+99

> <Gold.Chemscore.Hbond.Weighted>
-0.0000

> <Gold.Chemscore.Metal.Weighted>
-0.0000

> <Gold.Chemscore.Lipo.Weighted>
-15.9547

> <Gold.Chemscore.Internal_Hbond.Weighted>
0.0000

> <Gold.Chemscore.DEClash.Weighted>
0.6082

> <Gold.Chemscore.DEInternal.Weighted>
0.5904

> <Gold.Chemscore.Rot.Weighted>
3.9252

> <Gold.Chemscore.Internal.Correction.Weighted>
   9.000000E+99

> <Gold.Protein.RotatedTorsions>
[ 6907 6896 6895 6894 ] final   98.74 input  -60.11 | X-H torsion
[ 7974 7965 7964 7962 ] final -115.00 input  175.53 | X-H torsion
[ 8008 7997 7996 7995 ] final  -67.26 input   59.86 | X-H torsion
[ 10167 10162 10161 10158 ] final    2.26 input  -65.29 | X-H torsion
[ 10718 10713 10712 10709 ] final -148.97 input   66.30 | X-H torsion
[ 10763 10752 10751 10750 ] final -135.00 input  -60.55 | X-H torsion
[ 11005 11000 10999 10996 ] final  129.63 input  -57.11 | X-H torsion

> <Gold.Protein.ActiveResidues>
 VAL166  LYS551  ARG553  GLY616  TRP617  ASP618  TYR619  PRO620  LYS621  CYS622 
 ASP623  PHE694  ASN695  SER759  ASP760  ASP761  ALA762  ILE779  LEU786  VAL792 
 PHE793  MET794  SER795  GLU796  ALA797  LYS798  CYS799  TRP800  GLU811  SER814 

> <Gold.Protein.RotatedAtoms>
  152.5404  134.0534  159.8119 H   0  0  0  0  0  0  0  0  0  0  0  0  # atno 6907 bound_to 6896
  151.0673  133.5487  159.2637 H   0  0  0  0  0  0  0  0  0  0  0  0  # atno 6908 bound_to 6896
  151.2364  135.0581  159.9062 H   0  0  0  0  0  0  0  0  0  0  0  0  # atno 6909 bound_to 6896
  145.1135  140.8626  143.3856 H   0  0  0  0  0  0  0  0  0  0  0  0  # atno 7974 bound_to 7965
  154.4788  140.0896  156.7327 H   0  0  0  0  0  0  0  0  0  0  0  0  # atno 8008 bound_to 7997
  155.4525  140.3458  155.4284 H   0  0  0  0  0  0  0  0  0  0  0  0  # atno 8009 bound_to 7997
  156.1159  140.1460  156.9262 H   0  0  0  0  0  0  0  0  0  0  0  0  # atno 8010 bound_to 7997
  140.6643  143.7220  150.7798 H   0  0  0  0  0  0  0  0  0  0  0  0  # atno 10167 bound_to 10162
  156.4271  130.8057  151.2283 H   0  0  0  0  0  0  0  0  0  0  0  0  # atno 10718 bound_to 10713
  154.8710  135.3717  154.4828 H   0  0  0  0  0  0  0  0  0  0  0  0  # atno 10763 bound_to 10752
  153.5480  135.7025  153.5610 H   0  0  0  0  0  0  0  0  0  0  0  0  # atno 10764 bound_to 10752
  153.3741  135.4013  155.1774 H   0  0  0  0  0  0  0  0  0  0  0  0  # atno 10765 bound_to 10752
  139.9626  134.9598  156.9176 H   0  0  0  0  0  0  0  0  0  0  0  0  # atno 11005 bound_to 11000
  145.0820  139.2953  143.5779 LP  0  0  0  0  0  0  0  0  0  0  0  0  # atno 17320 bound_to 7965
  146.3525  140.0329  142.8649 LP  0  0  0  0  0  0  0  0  0  0  0  0  # atno 17321 bound_to 7965
  140.0894  143.4892  152.2487 LP  0  0  0  0  0  0  0  0  0  0  0  0  # atno 17342 bound_to 10162
  139.5887  144.7541  151.3455 LP  0  0  0  0  0  0  0  0  0  0  0  0  # atno 17343 bound_to 10162
  157.7508  131.0210  150.3731 LP  0  0  0  0  0  0  0  0  0  0  0  0  # atno 17370 bound_to 10713
  156.4061  130.3925  149.6925 LP  0  0  0  0  0  0  0  0  0  0  0  0  # atno 17371 bound_to 10713
  140.5467  134.0667  155.7357 LP  0  0  0  0  0  0  0  0  0  0  0  0  # atno 17394 bound_to 11000
  141.1304  133.9311  157.2547 LP  0  0  0  0  0  0  0  0  0  0  0  0  # atno 17395 bound_to 11000

$$$$
