AV-unprocessed.smi:245|AV-procd|sdf|1876|dock5
  -GOLD-   2262020513D 1   1.00000     0.00000
 Structure written by MMmdl.
 54 58  0  0  0  0  0  0  0  0  1 V2000
  137.7948  140.8051  154.8518 O   0  0  0  0  0  0  0  0  0  0  0  0
  138.1578  139.6361  154.9589 C   0  0  0  0  0  0  0  0  0  0  0  0
  139.4321  139.1680  154.2341 C   0  0  0  0  0  0  0  0  0  0  0  0
  139.8809  137.7937  154.5299 N   0  0  0  0  0  0  0  0  0  0  0  0
  141.0511  137.3515  153.9649 C   0  0  0  0  0  0  0  0  0  0  0  0
  142.0670  138.2423  153.7963 N   0  0  0  0  0  0  0  0  0  0  0  0
  143.2300  137.8805  153.2530 C   0  0  0  0  0  0  0  0  0  0  0  0
  143.6007  136.6825  152.8082 N   0  0  0  0  0  0  0  0  0  0  0  0
  142.6040  135.7670  152.9689 C   0  0  0  0  0  0  0  0  0  0  0  0
  141.3134  136.0096  153.5313 C   0  0  0  0  0  0  0  0  0  0  0  0
  140.5890  134.8203  153.5214 N   0  0  0  0  0  0  0  0  0  0  0  0
  141.3914  133.9413  152.9907 C   0  0  0  0  0  0  0  0  0  0  0  0
  142.6261  134.4232  152.6279 N   0  0  0  0  0  0  0  0  0  0  0  0
  143.6918  133.6687  152.0280 C   0  0  0  0  0  0  0  0  0  0  0  0
  144.4695  134.2110  150.8268 C   0  0  0  0  0  0  0  0  0  0  0  0
  144.5442  132.7924  150.2183 C   0  0  0  0  0  0  0  0  0  0  0  0
  144.1531  132.6993  148.7354 C   0  0  0  0  0  0  0  0  0  0  0  0
  142.7571  132.8312  148.5574 O   0  0  0  0  0  0  0  0  0  0  0  0
  145.8742  132.0267  150.3906 C   0  0  0  0  0  0  0  0  0  0  0  0
  146.9770  132.6928  149.8086 O   0  0  0  0  0  0  0  0  0  0  0  0
  143.4089  132.4144  151.1972 C   0  0  0  0  0  0  0  0  0  0  0  0
  139.3622  137.1402  155.7442 C   0  0  1  0  0  0  0  0  0  0  0  0
  140.0880  137.6467  157.0155 C   0  0  0  0  0  0  0  0  0  0  0  0
  139.5015  137.0243  158.2914 C   0  0  0  0  0  0  0  0  0  0  0  0
  137.9910  137.2822  158.3899 C   0  0  0  0  0  0  0  0  0  0  0  0
  137.2614  136.7557  157.1433 C   0  0  0  0  0  0  0  0  0  0  0  0
  137.8327  137.3471  155.8393 C   0  0  1  0  0  0  0  0  0  0  0  0
  137.4776  138.7553  155.7068 N   0  0  0  0  0  0  0  0  0  0  0  0
  139.2108  139.2464  153.1701 H   0  0  0  0  0  0  0  0  0  0  0  0
  140.2327  139.8721  154.4658 H   0  0  0  0  0  0  0  0  0  0  0  0
  143.9683  138.6634  153.1624 H   0  0  0  0  0  0  0  0  0  0  0  0
  141.0996  132.9105  152.8505 H   0  0  0  0  0  0  0  0  0  0  0  0
  144.3855  133.4255  152.8341 H   0  0  0  0  0  0  0  0  0  0  0  0
  143.8843  134.9016  150.2181 H   0  0  0  0  0  0  0  0  0  0  0  0
  145.4356  134.6478  151.0815 H   0  0  0  0  0  0  0  0  0  0  0  0
  144.6594  133.4636  148.1446 H   0  0  0  0  0  0  0  0  0  0  0  0
  144.4510  131.7379  148.3153 H   0  0  0  0  0  0  0  0  0  0  0  0
  142.4723  133.6212  148.9911 H   0  0  0  0  0  0  0  0  0  0  0  0
  146.0983  131.8748  151.4469 H   0  0  0  0  0  0  0  0  0  0  0  0
  145.8168  131.0363  149.9377 H   0  0  0  0  0  0  0  0  0  0  0  0
  147.7648  132.2229  150.0358 H   0  0  0  0  0  0  0  0  0  0  0  0
  143.5629  131.4794  151.7365 H   0  0  0  0  0  0  0  0  0  0  0  0
  142.4227  132.4280  150.7318 H   0  0  0  0  0  0  0  0  0  0  0  0
  139.4963  136.0594  155.6815 H   0  0  0  0  0  0  0  0  0  0  0  0
  141.1518  137.4153  156.9586 H   0  0  0  0  0  0  0  0  0  0  0  0
  140.0191  138.7328  157.0846 H   0  0  0  0  0  0  0  0  0  0  0  0
  139.6918  135.9502  158.2957 H   0  0  0  0  0  0  0  0  0  0  0  0
  140.0061  137.4318  159.1679 H   0  0  0  0  0  0  0  0  0  0  0  0
  137.5906  136.8027  159.2835 H   0  0  0  0  0  0  0  0  0  0  0  0
  137.8072  138.3511  158.5049 H   0  0  0  0  0  0  0  0  0  0  0  0
  137.3514  135.6691  157.1115 H   0  0  0  0  0  0  0  0  0  0  0  0
  136.1943  136.9683  157.2183 H   0  0  0  0  0  0  0  0  0  0  0  0
  137.3604  136.8338  155.0000 H   0  0  0  0  0  0  0  0  0  0  0  0
  136.6506  139.0737  156.1906 H   0  0  0  0  0  0  0  0  0  0  0  0
  1  2  2  0  0  0  0
  2 28  1  0  0  0  0
  2  3  1  0  0  0  0
  3  4  1  0  0  0  0
  3 29  1  0  0  0  0
  3 30  1  0  0  0  0
  4  5  1  0  0  0  0
  4 22  1  0  0  0  0
  5 10  1  0  0  0  0
  5  6  2  0  0  0  0
  6  7  1  0  0  0  0
  7  8  2  0  0  0  0
  7 31  1  0  0  0  0
  8  9  1  0  0  0  0
  9 13  1  0  0  0  0
  9 10  2  0  0  0  0
 10 11  1  0  0  0  0
 11 12  2  0  0  0  0
 12 13  1  0  0  0  0
 12 32  1  0  0  0  0
 13 14  1  0  0  0  0
 14 21  1  0  0  0  0
 14 15  1  0  0  0  0
 14 33  1  0  0  0  0
 15 16  1  0  0  0  0
 15 34  1  0  0  0  0
 15 35  1  0  0  0  0
 16 17  1  0  0  0  0
 16 19  1  0  0  0  0
 16 21  1  0  0  0  0
 17 18  1  0  0  0  0
 17 36  1  0  0  0  0
 17 37  1  0  0  0  0
 18 38  1  0  0  0  0
 19 20  1  0  0  0  0
 19 39  1  0  0  0  0
 19 40  1  0  0  0  0
 20 41  1  0  0  0  0
 21 42  1  0  0  0  0
 21 43  1  0  0  0  0
 22 27  1  0  0  0  0
 22 23  1  0  0  0  0
 22 44  1  0  0  0  0
 23 24  1  0  0  0  0
 23 45  1  0  0  0  0
 23 46  1  0  0  0  0
 24 25  1  0  0  0  0
 24 47  1  0  0  0  0
 24 48  1  0  0  0  0
 25 26  1  0  0  0  0
 25 49  1  0  0  0  0
 25 50  1  0  0  0  0
 26 27  1  0  0  0  0
 26 51  1  0  0  0  0
 26 52  1  0  0  0  0
 27 28  1  0  0  0  0
 27 53  1  0  0  0  0
 28 54  1  0  0  0  0
M  END
> <s_m_source_file>
AV-unprocessed.smi

> <i_m_source_file_index>
245

> <i_lp_mmshare_version>
43012

> <i_f3d_flags>
0

> <s_epik_input>
W0NIMl0xW0NIMl1bQ0gyXVtDSDJdW0NASF0oW0NASF0xMilbTkhdQyg9TylbQ0gyXU4yYyhuW2NIXW4zKWMoYzM0KW5bY0hdbjRbQ0hdKFtDSDJdNSlbQ0gyXUM1KFtDSDJdW09IXSlbQ0gyXVtPSF0=

> <s_epik_cmdline>
J2VwaWtfcHl0aG9uJywgJy1waCcsICc3LjAnLCAnLXRuJywgJzgnLCAnLW1hJywgJzIwMCcsICctbWV0YWxfYmluZGluZycsICctaW1hZScsICc8aW5maWxlLm1hZT4nLCAnLW9tYWUnLCAnPG91dGZpbGUubWFlPic=

> <r_lp_tautomer_probability>
1

> <r_epik_Ionization_Penalty>
0.000702616

> <r_epik_Ionization_Penalty_Charging>
0

> <r_epik_Ionization_Penalty_Neutral>
0.000702616

> <r_epik_State_Penalty>
0.000343985

> <r_epik_Charging_Adjusted_Penalty>
0.000343985

> <i_epik_Tot_Q>
0

> <i_epik_Tot_abs_Q>
0

> <r_epik_Metal_State_Penalty>
-0

> <b_epik_Metal_Only>
0

> <s_lp_Force_Field>
OPLS_2005

> <r_lp_Energy>
53.0031

> <b_lp_Chiralities_Consistent>
1

> <s_lp_Variant>
AV-unprocessed.smi:245-1

> <Gold.Version>
5.8.1

> <Gold.Id.Protein>
6NUR|6NUR_protein|mol2

> <Gold.PLP.Fitness>
48.1612

> <Gold.PLP.PLP>
-43.5017

> <Gold.PLP.part.hbond>
-6.3739

> <Gold.PLP.part.metal>
0.0000

> <Gold.PLP.part.buried>
-2.8266

> <Gold.PLP.part.nonpolar>
-36.4834

> <Gold.PLP.part.repulsive>
2.0313

> <Gold.PLP.ligand.clash>
0.0000

> <Gold.PLP.ligand.torsion>
1.8516

> <Gold.PLP.Chemscore.Hbond>
1.9782

> <Gold.PLP.Chemscore.CHOScore>
0.6498

> <Gold.PLP.Chemscore.Metal>
0.0000

> <Gold.Chemscore.Hbonds>
donor molecule, donor type, donor heavy atom, donor atom, acceptor molecule, acceptor atom, score
      L1  H    18    38       P1 10186  0.82
      L1  H    20    41       P1 10747  1.00
      L1  C     7    31       P1 10175  0.69
      L1  C    12    32       P1 10957  0.21

> <Gold.PLP.Chemscore.Internal.Correction>
0.4784

> <Gold.Rescore>
     Score         DG    S(hbond)    S(metal)    S(lipo)     H(rot)  DE(clash)    DE(int)     intcor
     10.04     -14.46       1.91        0.00      86.12       2.91       2.98       1.44       ----

> <Gold.Chemscore.Fitness>
10.0433

> <Gold.Chemscore.DG>
-14.4594

> <Gold.Chemscore.ZeroCoef>
-5.4800

> <Gold.Chemscore.Hbond>
1.9058

> <Gold.Chemscore.Metal>
0.0000

> <Gold.Chemscore.Lipo>
86.1165

> <Gold.Chemscore.Internal_Hbond>
0.0000

> <Gold.Chemscore.DEClash>
2.9761

> <Gold.Chemscore.DEInternal>
1.4400

> <Gold.Chemscore.Rot>
2.9147

> <Gold.Chemscore.Internal.Correction>
   9.000000E+99

> <Gold.Chemscore.Hbonds>
donor molecule, donor type, donor heavy atom, donor atom, acceptor molecule, acceptor atom, score
      L1  H    18    38       P1 10186  0.80
      L1  H    20    41       P1 10747  1.00

> <Gold.Chemscore.Hbond.Weighted>
-6.3654

> <Gold.Chemscore.Metal.Weighted>
-0.0000

> <Gold.Chemscore.Lipo.Weighted>
-10.0756

> <Gold.Chemscore.Internal_Hbond.Weighted>
0.0000

> <Gold.Chemscore.DEClash.Weighted>
2.9761

> <Gold.Chemscore.DEInternal.Weighted>
1.4400

> <Gold.Chemscore.Rot.Weighted>
7.4617

> <Gold.Chemscore.Internal.Correction.Weighted>
   9.000000E+99

> <Gold.Protein.RotatedTorsions>
[ 6907 6896 6895 6894 ] final   62.25 input  -60.11 | X-H torsion
[ 7974 7965 7964 7962 ] final -138.68 input  175.53 | X-H torsion
[ 8008 7997 7996 7995 ] final  127.28 input   59.86 | X-H torsion
[ 10167 10162 10161 10158 ] final  139.48 input  -65.29 | X-H torsion
[ 10718 10713 10712 10709 ] final  -16.91 input   66.30 | X-H torsion
[ 10763 10752 10751 10750 ] final  140.04 input  -60.55 | X-H torsion
[ 11005 11000 10999 10996 ] final   81.45 input  -57.11 | X-H torsion

> <Gold.Protein.ActiveResidues>
 VAL166  LYS551  ARG553  GLY616  TRP617  ASP618  TYR619  PRO620  LYS621  CYS622 
 ASP623  PHE694  ASN695  SER759  ASP760  ASP761  ALA762  ILE779  LEU786  VAL792 
 PHE793  MET794  SER795  GLU796  ALA797  LYS798  CYS799  TRP800  GLU811  SER814 

> <Gold.Protein.RotatedAtoms>
  152.4156  134.6047  160.0009 H   0  0  0  0  0  0  0  0  0  0  0  0  # atno 6907 bound_to 6896
  151.6211  133.3333  159.3096 H   0  0  0  0  0  0  0  0  0  0  0  0  # atno 6908 bound_to 6896
  150.8045  134.7200  159.6697 H   0  0  0  0  0  0  0  0  0  0  0  0  # atno 6909 bound_to 6896
  144.8738  140.6407  143.5249 H   0  0  0  0  0  0  0  0  0  0  0  0  # atno 7974 bound_to 7965
  156.2886  140.2672  156.2247 H   0  0  0  0  0  0  0  0  0  0  0  0  # atno 8008 bound_to 7997
  155.0133  140.0387  157.2426 H   0  0  0  0  0  0  0  0  0  0  0  0  # atno 8009 bound_to 7997
  154.7499  140.2741  155.6306 H   0  0  0  0  0  0  0  0  0  0  0  0  # atno 8010 bound_to 7997
  139.5077  144.6292  151.5860 H   0  0  0  0  0  0  0  0  0  0  0  0  # atno 10167 bound_to 10162
  156.5809  130.4774  149.6321 H   0  0  0  0  0  0  0  0  0  0  0  0  # atno 10718 bound_to 10713
  153.9160  135.3006  155.3448 H   0  0  0  0  0  0  0  0  0  0  0  0  # atno 10763 bound_to 10752
  154.7599  135.4939  153.9448 H   0  0  0  0  0  0  0  0  0  0  0  0  # atno 10764 bound_to 10752
  153.1167  135.6772  153.9508 H   0  0  0  0  0  0  0  0  0  0  0  0  # atno 10765 bound_to 10752
  139.9098  134.7997  156.2043 H   0  0  0  0  0  0  0  0  0  0  0  0  # atno 11005 bound_to 11000
  145.4080  139.1585  143.4141 LP  0  0  0  0  0  0  0  0  0  0  0  0  # atno 17320 bound_to 7965
  146.2949  140.4182  142.8725 LP  0  0  0  0  0  0  0  0  0  0  0  0  # atno 17321 bound_to 7965
  140.6019  143.9594  150.6392 LP  0  0  0  0  0  0  0  0  0  0  0  0  # atno 17342 bound_to 10162
  140.2809  143.3390  152.1152 LP  0  0  0  0  0  0  0  0  0  0  0  0  # atno 17343 bound_to 10162
  156.2632  130.6974  151.1749 LP  0  0  0  0  0  0  0  0  0  0  0  0  # atno 17370 bound_to 10713
  157.7326  131.0598  150.5617 LP  0  0  0  0  0  0  0  0  0  0  0  0  # atno 17371 bound_to 10713
  141.0505  133.6891  156.1763 LP  0  0  0  0  0  0  0  0  0  0  0  0  # atno 17394 bound_to 11000
  140.6817  134.4760  157.5589 LP  0  0  0  0  0  0  0  0  0  0  0  0  # atno 17395 bound_to 11000

$$$$
