AV-unprocessed.smi:767|AV-procd|sdf|3662|dock2
  -GOLD-   22720 1 73D 1   1.00000     0.00000
 Structure written by MMmdl.
 47 49  0  0  0  0  0  0  0  0  1 V2000
  143.9234  132.7112  149.1316 C   0  0  0  0  0  0  0  0  0  0  0  0
  144.9674  132.8634  150.2179 C   0  0  0  0  0  0  0  0  0  0  0  0
  145.4165  131.7415  150.9446 C   0  0  0  0  0  0  0  0  0  0  0  0
  146.3922  131.9351  151.9408 C   0  0  0  0  0  0  0  0  0  0  0  0
  146.8835  133.2366  152.1693 C   0  0  0  0  0  0  0  0  0  0  0  0
  147.9639  133.4895  153.2080 C   0  0  0  0  0  0  0  0  0  0  0  0
  147.5002  134.3769  154.3820 C   0  0  0  0  0  0  0  0  0  0  0  0
  147.8332  135.7859  154.1971 N   0  0  0  0  0  0  0  0  0  0  0  0
  147.5625  136.7665  155.0681 C   0  0  0  0  0  0  0  0  0  0  0  0
  146.9512  136.6060  156.1244 O   0  0  0  0  0  0  0  0  0  0  0  0
  148.0657  137.9372  154.6586 N   0  0  0  0  0  0  0  0  0  0  0  0
  147.9989  139.1934  155.4073 C   0  0  1  0  0  0  0  0  0  0  0  0
  149.3343  139.5690  156.0946 C   0  0  1  0  0  0  0  0  0  0  0  0
  150.4868  138.6062  156.2368 C   0  0  0  0  0  0  0  0  0  0  0  0
  151.3600  138.9302  155.0207 C   0  0  0  0  0  0  0  0  0  0  0  0
  150.4996  139.6275  154.1209 O   0  0  0  0  0  0  0  0  0  0  0  0
  149.6285  140.4519  154.8933 C   0  0  1  0  0  0  0  0  0  0  0  0
  148.1376  140.4404  154.4942 C   0  0  0  0  0  0  0  0  0  0  0  0
  147.8324  140.2972  152.9968 C   0  0  0  0  0  0  0  0  0  0  0  0
  147.3517  141.6633  154.9775 C   0  0  0  0  0  0  0  0  0  0  0  0
  146.3589  134.2926  151.3947 C   0  0  0  0  0  0  0  0  0  0  0  0
  145.4226  134.1167  150.4375 N   0  0  0  0  0  0  0  0  0  0  0  0
  143.9575  131.7112  148.6982 H   0  0  0  0  0  0  0  0  0  0  0  0
  144.0867  133.4317  148.3293 H   0  0  0  0  0  0  0  0  0  0  0  0
  142.9271  132.8740  149.5430 H   0  0  0  0  0  0  0  0  0  0  0  0
  145.0287  130.7541  150.7411 H   0  0  0  0  0  0  0  0  0  0  0  0
  146.7656  131.0948  152.5078 H   0  0  0  0  0  0  0  0  0  0  0  0
  148.3198  132.5313  153.5875 H   0  0  0  0  0  0  0  0  0  0  0  0
  148.8205  133.9563  152.7200 H   0  0  0  0  0  0  0  0  0  0  0  0
  146.4152  134.3184  154.4704 H   0  0  0  0  0  0  0  0  0  0  0  0
  147.9057  134.0087  155.3254 H   0  0  0  0  0  0  0  0  0  0  0  0
  148.3449  136.0245  153.3602 H   0  0  0  0  0  0  0  0  0  0  0  0
  148.5607  137.9615  153.7790 H   0  0  0  0  0  0  0  0  0  0  0  0
  147.1424  139.2584  156.0811 H   0  0  0  0  0  0  0  0  0  0  0  0
  149.1525  140.1686  156.9881 H   0  0  0  0  0  0  0  0  0  0  0  0
  151.0380  138.7587  157.1650 H   0  0  0  0  0  0  0  0  0  0  0  0
  150.1567  137.5697  156.2250 H   0  0  0  0  0  0  0  0  0  0  0  0
  152.1822  139.5881  155.3053 H   0  0  0  0  0  0  0  0  0  0  0  0
  151.7816  138.0372  154.5589 H   0  0  0  0  0  0  0  0  0  0  0  0
  150.0550  141.4237  155.1464 H   0  0  0  0  0  0  0  0  0  0  0  0
  148.0531  141.2167  152.4539 H   0  0  0  0  0  0  0  0  0  0  0  0
  146.7820  140.0589  152.8264 H   0  0  0  0  0  0  0  0  0  0  0  0
  148.4223  139.5094  152.5282 H   0  0  0  0  0  0  0  0  0  0  0  0
  147.6591  142.5700  154.4557 H   0  0  0  0  0  0  0  0  0  0  0  0
  147.4991  141.8427  156.0429 H   0  0  0  0  0  0  0  0  0  0  0  0
  146.2802  141.5379  154.8188 H   0  0  0  0  0  0  0  0  0  0  0  0
  146.7082  135.3044  151.5384 H   0  0  0  0  0  0  0  0  0  0  0  0
  1  2  1  0  0  0  0
  1 23  1  0  0  0  0
  1 24  1  0  0  0  0
  1 25  1  0  0  0  0
  2 22  1  0  0  0  0
  2  3  2  0  0  0  0
  3  4  1  0  0  0  0
  3 26  1  0  0  0  0
  4  5  2  0  0  0  0
  4 27  1  0  0  0  0
  5  6  1  0  0  0  0
  5 21  1  0  0  0  0
  6  7  1  0  0  0  0
  6 28  1  0  0  0  0
  6 29  1  0  0  0  0
  7  8  1  0  0  0  0
  7 30  1  0  0  0  0
  7 31  1  0  0  0  0
  8  9  1  0  0  0  0
  8 32  1  0  0  0  0
  9 10  2  0  0  0  0
  9 11  1  0  0  0  0
 11 12  1  0  0  0  0
 11 33  1  0  0  0  0
 12 18  1  0  0  0  0
 12 13  1  0  0  0  0
 12 34  1  0  0  0  0
 13 17  1  0  0  0  0
 13 14  1  0  0  0  0
 13 35  1  0  0  0  0
 14 15  1  0  0  0  0
 14 36  1  0  0  0  0
 14 37  1  0  0  0  0
 15 16  1  0  0  0  0
 15 38  1  0  0  0  0
 15 39  1  0  0  0  0
 16 17  1  0  0  0  0
 17 18  1  0  0  0  0
 17 40  1  0  0  0  0
 18 19  1  0  0  0  0
 18 20  1  0  0  0  0
 19 41  1  0  0  0  0
 19 42  1  0  0  0  0
 19 43  1  0  0  0  0
 20 44  1  0  0  0  0
 20 45  1  0  0  0  0
 20 46  1  0  0  0  0
 21 22  2  0  0  0  0
 21 47  1  0  0  0  0
M  END
> <s_m_source_file>
AV-unprocessed.smi

> <i_m_source_file_index>
767

> <i_lp_mmshare_version>
43012

> <i_f3d_flags>
0

> <s_epik_input>
W0NIM11jMVtjSF1bY0hdYyhbY0hdbjEpW0NIMl1bQ0gyXVtOSF1DKD1PKVtOSF1bQ0BIXTJDKFtDSDNdKShbQ0gzXSlbQ0BIXShbQ0BASF0yMylPW0NIMl1bQ0gyXTM=

> <s_epik_cmdline>
J2VwaWtfcHl0aG9uJywgJy1waCcsICc3LjAnLCAnLXRuJywgJzgnLCAnLW1hJywgJzIwMCcsICctbWV0YWxfYmluZGluZycsICctaW1hZScsICc8aW5maWxlLm1hZT4nLCAnLW9tYWUnLCAnPG91dGZpbGUubWFlPic=

> <r_epik_Ionization_Penalty>
0.0567523

> <r_epik_Ionization_Penalty_Charging>
0

> <r_epik_Ionization_Penalty_Neutral>
0.0567523

> <r_epik_State_Penalty>
0.0489186

> <r_epik_Charging_Adjusted_Penalty>
0.0489186

> <i_epik_Tot_Q>
0

> <i_epik_Tot_abs_Q>
0

> <r_epik_Metal_State_Penalty>
0.044622

> <b_epik_Metal_Only>
0

> <s_lp_Force_Field>
OPLS_2005

> <r_lp_Energy>
33.3409

> <b_lp_Chiralities_Consistent>
1

> <s_lp_Variant>
AV-unprocessed.smi:767-6

> <Gold.Version>
5.8.1

> <Gold.Id.Protein>
6NUR|6NUR_protein|mol2

> <Gold.PLP.Fitness>
39.2931

> <Gold.PLP.PLP>
-31.1557

> <Gold.PLP.part.hbond>
-2.0000

> <Gold.PLP.part.metal>
0.0000

> <Gold.PLP.part.buried>
-1.1801

> <Gold.PLP.part.nonpolar>
-29.3105

> <Gold.PLP.part.repulsive>
1.1918

> <Gold.PLP.ligand.clash>
0.0000

> <Gold.PLP.ligand.torsion>
0.5340

> <Gold.PLP.Chemscore.Hbond>
2.0000

> <Gold.PLP.Chemscore.CHOScore>
1.0000

> <Gold.PLP.Chemscore.Metal>
0.0000

> <Gold.Chemscore.Hbonds>
donor molecule, donor type, donor heavy atom, donor atom, acceptor molecule, acceptor atom, score
      L1  H     8    32       P1  7948  1.00
      P1  H  7989  7998       L1    16  1.00
      L1  C    21    47       P1  7948  1.00

> <Gold.PLP.Chemscore.Internal.Correction>
0.2055

> <Gold.Rescore>
     Score         DG    S(hbond)    S(metal)    S(lipo)     H(rot)  DE(clash)    DE(int)     intcor
     16.08     -17.41       1.45        0.00      92.45       1.45       0.76       0.57       ----

> <Gold.Chemscore.Fitness>
16.0830

> <Gold.Chemscore.DG>
-17.4130

> <Gold.Chemscore.ZeroCoef>
-5.4800

> <Gold.Chemscore.Hbond>
1.4454

> <Gold.Chemscore.Metal>
0.0000

> <Gold.Chemscore.Lipo>
92.4481

> <Gold.Chemscore.Internal_Hbond>
0.0000

> <Gold.Chemscore.DEClash>
0.7605

> <Gold.Chemscore.DEInternal>
0.5696

> <Gold.Chemscore.Rot>
1.4497

> <Gold.Chemscore.Internal.Correction>
   9.000000E+99

> <Gold.Chemscore.Hbonds>
donor molecule, donor type, donor heavy atom, donor atom, acceptor molecule, acceptor atom, score
      L1  H     8    32       P1  7948  0.99
      P1  H  7989  7998       L1    16  0.09

> <Gold.Chemscore.Hbond.Weighted>
-4.8278

> <Gold.Chemscore.Metal.Weighted>
-0.0000

> <Gold.Chemscore.Lipo.Weighted>
-10.8164

> <Gold.Chemscore.Internal_Hbond.Weighted>
0.0000

> <Gold.Chemscore.DEClash.Weighted>
0.7605

> <Gold.Chemscore.DEInternal.Weighted>
0.5696

> <Gold.Chemscore.Rot.Weighted>
3.7112

> <Gold.Chemscore.Internal.Correction.Weighted>
   9.000000E+99

> <Gold.Protein.RotatedTorsions>
[ 6907 6896 6895 6894 ] final -160.16 input  -60.11 | X-H torsion
[ 7974 7965 7964 7962 ] final   12.21 input  175.53 | X-H torsion
[ 8008 7997 7996 7995 ] final  140.64 input   59.86 | X-H torsion
[ 10167 10162 10161 10158 ] final   38.69 input  -65.29 | X-H torsion
[ 10718 10713 10712 10709 ] final   83.85 input   66.30 | X-H torsion
[ 10763 10752 10751 10750 ] final  -22.97 input  -60.55 | X-H torsion
[ 11005 11000 10999 10996 ] final   61.57 input  -57.11 | X-H torsion

> <Gold.Protein.ActiveResidues>
 VAL166  LYS551  ARG553  GLY616  TRP617  ASP618  TYR619  PRO620  LYS621  CYS622 
 ASP623  PHE694  ASN695  SER759  ASP760  ASP761  ALA762  ILE779  LEU786  VAL792 
 PHE793  MET794  SER795  GLU796  ALA797  LYS798  CYS799  TRP800  GLU811  SER814 

> <Gold.Protein.RotatedAtoms>
  151.3448  133.3948  159.2674 H   0  0  0  0  0  0  0  0  0  0  0  0  # atno 6907 bound_to 6896
  150.9848  134.9197  159.7876 H   0  0  0  0  0  0  0  0  0  0  0  0  # atno 6908 bound_to 6896
  152.5229  134.3412  159.9270 H   0  0  0  0  0  0  0  0  0  0  0  0  # atno 6909 bound_to 6896
  146.2356  139.9370  142.8488 H   0  0  0  0  0  0  0  0  0  0  0  0  # atno 7974 bound_to 7965
  156.2976  140.2336  156.4434 H   0  0  0  0  0  0  0  0  0  0  0  0  # atno 8008 bound_to 7997
  154.8165  140.0440  157.1401 H   0  0  0  0  0  0  0  0  0  0  0  0  # atno 8009 bound_to 7997
  154.9363  140.3023  155.5146 H   0  0  0  0  0  0  0  0  0  0  0  0  # atno 8010 bound_to 7997
  140.3912  144.1850  150.6131 H   0  0  0  0  0  0  0  0  0  0  0  0  # atno 10167 bound_to 10162
  157.6887  131.0108  150.2585 H   0  0  0  0  0  0  0  0  0  0  0  0  # atno 10718 bound_to 10713
  153.6604  135.6976  153.5179 H   0  0  0  0  0  0  0  0  0  0  0  0  # atno 10763 bound_to 10752
  153.2636  135.4237  155.0918 H   0  0  0  0  0  0  0  0  0  0  0  0  # atno 10764 bound_to 10752
  154.8453  135.3561  154.6149 H   0  0  0  0  0  0  0  0  0  0  0  0  # atno 10765 bound_to 10752
  140.0152  134.6235  155.9720 H   0  0  0  0  0  0  0  0  0  0  0  0  # atno 11005 bound_to 11000
  145.1989  140.9845  143.4167 LP  0  0  0  0  0  0  0  0  0  0  0  0  # atno 17320 bound_to 7965
  144.9791  139.3801  143.6271 LP  0  0  0  0  0  0  0  0  0  0  0  0  # atno 17321 bound_to 7965
  140.4837  143.2370  151.8918 LP  0  0  0  0  0  0  0  0  0  0  0  0  # atno 17342 bound_to 10162
  139.4789  144.5241  151.8760 LP  0  0  0  0  0  0  0  0  0  0  0  0  # atno 17343 bound_to 10162
  156.3169  130.3780  149.7611 LP  0  0  0  0  0  0  0  0  0  0  0  0  # atno 17370 bound_to 10713
  156.5193  130.8208  151.3198 LP  0  0  0  0  0  0  0  0  0  0  0  0  # atno 17371 bound_to 10713
  141.1738  133.6539  156.4751 LP  0  0  0  0  0  0  0  0  0  0  0  0  # atno 17394 bound_to 11000
  140.4483  134.6952  157.5027 LP  0  0  0  0  0  0  0  0  0  0  0  0  # atno 17395 bound_to 11000

$$$$
