AV-unprocessed.smi:2326|AV-procd|sdf|9297|dock5
  -GOLD-   2272012513D 1   1.00000     0.00000
 Structure written by MMmdl.
 37 38  0  0  0  0  0  0  0  0  1 V2000
  153.4841  140.9868  160.0684 C   0  0  0  0  0  0  0  0  0  0  0  0
  152.8064  142.1961  159.4586 C   0  0  0  0  0  0  0  0  0  0  0  0
  153.1015  143.4974  159.9103 C   0  0  0  0  0  0  0  0  0  0  0  0
  152.4315  144.5764  159.3063 C   0  0  0  0  0  0  0  0  0  0  0  0
  151.4995  144.3118  158.2842 C   0  0  0  0  0  0  0  0  0  0  0  0
  151.2621  142.9760  157.8891 C   0  0  0  0  0  0  0  0  0  0  0  0
  150.2973  142.8146  156.8596 N   0  0  0  0  0  0  0  0  0  0  0  0
  149.6785  141.6861  156.4706 C   0  0  0  0  0  0  0  0  0  0  0  0
  149.9223  140.5597  156.9030 O   0  0  0  0  0  0  0  0  0  0  0  0
  148.7496  141.9479  155.5352 N   0  0  0  0  0  0  0  0  0  0  0  0
  147.8280  141.0131  154.8717 C   0  0  0  0  0  0  0  0  0  0  0  0
  148.6228  139.8354  154.2676 C   0  0  0  0  0  0  0  0  0  0  0  0
  146.7319  140.4987  155.8375 C   0  0  0  0  0  0  0  0  0  0  0  0
  145.7878  141.6268  156.2910 C   0  0  0  0  0  0  0  0  0  0  0  0
  145.1907  142.2420  155.1553 O   0  0  0  0  0  0  0  0  0  0  0  0
  146.1422  142.8469  154.2877 C   0  0  0  0  0  0  0  0  0  0  0  0
  147.1119  141.7819  153.7401 C   0  0  0  0  0  0  0  0  0  0  0  0
  151.9140  141.9422  158.4774 N   0  0  0  0  0  0  0  0  0  0  0  0
  154.3151  141.2814  160.7100 H   0  0  0  0  0  0  0  0  0  0  0  0
  153.8741  140.3322  159.2884 H   0  0  0  0  0  0  0  0  0  0  0  0
  152.7728  140.4194  160.6691 H   0  0  0  0  0  0  0  0  0  0  0  0
  153.8203  143.6670  160.6987 H   0  0  0  0  0  0  0  0  0  0  0  0
  152.6274  145.5903  159.6225 H   0  0  0  0  0  0  0  0  0  0  0  0
  150.9737  145.1291  157.8119 H   0  0  0  0  0  0  0  0  0  0  0  0
  150.0223  143.6628  156.3871 H   0  0  0  0  0  0  0  0  0  0  0  0
  148.6517  142.9138  155.2589 H   0  0  0  0  0  0  0  0  0  0  0  0
  147.9719  139.1701  153.6993 H   0  0  0  0  0  0  0  0  0  0  0  0
  149.1033  139.2297  155.0358 H   0  0  0  0  0  0  0  0  0  0  0  0
  149.4010  140.1884  153.5899 H   0  0  0  0  0  0  0  0  0  0  0  0
  146.1371  139.7364  155.3324 H   0  0  0  0  0  0  0  0  0  0  0  0
  147.1630  140.0027  156.7066 H   0  0  0  0  0  0  0  0  0  0  0  0
  144.9987  141.2193  156.9232 H   0  0  0  0  0  0  0  0  0  0  0  0
  146.3175  142.3706  156.8880 H   0  0  0  0  0  0  0  0  0  0  0  0
  145.6102  143.3242  153.4646 H   0  0  0  0  0  0  0  0  0  0  0  0
  146.6783  143.6375  154.8146 H   0  0  0  0  0  0  0  0  0  0  0  0
  147.8393  142.2490  153.0745 H   0  0  0  0  0  0  0  0  0  0  0  0
  146.5436  141.0828  153.1246 H   0  0  0  0  0  0  0  0  0  0  0  0
  1  2  1  0  0  0  0
  1 19  1  0  0  0  0
  1 20  1  0  0  0  0
  1 21  1  0  0  0  0
  2 18  1  0  0  0  0
  2  3  2  0  0  0  0
  3  4  1  0  0  0  0
  3 22  1  0  0  0  0
  4  5  2  0  0  0  0
  4 23  1  0  0  0  0
  5  6  1  0  0  0  0
  5 24  1  0  0  0  0
  6  7  1  0  0  0  0
  6 18  2  0  0  0  0
  7  8  1  0  0  0  0
  7 25  1  0  0  0  0
  8  9  2  0  0  0  0
  8 10  1  0  0  0  0
 10 11  1  0  0  0  0
 10 26  1  0  0  0  0
 11 17  1  0  0  0  0
 11 12  1  0  0  0  0
 11 13  1  0  0  0  0
 12 27  1  0  0  0  0
 12 28  1  0  0  0  0
 12 29  1  0  0  0  0
 13 14  1  0  0  0  0
 13 30  1  0  0  0  0
 13 31  1  0  0  0  0
 14 15  1  0  0  0  0
 14 32  1  0  0  0  0
 14 33  1  0  0  0  0
 15 16  1  0  0  0  0
 16 17  1  0  0  0  0
 16 34  1  0  0  0  0
 16 35  1  0  0  0  0
 17 36  1  0  0  0  0
 17 37  1  0  0  0  0
M  END
> <s_m_source_file>
AV-unprocessed.smi

> <i_m_source_file_index>
2326

> <i_lp_mmshare_version>
43012

> <i_f3d_flags>
0

> <s_epik_input>
W0NIM11jMVtjSF1bY0hdW2NIXWMobjEpW05IXUMoPU8pW05IXUMyKFtDSDNdKVtDSDJdW0NIMl1PW0NIMl1bQ0gyXTI=

> <s_epik_cmdline>
J2VwaWtfcHl0aG9uJywgJy1waCcsICc3LjAnLCAnLXRuJywgJzgnLCAnLW1hJywgJzIwMCcsICctbWV0YWxfYmluZGluZycsICctaW1hZScsICc8aW5maWxlLm1hZT4nLCAnLW9tYWUnLCAnPG91dGZpbGUubWFlPic=

> <r_lp_tautomer_probability>
1

> <r_epik_Ionization_Penalty>
8.85415e-05

> <r_epik_Ionization_Penalty_Charging>
0

> <r_epik_Ionization_Penalty_Neutral>
8.85415e-05

> <r_epik_State_Penalty>
-0

> <r_epik_Charging_Adjusted_Penalty>
0

> <i_epik_Tot_Q>
0

> <i_epik_Tot_abs_Q>
0

> <r_epik_Metal_State_Penalty>
-0

> <b_epik_Metal_Only>
0

> <s_lp_Force_Field>
OPLS_2005

> <r_lp_Energy>
11.1562

> <b_lp_Chiralities_Consistent>
1

> <s_lp_Variant>
AV-unprocessed.smi:2326-1

> <Gold.Version>
5.8.1

> <Gold.Id.Protein>
6NUR|6NUR_protein|mol2

> <Gold.PLP.Fitness>
43.3579

> <Gold.PLP.PLP>
-37.7722

> <Gold.PLP.part.hbond>
-2.0000

> <Gold.PLP.part.metal>
0.0000

> <Gold.PLP.part.buried>
-6.1328

> <Gold.PLP.part.nonpolar>
-30.5314

> <Gold.PLP.part.repulsive>
0.3676

> <Gold.PLP.ligand.clash>
0.0000

> <Gold.PLP.ligand.torsion>
0.1508

> <Gold.PLP.Chemscore.Hbond>
1.9600

> <Gold.PLP.Chemscore.CHOScore>
0.0000

> <Gold.PLP.Chemscore.Metal>
0.0000

> <Gold.Chemscore.Hbonds>
donor molecule, donor type, donor heavy atom, donor atom, acceptor molecule, acceptor atom, score
      L1  H     7    25       P1  8028  1.00
      L1  H    10    26       P1  8028  1.00

> <Gold.PLP.Chemscore.Internal.Correction>
0.0073

> <Gold.Rescore>
     Score         DG    S(hbond)    S(metal)    S(lipo)     H(rot)  DE(clash)    DE(int)     intcor
     18.03     -19.36       1.90        0.00      86.26       1.00       0.00       1.33       ----

> <Gold.Chemscore.Fitness>
18.0262

> <Gold.Chemscore.DG>
-19.3623

> <Gold.Chemscore.ZeroCoef>
-5.4800

> <Gold.Chemscore.Hbond>
1.9012

> <Gold.Chemscore.Metal>
0.0000

> <Gold.Chemscore.Lipo>
86.2604

> <Gold.Chemscore.Internal_Hbond>
0.0000

> <Gold.Chemscore.DEClash>
0.0029

> <Gold.Chemscore.DEInternal>
1.3332

> <Gold.Chemscore.Rot>
1.0000

> <Gold.Chemscore.Internal.Correction>
   9.000000E+99

> <Gold.Chemscore.Hbonds>
donor molecule, donor type, donor heavy atom, donor atom, acceptor molecule, acceptor atom, score
      L1  H     7    25       P1  8028  0.98
      L1  H    10    26       P1  8028  0.94

> <Gold.Chemscore.Hbond.Weighted>
-6.3499

> <Gold.Chemscore.Metal.Weighted>
-0.0000

> <Gold.Chemscore.Lipo.Weighted>
-10.0925

> <Gold.Chemscore.Internal_Hbond.Weighted>
0.0000

> <Gold.Chemscore.DEClash.Weighted>
0.0029

> <Gold.Chemscore.DEInternal.Weighted>
1.3332

> <Gold.Chemscore.Rot.Weighted>
2.5600

> <Gold.Chemscore.Internal.Correction.Weighted>
   9.000000E+99

> <Gold.Protein.RotatedTorsions>
[ 6907 6896 6895 6894 ] final -139.82 input  -60.11 | X-H torsion
[ 7974 7965 7964 7962 ] final   -7.96 input  175.53 | X-H torsion
[ 8008 7997 7996 7995 ] final  -45.88 input   59.86 | X-H torsion
[ 10167 10162 10161 10158 ] final  128.57 input  -65.29 | X-H torsion
[ 10718 10713 10712 10709 ] final  160.69 input   66.30 | X-H torsion
[ 10763 10752 10751 10750 ] final -100.95 input  -60.55 | X-H torsion
[ 11005 11000 10999 10996 ] final  171.38 input  -57.11 | X-H torsion

> <Gold.Protein.ActiveResidues>
 VAL166  LYS551  ARG553  GLY616  TRP617  ASP618  TYR619  PRO620  LYS621  CYS622 
 ASP623  PHE694  ASN695  SER759  ASP760  ASP761  ALA762  ILE779  LEU786  VAL792 
 PHE793  MET794  SER795  GLU796  ALA797  LYS798  CYS799  TRP800  GLU811  SER814 

> <Gold.Protein.RotatedAtoms>
  151.0527  133.5611  159.2640 H   0  0  0  0  0  0  0  0  0  0  0  0  # atno 6907 bound_to 6896
  151.2616  135.0655  159.9110 H   0  0  0  0  0  0  0  0  0  0  0  0  # atno 6908 bound_to 6896
  152.5384  134.0271  159.8062 H   0  0  0  0  0  0  0  0  0  0  0  0  # atno 6909 bound_to 6896
  146.2293  140.2397  142.8343 H   0  0  0  0  0  0  0  0  0  0  0  0  # atno 7974 bound_to 7965
  154.4003  140.1385  156.3920 H   0  0  0  0  0  0  0  0  0  0  0  0  # atno 8008 bound_to 7997
  155.7905  140.3479  155.5326 H   0  0  0  0  0  0  0  0  0  0  0  0  # atno 8009 bound_to 7997
  155.8584  140.0952  157.1620 H   0  0  0  0  0  0  0  0  0  0  0  0  # atno 8010 bound_to 7997
  139.5521  144.6821  151.4293 H   0  0  0  0  0  0  0  0  0  0  0  0  # atno 10167 bound_to 10162
  157.1469  131.0554  151.2299 H   0  0  0  0  0  0  0  0  0  0  0  0  # atno 10718 bound_to 10713
  154.7619  135.4916  153.9481 H   0  0  0  0  0  0  0  0  0  0  0  0  # atno 10763 bound_to 10752
  153.1262  135.6743  153.9261 H   0  0  0  0  0  0  0  0  0  0  0  0  # atno 10764 bound_to 10752
  153.8978  135.3113  155.3427 H   0  0  0  0  0  0  0  0  0  0  0  0  # atno 10765 bound_to 10752
  140.3184  134.7458  157.4045 H   0  0  0  0  0  0  0  0  0  0  0  0  # atno 11005 bound_to 11000
  144.9494  140.8162  143.5581 LP  0  0  0  0  0  0  0  0  0  0  0  0  # atno 17320 bound_to 7965
  145.2356  139.2095  143.5020 LP  0  0  0  0  0  0  0  0  0  0  0  0  # atno 17321 bound_to 7965
  140.6785  143.8134  150.7090 LP  0  0  0  0  0  0  0  0  0  0  0  0  # atno 17342 bound_to 10162
  140.1581  143.4299  152.2086 LP  0  0  0  0  0  0  0  0  0  0  0  0  # atno 17343 bound_to 10162
  157.4256  130.7462  149.6948 LP  0  0  0  0  0  0  0  0  0  0  0  0  # atno 17370 bound_to 10713
  155.9778  130.4059  150.3690 LP  0  0  0  0  0  0  0  0  0  0  0  0  # atno 17371 bound_to 10713
  140.0963  134.5532  155.8395 LP  0  0  0  0  0  0  0  0  0  0  0  0  # atno 17394 bound_to 11000
  141.2092  133.6681  156.6425 LP  0  0  0  0  0  0  0  0  0  0  0  0  # atno 17395 bound_to 11000

$$$$
