AV-unprocessed.smi:1047|AV-procd|sdf|4561|dock2
  -GOLD-   22720 3 03D 1   1.00000     0.00000
 Structure written by MMmdl.
 57 59  0  0  0  0  0  0  0  0  3 V2000
  144.3639  132.1332  149.9422 C   0  0  0  0  0  0  0  0  0  0  0  0
  144.2577  133.5838  150.4341 C   0  0  0  0  0  0  0  0  0  0  0  0
  145.5712  134.2815  150.4325 N   0  3  2  0  0  0  0  0  0  0  0  0
  146.6199  133.5723  151.2054 C   0  0  0  0  0  0  0  0  0  0  0  0
  146.4470  133.8011  152.7174 C   0  0  0  0  0  0  0  0  0  0  0  0
  146.4588  135.1978  152.9887 O   0  0  0  0  0  0  0  0  0  0  0  0
  145.3859  135.8876  152.3547 C   0  0  1  0  0  0  0  0  0  0  0  0
  145.4599  137.3655  152.7690 C   0  0  0  0  0  0  0  0  0  0  0  0
  146.5094  138.0829  152.0170 N   0  3  0  0  0  0  0  0  0  0  0  0
  146.9578  139.3383  152.6526 C   0  0  0  0  0  0  0  0  0  0  0  0
  148.0179  139.0691  153.7332 C   0  0  2  0  0  0  0  0  0  0  0  0
  147.3754  138.5304  154.8729 O   0  0  0  0  0  0  0  0  0  0  0  0
  148.7727  140.3519  154.1318 C   0  0  0  0  0  0  0  0  0  0  0  0
  149.9739  140.0725  154.8982 N   0  0  0  0  0  0  0  0  0  0  0  0
  150.8445  139.0617  154.7094 C   0  0  0  0  0  0  0  0  0  0  0  0
  151.8887  138.9968  155.5298 N   0  0  0  0  0  0  0  0  0  0  0  0
  151.6661  140.0876  156.3525 C   0  0  0  0  0  0  0  0  0  0  0  0
  152.4139  140.5808  157.4439 C   0  0  0  0  0  0  0  0  0  0  0  0
  151.9905  141.7272  158.1535 C   0  0  0  0  0  0  0  0  0  0  0  0
  152.8242  142.2212  159.3228 C   0  0  0  0  0  0  0  0  0  0  0  0
  150.8019  142.4004  157.7723 C   0  0  0  0  0  0  0  0  0  0  0  0
  150.3270  143.6321  158.5227 C   0  0  0  0  0  0  0  0  0  0  0  0
  150.0447  141.9232  156.6816 C   0  0  0  0  0  0  0  0  0  0  0  0
  150.4755  140.7804  155.9848 C   0  0  0  0  0  0  0  0  0  0  0  0
  145.5193  135.7142  150.8244 C   0  0  0  0  0  0  0  0  0  0  0  0
  143.4066  131.6221  150.0480 H   0  0  0  0  0  0  0  0  0  0  0  0
  145.1007  131.5737  150.5198 H   0  0  0  0  0  0  0  0  0  0  0  0
  144.6446  132.0746  148.8910 H   0  0  0  0  0  0  0  0  0  0  0  0
  143.5219  134.1320  149.8457 H   0  0  0  0  0  0  0  0  0  0  0  0
  143.8721  133.5574  151.4539 H   0  0  0  0  0  0  0  0  0  0  0  0
  146.6210  132.5074  150.9708 H   0  0  0  0  0  0  0  0  0  0  0  0
  147.5931  133.9541  150.8933 H   0  0  0  0  0  0  0  0  0  0  0  0
  145.5232  133.3513  153.0846 H   0  0  0  0  0  0  0  0  0  0  0  0
  147.2656  133.3311  153.2627 H   0  0  0  0  0  0  0  0  0  0  0  0
  144.4341  135.4768  152.6953 H   0  0  0  0  0  0  0  0  0  0  0  0
  144.4965  137.8535  152.6133 H   0  0  0  0  0  0  0  0  0  0  0  0
  145.6879  137.4365  153.8333 H   0  0  0  0  0  0  0  0  0  0  0  0
  147.3137  137.4785  151.9226 H   0  0  0  0  0  0  0  0  0  0  0  0
  147.3749  139.9865  151.8807 H   0  0  0  0  0  0  0  0  0  0  0  0
  146.1017  139.8619  153.0814 H   0  0  0  0  0  0  0  0  0  0  0  0
  148.7342  138.3339  153.3634 H   0  0  0  0  0  0  0  0  0  0  0  0
  147.3074  139.2090  155.5282 H   0  0  0  0  0  0  0  0  0  0  0  0
  149.0615  140.9123  153.2416 H   0  0  0  0  0  0  0  0  0  0  0  0
  148.1290  141.0097  154.7181 H   0  0  0  0  0  0  0  0  0  0  0  0
  150.7069  138.3360  153.9209 H   0  0  0  0  0  0  0  0  0  0  0  0
  153.3192  140.0680  157.7343 H   0  0  0  0  0  0  0  0  0  0  0  0
  152.2287  142.2433  160.2357 H   0  0  0  0  0  0  0  0  0  0  0  0
  153.1968  143.2267  159.1272 H   0  0  0  0  0  0  0  0  0  0  0  0
  153.6835  141.5742  159.5011 H   0  0  0  0  0  0  0  0  0  0  0  0
  149.4145  144.0382  158.0853 H   0  0  0  0  0  0  0  0  0  0  0  0
  151.0869  144.4132  158.4958 H   0  0  0  0  0  0  0  0  0  0  0  0
  150.1184  143.3873  159.5644 H   0  0  0  0  0  0  0  0  0  0  0  0
  149.1377  142.4265  156.3812 H   0  0  0  0  0  0  0  0  0  0  0  0
  146.4443  136.1853  150.4886 H   0  0  0  0  0  0  0  0  0  0  0  0
  144.7137  136.2323  150.3051 H   0  0  0  0  0  0  0  0  0  0  0  0
  146.1583  138.2980  151.0946 H   0  0  0  0  0  0  0  0  0  0  0  0
  145.8772  134.2564  149.4698 H   0  0  0  0  0  0  0  0  0  0  0  0
  1  2  1  0  0  0  0
  1 26  1  0  0  0  0
  1 27  1  0  0  0  0
  1 28  1  0  0  0  0
  2  3  1  0  0  0  0
  2 29  1  0  0  0  0
  2 30  1  0  0  0  0
  3 25  1  0  0  0  0
  3  4  1  0  0  0  0
  3 57  1  0  0  0  0
  4  5  1  0  0  0  0
  4 31  1  0  0  0  0
  4 32  1  0  0  0  0
  5  6  1  0  0  0  0
  5 33  1  0  0  0  0
  5 34  1  0  0  0  0
  6  7  1  0  0  0  0
  7  8  1  0  0  0  0
  7 25  1  0  0  0  0
  7 35  1  0  0  0  0
  8  9  1  0  0  0  0
  8 36  1  0  0  0  0
  8 37  1  0  0  0  0
  9 10  1  0  0  0  0
  9 38  1  0  0  0  0
  9 56  1  0  0  0  0
 10 11  1  0  0  0  0
 10 39  1  0  0  0  0
 10 40  1  0  0  0  0
 11 12  1  0  0  0  0
 11 13  1  0  0  0  0
 11 41  1  0  0  0  0
 12 42  1  0  0  0  0
 13 14  1  0  0  0  0
 13 43  1  0  0  0  0
 13 44  1  0  0  0  0
 14 24  1  0  0  0  0
 14 15  1  0  0  0  0
 15 16  2  0  0  0  0
 15 45  1  0  0  0  0
 16 17  1  0  0  0  0
 17 24  2  0  0  0  0
 17 18  1  0  0  0  0
 18 19  2  0  0  0  0
 18 46  1  0  0  0  0
 19 20  1  0  0  0  0
 19 21  1  0  0  0  0
 20 47  1  0  0  0  0
 20 48  1  0  0  0  0
 20 49  1  0  0  0  0
 21 22  1  0  0  0  0
 21 23  2  0  0  0  0
 22 50  1  0  0  0  0
 22 51  1  0  0  0  0
 22 52  1  0  0  0  0
 23 24  1  0  0  0  0
 23 53  1  0  0  0  0
 25 54  1  0  0  0  0
 25 55  1  0  0  0  0
M  CHG  1   3   1
M  CHG  1   9   1
M  END
> <s_m_source_file>
AV-unprocessed.smi

> <i_m_source_file_index>
1047

> <i_lp_mmshare_version>
43012

> <i_f3d_flags>
0

> <s_epik_input>
W0NIM11bQ0gyXU4xW0NIMl1bQ0gyXU9bQ0BIXShbQ0gyXTEpW0NIMl1bTkhdW0NIMl1bQ0BIXShbT0hdKVtDSDJdbihbY0hdbjIpYyhjMjMpW2NIXWMoW0NIM10pYyhbY0hdMylbQ0gzXQ==

> <s_epik_cmdline>
J2VwaWtfcHl0aG9uJywgJy1waCcsICc3LjAnLCAnLXRuJywgJzgnLCAnLW1hJywgJzIwMCcsICctbWV0YWxfYmluZGluZycsICctaW1hZScsICc8aW5maWxlLm1hZT4nLCAnLW9tYWUnLCAnPG91dGZpbGUubWFlPic=

> <r_epik_Ionization_Penalty>
0.528991

> <r_epik_Ionization_Penalty_Charging>
0.438567

> <r_epik_Ionization_Penalty_Neutral>
0.0904237

> <r_epik_State_Penalty>
0.533036

> <r_epik_Charging_Adjusted_Penalty>
0.971603

> <i_epik_Tot_Q>
2

> <i_epik_Tot_abs_Q>
2

> <r_epik_Metal_State_Penalty>
0.448985

> <b_epik_Metal_Only>
0

> <s_lp_Force_Field>
OPLS_2005

> <r_lp_Energy>
30.8403

> <b_lp_Chiralities_Consistent>
1

> <s_lp_Variant>
AV-unprocessed.smi:1047-2

> <Gold.Version>
5.8.1

> <Gold.Id.Protein>
6NUR|6NUR_protein|mol2

> <Gold.PLP.Fitness>
53.4140

> <Gold.PLP.PLP>
-45.6895

> <Gold.PLP.part.hbond>
-2.0000

> <Gold.PLP.part.metal>
0.0000

> <Gold.PLP.part.buried>
-5.5349

> <Gold.PLP.part.nonpolar>
-40.2347

> <Gold.PLP.part.repulsive>
1.2710

> <Gold.PLP.ligand.clash>
0.0000

> <Gold.PLP.ligand.torsion>
0.8887

> <Gold.PLP.Chemscore.Hbond>
3.0000

> <Gold.PLP.Chemscore.CHOScore>
0.0000

> <Gold.PLP.Chemscore.Metal>
0.0000

> <Gold.Chemscore.Hbonds>
donor molecule, donor type, donor heavy atom, donor atom, acceptor molecule, acceptor atom, score
      L1  H     3    57       P1  7921  1.00
      L1  H     9    38       P1  7948  1.98

> <Gold.PLP.Chemscore.Internal.Correction>
0.5019

> <Gold.Rescore>
     Score         DG    S(hbond)    S(metal)    S(lipo)     H(rot)  DE(clash)    DE(int)     intcor
     18.46     -19.53       1.87        0.00     125.66       2.70       0.19       0.88       ----

> <Gold.Chemscore.Fitness>
18.4623

> <Gold.Chemscore.DG>
-19.5296

> <Gold.Chemscore.ZeroCoef>
-5.4800

> <Gold.Chemscore.Hbond>
1.8730

> <Gold.Chemscore.Metal>
0.0000

> <Gold.Chemscore.Lipo>
125.6578

> <Gold.Chemscore.Internal_Hbond>
0.0000

> <Gold.Chemscore.DEClash>
0.1902

> <Gold.Chemscore.DEInternal>
0.8771

> <Gold.Chemscore.Rot>
2.6985

> <Gold.Chemscore.Internal.Correction>
   9.000000E+99

> <Gold.Chemscore.Hbonds>
donor molecule, donor type, donor heavy atom, donor atom, acceptor molecule, acceptor atom, score
      L1  H     3    57       P1  7921  0.49
      L1  H     9    38       P1  7948  0.92

> <Gold.Chemscore.Hbond.Weighted>
-6.2558

> <Gold.Chemscore.Metal.Weighted>
-0.0000

> <Gold.Chemscore.Lipo.Weighted>
-14.7020

> <Gold.Chemscore.Internal_Hbond.Weighted>
0.0000

> <Gold.Chemscore.DEClash.Weighted>
0.1902

> <Gold.Chemscore.DEInternal.Weighted>
0.8771

> <Gold.Chemscore.Rot.Weighted>
6.9081

> <Gold.Chemscore.Internal.Correction.Weighted>
   9.000000E+99

> <Gold.Protein.RotatedTorsions>
[ 6907 6896 6895 6894 ] final -163.48 input  -60.11 | X-H torsion
[ 7974 7965 7964 7962 ] final   51.63 input  175.53 | X-H torsion
[ 8008 7997 7996 7995 ] final   84.82 input   59.86 | X-H torsion
[ 10167 10162 10161 10158 ] final -146.42 input  -65.29 | X-H torsion
[ 10718 10713 10712 10709 ] final   78.99 input   66.30 | X-H torsion
[ 10763 10752 10751 10750 ] final -167.04 input  -60.55 | X-H torsion
[ 11005 11000 10999 10996 ] final  162.57 input  -57.11 | X-H torsion

> <Gold.Protein.ActiveResidues>
 VAL166  LYS551  ARG553  GLY616  TRP617  ASP618  TYR619  PRO620  LYS621  CYS622 
 ASP623  PHE694  ASN695  SER759  ASP760  ASP761  ALA762  ILE779  LEU786  VAL792 
 PHE793  MET794  SER795  GLU796  ALA797  LYS798  CYS799  TRP800  GLU811  SER814 

> <Gold.Protein.RotatedAtoms>
  151.3968  133.3770  159.2727 H   0  0  0  0  0  0  0  0  0  0  0  0  # atno 6907 bound_to 6896
  150.9464  134.8869  159.7655 H   0  0  0  0  0  0  0  0  0  0  0  0  # atno 6908 bound_to 6896
  152.5093  134.3921  159.9439 H   0  0  0  0  0  0  0  0  0  0  0  0  # atno 6909 bound_to 6896
  145.9894  139.4323  143.0083 H   0  0  0  0  0  0  0  0  0  0  0  0  # atno 7974 bound_to 7965
  155.9420  140.3407  155.6335 H   0  0  0  0  0  0  0  0  0  0  0  0  # atno 8008 bound_to 7997
  155.7028  140.0762  157.2422 H   0  0  0  0  0  0  0  0  0  0  0  0  # atno 8009 bound_to 7997
  154.4104  140.1637  156.2197 H   0  0  0  0  0  0  0  0  0  0  0  0  # atno 8010 bound_to 7997
  139.7715  143.8231  152.2625 H   0  0  0  0  0  0  0  0  0  0  0  0  # atno 10167 bound_to 10162
  157.6763  130.9894  150.1867 H   0  0  0  0  0  0  0  0  0  0  0  0  # atno 10718 bound_to 10713
  154.6772  135.2948  154.9663 H   0  0  0  0  0  0  0  0  0  0  0  0  # atno 10763 bound_to 10752
  154.0670  135.6623  153.4823 H   0  0  0  0  0  0  0  0  0  0  0  0  # atno 10764 bound_to 10752
  153.0524  135.5166  154.7797 H   0  0  0  0  0  0  0  0  0  0  0  0  # atno 10765 bound_to 10752
  140.2271  134.8152  157.3279 H   0  0  0  0  0  0  0  0  0  0  0  0  # atno 11005 bound_to 11000
  145.7653  140.9919  143.1178 LP  0  0  0  0  0  0  0  0  0  0  0  0  # atno 17320 bound_to 7965
  144.6884  139.9380  143.7474 LP  0  0  0  0  0  0  0  0  0  0  0  0  # atno 17321 bound_to 7965
  139.8267  144.7272  150.9503 LP  0  0  0  0  0  0  0  0  0  0  0  0  # atno 17342 bound_to 10162
  140.7814  143.4108  151.0996 LP  0  0  0  0  0  0  0  0  0  0  0  0  # atno 17343 bound_to 10162
  156.2588  130.3708  149.8153 LP  0  0  0  0  0  0  0  0  0  0  0  0  # atno 17370 bound_to 10713
  156.5904  130.8504  151.3406 LP  0  0  0  0  0  0  0  0  0  0  0  0  # atno 17371 bound_to 10713
  140.1789  134.4514  155.7784 LP  0  0  0  0  0  0  0  0  0  0  0  0  # atno 17394 bound_to 11000
  141.2220  133.6975  156.7835 LP  0  0  0  0  0  0  0  0  0  0  0  0  # atno 17395 bound_to 11000

$$$$
