AV-unprocessed.smi:2710|AV-procd|sdf|10465|dock9
  -GOLD-   2272014503D 1   1.00000     0.00000
 Structure written by MMmdl.
 53 54  0  0  0  0  0  0  0  0  2 V2000
  153.6720  133.1053  165.3519 C   0  0  0  0  0  0  0  0  0  0  0  0
  154.1858  134.4976  164.9553 C   0  0  0  0  0  0  0  0  0  0  0  0
  155.2108  134.4529  163.8714 N   0  3  1  0  0  0  0  0  0  0  0  0
  154.6930  134.8449  162.5298 C   0  0  0  0  0  0  0  0  0  0  0  0
  154.4519  136.3640  162.4229 C   0  0  0  0  0  0  0  0  0  0  0  0
  155.7184  137.1622  162.7813 C   0  0  1  0  0  0  0  0  0  0  0  0
  155.4138  138.5902  162.8257 N   0  0  0  0  0  0  0  0  0  0  0  0
  154.6219  139.2497  161.9676 C   0  0  0  0  0  0  0  0  0  0  0  0
  154.0475  138.7153  161.0196 O   0  0  0  0  0  0  0  0  0  0  0  0
  154.5280  140.5493  162.2962 N   0  0  0  0  0  0  0  0  0  0  0  0
  153.7981  141.5687  161.6294 C   0  0  0  0  0  0  0  0  0  0  0  0
  153.7092  141.5445  160.2230 C   0  0  0  0  0  0  0  0  0  0  0  0
  153.0219  142.4795  159.5341 N   0  0  0  0  0  0  0  0  0  0  0  0
  152.4127  143.4436  160.2364 C   0  0  0  0  0  0  0  0  0  0  0  0
  151.6140  144.4802  159.4254 C   0  0  0  0  0  0  0  0  0  0  0  0
  150.0859  144.3253  159.6239 C   0  0  0  0  0  0  0  0  0  0  0  0
  151.9108  144.3059  157.9226 C   0  0  0  0  0  0  0  0  0  0  0  0
  151.9838  145.9058  159.8865 C   0  0  0  0  0  0  0  0  0  0  0  0
  152.4074  143.5416  161.5724 N   0  0  0  0  0  0  0  0  0  0  0  0
  153.0969  142.6160  162.2729 C   0  0  0  0  0  0  0  0  0  0  0  0
  156.2810  136.7047  164.1391 C   0  0  0  0  0  0  0  0  0  0  0  0
  156.4849  135.1758  164.1679 C   0  0  1  0  0  0  0  0  0  0  0  0
  157.1839  134.6957  165.4525 C   0  0  0  0  0  0  0  0  0  0  0  0
  153.0318  133.1729  166.2316 H   0  0  0  0  0  0  0  0  0  0  0  0
  154.4964  132.4352  165.5974 H   0  0  0  0  0  0  0  0  0  0  0  0
  153.0792  132.6424  164.5637 H   0  0  0  0  0  0  0  0  0  0  0  0
  153.3516  135.1419  164.6792 H   0  0  0  0  0  0  0  0  0  0  0  0
  154.6160  134.9311  165.8557 H   0  0  0  0  0  0  0  0  0  0  0  0
  155.4269  134.5466  161.7799 H   0  0  0  0  0  0  0  0  0  0  0  0
  153.7863  134.2971  162.2786 H   0  0  0  0  0  0  0  0  0  0  0  0
  154.1355  136.6121  161.4088 H   0  0  0  0  0  0  0  0  0  0  0  0
  153.6274  136.6560  163.0739 H   0  0  0  0  0  0  0  0  0  0  0  0
  156.4741  136.9562  162.0211 H   0  0  0  0  0  0  0  0  0  0  0  0
  155.8368  139.1195  163.5741 H   0  0  0  0  0  0  0  0  0  0  0  0
  154.9843  140.8302  163.1518 H   0  0  0  0  0  0  0  0  0  0  0  0
  154.1955  140.7735  159.6431 H   0  0  0  0  0  0  0  0  0  0  0  0
  149.5343  145.0750  159.0554 H   0  0  0  0  0  0  0  0  0  0  0  0
  149.8021  144.4422  160.6708 H   0  0  0  0  0  0  0  0  0  0  0  0
  149.7316  143.3491  159.2900 H   0  0  0  0  0  0  0  0  0  0  0  0
  151.6488  143.3039  157.5812 H   0  0  0  0  0  0  0  0  0  0  0  0
  152.9669  144.4632  157.7010 H   0  0  0  0  0  0  0  0  0  0  0  0
  151.3454  145.0181  157.3205 H   0  0  0  0  0  0  0  0  0  0  0  0
  151.4099  146.6598  159.3466 H   0  0  0  0  0  0  0  0  0  0  0  0
  153.0384  146.1256  159.7183 H   0  0  0  0  0  0  0  0  0  0  0  0
  151.7856  146.0407  160.9505 H   0  0  0  0  0  0  0  0  0  0  0  0
  153.0578  142.7170  163.3463 H   0  0  0  0  0  0  0  0  0  0  0  0
  157.2318  137.2068  164.3241 H   0  0  0  0  0  0  0  0  0  0  0  0
  155.6140  137.0088  164.9471 H   0  0  0  0  0  0  0  0  0  0  0  0
  157.1667  134.9242  163.3536 H   0  0  0  0  0  0  0  0  0  0  0  0
  158.2011  135.0856  165.5016 H   0  0  0  0  0  0  0  0  0  0  0  0
  157.2500  133.6079  165.4854 H   0  0  0  0  0  0  0  0  0  0  0  0
  156.6734  135.0355  166.3536 H   0  0  0  0  0  0  0  0  0  0  0  0
  155.4674  133.4791  163.7942 H   0  0  0  0  0  0  0  0  0  0  0  0
  1  2  1  0  0  0  0
  1 24  1  0  0  0  0
  1 25  1  0  0  0  0
  1 26  1  0  0  0  0
  2  3  1  0  0  0  0
  2 27  1  0  0  0  0
  2 28  1  0  0  0  0
  3 22  1  0  0  0  0
  3  4  1  0  0  0  0
  3 53  1  0  0  0  0
  4  5  1  0  0  0  0
  4 29  1  0  0  0  0
  4 30  1  0  0  0  0
  5  6  1  0  0  0  0
  5 31  1  0  0  0  0
  5 32  1  0  0  0  0
  6  7  1  0  0  0  0
  6 21  1  0  0  0  0
  6 33  1  0  0  0  0
  7  8  1  0  0  0  0
  7 34  1  0  0  0  0
  8  9  2  0  0  0  0
  8 10  1  0  0  0  0
 10 11  1  0  0  0  0
 10 35  1  0  0  0  0
 11 20  1  0  0  0  0
 11 12  2  0  0  0  0
 12 13  1  0  0  0  0
 12 36  1  0  0  0  0
 13 14  2  0  0  0  0
 14 15  1  0  0  0  0
 14 19  1  0  0  0  0
 15 16  1  0  0  0  0
 15 17  1  0  0  0  0
 15 18  1  0  0  0  0
 16 37  1  0  0  0  0
 16 38  1  0  0  0  0
 16 39  1  0  0  0  0
 17 40  1  0  0  0  0
 17 41  1  0  0  0  0
 17 42  1  0  0  0  0
 18 43  1  0  0  0  0
 18 44  1  0  0  0  0
 18 45  1  0  0  0  0
 19 20  2  0  0  0  0
 20 46  1  0  0  0  0
 21 22  1  0  0  0  0
 21 47  1  0  0  0  0
 21 48  1  0  0  0  0
 22 23  1  0  0  0  0
 22 49  1  0  0  0  0
 23 50  1  0  0  0  0
 23 51  1  0  0  0  0
 23 52  1  0  0  0  0
M  CHG  1   3   1
M  END
> <s_m_source_file>
AV-unprocessed.smi

> <i_m_source_file_index>
2710

> <i_lp_mmshare_version>
43012

> <i_f3d_flags>
0

> <s_epik_input>
W0NIM11bQ0gyXU4xW0NIMl1bQ0gyXVtDQEhdKFtDSDJdW0NASF0xW0NIM10pW05IXUMoPU8pW05IXWMyW2NIXW5jKEMoW0NIM10pKFtDSDNdKVtDSDNdKW5bY0hdMg==

> <s_epik_cmdline>
J2VwaWtfcHl0aG9uJywgJy1waCcsICc3LjAnLCAnLXRuJywgJzgnLCAnLW1hJywgJzIwMCcsICctbWV0YWxfYmluZGluZycsICctaW1hZScsICc8aW5maWxlLm1hZT4nLCAnLW9tYWUnLCAnPG91dGZpbGUubWFlPic=

> <r_lp_tautomer_probability>
1

> <r_epik_Ionization_Penalty>
0.00396003

> <r_epik_Ionization_Penalty_Charging>
0.0039379

> <r_epik_Ionization_Penalty_Neutral>
2.21316e-05

> <r_epik_State_Penalty>
0.00281651

> <r_epik_Charging_Adjusted_Penalty>
0.00675441

> <i_epik_Tot_Q>
1

> <i_epik_Tot_abs_Q>
1

> <r_epik_Metal_State_Penalty>
-0

> <b_epik_Metal_Only>
0

> <s_lp_Force_Field>
OPLS_2005

> <r_lp_Energy>
21.9784

> <b_lp_Chiralities_Consistent>
1

> <s_lp_Variant>
AV-unprocessed.smi:2710-2

> <Gold.Version>
5.8.1

> <Gold.Id.Protein>
6NUR|6NUR_protein|mol2

> <Gold.PLP.Fitness>
43.8268

> <Gold.PLP.PLP>
-46.7160

> <Gold.PLP.part.hbond>
0.0000

> <Gold.PLP.part.metal>
0.0000

> <Gold.PLP.part.buried>
-6.7409

> <Gold.PLP.part.nonpolar>
-39.8498

> <Gold.PLP.part.repulsive>
0.1331

> <Gold.PLP.ligand.clash>
0.0000

> <Gold.PLP.ligand.torsion>
1.4641

> <Gold.PLP.Chemscore.Hbond>
0.0000

> <Gold.PLP.Chemscore.CHOScore>
0.0000

> <Gold.PLP.Chemscore.Metal>
0.0000

> <Gold.PLP.Chemscore.Internal.Correction>
0.0390

> <Gold.Rescore>
     Score         DG    S(hbond)    S(metal)    S(lipo)     H(rot)  DE(clash)    DE(int)     intcor
     12.73     -16.39       0.00        0.00     121.91       1.31       0.11       3.55       ----

> <Gold.Chemscore.Fitness>
12.7330

> <Gold.Chemscore.DG>
-16.3949

> <Gold.Chemscore.ZeroCoef>
-5.4800

> <Gold.Chemscore.Hbond>
0.0000

> <Gold.Chemscore.Metal>
0.0000

> <Gold.Chemscore.Lipo>
121.9119

> <Gold.Chemscore.Internal_Hbond>
0.0000

> <Gold.Chemscore.DEClash>
0.1120

> <Gold.Chemscore.DEInternal>
3.5498

> <Gold.Chemscore.Rot>
1.3081

> <Gold.Chemscore.Internal.Correction>
   9.000000E+99

> <Gold.Chemscore.Hbond.Weighted>
-0.0000

> <Gold.Chemscore.Metal.Weighted>
-0.0000

> <Gold.Chemscore.Lipo.Weighted>
-14.2637

> <Gold.Chemscore.Internal_Hbond.Weighted>
0.0000

> <Gold.Chemscore.DEClash.Weighted>
0.1120

> <Gold.Chemscore.DEInternal.Weighted>
3.5498

> <Gold.Chemscore.Rot.Weighted>
3.3488

> <Gold.Chemscore.Internal.Correction.Weighted>
   9.000000E+99

> <Gold.Protein.RotatedTorsions>
[ 6907 6896 6895 6894 ] final   27.03 input  -60.11 | X-H torsion
[ 7974 7965 7964 7962 ] final   52.98 input  175.53 | X-H torsion
[ 8008 7997 7996 7995 ] final  -55.26 input   59.86 | X-H torsion
[ 10167 10162 10161 10158 ] final  -61.29 input  -65.29 | X-H torsion
[ 10718 10713 10712 10709 ] final  -10.93 input   66.30 | X-H torsion
[ 10763 10752 10751 10750 ] final  104.64 input  -60.55 | X-H torsion
[ 11005 11000 10999 10996 ] final -155.96 input  -57.11 | X-H torsion

> <Gold.Protein.ActiveResidues>
 VAL166  LYS551  ARG553  GLY616  TRP617  ASP618  TYR619  PRO620  LYS621  CYS622 
 ASP623  PHE694  ASN695  SER759  ASP760  ASP761  ALA762  ILE779  LEU786  VAL792 
 PHE793  MET794  SER795  GLU796  ALA797  LYS798  CYS799  TRP800  GLU811  SER814 

> <Gold.Protein.RotatedAtoms>
  151.9963  134.9952  160.0563 H   0  0  0  0  0  0  0  0  0  0  0  0  # atno 6907 bound_to 6896
  152.1561  133.4547  159.4846 H   0  0  0  0  0  0  0  0  0  0  0  0  # atno 6908 bound_to 6896
  150.6881  134.2047  159.4379 H   0  0  0  0  0  0  0  0  0  0  0  0  # atno 6909 bound_to 6896
  145.9758  139.4193  143.0162 H   0  0  0  0  0  0  0  0  0  0  0  0  # atno 7974 bound_to 7965
  154.4189  140.1157  156.5448 H   0  0  0  0  0  0  0  0  0  0  0  0  # atno 8008 bound_to 7997
  155.6470  140.3496  155.4716 H   0  0  0  0  0  0  0  0  0  0  0  0  # atno 8009 bound_to 7997
  155.9824  140.1163  157.0704 H   0  0  0  0  0  0  0  0  0  0  0  0  # atno 8010 bound_to 7997
  140.6016  143.2363  151.5916 H   0  0  0  0  0  0  0  0  0  0  0  0  # atno 10167 bound_to 10162
  156.6663  130.4996  149.6014 H   0  0  0  0  0  0  0  0  0  0  0  0  # atno 10718 bound_to 10713
  153.3686  135.3936  155.1771 H   0  0  0  0  0  0  0  0  0  0  0  0  # atno 10763 bound_to 10752
  154.8690  135.3697  154.5007 H   0  0  0  0  0  0  0  0  0  0  0  0  # atno 10764 bound_to 10752
  153.5473  135.7083  153.5669 H   0  0  0  0  0  0  0  0  0  0  0  0  # atno 10765 bound_to 10752
  140.6808  134.4147  157.5226 H   0  0  0  0  0  0  0  0  0  0  0  0  # atno 11005 bound_to 11000
  145.7840  140.9843  143.1084 LP  0  0  0  0  0  0  0  0  0  0  0  0  # atno 17320 bound_to 7965
  144.6848  139.9600  143.7480 LP  0  0  0  0  0  0  0  0  0  0  0  0  # atno 17321 bound_to 7965
  139.5295  144.2959  152.1114 LP  0  0  0  0  0  0  0  0  0  0  0  0  # atno 17342 bound_to 10162
  140.2141  144.4533  150.6372 LP  0  0  0  0  0  0  0  0  0  0  0  0  # atno 17343 bound_to 10162
  156.1972  130.6597  151.1127 LP  0  0  0  0  0  0  0  0  0  0  0  0  # atno 17370 bound_to 10713
  157.7092  131.0742  150.6560 LP  0  0  0  0  0  0  0  0  0  0  0  0  # atno 17371 bound_to 10713
  139.8952  134.8687  156.2140 LP  0  0  0  0  0  0  0  0  0  0  0  0  # atno 17394 bound_to 11000
  141.0319  133.6984  156.1445 LP  0  0  0  0  0  0  0  0  0  0  0  0  # atno 17395 bound_to 11000

$$$$
