AV-unprocessed.smi:1961|AV-procd|sdf|7918|dock6
  -GOLD-   2272010 83D 1   1.00000     0.00000
 Structure written by MMmdl.
 36 37  0  0  0  0  0  0  0  0  1 V2000
  146.9188  128.7390  152.0595 C   0  0  0  0  0  0  0  0  0  0  0  0
  146.0789  129.9090  152.5924 C   0  0  0  0  0  0  0  0  0  0  0  0
  145.0850  130.4578  151.5578 C   0  0  0  0  0  0  0  0  0  0  0  0
  146.9278  130.9892  153.1879 C   0  0  0  0  0  0  0  0  0  0  0  0
  147.5817  130.8471  154.3489 N   0  0  0  0  0  0  0  0  0  0  0  0
  148.3029  131.9820  154.6918 N   0  0  0  0  0  0  0  0  0  0  0  0
  148.1733  132.9519  153.7765 C   0  0  0  0  0  0  0  0  0  0  0  0
  148.8070  134.2191  153.8739 N   0  0  0  0  0  0  0  0  0  0  0  0
  149.5375  134.7099  154.8906 C   0  0  0  0  0  0  0  0  0  0  0  0
  149.7729  134.1234  155.9473 O   0  0  0  0  0  0  0  0  0  0  0  0
  149.9899  135.9410  154.6126 N   0  0  0  0  0  0  0  0  0  0  0  0
  150.8177  136.7486  155.5024 C   0  0  0  0  0  0  0  0  0  0  0  0
  150.9689  138.1949  154.9996 C   0  0  2  0  0  0  0  0  0  0  0  0
  151.8713  139.0832  155.8593 C   0  0  0  0  0  0  0  0  0  0  0  0
  151.2999  140.4815  155.6678 C   0  0  0  0  0  0  0  0  0  0  0  0
  149.9993  140.2549  154.8937 C   0  0  0  0  0  0  0  0  0  0  0  0
  149.7235  138.8715  155.0520 O   0  0  0  0  0  0  0  0  0  0  0  0
  147.1459  132.5539  152.4103 S   0  0  0  0  0  0  0  0  0  0  0  0
  147.5517  128.3214  152.8432 H   0  0  0  0  0  0  0  0  0  0  0  0
  147.5664  129.0554  151.2410 H   0  0  0  0  0  0  0  0  0  0  0  0
  146.2816  127.9365  151.6870 H   0  0  0  0  0  0  0  0  0  0  0  0
  145.4782  129.5060  153.4089 H   0  0  0  0  0  0  0  0  0  0  0  0
  144.4479  131.2270  151.9956 H   0  0  0  0  0  0  0  0  0  0  0  0
  144.4357  129.6681  151.1788 H   0  0  0  0  0  0  0  0  0  0  0  0
  145.6029  130.8988  150.7053 H   0  0  0  0  0  0  0  0  0  0  0  0
  148.7000  134.8190  153.0693 H   0  0  0  0  0  0  0  0  0  0  0  0
  149.7487  136.3491  153.7215 H   0  0  0  0  0  0  0  0  0  0  0  0
  150.3993  136.7418  156.5103 H   0  0  0  0  0  0  0  0  0  0  0  0
  151.7975  136.2757  155.5740 H   0  0  0  0  0  0  0  0  0  0  0  0
  151.3193  138.2023  153.9656 H   0  0  0  0  0  0  0  0  0  0  0  0
  151.7960  138.8005  156.9102 H   0  0  0  0  0  0  0  0  0  0  0  0
  152.9195  139.0109  155.5677 H   0  0  0  0  0  0  0  0  0  0  0  0
  151.1054  140.9474  156.6343 H   0  0  0  0  0  0  0  0  0  0  0  0
  151.9792  141.1300  155.1133 H   0  0  0  0  0  0  0  0  0  0  0  0
  149.1778  140.8703  155.2611 H   0  0  0  0  0  0  0  0  0  0  0  0
  150.1405  140.4721  153.8337 H   0  0  0  0  0  0  0  0  0  0  0  0
  1  2  1  0  0  0  0
  1 19  1  0  0  0  0
  1 20  1  0  0  0  0
  1 21  1  0  0  0  0
  2  3  1  0  0  0  0
  2  4  1  0  0  0  0
  2 22  1  0  0  0  0
  3 23  1  0  0  0  0
  3 24  1  0  0  0  0
  3 25  1  0  0  0  0
  4 18  1  0  0  0  0
  4  5  2  0  0  0  0
  5  6  1  0  0  0  0
  6  7  2  0  0  0  0
  7  8  1  0  0  0  0
  7 18  1  0  0  0  0
  8  9  1  0  0  0  0
  8 26  1  0  0  0  0
  9 10  2  0  0  0  0
  9 11  1  0  0  0  0
 11 12  1  0  0  0  0
 11 27  1  0  0  0  0
 12 13  1  0  0  0  0
 12 28  1  0  0  0  0
 12 29  1  0  0  0  0
 13 17  1  0  0  0  0
 13 14  1  0  0  0  0
 13 30  1  0  0  0  0
 14 15  1  0  0  0  0
 14 31  1  0  0  0  0
 14 32  1  0  0  0  0
 15 16  1  0  0  0  0
 15 33  1  0  0  0  0
 15 34  1  0  0  0  0
 16 17  1  0  0  0  0
 16 35  1  0  0  0  0
 16 36  1  0  0  0  0
M  END
> <s_m_source_file>
AV-unprocessed.smi

> <i_m_source_file_index>
1961

> <i_lp_mmshare_version>
43012

> <i_f3d_flags>
0

> <s_epik_input>
W0NIM11bQ0hdKFtDSDNdKWMxbm5jKHMxKVtOSF1DKD1PKVtOSF1bQ0gyXVtDQEBIXTJbQ0gyXVtDSDJdW0NIMl1PMg==

> <s_epik_cmdline>
J2VwaWtfcHl0aG9uJywgJy1waCcsICc3LjAnLCAnLXRuJywgJzgnLCAnLW1hJywgJzIwMCcsICctbWV0YWxfYmluZGluZycsICctaW1hZScsICc8aW5maWxlLm1hZT4nLCAnLW9tYWUnLCAnPG91dGZpbGUubWFlPic=

> <r_lp_tautomer_probability>
1

> <r_epik_Ionization_Penalty>
0.000505257

> <r_epik_Ionization_Penalty_Charging>
0

> <r_epik_Ionization_Penalty_Neutral>
0.000505257

> <r_epik_State_Penalty>
-0

> <r_epik_Charging_Adjusted_Penalty>
0

> <i_epik_Tot_Q>
0

> <i_epik_Tot_abs_Q>
0

> <r_epik_Metal_State_Penalty>
0.219912

> <b_epik_Metal_Only>
0

> <s_lp_Force_Field>
OPLS_2005

> <r_lp_Energy>
10.186

> <b_lp_Chiralities_Consistent>
1

> <s_lp_Variant>
AV-unprocessed.smi:1961-1

> <Gold.Version>
5.8.1

> <Gold.Id.Protein>
6NUR|6NUR_protein|mol2

> <Gold.PLP.Fitness>
36.6115

> <Gold.PLP.PLP>
-31.4493

> <Gold.PLP.part.hbond>
-2.3169

> <Gold.PLP.part.metal>
0.0000

> <Gold.PLP.part.buried>
-2.1246

> <Gold.PLP.part.nonpolar>
-27.2252

> <Gold.PLP.part.repulsive>
0.2805

> <Gold.PLP.ligand.clash>
0.0000

> <Gold.PLP.ligand.torsion>
0.4474

> <Gold.PLP.Chemscore.Hbond>
1.9920

> <Gold.PLP.Chemscore.CHOScore>
0.0000

> <Gold.PLP.Chemscore.Metal>
0.0000

> <Gold.Chemscore.Hbonds>
donor molecule, donor type, donor heavy atom, donor atom, acceptor molecule, acceptor atom, score
      L1  H     8    26       P1  7948  1.00
      L1  H    11    27       P1  7948  1.00

> <Gold.PLP.Chemscore.Internal.Correction>
0.0810

> <Gold.Rescore>
     Score         DG    S(hbond)    S(metal)    S(lipo)     H(rot)  DE(clash)    DE(int)     intcor
     13.47     -14.99       1.61        0.00      67.04       1.45       0.02       1.51       ----

> <Gold.Chemscore.Fitness>
13.4686

> <Gold.Chemscore.DG>
-14.9923

> <Gold.Chemscore.ZeroCoef>
-5.4800

> <Gold.Chemscore.Hbond>
1.6080

> <Gold.Chemscore.Metal>
0.0000

> <Gold.Chemscore.Lipo>
67.0394

> <Gold.Chemscore.Internal_Hbond>
0.0000

> <Gold.Chemscore.DEClash>
0.0174

> <Gold.Chemscore.DEInternal>
1.5063

> <Gold.Chemscore.Rot>
1.4461

> <Gold.Chemscore.Internal.Correction>
   9.000000E+99

> <Gold.Chemscore.Hbonds>
donor molecule, donor type, donor heavy atom, donor atom, acceptor molecule, acceptor atom, score
      L1  H     8    26       P1  7948  0.30
      L1  H    11    27       P1  7948  0.37

> <Gold.Chemscore.Hbond.Weighted>
-5.3706

> <Gold.Chemscore.Metal.Weighted>
-0.0000

> <Gold.Chemscore.Lipo.Weighted>
-7.8436

> <Gold.Chemscore.Internal_Hbond.Weighted>
0.0000

> <Gold.Chemscore.DEClash.Weighted>
0.0174

> <Gold.Chemscore.DEInternal.Weighted>
1.5063

> <Gold.Chemscore.Rot.Weighted>
3.7019

> <Gold.Chemscore.Internal.Correction.Weighted>
   9.000000E+99

> <Gold.Protein.RotatedTorsions>
[ 6907 6896 6895 6894 ] final  148.29 input  -60.11 | X-H torsion
[ 7974 7965 7964 7962 ] final -173.93 input  175.53 | X-H torsion
[ 8008 7997 7996 7995 ] final    5.11 input   59.86 | X-H torsion
[ 10167 10162 10161 10158 ] final  -43.88 input  -65.29 | X-H torsion
[ 10718 10713 10712 10709 ] final   19.69 input   66.30 | X-H torsion
[ 10763 10752 10751 10750 ] final  -54.14 input  -60.55 | X-H torsion
[ 11005 11000 10999 10996 ] final  -74.46 input  -57.11 | X-H torsion

> <Gold.Protein.ActiveResidues>
 VAL166  LYS551  ARG553  GLY616  TRP617  ASP618  TYR619  PRO620  LYS621  CYS622 
 ASP623  PHE694  ASN695  SER759  ASP760  ASP761  ALA762  ILE779  LEU786  VAL792 
 PHE793  MET794  SER795  GLU796  ALA797  LYS798  CYS799  TRP800  GLU811  SER814 

> <Gold.Protein.RotatedAtoms>
  152.1435  133.4478  159.4778 H   0  0  0  0  0  0  0  0  0  0  0  0  # atno 6907 bound_to 6896
  150.6888  134.2276  159.4431 H   0  0  0  0  0  0  0  0  0  0  0  0  # atno 6908 bound_to 6896
  152.0169  134.9844  160.0620 H   0  0  0  0  0  0  0  0  0  0  0  0  # atno 6909 bound_to 6896
  144.7135  140.1548  143.6381 H   0  0  0  0  0  0  0  0  0  0  0  0  # atno 7974 bound_to 7965
  154.7242  140.2718  155.6513 H   0  0  0  0  0  0  0  0  0  0  0  0  # atno 8008 bound_to 7997
  156.2832  140.2728  156.1848 H   0  0  0  0  0  0  0  0  0  0  0  0  # atno 8009 bound_to 7997
  155.0466  140.0371  157.2519 H   0  0  0  0  0  0  0  0  0  0  0  0  # atno 8010 bound_to 7997
  140.6918  143.2959  151.3415 H   0  0  0  0  0  0  0  0  0  0  0  0  # atno 10167 bound_to 10162
  157.1140  130.6521  149.5905 H   0  0  0  0  0  0  0  0  0  0  0  0  # atno 10718 bound_to 10713
  154.1701  135.6460  153.5007 H   0  0  0  0  0  0  0  0  0  0  0  0  # atno 10763 bound_to 10752
  153.0086  135.5381  154.6621 H   0  0  0  0  0  0  0  0  0  0  0  0  # atno 10764 bound_to 10752
  154.5958  135.2938  155.0560 H   0  0  0  0  0  0  0  0  0  0  0  0  # atno 10765 bound_to 10752
  141.1635  133.6912  156.7368 H   0  0  0  0  0  0  0  0  0  0  0  0  # atno 11005 bound_to 11000
  145.9084  139.2472  143.1452 LP  0  0  0  0  0  0  0  0  0  0  0  0  # atno 17320 bound_to 7965
  145.9741  140.8736  143.0148 LP  0  0  0  0  0  0  0  0  0  0  0  0  # atno 17321 bound_to 7965
  139.6328  144.0688  152.2491 LP  0  0  0  0  0  0  0  0  0  0  0  0  # atno 17342 bound_to 10162
  140.0168  144.6183  150.7600 LP  0  0  0  0  0  0  0  0  0  0  0  0  # atno 17343 bound_to 10162
  155.9844  130.4868  150.6979 LP  0  0  0  0  0  0  0  0  0  0  0  0  # atno 17370 bound_to 10713
  157.4534  131.0875  151.0822 LP  0  0  0  0  0  0  0  0  0  0  0  0  # atno 17371 bound_to 10713
  140.2704  134.8396  157.3842 LP  0  0  0  0  0  0  0  0  0  0  0  0  # atno 17394 bound_to 11000
  140.1527  134.4829  155.7950 LP  0  0  0  0  0  0  0  0  0  0  0  0  # atno 17395 bound_to 11000

$$$$
