AV-unprocessed.smi:3253|AV-procd|sdf|12447|dock2
  -GOLD-   2272018343D 1   1.00000     0.00000
 Structure written by MMmdl.
 37 38  0  0  0  0  0  0  0  0  2 V2000
  146.2694  128.7812  152.8176 C   0  0  0  0  0  0  0  0  0  0  0  0
  146.1416  130.2749  152.4778 C   0  0  2  0  0  0  0  0  0  0  0  0
  145.7361  130.5275  151.0085 C   0  0  0  0  0  0  0  0  0  0  0  0
  145.0502  131.8087  150.8193 N   0  0  0  0  0  0  0  0  0  0  0  0
  145.5578  133.0669  151.0206 C   0  0  0  0  0  0  0  0  0  0  0  0
  144.5513  133.9469  150.7156 C   0  0  0  0  0  0  0  0  0  0  0  0
  143.4717  133.1894  150.3467 N   0  3  0  0  0  0  0  0  0  0  0  0
  143.7765  131.8893  150.4132 C   0  0  0  0  0  0  0  0  0  0  0  0
  147.4027  130.9455  152.7800 N   0  0  0  0  0  0  0  0  0  0  0  0
  147.8886  131.1602  154.0128 C   0  0  0  0  0  0  0  0  0  0  0  0
  147.2972  130.8207  155.0386 O   0  0  0  0  0  0  0  0  0  0  0  0
  149.2505  131.8665  154.1010 C   0  0  1  0  0  0  0  0  0  0  0  0
  149.1984  133.0715  155.0625 C   0  0  0  0  0  0  0  0  0  0  0  0
  150.0849  132.6551  156.2243 C   0  0  0  0  0  0  0  0  0  0  0  0
  150.2123  133.3316  157.2436 O   0  0  0  0  0  0  0  0  0  0  0  0
  150.6738  131.4813  155.9793 N   0  0  0  0  0  0  0  0  0  0  0  0
  151.5797  130.7796  156.8785 C   0  0  0  0  0  0  0  0  0  0  0  0
  150.3567  130.9476  154.6657 C   0  0  0  0  0  0  0  0  0  0  0  0
  145.3197  128.2602  152.6955 H   0  0  0  0  0  0  0  0  0  0  0  0
  146.5831  128.6403  153.8526 H   0  0  0  0  0  0  0  0  0  0  0  0
  147.0035  128.2903  152.1776 H   0  0  0  0  0  0  0  0  0  0  0  0
  145.3712  130.6918  153.1297 H   0  0  0  0  0  0  0  0  0  0  0  0
  146.6099  130.5250  150.3550 H   0  0  0  0  0  0  0  0  0  0  0  0
  145.0742  129.7369  150.6517 H   0  0  0  0  0  0  0  0  0  0  0  0
  146.5712  133.2385  151.3538 H   0  0  0  0  0  0  0  0  0  0  0  0
  144.5228  135.0267  150.7342 H   0  0  0  0  0  0  0  0  0  0  0  0
  143.1235  131.0661  150.1818 H   0  0  0  0  0  0  0  0  0  0  0  0
  147.9536  131.2586  151.9935 H   0  0  0  0  0  0  0  0  0  0  0  0
  149.5390  132.2060  153.1045 H   0  0  0  0  0  0  0  0  0  0  0  0
  149.6100  133.9662  154.5943 H   0  0  0  0  0  0  0  0  0  0  0  0
  148.1934  133.3085  155.4161 H   0  0  0  0  0  0  0  0  0  0  0  0
  152.4567  131.3914  157.0930 H   0  0  0  0  0  0  0  0  0  0  0  0
  151.9206  129.8413  156.4396 H   0  0  0  0  0  0  0  0  0  0  0  0
  151.0806  130.5508  157.8209 H   0  0  0  0  0  0  0  0  0  0  0  0
  150.0490  129.9030  154.7418 H   0  0  0  0  0  0  0  0  0  0  0  0
  151.2478  130.9823  154.0375 H   0  0  0  0  0  0  0  0  0  0  0  0
  142.5710  133.5572  150.0663 H   0  0  0  0  0  0  0  0  0  0  0  0
  1  2  1  0  0  0  0
  1 19  1  0  0  0  0
  1 20  1  0  0  0  0
  1 21  1  0  0  0  0
  2  3  1  0  0  0  0
  2  9  1  0  0  0  0
  2 22  1  0  0  0  0
  3  4  1  0  0  0  0
  3 23  1  0  0  0  0
  3 24  1  0  0  0  0
  4  8  1  0  0  0  0
  4  5  1  0  0  0  0
  5  6  2  0  0  0  0
  5 25  1  0  0  0  0
  6  7  1  0  0  0  0
  6 26  1  0  0  0  0
  7  8  2  0  0  0  0
  7 37  1  0  0  0  0
  8 27  1  0  0  0  0
  9 10  1  0  0  0  0
  9 28  1  0  0  0  0
 10 11  2  0  0  0  0
 10 12  1  0  0  0  0
 12 18  1  0  0  0  0
 12 13  1  0  0  0  0
 12 29  1  0  0  0  0
 13 14  1  0  0  0  0
 13 30  1  0  0  0  0
 13 31  1  0  0  0  0
 14 15  2  0  0  0  0
 14 16  1  0  0  0  0
 16 17  1  0  0  0  0
 16 18  1  0  0  0  0
 17 32  1  0  0  0  0
 17 33  1  0  0  0  0
 17 34  1  0  0  0  0
 18 35  1  0  0  0  0
 18 36  1  0  0  0  0
M  CHG  1   7   1
M  END
> <s_m_source_file>
AV-unprocessed.smi

> <i_m_source_file_index>
3253

> <i_lp_mmshare_version>
43012

> <i_f3d_flags>
0

> <s_epik_input>
W2NIXTFuW2NIXVtjSF1uMVtDSDJdW0NAQEhdKFtDSDNdKVtOSF1DKD1PKVtDQEBIXTJbQ0gyXUMoPU8pTihbQ0gzXSlbQ0gyXTI=

> <s_epik_cmdline>
J2VwaWtfcHl0aG9uJywgJy1waCcsICc3LjAnLCAnLXRuJywgJzgnLCAnLW1hJywgJzIwMCcsICctbWV0YWxfYmluZGluZycsICctaW1hZScsICc8aW5maWxlLm1hZT4nLCAnLW9tYWUnLCAnPG91dGZpbGUubWFlPic=

> <r_lp_tautomer_probability>
1

> <r_epik_Ionization_Penalty>
0.251561

> <r_epik_Ionization_Penalty_Charging>
0

> <r_epik_Ionization_Penalty_Neutral>
0.251561

> <r_epik_State_Penalty>
0.242926

> <r_epik_Charging_Adjusted_Penalty>
0.242926

> <i_epik_Tot_Q>
1

> <i_epik_Tot_abs_Q>
1

> <r_epik_Metal_State_Penalty>
0.533885

> <b_epik_Metal_Only>
0

> <s_lp_Force_Field>
OPLS_2005

> <r_lp_Energy>
14.6529

> <b_lp_Chiralities_Consistent>
1

> <s_lp_Variant>
AV-unprocessed.smi:3253-3

> <Gold.Version>
5.8.1

> <Gold.Id.Protein>
6NUR|6NUR_protein|mol2

> <Gold.PLP.Fitness>
46.8632

> <Gold.PLP.PLP>
-33.4571

> <Gold.PLP.part.hbond>
-2.9905

> <Gold.PLP.part.metal>
0.0000

> <Gold.PLP.part.buried>
-5.8088

> <Gold.PLP.part.nonpolar>
-25.7742

> <Gold.PLP.part.repulsive>
0.0698

> <Gold.PLP.ligand.clash>
0.0000

> <Gold.PLP.ligand.torsion>
0.5291

> <Gold.PLP.Chemscore.Hbond>
3.8125

> <Gold.PLP.Chemscore.CHOScore>
0.9926

> <Gold.PLP.Chemscore.Metal>
0.0000

> <Gold.Chemscore.Hbonds>
donor molecule, donor type, donor heavy atom, donor atom, acceptor molecule, acceptor atom, score
      L1  H     7    37       P1 10186  2.00
      L1  H     9    28       P1 10747  0.99
      P1  H  6896  6909       L1    15  0.75
      L1  C     8    27       P1 10952  1.00

> <Gold.PLP.Chemscore.Internal.Correction>
0.0489

> <Gold.Rescore>
     Score         DG    S(hbond)    S(metal)    S(lipo)     H(rot)  DE(clash)    DE(int)     intcor
     16.10     -16.79       2.82        0.00      60.59       2.03       0.04       0.65       ----

> <Gold.Chemscore.Fitness>
16.0957

> <Gold.Chemscore.DG>
-16.7864

> <Gold.Chemscore.ZeroCoef>
-5.4800

> <Gold.Chemscore.Hbond>
2.8216

> <Gold.Chemscore.Metal>
0.0000

> <Gold.Chemscore.Lipo>
60.5932

> <Gold.Chemscore.Internal_Hbond>
0.0000

> <Gold.Chemscore.DEClash>
0.0405

> <Gold.Chemscore.DEInternal>
0.6501

> <Gold.Chemscore.Rot>
2.0341

> <Gold.Chemscore.Internal.Correction>
   9.000000E+99

> <Gold.Chemscore.Hbonds>
donor molecule, donor type, donor heavy atom, donor atom, acceptor molecule, acceptor atom, score
      L1  H     7    37       P1 10186  1.00
      L1  H     9    28       P1 10747  0.87
      P1  H  6896  6909       L1    15  0.69

> <Gold.Chemscore.Hbond.Weighted>
-9.4242

> <Gold.Chemscore.Metal.Weighted>
-0.0000

> <Gold.Chemscore.Lipo.Weighted>
-7.0894

> <Gold.Chemscore.Internal_Hbond.Weighted>
0.0000

> <Gold.Chemscore.DEClash.Weighted>
0.0405

> <Gold.Chemscore.DEInternal.Weighted>
0.6501

> <Gold.Chemscore.Rot.Weighted>
5.2072

> <Gold.Chemscore.Internal.Correction.Weighted>
   9.000000E+99

> <Gold.Protein.RotatedTorsions>
[ 6907 6896 6895 6894 ] final  -20.45 input  -60.11 | X-H torsion
[ 7974 7965 7964 7962 ] final -165.12 input  175.53 | X-H torsion
[ 8008 7997 7996 7995 ] final  -76.85 input   59.86 | X-H torsion
[ 10167 10162 10161 10158 ] final    3.60 input  -65.29 | X-H torsion
[ 10718 10713 10712 10709 ] final  -75.08 input   66.30 | X-H torsion
[ 10763 10752 10751 10750 ] final  106.22 input  -60.55 | X-H torsion
[ 11005 11000 10999 10996 ] final   12.03 input  -57.11 | X-H torsion

> <Gold.Protein.ActiveResidues>
 VAL166  LYS551  ARG553  GLY616  TRP617  ASP618  TYR619  PRO620  LYS621  CYS622 
 ASP623  PHE694  ASN695  SER759  ASP760  ASP761  ALA762  ILE779  LEU786  VAL792 
 PHE793  MET794  SER795  GLU796  ALA797  LYS798  CYS799  TRP800  GLU811  SER814 

> <Gold.Protein.RotatedAtoms>
  151.2479  135.0612  159.9050 H   0  0  0  0  0  0  0  0  0  0  0  0  # atno 6907 bound_to 6896
  152.5384  134.0363  159.8058 H   0  0  0  0  0  0  0  0  0  0  0  0  # atno 6908 bound_to 6896
  151.0567  133.5529  159.2669 H   0  0  0  0  0  0  0  0  0  0  0  0  # atno 6909 bound_to 6896
  144.7278  140.2861  143.6228 H   0  0  0  0  0  0  0  0  0  0  0  0  # atno 7974 bound_to 7965
  154.5543  140.0720  156.8718 H   0  0  0  0  0  0  0  0  0  0  0  0  # atno 8008 bound_to 7997
  155.2933  140.3379  155.4233 H   0  0  0  0  0  0  0  0  0  0  0  0  # atno 8009 bound_to 7997
  156.1988  140.1714  156.7928 H   0  0  0  0  0  0  0  0  0  0  0  0  # atno 8010 bound_to 7997
  140.6577  143.7384  150.7683 H   0  0  0  0  0  0  0  0  0  0  0  0  # atno 10167 bound_to 10162
  156.0220  130.4432  150.2989 H   0  0  0  0  0  0  0  0  0  0  0  0  # atno 10718 bound_to 10713
  153.3900  135.3884  155.1917 H   0  0  0  0  0  0  0  0  0  0  0  0  # atno 10763 bound_to 10752
  154.8718  135.3746  154.4749 H   0  0  0  0  0  0  0  0  0  0  0  0  # atno 10764 bound_to 10752
  153.5235  135.7086  153.5781 H   0  0  0  0  0  0  0  0  0  0  0  0  # atno 10765 bound_to 10752
  140.4965  134.0788  155.7783 H   0  0  0  0  0  0  0  0  0  0  0  0  # atno 11005 bound_to 11000
  145.7902  139.1924  143.2107 LP  0  0  0  0  0  0  0  0  0  0  0  0  # atno 17320 bound_to 7965
  146.0762  140.7814  142.9664 LP  0  0  0  0  0  0  0  0  0  0  0  0  # atno 17321 bound_to 7965
  140.1047  143.4755  152.2405 LP  0  0  0  0  0  0  0  0  0  0  0  0  # atno 17342 bound_to 10162
  139.5804  144.7507  151.3655 LP  0  0  0  0  0  0  0  0  0  0  0  0  # atno 17343 bound_to 10162
  157.1092  131.0217  151.3054 LP  0  0  0  0  0  0  0  0  0  0  0  0  # atno 17370 bound_to 10713
  157.4718  130.7713  149.7330 LP  0  0  0  0  0  0  0  0  0  0  0  0  # atno 17371 bound_to 10713
  141.1457  133.9059  157.2220 LP  0  0  0  0  0  0  0  0  0  0  0  0  # atno 17394 bound_to 11000
  139.9738  135.0120  156.9580 LP  0  0  0  0  0  0  0  0  0  0  0  0  # atno 17395 bound_to 11000

$$$$
