AV-unprocessed.smi:417|AV-procd|sdf|2527|dock5
  -GOLD-   2262022483D 1   1.00000     0.00000
 Structure written by MMmdl.
 37 38  0  0  0  0  0  0  0  0  1 V2000
  146.7707  139.5464  151.4921 C   0  0  0  0  0  0  0  0  0  0  0  0
  146.9272  138.4599  152.5689 C   0  0  0  0  0  0  0  0  0  0  0  0
  145.6027  137.7148  152.8048 C   0  0  0  0  0  0  0  0  0  0  0  0
  147.4515  139.0632  153.8796 C   0  0  0  0  0  0  0  0  0  0  0  0
  146.7961  138.9324  154.9142 O   0  0  0  0  0  0  0  0  0  0  0  0
  148.6278  139.7135  153.7979 N   0  0  0  0  0  0  0  0  0  0  0  0
  149.3599  140.3447  154.8385 C   0  0  0  0  0  0  0  0  0  0  0  0
  148.5824  140.8181  155.9164 C   0  0  0  0  0  0  0  0  0  0  0  0
  149.2122  141.4705  156.9933 C   0  0  0  0  0  0  0  0  0  0  0  0
  150.6166  141.6459  156.9784 C   0  0  0  0  0  0  0  0  0  0  0  0
  151.3176  142.2943  158.0184 N   0  0  0  0  0  0  0  0  0  0  0  0
  151.6523  141.5213  159.2110 C   0  0  0  0  0  0  0  0  0  0  0  0
  152.6553  142.2920  160.0865 C   0  0  0  0  0  0  0  0  0  0  0  0
  152.1322  143.5793  160.3950 O   0  0  0  0  0  0  0  0  0  0  0  0
  151.9215  144.3584  159.2220 C   0  0  0  0  0  0  0  0  0  0  0  0
  150.8958  143.6625  158.3103 C   0  0  0  0  0  0  0  0  0  0  0  0
  151.3066  141.1286  155.8578 C   0  0  0  0  0  0  0  0  0  0  0  0
  150.7051  140.5017  154.8254 N   0  0  0  0  0  0  0  0  0  0  0  0
  147.7033  140.0902  151.3371 H   0  0  0  0  0  0  0  0  0  0  0  0
  146.0022  140.2719  151.7619 H   0  0  0  0  0  0  0  0  0  0  0  0
  146.4874  139.1067  150.5355 H   0  0  0  0  0  0  0  0  0  0  0  0
  147.6581  137.7350  152.2067 H   0  0  0  0  0  0  0  0  0  0  0  0
  145.7127  136.9415  153.5662 H   0  0  0  0  0  0  0  0  0  0  0  0
  145.2621  137.2267  151.8913 H   0  0  0  0  0  0  0  0  0  0  0  0
  144.8123  138.3927  153.1300 H   0  0  0  0  0  0  0  0  0  0  0  0
  149.0525  139.7519  152.8829 H   0  0  0  0  0  0  0  0  0  0  0  0
  147.5097  140.6894  155.9216 H   0  0  0  0  0  0  0  0  0  0  0  0
  148.6014  141.8350  157.8054 H   0  0  0  0  0  0  0  0  0  0  0  0
  150.7428  141.3201  159.7790 H   0  0  0  0  0  0  0  0  0  0  0  0
  152.0851  140.5608  158.9290 H   0  0  0  0  0  0  0  0  0  0  0  0
  152.8360  141.7502  161.0150 H   0  0  0  0  0  0  0  0  0  0  0  0
  153.6181  142.3895  159.5820 H   0  0  0  0  0  0  0  0  0  0  0  0
  151.5574  145.3441  159.5117 H   0  0  0  0  0  0  0  0  0  0  0  0
  152.8668  144.5101  158.6984 H   0  0  0  0  0  0  0  0  0  0  0  0
  150.7734  144.2512  157.4021 H   0  0  0  0  0  0  0  0  0  0  0  0
  149.9223  143.6323  158.8016 H   0  0  0  0  0  0  0  0  0  0  0  0
  152.3814  141.2005  155.7827 H   0  0  0  0  0  0  0  0  0  0  0  0
  1  2  1  0  0  0  0
  1 19  1  0  0  0  0
  1 20  1  0  0  0  0
  1 21  1  0  0  0  0
  2  3  1  0  0  0  0
  2  4  1  0  0  0  0
  2 22  1  0  0  0  0
  3 23  1  0  0  0  0
  3 24  1  0  0  0  0
  3 25  1  0  0  0  0
  4  5  2  0  0  0  0
  4  6  1  0  0  0  0
  6  7  1  0  0  0  0
  6 26  1  0  0  0  0
  7 18  1  0  0  0  0
  7  8  2  0  0  0  0
  8  9  1  0  0  0  0
  8 27  1  0  0  0  0
  9 10  2  0  0  0  0
  9 28  1  0  0  0  0
 10 11  1  0  0  0  0
 10 17  1  0  0  0  0
 11 16  1  0  0  0  0
 11 12  1  0  0  0  0
 12 13  1  0  0  0  0
 12 29  1  0  0  0  0
 12 30  1  0  0  0  0
 13 14  1  0  0  0  0
 13 31  1  0  0  0  0
 13 32  1  0  0  0  0
 14 15  1  0  0  0  0
 15 16  1  0  0  0  0
 15 33  1  0  0  0  0
 15 34  1  0  0  0  0
 16 35  1  0  0  0  0
 16 36  1  0  0  0  0
 17 18  2  0  0  0  0
 17 37  1  0  0  0  0
M  END
> <s_m_source_file>
AV-unprocessed.smi

> <i_m_source_file_index>
417

> <i_lp_mmshare_version>
43012

> <i_f3d_flags>
0

> <s_epik_input>
W0NIM11bQ0hdKFtDSDNdKUMoPU8pW05IXWMxW2NIXVtjSF1jKFtjSF1uMSlOMltDSDJdW0NIMl1PW0NIMl1bQ0gyXTI=

> <s_epik_cmdline>
J2VwaWtfcHl0aG9uJywgJy1waCcsICc3LjAnLCAnLXRuJywgJzgnLCAnLW1hJywgJzIwMCcsICctbWV0YWxfYmluZGluZycsICctaW1hZScsICc8aW5maWxlLm1hZT4nLCAnLW9tYWUnLCAnPG91dGZpbGUubWFlPic=

> <r_lp_tautomer_probability>
1

> <r_epik_Ionization_Penalty>
0.00384847

> <r_epik_Ionization_Penalty_Charging>
0

> <r_epik_Ionization_Penalty_Neutral>
0.00384847

> <r_epik_State_Penalty>
0.00343319

> <r_epik_Charging_Adjusted_Penalty>
0.00343319

> <i_epik_Tot_Q>
0

> <i_epik_Tot_abs_Q>
0

> <r_epik_Metal_State_Penalty>
-0

> <b_epik_Metal_Only>
0

> <s_lp_Force_Field>
OPLS_2005

> <r_lp_Energy>
26.2331

> <b_lp_Chiralities_Consistent>
1

> <s_lp_Variant>
AV-unprocessed.smi:417-1

> <Gold.Version>
5.8.1

> <Gold.Id.Protein>
6NUR|6NUR_protein|mol2

> <Gold.PLP.Fitness>
37.5239

> <Gold.PLP.PLP>
-32.1285

> <Gold.PLP.part.hbond>
-2.0000

> <Gold.PLP.part.metal>
0.0000

> <Gold.PLP.part.buried>
-0.9072

> <Gold.PLP.part.nonpolar>
-28.3722

> <Gold.PLP.part.repulsive>
0.3360

> <Gold.PLP.ligand.clash>
0.0000

> <Gold.PLP.ligand.torsion>
0.4898

> <Gold.PLP.Chemscore.Hbond>
2.0000

> <Gold.PLP.Chemscore.CHOScore>
0.0000

> <Gold.PLP.Chemscore.Metal>
0.0000

> <Gold.Chemscore.Hbonds>
donor molecule, donor type, donor heavy atom, donor atom, acceptor molecule, acceptor atom, score
      L1  H     6    26       P1  7957  1.00
      P1  H  7989  7998       L1    18  1.00

> <Gold.PLP.Chemscore.Internal.Correction>
0.3751

> <Gold.Rescore>
     Score         DG    S(hbond)    S(metal)    S(lipo)     H(rot)  DE(clash)    DE(int)     intcor
     15.28     -18.36       1.68        0.00      87.84       1.18       1.13       1.95       ----

> <Gold.Chemscore.Fitness>
15.2807

> <Gold.Chemscore.DG>
-18.3617

> <Gold.Chemscore.ZeroCoef>
-5.4800

> <Gold.Chemscore.Hbond>
1.6805

> <Gold.Chemscore.Metal>
0.0000

> <Gold.Chemscore.Lipo>
87.8363

> <Gold.Chemscore.Internal_Hbond>
0.0000

> <Gold.Chemscore.DEClash>
1.1283

> <Gold.Chemscore.DEInternal>
1.9528

> <Gold.Chemscore.Rot>
1.1750

> <Gold.Chemscore.Internal.Correction>
   9.000000E+99

> <Gold.Chemscore.Hbonds>
donor molecule, donor type, donor heavy atom, donor atom, acceptor molecule, acceptor atom, score
      L1  H     6    26       P1  7957  1.00
      P1  H  7989  7998       L1    18  0.48

> <Gold.Chemscore.Hbond.Weighted>
-5.6129

> <Gold.Chemscore.Metal.Weighted>
-0.0000

> <Gold.Chemscore.Lipo.Weighted>
-10.2768

> <Gold.Chemscore.Internal_Hbond.Weighted>
0.0000

> <Gold.Chemscore.DEClash.Weighted>
1.1283

> <Gold.Chemscore.DEInternal.Weighted>
1.9528

> <Gold.Chemscore.Rot.Weighted>
3.0080

> <Gold.Chemscore.Internal.Correction.Weighted>
   9.000000E+99

> <Gold.Protein.RotatedTorsions>
[ 6907 6896 6895 6894 ] final -142.98 input  -60.11 | X-H torsion
[ 7974 7965 7964 7962 ] final -130.40 input  175.53 | X-H torsion
[ 8008 7997 7996 7995 ] final   99.55 input   59.86 | X-H torsion
[ 10167 10162 10161 10158 ] final -103.44 input  -65.29 | X-H torsion
[ 10718 10713 10712 10709 ] final   80.80 input   66.30 | X-H torsion
[ 10763 10752 10751 10750 ] final  -93.06 input  -60.55 | X-H torsion
[ 11005 11000 10999 10996 ] final   94.82 input  -57.11 | X-H torsion

> <Gold.Protein.ActiveResidues>
 VAL166  LYS551  ARG553  GLY616  TRP617  ASP618  TYR619  PRO620  LYS621  CYS622 
 ASP623  PHE694  ASN695  SER759  ASP760  ASP761  ALA762  ILE779  LEU786  VAL792 
 PHE793  MET794  SER795  GLU796  ALA797  LYS798  CYS799  TRP800  GLU811  SER814 

> <Gold.Protein.RotatedAtoms>
  151.0943  133.5292  159.2613 H   0  0  0  0  0  0  0  0  0  0  0  0  # atno 6907 bound_to 6896
  151.2147  135.0494  159.8935 H   0  0  0  0  0  0  0  0  0  0  0  0  # atno 6908 bound_to 6896
  152.5437  134.0754  159.8266 H   0  0  0  0  0  0  0  0  0  0  0  0  # atno 6909 bound_to 6896
  144.9478  140.7311  143.4806 H   0  0  0  0  0  0  0  0  0  0  0  0  # atno 7974 bound_to 7965
  156.1116  140.3227  155.8081 H   0  0  0  0  0  0  0  0  0  0  0  0  # atno 8008 bound_to 7997
  155.4663  140.0543  157.3002 H   0  0  0  0  0  0  0  0  0  0  0  0  # atno 8009 bound_to 7997
  154.4764  140.2034  155.9882 H   0  0  0  0  0  0  0  0  0  0  0  0  # atno 8010 bound_to 7997
  140.2200  143.3683  152.0978 H   0  0  0  0  0  0  0  0  0  0  0  0  # atno 10167 bound_to 10162
  157.6816  130.9975  150.2132 H   0  0  0  0  0  0  0  0  0  0  0  0  # atno 10718 bound_to 10713
  154.6922  135.5208  153.8408 H   0  0  0  0  0  0  0  0  0  0  0  0  # atno 10763 bound_to 10752
  153.0640  135.6578  154.0406 H   0  0  0  0  0  0  0  0  0  0  0  0  # atno 10764 bound_to 10752
  154.0278  135.2988  155.3352 H   0  0  0  0  0  0  0  0  0  0  0  0  # atno 10765 bound_to 10752
  139.8795  134.8866  156.3920 H   0  0  0  0  0  0  0  0  0  0  0  0  # atno 11005 bound_to 11000
  145.2891  139.1890  143.4750 LP  0  0  0  0  0  0  0  0  0  0  0  0  # atno 17320 bound_to 7965
  146.3310  140.2865  142.8613 LP  0  0  0  0  0  0  0  0  0  0  0  0  # atno 17321 bound_to 7965
  139.5148  144.6953  151.5648 LP  0  0  0  0  0  0  0  0  0  0  0  0  # atno 17342 bound_to 10162
  140.6262  143.9164  150.6566 LP  0  0  0  0  0  0  0  0  0  0  0  0  # atno 17343 bound_to 10162
  156.2799  130.3732  149.7946 LP  0  0  0  0  0  0  0  0  0  0  0  0  # atno 17370 bound_to 10713
  156.5637  130.8395  151.3336 LP  0  0  0  0  0  0  0  0  0  0  0  0  # atno 17371 bound_to 10713
  140.9326  133.7568  156.0044 LP  0  0  0  0  0  0  0  0  0  0  0  0  # atno 17394 bound_to 11000
  140.8312  134.3176  157.5348 LP  0  0  0  0  0  0  0  0  0  0  0  0  # atno 17395 bound_to 11000

$$$$
