AV-unprocessed.smi:509|AV-procd|sdf|2761|dock7
  -GOLD-   2262023223D 1   1.00000     0.00000
 Structure written by MMmdl.
 45 47  0  0  0  0  0  0  0  0  1 V2000
  150.5304  136.1784  155.0608 C   0  0  0  0  0  0  0  0  0  0  0  0
  151.7351  136.6443  155.6406 O   0  0  0  0  0  0  0  0  0  0  0  0
  151.5455  137.7988  156.4422 C   0  0  0  0  0  0  0  0  0  0  0  0
  151.3474  139.0228  155.5376 C   0  0  0  0  0  0  0  0  0  0  0  0
  150.8530  140.1783  156.2851 N   0  0  0  0  0  0  0  0  0  0  0  0
  149.7787  140.9735  156.0219 C   0  0  0  0  0  0  0  0  0  0  0  0
  148.9206  140.7467  154.9453 N   0  0  0  0  0  0  0  0  0  0  0  0
  148.4345  141.7315  153.9812 C   0  0  0  0  0  0  0  0  0  0  0  0
  146.9111  141.6034  153.7842 C   0  0  0  0  0  0  0  0  0  0  0  0
  146.6008  140.2784  153.2586 N   0  0  0  0  0  0  0  0  0  0  0  0
  147.0714  139.2772  154.2101 C   0  0  0  0  0  0  0  0  0  0  0  0
  148.5922  139.4254  154.4181 C   0  0  0  0  0  0  0  0  0  0  0  0
  149.6419  142.0109  156.8512 N   0  0  0  0  0  0  0  0  0  0  0  0
  150.6980  141.8499  157.7336 C   0  0  0  0  0  0  0  0  0  0  0  0
  151.4381  140.7636  157.4117 C   0  0  0  0  0  0  0  0  0  0  0  0
  152.6410  140.3746  158.1603 C   0  0  0  0  0  0  0  0  0  0  0  0
  153.3158  139.3998  157.8273 O   0  0  0  0  0  0  0  0  0  0  0  0
  152.9201  141.1861  159.2286 N   0  0  0  0  0  0  0  0  0  0  0  0
  154.0978  140.8708  160.0588 C   0  0  0  0  0  0  0  0  0  0  0  0
  152.1827  142.2964  159.6004 C   0  0  0  0  0  0  0  0  0  0  0  0
  152.4961  142.9705  160.5860 O   0  0  0  0  0  0  0  0  0  0  0  0
  151.0884  142.6372  158.8467 N   0  0  0  0  0  0  0  0  0  0  0  0
  150.2900  143.8142  159.2010 C   0  0  0  0  0  0  0  0  0  0  0  0
  150.7340  135.2945  154.4565 H   0  0  0  0  0  0  0  0  0  0  0  0
  150.0864  136.9352  154.4128 H   0  0  0  0  0  0  0  0  0  0  0  0
  149.8052  135.9027  155.8273 H   0  0  0  0  0  0  0  0  0  0  0  0
  150.6722  137.6685  157.0826 H   0  0  0  0  0  0  0  0  0  0  0  0
  152.4083  137.9474  157.0931 H   0  0  0  0  0  0  0  0  0  0  0  0
  152.2851  139.2585  155.0459 H   0  0  0  0  0  0  0  0  0  0  0  0
  150.6557  138.7952  154.7280 H   0  0  0  0  0  0  0  0  0  0  0  0
  148.7006  142.7389  154.2986 H   0  0  0  0  0  0  0  0  0  0  0  0
  148.9470  141.5808  153.0299 H   0  0  0  0  0  0  0  0  0  0  0  0
  146.3792  141.7670  154.7225 H   0  0  0  0  0  0  0  0  0  0  0  0
  146.5583  142.3549  153.0780 H   0  0  0  0  0  0  0  0  0  0  0  0
  145.6026  140.1865  153.1358 H   0  0  0  0  0  0  0  0  0  0  0  0
  146.5391  139.3842  155.1561 H   0  0  0  0  0  0  0  0  0  0  0  0
  146.8404  138.2851  153.8223 H   0  0  0  0  0  0  0  0  0  0  0  0
  149.1279  139.2587  153.4825 H   0  0  0  0  0  0  0  0  0  0  0  0
  148.9376  138.6617  155.1159 H   0  0  0  0  0  0  0  0  0  0  0  0
  153.7991  140.7023  161.0947 H   0  0  0  0  0  0  0  0  0  0  0  0
  154.8056  141.7011  160.0449 H   0  0  0  0  0  0  0  0  0  0  0  0
  154.6533  139.9843  159.7516 H   0  0  0  0  0  0  0  0  0  0  0  0
  149.7484  143.6366  160.1306 H   0  0  0  0  0  0  0  0  0  0  0  0
  149.5572  144.0701  158.4361 H   0  0  0  0  0  0  0  0  0  0  0  0
  150.9242  144.6912  159.3379 H   0  0  0  0  0  0  0  0  0  0  0  0
  1  2  1  0  0  0  0
  1 24  1  0  0  0  0
  1 25  1  0  0  0  0
  1 26  1  0  0  0  0
  2  3  1  0  0  0  0
  3  4  1  0  0  0  0
  3 27  1  0  0  0  0
  3 28  1  0  0  0  0
  4  5  1  0  0  0  0
  4 29  1  0  0  0  0
  4 30  1  0  0  0  0
  5 15  1  0  0  0  0
  5  6  1  0  0  0  0
  6  7  1  0  0  0  0
  6 13  2  0  0  0  0
  7 12  1  0  0  0  0
  7  8  1  0  0  0  0
  8  9  1  0  0  0  0
  8 31  1  0  0  0  0
  8 32  1  0  0  0  0
  9 10  1  0  0  0  0
  9 33  1  0  0  0  0
  9 34  1  0  0  0  0
 10 11  1  0  0  0  0
 10 35  1  0  0  0  0
 11 12  1  0  0  0  0
 11 36  1  0  0  0  0
 11 37  1  0  0  0  0
 12 38  1  0  0  0  0
 12 39  1  0  0  0  0
 13 14  1  0  0  0  0
 14 22  1  0  0  0  0
 14 15  2  0  0  0  0
 15 16  1  0  0  0  0
 16 17  2  0  0  0  0
 16 18  1  0  0  0  0
 18 19  1  0  0  0  0
 18 20  1  0  0  0  0
 19 40  1  0  0  0  0
 19 41  1  0  0  0  0
 19 42  1  0  0  0  0
 20 21  2  0  0  0  0
 20 22  1  0  0  0  0
 22 23  1  0  0  0  0
 23 43  1  0  0  0  0
 23 44  1  0  0  0  0
 23 45  1  0  0  0  0
M  END
> <s_m_source_file>
AV-unprocessed.smi

> <i_m_source_file_index>
509

> <i_lp_mmshare_version>
43012

> <i_f3d_flags>
0

> <s_epik_input>
W0NIM11uMWMoPU8pbihbQ0gzXSljKD1PKWMoYzEyKW4oW0NIMl1bQ0gyXU9bQ0gzXSljKG4yKU4zW0NIMl1bQ0gyXVtOSF1bQ0gyXVtDSDJdMw==

> <s_epik_cmdline>
J2VwaWtfcHl0aG9uJywgJy1waCcsICc3LjAnLCAnLXRuJywgJzgnLCAnLW1hJywgJzIwMCcsICctbWV0YWxfYmluZGluZycsICctaW1hZScsICc8aW5maWxlLm1hZT4nLCAnLW9tYWUnLCAnPG91dGZpbGUubWFlPic=

> <r_epik_Ionization_Penalty>
2.51424

> <r_epik_Ionization_Penalty_Charging>
1.27827e-08

> <r_epik_Ionization_Penalty_Neutral>
2.51424

> <r_epik_State_Penalty>
2.67993

> <r_epik_Charging_Adjusted_Penalty>
2.67993

> <i_epik_Tot_Q>
0

> <i_epik_Tot_abs_Q>
0

> <r_epik_Metal_State_Penalty>
2.67967

> <b_epik_Metal_Only>
0

> <s_lp_Force_Field>
OPLS_2005

> <r_lp_Energy>
54.3442

> <b_lp_Chiralities_Consistent>
1

> <s_lp_Variant>
AV-unprocessed.smi:509-2

> <Gold.Version>
5.8.1

> <Gold.Id.Protein>
6NUR|6NUR_protein|mol2

> <Gold.PLP.Fitness>
45.7969

> <Gold.PLP.PLP>
-37.9254

> <Gold.PLP.part.hbond>
-3.0000

> <Gold.PLP.part.metal>
0.0000

> <Gold.PLP.part.buried>
-5.0267

> <Gold.PLP.part.nonpolar>
-31.5002

> <Gold.PLP.part.repulsive>
0.7427

> <Gold.PLP.ligand.clash>
0.0000

> <Gold.PLP.ligand.torsion>
0.7302

> <Gold.PLP.Chemscore.Hbond>
3.0000

> <Gold.PLP.Chemscore.CHOScore>
0.0000

> <Gold.PLP.Chemscore.Metal>
0.0000

> <Gold.Chemscore.Hbonds>
donor molecule, donor type, donor heavy atom, donor atom, acceptor molecule, acceptor atom, score
      L1  H    10    35       P1 10175  0.96
      P1  H  7997  8010       L1    17  1.00
      P1  H 10752 10764       L1     2  0.95

> <Gold.PLP.Chemscore.Internal.Correction>
0.3319

> <Gold.Rescore>
     Score         DG    S(hbond)    S(metal)    S(lipo)     H(rot)  DE(clash)    DE(int)     intcor
     11.89     -15.69       2.04        0.00      61.73       1.49       0.67       3.13       ----

> <Gold.Chemscore.Fitness>
11.8896

> <Gold.Chemscore.DG>
-15.6905

> <Gold.Chemscore.ZeroCoef>
-5.4800

> <Gold.Chemscore.Hbond>
2.0378

> <Gold.Chemscore.Metal>
0.0000

> <Gold.Chemscore.Lipo>
61.7304

> <Gold.Chemscore.Internal_Hbond>
0.0000

> <Gold.Chemscore.DEClash>
0.6731

> <Gold.Chemscore.DEInternal>
3.1278

> <Gold.Chemscore.Rot>
1.4915

> <Gold.Chemscore.Internal.Correction>
   9.000000E+99

> <Gold.Chemscore.Hbonds>
donor molecule, donor type, donor heavy atom, donor atom, acceptor molecule, acceptor atom, score
      L1  H    10    35       P1 10175  0.89
      P1  H  7997  8010       L1    17  0.45
      P1  H 10752 10764       L1     2  0.21

> <Gold.Chemscore.Hbond.Weighted>
-6.8064

> <Gold.Chemscore.Metal.Weighted>
-0.0000

> <Gold.Chemscore.Lipo.Weighted>
-7.2225

> <Gold.Chemscore.Internal_Hbond.Weighted>
0.0000

> <Gold.Chemscore.DEClash.Weighted>
0.6731

> <Gold.Chemscore.DEInternal.Weighted>
3.1278

> <Gold.Chemscore.Rot.Weighted>
3.8183

> <Gold.Chemscore.Internal.Correction.Weighted>
   9.000000E+99

> <Gold.Protein.RotatedTorsions>
[ 6907 6896 6895 6894 ] final   16.33 input  -60.11 | X-H torsion
[ 7974 7965 7964 7962 ] final -118.29 input  175.53 | X-H torsion
[ 8008 7997 7996 7995 ] final   42.29 input   59.86 | X-H torsion
[ 10167 10162 10161 10158 ] final   73.07 input  -65.29 | X-H torsion
[ 10718 10713 10712 10709 ] final -131.42 input   66.30 | X-H torsion
[ 10763 10752 10751 10750 ] final  -56.22 input  -60.55 | X-H torsion
[ 11005 11000 10999 10996 ] final   -3.19 input  -57.11 | X-H torsion

> <Gold.Protein.ActiveResidues>
 VAL166  LYS551  ARG553  GLY616  TRP617  ASP618  TYR619  PRO620  LYS621  CYS622 
 ASP623  PHE694  ASN695  SER759  ASP760  ASP761  ALA762  ILE779  LEU786  VAL792 
 PHE793  MET794  SER795  GLU796  ALA797  LYS798  CYS799  TRP800  GLU811  SER814 

> <Gold.Protein.RotatedAtoms>
  151.8322  135.0618  160.0437 H   0  0  0  0  0  0  0  0  0  0  0  0  # atno 6907 bound_to 6896
  152.2872  133.5522  159.5543 H   0  0  0  0  0  0  0  0  0  0  0  0  # atno 6908 bound_to 6896
  150.7214  134.0396  159.3803 H   0  0  0  0  0  0  0  0  0  0  0  0  # atno 6909 bound_to 6896
  145.0755  140.8389  143.4070 H   0  0  0  0  0  0  0  0  0  0  0  0  # atno 7974 bound_to 7965
  155.2837  140.3374  155.4256 H   0  0  0  0  0  0  0  0  0  0  0  0  # atno 8008 bound_to 7997
  156.2078  140.1758  156.7802 H   0  0  0  0  0  0  0  0  0  0  0  0  # atno 8009 bound_to 7997
  154.5644  140.0681  156.8854 H   0  0  0  0  0  0  0  0  0  0  0  0  # atno 8010 bound_to 7997
  140.0284  144.5485  150.7526 H   0  0  0  0  0  0  0  0  0  0  0  0  # atno 10167 bound_to 10162
  156.2242  130.6997  151.0789 H   0  0  0  0  0  0  0  0  0  0  0  0  # atno 10718 bound_to 10713
  154.2032  135.6407  153.5093 H   0  0  0  0  0  0  0  0  0  0  0  0  # atno 10763 bound_to 10752
  153.0007  135.5456  154.6293 H   0  0  0  0  0  0  0  0  0  0  0  0  # atno 10764 bound_to 10752
  154.5711  135.2917  155.0799 H   0  0  0  0  0  0  0  0  0  0  0  0  # atno 10765 bound_to 10752
  140.6666  133.9273  155.8469 H   0  0  0  0  0  0  0  0  0  0  0  0  # atno 11005 bound_to 11000
  145.1241  139.2674  143.5573 LP  0  0  0  0  0  0  0  0  0  0  0  0  # atno 17320 bound_to 7965
  146.3530  140.0873  142.8614 LP  0  0  0  0  0  0  0  0  0  0  0  0  # atno 17321 bound_to 7965
  140.7312  143.2692  151.3943 LP  0  0  0  0  0  0  0  0  0  0  0  0  # atno 17342 bound_to 10162
  139.6092  144.1133  152.2281 LP  0  0  0  0  0  0  0  0  0  0  0  0  # atno 17343 bound_to 10162
  157.7102  131.0737  150.6526 LP  0  0  0  0  0  0  0  0  0  0  0  0  # atno 17370 bound_to 10713
  156.6590  130.4507  149.5694 LP  0  0  0  0  0  0  0  0  0  0  0  0  # atno 17371 bound_to 10713
  141.0424  134.0602  157.3885 LP  0  0  0  0  0  0  0  0  0  0  0  0  # atno 17394 bound_to 11000
  139.8995  135.0159  156.7199 LP  0  0  0  0  0  0  0  0  0  0  0  0  # atno 17395 bound_to 11000

$$$$
