AV-unprocessed.smi:2800|AV-procd|sdf|10795|dock1
  -GOLD-   2272015223D 1   1.00000     0.00000
 Structure written by MMmdl.
 52 53  0  0  0  0  0  0  0  0  2 V2000
  147.3146  142.5040  154.1057 C   0  0  0  0  0  0  0  0  0  0  0  0
  148.1181  141.6260  155.0476 C   0  0  0  0  0  0  0  0  0  0  0  0
  149.1091  142.2154  155.7530 N   0  3  0  0  0  0  0  0  0  0  0  0
  149.9100  141.5605  156.6261 C   0  0  0  0  0  0  0  0  0  0  0  0
  150.9110  142.2865  157.2994 N   0  0  0  0  0  0  0  0  0  0  0  0
  150.6830  143.6474  157.7566 C   0  0  0  0  0  0  0  0  0  0  0  0
  151.9133  143.9866  158.5977 C   0  0  0  0  0  0  0  0  0  0  0  0
  152.3094  142.6368  159.1951 C   0  0  0  0  0  0  0  0  0  0  0  0
  151.9226  141.6233  158.1127 C   0  0  0  0  0  0  0  0  0  0  0  0
  149.6929  140.1786  156.8318 C   0  0  0  0  0  0  0  0  0  0  0  0
  148.6702  139.5175  156.1223 C   0  0  0  0  0  0  0  0  0  0  0  0
  147.8730  140.2405  155.2002 C   0  0  0  0  0  0  0  0  0  0  0  0
  146.8165  139.6533  154.4484 N   0  0  0  0  0  0  0  0  0  0  0  0
  146.6941  138.3861  154.0180 C   0  0  0  0  0  0  0  0  0  0  0  0
  147.4992  137.4803  154.2316 O   0  0  0  0  0  0  0  0  0  0  0  0
  145.5750  138.2277  153.2968 N   0  0  0  0  0  0  0  0  0  0  0  0
  145.1155  136.9757  152.6898 C   0  0  2  0  0  0  0  0  0  0  0  0
  145.2261  137.0792  151.1455 C   0  0  0  0  0  0  0  0  0  0  0  0
  146.5100  137.5166  150.7516 O   0  0  0  0  0  0  0  0  0  0  0  0
  143.7068  136.5815  153.2474 C   0  0  0  0  0  0  0  0  0  0  0  0
  143.7749  136.4817  154.7881 C   0  0  0  0  0  0  0  0  0  0  0  0
  143.2684  135.2022  152.7132 C   0  0  0  0  0  0  0  0  0  0  0  0
  142.6237  137.6224  152.8818 C   0  0  0  0  0  0  0  0  0  0  0  0
  145.8146  136.2006  153.0123 H   0  0  0  0  0  0  0  0  0  0  0  0
  146.2627  142.5054  154.3927 H   0  0  0  0  0  0  0  0  0  0  0  0
  147.3928  142.1347  153.0827 H   0  0  0  0  0  0  0  0  0  0  0  0
  147.6708  143.5348  154.1206 H   0  0  0  0  0  0  0  0  0  0  0  0
  150.5648  144.3395  156.9223 H   0  0  0  0  0  0  0  0  0  0  0  0
  149.7793  143.6804  158.3666 H   0  0  0  0  0  0  0  0  0  0  0  0
  152.7136  144.3527  157.9529 H   0  0  0  0  0  0  0  0  0  0  0  0
  151.7145  144.7464  159.3540 H   0  0  0  0  0  0  0  0  0  0  0  0
  153.3640  142.5841  159.4673 H   0  0  0  0  0  0  0  0  0  0  0  0
  151.7219  142.4526  160.0958 H   0  0  0  0  0  0  0  0  0  0  0  0
  151.5613  140.6963  158.5592 H   0  0  0  0  0  0  0  0  0  0  0  0
  152.7794  141.3871  157.4808 H   0  0  0  0  0  0  0  0  0  0  0  0
  150.2941  139.6143  157.5291 H   0  0  0  0  0  0  0  0  0  0  0  0
  148.5125  138.4675  156.3127 H   0  0  0  0  0  0  0  0  0  0  0  0
  146.1051  140.2956  154.1314 H   0  0  0  0  0  0  0  0  0  0  0  0
  144.9775  139.0310  153.1683 H   0  0  0  0  0  0  0  0  0  0  0  0
  144.9842  136.1416  150.6481 H   0  0  0  0  0  0  0  0  0  0  0  0
  144.5251  137.8187  150.7571 H   0  0  0  0  0  0  0  0  0  0  0  0
  147.1540  137.0754  151.2841 H   0  0  0  0  0  0  0  0  0  0  0  0
  142.8252  136.1484  155.2079 H   0  0  0  0  0  0  0  0  0  0  0  0
  144.0081  137.4406  155.2519 H   0  0  0  0  0  0  0  0  0  0  0  0
  144.5374  135.7697  155.1063 H   0  0  0  0  0  0  0  0  0  0  0  0
  144.0190  134.4385  152.9199 H   0  0  0  0  0  0  0  0  0  0  0  0
  143.0987  135.2189  151.6365 H   0  0  0  0  0  0  0  0  0  0  0  0
  142.3353  134.8764  153.1739 H   0  0  0  0  0  0  0  0  0  0  0  0
  141.6574  137.3463  153.3054 H   0  0  0  0  0  0  0  0  0  0  0  0
  142.4822  137.7068  151.8051 H   0  0  0  0  0  0  0  0  0  0  0  0
  142.8651  138.6155  153.2614 H   0  0  0  0  0  0  0  0  0  0  0  0
  149.2637  143.2145  155.6167 H   0  0  0  0  0  0  0  0  0  0  0  0
  1  2  1  0  0  0  0
  1 25  1  0  0  0  0
  1 26  1  0  0  0  0
  1 27  1  0  0  0  0
  2 12  1  0  0  0  0
  2  3  2  0  0  0  0
  3  4  1  0  0  0  0
  3 52  1  0  0  0  0
  4  5  1  0  0  0  0
  4 10  2  0  0  0  0
  5  9  1  0  0  0  0
  5  6  1  0  0  0  0
  6  7  1  0  0  0  0
  6 28  1  0  0  0  0
  6 29  1  0  0  0  0
  7  8  1  0  0  0  0
  7 30  1  0  0  0  0
  7 31  1  0  0  0  0
  8  9  1  0  0  0  0
  8 32  1  0  0  0  0
  8 33  1  0  0  0  0
  9 34  1  0  0  0  0
  9 35  1  0  0  0  0
 10 11  1  0  0  0  0
 10 36  1  0  0  0  0
 11 12  2  0  0  0  0
 11 37  1  0  0  0  0
 12 13  1  0  0  0  0
 13 14  1  0  0  0  0
 13 38  1  0  0  0  0
 14 15  2  0  0  0  0
 14 16  1  0  0  0  0
 16 17  1  0  0  0  0
 16 39  1  0  0  0  0
 17 24  1  0  0  0  0
 17 18  1  0  0  0  0
 17 20  1  0  0  0  0
 18 19  1  0  0  0  0
 18 40  1  0  0  0  0
 18 41  1  0  0  0  0
 19 42  1  0  0  0  0
 20 21  1  0  0  0  0
 20 22  1  0  0  0  0
 20 23  1  0  0  0  0
 21 43  1  0  0  0  0
 21 44  1  0  0  0  0
 21 45  1  0  0  0  0
 22 46  1  0  0  0  0
 22 47  1  0  0  0  0
 22 48  1  0  0  0  0
 23 49  1  0  0  0  0
 23 50  1  0  0  0  0
 23 51  1  0  0  0  0
M  CHG  1   3   1
M  END
> <s_m_source_file>
AV-unprocessed.smi

> <i_m_source_file_index>
2800

> <i_lp_mmshare_version>
43012

> <i_f3d_flags>
0

> <s_epik_input>
W0NIMl0xW0NIMl1bQ0gyXVtDSDJdTjFjKG5jMltDSDNdKVtjSF1bY0hdYzJbTkhdQyg9TylbTkhdW0NASF0oW0NIMl1bT0hdKUMoW0NIM10pKFtDSDNdKVtDSDNd

> <s_epik_cmdline>
J2VwaWtfcHl0aG9uJywgJy1waCcsICc3LjAnLCAnLXRuJywgJzgnLCAnLW1hJywgJzIwMCcsICctbWV0YWxfYmluZGluZycsICctaW1hZScsICc8aW5maWxlLm1hZT4nLCAnLW9tYWUnLCAnPG91dGZpbGUubWFlPic=

> <r_lp_tautomer_probability>
0.999994

> <r_epik_Ionization_Penalty>
0.536494

> <r_epik_Ionization_Penalty_Charging>
0.536474

> <r_epik_Ionization_Penalty_Neutral>
1.97788e-05

> <r_epik_State_Penalty>
0.545692

> <r_epik_Charging_Adjusted_Penalty>
1.08217

> <i_epik_Tot_Q>
1

> <i_epik_Tot_abs_Q>
1

> <r_epik_Metal_State_Penalty>
0.748506

> <b_epik_Metal_Only>
0

> <s_lp_Force_Field>
OPLS_2005

> <r_lp_Energy>
43.0487

> <b_lp_Chiralities_Consistent>
1

> <s_lp_Variant>
AV-unprocessed.smi:2800-3

> <Gold.Version>
5.8.1

> <Gold.Id.Protein>
6NUR|6NUR_protein|mol2

> <Gold.PLP.Fitness>
43.1666

> <Gold.PLP.PLP>
-32.0686

> <Gold.PLP.part.hbond>
-4.8854

> <Gold.PLP.part.metal>
0.0000

> <Gold.PLP.part.buried>
2.9965

> <Gold.PLP.part.nonpolar>
-30.6885

> <Gold.PLP.part.repulsive>
0.5684

> <Gold.PLP.ligand.clash>
0.0000

> <Gold.PLP.ligand.torsion>
0.5499

> <Gold.PLP.Chemscore.Hbond>
3.9425

> <Gold.PLP.Chemscore.CHOScore>
0.0000

> <Gold.PLP.Chemscore.Metal>
0.0000

> <Gold.Chemscore.Hbonds>
donor molecule, donor type, donor heavy atom, donor atom, acceptor molecule, acceptor atom, score
      L1  H     3    52       P1  8028  2.00
      L1  H    16    39       P1 10175  0.94
      L1  H    19    42       P1  7948  1.00

> <Gold.PLP.Chemscore.Internal.Correction>
0.3704

> <Gold.Rescore>
     Score         DG    S(hbond)    S(metal)    S(lipo)     H(rot)  DE(clash)    DE(int)     intcor
     15.99     -19.86       2.83        0.00      84.61       1.95       2.24       1.62       ----

> <Gold.Chemscore.Fitness>
15.9886

> <Gold.Chemscore.DG>
-19.8555

> <Gold.Chemscore.ZeroCoef>
-5.4800

> <Gold.Chemscore.Hbond>
2.8347

> <Gold.Chemscore.Metal>
0.0000

> <Gold.Chemscore.Lipo>
84.6084

> <Gold.Chemscore.Internal_Hbond>
0.0000

> <Gold.Chemscore.DEClash>
2.2438

> <Gold.Chemscore.DEInternal>
1.6231

> <Gold.Chemscore.Rot>
1.9499

> <Gold.Chemscore.Internal.Correction>
   9.000000E+99

> <Gold.Chemscore.Hbonds>
donor molecule, donor type, donor heavy atom, donor atom, acceptor molecule, acceptor atom, score
      L1  H     3    52       P1  8028  0.93
      L1  H    16    39       P1 10175  0.90
      L1  H    19    42       P1  7948  0.93

> <Gold.Chemscore.Hbond.Weighted>
-9.4679

> <Gold.Chemscore.Metal.Weighted>
-0.0000

> <Gold.Chemscore.Lipo.Weighted>
-9.8992

> <Gold.Chemscore.Internal_Hbond.Weighted>
0.0000

> <Gold.Chemscore.DEClash.Weighted>
2.2438

> <Gold.Chemscore.DEInternal.Weighted>
1.6231

> <Gold.Chemscore.Rot.Weighted>
4.9916

> <Gold.Chemscore.Internal.Correction.Weighted>
   9.000000E+99

> <Gold.Protein.RotatedTorsions>
[ 6907 6896 6895 6894 ] final   62.18 input  -60.11 | X-H torsion
[ 7974 7965 7964 7962 ] final   22.65 input  175.53 | X-H torsion
[ 8008 7997 7996 7995 ] final -156.83 input   59.86 | X-H torsion
[ 10167 10162 10161 10158 ] final  -97.90 input  -65.29 | X-H torsion
[ 10718 10713 10712 10709 ] final -117.36 input   66.30 | X-H torsion
[ 10763 10752 10751 10750 ] final   51.80 input  -60.55 | X-H torsion
[ 11005 11000 10999 10996 ] final  -17.93 input  -57.11 | X-H torsion

> <Gold.Protein.ActiveResidues>
 VAL166  LYS551  ARG553  GLY616  TRP617  ASP618  TYR619  PRO620  LYS621  CYS622 
 ASP623  PHE694  ASN695  SER759  ASP760  ASP761  ALA762  ILE779  LEU786  VAL792 
 PHE793  MET794  SER795  GLU796  ALA797  LYS798  CYS799  TRP800  GLU811  SER814 

> <Gold.Protein.RotatedAtoms>
  152.4151  134.6056  160.0011 H   0  0  0  0  0  0  0  0  0  0  0  0  # atno 6907 bound_to 6896
  151.6222  133.3332  159.3098 H   0  0  0  0  0  0  0  0  0  0  0  0  # atno 6908 bound_to 6896
  150.8040  134.7192  159.6693 H   0  0  0  0  0  0  0  0  0  0  0  0  # atno 6909 bound_to 6896
  146.2019  139.7855  142.8755 H   0  0  0  0  0  0  0  0  0  0  0  0  # atno 7974 bound_to 7965
  155.7232  140.0792  157.2321 H   0  0  0  0  0  0  0  0  0  0  0  0  # atno 8008 bound_to 7997
  154.4042  140.1609  156.2480 H   0  0  0  0  0  0  0  0  0  0  0  0  # atno 8009 bound_to 7997
  155.9177  140.3400  155.6151 H   0  0  0  0  0  0  0  0  0  0  0  0  # atno 8010 bound_to 7997
  140.2785  143.3297  152.0464 H   0  0  0  0  0  0  0  0  0  0  0  0  # atno 10167 bound_to 10162
  156.1028  130.6186  150.9153 H   0  0  0  0  0  0  0  0  0  0  0  0  # atno 10718 bound_to 10713
  152.9786  135.5834  154.4474 H   0  0  0  0  0  0  0  0  0  0  0  0  # atno 10763 bound_to 10752
  154.4067  135.2769  155.2064 H   0  0  0  0  0  0  0  0  0  0  0  0  # atno 10764 bound_to 10752
  154.3872  135.6133  153.5877 H   0  0  0  0  0  0  0  0  0  0  0  0  # atno 10765 bound_to 10752
  140.8217  133.8063  155.9666 H   0  0  0  0  0  0  0  0  0  0  0  0  # atno 11005 bound_to 11000
  145.3453  141.0296  143.3369 LP  0  0  0  0  0  0  0  0  0  0  0  0  # atno 17320 bound_to 7965
  144.8703  139.5047  143.6770 LP  0  0  0  0  0  0  0  0  0  0  0  0  # atno 17321 bound_to 7965
  139.4969  144.6608  151.6469 LP  0  0  0  0  0  0  0  0  0  0  0  0  # atno 17342 bound_to 10162
  140.5831  143.9911  150.6280 LP  0  0  0  0  0  0  0  0  0  0  0  0  # atno 17343 bound_to 10162
  157.6201  131.0930  150.8639 LP  0  0  0  0  0  0  0  0  0  0  0  0  # atno 17370 bound_to 10713
  156.8763  130.5164  149.5293 LP  0  0  0  0  0  0  0  0  0  0  0  0  # atno 17371 bound_to 10713
  140.9092  134.2282  157.4996 LP  0  0  0  0  0  0  0  0  0  0  0  0  # atno 17394 bound_to 11000
  139.8708  134.9742  156.4838 LP  0  0  0  0  0  0  0  0  0  0  0  0  # atno 17395 bound_to 11000

$$$$
