AV-unprocessed.smi:496|AV-procd|sdf|2716|dock2
  -GOLD-   2262023163D 1   1.00000     0.00000
 Structure written by MMmdl.
 42 44  0  0  0  0  0  0  0  0  1 V2000
  152.8411  138.5310  154.9059 C   0  0  0  0  0  0  0  0  0  0  0  0
  152.9506  138.9360  156.2592 O   0  0  0  0  0  0  0  0  0  0  0  0
  152.9932  137.8369  157.1523 C   0  0  0  0  0  0  0  0  0  0  0  0
  152.7099  138.3414  158.5726 C   0  0  0  0  0  0  0  0  0  0  0  0
  151.8128  139.4874  158.5694 N   0  0  0  0  0  0  0  0  0  0  0  0
  150.4893  139.5310  158.2627 C   0  0  0  0  0  0  0  0  0  0  0  0
  149.7049  138.3116  157.8456 C   0  0  2  0  0  0  0  0  0  0  0  0
  148.6658  138.6347  156.7630 C   0  0  0  0  0  0  0  0  0  0  0  0
  149.0491  137.7576  159.0274 N   0  0  0  0  0  0  0  0  0  0  0  0
  148.9828  136.4528  159.3369 C   0  0  0  0  0  0  0  0  0  0  0  0
  149.4580  135.5630  158.6312 O   0  0  0  0  0  0  0  0  0  0  0  0
  148.2770  136.1266  160.5902 C   0  0  0  0  0  0  0  0  0  0  0  0
  147.9417  134.9233  161.1542 C   0  0  0  0  0  0  0  0  0  0  0  0
  147.2500  135.2181  162.3615 C   0  0  0  0  0  0  0  0  0  0  0  0
  147.2062  136.5802  162.4461 C   0  0  0  0  0  0  0  0  0  0  0  0
  147.8215  137.1477  161.3733 O   0  0  0  0  0  0  0  0  0  0  0  0
  149.9163  140.7339  158.3617 N   0  0  0  0  0  0  0  0  0  0  0  0
  150.9634  141.5435  158.7519 C   0  0  0  0  0  0  0  0  0  0  0  0
  151.0007  142.9314  159.0157 C   0  0  0  0  0  0  0  0  0  0  0  0
  152.2069  143.5522  159.4012 C   0  0  0  0  0  0  0  0  0  0  0  0
  153.3896  142.7955  159.5286 C   0  0  0  0  0  0  0  0  0  0  0  0
  153.3730  141.4109  159.2722 C   0  0  0  0  0  0  0  0  0  0  0  0
  152.1662  140.7956  158.8877 C   0  0  0  0  0  0  0  0  0  0  0  0
  152.8128  139.4098  154.2617 H   0  0  0  0  0  0  0  0  0  0  0  0
  151.9267  137.9606  154.7374 H   0  0  0  0  0  0  0  0  0  0  0  0
  153.6947  137.9213  154.6064 H   0  0  0  0  0  0  0  0  0  0  0  0
  152.2477  137.0934  156.8650 H   0  0  0  0  0  0  0  0  0  0  0  0
  153.9720  137.3574  157.1057 H   0  0  0  0  0  0  0  0  0  0  0  0
  152.2909  137.5520  159.1962 H   0  0  0  0  0  0  0  0  0  0  0  0
  153.6448  138.6315  159.0527 H   0  0  0  0  0  0  0  0  0  0  0  0
  150.3679  137.5526  157.4329 H   0  0  0  0  0  0  0  0  0  0  0  0
  149.1447  139.0412  155.8719 H   0  0  0  0  0  0  0  0  0  0  0  0
  147.9382  139.3681  157.1124 H   0  0  0  0  0  0  0  0  0  0  0  0
  148.1192  137.7397  156.4647 H   0  0  0  0  0  0  0  0  0  0  0  0
  148.6316  138.4174  159.6671 H   0  0  0  0  0  0  0  0  0  0  0  0
  148.1654  133.9474  160.7483 H   0  0  0  0  0  0  0  0  0  0  0  0
  146.8352  134.5223  163.0759 H   0  0  0  0  0  0  0  0  0  0  0  0
  146.7958  137.2751  163.1640 H   0  0  0  0  0  0  0  0  0  0  0  0
  150.1002  143.5196  158.9199 H   0  0  0  0  0  0  0  0  0  0  0  0
  152.2249  144.6139  159.5992 H   0  0  0  0  0  0  0  0  0  0  0  0
  154.3098  143.2786  159.8236 H   0  0  0  0  0  0  0  0  0  0  0  0
  154.2785  140.8308  159.3687 H   0  0  0  0  0  0  0  0  0  0  0  0
  1  2  1  0  0  0  0
  1 24  1  0  0  0  0
  1 25  1  0  0  0  0
  1 26  1  0  0  0  0
  2  3  1  0  0  0  0
  3  4  1  0  0  0  0
  3 27  1  0  0  0  0
  3 28  1  0  0  0  0
  4  5  1  0  0  0  0
  4 29  1  0  0  0  0
  4 30  1  0  0  0  0
  5 23  1  0  0  0  0
  5  6  1  0  0  0  0
  6  7  1  0  0  0  0
  6 17  2  0  0  0  0
  7  8  1  0  0  0  0
  7  9  1  0  0  0  0
  7 31  1  0  0  0  0
  8 32  1  0  0  0  0
  8 33  1  0  0  0  0
  8 34  1  0  0  0  0
  9 10  1  0  0  0  0
  9 35  1  0  0  0  0
 10 11  2  0  0  0  0
 10 12  1  0  0  0  0
 12 16  1  0  0  0  0
 12 13  2  0  0  0  0
 13 14  1  0  0  0  0
 13 36  1  0  0  0  0
 14 15  2  0  0  0  0
 14 37  1  0  0  0  0
 15 16  1  0  0  0  0
 15 38  1  0  0  0  0
 17 18  1  0  0  0  0
 18 23  2  0  0  0  0
 18 19  1  0  0  0  0
 19 20  2  0  0  0  0
 19 39  1  0  0  0  0
 20 21  1  0  0  0  0
 20 40  1  0  0  0  0
 21 22  2  0  0  0  0
 21 41  1  0  0  0  0
 22 23  1  0  0  0  0
 22 42  1  0  0  0  0
M  END
> <s_m_source_file>
AV-unprocessed.smi

> <i_m_source_file_index>
496

> <i_lp_mmshare_version>
43012

> <i_f3d_flags>
0

> <s_epik_input>
W2NIXTFbY0hdW2NIXVtjSF1jKGMxMiluKFtDSDJdW0NIMl1PW0NIM10pYyhuMilbQ0BIXShbQ0gzXSlbTkhdQyg9TyljM1tjSF1bY0hdW2NIXW8z

> <s_epik_cmdline>
J2VwaWtfcHl0aG9uJywgJy1waCcsICc3LjAnLCAnLXRuJywgJzgnLCAnLW1hJywgJzIwMCcsICctbWV0YWxfYmluZGluZycsICctaW1hZScsICc8aW5maWxlLm1hZT4nLCAnLW9tYWUnLCAnPG91dGZpbGUubWFlPic=

> <r_epik_Ionization_Penalty>
0.116528

> <r_epik_Ionization_Penalty_Charging>
0

> <r_epik_Ionization_Penalty_Neutral>
0.116528

> <r_epik_State_Penalty>
0.106132

> <r_epik_Charging_Adjusted_Penalty>
0.106132

> <i_epik_Tot_Q>
0

> <i_epik_Tot_abs_Q>
0

> <r_epik_Metal_State_Penalty>
0.0963468

> <b_epik_Metal_Only>
0

> <s_lp_Force_Field>
OPLS_2005

> <r_lp_Energy>
7.66614

> <b_lp_Chiralities_Consistent>
1

> <s_lp_Variant>
AV-unprocessed.smi:496-1

> <Gold.Version>
5.8.1

> <Gold.Id.Protein>
6NUR|6NUR_protein|mol2

> <Gold.PLP.Fitness>
51.4050

> <Gold.PLP.PLP>
-42.5375

> <Gold.PLP.part.hbond>
-4.0000

> <Gold.PLP.part.metal>
0.0000

> <Gold.PLP.part.buried>
-5.9659

> <Gold.PLP.part.nonpolar>
-33.2418

> <Gold.PLP.part.repulsive>
0.2280

> <Gold.PLP.ligand.clash>
0.0000

> <Gold.PLP.ligand.torsion>
1.2578

> <Gold.PLP.Chemscore.Hbond>
3.7680

> <Gold.PLP.Chemscore.CHOScore>
0.0000

> <Gold.PLP.Chemscore.Metal>
0.0000

> <Gold.Chemscore.Hbonds>
donor molecule, donor type, donor heavy atom, donor atom, acceptor molecule, acceptor atom, score
      P1  H  6896  6909       L1    11  1.00
      P1  H  6931  6943       L1    16  1.00
      P1  H  6934  6947       L1    16  0.75
      P1  H  7997  8009       L1     2  0.99

> <Gold.PLP.Chemscore.Internal.Correction>
0.0792

> <Gold.Rescore>
     Score         DG    S(hbond)    S(metal)    S(lipo)     H(rot)  DE(clash)    DE(int)     intcor
     23.10     -24.14       3.16        0.00     109.81       1.85       0.06       0.98       ----

> <Gold.Chemscore.Fitness>
23.1020

> <Gold.Chemscore.DG>
-24.1383

> <Gold.Chemscore.ZeroCoef>
-5.4800

> <Gold.Chemscore.Hbond>
3.1562

> <Gold.Chemscore.Metal>
0.0000

> <Gold.Chemscore.Lipo>
109.8061

> <Gold.Chemscore.Internal_Hbond>
0.0000

> <Gold.Chemscore.DEClash>
0.0580

> <Gold.Chemscore.DEInternal>
0.9783

> <Gold.Chemscore.Rot>
1.8480

> <Gold.Chemscore.Internal.Correction>
   9.000000E+99

> <Gold.Chemscore.Hbonds>
donor molecule, donor type, donor heavy atom, donor atom, acceptor molecule, acceptor atom, score
      P1  H  6896  6909       L1    11  0.91
      P1  H  6931  6943       L1    16  0.65
      P1  H  6934  6947       L1    16  0.64
      P1  H  7997  8009       L1     2  0.53

> <Gold.Chemscore.Hbond.Weighted>
-10.5418

> <Gold.Chemscore.Metal.Weighted>
-0.0000

> <Gold.Chemscore.Lipo.Weighted>
-12.8473

> <Gold.Chemscore.Internal_Hbond.Weighted>
0.0000

> <Gold.Chemscore.DEClash.Weighted>
0.0580

> <Gold.Chemscore.DEInternal.Weighted>
0.9783

> <Gold.Chemscore.Rot.Weighted>
4.7308

> <Gold.Chemscore.Internal.Correction.Weighted>
   9.000000E+99

> <Gold.Protein.RotatedTorsions>
[ 6907 6896 6895 6894 ] final   34.50 input  -60.11 | X-H torsion
[ 7974 7965 7964 7962 ] final   69.78 input  175.53 | X-H torsion
[ 8008 7997 7996 7995 ] final  176.07 input   59.86 | X-H torsion
[ 10167 10162 10161 10158 ] final  -71.57 input  -65.29 | X-H torsion
[ 10718 10713 10712 10709 ] final   99.56 input   66.30 | X-H torsion
[ 10763 10752 10751 10750 ] final -146.07 input  -60.55 | X-H torsion
[ 11005 11000 10999 10996 ] final  153.48 input  -57.11 | X-H torsion

> <Gold.Protein.ActiveResidues>
 VAL166  LYS551  ARG553  GLY616  TRP617  ASP618  TYR619  PRO620  LYS621  CYS622 
 ASP623  PHE694  ASN695  SER759  ASP760  ASP761  ALA762  ILE779  LEU786  VAL792 
 PHE793  MET794  SER795  GLU796  ALA797  LYS798  CYS799  TRP800  GLU811  SER814 

> <Gold.Protein.RotatedAtoms>
  152.1033  134.9326  160.0568 H   0  0  0  0  0  0  0  0  0  0  0  0  # atno 6907 bound_to 6896
  152.0532  133.4023  159.4394 H   0  0  0  0  0  0  0  0  0  0  0  0  # atno 6908 bound_to 6896
  150.6840  134.3205  159.4828 H   0  0  0  0  0  0  0  0  0  0  0  0  # atno 6909 bound_to 6896
  145.7863  139.2912  143.1236 H   0  0  0  0  0  0  0  0  0  0  0  0  # atno 7974 bound_to 7965
  156.0804  140.1393  156.9719 H   0  0  0  0  0  0  0  0  0  0  0  0  # atno 8008 bound_to 7997
  154.4582  140.0953  156.6866 H   0  0  0  0  0  0  0  0  0  0  0  0  # atno 8009 bound_to 7997
  155.5085  140.3453  155.4386 H   0  0  0  0  0  0  0  0  0  0  0  0  # atno 8010 bound_to 7997
  140.5262  143.2326  151.7343 H   0  0  0  0  0  0  0  0  0  0  0  0  # atno 10167 bound_to 10162
  157.6873  131.0673  150.4968 H   0  0  0  0  0  0  0  0  0  0  0  0  # atno 10718 bound_to 10713
  154.8353  135.3396  154.6604 H   0  0  0  0  0  0  0  0  0  0  0  0  # atno 10763 bound_to 10752
  153.7219  135.6957  153.5015 H   0  0  0  0  0  0  0  0  0  0  0  0  # atno 10764 bound_to 10752
  153.2375  135.4396  155.0615 H   0  0  0  0  0  0  0  0  0  0  0  0  # atno 10765 bound_to 10752
  140.1402  134.8744  157.2320 H   0  0  0  0  0  0  0  0  0  0  0  0  # atno 11005 bound_to 11000
  146.0023  140.8509  143.0012 LP  0  0  0  0  0  0  0  0  0  0  0  0  # atno 17320 bound_to 7965
  144.6788  140.2370  143.7348 LP  0  0  0  0  0  0  0  0  0  0  0  0  # atno 17321 bound_to 7965
  139.4939  144.4182  152.0007 LP  0  0  0  0  0  0  0  0  0  0  0  0  # atno 17342 bound_to 10162
  140.3281  144.3348  150.5993 LP  0  0  0  0  0  0  0  0  0  0  0  0  # atno 17343 bound_to 10162
  156.5291  130.4180  149.6211 LP  0  0  0  0  0  0  0  0  0  0  0  0  # atno 17370 bound_to 10713
  156.3085  130.7216  151.2103 LP  0  0  0  0  0  0  0  0  0  0  0  0  # atno 17371 bound_to 10713
  140.2732  134.3436  155.7367 LP  0  0  0  0  0  0  0  0  0  0  0  0  # atno 17394 bound_to 11000
  141.2184  133.7435  156.9254 LP  0  0  0  0  0  0  0  0  0  0  0  0  # atno 17395 bound_to 11000

$$$$
