AV-unprocessed.smi:3315|AV-procd|sdf|12750|dock2
  -GOLD-   2272019 83D 1   1.00000     0.00000
 Structure written by MMmdl.
 37 38  0  0  0  0  0  0  0  0  1 V2000
  145.4938  130.3246  151.6784 C   0  0  0  0  0  0  0  0  0  0  0  0
  144.8925  131.6104  151.7699 O   0  0  0  0  0  0  0  0  0  0  0  0
  145.4192  132.6457  150.9282 C   0  0  2  0  0  0  0  0  0  0  0  0
  145.2734  132.2629  149.4501 C   0  0  0  0  0  0  0  0  0  0  0  0
  146.7877  133.1184  151.4569 C   0  0  0  0  0  0  0  0  0  0  0  0
  146.0182  134.0118  152.4278 C   0  0  1  0  0  0  0  0  0  0  0  0
  146.6598  135.3055  152.6361 N   0  0  0  0  0  0  0  0  0  0  0  0
  146.0745  136.3491  153.2394 C   0  0  0  0  0  0  0  0  0  0  0  0
  144.9246  136.3191  153.6778 O   0  0  0  0  0  0  0  0  0  0  0  0
  146.9002  137.4078  153.2897 N   0  0  0  0  0  0  0  0  0  0  0  0
  146.6620  138.6851  153.8598 C   0  0  0  0  0  0  0  0  0  0  0  0
  147.3459  139.8940  153.5391 C   0  0  0  0  0  0  0  0  0  0  0  0
  146.7376  140.8089  154.3501 C   0  0  0  0  0  0  0  0  0  0  0  0
  145.7694  140.2185  155.0994 O   0  0  0  0  0  0  0  0  0  0  0  0
  145.7271  138.8567  154.7775 N   0  0  0  0  0  0  0  0  0  0  0  0
  144.8448  134.0168  151.4145 C   0  0  0  0  0  0  0  0  0  0  0  0
  144.8347  135.1521  150.3729 C   0  0  0  0  0  0  0  0  0  0  0  0
  143.4362  133.9932  152.0177 C   0  0  0  0  0  0  0  0  0  0  0  0
  145.1081  129.6947  152.4797 H   0  0  0  0  0  0  0  0  0  0  0  0
  146.5776  130.3632  151.7822 H   0  0  0  0  0  0  0  0  0  0  0  0
  145.2485  129.8328  150.7374 H   0  0  0  0  0  0  0  0  0  0  0  0
  145.5747  133.0751  148.7896 H   0  0  0  0  0  0  0  0  0  0  0  0
  144.2410  132.0103  149.2076 H   0  0  0  0  0  0  0  0  0  0  0  0
  145.8984  131.4107  149.1848 H   0  0  0  0  0  0  0  0  0  0  0  0
  147.4048  132.3618  151.9398 H   0  0  0  0  0  0  0  0  0  0  0  0
  147.3613  133.6731  150.7122 H   0  0  0  0  0  0  0  0  0  0  0  0
  145.7784  133.4839  153.3539 H   0  0  0  0  0  0  0  0  0  0  0  0
  147.6069  135.4092  152.3025 H   0  0  0  0  0  0  0  0  0  0  0  0
  147.8107  137.2861  152.8714 H   0  0  0  0  0  0  0  0  0  0  0  0
  148.1446  140.0781  152.8369 H   0  0  0  0  0  0  0  0  0  0  0  0
  146.8728  141.8695  154.5023 H   0  0  0  0  0  0  0  0  0  0  0  0
  144.5888  136.1130  150.8263 H   0  0  0  0  0  0  0  0  0  0  0  0
  144.0982  134.9690  149.5897 H   0  0  0  0  0  0  0  0  0  0  0  0
  145.8010  135.2712  149.8829 H   0  0  0  0  0  0  0  0  0  0  0  0
  143.1381  134.9767  152.3827 H   0  0  0  0  0  0  0  0  0  0  0  0
  143.3674  133.3130  152.8667 H   0  0  0  0  0  0  0  0  0  0  0  0
  142.6951  133.6736  151.2847 H   0  0  0  0  0  0  0  0  0  0  0  0
  1  2  1  0  0  0  0
  1 19  1  0  0  0  0
  1 20  1  0  0  0  0
  1 21  1  0  0  0  0
  2  3  1  0  0  0  0
  3 16  1  0  0  0  0
  3  4  1  0  0  0  0
  3  5  1  0  0  0  0
  4 22  1  0  0  0  0
  4 23  1  0  0  0  0
  4 24  1  0  0  0  0
  5  6  1  0  0  0  0
  5 25  1  0  0  0  0
  5 26  1  0  0  0  0
  6  7  1  0  0  0  0
  6 16  1  0  0  0  0
  6 27  1  0  0  0  0
  7  8  1  0  0  0  0
  7 28  1  0  0  0  0
  8  9  2  0  0  0  0
  8 10  1  0  0  0  0
 10 11  1  0  0  0  0
 10 29  1  0  0  0  0
 11 15  2  0  0  0  0
 11 12  1  0  0  0  0
 12 13  2  0  0  0  0
 12 30  1  0  0  0  0
 13 14  1  0  0  0  0
 13 31  1  0  0  0  0
 14 15  1  0  0  0  0
 16 17  1  0  0  0  0
 16 18  1  0  0  0  0
 17 32  1  0  0  0  0
 17 33  1  0  0  0  0
 17 34  1  0  0  0  0
 18 35  1  0  0  0  0
 18 36  1  0  0  0  0
 18 37  1  0  0  0  0
M  END
> <s_m_source_file>
AV-unprocessed.smi

> <i_m_source_file_index>
3315

> <i_lp_mmshare_version>
43012

> <i_f3d_flags>
0

> <s_epik_input>
W0NIM11PW0NAQF0xKFtDSDNdKVtDSDJdW0NASF0oQzEoW0NIM10pW0NIM10pW05IXUMoPU8pW05IXWMyW2NIXVtjSF1vbjI=

> <s_epik_cmdline>
J2VwaWtfcHl0aG9uJywgJy1waCcsICc3LjAnLCAnLXRuJywgJzgnLCAnLW1hJywgJzIwMCcsICctbWV0YWxfYmluZGluZycsICctaW1hZScsICc8aW5maWxlLm1hZT4nLCAnLW9tYWUnLCAnPG91dGZpbGUubWFlPic=

> <r_lp_tautomer_probability>
1

> <r_epik_Ionization_Penalty>
2.28875e-05

> <r_epik_Ionization_Penalty_Charging>
0

> <r_epik_Ionization_Penalty_Neutral>
2.28875e-05

> <r_epik_State_Penalty>
-0

> <r_epik_Charging_Adjusted_Penalty>
0

> <i_epik_Tot_Q>
0

> <i_epik_Tot_abs_Q>
0

> <r_epik_Metal_State_Penalty>
-0

> <b_epik_Metal_Only>
0

> <s_lp_Force_Field>
OPLS_2005

> <r_lp_Energy>
24.1983

> <b_lp_Chiralities_Consistent>
1

> <s_lp_Variant>
AV-unprocessed.smi:3315-2

> <Gold.Version>
5.8.1

> <Gold.Id.Protein>
6NUR|6NUR_protein|mol2

> <Gold.PLP.Fitness>
32.2943

> <Gold.PLP.PLP>
-26.5656

> <Gold.PLP.part.hbond>
-2.0000

> <Gold.PLP.part.metal>
0.0000

> <Gold.PLP.part.buried>
-2.7871

> <Gold.PLP.part.nonpolar>
-22.2723

> <Gold.PLP.part.repulsive>
0.4318

> <Gold.PLP.ligand.clash>
0.0000

> <Gold.PLP.ligand.torsion>
0.2888

> <Gold.PLP.Chemscore.Hbond>
1.9760

> <Gold.PLP.Chemscore.CHOScore>
0.0000

> <Gold.PLP.Chemscore.Metal>
0.0000

> <Gold.Chemscore.Hbonds>
donor molecule, donor type, donor heavy atom, donor atom, acceptor molecule, acceptor atom, score
      L1  H     7    28       P1  7948  1.00
      L1  H    10    29       P1  7948  0.98

> <Gold.PLP.Chemscore.Internal.Correction>
0.3784

> <Gold.Rescore>
     Score         DG    S(hbond)    S(metal)    S(lipo)     H(rot)  DE(clash)    DE(int)     intcor
     15.13     -16.90       1.95        0.00      70.59       1.30       0.19       1.58       ----

> <Gold.Chemscore.Fitness>
15.1333

> <Gold.Chemscore.DG>
-16.8996

> <Gold.Chemscore.ZeroCoef>
-5.4800

> <Gold.Chemscore.Hbond>
1.9456

> <Gold.Chemscore.Metal>
0.0000

> <Gold.Chemscore.Lipo>
70.5908

> <Gold.Chemscore.Internal_Hbond>
0.0000

> <Gold.Chemscore.DEClash>
0.1889

> <Gold.Chemscore.DEInternal>
1.5774

> <Gold.Chemscore.Rot>
1.3038

> <Gold.Chemscore.Internal.Correction>
   9.000000E+99

> <Gold.Chemscore.Hbonds>
donor molecule, donor type, donor heavy atom, donor atom, acceptor molecule, acceptor atom, score
      L1  H     7    28       P1  7948  0.98
      L1  H    10    29       P1  7948  0.93

> <Gold.Chemscore.Hbond.Weighted>
-6.4983

> <Gold.Chemscore.Metal.Weighted>
-0.0000

> <Gold.Chemscore.Lipo.Weighted>
-8.2591

> <Gold.Chemscore.Internal_Hbond.Weighted>
0.0000

> <Gold.Chemscore.DEClash.Weighted>
0.1889

> <Gold.Chemscore.DEInternal.Weighted>
1.5774

> <Gold.Chemscore.Rot.Weighted>
3.3377

> <Gold.Chemscore.Internal.Correction.Weighted>
   9.000000E+99

> <Gold.Protein.RotatedTorsions>
[ 6907 6896 6895 6894 ] final -115.93 input  -60.11 | X-H torsion
[ 7974 7965 7964 7962 ] final    8.93 input  175.53 | X-H torsion
[ 8008 7997 7996 7995 ] final  -25.35 input   59.86 | X-H torsion
[ 10167 10162 10161 10158 ] final   37.87 input  -65.29 | X-H torsion
[ 10718 10713 10712 10709 ] final    1.91 input   66.30 | X-H torsion
[ 10763 10752 10751 10750 ] final -126.49 input  -60.55 | X-H torsion
[ 11005 11000 10999 10996 ] final -129.58 input  -57.11 | X-H torsion

> <Gold.Protein.ActiveResidues>
 VAL166  LYS551  ARG553  GLY616  TRP617  ASP618  TYR619  PRO620  LYS621  CYS622 
 ASP623  PHE694  ASN695  SER759  ASP760  ASP761  ALA762  ILE779  LEU786  VAL792 
 PHE793  MET794  SER795  GLU796  ALA797  LYS798  CYS799  TRP800  GLU811  SER814 

> <Gold.Protein.RotatedAtoms>
  150.8016  133.8589  159.3225 H   0  0  0  0  0  0  0  0  0  0  0  0  # atno 6907 bound_to 6896
  151.6399  135.1012  160.0149 H   0  0  0  0  0  0  0  0  0  0  0  0  # atno 6908 bound_to 6896
  152.4104  133.6914  159.6427 H   0  0  0  0  0  0  0  0  0  0  0  0  # atno 6909 bound_to 6896
  146.2410  139.9859  142.8431 H   0  0  0  0  0  0  0  0  0  0  0  0  # atno 7974 bound_to 7965
  154.4480  140.1929  156.0606 H   0  0  0  0  0  0  0  0  0  0  0  0  # atno 8008 bound_to 7997
  156.0586  140.3299  155.7407 H   0  0  0  0  0  0  0  0  0  0  0  0  # atno 8009 bound_to 7997
  155.5447  140.0589  157.2853 H   0  0  0  0  0  0  0  0  0  0  0  0  # atno 8010 bound_to 7997
  140.3991  144.1748  150.6133 H   0  0  0  0  0  0  0  0  0  0  0  0  # atno 10167 bound_to 10162
  156.8552  130.5567  149.5667 H   0  0  0  0  0  0  0  0  0  0  0  0  # atno 10718 bound_to 10713
  154.8746  135.3994  154.3439 H   0  0  0  0  0  0  0  0  0  0  0  0  # atno 10763 bound_to 10752
  153.4235  135.7023  153.6284 H   0  0  0  0  0  0  0  0  0  0  0  0  # atno 10764 bound_to 10752
  153.4936  135.3743  155.2474 H   0  0  0  0  0  0  0  0  0  0  0  0  # atno 10765 bound_to 10752
  140.9419  134.1181  157.4142 H   0  0  0  0  0  0  0  0  0  0  0  0  # atno 11005 bound_to 11000
  145.1548  140.9642  143.4412 LP  0  0  0  0  0  0  0  0  0  0  0  0  # atno 17320 bound_to 7965
  145.0171  139.3457  143.6091 LP  0  0  0  0  0  0  0  0  0  0  0  0  # atno 17321 bound_to 7965
  140.4759  143.2396  151.9024 LP  0  0  0  0  0  0  0  0  0  0  0  0  # atno 17342 bound_to 10162
  139.4785  144.5321  151.8652 LP  0  0  0  0  0  0  0  0  0  0  0  0  # atno 17343 bound_to 10162
  156.0807  130.5818  150.9557 LP  0  0  0  0  0  0  0  0  0  0  0  0  # atno 17370 bound_to 10713
  157.6281  131.0924  150.8494 LP  0  0  0  0  0  0  0  0  0  0  0  0  # atno 17371 bound_to 10713
  139.8823  135.0039  156.6217 LP  0  0  0  0  0  0  0  0  0  0  0  0  # atno 17394 bound_to 11000
  140.7722  133.8729  155.8501 LP  0  0  0  0  0  0  0  0  0  0  0  0  # atno 17395 bound_to 11000

$$$$
