AV-unprocessed.smi:396|AV-procd|sdf|2487|dock7
  -GOLD-   2262022433D 1   1.00000     0.00000
 Structure written by MMmdl.
 40 42  0  0  0  0  0  0  0  0  1 V2000
  155.5195  140.8125  161.4647 N   0  0  0  0  0  0  0  0  0  0  0  0
  154.6661  141.1305  160.7504 C   0  0  0  0  0  0  0  0  0  0  0  0
  153.6089  141.4923  159.8656 C   0  0  0  0  0  0  0  0  0  0  0  0
  153.2923  142.7814  159.6260 C   0  0  0  0  0  0  0  0  0  0  0  0
  152.2819  143.1484  158.7642 N   0  0  0  0  0  0  0  0  0  0  0  0
  151.8738  144.5180  158.6270 C   0  0  0  0  0  0  0  0  0  0  0  0
  151.7767  145.4125  159.8478 C   0  0  0  0  0  0  0  0  0  0  0  0
  150.5208  144.9377  159.1592 C   0  0  0  0  0  0  0  0  0  0  0  0
  151.4729  142.1627  158.1577 C   0  0  0  0  0  0  0  0  0  0  0  0
  150.5126  142.4731  157.4482 O   0  0  0  0  0  0  0  0  0  0  0  0
  151.7988  140.8041  158.3889 N   0  0  0  0  0  0  0  0  0  0  0  0
  151.0049  139.7605  157.7036 C   0  0  0  0  0  0  0  0  0  0  0  0
  150.8220  140.0210  156.2007 C   0  0  0  0  0  0  0  0  0  0  0  0
  151.7917  140.0883  155.4433 O   0  0  0  0  0  0  0  0  0  0  0  0
  149.5554  140.1589  155.7815 N   0  0  0  0  0  0  0  0  0  0  0  0
  149.1536  140.4074  154.3996 C   0  0  0  0  0  0  0  0  0  0  0  0
  148.2887  141.6775  154.3061 C   0  0  0  0  0  0  0  0  0  0  0  0
  146.8659  141.1973  154.0182 C   0  0  0  0  0  0  0  0  0  0  0  0
  147.0622  139.9200  153.2081 C   0  0  0  0  0  0  0  0  0  0  0  0
  148.2889  139.2589  153.8387 C   0  0  0  0  0  0  0  0  0  0  0  0
  152.8730  140.4048  159.2247 C   0  0  0  0  0  0  0  0  0  0  0  0
  153.1470  139.2138  159.3819 O   0  0  0  0  0  0  0  0  0  0  0  0
  153.8569  143.5587  160.1204 H   0  0  0  0  0  0  0  0  0  0  0  0
  152.1914  145.0062  157.7073 H   0  0  0  0  0  0  0  0  0  0  0  0
  152.0015  144.9816  160.8218 H   0  0  0  0  0  0  0  0  0  0  0  0
  152.0545  146.4572  159.7259 H   0  0  0  0  0  0  0  0  0  0  0  0
  149.9587  145.6667  158.5791 H   0  0  0  0  0  0  0  0  0  0  0  0
  149.9201  144.1937  159.6790 H   0  0  0  0  0  0  0  0  0  0  0  0
  151.4569  138.7752  157.8283 H   0  0  0  0  0  0  0  0  0  0  0  0
  150.0203  139.6573  158.1627 H   0  0  0  0  0  0  0  0  0  0  0  0
  148.8169  140.0884  156.4665 H   0  0  0  0  0  0  0  0  0  0  0  0
  150.0453  140.5437  153.7845 H   0  0  0  0  0  0  0  0  0  0  0  0
  148.3381  142.3039  155.1979 H   0  0  0  0  0  0  0  0  0  0  0  0
  148.6356  142.2862  153.4698 H   0  0  0  0  0  0  0  0  0  0  0  0
  146.3588  140.9640  154.9555 H   0  0  0  0  0  0  0  0  0  0  0  0
  146.2694  141.9426  153.4912 H   0  0  0  0  0  0  0  0  0  0  0  0
  146.1840  139.2738  153.2204 H   0  0  0  0  0  0  0  0  0  0  0  0
  147.2749  140.1744  152.1689 H   0  0  0  0  0  0  0  0  0  0  0  0
  148.8356  138.6462  153.1213 H   0  0  0  0  0  0  0  0  0  0  0  0
  147.9602  138.5964  154.6414 H   0  0  0  0  0  0  0  0  0  0  0  0
  1  2  3  0  0  0  0
  2  3  1  0  0  0  0
  3 21  1  0  0  0  0
  3  4  2  0  0  0  0
  4  5  1  0  0  0  0
  4 23  1  0  0  0  0
  5  6  1  0  0  0  0
  5  9  1  0  0  0  0
  6  8  1  0  0  0  0
  6  7  1  0  0  0  0
  6 24  1  0  0  0  0
  7  8  1  0  0  0  0
  7 25  1  0  0  0  0
  7 26  1  0  0  0  0
  8 27  1  0  0  0  0
  8 28  1  0  0  0  0
  9 10  2  0  0  0  0
  9 11  1  0  0  0  0
 11 12  1  0  0  0  0
 11 21  1  0  0  0  0
 12 13  1  0  0  0  0
 12 29  1  0  0  0  0
 12 30  1  0  0  0  0
 13 14  2  0  0  0  0
 13 15  1  0  0  0  0
 15 16  1  0  0  0  0
 15 31  1  0  0  0  0
 16 20  1  0  0  0  0
 16 17  1  0  0  0  0
 16 32  1  0  0  0  0
 17 18  1  0  0  0  0
 17 33  1  0  0  0  0
 17 34  1  0  0  0  0
 18 19  1  0  0  0  0
 18 35  1  0  0  0  0
 18 36  1  0  0  0  0
 19 20  1  0  0  0  0
 19 37  1  0  0  0  0
 19 38  1  0  0  0  0
 20 39  1  0  0  0  0
 20 40  1  0  0  0  0
 21 22  2  0  0  0  0
M  END
> <s_m_source_file>
AV-unprocessed.smi

> <i_m_source_file_index>
396

> <i_lp_mmshare_version>
43012

> <i_f3d_flags>
0

> <s_epik_input>
TiNDYzFbY0hdbihbQ0hdMltDSDJdW0NIMl0yKWMoPU8pbihjMT1PKVtDSDJdQyg9TylbTkhdW0NIXTNbQ0gyXVtDSDJdW0NIMl1bQ0gyXTM=

> <s_epik_cmdline>
J2VwaWtfcHl0aG9uJywgJy1waCcsICc3LjAnLCAnLXRuJywgJzgnLCAnLW1hJywgJzIwMCcsICctbWV0YWxfYmluZGluZycsICctaW1hZScsICc8aW5maWxlLm1hZT4nLCAnLW9tYWUnLCAnPG91dGZpbGUubWFlPic=

> <r_lp_tautomer_probability>
1

> <r_epik_Ionization_Penalty>
1.93885e-08

> <r_epik_Ionization_Penalty_Charging>
8.67893e-11

> <r_epik_Ionization_Penalty_Neutral>
1.93017e-08

> <r_epik_State_Penalty>
-0

> <r_epik_Charging_Adjusted_Penalty>
8.67893e-11

> <i_epik_Tot_Q>
0

> <i_epik_Tot_abs_Q>
0

> <r_epik_Metal_State_Penalty>
-0

> <b_epik_Metal_Only>
0

> <s_lp_Force_Field>
OPLS_2005

> <r_lp_Energy>
43.3866

> <b_lp_Chiralities_Consistent>
1

> <s_lp_Variant>
AV-unprocessed.smi:396-1

> <Gold.Version>
5.8.1

> <Gold.Id.Protein>
6NUR|6NUR_protein|mol2

> <Gold.PLP.Fitness>
52.6217

> <Gold.PLP.PLP>
-50.5479

> <Gold.PLP.part.hbond>
-2.0000

> <Gold.PLP.part.metal>
0.0000

> <Gold.PLP.part.buried>
-3.8697

> <Gold.PLP.part.nonpolar>
-45.3029

> <Gold.PLP.part.repulsive>
0.1969

> <Gold.PLP.ligand.clash>
0.0000

> <Gold.PLP.ligand.torsion>
0.3587

> <Gold.PLP.Chemscore.Hbond>
0.8640

> <Gold.PLP.Chemscore.CHOScore>
0.0000

> <Gold.PLP.Chemscore.Metal>
0.0000

> <Gold.Chemscore.Hbonds>
donor molecule, donor type, donor heavy atom, donor atom, acceptor molecule, acceptor atom, score
      P1  H  7989  7998       L1    14  0.74

> <Gold.PLP.Chemscore.Internal.Correction>
0.1992

> <Gold.Rescore>
     Score         DG    S(hbond)    S(metal)    S(lipo)     H(rot)  DE(clash)    DE(int)     intcor
     12.49     -15.54       0.96        0.00      97.12       1.76       0.07       2.98       ----

> <Gold.Chemscore.Fitness>
12.4861

> <Gold.Chemscore.DG>
-15.5405

> <Gold.Chemscore.ZeroCoef>
-5.4800

> <Gold.Chemscore.Hbond>
0.9610

> <Gold.Chemscore.Metal>
0.0000

> <Gold.Chemscore.Lipo>
97.1216

> <Gold.Chemscore.Internal_Hbond>
0.0000

> <Gold.Chemscore.DEClash>
0.0742

> <Gold.Chemscore.DEInternal>
2.9801

> <Gold.Chemscore.Rot>
1.7627

> <Gold.Chemscore.Internal.Correction>
   9.000000E+99

> <Gold.Chemscore.Hbonds>
donor molecule, donor type, donor heavy atom, donor atom, acceptor molecule, acceptor atom, score
      P1  H  7989  7998       L1    14  0.71

> <Gold.Chemscore.Hbond.Weighted>
-3.2098

> <Gold.Chemscore.Metal.Weighted>
-0.0000

> <Gold.Chemscore.Lipo.Weighted>
-11.3632

> <Gold.Chemscore.Internal_Hbond.Weighted>
0.0000

> <Gold.Chemscore.DEClash.Weighted>
0.0742

> <Gold.Chemscore.DEInternal.Weighted>
2.9801

> <Gold.Chemscore.Rot.Weighted>
4.5126

> <Gold.Chemscore.Internal.Correction.Weighted>
   9.000000E+99

> <Gold.Protein.RotatedTorsions>
[ 6907 6896 6895 6894 ] final -141.06 input  -60.11 | X-H torsion
[ 7974 7965 7964 7962 ] final   23.51 input  175.53 | X-H torsion
[ 8008 7997 7996 7995 ] final  -75.57 input   59.86 | X-H torsion
[ 10167 10162 10161 10158 ] final  -82.65 input  -65.29 | X-H torsion
[ 10718 10713 10712 10709 ] final  153.65 input   66.30 | X-H torsion
[ 10763 10752 10751 10750 ] final  162.36 input  -60.55 | X-H torsion
[ 11005 11000 10999 10996 ] final  139.36 input  -57.11 | X-H torsion

> <Gold.Protein.ActiveResidues>
 VAL166  LYS551  ARG553  GLY616  TRP617  ASP618  TYR619  PRO620  LYS621  CYS622 
 ASP623  PHE694  ASN695  SER759  ASP760  ASP761  ALA762  ILE779  LEU786  VAL792 
 PHE793  MET794  SER795  GLU796  ALA797  LYS798  CYS799  TRP800  GLU811  SER814 

> <Gold.Protein.RotatedAtoms>
  151.0688  133.5483  159.2628 H   0  0  0  0  0  0  0  0  0  0  0  0  # atno 6907 bound_to 6896
  151.2430  135.0595  159.9042 H   0  0  0  0  0  0  0  0  0  0  0  0  # atno 6908 bound_to 6896
  152.5408  134.0460  159.8142 H   0  0  0  0  0  0  0  0  0  0  0  0  # atno 6909 bound_to 6896
  146.1981  139.7735  142.8782 H   0  0  0  0  0  0  0  0  0  0  0  0  # atno 7974 bound_to 7965
  154.5429  140.0742  156.8540 H   0  0  0  0  0  0  0  0  0  0  0  0  # atno 8008 bound_to 7997
  155.3145  140.3392  155.4225 H   0  0  0  0  0  0  0  0  0  0  0  0  # atno 8009 bound_to 7997
  156.1891  140.1679  156.8114 H   0  0  0  0  0  0  0  0  0  0  0  0  # atno 8010 bound_to 7997
  140.4300  143.2552  151.8772 H   0  0  0  0  0  0  0  0  0  0  0  0  # atno 10167 bound_to 10162
  157.2420  131.0761  151.1786 H   0  0  0  0  0  0  0  0  0  0  0  0  # atno 10718 bound_to 10713
  154.2772  135.2764  155.2713 H   0  0  0  0  0  0  0  0  0  0  0  0  # atno 10763 bound_to 10752
  154.5250  135.5745  153.6715 H   0  0  0  0  0  0  0  0  0  0  0  0  # atno 10764 bound_to 10752
  152.9935  135.6214  154.2929 H   0  0  0  0  0  0  0  0  0  0  0  0  # atno 10765 bound_to 10752
  140.0249  134.9379  157.0548 H   0  0  0  0  0  0  0  0  0  0  0  0  # atno 11005 bound_to 11000
  145.3576  141.0320  143.3303 LP  0  0  0  0  0  0  0  0  0  0  0  0  # atno 17320 bound_to 7965
  144.8623  139.5159  143.6806 LP  0  0  0  0  0  0  0  0  0  0  0  0  # atno 17321 bound_to 7965
  139.4784  144.5345  151.8619 LP  0  0  0  0  0  0  0  0  0  0  0  0  # atno 17342 bound_to 10162
  140.4438  144.1950  150.5893 LP  0  0  0  0  0  0  0  0  0  0  0  0  # atno 17343 bound_to 10162
  157.3368  130.7013  149.6357 LP  0  0  0  0  0  0  0  0  0  0  0  0  # atno 17370 bound_to 10713
  155.9669  130.4291  150.4819 LP  0  0  0  0  0  0  0  0  0  0  0  0  # atno 17371 bound_to 10713
  140.4324  134.1767  155.7169 LP  0  0  0  0  0  0  0  0  0  0  0  0  # atno 17394 bound_to 11000
  141.1796  133.8441  157.1302 LP  0  0  0  0  0  0  0  0  0  0  0  0  # atno 17395 bound_to 11000

$$$$
