AV-unprocessed.smi:260|AV-procd|sdf|1977|dock10
  -GOLD-   2262021143D 1   1.00000     0.00000
 Structure written by MMmdl.
 53 56  0  0  0  0  0  0  0  0  1 V2000
  144.1083  139.0933  156.1980 C   0  0  0  0  0  0  0  0  0  0  0  0
  144.9558  139.2697  155.0286 N   0  0  0  0  0  0  0  0  0  0  0  0
  146.2616  138.9602  154.9826 C   0  0  0  0  0  0  0  0  0  0  0  0
  146.8507  138.4890  155.9571 O   0  0  0  0  0  0  0  0  0  0  0  0
  147.0277  139.2144  153.6543 C   0  0  1  0  0  0  0  0  0  0  0  0
  146.3667  138.5004  152.4521 C   0  0  0  0  0  0  0  0  0  0  0  0
  147.1658  140.7305  153.4052 C   0  0  0  0  0  0  0  0  0  0  0  0
  148.4126  141.1531  154.1862 C   0  0  0  0  0  0  0  0  0  0  0  0
  149.2464  139.9647  154.2287 N   0  0  0  0  0  0  0  0  0  0  0  0
  150.4029  139.8867  154.9374 C   0  0  0  0  0  0  0  0  0  0  0  0
  151.4621  139.2512  154.3693 N   0  0  0  0  0  0  0  0  0  0  0  0
  152.6226  139.1441  155.0212 C   0  0  0  0  0  0  0  0  0  0  0  0
  152.9415  139.5964  156.2342 N   0  0  0  0  0  0  0  0  0  0  0  0
  151.8890  140.2424  156.8114 C   0  0  0  0  0  0  0  0  0  0  0  0
  150.5966  140.4344  156.2415 C   0  0  0  0  0  0  0  0  0  0  0  0
  149.7979  141.1410  157.1358 N   0  0  0  0  0  0  0  0  0  0  0  0
  150.5670  141.3474  158.1689 C   0  0  0  0  0  0  0  0  0  0  0  0
  151.8392  140.8383  158.0592 N   0  0  0  0  0  0  0  0  0  0  0  0
  152.8922  140.9190  159.0562 C   0  0  0  0  0  0  0  0  0  0  0  0
  152.5512  141.9047  160.1905 C   0  0  1  0  0  0  0  0  0  0  0  0
  153.3576  141.6177  161.3172 O   0  0  0  0  0  0  0  0  0  0  0  0
  152.7798  143.3696  159.7757 C   0  0  2  0  0  0  0  0  0  0  0  0
  152.2910  144.4029  160.7926 C   0  0  0  0  0  0  0  0  0  0  0  0
  152.0134  145.6375  159.9487 C   0  0  0  0  0  0  0  0  0  0  0  0
  151.9948  145.1104  158.5116 C   0  0  0  0  0  0  0  0  0  0  0  0
  151.9980  143.6953  158.6366 O   0  0  0  0  0  0  0  0  0  0  0  0
  148.5062  138.7838  153.7948 C   0  0  0  0  0  0  0  0  0  0  0  0
  143.0930  139.4202  155.9738 H   0  0  0  0  0  0  0  0  0  0  0  0
  144.4786  139.6819  157.0383 H   0  0  0  0  0  0  0  0  0  0  0  0
  144.0712  138.0446  156.4958 H   0  0  0  0  0  0  0  0  0  0  0  0
  144.5254  139.6529  154.1994 H   0  0  0  0  0  0  0  0  0  0  0  0
  146.9455  138.6474  151.5395 H   0  0  0  0  0  0  0  0  0  0  0  0
  145.3641  138.8829  152.2562 H   0  0  0  0  0  0  0  0  0  0  0  0
  146.2937  137.4242  152.6152 H   0  0  0  0  0  0  0  0  0  0  0  0
  147.3287  140.9209  152.3435 H   0  0  0  0  0  0  0  0  0  0  0  0
  146.2848  141.3020  153.7012 H   0  0  0  0  0  0  0  0  0  0  0  0
  148.9223  141.9858  153.7009 H   0  0  0  0  0  0  0  0  0  0  0  0
  148.1484  141.4518  155.2013 H   0  0  0  0  0  0  0  0  0  0  0  0
  153.4078  138.6211  154.4956 H   0  0  0  0  0  0  0  0  0  0  0  0
  150.2241  141.8769  159.0460 H   0  0  0  0  0  0  0  0  0  0  0  0
  153.0770  139.9213  159.4564 H   0  0  0  0  0  0  0  0  0  0  0  0
  153.8097  141.2254  158.5525 H   0  0  0  0  0  0  0  0  0  0  0  0
  151.5083  141.7715  160.4815 H   0  0  0  0  0  0  0  0  0  0  0  0
  154.2584  141.5642  161.0354 H   0  0  0  0  0  0  0  0  0  0  0  0
  153.8326  143.5433  159.5436 H   0  0  0  0  0  0  0  0  0  0  0  0
  151.3642  144.0652  161.2585 H   0  0  0  0  0  0  0  0  0  0  0  0
  153.0168  144.5866  161.5854 H   0  0  0  0  0  0  0  0  0  0  0  0
  151.0608  146.0901  160.2260 H   0  0  0  0  0  0  0  0  0  0  0  0
  152.7922  146.3909  160.0721 H   0  0  0  0  0  0  0  0  0  0  0  0
  151.1257  145.4533  157.9499 H   0  0  0  0  0  0  0  0  0  0  0  0
  152.8918  145.4251  157.9762 H   0  0  0  0  0  0  0  0  0  0  0  0
  148.6133  137.9553  154.4971 H   0  0  0  0  0  0  0  0  0  0  0  0
  148.9157  138.4539  152.8395 H   0  0  0  0  0  0  0  0  0  0  0  0
  1  2  1  0  0  0  0
  1 28  1  0  0  0  0
  1 29  1  0  0  0  0
  1 30  1  0  0  0  0
  2  3  1  0  0  0  0
  2 31  1  0  0  0  0
  3  4  2  0  0  0  0
  3  5  1  0  0  0  0
  5 27  1  0  0  0  0
  5  6  1  0  0  0  0
  5  7  1  0  0  0  0
  6 32  1  0  0  0  0
  6 33  1  0  0  0  0
  6 34  1  0  0  0  0
  7  8  1  0  0  0  0
  7 35  1  0  0  0  0
  7 36  1  0  0  0  0
  8  9  1  0  0  0  0
  8 37  1  0  0  0  0
  8 38  1  0  0  0  0
  9 10  1  0  0  0  0
  9 27  1  0  0  0  0
 10 15  1  0  0  0  0
 10 11  2  0  0  0  0
 11 12  1  0  0  0  0
 12 13  2  0  0  0  0
 12 39  1  0  0  0  0
 13 14  1  0  0  0  0
 14 18  1  0  0  0  0
 14 15  2  0  0  0  0
 15 16  1  0  0  0  0
 16 17  2  0  0  0  0
 17 18  1  0  0  0  0
 17 40  1  0  0  0  0
 18 19  1  0  0  0  0
 19 20  1  0  0  0  0
 19 41  1  0  0  0  0
 19 42  1  0  0  0  0
 20 21  1  0  0  0  0
 20 22  1  0  0  0  0
 20 43  1  0  0  0  0
 21 44  1  0  0  0  0
 22 26  1  0  0  0  0
 22 23  1  0  0  0  0
 22 45  1  0  0  0  0
 23 24  1  0  0  0  0
 23 46  1  0  0  0  0
 23 47  1  0  0  0  0
 24 25  1  0  0  0  0
 24 48  1  0  0  0  0
 24 49  1  0  0  0  0
 25 26  1  0  0  0  0
 25 50  1  0  0  0  0
 25 51  1  0  0  0  0
 27 52  1  0  0  0  0
 27 53  1  0  0  0  0
M  END
> <s_m_source_file>
AV-unprocessed.smi

> <i_m_source_file_index>
260

> <i_lp_mmshare_version>
43012

> <i_f3d_flags>
0

> <s_epik_input>
W0NIM11bTkhdQyg9TylbQ0BAXTEoW0NIM10pW0NIMl1bQ0gyXU4oW0NIMl0xKWMobltjSF1uMiljKGMyMyluW2NIXW4zW0NIMl1bQ0BIXShbT0hdKVtDQEBIXTRbQ0gyXVtDSDJdW0NIMl1PNA==

> <s_epik_cmdline>
J2VwaWtfcHl0aG9uJywgJy1waCcsICc3LjAnLCAnLXRuJywgJzgnLCAnLW1hJywgJzIwMCcsICctbWV0YWxfYmluZGluZycsICctaW1hZScsICc8aW5maWxlLm1hZT4nLCAnLW9tYWUnLCAnPG91dGZpbGUubWFlPic=

> <r_lp_tautomer_probability>
1

> <r_epik_Ionization_Penalty>
0.00115068

> <r_epik_Ionization_Penalty_Charging>
0

> <r_epik_Ionization_Penalty_Neutral>
0.00115068

> <r_epik_State_Penalty>
0.000668876

> <r_epik_Charging_Adjusted_Penalty>
0.000668876

> <i_epik_Tot_Q>
0

> <i_epik_Tot_abs_Q>
0

> <r_epik_Metal_State_Penalty>
-0

> <b_epik_Metal_Only>
0

> <s_lp_Force_Field>
OPLS_2005

> <r_lp_Energy>
48.4888

> <b_lp_Chiralities_Consistent>
1

> <s_lp_Variant>
AV-unprocessed.smi:260-3

> <Gold.Version>
5.8.1

> <Gold.Id.Protein>
6NUR|6NUR_protein|mol2

> <Gold.PLP.Fitness>
56.3844

> <Gold.PLP.PLP>
-51.9111

> <Gold.PLP.part.hbond>
-3.0000

> <Gold.PLP.part.metal>
0.0000

> <Gold.PLP.part.buried>
-4.1352

> <Gold.PLP.part.nonpolar>
-45.7340

> <Gold.PLP.part.repulsive>
0.2220

> <Gold.PLP.ligand.clash>
0.0000

> <Gold.PLP.ligand.torsion>
1.3136

> <Gold.PLP.Chemscore.Hbond>
2.3000

> <Gold.PLP.Chemscore.CHOScore>
0.0000

> <Gold.PLP.Chemscore.Metal>
0.0000

> <Gold.Chemscore.Hbonds>
donor molecule, donor type, donor heavy atom, donor atom, acceptor molecule, acceptor atom, score
      L1  H     2    31       P1 10175  0.88
      P1  H  7989  7998       L1    11  0.15
      P1  H  7997  8010       L1    13  1.00

> <Gold.PLP.Chemscore.Internal.Correction>
0.2005

> <Gold.Rescore>
     Score         DG    S(hbond)    S(metal)    S(lipo)     H(rot)  DE(clash)    DE(int)     intcor
     13.96     -17.88       1.86        0.00     108.08       2.53       0.20       3.72       ----

> <Gold.Chemscore.Fitness>
13.9608

> <Gold.Chemscore.DG>
-17.8785

> <Gold.Chemscore.ZeroCoef>
-5.4800

> <Gold.Chemscore.Hbond>
1.8620

> <Gold.Chemscore.Metal>
0.0000

> <Gold.Chemscore.Lipo>
108.0829

> <Gold.Chemscore.Internal_Hbond>
0.0000

> <Gold.Chemscore.DEClash>
0.2010

> <Gold.Chemscore.DEInternal>
3.7167

> <Gold.Chemscore.Rot>
2.5259

> <Gold.Chemscore.Internal.Correction>
   9.000000E+99

> <Gold.Chemscore.Hbonds>
donor molecule, donor type, donor heavy atom, donor atom, acceptor molecule, acceptor atom, score
      L1  H     2    31       P1 10175  0.86
      P1  H  7997  8010       L1    13  0.42

> <Gold.Chemscore.Hbond.Weighted>
-6.2191

> <Gold.Chemscore.Metal.Weighted>
-0.0000

> <Gold.Chemscore.Lipo.Weighted>
-12.6457

> <Gold.Chemscore.Internal_Hbond.Weighted>
0.0000

> <Gold.Chemscore.DEClash.Weighted>
0.2010

> <Gold.Chemscore.DEInternal.Weighted>
3.7167

> <Gold.Chemscore.Rot.Weighted>
6.4663

> <Gold.Chemscore.Internal.Correction.Weighted>
   9.000000E+99

> <Gold.Protein.RotatedTorsions>
[ 6907 6896 6895 6894 ] final  -86.97 input  -60.11 | X-H torsion
[ 7974 7965 7964 7962 ] final  121.90 input  175.53 | X-H torsion
[ 8008 7997 7996 7995 ] final   95.55 input   59.86 | X-H torsion
[ 10167 10162 10161 10158 ] final   76.57 input  -65.29 | X-H torsion
[ 10718 10713 10712 10709 ] final   20.75 input   66.30 | X-H torsion
[ 10763 10752 10751 10750 ] final  -85.31 input  -60.55 | X-H torsion
[ 11005 11000 10999 10996 ] final -179.54 input  -57.11 | X-H torsion

> <Gold.Protein.ActiveResidues>
 VAL166  LYS551  ARG553  GLY616  TRP617  ASP618  TYR619  PRO620  LYS621  CYS622 
 ASP623  PHE694  ASN695  SER759  ASP760  ASP761  ALA762  ILE779  LEU786  VAL792 
 PHE793  MET794  SER795  GLU796  ALA797  LYS798  CYS799  TRP800  GLU811  SER814 

> <Gold.Protein.RotatedAtoms>
  150.6866  134.2968  159.4689 H   0  0  0  0  0  0  0  0  0  0  0  0  # atno 6907 bound_to 6896
  152.0868  134.9432  160.0582 H   0  0  0  0  0  0  0  0  0  0  0  0  # atno 6908 bound_to 6896
  152.0763  133.4096  159.4518 H   0  0  0  0  0  0  0  0  0  0  0  0  # atno 6909 bound_to 6896
  145.1138  139.3434  143.4749 H   0  0  0  0  0  0  0  0  0  0  0  0  # atno 7974 bound_to 7965
  156.0701  140.3285  155.7566 H   0  0  0  0  0  0  0  0  0  0  0  0  # atno 8008 bound_to 7997
  155.5319  140.0594  157.2904 H   0  0  0  0  0  0  0  0  0  0  0  0  # atno 8009 bound_to 7997
  154.4526  140.1926  156.0492 H   0  0  0  0  0  0  0  0  0  0  0  0  # atno 8010 bound_to 7997
  139.9909  144.5758  150.7819 H   0  0  0  0  0  0  0  0  0  0  0  0  # atno 10167 bound_to 10162
  157.1288  130.6582  149.5945 H   0  0  0  0  0  0  0  0  0  0  0  0  # atno 10718 bound_to 10713
  154.6097  135.5489  153.7460 H   0  0  0  0  0  0  0  0  0  0  0  0  # atno 10763 bound_to 10752
  153.0189  135.6386  154.1597 H   0  0  0  0  0  0  0  0  0  0  0  0  # atno 10764 bound_to 10752
  154.1535  135.2901  155.3109 H   0  0  0  0  0  0  0  0  0  0  0  0  # atno 10765 bound_to 10752
  140.4175  134.6636  157.4646 H   0  0  0  0  0  0  0  0  0  0  0  0  # atno 11005 bound_to 11000
  146.3525  140.1068  142.8605 LP  0  0  0  0  0  0  0  0  0  0  0  0  # atno 17320 bound_to 7965
  145.0817  140.9225  143.4821 LP  0  0  0  0  0  0  0  0  0  0  0  0  # atno 17321 bound_to 7965
  140.7455  143.2876  151.3419 LP  0  0  0  0  0  0  0  0  0  0  0  0  # atno 17342 bound_to 10162
  139.6341  144.0664  152.2501 LP  0  0  0  0  0  0  0  0  0  0  0  0  # atno 17343 bound_to 10162
  155.9812  130.4818  150.6816 LP  0  0  0  0  0  0  0  0  0  0  0  0  # atno 17370 bound_to 10713
  157.4410  131.0861  151.0943 LP  0  0  0  0  0  0  0  0  0  0  0  0  # atno 17371 bound_to 10713
  140.0224  134.6528  155.9221 LP  0  0  0  0  0  0  0  0  0  0  0  0  # atno 17394 bound_to 11000
  141.1797  133.6545  156.4970 LP  0  0  0  0  0  0  0  0  0  0  0  0  # atno 17395 bound_to 11000

$$$$
