AV-unprocessed.smi:290|AV-procd|sdf|2246|dock2
  -GOLD-   2262022133D 1   1.00000     0.00000
 Structure written by MMmdl.
 59 62  0  0  0  0  0  0  0  0  2 V2000
  151.4478  141.2793  157.2313 C   0  0  0  0  0  0  0  0  0  0  0  0
  151.5569  140.6631  155.8276 C   0  0  1  0  0  0  0  0  0  0  0  0
  152.5731  139.6639  155.8820 O   0  0  0  0  0  0  0  0  0  0  0  0
  152.2402  138.6139  154.9914 C   0  0  0  0  0  0  0  0  0  0  0  0
  150.7352  138.4939  155.1740 C   0  0  0  0  0  0  0  0  0  0  0  0
  150.2889  139.9490  155.2793 C   0  0  2  0  0  0  0  0  0  0  0  0
  150.0606  140.4270  153.9636 O   0  0  0  0  0  0  0  0  0  0  0  0
  148.9807  140.1456  156.0902 C   0  0  0  0  0  0  0  0  0  0  0  0
  147.9373  139.1912  155.7464 N   0  0  0  0  0  0  0  0  0  0  0  0
  147.2991  138.3254  156.6054 C   0  0  0  0  0  0  0  0  0  0  0  0
  146.3918  137.5651  156.0565 N   0  0  0  0  0  0  0  0  0  0  0  0
  146.4095  137.9271  154.7145 C   0  0  0  0  0  0  0  0  0  0  0  0
  145.6868  137.5007  153.5630 C   0  0  0  0  0  0  0  0  0  0  0  0
  144.7160  136.5497  153.6174 N   0  0  0  0  0  0  0  0  0  0  0  0
  143.7937  136.4977  152.4836 C   0  0  0  0  0  0  0  0  0  0  0  0
  143.6801  135.0211  152.0811 C   0  0  0  0  0  0  0  0  0  0  0  0
  144.8968  134.3707  152.7546 C   0  0  2  0  0  0  0  0  0  0  0  0
  144.8146  132.8935  152.9395 N   0  3  2  0  0  0  0  0  0  0  0  0
  145.9546  132.3374  153.7107 C   0  0  0  0  0  0  0  0  0  0  0  0
  144.5235  132.1153  151.7003 C   0  0  0  0  0  0  0  0  0  0  0  0
  145.6678  132.0661  150.6626 C   0  0  0  0  0  0  0  0  0  0  0  0
  146.5198  130.9612  150.8748 O   0  0  0  0  0  0  0  0  0  0  0  0
  144.9983  135.1845  154.0589 C   0  0  2  0  0  0  0  0  0  0  0  0
  143.9875  134.7750  155.1514 C   0  0  0  0  0  0  0  0  0  0  0  0
  146.0007  138.0924  152.3798 N   0  0  0  0  0  0  0  0  0  0  0  0
  146.9454  139.0355  152.3217 C   0  0  0  0  0  0  0  0  0  0  0  0
  147.6895  139.5319  153.3110 N   0  0  0  0  0  0  0  0  0  0  0  0
  147.3849  138.9426  154.5019 C   0  0  0  0  0  0  0  0  0  0  0  0
  145.7806  134.5928  152.1539 H   0  0  0  0  0  0  0  0  0  0  0  0
  145.9965  135.0758  154.4808 H   0  0  0  0  0  0  0  0  0  0  0  0
  150.6951  142.0669  157.2644 H   0  0  0  0  0  0  0  0  0  0  0  0
  152.3972  141.7244  157.5301 H   0  0  0  0  0  0  0  0  0  0  0  0
  151.1913  140.5278  157.9786 H   0  0  0  0  0  0  0  0  0  0  0  0
  151.8881  141.4393  155.1350 H   0  0  0  0  0  0  0  0  0  0  0  0
  152.4926  138.9006  153.9693 H   0  0  0  0  0  0  0  0  0  0  0  0
  152.7709  137.6938  155.2359 H   0  0  0  0  0  0  0  0  0  0  0  0
  150.2462  137.9362  154.3741 H   0  0  0  0  0  0  0  0  0  0  0  0
  150.5388  137.9727  156.1116 H   0  0  0  0  0  0  0  0  0  0  0  0
  149.4551  139.8421  153.5344 H   0  0  0  0  0  0  0  0  0  0  0  0
  149.1741  140.0542  157.1592 H   0  0  0  0  0  0  0  0  0  0  0  0
  148.5843  141.1498  155.9332 H   0  0  0  0  0  0  0  0  0  0  0  0
  147.5261  138.2791  157.6607 H   0  0  0  0  0  0  0  0  0  0  0  0
  142.8228  136.9131  152.7561 H   0  0  0  0  0  0  0  0  0  0  0  0
  144.1801  137.0757  151.6427 H   0  0  0  0  0  0  0  0  0  0  0  0
  142.7530  134.6015  152.4733 H   0  0  0  0  0  0  0  0  0  0  0  0
  143.6686  134.8952  150.9987 H   0  0  0  0  0  0  0  0  0  0  0  0
  146.9091  132.5744  153.2408 H   0  0  0  0  0  0  0  0  0  0  0  0
  145.8741  131.2532  153.7968 H   0  0  0  0  0  0  0  0  0  0  0  0
  145.9804  132.7367  154.7238 H   0  0  0  0  0  0  0  0  0  0  0  0
  144.3094  131.0931  152.0146 H   0  0  0  0  0  0  0  0  0  0  0  0
  143.6009  132.4619  151.2341 H   0  0  0  0  0  0  0  0  0  0  0  0
  145.3040  132.0646  149.6360 H   0  0  0  0  0  0  0  0  0  0  0  0
  146.2793  132.9629  150.7668 H   0  0  0  0  0  0  0  0  0  0  0  0
  147.4069  131.2212  150.6750 H   0  0  0  0  0  0  0  0  0  0  0  0
  144.1514  133.7547  155.4965 H   0  0  0  0  0  0  0  0  0  0  0  0
  142.9551  134.8453  154.8091 H   0  0  0  0  0  0  0  0  0  0  0  0
  144.0839  135.4250  156.0216 H   0  0  0  0  0  0  0  0  0  0  0  0
  147.1307  139.4532  151.3429 H   0  0  0  0  0  0  0  0  0  0  0  0
  144.0030  132.7506  153.5233 H   0  0  0  0  0  0  0  0  0  0  0  0
  1  2  1  0  0  0  0
  1 31  1  0  0  0  0
  1 32  1  0  0  0  0
  1 33  1  0  0  0  0
  2  6  1  0  0  0  0
  2  3  1  0  0  0  0
  2 34  1  0  0  0  0
  3  4  1  0  0  0  0
  4  5  1  0  0  0  0
  4 35  1  0  0  0  0
  4 36  1  0  0  0  0
  5  6  1  0  0  0  0
  5 37  1  0  0  0  0
  5 38  1  0  0  0  0
  6  7  1  0  0  0  0
  6  8  1  0  0  0  0
  7 39  1  0  0  0  0
  8  9  1  0  0  0  0
  8 40  1  0  0  0  0
  8 41  1  0  0  0  0
  9 28  1  0  0  0  0
  9 10  1  0  0  0  0
 10 11  2  0  0  0  0
 10 42  1  0  0  0  0
 11 12  1  0  0  0  0
 12 28  2  0  0  0  0
 12 13  1  0  0  0  0
 13 14  1  0  0  0  0
 13 25  2  0  0  0  0
 14 23  1  0  0  0  0
 14 15  1  0  0  0  0
 15 16  1  0  0  0  0
 15 43  1  0  0  0  0
 15 44  1  0  0  0  0
 16 17  1  0  0  0  0
 16 45  1  0  0  0  0
 16 46  1  0  0  0  0
 17 29  1  0  0  0  0
 17 18  1  0  0  0  0
 17 23  1  0  0  0  0
 18 19  1  0  0  0  0
 18 20  1  0  0  0  0
 18 59  1  0  0  0  0
 19 47  1  0  0  0  0
 19 48  1  0  0  0  0
 19 49  1  0  0  0  0
 20 21  1  0  0  0  0
 20 50  1  0  0  0  0
 20 51  1  0  0  0  0
 21 22  1  0  0  0  0
 21 52  1  0  0  0  0
 21 53  1  0  0  0  0
 22 54  1  0  0  0  0
 23 30  1  0  0  0  0
 23 24  1  0  0  0  0
 24 55  1  0  0  0  0
 24 56  1  0  0  0  0
 24 57  1  0  0  0  0
 25 26  1  0  0  0  0
 26 27  2  0  0  0  0
 26 58  1  0  0  0  0
 27 28  1  0  0  0  0
M  CHG  1  18   1
M  END
> <s_m_source_file>
AV-unprocessed.smi

> <i_m_source_file_index>
290

> <i_lp_mmshare_version>
43012

> <i_f3d_flags>
0

> <s_epik_input>
W0NIMl0xW0NIMl1PW0NAQEhdKFtDSDNdKVtDQEBdMShbT0hdKVtDSDJdbihbY0hdbjIpYyhjMjMpbltjSF1uYzNONFtDSDJdW0NIMl1bQ0BIXShbQ0BIXTRbQ0gzXSlOKFtDSDNdKVtDSDJdW0NIMl1bT0hd

> <s_epik_cmdline>
J2VwaWtfcHl0aG9uJywgJy1waCcsICc3LjAnLCAnLXRuJywgJzgnLCAnLW1hJywgJzIwMCcsICctbWV0YWxfYmluZGluZycsICctaW1hZScsICc8aW5maWxlLm1hZT4nLCAnLW9tYWUnLCAnPG91dGZpbGUubWFlPic=

> <r_lp_tautomer_probability>
1

> <r_epik_Ionization_Penalty>
0.0036983

> <r_epik_Ionization_Penalty_Charging>
0.0032725

> <r_epik_Ionization_Penalty_Neutral>
0.000425798

> <r_epik_State_Penalty>
-0

> <r_epik_Charging_Adjusted_Penalty>
0.0032725

> <i_epik_Tot_Q>
1

> <i_epik_Tot_abs_Q>
1

> <r_epik_Metal_State_Penalty>
-0

> <b_epik_Metal_Only>
0

> <s_lp_Force_Field>
OPLS_2005

> <r_lp_Energy>
63.8525

> <b_lp_Chiralities_Consistent>
1

> <s_lp_Variant>
AV-unprocessed.smi:290-32

> <Gold.Version>
5.8.1

> <Gold.Id.Protein>
6NUR|6NUR_protein|mol2

> <Gold.PLP.Fitness>
49.2214

> <Gold.PLP.PLP>
-33.8311

> <Gold.PLP.part.hbond>
-5.0000

> <Gold.PLP.part.metal>
0.0000

> <Gold.PLP.part.buried>
-7.2274

> <Gold.PLP.part.nonpolar>
-24.2574

> <Gold.PLP.part.repulsive>
1.5814

> <Gold.PLP.ligand.clash>
0.0000

> <Gold.PLP.ligand.torsion>
0.6751

> <Gold.PLP.Chemscore.Hbond>
4.7660

> <Gold.PLP.Chemscore.CHOScore>
0.6266

> <Gold.PLP.Chemscore.Metal>
0.0000

> <Gold.Chemscore.Hbonds>
donor molecule, donor type, donor heavy atom, donor atom, acceptor molecule, acceptor atom, score
      L1  H     7    39       P1  7957  0.03
      L1  H    18    59       P1 10957  1.79
      L1  H    22    54       P1 10747  1.00
      P1  H  7989  7998       L1     7  0.75
      P1  H  7997  8010       L1     3  1.00
      L1  C    26    58       P1  7957  0.60

> <Gold.PLP.Chemscore.Internal.Correction>
0.5628

> <Gold.Rescore>
     Score         DG    S(hbond)    S(metal)    S(lipo)     H(rot)  DE(clash)    DE(int)     intcor
     13.64     -15.97       3.66        0.00      65.52       3.67       0.00       2.33       ----

> <Gold.Chemscore.Fitness>
13.6379

> <Gold.Chemscore.DG>
-15.9690

> <Gold.Chemscore.ZeroCoef>
-5.4800

> <Gold.Chemscore.Hbond>
3.6550

> <Gold.Chemscore.Metal>
0.0000

> <Gold.Chemscore.Lipo>
65.5186

> <Gold.Chemscore.Internal_Hbond>
0.0000

> <Gold.Chemscore.DEClash>
0.0004

> <Gold.Chemscore.DEInternal>
2.3307

> <Gold.Chemscore.Rot>
3.6658

> <Gold.Chemscore.Internal.Correction>
   9.000000E+99

> <Gold.Chemscore.Hbonds>
donor molecule, donor type, donor heavy atom, donor atom, acceptor molecule, acceptor atom, score
      L1  H     7    39       P1  7957  0.03
      L1  H    18    59       P1 10957  0.51
      L1  H    22    54       P1 10747  0.95
      P1  H  7989  7998       L1     7  0.30
      P1  H  7997  8010       L1     3  0.97

> <Gold.Chemscore.Hbond.Weighted>
-12.2078

> <Gold.Chemscore.Metal.Weighted>
-0.0000

> <Gold.Chemscore.Lipo.Weighted>
-7.6657

> <Gold.Chemscore.Internal_Hbond.Weighted>
0.0000

> <Gold.Chemscore.DEClash.Weighted>
0.0004

> <Gold.Chemscore.DEInternal.Weighted>
2.3307

> <Gold.Chemscore.Rot.Weighted>
9.3844

> <Gold.Chemscore.Internal.Correction.Weighted>
   9.000000E+99

> <Gold.Protein.RotatedTorsions>
[ 6907 6896 6895 6894 ] final   23.86 input  -60.11 | X-H torsion
[ 7974 7965 7964 7962 ] final   -8.13 input  175.53 | X-H torsion
[ 8008 7997 7996 7995 ] final   75.97 input   59.86 | X-H torsion
[ 10167 10162 10161 10158 ] final -128.49 input  -65.29 | X-H torsion
[ 10718 10713 10712 10709 ] final   96.11 input   66.30 | X-H torsion
[ 10763 10752 10751 10750 ] final   84.71 input  -60.55 | X-H torsion
[ 11005 11000 10999 10996 ] final   39.95 input  -57.11 | X-H torsion

> <Gold.Protein.ActiveResidues>
 VAL166  LYS551  ARG553  GLY616  TRP617  ASP618  TYR619  PRO620  LYS621  CYS622 
 ASP623  PHE694  ASN695  SER759  ASP760  ASP761  ALA762  ILE779  LEU786  VAL792 
 PHE793  MET794  SER795  GLU796  ALA797  LYS798  CYS799  TRP800  GLU811  SER814 

> <Gold.Protein.RotatedAtoms>
  151.9487  135.0179  160.0540 H   0  0  0  0  0  0  0  0  0  0  0  0  # atno 6907 bound_to 6896
  152.1972  133.4810  159.5047 H   0  0  0  0  0  0  0  0  0  0  0  0  # atno 6908 bound_to 6896
  150.6947  134.1554  159.4199 H   0  0  0  0  0  0  0  0  0  0  0  0  # atno 6909 bound_to 6896
  146.2288  140.2423  142.8344 H   0  0  0  0  0  0  0  0  0  0  0  0  # atno 7974 bound_to 7965
  155.8206  140.3470  155.5512 H   0  0  0  0  0  0  0  0  0  0  0  0  # atno 8008 bound_to 7997
  155.8346  140.0932  157.1791 H   0  0  0  0  0  0  0  0  0  0  0  0  # atno 8009 bound_to 7997
  154.4004  140.1406  156.3643 H   0  0  0  0  0  0  0  0  0  0  0  0  # atno 8010 bound_to 7997
  139.9498  143.6069  152.2479 H   0  0  0  0  0  0  0  0  0  0  0  0  # atno 10167 bound_to 10162
  157.6931  131.0567  150.4441 H   0  0  0  0  0  0  0  0  0  0  0  0  # atno 10718 bound_to 10713
  153.1407  135.4644  154.9491 H   0  0  0  0  0  0  0  0  0  0  0  0  # atno 10763 bound_to 10752
  154.7744  135.3169  154.8124 H   0  0  0  0  0  0  0  0  0  0  0  0  # atno 10764 bound_to 10752
  153.8648  135.6909  153.4833 H   0  0  0  0  0  0  0  0  0  0  0  0  # atno 10765 bound_to 10752
  140.1978  134.3907  155.8112 H   0  0  0  0  0  0  0  0  0  0  0  0  # atno 11005 bound_to 11000
  144.9475  140.8144  143.5592 LP  0  0  0  0  0  0  0  0  0  0  0  0  # atno 17320 bound_to 7965
  145.2380  139.2085  143.5008 LP  0  0  0  0  0  0  0  0  0  0  0  0  # atno 17321 bound_to 7965
  139.6638  144.7662  151.1912 LP  0  0  0  0  0  0  0  0  0  0  0  0  # atno 17342 bound_to 10162
  140.7586  143.5969  150.8739 LP  0  0  0  0  0  0  0  0  0  0  0  0  # atno 17343 bound_to 10162
  156.4797  130.4071  149.6469 LP  0  0  0  0  0  0  0  0  0  0  0  0  # atno 17370 bound_to 10713
  156.3519  130.7436  151.2397 LP  0  0  0  0  0  0  0  0  0  0  0  0  # atno 17371 bound_to 10713
  141.2227  133.7078  156.8206 LP  0  0  0  0  0  0  0  0  0  0  0  0  # atno 17394 bound_to 11000
  140.2088  134.8843  157.3251 LP  0  0  0  0  0  0  0  0  0  0  0  0  # atno 17395 bound_to 11000

$$$$
