AV-unprocessed.smi:2881|AV-procd|sdf|11061|dock10
  -GOLD-   2272015533D 1   1.00000     0.00000
 Structure written by MMmdl.
 40 42  0  0  0  0  0  0  0  0  1 V2000
  155.8722  137.0713  162.3447 C   0  0  0  0  0  0  0  0  0  0  0  0
  154.7100  137.1923  161.4188 C   0  0  0  0  0  0  0  0  0  0  0  0
  153.8781  138.2409  161.1451 C   0  0  0  0  0  0  0  0  0  0  0  0
  152.9741  137.7297  160.1672 C   0  0  0  0  0  0  0  0  0  0  0  0
  151.8494  138.4555  159.4780 C   0  0  0  0  0  0  0  0  0  0  0  0
  152.4167  139.6270  158.6776 C   0  0  0  0  0  0  0  0  0  0  0  0
  153.1586  139.4176  157.7181 O   0  0  0  0  0  0  0  0  0  0  0  0
  152.0277  140.8514  159.0649 N   0  0  0  0  0  0  0  0  0  0  0  0
  152.3145  142.0993  158.3575 C   0  0  2  0  0  0  0  0  0  0  0  0
  153.1426  143.0913  159.2108 C   0  0  2  0  0  0  0  0  0  0  0  0
  152.5241  143.2852  160.6120 C   0  0  0  0  0  0  0  0  0  0  0  0
  151.2401  144.0759  160.3049 C   0  0  0  0  0  0  0  0  0  0  0  0
  151.3029  144.2576  158.7734 C   0  0  1  0  0  0  0  0  0  0  0  0
  152.8023  144.4275  158.5582 C   0  0  0  0  0  0  0  0  0  0  0  0
  151.0435  142.9311  158.0169 C   0  0  2  0  0  0  0  0  0  0  0  0
  149.6702  142.2648  158.2706 C   0  0  0  0  0  0  0  0  0  0  0  0
  148.6228  143.1351  157.8989 O   0  0  0  0  0  0  0  0  0  0  0  0
  153.2227  136.4622  159.8649 N   0  0  0  0  0  0  0  0  0  0  0  0
  154.2830  136.1477  160.6320 N   0  0  0  0  0  0  0  0  0  0  0  0
  154.6985  135.2271  160.6103 H   0  0  0  0  0  0  0  0  0  0  0  0
  155.9551  137.9514  162.9827 H   0  0  0  0  0  0  0  0  0  0  0  0
  156.8028  136.9720  161.7857 H   0  0  0  0  0  0  0  0  0  0  0  0
  155.7678  136.1979  162.9889 H   0  0  0  0  0  0  0  0  0  0  0  0
  153.9130  139.2324  161.5721 H   0  0  0  0  0  0  0  0  0  0  0  0
  151.2977  137.7896  158.8125 H   0  0  0  0  0  0  0  0  0  0  0  0
  151.1327  138.8288  160.2103 H   0  0  0  0  0  0  0  0  0  0  0  0
  151.4203  140.9177  159.8691 H   0  0  0  0  0  0  0  0  0  0  0  0
  152.8636  141.8918  157.4369 H   0  0  0  0  0  0  0  0  0  0  0  0
  154.2069  142.8555  159.2375 H   0  0  0  0  0  0  0  0  0  0  0  0
  152.3285  142.3527  161.1414 H   0  0  0  0  0  0  0  0  0  0  0  0
  153.1897  143.8781  161.2409 H   0  0  0  0  0  0  0  0  0  0  0  0
  150.3397  143.5659  160.6439 H   0  0  0  0  0  0  0  0  0  0  0  0
  151.2676  145.0450  160.8046 H   0  0  0  0  0  0  0  0  0  0  0  0
  150.6986  145.0892  158.4097 H   0  0  0  0  0  0  0  0  0  0  0  0
  153.2224  145.2873  159.0836 H   0  0  0  0  0  0  0  0  0  0  0  0
  153.0878  144.4810  157.5060 H   0  0  0  0  0  0  0  0  0  0  0  0
  151.0853  143.1541  156.9490 H   0  0  0  0  0  0  0  0  0  0  0  0
  149.5785  141.3562  157.6749 H   0  0  0  0  0  0  0  0  0  0  0  0
  149.5386  141.9708  159.3113 H   0  0  0  0  0  0  0  0  0  0  0  0
  148.9191  143.6697  157.1782 H   0  0  0  0  0  0  0  0  0  0  0  0
  1  2  1  0  0  0  0
  1 21  1  0  0  0  0
  1 22  1  0  0  0  0
  1 23  1  0  0  0  0
  2 19  1  0  0  0  0
  2  3  2  0  0  0  0
  3  4  1  0  0  0  0
  3 24  1  0  0  0  0
  4  5  1  0  0  0  0
  4 18  2  0  0  0  0
  5  6  1  0  0  0  0
  5 25  1  0  0  0  0
  5 26  1  0  0  0  0
  6  7  2  0  0  0  0
  6  8  1  0  0  0  0
  8  9  1  0  0  0  0
  8 27  1  0  0  0  0
  9 15  1  0  0  0  0
  9 10  1  0  0  0  0
  9 28  1  0  0  0  0
 10 14  1  0  0  0  0
 10 11  1  0  0  0  0
 10 29  1  0  0  0  0
 11 12  1  0  0  0  0
 11 30  1  0  0  0  0
 11 31  1  0  0  0  0
 12 13  1  0  0  0  0
 12 32  1  0  0  0  0
 12 33  1  0  0  0  0
 13 14  1  0  0  0  0
 13 15  1  0  0  0  0
 13 34  1  0  0  0  0
 14 35  1  0  0  0  0
 14 36  1  0  0  0  0
 15 16  1  0  0  0  0
 15 37  1  0  0  0  0
 16 17  1  0  0  0  0
 16 38  1  0  0  0  0
 16 39  1  0  0  0  0
 17 40  1  0  0  0  0
 18 19  1  0  0  0  0
 19 20  1  0  0  0  0
M  END
> <s_m_source_file>
AV-unprocessed.smi

> <i_m_source_file_index>
2881

> <i_lp_mmshare_version>
43012

> <i_f3d_flags>
0

> <s_epik_input>
W0NIM11jMVtjSF1jKG5bbkhdMSlbQ0gyXUMoPU8pW05IXVtDQEhdKFtDQEBIXTIzKVtDQEhdKFtDSDJdW09IXSlbQ0BASF0oW0NIMl0zKVtDSDJdW0NIMl0y

> <s_epik_cmdline>
J2VwaWtfcHl0aG9uJywgJy1waCcsICc3LjAnLCAnLXRuJywgJzgnLCAnLW1hJywgJzIwMCcsICctbWV0YWxfYmluZGluZycsICctaW1hZScsICc8aW5maWxlLm1hZT4nLCAnLW9tYWUnLCAnPG91dGZpbGUubWFlPic=

> <r_lp_tautomer_probability>
0.5

> <r_epik_Ionization_Penalty>
9.4349e-05

> <r_epik_Ionization_Penalty_Charging>
0

> <r_epik_Ionization_Penalty_Neutral>
9.4349e-05

> <r_epik_State_Penalty>
0.41068

> <r_epik_Charging_Adjusted_Penalty>
0.41068

> <i_epik_Tot_Q>
0

> <i_epik_Tot_abs_Q>
0

> <r_epik_Metal_State_Penalty>
0.4107

> <b_epik_Metal_Only>
0

> <s_lp_Force_Field>
OPLS_2005

> <r_lp_Energy>
48.5283

> <b_lp_Chiralities_Consistent>
1

> <s_lp_Variant>
AV-unprocessed.smi:2881-7

> <Gold.Version>
5.8.1

> <Gold.Id.Protein>
6NUR|6NUR_protein|mol2

> <Gold.PLP.Fitness>
44.2430

> <Gold.PLP.PLP>
-35.3054

> <Gold.PLP.part.hbond>
-4.0000

> <Gold.PLP.part.metal>
0.0000

> <Gold.PLP.part.buried>
-4.1901

> <Gold.PLP.part.nonpolar>
-27.3414

> <Gold.PLP.part.repulsive>
0.2199

> <Gold.PLP.ligand.clash>
0.0000

> <Gold.PLP.ligand.torsion>
0.0384

> <Gold.PLP.Chemscore.Hbond>
3.0000

> <Gold.PLP.Chemscore.CHOScore>
0.0000

> <Gold.PLP.Chemscore.Metal>
0.0000

> <Gold.Chemscore.Hbonds>
donor molecule, donor type, donor heavy atom, donor atom, acceptor molecule, acceptor atom, score
      L1  H    17    40       P1  8028  1.00
      P1  H  6896  6907       L1    18  1.00
      P1  H  7997  8009       L1     7  1.00

> <Gold.PLP.Chemscore.Internal.Correction>
0.0144

> <Gold.Rescore>
     Score         DG    S(hbond)    S(metal)    S(lipo)     H(rot)  DE(clash)    DE(int)     intcor
     22.04     -22.11       2.81        0.00     111.73       2.28       0.02       0.05       ----

> <Gold.Chemscore.Fitness>
22.0363

> <Gold.Chemscore.DG>
-22.1051

> <Gold.Chemscore.ZeroCoef>
-5.4800

> <Gold.Chemscore.Hbond>
2.8077

> <Gold.Chemscore.Metal>
0.0000

> <Gold.Chemscore.Lipo>
111.7326

> <Gold.Chemscore.Internal_Hbond>
0.0000

> <Gold.Chemscore.DEClash>
0.0194

> <Gold.Chemscore.DEInternal>
0.0493

> <Gold.Chemscore.Rot>
2.2755

> <Gold.Chemscore.Internal.Correction>
   9.000000E+99

> <Gold.Chemscore.Hbonds>
donor molecule, donor type, donor heavy atom, donor atom, acceptor molecule, acceptor atom, score
      L1  H    17    40       P1  8028  0.25
      P1  H  6896  6907       L1    18  0.64
      P1  H  7997  8009       L1     7  1.00

> <Gold.Chemscore.Hbond.Weighted>
-9.3776

> <Gold.Chemscore.Metal.Weighted>
-0.0000

> <Gold.Chemscore.Lipo.Weighted>
-13.0727

> <Gold.Chemscore.Internal_Hbond.Weighted>
0.0000

> <Gold.Chemscore.DEClash.Weighted>
0.0194

> <Gold.Chemscore.DEInternal.Weighted>
0.0493

> <Gold.Chemscore.Rot.Weighted>
5.8252

> <Gold.Chemscore.Internal.Correction.Weighted>
   9.000000E+99

> <Gold.Protein.RotatedTorsions>
[ 6907 6896 6895 6894 ] final   21.18 input  -60.11 | X-H torsion
[ 7974 7965 7964 7962 ] final  140.67 input  175.53 | X-H torsion
[ 8008 7997 7996 7995 ] final  165.17 input   59.86 | X-H torsion
[ 10167 10162 10161 10158 ] final  -11.78 input  -65.29 | X-H torsion
[ 10718 10713 10712 10709 ] final    8.91 input   66.30 | X-H torsion
[ 10763 10752 10751 10750 ] final   56.66 input  -60.55 | X-H torsion
[ 11005 11000 10999 10996 ] final  167.37 input  -57.11 | X-H torsion

> <Gold.Protein.ActiveResidues>
 VAL166  LYS551  ARG553  GLY616  TRP617  ASP618  TYR619  PRO620  LYS621  CYS622 
 ASP623  PHE694  ASN695  SER759  ASP760  ASP761  ALA762  ILE779  LEU786  VAL792 
 PHE793  MET794  SER795  GLU796  ALA797  LYS798  CYS799  TRP800  GLU811  SER814 

> <Gold.Protein.RotatedAtoms>
  151.9078  135.0351  160.0511 H   0  0  0  0  0  0  0  0  0  0  0  0  # atno 6907 bound_to 6896
  152.2305  133.5049  159.5221 H   0  0  0  0  0  0  0  0  0  0  0  0  # atno 6908 bound_to 6896
  150.7024  134.1140  159.4053 H   0  0  0  0  0  0  0  0  0  0  0  0  # atno 6909 bound_to 6896
  144.9165  139.5223  143.5684 H   0  0  0  0  0  0  0  0  0  0  0  0  # atno 7974 bound_to 7965
  156.1822  140.1677  156.8253 H   0  0  0  0  0  0  0  0  0  0  0  0  # atno 8008 bound_to 7997
  154.5372  140.0744  156.8481 H   0  0  0  0  0  0  0  0  0  0  0  0  # atno 8009 bound_to 7997
  155.3286  140.3378  155.4242 H   0  0  0  0  0  0  0  0  0  0  0  0  # atno 8010 bound_to 7997
  140.7146  143.5603  150.9203 H   0  0  0  0  0  0  0  0  0  0  0  0  # atno 10167 bound_to 10162
  156.9586  130.5924  149.5661 H   0  0  0  0  0  0  0  0  0  0  0  0  # atno 10718 bound_to 10713
  152.9836  135.5669  154.5264 H   0  0  0  0  0  0  0  0  0  0  0  0  # atno 10763 bound_to 10752
  154.4743  135.2786  155.1621 H   0  0  0  0  0  0  0  0  0  0  0  0  # atno 10764 bound_to 10752
  154.3156  135.6279  153.5538 H   0  0  0  0  0  0  0  0  0  0  0  0  # atno 10765 bound_to 10752
  140.2761  134.7787  157.3718 H   0  0  0  0  0  0  0  0  0  0  0  0  # atno 11005 bound_to 11000
  146.3184  139.8012  142.8965 LP  0  0  0  0  0  0  0  0  0  0  0  0  # atno 17320 bound_to 7965
  145.3367  141.0278  143.3416 LP  0  0  0  0  0  0  0  0  0  0  0  0  # atno 17321 bound_to 7965
  139.9328  143.6473  152.3072 LP  0  0  0  0  0  0  0  0  0  0  0  0  # atno 17342 bound_to 10162
  139.6930  144.7644  151.1406 LP  0  0  0  0  0  0  0  0  0  0  0  0  # atno 17343 bound_to 10162
  156.0332  130.5422  150.8587 LP  0  0  0  0  0  0  0  0  0  0  0  0  # atno 17370 bound_to 10713
  157.5673  131.0946  150.9470 LP  0  0  0  0  0  0  0  0  0  0  0  0  # atno 17371 bound_to 10713
  140.1327  134.5074  155.8093 LP  0  0  0  0  0  0  0  0  0  0  0  0  # atno 17394 bound_to 11000
  141.2170  133.6796  156.7068 LP  0  0  0  0  0  0  0  0  0  0  0  0  # atno 17395 bound_to 11000

$$$$
