AV-unprocessed.smi:812|AV-procd|sdf|3815|dock2
  -GOLD-   22720 1253D 1   1.00000     0.00000
 Structure written by MMmdl.
 38 40  0  0  0  0  0  0  0  0  1 V2000
  153.0773  137.4070  165.4251 C   0  0  0  0  0  0  0  0  0  0  0  0
  153.0927  136.9766  164.0145 N   0  0  0  0  0  0  0  0  0  0  0  0
  153.2251  137.9368  163.0457 C   0  0  0  0  0  0  0  0  0  0  0  0
  153.3352  139.1452  163.2583 O   0  0  0  0  0  0  0  0  0  0  0  0
  153.2240  137.4042  161.6808 C   0  0  0  0  0  0  0  0  0  0  0  0
  153.1061  136.0837  161.4029 C   0  0  0  0  0  0  0  0  0  0  0  0
  153.1328  135.8500  160.0326 N   0  0  0  0  0  0  0  0  0  0  0  0
  153.2683  137.0836  159.5433 C   0  0  0  0  0  0  0  0  0  0  0  0
  153.3290  138.0698  160.4615 N   0  0  0  0  0  0  0  0  0  0  0  0
  153.4728  139.4928  160.1954 C   0  0  0  0  0  0  0  0  0  0  0  0
  152.3908  140.0330  159.2393 C   0  0  2  0  0  0  0  0  0  0  0  0
  152.7848  139.8224  157.8967 O   0  0  0  0  0  0  0  0  0  0  0  0
  152.0823  141.4938  159.5281 C   0  0  0  0  0  0  0  0  0  0  0  0
  152.0885  142.4349  158.4763 C   0  0  0  0  0  0  0  0  0  0  0  0
  151.7938  143.7883  158.7327 C   0  0  0  0  0  0  0  0  0  0  0  0
  151.4884  144.2075  160.0420 C   0  0  0  0  0  0  0  0  0  0  0  0
  151.2046  145.5083  160.2882 F   0  0  0  0  0  0  0  0  0  0  0  0
  151.4765  143.2727  161.0948 C   0  0  0  0  0  0  0  0  0  0  0  0
  151.7714  141.9193  160.8388 C   0  0  0  0  0  0  0  0  0  0  0  0
  152.9760  135.1724  162.4800 N   0  0  0  0  0  0  0  0  0  0  0  0
  152.8507  133.7516  162.1416 C   0  0  0  0  0  0  0  0  0  0  0  0
  152.9662  135.6172  163.7802 C   0  0  0  0  0  0  0  0  0  0  0  0
  152.8468  134.8225  164.7168 O   0  0  0  0  0  0  0  0  0  0  0  0
  153.2057  138.4787  165.5801 H   0  0  0  0  0  0  0  0  0  0  0  0
  153.8778  136.9177  165.9824 H   0  0  0  0  0  0  0  0  0  0  0  0
  152.1294  137.1361  165.8933 H   0  0  0  0  0  0  0  0  0  0  0  0
  153.3212  137.2775  158.4819 H   0  0  0  0  0  0  0  0  0  0  0  0
  153.4462  140.0263  161.1459 H   0  0  0  0  0  0  0  0  0  0  0  0
  154.4655  139.6673  159.7776 H   0  0  0  0  0  0  0  0  0  0  0  0
  151.4739  139.4602  159.3813 H   0  0  0  0  0  0  0  0  0  0  0  0
  152.1504  139.2561  157.4841 H   0  0  0  0  0  0  0  0  0  0  0  0
  152.3174  142.1219  157.4679 H   0  0  0  0  0  0  0  0  0  0  0  0
  151.8008  144.5046  157.9243 H   0  0  0  0  0  0  0  0  0  0  0  0
  151.2399  143.5928  162.0987 H   0  0  0  0  0  0  0  0  0  0  0  0
  151.7549  141.2091  161.6526 H   0  0  0  0  0  0  0  0  0  0  0  0
  152.7486  133.0899  163.0020 H   0  0  0  0  0  0  0  0  0  0  0  0
  153.7286  133.4242  161.5837 H   0  0  0  0  0  0  0  0  0  0  0  0
  151.9763  133.5966  161.5087 H   0  0  0  0  0  0  0  0  0  0  0  0
  1  2  1  0  0  0  0
  1 24  1  0  0  0  0
  1 25  1  0  0  0  0
  1 26  1  0  0  0  0
  2 22  1  0  0  0  0
  2  3  1  0  0  0  0
  3  4  2  0  0  0  0
  3  5  1  0  0  0  0
  5  9  1  0  0  0  0
  5  6  2  0  0  0  0
  6  7  1  0  0  0  0
  6 20  1  0  0  0  0
  7  8  2  0  0  0  0
  8  9  1  0  0  0  0
  8 27  1  0  0  0  0
  9 10  1  0  0  0  0
 10 11  1  0  0  0  0
 10 28  1  0  0  0  0
 10 29  1  0  0  0  0
 11 12  1  0  0  0  0
 11 13  1  0  0  0  0
 11 30  1  0  0  0  0
 12 31  1  0  0  0  0
 13 19  1  0  0  0  0
 13 14  2  0  0  0  0
 14 15  1  0  0  0  0
 14 32  1  0  0  0  0
 15 16  2  0  0  0  0
 15 33  1  0  0  0  0
 16 17  1  0  0  0  0
 16 18  1  0  0  0  0
 18 19  2  0  0  0  0
 18 34  1  0  0  0  0
 19 35  1  0  0  0  0
 20 21  1  0  0  0  0
 20 22  1  0  0  0  0
 21 36  1  0  0  0  0
 21 37  1  0  0  0  0
 21 38  1  0  0  0  0
 22 23  2  0  0  0  0
M  END
> <s_m_source_file>
AV-unprocessed.smi

> <i_m_source_file_index>
812

> <i_lp_mmshare_version>
43012

> <i_f3d_flags>
0

> <s_epik_input>
Tz1jMW4oW0NIM10pYyg9TyluKFtDSDNdKWMoYzEyKW5bY0hdbjJbQ0gyXVtDQEhdKFtPSF0pYzNbY0hdW2NIXWMoRilbY0hdW2NIXTM=

> <s_epik_cmdline>
J2VwaWtfcHl0aG9uJywgJy1waCcsICc3LjAnLCAnLXRuJywgJzgnLCAnLW1hJywgJzIwMCcsICctbWV0YWxfYmluZGluZycsICctaW1hZScsICc8aW5maWxlLm1hZT4nLCAnLW9tYWUnLCAnPG91dGZpbGUubWFlPic=

> <r_lp_tautomer_probability>
1

> <r_epik_Ionization_Penalty>
1.45649e-06

> <r_epik_Ionization_Penalty_Charging>
3.74189e-09

> <r_epik_Ionization_Penalty_Neutral>
1.45275e-06

> <r_epik_State_Penalty>
-0

> <r_epik_Charging_Adjusted_Penalty>
3.74189e-09

> <i_epik_Tot_Q>
0

> <i_epik_Tot_abs_Q>
0

> <r_epik_Metal_State_Penalty>
-0

> <b_epik_Metal_Only>
0

> <s_lp_Force_Field>
OPLS_2005

> <r_lp_Energy>
34.9814

> <b_lp_Chiralities_Consistent>
1

> <s_lp_Variant>
AV-unprocessed.smi:812-1

> <Gold.Version>
5.8.1

> <Gold.Id.Protein>
6NUR|6NUR_protein|mol2

> <Gold.PLP.Fitness>
50.9114

> <Gold.PLP.PLP>
-45.8277

> <Gold.PLP.part.hbond>
-1.9620

> <Gold.PLP.part.metal>
0.0000

> <Gold.PLP.part.buried>
-5.9866

> <Gold.PLP.part.nonpolar>
-38.5623

> <Gold.PLP.part.repulsive>
0.0996

> <Gold.PLP.ligand.clash>
0.0000

> <Gold.PLP.ligand.torsion>
0.4575

> <Gold.PLP.Chemscore.Hbond>
1.9913

> <Gold.PLP.Chemscore.CHOScore>
0.0000

> <Gold.PLP.Chemscore.Metal>
0.0000

> <Gold.Chemscore.Hbonds>
donor molecule, donor type, donor heavy atom, donor atom, acceptor molecule, acceptor atom, score
      P1  H  6896  6907       L1     7  0.36
      P1  H  7997  8010       L1    12  1.00

> <Gold.PLP.Chemscore.Internal.Correction>
0.0249

> <Gold.Rescore>
     Score         DG    S(hbond)    S(metal)    S(lipo)     H(rot)  DE(clash)    DE(int)     intcor
     16.96     -17.58       1.88        0.00      98.67       2.24       0.00       0.62       ----

> <Gold.Chemscore.Fitness>
16.9600

> <Gold.Chemscore.DG>
-17.5831

> <Gold.Chemscore.ZeroCoef>
-5.4800

> <Gold.Chemscore.Hbond>
1.8825

> <Gold.Chemscore.Metal>
0.0000

> <Gold.Chemscore.Lipo>
98.6694

> <Gold.Chemscore.Internal_Hbond>
0.0000

> <Gold.Chemscore.DEClash>
0.0021

> <Gold.Chemscore.DEInternal>
0.6210

> <Gold.Chemscore.Rot>
2.2377

> <Gold.Chemscore.Internal.Correction>
   9.000000E+99

> <Gold.Chemscore.Hbonds>
donor molecule, donor type, donor heavy atom, donor atom, acceptor molecule, acceptor atom, score
      P1  H  6896  6907       L1     7  0.06
      P1  H  7997  8010       L1    12  0.87

> <Gold.Chemscore.Hbond.Weighted>
-6.2874

> <Gold.Chemscore.Metal.Weighted>
-0.0000

> <Gold.Chemscore.Lipo.Weighted>
-11.5443

> <Gold.Chemscore.Internal_Hbond.Weighted>
0.0000

> <Gold.Chemscore.DEClash.Weighted>
0.0021

> <Gold.Chemscore.DEInternal.Weighted>
0.6210

> <Gold.Chemscore.Rot.Weighted>
5.7286

> <Gold.Chemscore.Internal.Correction.Weighted>
   9.000000E+99

> <Gold.Protein.RotatedTorsions>
[ 6907 6896 6895 6894 ] final   49.92 input  -60.11 | X-H torsion
[ 7974 7965 7964 7962 ] final  -69.86 input  175.53 | X-H torsion
[ 8008 7997 7996 7995 ] final   45.28 input   59.86 | X-H torsion
[ 10167 10162 10161 10158 ] final   58.13 input  -65.29 | X-H torsion
[ 10718 10713 10712 10709 ] final  149.60 input   66.30 | X-H torsion
[ 10763 10752 10751 10750 ] final  -71.34 input  -60.55 | X-H torsion
[ 11005 11000 10999 10996 ] final -120.90 input  -57.11 | X-H torsion

> <Gold.Protein.ActiveResidues>
 VAL166  LYS551  ARG553  GLY616  TRP617  ASP618  TYR619  PRO620  LYS621  CYS622 
 ASP623  PHE694  ASN695  SER759  ASP760  ASP761  ALA762  ILE779  LEU786  VAL792 
 PHE793  MET794  SER795  GLU796  ALA797  LYS798  CYS799  TRP800  GLU811  SER814 

> <Gold.Protein.RotatedAtoms>
  152.2961  134.7665  160.0367 H   0  0  0  0  0  0  0  0  0  0  0  0  # atno 6907 bound_to 6896
  151.8194  133.3387  159.3588 H   0  0  0  0  0  0  0  0  0  0  0  0  # atno 6908 bound_to 6896
  150.7252  134.5517  159.5842 H   0  0  0  0  0  0  0  0  0  0  0  0  # atno 6909 bound_to 6896
  145.6984  140.9126  143.0744 H   0  0  0  0  0  0  0  0  0  0  0  0  # atno 7974 bound_to 7965
  155.3333  140.3404  155.4239 H   0  0  0  0  0  0  0  0  0  0  0  0  # atno 8008 bound_to 7997
  156.1850  140.1677  156.8238 H   0  0  0  0  0  0  0  0  0  0  0  0  # atno 8009 bound_to 7997
  154.5376  140.0731  156.8438 H   0  0  0  0  0  0  0  0  0  0  0  0  # atno 8010 bound_to 7997
  140.1905  144.4090  150.6573 H   0  0  0  0  0  0  0  0  0  0  0  0  # atno 10167 bound_to 10162
  157.2941  131.0859  151.1440 H   0  0  0  0  0  0  0  0  0  0  0  0  # atno 10718 bound_to 10713
  154.4304  135.5965  153.6065 H   0  0  0  0  0  0  0  0  0  0  0  0  # atno 10763 bound_to 10752
  152.9798  135.5973  154.3846 H   0  0  0  0  0  0  0  0  0  0  0  0  # atno 10764 bound_to 10752
  154.3684  135.2841  155.2259 H   0  0  0  0  0  0  0  0  0  0  0  0  # atno 10765 bound_to 10752
  141.0110  134.0265  157.3414 H   0  0  0  0  0  0  0  0  0  0  0  0  # atno 11005 bound_to 11000
  144.6976  139.8914  143.7453 LP  0  0  0  0  0  0  0  0  0  0  0  0  # atno 17320 bound_to 7965
  146.0820  139.3808  143.0458 LP  0  0  0  0  0  0  0  0  0  0  0  0  # atno 17321 bound_to 7965
  140.6459  143.2213  151.6187 LP  0  0  0  0  0  0  0  0  0  0  0  0  # atno 17342 bound_to 10162
  139.5258  144.3065  152.1030 LP  0  0  0  0  0  0  0  0  0  0  0  0  # atno 17343 bound_to 10162
  157.2824  130.6756  149.6073 LP  0  0  0  0  0  0  0  0  0  0  0  0  # atno 17370 bound_to 10713
  155.9668  130.4445  150.5466 LP  0  0  0  0  0  0  0  0  0  0  0  0  # atno 17371 bound_to 10713
  139.9090  135.0186  156.7609 LP  0  0  0  0  0  0  0  0  0  0  0  0  # atno 17394 bound_to 11000
  140.6734  133.9539  155.7869 LP  0  0  0  0  0  0  0  0  0  0  0  0  # atno 17395 bound_to 11000

$$$$
