AV-unprocessed.smi:537|AV-procd|sdf|2864|dock2
  -GOLD-   2262023353D 1   1.00000     0.00000
 Structure written by MMmdl.
 33 34  0  0  0  0  0  0  0  0  1 V2000
  151.6135  143.7315  157.3731 C   0  0  0  0  0  0  0  0  0  0  0  0
  150.6951  143.0471  156.4853 N   0  0  0  0  0  0  0  0  0  0  0  0
  150.6918  141.7526  155.9816 C   0  0  0  0  0  0  0  0  0  0  0  0
  151.6193  140.8323  156.2567 N   0  0  0  0  0  0  0  0  0  0  0  0
  151.1771  139.7318  155.5358 C   0  0  0  0  0  0  0  0  0  0  0  0
  150.0305  140.0149  154.8665 C   0  0  0  0  0  0  0  0  0  0  0  0
  149.3420  139.0239  154.0302 C   0  0  0  0  0  0  0  0  0  0  0  0
  148.3003  139.2552  153.4205 O   0  0  0  0  0  0  0  0  0  0  0  0
  149.9744  137.8254  154.0004 N   0  0  0  0  0  0  0  0  0  0  0  0
  151.1281  137.4751  154.6479 C   0  0  0  0  0  0  0  0  0  0  0  0
  151.5768  136.3364  154.5198 O   0  0  0  0  0  0  0  0  0  0  0  0
  151.7381  138.4296  155.4241 N   0  0  0  0  0  0  0  0  0  0  0  0
  152.9711  138.1552  156.1653 C   0  0  0  0  0  0  0  0  0  0  0  0
  149.7019  141.3407  155.1509 N   0  0  0  0  0  0  0  0  0  0  0  0
  148.5575  142.1144  154.6797 C   0  0  0  0  0  0  0  0  0  0  0  0
  147.2215  141.4431  155.0304 C   0  0  0  0  0  0  0  0  0  0  0  0
  146.2224  141.8375  154.1043 O   0  0  0  0  0  0  0  0  0  0  0  0
  146.0244  143.2397  154.0799 C   0  0  0  0  0  0  0  0  0  0  0  0
  149.5434  137.1072  153.4367 H   0  0  0  0  0  0  0  0  0  0  0  0
  151.2902  144.7601  157.5318 H   0  0  0  0  0  0  0  0  0  0  0  0
  152.6160  143.7443  156.9446 H   0  0  0  0  0  0  0  0  0  0  0  0
  151.6543  143.2263  158.3383 H   0  0  0  0  0  0  0  0  0  0  0  0
  149.9246  143.6217  156.1762 H   0  0  0  0  0  0  0  0  0  0  0  0
  153.3554  137.1435  156.0312 H   0  0  0  0  0  0  0  0  0  0  0  0
  152.8023  138.3011  157.2326 H   0  0  0  0  0  0  0  0  0  0  0  0
  153.7550  138.8458  155.8526 H   0  0  0  0  0  0  0  0  0  0  0  0
  148.5986  143.1124  155.1168 H   0  0  0  0  0  0  0  0  0  0  0  0
  148.6383  142.2651  153.6043 H   0  0  0  0  0  0  0  0  0  0  0  0
  147.3347  140.3579  155.0136 H   0  0  0  0  0  0  0  0  0  0  0  0
  146.9245  141.7234  156.0419 H   0  0  0  0  0  0  0  0  0  0  0  0
  145.2522  143.4868  153.3515 H   0  0  0  0  0  0  0  0  0  0  0  0
  146.9379  143.7616  153.7922 H   0  0  0  0  0  0  0  0  0  0  0  0
  145.7003  143.6099  155.0534 H   0  0  0  0  0  0  0  0  0  0  0  0
  1  2  1  0  0  0  0
  1 20  1  0  0  0  0
  1 21  1  0  0  0  0
  1 22  1  0  0  0  0
  2  3  1  0  0  0  0
  2 23  1  0  0  0  0
  3 14  1  0  0  0  0
  3  4  2  0  0  0  0
  4  5  1  0  0  0  0
  5 12  1  0  0  0  0
  5  6  2  0  0  0  0
  6  7  1  0  0  0  0
  6 14  1  0  0  0  0
  7  8  2  0  0  0  0
  7  9  1  0  0  0  0
  9 19  1  0  0  0  0
  9 10  1  0  0  0  0
 10 11  2  0  0  0  0
 10 12  1  0  0  0  0
 12 13  1  0  0  0  0
 13 24  1  0  0  0  0
 13 25  1  0  0  0  0
 13 26  1  0  0  0  0
 14 15  1  0  0  0  0
 15 16  1  0  0  0  0
 15 27  1  0  0  0  0
 15 28  1  0  0  0  0
 16 17  1  0  0  0  0
 16 29  1  0  0  0  0
 16 30  1  0  0  0  0
 17 18  1  0  0  0  0
 18 31  1  0  0  0  0
 18 32  1  0  0  0  0
 18 33  1  0  0  0  0
M  END
> <s_m_source_file>
AV-unprocessed.smi

> <i_m_source_file_index>
537

> <i_lp_mmshare_version>
43012

> <i_f3d_flags>
0

> <s_epik_input>
W0NIM11PW0NIMl1bQ0gyXW4oYyhuMSlbTkhdW0NIM10pYyhjMTIpYyg9TylbbkhdYyg9TyluMltDSDNd

> <s_epik_cmdline>
J2VwaWtfcHl0aG9uJywgJy1waCcsICc3LjAnLCAnLXRuJywgJzgnLCAnLW1hJywgJzIwMCcsICctbWV0YWxfYmluZGluZycsICctaW1hZScsICc8aW5maWxlLm1hZT4nLCAnLW9tYWUnLCAnPG91dGZpbGUubWFlPic=

> <r_lp_tautomer_probability>
1

> <r_epik_Ionization_Penalty>
3.91196e-05

> <r_epik_Ionization_Penalty_Charging>
1.40857e-05

> <r_epik_Ionization_Penalty_Neutral>
2.50339e-05

> <r_epik_State_Penalty>
-0

> <r_epik_Charging_Adjusted_Penalty>
1.40857e-05

> <i_epik_Tot_Q>
0

> <i_epik_Tot_abs_Q>
0

> <r_epik_Metal_State_Penalty>
0.0136003

> <b_epik_Metal_Only>
0

> <s_lp_Force_Field>
OPLS_2005

> <r_lp_Energy>
19.747

> <b_lp_Chiralities_Consistent>
1

> <s_lp_Variant>
AV-unprocessed.smi:537-1

> <Gold.Version>
5.8.1

> <Gold.Id.Protein>
6NUR|6NUR_protein|mol2

> <Gold.PLP.Fitness>
40.7579

> <Gold.PLP.PLP>
-32.0749

> <Gold.PLP.part.hbond>
-3.0000

> <Gold.PLP.part.metal>
0.0000

> <Gold.PLP.part.buried>
-1.8813

> <Gold.PLP.part.nonpolar>
-28.5477

> <Gold.PLP.part.repulsive>
2.7168

> <Gold.PLP.ligand.clash>
0.0000

> <Gold.PLP.ligand.torsion>
0.1591

> <Gold.PLP.Chemscore.Hbond>
3.0000

> <Gold.PLP.Chemscore.CHOScore>
0.0000

> <Gold.PLP.Chemscore.Metal>
0.0000

> <Gold.Chemscore.Hbonds>
donor molecule, donor type, donor heavy atom, donor atom, acceptor molecule, acceptor atom, score
      L1  H     2    23       P1  8028  1.00
      L1  H     9    19       P1  7948  1.00
      P1  H 10752 10763       L1    11  0.98

> <Gold.PLP.Chemscore.Internal.Correction>
0.0011

> <Gold.Rescore>
     Score         DG    S(hbond)    S(metal)    S(lipo)     H(rot)  DE(clash)    DE(int)     intcor
     14.75     -15.45       2.88        0.00      39.36       1.66       0.47       0.22       ----

> <Gold.Chemscore.Fitness>
14.7543

> <Gold.Chemscore.DG>
-15.4534

> <Gold.Chemscore.ZeroCoef>
-5.4800

> <Gold.Chemscore.Hbond>
2.8824

> <Gold.Chemscore.Metal>
0.0000

> <Gold.Chemscore.Lipo>
39.3601

> <Gold.Chemscore.Internal_Hbond>
0.0000

> <Gold.Chemscore.DEClash>
0.4745

> <Gold.Chemscore.DEInternal>
0.2247

> <Gold.Chemscore.Rot>
1.6637

> <Gold.Chemscore.Internal.Correction>
   9.000000E+99

> <Gold.Chemscore.Hbonds>
donor molecule, donor type, donor heavy atom, donor atom, acceptor molecule, acceptor atom, score
      L1  H     2    23       P1  8028  0.98
      L1  H     9    19       P1  7948  0.84
      P1  H 10752 10763       L1    11  0.92

> <Gold.Chemscore.Hbond.Weighted>
-9.6273

> <Gold.Chemscore.Metal.Weighted>
-0.0000

> <Gold.Chemscore.Lipo.Weighted>
-4.6051

> <Gold.Chemscore.Internal_Hbond.Weighted>
0.0000

> <Gold.Chemscore.DEClash.Weighted>
0.4745

> <Gold.Chemscore.DEInternal.Weighted>
0.2247

> <Gold.Chemscore.Rot.Weighted>
4.2591

> <Gold.Chemscore.Internal.Correction.Weighted>
   9.000000E+99

> <Gold.Protein.RotatedTorsions>
[ 6907 6896 6895 6894 ] final   32.94 input  -60.11 | X-H torsion
[ 7974 7965 7964 7962 ] final -164.52 input  175.53 | X-H torsion
[ 8008 7997 7996 7995 ] final -154.47 input   59.86 | X-H torsion
[ 10167 10162 10161 10158 ] final   99.52 input  -65.29 | X-H torsion
[ 10718 10713 10712 10709 ] final  -37.72 input   66.30 | X-H torsion
[ 10763 10752 10751 10750 ] final   49.15 input  -60.55 | X-H torsion
[ 11005 11000 10999 10996 ] final    3.12 input  -57.11 | X-H torsion

> <Gold.Protein.ActiveResidues>
 VAL166  LYS551  ARG553  GLY616  TRP617  ASP618  TYR619  PRO620  LYS621  CYS622 
 ASP623  PHE694  ASN695  SER759  ASP760  ASP761  ALA762  ILE779  LEU786  VAL792 
 PHE793  MET794  SER795  GLU796  ALA797  LYS798  CYS799  TRP800  GLU811  SER814 

> <Gold.Protein.RotatedAtoms>
  152.0815  134.9468  160.0573 H   0  0  0  0  0  0  0  0  0  0  0  0  # atno 6907 bound_to 6896
  152.0755  133.4122  159.4486 H   0  0  0  0  0  0  0  0  0  0  0  0  # atno 6908 bound_to 6896
  150.6836  134.2963  159.4731 H   0  0  0  0  0  0  0  0  0  0  0  0  # atno 6909 bound_to 6896
  144.7294  140.2948  143.6214 H   0  0  0  0  0  0  0  0  0  0  0  0  # atno 7974 bound_to 7965
  155.6869  140.0751  157.2463 H   0  0  0  0  0  0  0  0  0  0  0  0  # atno 8008 bound_to 7997
  154.4095  140.1671  156.2096 H   0  0  0  0  0  0  0  0  0  0  0  0  # atno 8009 bound_to 7997
  155.9486  140.3379  155.6391 H   0  0  0  0  0  0  0  0  0  0  0  0  # atno 8010 bound_to 7997
  139.7610  144.6954  151.0293 H   0  0  0  0  0  0  0  0  0  0  0  0  # atno 10167 bound_to 10162
  156.3120  130.4254  149.8041 H   0  0  0  0  0  0  0  0  0  0  0  0  # atno 10718 bound_to 10713
  152.9788  135.5921  154.4042 H   0  0  0  0  0  0  0  0  0  0  0  0  # atno 10763 bound_to 10752
  154.3684  135.2767  155.2282 H   0  0  0  0  0  0  0  0  0  0  0  0  # atno 10764 bound_to 10752
  154.4248  135.6050  153.6087 H   0  0  0  0  0  0  0  0  0  0  0  0  # atno 10765 bound_to 10752
  140.5966  133.9874  155.8113 H   0  0  0  0  0  0  0  0  0  0  0  0  # atno 11005 bound_to 11000
  145.7819  139.1894  143.2153 LP  0  0  0  0  0  0  0  0  0  0  0  0  # atno 17320 bound_to 7965
  146.0827  140.7746  142.9634 LP  0  0  0  0  0  0  0  0  0  0  0  0  # atno 17321 bound_to 7965
  140.7807  143.4697  151.0163 LP  0  0  0  0  0  0  0  0  0  0  0  0  # atno 17342 bound_to 10162
  139.8383  143.7597  152.3180 LP  0  0  0  0  0  0  0  0  0  0  0  0  # atno 17343 bound_to 10162
  156.5381  130.8287  151.3260 LP  0  0  0  0  0  0  0  0  0  0  0  0  # atno 17370 bound_to 10713
  157.7393  130.9829  150.2305 LP  0  0  0  0  0  0  0  0  0  0  0  0  # atno 17371 bound_to 10713
  141.0900  133.9932  157.3253 LP  0  0  0  0  0  0  0  0  0  0  0  0  # atno 17394 bound_to 11000
  139.9250  135.0201  156.8203 LP  0  0  0  0  0  0  0  0  0  0  0  0  # atno 17395 bound_to 11000

$$$$
