AV-unprocessed.smi:2772|AV-procd|sdf|10669|dock10
  -GOLD-   2272015113D 1   1.00000     0.00000
 Structure written by MMmdl.
 54 56  0  0  0  0  0  0  0  0  2 V2000
  153.8364  143.2690  164.0639 C   0  0  0  0  0  0  0  0  0  0  0  0
  153.6370  142.5169  162.7646 C   0  0  0  0  0  0  0  0  0  0  0  0
  152.5855  142.8517  161.8869 C   0  0  0  0  0  0  0  0  0  0  0  0
  152.4480  142.1147  160.6952 C   0  0  0  0  0  0  0  0  0  0  0  0
  153.3527  141.0676  160.4252 C   0  0  0  0  0  0  0  0  0  0  0  0
  153.1981  140.3477  159.2099 N   0  0  0  0  0  0  0  0  0  0  0  0
  152.1095  140.2609  158.4263 C   0  0  0  0  0  0  0  0  0  0  0  0
  151.0277  140.8049  158.6471 O   0  0  0  0  0  0  0  0  0  0  0  0
  152.3524  139.5151  157.3391 N   0  0  0  0  0  0  0  0  0  0  0  0
  151.3909  139.2514  156.2724 C   0  0  0  0  0  0  0  0  0  0  0  0
  150.9594  140.5637  155.6136 C   0  0  0  0  0  0  0  0  0  0  0  0
  149.8665  140.3190  154.5587 C   0  0  0  0  0  0  0  0  0  0  0  0
  148.6696  139.6917  155.1447 N   0  0  0  0  0  0  0  0  0  0  0  0
  147.5951  139.5341  154.1370 C   0  0  2  0  0  0  0  0  0  0  0  0
  147.3479  140.8104  153.2913 C   0  0  0  0  0  0  0  0  0  0  0  0
  146.7229  141.9421  154.1270 C   0  0  0  0  0  0  0  0  0  0  0  0
  145.4447  141.5086  154.7425 N   0  3  2  0  0  0  0  0  0  0  0  0
  144.7773  142.6005  155.4830 C   0  0  0  0  0  0  0  0  0  0  0  0
  145.6031  140.2831  155.5632 C   0  0  0  0  0  0  0  0  0  0  0  0
  146.2202  139.1399  154.7372 C   0  0  0  0  0  0  0  0  0  0  0  0
  149.0701  138.3965  155.7202 C   0  0  0  0  0  0  0  0  0  0  0  0
  150.1362  138.5586  156.8172 C   0  0  0  0  0  0  0  0  0  0  0  0
  154.3816  140.8245  161.3681 C   0  0  0  0  0  0  0  0  0  0  0  0
  154.5212  141.5281  162.5125 N   0  0  0  0  0  0  0  0  0  0  0  0
  153.1167  144.0814  164.1658 H   0  0  0  0  0  0  0  0  0  0  0  0
  154.8389  143.6960  164.1058 H   0  0  0  0  0  0  0  0  0  0  0  0
  153.7135  142.5963  164.9132 H   0  0  0  0  0  0  0  0  0  0  0  0
  151.8989  143.6529  162.1181 H   0  0  0  0  0  0  0  0  0  0  0  0
  151.6526  142.3488  160.0026 H   0  0  0  0  0  0  0  0  0  0  0  0
  154.0357  139.9091  158.8566 H   0  0  0  0  0  0  0  0  0  0  0  0
  153.2703  139.1075  157.2362 H   0  0  0  0  0  0  0  0  0  0  0  0
  151.8555  138.6174  155.5146 H   0  0  0  0  0  0  0  0  0  0  0  0
  150.5857  141.2586  156.3672 H   0  0  0  0  0  0  0  0  0  0  0  0
  151.8188  141.0462  155.1465 H   0  0  0  0  0  0  0  0  0  0  0  0
  149.6340  141.2920  154.1348 H   0  0  0  0  0  0  0  0  0  0  0  0
  150.2543  139.7007  153.7474 H   0  0  0  0  0  0  0  0  0  0  0  0
  147.9061  138.7351  153.4621 H   0  0  0  0  0  0  0  0  0  0  0  0
  148.2353  141.1615  152.7700 H   0  0  0  0  0  0  0  0  0  0  0  0
  146.6545  140.5596  152.4874 H   0  0  0  0  0  0  0  0  0  0  0  0
  147.4169  142.2652  154.9047 H   0  0  0  0  0  0  0  0  0  0  0  0
  146.5401  142.8064  153.4873 H   0  0  0  0  0  0  0  0  0  0  0  0
  145.3840  142.9279  156.3283 H   0  0  0  0  0  0  0  0  0  0  0  0
  143.8089  142.2731  155.8629 H   0  0  0  0  0  0  0  0  0  0  0  0
  144.6060  143.4586  154.8320 H   0  0  0  0  0  0  0  0  0  0  0  0
  146.2240  140.4985  156.4344 H   0  0  0  0  0  0  0  0  0  0  0  0
  144.6275  139.9727  155.9395 H   0  0  0  0  0  0  0  0  0  0  0  0
  145.5407  138.9120  153.9147 H   0  0  0  0  0  0  0  0  0  0  0  0
  146.2497  138.2167  155.3119 H   0  0  0  0  0  0  0  0  0  0  0  0
  148.2268  137.9019  156.1955 H   0  0  0  0  0  0  0  0  0  0  0  0
  149.4327  137.7326  154.9339 H   0  0  0  0  0  0  0  0  0  0  0  0
  150.3932  137.5787  157.2208 H   0  0  0  0  0  0  0  0  0  0  0  0
  149.7196  139.1340  157.6456 H   0  0  0  0  0  0  0  0  0  0  0  0
  155.1333  140.0668  161.2121 H   0  0  0  0  0  0  0  0  0  0  0  0
  144.8299  141.2628  153.9796 H   0  0  0  0  0  0  0  0  0  0  0  0
  1  2  1  0  0  0  0
  1 25  1  0  0  0  0
  1 26  1  0  0  0  0
  1 27  1  0  0  0  0
  2 24  1  0  0  0  0
  2  3  2  0  0  0  0
  3  4  1  0  0  0  0
  3 28  1  0  0  0  0
  4  5  2  0  0  0  0
  4 29  1  0  0  0  0
  5  6  1  0  0  0  0
  5 23  1  0  0  0  0
  6  7  1  0  0  0  0
  6 30  1  0  0  0  0
  7  8  2  0  0  0  0
  7  9  1  0  0  0  0
  9 10  1  0  0  0  0
  9 31  1  0  0  0  0
 10 22  1  0  0  0  0
 10 11  1  0  0  0  0
 10 32  1  0  0  0  0
 11 12  1  0  0  0  0
 11 33  1  0  0  0  0
 11 34  1  0  0  0  0
 12 13  1  0  0  0  0
 12 35  1  0  0  0  0
 12 36  1  0  0  0  0
 13 14  1  0  0  0  0
 13 21  1  0  0  0  0
 14 20  1  0  0  0  0
 14 15  1  0  0  0  0
 14 37  1  0  0  0  0
 15 16  1  0  0  0  0
 15 38  1  0  0  0  0
 15 39  1  0  0  0  0
 16 17  1  0  0  0  0
 16 40  1  0  0  0  0
 16 41  1  0  0  0  0
 17 18  1  0  0  0  0
 17 19  1  0  0  0  0
 17 54  1  0  0  0  0
 18 42  1  0  0  0  0
 18 43  1  0  0  0  0
 18 44  1  0  0  0  0
 19 20  1  0  0  0  0
 19 45  1  0  0  0  0
 19 46  1  0  0  0  0
 20 47  1  0  0  0  0
 20 48  1  0  0  0  0
 21 22  1  0  0  0  0
 21 49  1  0  0  0  0
 21 50  1  0  0  0  0
 22 51  1  0  0  0  0
 22 52  1  0  0  0  0
 23 24  2  0  0  0  0
 23 53  1  0  0  0  0
M  CHG  1  17   1
M  END
> <s_m_source_file>
AV-unprocessed.smi

> <i_m_source_file_index>
2772

> <i_lp_mmshare_version>
43012

> <i_f3d_flags>
0

> <s_epik_input>
W0NIM11jMVtjSF1bY0hdYyhbY0hdbjEpW05IXUMoPU8pW05IXVtDSF0yW0NIMl1bQ0gyXU4oW0NIMl1bQ0gyXTIpW0NIXTNbQ0gyXVtDSDJdTihbQ0gzXSlbQ0gyXVtDSDJdMw==

> <s_epik_cmdline>
J2VwaWtfcHl0aG9uJywgJy1waCcsICc3LjAnLCAnLXRuJywgJzgnLCAnLW1hJywgJzIwMCcsICctbWV0YWxfYmluZGluZycsICctaW1hZScsICc8aW5maWxlLm1hZT4nLCAnLW9tYWUnLCAnPG91dGZpbGUubWFlPic=

> <r_epik_Ionization_Penalty>
1.02952

> <r_epik_Ionization_Penalty_Charging>
0.000974969

> <r_epik_Ionization_Penalty_Neutral>
1.02854

> <r_epik_State_Penalty>
1.11259

> <r_epik_Charging_Adjusted_Penalty>
1.11356

> <i_epik_Tot_Q>
1

> <i_epik_Tot_abs_Q>
1

> <r_epik_Metal_State_Penalty>
1.1091

> <b_epik_Metal_Only>
0

> <s_lp_Force_Field>
OPLS_2005

> <r_lp_Energy>
36.1162

> <b_lp_Chiralities_Consistent>
1

> <s_lp_Variant>
AV-unprocessed.smi:2772-6

> <Gold.Version>
5.8.1

> <Gold.Id.Protein>
6NUR|6NUR_protein|mol2

> <Gold.PLP.Fitness>
48.4012

> <Gold.PLP.PLP>
-42.8326

> <Gold.PLP.part.hbond>
-1.9885

> <Gold.PLP.part.metal>
0.0000

> <Gold.PLP.part.buried>
-2.3694

> <Gold.PLP.part.nonpolar>
-36.3603

> <Gold.PLP.part.repulsive>
0.2445

> <Gold.PLP.ligand.clash>
0.0000

> <Gold.PLP.ligand.torsion>
0.2172

> <Gold.PLP.Chemscore.Hbond>
2.0000

> <Gold.PLP.Chemscore.CHOScore>
0.0000

> <Gold.PLP.Chemscore.Metal>
0.0000

> <Gold.Chemscore.Hbonds>
donor molecule, donor type, donor heavy atom, donor atom, acceptor molecule, acceptor atom, score
      L1  H    17    54       P1 10175  2.00

> <Gold.PLP.Chemscore.Internal.Correction>
0.0032

> <Gold.Rescore>
     Score         DG    S(hbond)    S(metal)    S(lipo)     H(rot)  DE(clash)    DE(int)     intcor
     15.24     -18.69       0.99        0.00     110.86       1.20       0.81       2.64       ----

> <Gold.Chemscore.Fitness>
15.2419

> <Gold.Chemscore.DG>
-18.6930

> <Gold.Chemscore.ZeroCoef>
-5.4800

> <Gold.Chemscore.Hbond>
0.9905

> <Gold.Chemscore.Metal>
0.0000

> <Gold.Chemscore.Lipo>
110.8553

> <Gold.Chemscore.Internal_Hbond>
0.0000

> <Gold.Chemscore.DEClash>
0.8083

> <Gold.Chemscore.DEInternal>
2.6428

> <Gold.Chemscore.Rot>
1.1974

> <Gold.Chemscore.Internal.Correction>
   9.000000E+99

> <Gold.Chemscore.Hbonds>
donor molecule, donor type, donor heavy atom, donor atom, acceptor molecule, acceptor atom, score
      L1  H    17    54       P1 10175  0.52

> <Gold.Chemscore.Hbond.Weighted>
-3.3082

> <Gold.Chemscore.Metal.Weighted>
-0.0000

> <Gold.Chemscore.Lipo.Weighted>
-12.9701

> <Gold.Chemscore.Internal_Hbond.Weighted>
0.0000

> <Gold.Chemscore.DEClash.Weighted>
0.8083

> <Gold.Chemscore.DEInternal.Weighted>
2.6428

> <Gold.Chemscore.Rot.Weighted>
3.0652

> <Gold.Chemscore.Internal.Correction.Weighted>
   9.000000E+99

> <Gold.Protein.RotatedTorsions>
[ 6907 6896 6895 6894 ] final -143.82 input  -60.11 | X-H torsion
[ 7974 7965 7964 7962 ] final   35.00 input  175.53 | X-H torsion
[ 8008 7997 7996 7995 ] final   73.64 input   59.86 | X-H torsion
[ 10167 10162 10161 10158 ] final -123.18 input  -65.29 | X-H torsion
[ 10718 10713 10712 10709 ] final   -5.78 input   66.30 | X-H torsion
[ 10763 10752 10751 10750 ] final  -24.22 input  -60.55 | X-H torsion
[ 11005 11000 10999 10996 ] final -149.77 input  -57.11 | X-H torsion

> <Gold.Protein.ActiveResidues>
 VAL166  LYS551  ARG553  GLY616  TRP617  ASP618  TYR619  PRO620  LYS621  CYS622 
 ASP623  PHE694  ASN695  SER759  ASP760  ASP761  ALA762  ILE779  LEU786  VAL792 
 PHE793  MET794  SER795  GLU796  ALA797  LYS798  CYS799  TRP800  GLU811  SER814 

> <Gold.Protein.RotatedAtoms>
  151.1057  133.5210  159.2607 H   0  0  0  0  0  0  0  0  0  0  0  0  # atno 6907 bound_to 6896
  151.2024  135.0447  159.8887 H   0  0  0  0  0  0  0  0  0  0  0  0  # atno 6908 bound_to 6896
  152.5446  134.0884  159.8319 H   0  0  0  0  0  0  0  0  0  0  0  0  # atno 6909 bound_to 6896
  146.1313  139.6197  142.9224 H   0  0  0  0  0  0  0  0  0  0  0  0  # atno 7974 bound_to 7965
  155.7866  140.3480  155.5326 H   0  0  0  0  0  0  0  0  0  0  0  0  # atno 8008 bound_to 7997
  155.8676  140.0981  157.1592 H   0  0  0  0  0  0  0  0  0  0  0  0  # atno 8009 bound_to 7997
  154.4015  140.1346  156.4025 H   0  0  0  0  0  0  0  0  0  0  0  0  # atno 8010 bound_to 7997
  140.0063  143.5488  152.2282 H   0  0  0  0  0  0  0  0  0  0  0  0  # atno 10167 bound_to 10162
  156.7415  130.5211  149.5823 H   0  0  0  0  0  0  0  0  0  0  0  0  # atno 10718 bound_to 10713
  153.6803  135.6967  153.5120 H   0  0  0  0  0  0  0  0  0  0  0  0  # atno 10763 bound_to 10752
  153.2490  135.4281  155.0777 H   0  0  0  0  0  0  0  0  0  0  0  0  # atno 10764 bound_to 10752
  154.8402  135.3526  154.6346 H   0  0  0  0  0  0  0  0  0  0  0  0  # atno 10765 bound_to 10752
  140.7473  134.3447  157.5134 H   0  0  0  0  0  0  0  0  0  0  0  0  # atno 11005 bound_to 11000
  145.5254  141.0430  143.2412 LP  0  0  0  0  0  0  0  0  0  0  0  0  # atno 17320 bound_to 7965
  144.7694  139.6770  143.7201 LP  0  0  0  0  0  0  0  0  0  0  0  0  # atno 17321 bound_to 7965
  139.6236  144.7633  151.2686 LP  0  0  0  0  0  0  0  0  0  0  0  0  # atno 17342 bound_to 10162
  140.7399  143.6604  150.8169 LP  0  0  0  0  0  0  0  0  0  0  0  0  # atno 17343 bound_to 10162
  156.1461  130.6278  151.0533 LP  0  0  0  0  0  0  0  0  0  0  0  0  # atno 17370 bound_to 10713
  157.6816  131.0836  150.7354 LP  0  0  0  0  0  0  0  0  0  0  0  0  # atno 17371 bound_to 10713
  139.8794  134.9119  156.3048 LP  0  0  0  0  0  0  0  0  0  0  0  0  # atno 17394 bound_to 11000
  140.9783  133.7283  156.0634 LP  0  0  0  0  0  0  0  0  0  0  0  0  # atno 17395 bound_to 11000

$$$$
