AV-unprocessed.smi:2119|AV-procd|sdf|8636|dock5
  -GOLD-   2272011383D 1   1.00000     0.00000
 Structure written by MMmdl.
 48 50  0  0  0  0  0  0  0  0  2 V2000
  145.5520  134.6742  154.2351 O   0  0  0  0  0  0  0  0  0  0  0  0
  146.5294  134.9586  153.5439 C   0  0  0  0  0  0  0  0  0  0  0  0
  147.5528  135.7081  153.9783 N   0  0  0  0  0  0  0  0  0  0  0  0
  147.6647  136.3050  155.3060 C   0  0  0  0  0  0  0  0  0  0  0  0
  149.1351  136.5928  155.7135 C   0  0  2  0  0  0  0  0  0  0  0  0
  149.5039  136.1102  157.1457 C   0  0  1  0  0  0  0  0  0  0  0  0
  148.7805  136.7931  158.2961 C   0  0  0  0  0  0  0  0  0  0  0  0
  148.9298  135.7941  159.4413 C   0  0  0  0  0  0  0  0  0  0  0  0
  149.1032  134.5181  158.8363 O   0  0  0  0  0  0  0  0  0  0  0  0
  149.1121  134.6548  157.4225 C   0  0  0  0  0  0  0  0  0  0  0  0
  149.4741  138.0421  155.5765 N   0  3  0  0  0  0  0  0  0  0  0  0
  150.9184  138.3441  155.7290 C   0  0  0  0  0  0  0  0  0  0  0  0
  151.1396  139.8663  155.7674 C   0  0  0  0  0  0  0  0  0  0  0  0
  150.5963  140.4618  154.5949 O   0  0  0  0  0  0  0  0  0  0  0  0
  149.1943  140.2456  154.4842 C   0  0  0  0  0  0  0  0  0  0  0  0
  148.9150  138.7369  154.3884 C   0  0  0  0  0  0  0  0  0  0  0  0
  146.7122  134.5839  152.2662 N   0  0  0  0  0  0  0  0  0  0  0  0
  145.8736  133.7685  151.4596 C   0  0  0  0  0  0  0  0  0  0  0  0
  144.4884  133.7762  151.7237 C   0  0  0  0  0  0  0  0  0  0  0  0
  143.6333  132.9923  150.9263 C   0  0  0  0  0  0  0  0  0  0  0  0
  144.1990  132.2344  149.8829 C   0  0  0  0  0  0  0  0  0  0  0  0
  145.5198  132.2277  149.6054 N   0  0  0  0  0  0  0  0  0  0  0  0
  146.3349  132.9800  150.3760 C   0  0  0  0  0  0  0  0  0  0  0  0
  148.3070  135.8933  153.3332 H   0  0  0  0  0  0  0  0  0  0  0  0
  147.0860  137.2282  155.2836 H   0  0  0  0  0  0  0  0  0  0  0  0
  147.1944  135.6644  156.0536 H   0  0  0  0  0  0  0  0  0  0  0  0
  149.7839  136.0514  155.0230 H   0  0  0  0  0  0  0  0  0  0  0  0
  150.5767  136.2185  157.3110 H   0  0  0  0  0  0  0  0  0  0  0  0
  149.2003  137.7641  158.5567 H   0  0  0  0  0  0  0  0  0  0  0  0
  147.7249  136.9289  158.0566 H   0  0  0  0  0  0  0  0  0  0  0  0
  149.8171  136.0183  160.0341 H   0  0  0  0  0  0  0  0  0  0  0  0
  148.0668  135.8024  160.1074 H   0  0  0  0  0  0  0  0  0  0  0  0
  148.1085  134.4470  157.0483 H   0  0  0  0  0  0  0  0  0  0  0  0
  149.7970  133.9387  156.9671 H   0  0  0  0  0  0  0  0  0  0  0  0
  151.2993  137.8996  156.6491 H   0  0  0  0  0  0  0  0  0  0  0  0
  151.4831  137.9094  154.9038 H   0  0  0  0  0  0  0  0  0  0  0  0
  150.6824  140.3043  156.6561 H   0  0  0  0  0  0  0  0  0  0  0  0
  152.2056  140.0897  155.8153 H   0  0  0  0  0  0  0  0  0  0  0  0
  148.6756  140.6862  155.3371 H   0  0  0  0  0  0  0  0  0  0  0  0
  148.8283  140.7528  153.5914 H   0  0  0  0  0  0  0  0  0  0  0  0
  149.3657  138.3490  153.4743 H   0  0  0  0  0  0  0  0  0  0  0  0
  147.8407  138.5696  154.3160 H   0  0  0  0  0  0  0  0  0  0  0  0
  147.5180  134.9716  151.7978 H   0  0  0  0  0  0  0  0  0  0  0  0
  144.0836  134.3705  152.5300 H   0  0  0  0  0  0  0  0  0  0  0  0
  142.5692  132.9725  151.1092 H   0  0  0  0  0  0  0  0  0  0  0  0
  143.5732  131.6223  149.2505 H   0  0  0  0  0  0  0  0  0  0  0  0
  147.3750  132.9551  150.0903 H   0  0  0  0  0  0  0  0  0  0  0  0
  149.0374  138.4813  156.3742 H   0  0  0  0  0  0  0  0  0  0  0  0
  1  2  2  0  0  0  0
  2  3  1  0  0  0  0
  2 17  1  0  0  0  0
  3  4  1  0  0  0  0
  3 24  1  0  0  0  0
  4  5  1  0  0  0  0
  4 25  1  0  0  0  0
  4 26  1  0  0  0  0
  5  6  1  0  0  0  0
  5 11  1  0  0  0  0
  5 27  1  0  0  0  0
  6 10  1  0  0  0  0
  6  7  1  0  0  0  0
  6 28  1  0  0  0  0
  7  8  1  0  0  0  0
  7 29  1  0  0  0  0
  7 30  1  0  0  0  0
  8  9  1  0  0  0  0
  8 31  1  0  0  0  0
  8 32  1  0  0  0  0
  9 10  1  0  0  0  0
 10 33  1  0  0  0  0
 10 34  1  0  0  0  0
 11 16  1  0  0  0  0
 11 12  1  0  0  0  0
 11 48  1  0  0  0  0
 12 13  1  0  0  0  0
 12 35  1  0  0  0  0
 12 36  1  0  0  0  0
 13 14  1  0  0  0  0
 13 37  1  0  0  0  0
 13 38  1  0  0  0  0
 14 15  1  0  0  0  0
 15 16  1  0  0  0  0
 15 39  1  0  0  0  0
 15 40  1  0  0  0  0
 16 41  1  0  0  0  0
 16 42  1  0  0  0  0
 17 18  1  0  0  0  0
 17 43  1  0  0  0  0
 18 23  1  0  0  0  0
 18 19  2  0  0  0  0
 19 20  1  0  0  0  0
 19 44  1  0  0  0  0
 20 21  2  0  0  0  0
 20 45  1  0  0  0  0
 21 22  1  0  0  0  0
 21 46  1  0  0  0  0
 22 23  2  0  0  0  0
 23 47  1  0  0  0  0
M  CHG  1  11   1
M  END
> <s_m_source_file>
AV-unprocessed.smi

> <i_m_source_file_index>
2119

> <i_lp_mmshare_version>
43012

> <i_f3d_flags>
0

> <s_epik_input>
W2NIXTFuW2NIXVtjSF1bY0hdYzFbTkhdQyg9TylbTkhdW0NIMl1bQ0BIXShbQ0BASF0yW0NIMl1bQ0gyXU9bQ0gyXTIpTjNbQ0gyXVtDSDJdT1tDSDJdW0NIMl0z

> <s_epik_cmdline>
J2VwaWtfcHl0aG9uJywgJy1waCcsICc3LjAnLCAnLXRuJywgJzgnLCAnLW1hJywgJzIwMCcsICctbWV0YWxfYmluZGluZycsICctaW1hZScsICc8aW5maWxlLm1hZT4nLCAnLW9tYWUnLCAnPG91dGZpbGUubWFlPic=

> <r_epik_Ionization_Penalty>
0.987463

> <r_epik_Ionization_Penalty_Charging>
0.98326

> <r_epik_Ionization_Penalty_Neutral>
0.00420251

> <r_epik_State_Penalty>
1.01721

> <r_epik_Charging_Adjusted_Penalty>
2.00047

> <i_epik_Tot_Q>
1

> <i_epik_Tot_abs_Q>
1

> <r_epik_Metal_State_Penalty>
1.01439

> <b_epik_Metal_Only>
0

> <s_lp_Force_Field>
OPLS_2005

> <r_lp_Energy>
42.3323

> <b_lp_Chiralities_Consistent>
1

> <s_lp_Variant>
AV-unprocessed.smi:2119-7

> <Gold.Version>
5.8.1

> <Gold.Id.Protein>
6NUR|6NUR_protein|mol2

> <Gold.PLP.Fitness>
43.9270

> <Gold.PLP.PLP>
-30.9166

> <Gold.PLP.part.hbond>
-3.7776

> <Gold.PLP.part.metal>
0.0000

> <Gold.PLP.part.buried>
-4.8799

> <Gold.PLP.part.nonpolar>
-23.3026

> <Gold.PLP.part.repulsive>
0.3457

> <Gold.PLP.ligand.clash>
0.0000

> <Gold.PLP.ligand.torsion>
1.1726

> <Gold.PLP.Chemscore.Hbond>
4.0000

> <Gold.PLP.Chemscore.CHOScore>
0.9983

> <Gold.PLP.Chemscore.Metal>
0.0000

> <Gold.Chemscore.Hbonds>
donor molecule, donor type, donor heavy atom, donor atom, acceptor molecule, acceptor atom, score
      L1  H     3    24       P1  7948  1.00
      L1  H    17    43       P1  7948  0.98
      P1  H  6896  6909       L1     9  1.00
      P1  H  7989  7998       L1    14  1.00
      L1  C    23    47       P1 10747  0.70

> <Gold.PLP.Chemscore.Internal.Correction>
0.3608

> <Gold.Rescore>
     Score         DG    S(hbond)    S(metal)    S(lipo)     H(rot)  DE(clash)    DE(int)     intcor
     18.82     -21.34       3.39        0.00      76.06       1.70       0.04       2.48       ----

> <Gold.Chemscore.Fitness>
18.8162

> <Gold.Chemscore.DG>
-21.3396

> <Gold.Chemscore.ZeroCoef>
-5.4800

> <Gold.Chemscore.Hbond>
3.3885

> <Gold.Chemscore.Metal>
0.0000

> <Gold.Chemscore.Lipo>
76.0644

> <Gold.Chemscore.Internal_Hbond>
0.0000

> <Gold.Chemscore.DEClash>
0.0402

> <Gold.Chemscore.DEInternal>
2.4831

> <Gold.Chemscore.Rot>
1.7021

> <Gold.Chemscore.Internal.Correction>
   9.000000E+99

> <Gold.Chemscore.Hbonds>
donor molecule, donor type, donor heavy atom, donor atom, acceptor molecule, acceptor atom, score
      L1  H     3    24       P1  7948  0.98
      L1  H    17    43       P1  7948  0.73
      P1  H  6896  6909       L1     9  0.19
      P1  H  7989  7998       L1    14  0.86

> <Gold.Chemscore.Hbond.Weighted>
-11.3176

> <Gold.Chemscore.Metal.Weighted>
-0.0000

> <Gold.Chemscore.Lipo.Weighted>
-8.8995

> <Gold.Chemscore.Internal_Hbond.Weighted>
0.0000

> <Gold.Chemscore.DEClash.Weighted>
0.0402

> <Gold.Chemscore.DEInternal.Weighted>
2.4831

> <Gold.Chemscore.Rot.Weighted>
4.3575

> <Gold.Chemscore.Internal.Correction.Weighted>
   9.000000E+99

> <Gold.Protein.RotatedTorsions>
[ 6907 6896 6895 6894 ] final   21.58 input  -60.11 | X-H torsion
[ 7974 7965 7964 7962 ] final  -83.45 input  175.53 | X-H torsion
[ 8008 7997 7996 7995 ] final  -72.38 input   59.86 | X-H torsion
[ 10167 10162 10161 10158 ] final -126.65 input  -65.29 | X-H torsion
[ 10718 10713 10712 10709 ] final -152.50 input   66.30 | X-H torsion
[ 10763 10752 10751 10750 ] final   36.49 input  -60.55 | X-H torsion
[ 11005 11000 10999 10996 ] final  -63.93 input  -57.11 | X-H torsion

> <Gold.Protein.ActiveResidues>
 VAL166  LYS551  ARG553  GLY616  TRP617  ASP618  TYR619  PRO620  LYS621  CYS622 
 ASP623  PHE694  ASN695  SER759  ASP760  ASP761  ALA762  ILE779  LEU786  VAL792 
 PHE793  MET794  SER795  GLU796  ALA797  LYS798  CYS799  TRP800  GLU811  SER814 

> <Gold.Protein.RotatedAtoms>
  151.9139  135.0327  160.0516 H   0  0  0  0  0  0  0  0  0  0  0  0  # atno 6907 bound_to 6896
  152.2256  133.5013  159.5195 H   0  0  0  0  0  0  0  0  0  0  0  0  # atno 6908 bound_to 6896
  150.7011  134.1201  159.4074 H   0  0  0  0  0  0  0  0  0  0  0  0  # atno 6909 bound_to 6896
  145.5198  140.9532  143.1661 H   0  0  0  0  0  0  0  0  0  0  0  0  # atno 7974 bound_to 7965
  154.5162  140.0798  156.8085 H   0  0  0  0  0  0  0  0  0  0  0  0  # atno 8008 bound_to 7997
  155.3676  140.3421  155.4224 H   0  0  0  0  0  0  0  0  0  0  0  0  # atno 8009 bound_to 7997
  156.1630  140.1594  156.8567 H   0  0  0  0  0  0  0  0  0  0  0  0  # atno 8010 bound_to 7997
  139.9692  143.5865  152.2419 H   0  0  0  0  0  0  0  0  0  0  0  0  # atno 10167 bound_to 10162
  156.4733  130.8268  151.2497 H   0  0  0  0  0  0  0  0  0  0  0  0  # atno 10718 bound_to 10713
  153.0075  135.6304  154.1994 H   0  0  0  0  0  0  0  0  0  0  0  0  # atno 10763 bound_to 10752
  154.1737  135.2817  155.3075 H   0  0  0  0  0  0  0  0  0  0  0  0  # atno 10764 bound_to 10752
  154.5888  135.5624  153.7318 H   0  0  0  0  0  0  0  0  0  0  0  0  # atno 10765 bound_to 10752
  141.1409  133.6658  156.5756 H   0  0  0  0  0  0  0  0  0  0  0  0  # atno 11005 bound_to 11000
  144.7682  139.6796  143.7206 LP  0  0  0  0  0  0  0  0  0  0  0  0  # atno 17320 bound_to 7965
  146.2113  139.5471  142.9679 LP  0  0  0  0  0  0  0  0  0  0  0  0  # atno 17321 bound_to 7965
  139.6494  144.7660  151.2178 LP  0  0  0  0  0  0  0  0  0  0  0  0  # atno 17342 bound_to 10162
  140.7528  143.6185  150.8536 LP  0  0  0  0  0  0  0  0  0  0  0  0  # atno 17343 bound_to 10162
  157.7489  131.0069  150.3170 LP  0  0  0  0  0  0  0  0  0  0  0  0  # atno 17370 bound_to 10713
  156.3596  130.3845  149.7262 LP  0  0  0  0  0  0  0  0  0  0  0  0  # atno 17371 bound_to 10713
  140.3878  134.7467  157.4702 LP  0  0  0  0  0  0  0  0  0  0  0  0  # atno 17394 bound_to 11000
  140.0589  134.6024  155.8773 LP  0  0  0  0  0  0  0  0  0  0  0  0  # atno 17395 bound_to 11000

$$$$
