AV-unprocessed.smi:3025|AV-procd|sdf|11511|dock6
  -GOLD-   2272016453D 1   1.00000     0.00000
 Structure written by MMmdl.
 41 42  0  0  0  0  0  0  0  0  3 V2000
  153.4719  142.9304  163.1978 C   0  0  0  0  0  0  0  0  0  0  0  0
  152.7152  142.5163  161.9308 C   0  0  0  0  0  0  0  0  0  0  0  0
  153.6603  142.1893  160.7621 C   0  0  0  0  0  0  0  0  0  0  0  0
  153.0045  142.2953  159.3697 C   0  0  2  0  0  0  0  0  0  0  0  0
  152.2125  143.6075  159.1842 C   0  0  0  0  0  0  0  0  0  0  0  0
  151.5435  143.6843  157.8022 C   0  0  0  0  0  0  0  0  0  0  0  0
  150.6258  142.4713  157.5465 C   0  0  1  0  0  0  0  0  0  0  0  0
  150.0275  142.5157  156.1937 N   0  3  0  0  0  0  0  0  0  0  0  0
  148.8269  141.6757  156.0081 C   0  0  0  0  0  0  0  0  0  0  0  0
  148.7910  141.0761  154.5985 C   0  0  0  0  0  0  0  0  0  0  0  0
  149.7874  139.9498  154.4478 C   0  0  0  0  0  0  0  0  0  0  0  0
  151.0973  140.0152  154.7592 N   0  5  0  0  0  0  0  0  0  0  0  0
  151.6712  138.8468  154.5475 N   0  0  0  0  0  0  0  0  0  0  0  0
  150.6754  138.0666  154.1109 C   0  0  0  0  0  0  0  0  0  0  0  0
  149.5062  138.7132  154.0471 N   0  0  0  0  0  0  0  0  0  0  0  0
  151.4200  141.1650  157.7232 C   0  0  0  0  0  0  0  0  0  0  0  0
  152.0813  141.0883  159.1083 C   0  0  0  0  0  0  0  0  0  0  0  0
  152.7779  143.1612  164.0064 H   0  0  0  0  0  0  0  0  0  0  0  0
  154.0822  143.8166  163.0209 H   0  0  0  0  0  0  0  0  0  0  0  0
  154.1301  142.1321  163.5423 H   0  0  0  0  0  0  0  0  0  0  0  0
  152.0906  141.6544  162.1640 H   0  0  0  0  0  0  0  0  0  0  0  0
  152.0381  143.3206  161.6411 H   0  0  0  0  0  0  0  0  0  0  0  0
  154.5043  142.8791  160.8053 H   0  0  0  0  0  0  0  0  0  0  0  0
  154.0810  141.1919  160.8969 H   0  0  0  0  0  0  0  0  0  0  0  0
  153.7996  142.2689  158.6228 H   0  0  0  0  0  0  0  0  0  0  0  0
  151.4510  143.6916  159.9610 H   0  0  0  0  0  0  0  0  0  0  0  0
  152.8687  144.4693  159.3027 H   0  0  0  0  0  0  0  0  0  0  0  0
  150.9789  144.6142  157.7371 H   0  0  0  0  0  0  0  0  0  0  0  0
  152.3125  143.7356  157.0298 H   0  0  0  0  0  0  0  0  0  0  0  0
  149.8158  142.4750  158.2777 H   0  0  0  0  0  0  0  0  0  0  0  0
  149.8006  143.4730  155.9654 H   0  0  0  0  0  0  0  0  0  0  0  0
  148.8271  140.8756  156.7496 H   0  0  0  0  0  0  0  0  0  0  0  0
  147.9275  142.2692  156.1726 H   0  0  0  0  0  0  0  0  0  0  0  0
  147.7943  140.6951  154.3733 H   0  0  0  0  0  0  0  0  0  0  0  0
  149.0138  141.8414  153.8539 H   0  0  0  0  0  0  0  0  0  0  0  0
  150.8023  137.0249  153.8431 H   0  0  0  0  0  0  0  0  0  0  0  0
  150.7613  140.3062  157.5873 H   0  0  0  0  0  0  0  0  0  0  0  0
  152.1879  141.0894  156.9519 H   0  0  0  0  0  0  0  0  0  0  0  0
  152.6496  140.1604  159.1853 H   0  0  0  0  0  0  0  0  0  0  0  0
  151.3096  141.0403  159.8779 H   0  0  0  0  0  0  0  0  0  0  0  0
  150.7233  142.1868  155.5398 H   0  0  0  0  0  0  0  0  0  0  0  0
  1  2  1  0  0  0  0
  1 18  1  0  0  0  0
  1 19  1  0  0  0  0
  1 20  1  0  0  0  0
  2  3  1  0  0  0  0
  2 21  1  0  0  0  0
  2 22  1  0  0  0  0
  3  4  1  0  0  0  0
  3 23  1  0  0  0  0
  3 24  1  0  0  0  0
  4 17  1  0  0  0  0
  4  5  1  0  0  0  0
  4 25  1  0  0  0  0
  5  6  1  0  0  0  0
  5 26  1  0  0  0  0
  5 27  1  0  0  0  0
  6  7  1  0  0  0  0
  6 28  1  0  0  0  0
  6 29  1  0  0  0  0
  7  8  1  0  0  0  0
  7 16  1  0  0  0  0
  7 30  1  0  0  0  0
  8  9  1  0  0  0  0
  8 31  1  0  0  0  0
  8 41  1  0  0  0  0
  9 10  1  0  0  0  0
  9 32  1  0  0  0  0
  9 33  1  0  0  0  0
 10 34  1  0  0  0  0
 10 35  1  0  0  0  0
 10 11  1  0  0  0  0
 11 15  2  0  0  0  0
 11 12  1  0  0  0  0
 12 13  1  0  0  0  0
 13 14  2  0  0  0  0
 14 15  1  0  0  0  0
 14 36  1  0  0  0  0
 16 17  1  0  0  0  0
 16 37  1  0  0  0  0
 16 38  1  0  0  0  0
 17 39  1  0  0  0  0
 17 40  1  0  0  0  0
M  CHG  1   8   1
M  CHG  1  12  -1
M  END
> <s_m_source_file>
AV-unprocessed.smi

> <i_m_source_file_index>
3025

> <i_lp_mmshare_version>
43012

> <i_f3d_flags>
0

> <s_epik_input>
W0NIM11bQ0gyXVtDSDJdW0NAQEhdMVtDSDJdW0NIMl1bQ0BIXShbQ0gyXVtDSDJdMSlbTkhdW0NIMl1bQ0gyXWMybm5bY0hdW25IXTI=

> <s_epik_cmdline>
J2VwaWtfcHl0aG9uJywgJy1waCcsICc3LjAnLCAnLXRuJywgJzgnLCAnLW1hJywgJzIwMCcsICctbWV0YWxfYmluZGluZycsICctaW1hZScsICc8aW5maWxlLm1hZT4nLCAnLW9tYWUnLCAnPG91dGZpbGUubWFlPic=

> <r_lp_tautomer_probability>
0.948284

> <r_epik_Ionization_Penalty>
6.65342

> <r_epik_Ionization_Penalty_Charging>
6.65342

> <r_epik_Ionization_Penalty_Neutral>
1.40767e-13

> <r_epik_State_Penalty>
2.88894

> <r_epik_Charging_Adjusted_Penalty>
9.54236

> <i_epik_Tot_Q>
0

> <i_epik_Tot_abs_Q>
2

> <r_epik_Metal_State_Penalty>
0.664188

> <b_epik_Metal_Only>
1

> <s_lp_Force_Field>
OPLS_2005

> <r_lp_Energy>
6.5819

> <b_lp_Chiralities_Consistent>
1

> <s_lp_Variant>
AV-unprocessed.smi:3025-7

> <Gold.Version>
5.8.1

> <Gold.Id.Protein>
6NUR|6NUR_protein|mol2

> <Gold.PLP.Fitness>
53.2499

> <Gold.PLP.PLP>
-42.5254

> <Gold.PLP.part.hbond>
-2.7328

> <Gold.PLP.part.metal>
0.0000

> <Gold.PLP.part.buried>
-3.7006

> <Gold.PLP.part.nonpolar>
-35.8724

> <Gold.PLP.part.repulsive>
0.5255

> <Gold.PLP.ligand.clash>
0.0000

> <Gold.PLP.ligand.torsion>
0.6940

> <Gold.PLP.Chemscore.Hbond>
3.0000

> <Gold.PLP.Chemscore.CHOScore>
1.0128

> <Gold.PLP.Chemscore.Metal>
0.0000

> <Gold.Chemscore.Hbonds>
donor molecule, donor type, donor heavy atom, donor atom, acceptor molecule, acceptor atom, score
      L1  H     8    31       P1  8028  2.00
      P1  H  7989  7998       L1    12  1.00
      L1  C    14    36       P1  7948  0.12
      L1  C    14    36       P1  7949  0.70

> <Gold.PLP.Chemscore.Internal.Correction>
0.0741

> <Gold.Rescore>
     Score         DG    S(hbond)    S(metal)    S(lipo)     H(rot)  DE(clash)    DE(int)     intcor
     16.52     -17.54       1.88        0.00     104.28       2.50       0.09       0.94       ----

> <Gold.Chemscore.Fitness>
16.5203

> <Gold.Chemscore.DG>
-17.5442

> <Gold.Chemscore.ZeroCoef>
-5.4800

> <Gold.Chemscore.Hbond>
1.8766

> <Gold.Chemscore.Metal>
0.0000

> <Gold.Chemscore.Lipo>
104.2850

> <Gold.Chemscore.Internal_Hbond>
0.0000

> <Gold.Chemscore.DEClash>
0.0860

> <Gold.Chemscore.DEInternal>
0.9378

> <Gold.Chemscore.Rot>
2.5019

> <Gold.Chemscore.Internal.Correction>
   9.000000E+99

> <Gold.Chemscore.Hbonds>
donor molecule, donor type, donor heavy atom, donor atom, acceptor molecule, acceptor atom, score
      L1  H     8    31       P1  8028  0.97
      P1  H  7989  7998       L1    12  0.08

> <Gold.Chemscore.Hbond.Weighted>
-6.2677

> <Gold.Chemscore.Metal.Weighted>
-0.0000

> <Gold.Chemscore.Lipo.Weighted>
-12.2013

> <Gold.Chemscore.Internal_Hbond.Weighted>
0.0000

> <Gold.Chemscore.DEClash.Weighted>
0.0860

> <Gold.Chemscore.DEInternal.Weighted>
0.9378

> <Gold.Chemscore.Rot.Weighted>
6.4049

> <Gold.Chemscore.Internal.Correction.Weighted>
   9.000000E+99

> <Gold.Protein.RotatedTorsions>
[ 6907 6896 6895 6894 ] final  173.26 input  -60.11 | X-H torsion
[ 7974 7965 7964 7962 ] final -174.63 input  175.53 | X-H torsion
[ 8008 7997 7996 7995 ] final -175.73 input   59.86 | X-H torsion
[ 10167 10162 10161 10158 ] final   -6.58 input  -65.29 | X-H torsion
[ 10718 10713 10712 10709 ] final   -2.79 input   66.30 | X-H torsion
[ 10763 10752 10751 10750 ] final  -81.08 input  -60.55 | X-H torsion
[ 11005 11000 10999 10996 ] final   -9.86 input  -57.11 | X-H torsion

> <Gold.Protein.ActiveResidues>
 VAL166  LYS551  ARG553  GLY616  TRP617  ASP618  TYR619  PRO620  LYS621  CYS622 
 ASP623  PHE694  ASN695  SER759  ASP760  ASP761  ALA762  ILE779  LEU786  VAL792 
 PHE793  MET794  SER795  GLU796  ALA797  LYS798  CYS799  TRP800  GLU811  SER814 

> <Gold.Protein.RotatedAtoms>
  151.7711  133.3341  159.3444 H   0  0  0  0  0  0  0  0  0  0  0  0  # atno 6907 bound_to 6896
  150.7461  134.6017  159.6049 H   0  0  0  0  0  0  0  0  0  0  0  0  # atno 6908 bound_to 6896
  152.3340  134.7224  160.0333 H   0  0  0  0  0  0  0  0  0  0  0  0  # atno 6909 bound_to 6896
  144.7131  140.1442  143.6389 H   0  0  0  0  0  0  0  0  0  0  0  0  # atno 7974 bound_to 7965
  155.9862  140.1191  157.0681 H   0  0  0  0  0  0  0  0  0  0  0  0  # atno 8008 bound_to 7997
  154.4197  140.1135  156.5571 H   0  0  0  0  0  0  0  0  0  0  0  0  # atno 8009 bound_to 7997
  155.6404  140.3473  155.4715 H   0  0  0  0  0  0  0  0  0  0  0  0  # atno 8010 bound_to 7997
  140.7001  143.6178  150.8641 H   0  0  0  0  0  0  0  0  0  0  0  0  # atno 10167 bound_to 10162
  156.7855  130.5345  149.5744 H   0  0  0  0  0  0  0  0  0  0  0  0  # atno 10718 bound_to 10713
  154.5592  135.5638  153.6992 H   0  0  0  0  0  0  0  0  0  0  0  0  # atno 10763 bound_to 10752
  153.0013  135.6269  154.2268 H   0  0  0  0  0  0  0  0  0  0  0  0  # atno 10764 bound_to 10752
  154.2205  135.2870  155.2906 H   0  0  0  0  0  0  0  0  0  0  0  0  # atno 10765 bound_to 10752
  140.7386  133.8689  155.8949 H   0  0  0  0  0  0  0  0  0  0  0  0  # atno 11005 bound_to 11000
  145.9174  139.2524  143.1401 LP  0  0  0  0  0  0  0  0  0  0  0  0  # atno 17320 bound_to 7965
  145.9654  140.8802  143.0189 LP  0  0  0  0  0  0  0  0  0  0  0  0  # atno 17321 bound_to 7965
  139.9900  143.5858  152.2913 LP  0  0  0  0  0  0  0  0  0  0  0  0  # atno 17342 bound_to 10162
  139.6509  144.7660  151.2150 LP  0  0  0  0  0  0  0  0  0  0  0  0  # atno 17343 bound_to 10162
  156.1191  130.6097  151.0166 LP  0  0  0  0  0  0  0  0  0  0  0  0  # atno 17370 bound_to 10713
  157.6625  131.0878  150.7804 LP  0  0  0  0  0  0  0  0  0  0  0  0  # atno 17371 bound_to 10713
  140.9857  134.1346  157.4454 LP  0  0  0  0  0  0  0  0  0  0  0  0  # atno 17394 bound_to 11000
  139.8811  135.0025  156.6128 LP  0  0  0  0  0  0  0  0  0  0  0  0  # atno 17395 bound_to 11000

$$$$
