AV-unprocessed.smi:1378|AV-procd|sdf|5597|dock3
  -GOLD-   22720 5203D 1   1.00000     0.00000
 Structure written by MMmdl.
 47 49  0  0  0  0  0  0  0  0  2 V2000
  140.6641  138.0537  153.7748 C   0  0  0  0  0  0  0  0  0  0  0  0
  141.2865  136.7952  153.9687 O   0  0  0  0  0  0  0  0  0  0  0  0
  142.5794  136.7382  153.3938 C   0  0  0  0  0  0  0  0  0  0  0  0
  143.0234  135.2701  153.3116 C   0  0  0  0  0  0  0  0  0  0  0  0
  144.3558  135.1143  152.7104 N   0  0  0  0  0  0  0  0  0  0  0  0
  145.5106  135.8163  152.8946 C   0  0  0  0  0  0  0  0  0  0  0  0
  145.7563  137.2201  153.9344 S   0  0  0  0  0  0  0  0  0  0  0  0
  146.6277  138.4436  152.9137 C   0  0  0  0  0  0  0  0  0  0  0  0
  147.3333  139.5140  153.7459 C   0  0  0  0  0  0  0  0  0  0  0  0
  148.5452  139.4465  153.9444 O   0  0  0  0  0  0  0  0  0  0  0  0
  146.5590  140.5077  154.2048 N   0  0  0  0  0  0  0  0  0  0  0  0
  147.0085  141.6631  154.9723 C   0  0  0  0  0  0  0  0  0  0  0  0
  146.3118  141.7235  156.3473 C   0  0  0  0  0  0  0  0  0  0  0  0
  145.5851  143.0711  156.4057 C   0  0  0  0  0  0  0  0  0  0  0  0
  145.3620  143.4601  154.9469 C   0  0  0  0  0  0  0  0  0  0  0  0
  146.6181  142.9569  154.2392 C   0  0  0  0  0  0  0  0  0  0  0  0
  146.4670  135.2566  152.1051 N   0  3  0  0  0  0  0  0  0  0  0  0
  145.9222  134.1801  151.4047 C   0  0  0  0  0  0  0  0  0  0  0  0
  146.4952  133.3097  150.4828 C   0  0  0  0  0  0  0  0  0  0  0  0
  145.6559  132.3082  149.9521 C   0  0  0  0  0  0  0  0  0  0  0  0
  144.3054  132.1988  150.3422 C   0  0  0  0  0  0  0  0  0  0  0  0
  143.7354  133.0871  151.2776 C   0  0  0  0  0  0  0  0  0  0  0  0
  144.5701  134.0772  151.7947 C   0  0  0  0  0  0  0  0  0  0  0  0
  139.6738  138.0468  154.2301 H   0  0  0  0  0  0  0  0  0  0  0  0
  140.5453  138.2759  152.7136 H   0  0  0  0  0  0  0  0  0  0  0  0
  141.2418  138.8552  154.2374 H   0  0  0  0  0  0  0  0  0  0  0  0
  142.5625  137.1941  152.4031 H   0  0  0  0  0  0  0  0  0  0  0  0
  143.2752  137.3109  154.0049 H   0  0  0  0  0  0  0  0  0  0  0  0
  143.0468  134.8272  154.3076 H   0  0  0  0  0  0  0  0  0  0  0  0
  142.3149  134.6823  152.7267 H   0  0  0  0  0  0  0  0  0  0  0  0
  147.3491  137.9278  152.2798 H   0  0  0  0  0  0  0  0  0  0  0  0
  145.9089  138.9190  152.2460 H   0  0  0  0  0  0  0  0  0  0  0  0
  145.5727  140.4668  153.9932 H   0  0  0  0  0  0  0  0  0  0  0  0
  148.0933  141.6309  155.0894 H   0  0  0  0  0  0  0  0  0  0  0  0
  145.5881  140.9139  156.4554 H   0  0  0  0  0  0  0  0  0  0  0  0
  147.0250  141.6227  157.1659 H   0  0  0  0  0  0  0  0  0  0  0  0
  144.6553  143.0210  156.9730 H   0  0  0  0  0  0  0  0  0  0  0  0
  146.2261  143.8116  156.8856 H   0  0  0  0  0  0  0  0  0  0  0  0
  144.4856  142.9417  154.5553 H   0  0  0  0  0  0  0  0  0  0  0  0
  145.2051  144.5310  154.8160 H   0  0  0  0  0  0  0  0  0  0  0  0
  147.4145  143.6927  154.3588 H   0  0  0  0  0  0  0  0  0  0  0  0
  146.4651  142.8215  153.1680 H   0  0  0  0  0  0  0  0  0  0  0  0
  147.5301  133.3897  150.1838 H   0  0  0  0  0  0  0  0  0  0  0  0
  146.0566  131.6088  149.2326 H   0  0  0  0  0  0  0  0  0  0  0  0
  143.6934  131.4175  149.9151 H   0  0  0  0  0  0  0  0  0  0  0  0
  142.6993  132.9957  151.5688 H   0  0  0  0  0  0  0  0  0  0  0  0
  147.4199  135.5927  152.0484 H   0  0  0  0  0  0  0  0  0  0  0  0
  1  2  1  0  0  0  0
  1 24  1  0  0  0  0
  1 25  1  0  0  0  0
  1 26  1  0  0  0  0
  2  3  1  0  0  0  0
  3  4  1  0  0  0  0
  3 27  1  0  0  0  0
  3 28  1  0  0  0  0
  4  5  1  0  0  0  0
  4 29  1  0  0  0  0
  4 30  1  0  0  0  0
  5 23  1  0  0  0  0
  5  6  1  0  0  0  0
  6  7  1  0  0  0  0
  6 17  2  0  0  0  0
  7  8  1  0  0  0  0
  8  9  1  0  0  0  0
  8 31  1  0  0  0  0
  8 32  1  0  0  0  0
  9 10  2  0  0  0  0
  9 11  1  0  0  0  0
 11 12  1  0  0  0  0
 11 33  1  0  0  0  0
 12 16  1  0  0  0  0
 12 13  1  0  0  0  0
 12 34  1  0  0  0  0
 13 14  1  0  0  0  0
 13 35  1  0  0  0  0
 13 36  1  0  0  0  0
 14 15  1  0  0  0  0
 14 37  1  0  0  0  0
 14 38  1  0  0  0  0
 15 16  1  0  0  0  0
 15 39  1  0  0  0  0
 15 40  1  0  0  0  0
 16 41  1  0  0  0  0
 16 42  1  0  0  0  0
 17 18  1  0  0  0  0
 17 47  1  0  0  0  0
 18 23  2  0  0  0  0
 18 19  1  0  0  0  0
 19 20  2  0  0  0  0
 19 43  1  0  0  0  0
 20 21  1  0  0  0  0
 20 44  1  0  0  0  0
 21 22  2  0  0  0  0
 21 45  1  0  0  0  0
 22 23  1  0  0  0  0
 22 46  1  0  0  0  0
M  CHG  1  17   1
M  END
> <s_m_source_file>
AV-unprocessed.smi

> <i_m_source_file_index>
1378

> <i_lp_mmshare_version>
43012

> <i_f3d_flags>
0

> <s_epik_input>
W2NIXTFbY0hdW2NIXVtjSF1jKGMxMiluKFtDSDJdW0NIMl1PW0NIM10pYyhuMilTW0NIMl1DKD1PKVtOSF1bQ0hdM1tDSDJdW0NIMl1bQ0gyXVtDSDJdMw==

> <s_epik_cmdline>
J2VwaWtfcHl0aG9uJywgJy1waCcsICc3LjAnLCAnLXRuJywgJzgnLCAnLW1hJywgJzIwMCcsICctbWV0YWxfYmluZGluZycsICctaW1hZScsICc8aW5maWxlLm1hZT4nLCAnLW9tYWUnLCAnPG91dGZpbGUubWFlPic=

> <r_epik_Ionization_Penalty>
1.66257

> <r_epik_Ionization_Penalty_Charging>
1.66257

> <r_epik_Ionization_Penalty_Neutral>
9.72138e-08

> <r_epik_State_Penalty>
1.76557

> <r_epik_Charging_Adjusted_Penalty>
3.42813

> <i_epik_Tot_Q>
1

> <i_epik_Tot_abs_Q>
1

> <r_epik_Metal_State_Penalty>
1.80074

> <b_epik_Metal_Only>
0

> <s_lp_Force_Field>
OPLS_2005

> <r_lp_Energy>
23.1428

> <b_lp_Chiralities_Consistent>
1

> <s_lp_Variant>
AV-unprocessed.smi:1378-2

> <Gold.Version>
5.8.1

> <Gold.Id.Protein>
6NUR|6NUR_protein|mol2

> <Gold.PLP.Fitness>
51.9820

> <Gold.PLP.PLP>
-44.4638

> <Gold.PLP.part.hbond>
-2.0000

> <Gold.PLP.part.metal>
0.0000

> <Gold.PLP.part.buried>
-9.9564

> <Gold.PLP.part.nonpolar>
-34.1372

> <Gold.PLP.part.repulsive>
1.3512

> <Gold.PLP.ligand.clash>
0.0000

> <Gold.PLP.ligand.torsion>
0.8011

> <Gold.PLP.Chemscore.Hbond>
3.0000

> <Gold.PLP.Chemscore.CHOScore>
0.0000

> <Gold.PLP.Chemscore.Metal>
0.0000

> <Gold.Chemscore.Hbonds>
donor molecule, donor type, donor heavy atom, donor atom, acceptor molecule, acceptor atom, score
      L1  H    11    33       P1 10175  0.03
      L1  H    17    47       P1  7948  2.00

> <Gold.PLP.Chemscore.Internal.Correction>
0.1205

> <Gold.Rescore>
     Score         DG    S(hbond)    S(metal)    S(lipo)     H(rot)  DE(clash)    DE(int)     intcor
     16.95     -17.73       1.98        0.00      93.25       2.06       0.04       0.74       ----

> <Gold.Chemscore.Fitness>
16.9456

> <Gold.Chemscore.DG>
-17.7271

> <Gold.Chemscore.ZeroCoef>
-5.4800

> <Gold.Chemscore.Hbond>
1.9768

> <Gold.Chemscore.Metal>
0.0000

> <Gold.Chemscore.Lipo>
93.2453

> <Gold.Chemscore.Internal_Hbond>
0.0000

> <Gold.Chemscore.DEClash>
0.0390

> <Gold.Chemscore.DEInternal>
0.7426

> <Gold.Chemscore.Rot>
2.0567

> <Gold.Chemscore.Internal.Correction>
   9.000000E+99

> <Gold.Chemscore.Hbonds>
donor molecule, donor type, donor heavy atom, donor atom, acceptor molecule, acceptor atom, score
      L1  H    11    33       P1 10175  0.08
      L1  H    17    47       P1  7948  1.00

> <Gold.Chemscore.Hbond.Weighted>
-6.6026

> <Gold.Chemscore.Metal.Weighted>
-0.0000

> <Gold.Chemscore.Lipo.Weighted>
-10.9097

> <Gold.Chemscore.Internal_Hbond.Weighted>
0.0000

> <Gold.Chemscore.DEClash.Weighted>
0.0390

> <Gold.Chemscore.DEInternal.Weighted>
0.7426

> <Gold.Chemscore.Rot.Weighted>
5.2652

> <Gold.Chemscore.Internal.Correction.Weighted>
   9.000000E+99

> <Gold.Protein.RotatedTorsions>
[ 6907 6896 6895 6894 ] final -162.09 input  -60.11 | X-H torsion
[ 7974 7965 7964 7962 ] final  -41.48 input  175.53 | X-H torsion
[ 8008 7997 7996 7995 ] final   79.83 input   59.86 | X-H torsion
[ 10167 10162 10161 10158 ] final -125.55 input  -65.29 | X-H torsion
[ 10718 10713 10712 10709 ] final  -18.83 input   66.30 | X-H torsion
[ 10763 10752 10751 10750 ] final   46.20 input  -60.55 | X-H torsion
[ 11005 11000 10999 10996 ] final   82.57 input  -57.11 | X-H torsion

> <Gold.Protein.ActiveResidues>
 VAL166  LYS551  ARG553  GLY616  TRP617  ASP618  TYR619  PRO620  LYS621  CYS622 
 ASP623  PHE694  ASN695  SER759  ASP760  ASP761  ALA762  ILE779  LEU786  VAL792 
 PHE793  MET794  SER795  GLU796  ALA797  LYS798  CYS799  TRP800  GLU811  SER814 

> <Gold.Protein.RotatedAtoms>
  151.3748  133.3842  159.2703 H   0  0  0  0  0  0  0  0  0  0  0  0  # atno 6907 bound_to 6896
  150.9623  134.9010  159.7748 H   0  0  0  0  0  0  0  0  0  0  0  0  # atno 6908 bound_to 6896
  152.5154  134.3708  159.9369 H   0  0  0  0  0  0  0  0  0  0  0  0  # atno 6909 bound_to 6896
  146.0207  140.6853  142.9180 H   0  0  0  0  0  0  0  0  0  0  0  0  # atno 7974 bound_to 7965
  155.8751  140.3447  155.5848 H   0  0  0  0  0  0  0  0  0  0  0  0  # atno 8008 bound_to 7997
  155.7783  140.0855  157.2091 H   0  0  0  0  0  0  0  0  0  0  0  0  # atno 8009 bound_to 7997
  154.4020  140.1505  156.3010 H   0  0  0  0  0  0  0  0  0  0  0  0  # atno 8010 bound_to 7997
  139.9809  143.5743  152.2378 H   0  0  0  0  0  0  0  0  0  0  0  0  # atno 10167 bound_to 10162
  156.5540  130.4709  149.6438 H   0  0  0  0  0  0  0  0  0  0  0  0  # atno 10718 bound_to 10713
  152.9814  135.6015  154.3561 H   0  0  0  0  0  0  0  0  0  0  0  0  # atno 10763 bound_to 10752
  154.3247  135.2769  155.2504 H   0  0  0  0  0  0  0  0  0  0  0  0  # atno 10764 bound_to 10752
  154.4655  135.5955  153.6340 H   0  0  0  0  0  0  0  0  0  0  0  0  # atno 10765 bound_to 10752
  139.9059  134.8081  156.2192 H   0  0  0  0  0  0  0  0  0  0  0  0  # atno 11005 bound_to 11000
  144.6989  140.3561  143.7173 LP  0  0  0  0  0  0  0  0  0  0  0  0  # atno 17320 bound_to 7965
  145.7198  139.1706  143.2491 LP  0  0  0  0  0  0  0  0  0  0  0  0  # atno 17321 bound_to 7965
  139.6410  144.7654  151.2338 LP  0  0  0  0  0  0  0  0  0  0  0  0  # atno 17342 bound_to 10162
  140.7489  143.6317  150.8417 LP  0  0  0  0  0  0  0  0  0  0  0  0  # atno 17343 bound_to 10162
  156.2858  130.7096  151.1933 LP  0  0  0  0  0  0  0  0  0  0  0  0  # atno 17370 bound_to 10713
  157.7382  131.0544  150.5310 LP  0  0  0  0  0  0  0  0  0  0  0  0  # atno 17371 bound_to 10713
  141.0416  133.6935  156.1609 LP  0  0  0  0  0  0  0  0  0  0  0  0  # atno 17394 bound_to 11000
  140.6946  134.4629  157.5588 LP  0  0  0  0  0  0  0  0  0  0  0  0  # atno 17395 bound_to 11000

$$$$
