AV-unprocessed.smi:1540|AV-procd|sdf|6198|dock7
  -GOLD-   22720 6363D 1   1.00000     0.00000
 Structure written by MMmdl.
 33 33  0  0  0  0  0  0  0  0  1 V2000
  146.7327  139.1118  152.2759 C   0  0  0  0  0  0  0  0  0  0  0  0
  146.8876  139.1953  153.6056 C   0  0  0  0  0  0  0  0  0  0  0  0
  147.3852  140.4228  154.3356 C   0  0  0  0  0  0  0  0  0  0  0  0
  148.4073  140.0644  155.2575 O   0  0  0  0  0  0  0  0  0  0  0  0
  149.6750  139.7588  154.6815 C   0  0  2  0  0  0  0  0  0  0  0  0
  149.7442  138.2352  154.5012 C   0  0  0  0  0  0  0  0  0  0  0  0
  150.8118  140.2668  155.5835 C   0  0  0  0  0  0  0  0  0  0  0  0
  151.9807  140.0669  155.2541 O   0  0  0  0  0  0  0  0  0  0  0  0
  150.4194  140.9154  156.6979 N   0  0  0  0  0  0  0  0  0  0  0  0
  151.1977  141.4575  157.7343 C   0  0  0  0  0  0  0  0  0  0  0  0
  151.0108  142.6858  158.2846 C   0  0  0  0  0  0  0  0  0  0  0  0
  151.8599  143.1908  159.3507 C   0  0  0  0  0  0  0  0  0  0  0  0
  151.6762  144.5904  159.9176 C   0  0  0  0  0  0  0  0  0  0  0  0
  152.3172  144.7321  161.0787 F   0  0  0  0  0  0  0  0  0  0  0  0
  152.1356  145.5120  159.0709 F   0  0  0  0  0  0  0  0  0  0  0  0
  150.3820  144.8284  160.1259 F   0  0  0  0  0  0  0  0  0  0  0  0
  152.8643  142.3885  159.7490 C   0  0  0  0  0  0  0  0  0  0  0  0
  153.0637  141.1251  159.1880 N   0  0  0  0  0  0  0  0  0  0  0  0
  152.3017  140.6027  158.2011 C   0  0  0  0  0  0  0  0  0  0  0  0
  152.5490  139.4842  157.7512 O   0  0  0  0  0  0  0  0  0  0  0  0
  153.8345  140.5799  159.5467 H   0  0  0  0  0  0  0  0  0  0  0  0
  146.9629  139.9465  151.6301 H   0  0  0  0  0  0  0  0  0  0  0  0
  146.3725  138.2037  151.8154 H   0  0  0  0  0  0  0  0  0  0  0  0
  146.6473  138.3406  154.2211 H   0  0  0  0  0  0  0  0  0  0  0  0
  147.7649  141.1497  153.6157 H   0  0  0  0  0  0  0  0  0  0  0  0
  146.5373  140.8781  154.8476 H   0  0  0  0  0  0  0  0  0  0  0  0
  149.7447  140.2235  153.6960 H   0  0  0  0  0  0  0  0  0  0  0  0
  150.6998  137.9298  154.0733 H   0  0  0  0  0  0  0  0  0  0  0  0
  148.9580  137.8906  153.8292 H   0  0  0  0  0  0  0  0  0  0  0  0
  149.6180  137.7113  155.4497 H   0  0  0  0  0  0  0  0  0  0  0  0
  149.4260  141.0696  156.7959 H   0  0  0  0  0  0  0  0  0  0  0  0
  150.2273  143.3374  157.9343 H   0  0  0  0  0  0  0  0  0  0  0  0
  153.5855  142.6481  160.5101 H   0  0  0  0  0  0  0  0  0  0  0  0
  1  2  2  0  0  0  0
  1 22  1  0  0  0  0
  1 23  1  0  0  0  0
  2  3  1  0  0  0  0
  2 24  1  0  0  0  0
  3  4  1  0  0  0  0
  3 25  1  0  0  0  0
  3 26  1  0  0  0  0
  4  5  1  0  0  0  0
  5  6  1  0  0  0  0
  5  7  1  0  0  0  0
  5 27  1  0  0  0  0
  6 28  1  0  0  0  0
  6 29  1  0  0  0  0
  6 30  1  0  0  0  0
  7  8  2  0  0  0  0
  7  9  1  0  0  0  0
  9 10  1  0  0  0  0
  9 31  1  0  0  0  0
 10 19  1  0  0  0  0
 10 11  2  0  0  0  0
 11 12  1  0  0  0  0
 11 32  1  0  0  0  0
 12 13  1  0  0  0  0
 12 17  2  0  0  0  0
 13 14  1  0  0  0  0
 13 15  1  0  0  0  0
 13 16  1  0  0  0  0
 17 18  1  0  0  0  0
 17 33  1  0  0  0  0
 18 21  1  0  0  0  0
 18 19  1  0  0  0  0
 19 20  2  0  0  0  0
M  END
> <s_m_source_file>
AV-unprocessed.smi

> <i_m_source_file_index>
1540

> <i_lp_mmshare_version>
43012

> <i_f3d_flags>
0

> <s_epik_input>
W0NIMl09W0NIXVtDSDJdT1tDQEhdKFtDSDNdKUMoPU8pW05IXWMxW2NIXWMoQyhGKShGKUYpW2NIXVtuSF1jMT1P

> <s_epik_cmdline>
J2VwaWtfcHl0aG9uJywgJy1waCcsICc3LjAnLCAnLXRuJywgJzgnLCAnLW1hJywgJzIwMCcsICctbWV0YWxfYmluZGluZycsICctaW1hZScsICc8aW5maWxlLm1hZT4nLCAnLW9tYWUnLCAnPG91dGZpbGUubWFlPic=

> <r_lp_tautomer_probability>
0.999

> <r_epik_Ionization_Penalty>
0.0086731

> <r_epik_Ionization_Penalty_Charging>
0.00867296

> <r_epik_Ionization_Penalty_Neutral>
1.3954e-07

> <r_epik_State_Penalty>
0.00654787

> <r_epik_Charging_Adjusted_Penalty>
0.0152208

> <i_epik_Tot_Q>
0

> <i_epik_Tot_abs_Q>
0

> <r_epik_Metal_State_Penalty>
0.320056

> <b_epik_Metal_Only>
0

> <s_lp_Force_Field>
OPLS_2005

> <r_lp_Energy>
17.7944

> <b_lp_Chiralities_Consistent>
1

> <s_lp_Variant>
AV-unprocessed.smi:1540-1

> <Gold.Version>
5.8.1

> <Gold.Id.Protein>
6NUR|6NUR_protein|mol2

> <Gold.PLP.Fitness>
42.5474

> <Gold.PLP.PLP>
-41.3751

> <Gold.PLP.part.hbond>
-2.0000

> <Gold.PLP.part.metal>
0.0000

> <Gold.PLP.part.buried>
-3.7815

> <Gold.PLP.part.nonpolar>
-35.6359

> <Gold.PLP.part.repulsive>
0.2062

> <Gold.PLP.ligand.clash>
0.0207

> <Gold.PLP.ligand.torsion>
1.6609

> <Gold.PLP.Chemscore.Hbond>
1.4888

> <Gold.PLP.Chemscore.CHOScore>
0.0000

> <Gold.PLP.Chemscore.Metal>
0.0000

> <Gold.Chemscore.Hbonds>
donor molecule, donor type, donor heavy atom, donor atom, acceptor molecule, acceptor atom, score
      P1  H  7989  7998       L1     8  0.45
      P1  H  7997  8010       L1    20  0.44

> <Gold.PLP.Chemscore.Internal.Correction>
0.0484

> <Gold.Rescore>
     Score         DG    S(hbond)    S(metal)    S(lipo)     H(rot)  DE(clash)    DE(int)     intcor
      7.39     -13.08       0.91        0.00      78.55       1.81       0.43       5.26       ----

> <Gold.Chemscore.Fitness>
7.3877

> <Gold.Chemscore.DG>
-13.0792

> <Gold.Chemscore.ZeroCoef>
-5.4800

> <Gold.Chemscore.Hbond>
0.9097

> <Gold.Chemscore.Metal>
0.0000

> <Gold.Chemscore.Lipo>
78.5498

> <Gold.Chemscore.Internal_Hbond>
0.0000

> <Gold.Chemscore.DEClash>
0.4291

> <Gold.Chemscore.DEInternal>
5.2624

> <Gold.Chemscore.Rot>
1.8084

> <Gold.Chemscore.Internal.Correction>
   9.000000E+99

> <Gold.Chemscore.Hbonds>
donor molecule, donor type, donor heavy atom, donor atom, acceptor molecule, acceptor atom, score
      P1  H  7989  7998       L1     8  0.03
      P1  H  7997  8010       L1    20  0.05

> <Gold.Chemscore.Hbond.Weighted>
-3.0384

> <Gold.Chemscore.Metal.Weighted>
-0.0000

> <Gold.Chemscore.Lipo.Weighted>
-9.1903

> <Gold.Chemscore.Internal_Hbond.Weighted>
0.0000

> <Gold.Chemscore.DEClash.Weighted>
0.4291

> <Gold.Chemscore.DEInternal.Weighted>
5.2624

> <Gold.Chemscore.Rot.Weighted>
4.6296

> <Gold.Chemscore.Internal.Correction.Weighted>
   9.000000E+99

> <Gold.Protein.RotatedTorsions>
[ 6907 6896 6895 6894 ] final  -19.61 input  -60.11 | X-H torsion
[ 7974 7965 7964 7962 ] final  105.50 input  175.53 | X-H torsion
[ 8008 7997 7996 7995 ] final   44.42 input   59.86 | X-H torsion
[ 10167 10162 10161 10158 ] final  -87.51 input  -65.29 | X-H torsion
[ 10718 10713 10712 10709 ] final  -78.95 input   66.30 | X-H torsion
[ 10763 10752 10751 10750 ] final  126.71 input  -60.55 | X-H torsion
[ 11005 11000 10999 10996 ] final -171.69 input  -57.11 | X-H torsion

> <Gold.Protein.ActiveResidues>
 VAL166  LYS551  ARG553  GLY616  TRP617  ASP618  TYR619  PRO620  LYS621  CYS622 
 ASP623  PHE694  ASN695  SER759  ASP760  ASP761  ALA762  ILE779  LEU786  VAL792 
 PHE793  MET794  SER795  GLU796  ALA797  LYS798  CYS799  TRP800  GLU811  SER814 

> <Gold.Protein.RotatedAtoms>
  151.2605  135.0652  159.9096 H   0  0  0  0  0  0  0  0  0  0  0  0  # atno 6907 bound_to 6896
  152.5366  134.0236  159.8003 H   0  0  0  0  0  0  0  0  0  0  0  0  # atno 6908 bound_to 6896
  151.0458  133.5617  159.2678 H   0  0  0  0  0  0  0  0  0  0  0  0  # atno 6909 bound_to 6896
  145.3189  139.2518  143.3722 H   0  0  0  0  0  0  0  0  0  0  0  0  # atno 7974 bound_to 7965
  155.3189  140.3395  155.4241 H   0  0  0  0  0  0  0  0  0  0  0  0  # atno 8008 bound_to 7997
  156.1919  140.1700  156.8113 H   0  0  0  0  0  0  0  0  0  0  0  0  # atno 8009 bound_to 7997
  154.5452  140.0717  156.8560 H   0  0  0  0  0  0  0  0  0  0  0  0  # atno 8010 bound_to 7997
  140.3837  143.2736  151.9351 H   0  0  0  0  0  0  0  0  0  0  0  0  # atno 10167 bound_to 10162
  156.0104  130.4532  150.3575 H   0  0  0  0  0  0  0  0  0  0  0  0  # atno 10718 bound_to 10713
  153.6977  135.3288  155.3217 H   0  0  0  0  0  0  0  0  0  0  0  0  # atno 10763 bound_to 10752
  154.8422  135.4447  154.1442 H   0  0  0  0  0  0  0  0  0  0  0  0  # atno 10764 bound_to 10752
  153.2501  135.6980  153.7766 H   0  0  0  0  0  0  0  0  0  0  0  0  # atno 10765 bound_to 10752
  140.5054  134.5853  157.5001 H   0  0  0  0  0  0  0  0  0  0  0  0  # atno 11005 bound_to 11000
  146.3090  140.3742  142.8677 LP  0  0  0  0  0  0  0  0  0  0  0  0  # atno 17320 bound_to 7965
  144.8955  140.7578  143.5899 LP  0  0  0  0  0  0  0  0  0  0  0  0  # atno 17321 bound_to 7965
  139.4793  144.5794  151.7958 LP  0  0  0  0  0  0  0  0  0  0  0  0  # atno 17342 bound_to 10162
  140.4911  144.1309  150.5950 LP  0  0  0  0  0  0  0  0  0  0  0  0  # atno 17343 bound_to 10162
  157.1665  131.0358  151.2816 LP  0  0  0  0  0  0  0  0  0  0  0  0  # atno 17370 bound_to 10713
  157.4266  130.7467  149.6956 LP  0  0  0  0  0  0  0  0  0  0  0  0  # atno 17371 bound_to 10713
  139.9689  134.7326  156.0081 LP  0  0  0  0  0  0  0  0  0  0  0  0  # atno 17394 bound_to 11000
  141.1414  133.6564  156.3740 LP  0  0  0  0  0  0  0  0  0  0  0  0  # atno 17395 bound_to 11000

$$$$
