AV-unprocessed.smi:107|AV-procd|sdf|1025|dock3
  -GOLD-   2262018 23D 1   1.00000     0.00000
 Structure written by MMmdl.
 30 31  0  0  0  0  0  0  0  0  2 V2000
  148.7089  136.3033  156.9302 C   0  0  0  0  0  0  0  0  0  0  0  0
  150.0307  136.9021  156.4815 C   0  0  0  0  0  0  0  0  0  0  0  0
  150.1875  138.2279  156.2704 C   0  0  0  0  0  0  0  0  0  0  0  0
  151.3944  138.7767  155.8633 N   0  0  0  0  0  0  0  0  0  0  0  0
  151.5533  140.2553  155.5422 C   0  0  2  0  0  0  0  0  0  0  0  0
  151.3692  141.1990  156.7365 C   0  0  0  0  0  0  0  0  0  0  0  0
  149.9099  141.5963  156.6083 C   0  0  1  0  0  0  0  0  0  0  0  0
  149.6825  142.8660  157.1852 O   0  0  0  0  0  0  0  0  0  0  0  0
  149.7017  141.6009  155.0905 C   0  0  2  0  0  0  0  0  0  0  0  0
  148.2595  141.2750  154.6728 C   0  0  0  0  0  0  0  0  0  0  0  0
  148.2046  140.9878  153.2916 O   0  0  0  0  0  0  0  0  0  0  0  0
  150.5821  140.5920  154.5963 O   0  0  0  0  0  0  0  0  0  0  0  0
  152.4889  137.9096  155.5949 C   0  0  0  0  0  0  0  0  0  0  0  0
  153.5327  138.4049  155.1690 O   0  0  0  0  0  0  0  0  0  0  0  0
  152.3445  136.5725  155.8189 N   0  5  0  0  0  0  0  0  0  0  0  0
  151.1792  136.0185  156.2574 C   0  0  0  0  0  0  0  0  0  0  0  0
  151.0655  134.8108  156.4649 O   0  0  0  0  0  0  0  0  0  0  0  0
  147.9471  137.0726  157.0583 H   0  0  0  0  0  0  0  0  0  0  0  0
  148.8283  135.7852  157.8822 H   0  0  0  0  0  0  0  0  0  0  0  0
  148.3452  135.5882  156.1918 H   0  0  0  0  0  0  0  0  0  0  0  0
  149.3297  138.8584  156.4318 H   0  0  0  0  0  0  0  0  0  0  0  0
  152.5582  140.3520  155.1284 H   0  0  0  0  0  0  0  0  0  0  0  0
  151.6547  140.7548  157.6899 H   0  0  0  0  0  0  0  0  0  0  0  0
  152.0105  142.0659  156.5690 H   0  0  0  0  0  0  0  0  0  0  0  0
  149.2613  140.8597  157.0812 H   0  0  0  0  0  0  0  0  0  0  0  0
  149.1601  143.3773  156.5862 H   0  0  0  0  0  0  0  0  0  0  0  0
  150.0233  142.5622  154.6847 H   0  0  0  0  0  0  0  0  0  0  0  0
  147.8598  140.4423  155.2523 H   0  0  0  0  0  0  0  0  0  0  0  0
  147.6129  142.1343  154.8518 H   0  0  0  0  0  0  0  0  0  0  0  0
  148.5778  140.1319  153.1478 H   0  0  0  0  0  0  0  0  0  0  0  0
  1  2  1  0  0  0  0
  1 18  1  0  0  0  0
  1 19  1  0  0  0  0
  1 20  1  0  0  0  0
  2 16  1  0  0  0  0
  2  3  2  0  0  0  0
  3  4  1  0  0  0  0
  3 21  1  0  0  0  0
  4  5  1  0  0  0  0
  4 13  1  0  0  0  0
  5 12  1  0  0  0  0
  5  6  1  0  0  0  0
  5 22  1  0  0  0  0
  6  7  1  0  0  0  0
  6 23  1  0  0  0  0
  6 24  1  0  0  0  0
  7  8  1  0  0  0  0
  7  9  1  0  0  0  0
  7 25  1  0  0  0  0
  8 26  1  0  0  0  0
  9 10  1  0  0  0  0
  9 12  1  0  0  0  0
  9 27  1  0  0  0  0
 10 11  1  0  0  0  0
 10 28  1  0  0  0  0
 10 29  1  0  0  0  0
 11 30  1  0  0  0  0
 13 14  2  0  0  0  0
 13 15  1  0  0  0  0
 15 16  1  0  0  0  0
 16 17  2  0  0  0  0
M  CHG  1  15  -1
M  END
> <s_m_source_file>
AV-unprocessed.smi

> <i_m_source_file_index>
107

> <i_lp_mmshare_version>
43012

> <i_f3d_flags>
0

> <s_epik_input>
Tz1jMVtuSF1jKD1PKW4oW2NIXWMxW0NIM10pW0NAQEhdMltDSDJdW0NAQEhdKFtPSF0pW0NASF0oTzIpW0NIMl1bT0hd

> <s_epik_cmdline>
J2VwaWtfcHl0aG9uJywgJy1waCcsICc3LjAnLCAnLXRuJywgJzgnLCAnLW1hJywgJzIwMCcsICctbWV0YWxfYmluZGluZycsICctaW1hZScsICc8aW5maWxlLm1hZT4nLCAnLW9tYWUnLCAnPG91dGZpbGUubWFlPic=

> <r_lp_tautomer_probability>
0.999537

> <r_epik_Ionization_Penalty>
3.66603

> <r_epik_Ionization_Penalty_Charging>
1.09773e-07

> <r_epik_Ionization_Penalty_Neutral>
3.66603

> <r_epik_State_Penalty>
3.66562

> <r_epik_Charging_Adjusted_Penalty>
3.66562

> <i_epik_Tot_Q>
-1

> <i_epik_Tot_abs_Q>
1

> <r_epik_Metal_State_Penalty>
0.234536

> <b_epik_Metal_Only>
1

> <s_epik_Chemistry_Notes>
This compound contains an acetal/aminal-like group ( X-CH(R)-Y where X, Y are N, S, or O) that may be acid/base labile, releasing an aldehyde.

> <s_lp_Force_Field>
OPLS_2005

> <r_lp_Energy>
34.2807

> <b_lp_Chiralities_Consistent>
1

> <s_lp_Variant>
AV-unprocessed.smi:107-13

> <Gold.Version>
5.8.1

> <Gold.Id.Protein>
6NUR|6NUR_protein|mol2

> <Gold.PLP.Fitness>
40.8171

> <Gold.PLP.PLP>
-23.1990

> <Gold.PLP.part.hbond>
-5.8571

> <Gold.PLP.part.metal>
0.0000

> <Gold.PLP.part.buried>
-1.5498

> <Gold.PLP.part.nonpolar>
-15.1584

> <Gold.PLP.part.repulsive>
0.1072

> <Gold.PLP.ligand.clash>
0.0000

> <Gold.PLP.ligand.torsion>
0.1090

> <Gold.PLP.Chemscore.Hbond>
5.9280

> <Gold.PLP.Chemscore.CHOScore>
0.0000

> <Gold.PLP.Chemscore.Metal>
0.0000

> <Gold.Chemscore.Hbonds>
donor molecule, donor type, donor heavy atom, donor atom, acceptor molecule, acceptor atom, score
      L1  H     8    26       P1  8028  1.00
      L1  H    11    30       P1  7957  0.10
      P1  H  7989  7998       L1    12  0.68
      P1  H  7997  8009       L1    14  0.49
      P1  H  8011  8017       L1    11  0.22
      P1  H 10752 10765       L1    15  2.00

> <Gold.PLP.Chemscore.Internal.Correction>
0.0520

> <Gold.Rescore>
     Score         DG    S(hbond)    S(metal)    S(lipo)     H(rot)  DE(clash)    DE(int)     intcor
     16.19     -16.60       4.25        0.00      32.60       2.69       0.25       0.16       ----

> <Gold.Chemscore.Fitness>
16.1930

> <Gold.Chemscore.DG>
-16.6044

> <Gold.Chemscore.ZeroCoef>
-5.4800

> <Gold.Chemscore.Hbond>
4.2484

> <Gold.Chemscore.Metal>
0.0000

> <Gold.Chemscore.Lipo>
32.5971

> <Gold.Chemscore.Internal_Hbond>
0.0000

> <Gold.Chemscore.DEClash>
0.2504

> <Gold.Chemscore.DEInternal>
0.1610

> <Gold.Chemscore.Rot>
2.6871

> <Gold.Chemscore.Internal.Correction>
   9.000000E+99

> <Gold.Chemscore.Hbonds>
donor molecule, donor type, donor heavy atom, donor atom, acceptor molecule, acceptor atom, score
      L1  H     8    26       P1  8028  0.94
      L1  H    11    30       P1  7957  0.10
      P1  H  7989  7998       L1    12  0.06
      P1  H  7997  8009       L1    14  0.48
      P1  H  8011  8017       L1    11  0.04
      P1  H 10752 10765       L1    15  0.64

> <Gold.Chemscore.Hbond.Weighted>
-14.1896

> <Gold.Chemscore.Metal.Weighted>
-0.0000

> <Gold.Chemscore.Lipo.Weighted>
-3.8139

> <Gold.Chemscore.Internal_Hbond.Weighted>
0.0000

> <Gold.Chemscore.DEClash.Weighted>
0.2504

> <Gold.Chemscore.DEInternal.Weighted>
0.1610

> <Gold.Chemscore.Rot.Weighted>
6.8791

> <Gold.Chemscore.Internal.Correction.Weighted>
   9.000000E+99

> <Gold.Protein.RotatedTorsions>
[ 6907 6896 6895 6894 ] final -169.50 input  -60.11 | X-H torsion
[ 7974 7965 7964 7962 ] final  178.09 input  175.53 | X-H torsion
[ 8008 7997 7996 7995 ] final -155.44 input   59.86 | X-H torsion
[ 10167 10162 10161 10158 ] final  -98.31 input  -65.29 | X-H torsion
[ 10718 10713 10712 10709 ] final  157.79 input   66.30 | X-H torsion
[ 10763 10752 10751 10750 ] final -156.29 input  -60.55 | X-H torsion
[ 11005 11000 10999 10996 ] final  -48.96 input  -57.11 | X-H torsion

> <Gold.Protein.ActiveResidues>
 VAL166  LYS551  ARG553  GLY616  TRP617  ASP618  TYR619  PRO620  LYS621  CYS622 
 ASP623  PHE694  ASN695  SER759  ASP760  ASP761  ALA762  ILE779  LEU786  VAL792 
 PHE793  MET794  SER795  GLU796  ALA797  LYS798  CYS799  TRP800  GLU811  SER814 

> <Gold.Protein.RotatedAtoms>
  151.4926  133.3521  159.2855 H   0  0  0  0  0  0  0  0  0  0  0  0  # atno 6907 bound_to 6896
  150.8825  134.8220  159.7246 H   0  0  0  0  0  0  0  0  0  0  0  0  # atno 6908 bound_to 6896
  152.4772  134.4825  159.9722 H   0  0  0  0  0  0  0  0  0  0  0  0  # atno 6909 bound_to 6896
  144.7160  140.0345  143.6438 H   0  0  0  0  0  0  0  0  0  0  0  0  # atno 7974 bound_to 7965
  155.7019  140.0768  157.2406 H   0  0  0  0  0  0  0  0  0  0  0  0  # atno 8008 bound_to 7997
  154.4071  140.1646  156.2254 H   0  0  0  0  0  0  0  0  0  0  0  0  # atno 8009 bound_to 7997
  155.9360  140.3388  155.6291 H   0  0  0  0  0  0  0  0  0  0  0  0  # atno 8010 bound_to 7997
  140.2743  143.3323  152.0504 H   0  0  0  0  0  0  0  0  0  0  0  0  # atno 10167 bound_to 10162
  157.1867  131.0645  151.2102 H   0  0  0  0  0  0  0  0  0  0  0  0  # atno 10718 bound_to 10713
  154.7723  135.3149  154.8163 H   0  0  0  0  0  0  0  0  0  0  0  0  # atno 10763 bound_to 10752
  153.8895  135.6827  153.4766 H   0  0  0  0  0  0  0  0  0  0  0  0  # atno 10764 bound_to 10752
  153.1340  135.4768  154.9328 H   0  0  0  0  0  0  0  0  0  0  0  0  # atno 10765 bound_to 10752
  141.0731  133.6673  156.3516 H   0  0  0  0  0  0  0  0  0  0  0  0  # atno 11005 bound_to 11000
  146.0075  139.3142  143.0890 LP  0  0  0  0  0  0  0  0  0  0  0  0  # atno 17320 bound_to 7965
  145.8721  140.9414  143.0645 LP  0  0  0  0  0  0  0  0  0  0  0  0  # atno 17321 bound_to 7965
  139.4980  144.6635  151.6410 LP  0  0  0  0  0  0  0  0  0  0  0  0  # atno 17342 bound_to 10162
  140.5864  143.9857  150.6298 LP  0  0  0  0  0  0  0  0  0  0  0  0  # atno 17343 bound_to 10162
  157.3900  130.7277  149.6690 LP  0  0  0  0  0  0  0  0  0  0  0  0  # atno 17370 bound_to 10713
  155.9717  130.4149  150.4155 LP  0  0  0  0  0  0  0  0  0  0  0  0  # atno 17371 bound_to 10713
  140.5631  134.5915  157.5438 LP  0  0  0  0  0  0  0  0  0  0  0  0  # atno 17394 bound_to 11000
  139.9544  134.7561  156.0375 LP  0  0  0  0  0  0  0  0  0  0  0  0  # atno 17395 bound_to 11000

$$$$
