AV-unprocessed.smi:1748|AV-procd|sdf|7037|dock2
  -GOLD-   22720 8253D 1   1.00000     0.00000
 Structure written by MMmdl.
 40 41  0  0  0  0  0  0  0  0  2 V2000
  151.6916  137.6448  154.4450 C   0  0  0  0  0  0  0  0  0  0  0  0
  150.2190  137.5570  154.3481 N   0  3  2  0  0  0  0  0  0  0  0  0
  149.5713  138.8927  154.3320 C   0  0  0  0  0  0  0  0  0  0  0  0
  148.0553  138.7708  154.1001 C   0  0  0  0  0  0  0  0  0  0  0  0
  147.4049  137.8333  155.1320 C   0  0  0  0  0  0  0  0  0  0  0  0
  148.1191  136.4697  155.1675 C   0  0  1  0  0  0  0  0  0  0  0  0
  147.8441  135.7320  153.9341 N   0  0  0  0  0  0  0  0  0  0  0  0
  147.2284  134.5434  153.8611 C   0  0  0  0  0  0  0  0  0  0  0  0
  146.8440  133.9237  154.8521 O   0  0  0  0  0  0  0  0  0  0  0  0
  147.1191  134.1380  152.5827 N   0  0  0  0  0  0  0  0  0  0  0  0
  146.5322  132.9716  152.0628 C   0  0  0  0  0  0  0  0  0  0  0  0
  146.8173  131.7066  152.4691 C   0  0  0  0  0  0  0  0  0  0  0  0
  146.1594  130.5449  151.8945 C   0  0  0  0  0  0  0  0  0  0  0  0
  146.5462  129.1312  152.3006 C   0  0  0  0  0  0  0  0  0  0  0  0
  145.4825  128.4926  152.7857 F   0  0  0  0  0  0  0  0  0  0  0  0
  147.0098  128.4367  151.2605 F   0  0  0  0  0  0  0  0  0  0  0  0
  147.4863  129.1474  153.2453 F   0  0  0  0  0  0  0  0  0  0  0  0
  145.2534  130.7847  150.9287 C   0  0  0  0  0  0  0  0  0  0  0  0
  144.9393  132.0827  150.5201 N   0  0  0  0  0  0  0  0  0  0  0  0
  145.5166  133.1976  151.0210 C   0  0  0  0  0  0  0  0  0  0  0  0
  145.1878  134.3084  150.6054 O   0  0  0  0  0  0  0  0  0  0  0  0
  149.6346  136.6747  155.3894 C   0  0  0  0  0  0  0  0  0  0  0  0
  144.2369  132.1799  149.8010 H   0  0  0  0  0  0  0  0  0  0  0  0
  151.9953  138.1014  155.3879 H   0  0  0  0  0  0  0  0  0  0  0  0
  152.0963  138.2431  153.6282 H   0  0  0  0  0  0  0  0  0  0  0  0
  152.1411  136.6531  154.3839 H   0  0  0  0  0  0  0  0  0  0  0  0
  149.7662  139.4044  155.2759 H   0  0  0  0  0  0  0  0  0  0  0  0
  150.0118  139.5040  153.5431 H   0  0  0  0  0  0  0  0  0  0  0  0
  147.5914  139.7563  154.1504 H   0  0  0  0  0  0  0  0  0  0  0  0
  147.8695  138.3979  153.0920 H   0  0  0  0  0  0  0  0  0  0  0  0
  147.4587  138.2940  156.1193 H   0  0  0  0  0  0  0  0  0  0  0  0
  146.3442  137.7055  154.9123 H   0  0  0  0  0  0  0  0  0  0  0  0
  147.7137  135.8946  156.0022 H   0  0  0  0  0  0  0  0  0  0  0  0
  148.1227  136.1729  153.0695 H   0  0  0  0  0  0  0  0  0  0  0  0
  147.5389  134.7362  151.8858 H   0  0  0  0  0  0  0  0  0  0  0  0
  147.5322  131.5206  153.2534 H   0  0  0  0  0  0  0  0  0  0  0  0
  144.7116  130.0157  150.3978 H   0  0  0  0  0  0  0  0  0  0  0  0
  150.1500  135.7134  155.3870 H   0  0  0  0  0  0  0  0  0  0  0  0
  149.8099  137.1139  156.3728 H   0  0  0  0  0  0  0  0  0  0  0  0
  150.0160  137.1248  153.4580 H   0  0  0  0  0  0  0  0  0  0  0  0
  1  2  1  0  0  0  0
  1 24  1  0  0  0  0
  1 25  1  0  0  0  0
  1 26  1  0  0  0  0
  2 22  1  0  0  0  0
  2  3  1  0  0  0  0
  2 40  1  0  0  0  0
  3  4  1  0  0  0  0
  3 27  1  0  0  0  0
  3 28  1  0  0  0  0
  4  5  1  0  0  0  0
  4 29  1  0  0  0  0
  4 30  1  0  0  0  0
  5  6  1  0  0  0  0
  5 31  1  0  0  0  0
  5 32  1  0  0  0  0
  6  7  1  0  0  0  0
  6 22  1  0  0  0  0
  6 33  1  0  0  0  0
  7  8  1  0  0  0  0
  7 34  1  0  0  0  0
  8  9  2  0  0  0  0
  8 10  1  0  0  0  0
 10 11  1  0  0  0  0
 10 35  1  0  0  0  0
 11 20  1  0  0  0  0
 11 12  2  0  0  0  0
 12 13  1  0  0  0  0
 12 36  1  0  0  0  0
 13 14  1  0  0  0  0
 13 18  2  0  0  0  0
 14 15  1  0  0  0  0
 14 16  1  0  0  0  0
 14 17  1  0  0  0  0
 18 19  1  0  0  0  0
 18 37  1  0  0  0  0
 19 23  1  0  0  0  0
 19 20  1  0  0  0  0
 20 21  2  0  0  0  0
 22 38  1  0  0  0  0
 22 39  1  0  0  0  0
M  CHG  1   2   1
M  END
> <s_m_source_file>
AV-unprocessed.smi

> <i_m_source_file_index>
1748

> <i_lp_mmshare_version>
43012

> <i_f3d_flags>
0

> <s_epik_input>
W0NIM11OMVtDSDJdW0NIMl1bQ0gyXVtDQEhdKFtDSDJdMSlbTkhdQyg9TylbTkhdYzJbY0hdYyhDKEYpKEYpRilbY0hdW25IXWMyPU8=

> <s_epik_cmdline>
J2VwaWtfcHl0aG9uJywgJy1waCcsICc3LjAnLCAnLXRuJywgJzgnLCAnLW1hJywgJzIwMCcsICctbWV0YWxfYmluZGluZycsICctaW1hZScsICc8aW5maWxlLm1hZT4nLCAnLW9tYWUnLCAnPG91dGZpbGUubWFlPic=

> <r_lp_tautomer_probability>
1

> <r_epik_Ionization_Penalty>
0.00746315

> <r_epik_Ionization_Penalty_Charging>
0.00744398

> <r_epik_Ionization_Penalty_Neutral>
1.91704e-05

> <r_epik_State_Penalty>
-0

> <r_epik_Charging_Adjusted_Penalty>
0.00744398

> <i_epik_Tot_Q>
1

> <i_epik_Tot_abs_Q>
1

> <r_epik_Metal_State_Penalty>
0.379332

> <b_epik_Metal_Only>
0

> <s_lp_Force_Field>
OPLS_2005

> <r_lp_Energy>
33.6429

> <b_lp_Chiralities_Consistent>
1

> <s_lp_Variant>
AV-unprocessed.smi:1748-2

> <Gold.Version>
5.8.1

> <Gold.Id.Protein>
6NUR|6NUR_protein|mol2

> <Gold.PLP.Fitness>
42.0674

> <Gold.PLP.PLP>
-32.2206

> <Gold.PLP.part.hbond>
-2.6608

> <Gold.PLP.part.metal>
0.0000

> <Gold.PLP.part.buried>
-3.0777

> <Gold.PLP.part.nonpolar>
-26.5324

> <Gold.PLP.part.repulsive>
0.3464

> <Gold.PLP.ligand.clash>
0.0000

> <Gold.PLP.ligand.torsion>
0.4960

> <Gold.PLP.Chemscore.Hbond>
3.6023

> <Gold.PLP.Chemscore.CHOScore>
0.0000

> <Gold.PLP.Chemscore.Metal>
0.0000

> <Gold.Chemscore.Hbonds>
donor molecule, donor type, donor heavy atom, donor atom, acceptor molecule, acceptor atom, score
      L1  H     2    40       P1  7948  1.79
      L1  H     7    34       P1  7948  0.83
      L1  H    10    35       P1  7948  0.75

> <Gold.PLP.Chemscore.Internal.Correction>
0.0319

> <Gold.Rescore>
     Score         DG    S(hbond)    S(metal)    S(lipo)     H(rot)  DE(clash)    DE(int)     intcor
     16.54     -17.35       2.07        0.00      64.24       1.00       0.26       0.55       ----

> <Gold.Chemscore.Fitness>
16.5436

> <Gold.Chemscore.DG>
-17.3514

> <Gold.Chemscore.ZeroCoef>
-5.4800

> <Gold.Chemscore.Hbond>
2.0704

> <Gold.Chemscore.Metal>
0.0000

> <Gold.Chemscore.Lipo>
64.2416

> <Gold.Chemscore.Internal_Hbond>
0.0000

> <Gold.Chemscore.DEClash>
0.2572

> <Gold.Chemscore.DEInternal>
0.5506

> <Gold.Chemscore.Rot>
1.0000

> <Gold.Chemscore.Internal.Correction>
   9.000000E+99

> <Gold.Chemscore.Hbonds>
donor molecule, donor type, donor heavy atom, donor atom, acceptor molecule, acceptor atom, score
      L1  H     2    40       P1  7948  0.26
      L1  H     7    34       P1  7948  0.78
      L1  H    10    35       P1  7948  0.47

> <Gold.Chemscore.Hbond.Weighted>
-6.9152

> <Gold.Chemscore.Metal.Weighted>
-0.0000

> <Gold.Chemscore.Lipo.Weighted>
-7.5163

> <Gold.Chemscore.Internal_Hbond.Weighted>
0.0000

> <Gold.Chemscore.DEClash.Weighted>
0.2572

> <Gold.Chemscore.DEInternal.Weighted>
0.5506

> <Gold.Chemscore.Rot.Weighted>
2.5600

> <Gold.Chemscore.Internal.Correction.Weighted>
   9.000000E+99

> <Gold.Protein.RotatedTorsions>
[ 6907 6896 6895 6894 ] final -176.49 input  -60.11 | X-H torsion
[ 7974 7965 7964 7962 ] final -152.14 input  175.53 | X-H torsion
[ 8008 7997 7996 7995 ] final  -64.38 input   59.86 | X-H torsion
[ 10167 10162 10161 10158 ] final -151.38 input  -65.29 | X-H torsion
[ 10718 10713 10712 10709 ] final  -65.39 input   66.30 | X-H torsion
[ 10763 10752 10751 10750 ] final  -73.95 input  -60.55 | X-H torsion
[ 11005 11000 10999 10996 ] final  -47.34 input  -57.11 | X-H torsion

> <Gold.Protein.ActiveResidues>
 VAL166  LYS551  ARG553  GLY616  TRP617  ASP618  TYR619  PRO620  LYS621  CYS622 
 ASP623  PHE694  ASN695  SER759  ASP760  ASP761  ALA762  ILE779  LEU786  VAL792 
 PHE793  MET794  SER795  GLU796  ALA797  LYS798  CYS799  TRP800  GLU811  SER814 

> <Gold.Protein.RotatedAtoms>
  151.6056  133.3352  159.3056 H   0  0  0  0  0  0  0  0  0  0  0  0  # atno 6907 bound_to 6896
  150.8184  134.7382  159.6762 H   0  0  0  0  0  0  0  0  0  0  0  0  # atno 6908 bound_to 6896
  152.4279  134.5839  160.0007 H   0  0  0  0  0  0  0  0  0  0  0  0  # atno 6909 bound_to 6896
  144.7810  140.4702  143.5839 H   0  0  0  0  0  0  0  0  0  0  0  0  # atno 7974 bound_to 7965
  154.4608  140.0955  156.6888 H   0  0  0  0  0  0  0  0  0  0  0  0  # atno 8008 bound_to 7997
  155.4999  140.3473  155.4351 H   0  0  0  0  0  0  0  0  0  0  0  0  # atno 8009 bound_to 7997
  156.0867  140.1387  156.9633 H   0  0  0  0  0  0  0  0  0  0  0  0  # atno 8010 bound_to 7997
  139.7272  143.8865  152.2523 H   0  0  0  0  0  0  0  0  0  0  0  0  # atno 10167 bound_to 10162
  156.0672  130.4246  150.1557 H   0  0  0  0  0  0  0  0  0  0  0  0  # atno 10718 bound_to 10713
  154.4665  135.5880  153.6292 H   0  0  0  0  0  0  0  0  0  0  0  0  # atno 10763 bound_to 10752
  152.9829  135.6056  154.3421 H   0  0  0  0  0  0  0  0  0  0  0  0  # atno 10764 bound_to 10752
  154.3298  135.2842  155.2456 H   0  0  0  0  0  0  0  0  0  0  0  0  # atno 10765 bound_to 10752
  141.0634  133.6701  156.3283 H   0  0  0  0  0  0  0  0  0  0  0  0  # atno 11005 bound_to 11000
  145.6050  139.1507  143.3108 LP  0  0  0  0  0  0  0  0  0  0  0  0  # atno 17320 bound_to 7965
  146.2018  140.6169  142.9099 LP  0  0  0  0  0  0  0  0  0  0  0  0  # atno 17321 bound_to 7965
  139.8777  144.7034  150.8913 LP  0  0  0  0  0  0  0  0  0  0  0  0  # atno 17342 bound_to 10162
  140.7765  143.3686  151.1692 LP  0  0  0  0  0  0  0  0  0  0  0  0  # atno 17343 bound_to 10162
  156.9615  130.9806  151.3478 LP  0  0  0  0  0  0  0  0  0  0  0  0  # atno 17370 bound_to 10713
  157.5722  130.8318  149.8406 LP  0  0  0  0  0  0  0  0  0  0  0  0  # atno 17371 bound_to 10713
  140.5822  134.5735  157.5482 LP  0  0  0  0  0  0  0  0  0  0  0  0  # atno 17394 bound_to 11000
  139.9454  134.7711  156.0575 LP  0  0  0  0  0  0  0  0  0  0  0  0  # atno 17395 bound_to 11000

$$$$
