AV-unprocessed.smi:1380|AV-procd|sdf|5600|dock5
  -GOLD-   22720 5203D 1   1.00000     0.00000
 Structure written by MMmdl.
 33 34  0  0  0  0  0  0  0  0  1 V2000
  151.6706  141.4750  157.2445 O   0  0  0  0  0  0  0  0  0  0  0  0
  150.9557  142.3806  156.8151 C   0  0  0  0  0  0  0  0  0  0  0  0
  151.0070  143.6467  157.2504 N   0  0  0  0  0  0  0  0  0  0  0  0
  151.8794  144.1268  158.3177 C   0  0  0  0  0  0  0  0  0  0  0  0
  151.3953  143.7013  159.7179 C   0  0  0  0  0  0  0  0  0  0  0  0
  152.3980  142.8406  160.4670 C   0  0  0  0  0  0  0  0  0  0  0  0
  152.6928  143.0909  161.8227 C   0  0  0  0  0  0  0  0  0  0  0  0
  153.6222  142.2614  162.4791 C   0  0  0  0  0  0  0  0  0  0  0  0
  154.2192  141.2144  161.7490 C   0  0  0  0  0  0  0  0  0  0  0  0
  153.9447  140.9649  160.4504 N   0  0  0  0  0  0  0  0  0  0  0  0
  153.0537  141.7661  159.8279 C   0  0  0  0  0  0  0  0  0  0  0  0
  150.0208  142.2173  155.8695 N   0  0  0  0  0  0  0  0  0  0  0  0
  149.6896  140.9459  155.2405 C   0  0  0  0  0  0  0  0  0  0  0  0
  148.2910  140.8705  154.6577 C   0  0  0  0  0  0  0  0  0  0  0  0
  147.7133  142.0160  153.8584 C   0  0  0  0  0  0  0  0  0  0  0  0
  147.1763  141.7109  155.2353 C   0  0  0  0  0  0  0  0  0  0  0  0
  150.3782  144.3200  156.8376 H   0  0  0  0  0  0  0  0  0  0  0  0
  152.9028  143.7881  158.1496 H   0  0  0  0  0  0  0  0  0  0  0  0
  151.9018  145.2151  158.2562 H   0  0  0  0  0  0  0  0  0  0  0  0
  151.1714  144.5853  160.3167 H   0  0  0  0  0  0  0  0  0  0  0  0
  150.4562  143.1539  159.6304 H   0  0  0  0  0  0  0  0  0  0  0  0
  152.2136  143.9016  162.3516 H   0  0  0  0  0  0  0  0  0  0  0  0
  153.8715  142.4233  163.5173 H   0  0  0  0  0  0  0  0  0  0  0  0
  154.9359  140.5590  162.2214 H   0  0  0  0  0  0  0  0  0  0  0  0
  152.8523  141.5368  158.7916 H   0  0  0  0  0  0  0  0  0  0  0  0
  149.4830  143.0226  155.5838 H   0  0  0  0  0  0  0  0  0  0  0  0
  150.4029  140.7836  154.4325 H   0  0  0  0  0  0  0  0  0  0  0  0
  149.8389  140.1285  155.9482 H   0  0  0  0  0  0  0  0  0  0  0  0
  148.0031  139.8698  154.3407 H   0  0  0  0  0  0  0  0  0  0  0  0
  148.3209  142.9114  153.7428 H   0  0  0  0  0  0  0  0  0  0  0  0
  147.0865  141.7655  153.0051 H   0  0  0  0  0  0  0  0  0  0  0  0
  146.1887  141.2588  155.3011 H   0  0  0  0  0  0  0  0  0  0  0  0
  147.4253  142.4062  156.0345 H   0  0  0  0  0  0  0  0  0  0  0  0
  1  2  2  0  0  0  0
  2  3  1  0  0  0  0
  2 12  1  0  0  0  0
  3  4  1  0  0  0  0
  3 17  1  0  0  0  0
  4  5  1  0  0  0  0
  4 18  1  0  0  0  0
  4 19  1  0  0  0  0
  5  6  1  0  0  0  0
  5 20  1  0  0  0  0
  5 21  1  0  0  0  0
  6 11  1  0  0  0  0
  6  7  2  0  0  0  0
  7  8  1  0  0  0  0
  7 22  1  0  0  0  0
  8  9  2  0  0  0  0
  8 23  1  0  0  0  0
  9 10  1  0  0  0  0
  9 24  1  0  0  0  0
 10 11  2  0  0  0  0
 11 25  1  0  0  0  0
 12 13  1  0  0  0  0
 12 26  1  0  0  0  0
 13 14  1  0  0  0  0
 13 27  1  0  0  0  0
 13 28  1  0  0  0  0
 14 16  1  0  0  0  0
 14 15  1  0  0  0  0
 14 29  1  0  0  0  0
 15 16  1  0  0  0  0
 15 30  1  0  0  0  0
 15 31  1  0  0  0  0
 16 32  1  0  0  0  0
 16 33  1  0  0  0  0
M  END
> <s_m_source_file>
AV-unprocessed.smi

> <i_m_source_file_index>
1380

> <i_lp_mmshare_version>
43012

> <i_f3d_flags>
0

> <s_epik_input>
W0NIMl0xW0NIMl1bQ0hdMVtDSDJdW05IXUMoPU8pW05IXVtDSDJdW0NIMl1jMltjSF1bY0hdW2NIXW5bY0hdMg==

> <s_epik_cmdline>
J2VwaWtfcHl0aG9uJywgJy1waCcsICc3LjAnLCAnLXRuJywgJzgnLCAnLW1hJywgJzIwMCcsICctbWV0YWxfYmluZGluZycsICctaW1hZScsICc8aW5maWxlLm1hZT4nLCAnLW9tYWUnLCAnPG91dGZpbGUubWFlPic=

> <r_epik_Ionization_Penalty>
0.0144004

> <r_epik_Ionization_Penalty_Charging>
0

> <r_epik_Ionization_Penalty_Neutral>
0.0144004

> <r_epik_State_Penalty>
0.0112076

> <r_epik_Charging_Adjusted_Penalty>
0.0112076

> <i_epik_Tot_Q>
0

> <i_epik_Tot_abs_Q>
0

> <r_epik_Metal_State_Penalty>
0.0109423

> <b_epik_Metal_Only>
0

> <s_lp_Force_Field>
OPLS_2005

> <r_lp_Energy>
8.98924

> <b_lp_Chiralities_Consistent>
1

> <s_lp_Variant>
AV-unprocessed.smi:1380-1

> <Gold.Version>
5.8.1

> <Gold.Id.Protein>
6NUR|6NUR_protein|mol2

> <Gold.PLP.Fitness>
45.6612

> <Gold.PLP.PLP>
-41.2696

> <Gold.PLP.part.hbond>
-2.0000

> <Gold.PLP.part.metal>
0.0000

> <Gold.PLP.part.buried>
-4.2125

> <Gold.PLP.part.nonpolar>
-34.4912

> <Gold.PLP.part.repulsive>
0.1572

> <Gold.PLP.ligand.clash>
0.0000

> <Gold.PLP.ligand.torsion>
1.0934

> <Gold.PLP.Chemscore.Hbond>
2.0000

> <Gold.PLP.Chemscore.CHOScore>
0.0000

> <Gold.PLP.Chemscore.Metal>
0.0000

> <Gold.Chemscore.Hbonds>
donor molecule, donor type, donor heavy atom, donor atom, acceptor molecule, acceptor atom, score
      L1  H     3    17       P1  8028  1.00
      L1  H    12    26       P1  8028  1.00

> <Gold.PLP.Chemscore.Internal.Correction>
0.5784

> <Gold.Rescore>
     Score         DG    S(hbond)    S(metal)    S(lipo)     H(rot)  DE(clash)    DE(int)     intcor
     18.58     -19.73       1.93        0.00     103.85       1.70       0.14       1.02       ----

> <Gold.Chemscore.Fitness>
18.5814

> <Gold.Chemscore.DG>
-19.7328

> <Gold.Chemscore.ZeroCoef>
-5.4800

> <Gold.Chemscore.Hbond>
1.9329

> <Gold.Chemscore.Metal>
0.0000

> <Gold.Chemscore.Lipo>
103.8501

> <Gold.Chemscore.Internal_Hbond>
0.0000

> <Gold.Chemscore.DEClash>
0.1363

> <Gold.Chemscore.DEInternal>
1.0151

> <Gold.Chemscore.Rot>
1.7006

> <Gold.Chemscore.Internal.Correction>
   9.000000E+99

> <Gold.Chemscore.Hbonds>
donor molecule, donor type, donor heavy atom, donor atom, acceptor molecule, acceptor atom, score
      L1  H     3    17       P1  8028  0.91
      L1  H    12    26       P1  8028  0.99

> <Gold.Chemscore.Hbond.Weighted>
-6.4558

> <Gold.Chemscore.Metal.Weighted>
-0.0000

> <Gold.Chemscore.Lipo.Weighted>
-12.1505

> <Gold.Chemscore.Internal_Hbond.Weighted>
0.0000

> <Gold.Chemscore.DEClash.Weighted>
0.1363

> <Gold.Chemscore.DEInternal.Weighted>
1.0151

> <Gold.Chemscore.Rot.Weighted>
4.3534

> <Gold.Chemscore.Internal.Correction.Weighted>
   9.000000E+99

> <Gold.Protein.RotatedTorsions>
[ 6907 6896 6895 6894 ] final -130.78 input  -60.11 | X-H torsion
[ 7974 7965 7964 7962 ] final   -1.23 input  175.53 | X-H torsion
[ 8008 7997 7996 7995 ] final   45.41 input   59.86 | X-H torsion
[ 10167 10162 10161 10158 ] final    2.77 input  -65.29 | X-H torsion
[ 10718 10713 10712 10709 ] final  -65.96 input   66.30 | X-H torsion
[ 10763 10752 10751 10750 ] final  -30.57 input  -60.55 | X-H torsion
[ 11005 11000 10999 10996 ] final  -94.79 input  -57.11 | X-H torsion

> <Gold.Protein.ActiveResidues>
 VAL166  LYS551  ARG553  GLY616  TRP617  ASP618  TYR619  PRO620  LYS621  CYS622 
 ASP623  PHE694  ASN695  SER759  ASP760  ASP761  ALA762  ILE779  LEU786  VAL792 
 PHE793  MET794  SER795  GLU796  ALA797  LYS798  CYS799  TRP800  GLU811  SER814 

> <Gold.Protein.RotatedAtoms>
  150.9436  133.6629  159.2785 H   0  0  0  0  0  0  0  0  0  0  0  0  # atno 6907 bound_to 6896
  151.4009  135.0969  159.9565 H   0  0  0  0  0  0  0  0  0  0  0  0  # atno 6908 bound_to 6896
  152.5080  133.8930  159.7458 H   0  0  0  0  0  0  0  0  0  0  0  0  # atno 6909 bound_to 6896
  146.2419  140.1388  142.8336 H   0  0  0  0  0  0  0  0  0  0  0  0  # atno 7974 bound_to 7965
  155.3354  140.3405  155.4239 H   0  0  0  0  0  0  0  0  0  0  0  0  # atno 8008 bound_to 7997
  156.1840  140.1674  156.8256 H   0  0  0  0  0  0  0  0  0  0  0  0  # atno 8009 bound_to 7997
  154.5366  140.0734  156.8420 H   0  0  0  0  0  0  0  0  0  0  0  0  # atno 8010 bound_to 7997
  140.6619  143.7282  150.7754 H   0  0  0  0  0  0  0  0  0  0  0  0  # atno 10167 bound_to 10162
  156.0639  130.4255  150.1640 H   0  0  0  0  0  0  0  0  0  0  0  0  # atno 10718 bound_to 10713
  153.7832  135.6903  153.4884 H   0  0  0  0  0  0  0  0  0  0  0  0  # atno 10763 bound_to 10752
  153.1798  135.4511  155.0011 H   0  0  0  0  0  0  0  0  0  0  0  0  # atno 10764 bound_to 10752
  154.8073  135.3362  154.7333 H   0  0  0  0  0  0  0  0  0  0  0  0  # atno 10765 bound_to 10752
  141.1460  133.7980  157.0346 H   0  0  0  0  0  0  0  0  0  0  0  0  # atno 11005 bound_to 11000
  145.0264  140.8835  143.5136 LP  0  0  0  0  0  0  0  0  0  0  0  0  # atno 17320 bound_to 7965
  145.1445  139.2552  143.5473 LP  0  0  0  0  0  0  0  0  0  0  0  0  # atno 17321 bound_to 7965
  140.0953  143.4839  152.2456 LP  0  0  0  0  0  0  0  0  0  0  0  0  # atno 17342 bound_to 10162
  139.5855  144.7529  151.3531 LP  0  0  0  0  0  0  0  0  0  0  0  0  # atno 17343 bound_to 10162
  156.9704  130.9833  151.3460 LP  0  0  0  0  0  0  0  0  0  0  0  0  # atno 17370 bound_to 10713
  157.5667  130.8283  149.8337 LP  0  0  0  0  0  0  0  0  0  0  0  0  # atno 17371 bound_to 10713
  140.0732  134.9690  157.1501 LP  0  0  0  0  0  0  0  0  0  0  0  0  # atno 17394 bound_to 11000
  140.3681  134.2420  155.7180 LP  0  0  0  0  0  0  0  0  0  0  0  0  # atno 17395 bound_to 11000

$$$$
