AV-unprocessed.smi:2923|AV-procd|sdf|11207|dock6
  -GOLD-   2272016103D 1   1.00000     0.00000
 Structure written by MMmdl.
 47 49  0  0  0  0  0  0  0  0  2 V2000
  144.5800  131.5302  151.1529 C   0  0  0  0  0  0  0  0  0  0  0  0
  144.2539  132.7587  150.4371 N   0  0  0  0  0  0  0  0  0  0  0  0
  143.7413  132.7012  149.0745 C   0  0  0  0  0  0  0  0  0  0  0  0
  144.5337  134.0096  151.0288 C   0  0  0  0  0  0  0  0  0  0  0  0
  145.6223  134.2257  151.9083 C   0  0  0  0  0  0  0  0  0  0  0  0
  145.8341  135.5054  152.4607 C   0  0  0  0  0  0  0  0  0  0  0  0
  144.9633  136.5667  152.1364 C   0  0  0  0  0  0  0  0  0  0  0  0
  145.2264  137.8322  152.7306 N   0  0  0  0  0  0  0  0  0  0  0  0
  146.2195  138.1950  153.5612 C   0  0  0  0  0  0  0  0  0  0  0  0
  147.1071  137.4557  153.9843 O   0  0  0  0  0  0  0  0  0  0  0  0
  146.1235  139.4902  153.8895 N   0  0  0  0  0  0  0  0  0  0  0  0
  147.0517  140.1866  154.7744 C   0  0  1  0  0  0  0  0  0  0  0  0
  148.4500  140.3392  154.1565 C   0  0  2  0  0  0  0  0  0  0  0  0
  149.6261  139.6393  154.7817 C   0  0  0  0  0  0  0  0  0  0  0  0
  150.2298  140.7220  155.6803 C   0  0  0  0  0  0  0  0  0  0  0  0
  149.1600  141.6359  155.9107 O   0  0  0  0  0  0  0  0  0  0  0  0
  148.4356  141.7639  154.6897 C   0  0  2  0  0  0  0  0  0  0  0  0
  146.8959  141.7288  154.7907 C   0  0  0  0  0  0  0  0  0  0  0  0
  146.1734  142.3823  153.6040 C   0  0  0  0  0  0  0  0  0  0  0  0
  146.2931  142.3322  156.0602 C   0  0  0  0  0  0  0  0  0  0  0  0
  143.8905  136.3006  151.2515 C   0  0  0  0  0  0  0  0  0  0  0  0
  143.7248  135.0595  150.7455 N   0  3  0  0  0  0  0  0  0  0  0  0
  144.0499  131.4879  152.1049 H   0  0  0  0  0  0  0  0  0  0  0  0
  145.6512  131.4746  151.3490 H   0  0  0  0  0  0  0  0  0  0  0  0
  144.2993  130.6486  150.5766 H   0  0  0  0  0  0  0  0  0  0  0  0
  144.4366  133.1778  148.3828 H   0  0  0  0  0  0  0  0  0  0  0  0
  142.7780  133.2070  149.0057 H   0  0  0  0  0  0  0  0  0  0  0  0
  143.5993  131.6713  148.7471 H   0  0  0  0  0  0  0  0  0  0  0  0
  146.3023  133.4292  152.1708 H   0  0  0  0  0  0  0  0  0  0  0  0
  146.6650  135.6663  153.1321 H   0  0  0  0  0  0  0  0  0  0  0  0
  144.5716  138.5619  152.4903 H   0  0  0  0  0  0  0  0  0  0  0  0
  145.3640  140.0319  153.5037 H   0  0  0  0  0  0  0  0  0  0  0  0
  147.1003  139.7652  155.7813 H   0  0  0  0  0  0  0  0  0  0  0  0
  148.4343  140.3203  153.0652 H   0  0  0  0  0  0  0  0  0  0  0  0
  149.3004  138.7824  155.3721 H   0  0  0  0  0  0  0  0  0  0  0  0
  150.3447  139.2838  154.0428 H   0  0  0  0  0  0  0  0  0  0  0  0
  150.6251  140.3224  156.6144 H   0  0  0  0  0  0  0  0  0  0  0  0
  151.0364  141.2437  155.1630 H   0  0  0  0  0  0  0  0  0  0  0  0
  148.8587  142.5006  154.0049 H   0  0  0  0  0  0  0  0  0  0  0  0
  146.3137  143.4636  153.6009 H   0  0  0  0  0  0  0  0  0  0  0  0
  145.0997  142.1934  153.6308 H   0  0  0  0  0  0  0  0  0  0  0  0
  146.5452  142.0104  152.6488 H   0  0  0  0  0  0  0  0  0  0  0  0
  146.4638  143.4079  156.1118 H   0  0  0  0  0  0  0  0  0  0  0  0
  146.7263  141.8933  156.9593 H   0  0  0  0  0  0  0  0  0  0  0  0
  145.2167  142.1647  156.1108 H   0  0  0  0  0  0  0  0  0  0  0  0
  143.1530  137.0159  150.9231 H   0  0  0  0  0  0  0  0  0  0  0  0
  142.9408  134.9041  150.1118 H   0  0  0  0  0  0  0  0  0  0  0  0
  1  2  1  0  0  0  0
  1 23  1  0  0  0  0
  1 24  1  0  0  0  0
  1 25  1  0  0  0  0
  2  3  1  0  0  0  0
  2  4  1  0  0  0  0
  3 26  1  0  0  0  0
  3 27  1  0  0  0  0
  3 28  1  0  0  0  0
  4 22  1  0  0  0  0
  4  5  2  0  0  0  0
  5  6  1  0  0  0  0
  5 29  1  0  0  0  0
  6  7  2  0  0  0  0
  6 30  1  0  0  0  0
  7  8  1  0  0  0  0
  7 21  1  0  0  0  0
  8  9  1  0  0  0  0
  8 31  1  0  0  0  0
  9 10  2  0  0  0  0
  9 11  1  0  0  0  0
 11 12  1  0  0  0  0
 11 32  1  0  0  0  0
 12 18  1  0  0  0  0
 12 13  1  0  0  0  0
 12 33  1  0  0  0  0
 13 17  1  0  0  0  0
 13 14  1  0  0  0  0
 13 34  1  0  0  0  0
 14 15  1  0  0  0  0
 14 35  1  0  0  0  0
 14 36  1  0  0  0  0
 15 16  1  0  0  0  0
 15 37  1  0  0  0  0
 15 38  1  0  0  0  0
 16 17  1  0  0  0  0
 17 18  1  0  0  0  0
 17 39  1  0  0  0  0
 18 19  1  0  0  0  0
 18 20  1  0  0  0  0
 19 40  1  0  0  0  0
 19 41  1  0  0  0  0
 19 42  1  0  0  0  0
 20 43  1  0  0  0  0
 20 44  1  0  0  0  0
 20 45  1  0  0  0  0
 21 22  2  0  0  0  0
 21 46  1  0  0  0  0
 22 47  1  0  0  0  0
M  CHG  1  22   1
M  END
> <s_m_source_file>
AV-unprocessed.smi

> <i_m_source_file_index>
2923

> <i_lp_mmshare_version>
43012

> <i_f3d_flags>
0

> <s_epik_input>
W0NIM11OKFtDSDNdKWMxW2NIXVtjSF1jKFtjSF1uMSlbTkhdQyg9TylbTkhdW0NASF0yQyhbQ0gzXSkoW0NIM10pW0NAQEhdKFtDQEhdMjMpT1tDSDJdW0NIMl0z

> <s_epik_cmdline>
J2VwaWtfcHl0aG9uJywgJy1waCcsICc3LjAnLCAnLXRuJywgJzgnLCAnLW1hJywgJzIwMCcsICctbWV0YWxfYmluZGluZycsICctaW1hZScsICc8aW5maWxlLm1hZT4nLCAnLW9tYWUnLCAnPG91dGZpbGUubWFlPic=

> <r_lp_tautomer_probability>
0.999994

> <r_epik_Ionization_Penalty>
0.252205

> <r_epik_Ionization_Penalty_Charging>
0.252185

> <r_epik_Ionization_Penalty_Neutral>
1.99479e-05

> <r_epik_State_Penalty>
0.243573

> <r_epik_Charging_Adjusted_Penalty>
0.495758

> <i_epik_Tot_Q>
1

> <i_epik_Tot_abs_Q>
1

> <r_epik_Metal_State_Penalty>
0.534372

> <b_epik_Metal_Only>
0

> <s_lp_Force_Field>
OPLS_2005

> <r_lp_Energy>
44.3361

> <b_lp_Chiralities_Consistent>
1

> <s_lp_Variant>
AV-unprocessed.smi:2923-6

> <Gold.Version>
5.8.1

> <Gold.Id.Protein>
6NUR|6NUR_protein|mol2

> <Gold.PLP.Fitness>
45.1446

> <Gold.PLP.PLP>
-34.6400

> <Gold.PLP.part.hbond>
-3.0692

> <Gold.PLP.part.metal>
0.0000

> <Gold.PLP.part.buried>
-0.5234

> <Gold.PLP.part.nonpolar>
-32.9301

> <Gold.PLP.part.repulsive>
1.5163

> <Gold.PLP.ligand.clash>
0.0000

> <Gold.PLP.ligand.torsion>
0.5558

> <Gold.PLP.Chemscore.Hbond>
3.8113

> <Gold.PLP.Chemscore.CHOScore>
0.0000

> <Gold.PLP.Chemscore.Metal>
0.0000

> <Gold.Chemscore.Hbonds>
donor molecule, donor type, donor heavy atom, donor atom, acceptor molecule, acceptor atom, score
      L1  H     8    31       P1 10175  0.86
      L1  H    11    32       P1 10175  1.00
      L1  H    22    47       P1 10186  1.89

> <Gold.PLP.Chemscore.Internal.Correction>
0.1824

> <Gold.Rescore>
     Score         DG    S(hbond)    S(metal)    S(lipo)     H(rot)  DE(clash)    DE(int)     intcor
     16.63     -21.30       2.34        0.00      90.37       1.00       2.84       1.83       ----

> <Gold.Chemscore.Fitness>
16.6292

> <Gold.Chemscore.DG>
-21.3041

> <Gold.Chemscore.ZeroCoef>
-5.4800

> <Gold.Chemscore.Hbond>
2.3387

> <Gold.Chemscore.Metal>
0.0000

> <Gold.Chemscore.Lipo>
90.3678

> <Gold.Chemscore.Internal_Hbond>
0.0000

> <Gold.Chemscore.DEClash>
2.8437

> <Gold.Chemscore.DEInternal>
1.8313

> <Gold.Chemscore.Rot>
1.0000

> <Gold.Chemscore.Internal.Correction>
   9.000000E+99

> <Gold.Chemscore.Hbonds>
donor molecule, donor type, donor heavy atom, donor atom, acceptor molecule, acceptor atom, score
      L1  H     8    31       P1 10175  0.84
      L1  H    11    32       P1 10175  0.94
      L1  H    22    47       P1 10186  0.35

> <Gold.Chemscore.Hbond.Weighted>
-7.8111

> <Gold.Chemscore.Metal.Weighted>
-0.0000

> <Gold.Chemscore.Lipo.Weighted>
-10.5730

> <Gold.Chemscore.Internal_Hbond.Weighted>
0.0000

> <Gold.Chemscore.DEClash.Weighted>
2.8437

> <Gold.Chemscore.DEInternal.Weighted>
1.8313

> <Gold.Chemscore.Rot.Weighted>
2.5600

> <Gold.Chemscore.Internal.Correction.Weighted>
   9.000000E+99

> <Gold.Protein.RotatedTorsions>
[ 6907 6896 6895 6894 ] final  -90.06 input  -60.11 | X-H torsion
[ 7974 7965 7964 7962 ] final  153.98 input  175.53 | X-H torsion
[ 8008 7997 7996 7995 ] final   42.03 input   59.86 | X-H torsion
[ 10167 10162 10161 10158 ] final  160.12 input  -65.29 | X-H torsion
[ 10718 10713 10712 10709 ] final  -37.37 input   66.30 | X-H torsion
[ 10763 10752 10751 10750 ] final -130.68 input  -60.55 | X-H torsion
[ 11005 11000 10999 10996 ] final   80.97 input  -57.11 | X-H torsion

> <Gold.Protein.ActiveResidues>
 VAL166  LYS551  ARG553  GLY616  TRP617  ASP618  TYR619  PRO620  LYS621  CYS622 
 ASP623  PHE694  ASN695  SER759  ASP760  ASP761  ALA762  ILE779  LEU786  VAL792 
 PHE793  MET794  SER795  GLU796  ALA797  LYS798  CYS799  TRP800  GLU811  SER814 

> <Gold.Protein.RotatedAtoms>
  150.6878  134.2490  159.4502 H   0  0  0  0  0  0  0  0  0  0  0  0  # atno 6907 bound_to 6896
  152.0429  134.9698  160.0583 H   0  0  0  0  0  0  0  0  0  0  0  0  # atno 6908 bound_to 6896
  152.1193  133.4309  159.4705 H   0  0  0  0  0  0  0  0  0  0  0  0  # atno 6909 bound_to 6896
  144.8119  139.6872  143.6138 H   0  0  0  0  0  0  0  0  0  0  0  0  # atno 7974 bound_to 7965
  155.2794  140.3371  155.4259 H   0  0  0  0  0  0  0  0  0  0  0  0  # atno 8008 bound_to 7997
  156.2097  140.1765  156.7764 H   0  0  0  0  0  0  0  0  0  0  0  0  # atno 8009 bound_to 7997
  154.5669  140.0677  156.8889 H   0  0  0  0  0  0  0  0  0  0  0  0  # atno 8010 bound_to 7997
  139.4837  144.4664  151.8635 H   0  0  0  0  0  0  0  0  0  0  0  0  # atno 10167 bound_to 10162
  156.3161  130.4259  149.8004 H   0  0  0  0  0  0  0  0  0  0  0  0  # atno 10718 bound_to 10713
  154.8754  135.3854  154.4123 H   0  0  0  0  0  0  0  0  0  0  0  0  # atno 10763 bound_to 10752
  153.4836  135.7030  153.5929 H   0  0  0  0  0  0  0  0  0  0  0  0  # atno 10764 bound_to 10752
  153.4334  135.3873  155.2152 H   0  0  0  0  0  0  0  0  0  0  0  0  # atno 10765 bound_to 10752
  139.9115  134.7961  156.1979 H   0  0  0  0  0  0  0  0  0  0  0  0  # atno 11005 bound_to 11000
  146.2418  139.6017  142.9486 LP  0  0  0  0  0  0  0  0  0  0  0  0  # atno 17320 bound_to 7965
  145.5304  141.0427  143.2386 LP  0  0  0  0  0  0  0  0  0  0  0  0  # atno 17321 bound_to 7965
  140.4130  144.2344  150.5888 LP  0  0  0  0  0  0  0  0  0  0  0  0  # atno 17342 bound_to 10162
  140.4948  143.2336  151.8766 LP  0  0  0  0  0  0  0  0  0  0  0  0  # atno 17343 bound_to 10162
  156.5330  130.8266  151.3243 LP  0  0  0  0  0  0  0  0  0  0  0  0  # atno 17370 bound_to 10713
  157.7402  130.9845  150.2360 LP  0  0  0  0  0  0  0  0  0  0  0  0  # atno 17371 bound_to 10713
  141.0543  133.6873  156.1830 LP  0  0  0  0  0  0  0  0  0  0  0  0  # atno 17394 bound_to 11000
  140.6762  134.4816  157.5588 LP  0  0  0  0  0  0  0  0  0  0  0  0  # atno 17395 bound_to 11000

$$$$
