AV-unprocessed.smi:117|AV-procd|sdf|1129|dock2
  -GOLD-   2262018253D 1   1.00000     0.00000
 Structure written by MMmdl.
 53 55  0  0  0  0  0  0  0  0  1 V2000
  152.1367  144.4234  161.5883 C   0  0  0  0  0  0  0  0  0  0  0  0
  152.0263  144.0193  160.1275 C   0  0  0  0  0  0  0  0  0  0  0  0
  151.8663  145.0342  159.1622 C   0  0  0  0  0  0  0  0  0  0  0  0
  151.7347  144.7087  157.8026 C   0  0  0  0  0  0  0  0  0  0  0  0
  151.7649  143.3642  157.3962 C   0  0  0  0  0  0  0  0  0  0  0  0
  151.9463  142.3297  158.3457 C   0  0  0  0  0  0  0  0  0  0  0  0
  151.9476  140.9542  157.9722 N   0  0  0  0  0  0  0  0  0  0  0  0
  151.5552  140.3865  156.8164 C   0  0  0  0  0  0  0  0  0  0  0  0
  151.1141  141.0053  155.8471 O   0  0  0  0  0  0  0  0  0  0  0  0
  151.7094  138.8599  156.7649 C   0  0  0  0  0  0  0  0  0  0  0  0
  150.4758  138.1518  156.4287 N   0  0  0  0  0  0  0  0  0  0  0  0
  150.3260  136.8182  156.4046 C   0  0  0  0  0  0  0  0  0  0  0  0
  151.2338  136.0333  156.6818 O   0  0  0  0  0  0  0  0  0  0  0  0
  148.9282  136.3079  156.0231 C   0  0  0  0  0  0  0  0  0  0  0  0
  147.8309  137.0650  156.6645 N   0  0  0  0  0  0  0  0  0  0  0  0
  146.9202  137.7633  155.8334 C   0  0  0  0  0  0  0  0  0  0  0  0
  147.0396  137.7556  154.6073 O   0  0  0  0  0  0  0  0  0  0  0  0
  145.8484  138.4685  156.5267 C   0  0  0  0  0  0  0  0  0  0  0  0
  144.9317  139.1499  155.8185 F   0  0  0  0  0  0  0  0  0  0  0  0
  145.7600  138.4465  157.8722 C   0  0  0  0  0  0  0  0  0  0  0  0
  146.6649  137.7779  158.6728 N   0  0  0  0  0  0  0  0  0  0  0  0
  146.4551  137.7634  160.1694 C   0  0  2  0  0  0  0  0  0  0  0  0
  146.1747  136.3605  160.7407 C   0  0  0  0  0  0  0  0  0  0  0  0
  144.8203  136.5300  161.4093 C   0  0  0  0  0  0  0  0  0  0  0  0
  144.7358  138.0365  161.6283 C   0  0  0  0  0  0  0  0  0  0  0  0
  145.3603  138.5718  160.4722 O   0  0  0  0  0  0  0  0  0  0  0  0
  147.7132  137.0400  158.0753 C   0  0  0  0  0  0  0  0  0  0  0  0
  148.5000  136.3858  158.7615 O   0  0  0  0  0  0  0  0  0  0  0  0
  152.0725  142.6582  159.7227 C   0  0  0  0  0  0  0  0  0  0  0  0
  152.2460  141.5454  160.7540 C   0  0  0  0  0  0  0  0  0  0  0  0
  151.9646  145.4920  161.7203 H   0  0  0  0  0  0  0  0  0  0  0  0
  153.1313  144.1972  161.9730 H   0  0  0  0  0  0  0  0  0  0  0  0
  151.3979  143.8939  162.1906 H   0  0  0  0  0  0  0  0  0  0  0  0
  151.8330  146.0716  159.4617 H   0  0  0  0  0  0  0  0  0  0  0  0
  151.5985  145.4907  157.0703 H   0  0  0  0  0  0  0  0  0  0  0  0
  151.6288  143.1506  156.3475 H   0  0  0  0  0  0  0  0  0  0  0  0
  152.3719  140.3295  158.6422 H   0  0  0  0  0  0  0  0  0  0  0  0
  152.4977  138.5977  156.0571 H   0  0  0  0  0  0  0  0  0  0  0  0
  152.0409  138.5116  157.7433 H   0  0  0  0  0  0  0  0  0  0  0  0
  149.6793  138.7208  156.1826 H   0  0  0  0  0  0  0  0  0  0  0  0
  148.8452  136.3305  154.9357 H   0  0  0  0  0  0  0  0  0  0  0  0
  148.8546  135.2474  156.2701 H   0  0  0  0  0  0  0  0  0  0  0  0
  144.9437  138.9809  158.3359 H   0  0  0  0  0  0  0  0  0  0  0  0
  147.3547  138.2021  160.6039 H   0  0  0  0  0  0  0  0  0  0  0  0
  146.1779  135.5862  159.9730 H   0  0  0  0  0  0  0  0  0  0  0  0
  146.9469  136.1237  161.4735 H   0  0  0  0  0  0  0  0  0  0  0  0
  144.0256  136.2072  160.7364 H   0  0  0  0  0  0  0  0  0  0  0  0
  144.7285  135.9616  162.3348 H   0  0  0  0  0  0  0  0  0  0  0  0
  143.7101  138.3907  161.7318 H   0  0  0  0  0  0  0  0  0  0  0  0
  145.2964  138.3334  162.5162 H   0  0  0  0  0  0  0  0  0  0  0  0
  152.9203  140.7706  160.3883 H   0  0  0  0  0  0  0  0  0  0  0  0
  151.2819  141.0845  160.9698 H   0  0  0  0  0  0  0  0  0  0  0  0
  152.6697  141.8973  161.6930 H   0  0  0  0  0  0  0  0  0  0  0  0
  1  2  1  0  0  0  0
  1 31  1  0  0  0  0
  1 32  1  0  0  0  0
  1 33  1  0  0  0  0
  2 29  1  0  0  0  0
  2  3  2  0  0  0  0
  3  4  1  0  0  0  0
  3 34  1  0  0  0  0
  4  5  2  0  0  0  0
  4 35  1  0  0  0  0
  5  6  1  0  0  0  0
  5 36  1  0  0  0  0
  6  7  1  0  0  0  0
  6 29  2  0  0  0  0
  7  8  1  0  0  0  0
  7 37  1  0  0  0  0
  8  9  2  0  0  0  0
  8 10  1  0  0  0  0
 10 11  1  0  0  0  0
 10 38  1  0  0  0  0
 10 39  1  0  0  0  0
 11 12  1  0  0  0  0
 11 40  1  0  0  0  0
 12 13  2  0  0  0  0
 12 14  1  0  0  0  0
 14 15  1  0  0  0  0
 14 41  1  0  0  0  0
 14 42  1  0  0  0  0
 15 27  1  0  0  0  0
 15 16  1  0  0  0  0
 16 17  2  0  0  0  0
 16 18  1  0  0  0  0
 18 19  1  0  0  0  0
 18 20  2  0  0  0  0
 20 21  1  0  0  0  0
 20 43  1  0  0  0  0
 21 22  1  0  0  0  0
 21 27  1  0  0  0  0
 22 26  1  0  0  0  0
 22 23  1  0  0  0  0
 22 44  1  0  0  0  0
 23 24  1  0  0  0  0
 23 45  1  0  0  0  0
 23 46  1  0  0  0  0
 24 25  1  0  0  0  0
 24 47  1  0  0  0  0
 24 48  1  0  0  0  0
 25 26  1  0  0  0  0
 25 49  1  0  0  0  0
 25 50  1  0  0  0  0
 27 28  2  0  0  0  0
 29 30  1  0  0  0  0
 30 51  1  0  0  0  0
 30 52  1  0  0  0  0
 30 53  1  0  0  0  0
M  END
> <s_m_source_file>
AV-unprocessed.smi

> <i_m_source_file_index>
117

> <i_lp_mmshare_version>
43012

> <i_f3d_flags>
0

> <s_epik_input>
W0NIM11jMVtjSF1bY0hdW2NIXWMoYzFbQ0gzXSlbTkhdQyg9TylbQ0gyXVtOSF1DKD1PKVtDSDJdbjJjKD1PKWMoRilbY0hdbihjMj1PKVtDQEBIXTNbQ0gyXVtDSDJdW0NIMl1PMw==

> <s_epik_cmdline>
J2VwaWtfcHl0aG9uJywgJy1waCcsICc3LjAnLCAnLXRuJywgJzgnLCAnLW1hJywgJzIwMCcsICctbWV0YWxfYmluZGluZycsICctaW1hZScsICc8aW5maWxlLm1hZT4nLCAnLW9tYWUnLCAnPG91dGZpbGUubWFlPic=

> <r_lp_tautomer_probability>
1

> <r_epik_Ionization_Penalty>
1.58439e-06

> <r_epik_Ionization_Penalty_Charging>
4.14583e-09

> <r_epik_Ionization_Penalty_Neutral>
1.58025e-06

> <r_epik_State_Penalty>
-0

> <r_epik_Charging_Adjusted_Penalty>
4.14583e-09

> <i_epik_Tot_Q>
0

> <i_epik_Tot_abs_Q>
0

> <r_epik_Metal_State_Penalty>
-0

> <b_epik_Metal_Only>
0

> <s_epik_Chemistry_Notes>
This compound contains an acetal/aminal-like group ( X-CH(R)-Y where X, Y are N, S, or O) that may be acid/base labile, releasing an aldehyde.

> <s_lp_Force_Field>
OPLS_2005

> <r_lp_Energy>
28.8349

> <b_lp_Chiralities_Consistent>
1

> <s_lp_Variant>
AV-unprocessed.smi:117-1

> <Gold.Version>
5.8.1

> <Gold.Id.Protein>
6NUR|6NUR_protein|mol2

> <Gold.PLP.Fitness>
56.4496

> <Gold.PLP.PLP>
-47.9676

> <Gold.PLP.part.hbond>
-3.0000

> <Gold.PLP.part.metal>
0.0000

> <Gold.PLP.part.buried>
-7.6743

> <Gold.PLP.part.nonpolar>
-37.6739

> <Gold.PLP.part.repulsive>
0.2244

> <Gold.PLP.ligand.clash>
0.0000

> <Gold.PLP.ligand.torsion>
0.3392

> <Gold.PLP.Chemscore.Hbond>
3.0000

> <Gold.PLP.Chemscore.CHOScore>
0.0000

> <Gold.PLP.Chemscore.Metal>
0.0000

> <Gold.Chemscore.Hbonds>
donor molecule, donor type, donor heavy atom, donor atom, acceptor molecule, acceptor atom, score
      P1  H  7989  7998       L1     9  0.05

> <Gold.PLP.Chemscore.Internal.Correction>
0.1603

> <Gold.Rescore>
     Score         DG    S(hbond)    S(metal)    S(lipo)     H(rot)  DE(clash)    DE(int)     intcor
     18.26     -21.87       2.27        0.00     125.90       2.32       0.02       3.58       ----

> <Gold.Chemscore.Fitness>
18.2604

> <Gold.Chemscore.DG>
-21.8658

> <Gold.Chemscore.ZeroCoef>
-5.4800

> <Gold.Chemscore.Hbond>
2.2714

> <Gold.Chemscore.Metal>
0.0000

> <Gold.Chemscore.Lipo>
125.8973

> <Gold.Chemscore.Internal_Hbond>
0.0000

> <Gold.Chemscore.DEClash>
0.0231

> <Gold.Chemscore.DEInternal>
3.5822

> <Gold.Chemscore.Rot>
2.3166

> <Gold.Chemscore.Internal.Correction>
   9.000000E+99

> <Gold.Chemscore.Hbonds>
donor molecule, donor type, donor heavy atom, donor atom, acceptor molecule, acceptor atom, score
      P1  H  7989  7998       L1     9  0.08

> <Gold.Chemscore.Hbond.Weighted>
-7.5863

> <Gold.Chemscore.Metal.Weighted>
-0.0000

> <Gold.Chemscore.Lipo.Weighted>
-14.7300

> <Gold.Chemscore.Internal_Hbond.Weighted>
0.0000

> <Gold.Chemscore.DEClash.Weighted>
0.0231

> <Gold.Chemscore.DEInternal.Weighted>
3.5822

> <Gold.Chemscore.Rot.Weighted>
5.9306

> <Gold.Chemscore.Internal.Correction.Weighted>
   9.000000E+99

> <Gold.Protein.RotatedTorsions>
[ 6907 6896 6895 6894 ] final   50.41 input  -60.11 | X-H torsion
[ 7974 7965 7964 7962 ] final   42.19 input  175.53 | X-H torsion
[ 8008 7997 7996 7995 ] final  109.02 input   59.86 | X-H torsion
[ 10167 10162 10161 10158 ] final  126.82 input  -65.29 | X-H torsion
[ 10718 10713 10712 10709 ] final  -23.30 input   66.30 | X-H torsion
[ 10763 10752 10751 10750 ] final   93.37 input  -60.55 | X-H torsion
[ 11005 11000 10999 10996 ] final   71.88 input  -57.11 | X-H torsion

> <Gold.Protein.ActiveResidues>
 VAL166  LYS551  ARG553  GLY616  TRP617  ASP618  TYR619  PRO620  LYS621  CYS622 
 ASP623  PHE694  ASN695  SER759  ASP760  ASP761  ALA762  ILE779  LEU786  VAL792 
 PHE793  MET794  SER795  GLU796  ALA797  LYS798  CYS799  TRP800  GLU811  SER814 

> <Gold.Protein.RotatedAtoms>
  152.3015  134.7605  160.0356 H   0  0  0  0  0  0  0  0  0  0  0  0  # atno 6907 bound_to 6896
  151.8116  133.3377  159.3565 H   0  0  0  0  0  0  0  0  0  0  0  0  # atno 6908 bound_to 6896
  150.7276  134.5588  159.5876 H   0  0  0  0  0  0  0  0  0  0  0  0  # atno 6909 bound_to 6896
  146.0761  139.5328  142.9567 H   0  0  0  0  0  0  0  0  0  0  0  0  # atno 7974 bound_to 7965
  156.1947  140.3065  155.9403 H   0  0  0  0  0  0  0  0  0  0  0  0  # atno 8008 bound_to 7997
  155.3093  140.0450  157.3051 H   0  0  0  0  0  0  0  0  0  0  0  0  # atno 8009 bound_to 7997
  154.5495  140.2287  155.8517 H   0  0  0  0  0  0  0  0  0  0  0  0  # atno 8010 bound_to 7997
  139.5611  144.6882  151.4042 H   0  0  0  0  0  0  0  0  0  0  0  0  # atno 10167 bound_to 10162
  156.4929  130.4570  149.6745 H   0  0  0  0  0  0  0  0  0  0  0  0  # atno 10718 bound_to 10713
  153.2295  135.4328  155.0580 H   0  0  0  0  0  0  0  0  0  0  0  0  # atno 10763 bound_to 10752
  154.8290  135.3376  154.6808 H   0  0  0  0  0  0  0  0  0  0  0  0  # atno 10764 bound_to 10752
  153.7236  135.7015  153.5063 H   0  0  0  0  0  0  0  0  0  0  0  0  # atno 10765 bound_to 10752
  139.9520  134.7211  156.0841 H   0  0  0  0  0  0  0  0  0  0  0  0  # atno 11005 bound_to 11000
  145.6304  141.0305  143.1866 LP  0  0  0  0  0  0  0  0  0  0  0  0  # atno 17320 bound_to 7965
  144.7262  139.7868  143.7364 LP  0  0  0  0  0  0  0  0  0  0  0  0  # atno 17321 bound_to 7965
  140.6890  143.7906  150.7228 LP  0  0  0  0  0  0  0  0  0  0  0  0  # atno 17342 bound_to 10162
  140.1382  143.4465  152.2211 LP  0  0  0  0  0  0  0  0  0  0  0  0  # atno 17343 bound_to 10162
  156.3409  130.7381  151.2326 LP  0  0  0  0  0  0  0  0  0  0  0  0  # atno 17370 bound_to 10713
  157.7472  131.0404  150.4595 LP  0  0  0  0  0  0  0  0  0  0  0  0  # atno 17371 bound_to 10713
  141.1184  133.6620  156.3153 LP  0  0  0  0  0  0  0  0  0  0  0  0  # atno 17394 bound_to 11000
  140.5697  134.5852  157.5454 LP  0  0  0  0  0  0  0  0  0  0  0  0  # atno 17395 bound_to 11000

$$$$
