AV-unprocessed.smi:661|AV-procd|sdf|3242|dock2
  -GOLD-   22720 0193D 1   1.00000     0.00000
 Structure written by MMmdl.
 31 32  0  0  0  0  0  0  0  0  2 V2000
  147.4121  141.9927  154.1084 C   0  0  0  0  0  0  0  0  0  0  0  0
  148.8529  142.1770  154.0996 N   0  0  0  0  0  0  0  0  0  0  0  0
  149.4906  141.0120  154.6943 C   0  0  0  0  0  0  0  0  0  0  0  0
  150.2876  141.3290  155.9209 C   0  0  0  0  0  0  0  0  0  0  0  0
  150.4020  142.5446  156.5306 N   0  3  0  0  0  0  0  0  0  0  0  0
  151.2441  142.4427  157.6384 C   0  0  0  0  0  0  0  0  0  0  0  0
  151.6612  143.3994  158.5589 C   0  0  0  0  0  0  0  0  0  0  0  0
  152.5349  142.9602  159.5753 C   0  0  0  0  0  0  0  0  0  0  0  0
  152.9606  141.6178  159.6488 C   0  0  0  0  0  0  0  0  0  0  0  0
  152.5301  140.6569  158.7102 C   0  0  0  0  0  0  0  0  0  0  0  0
  151.6656  141.0995  157.7097 C   0  0  0  0  0  0  0  0  0  0  0  0
  151.0493  140.4513  156.6342 N   0  0  0  0  0  0  0  0  0  0  0  0
  151.2937  139.0188  156.4238 C   0  0  0  0  0  0  0  0  0  0  0  0
  151.9101  138.7409  155.0459 C   0  0  0  0  0  0  0  0  0  0  0  0
  151.8986  137.3533  154.7948 O   0  0  0  0  0  0  0  0  0  0  0  0
  146.9232  142.8713  153.6872 H   0  0  0  0  0  0  0  0  0  0  0  0
  147.0423  141.8529  155.1249 H   0  0  0  0  0  0  0  0  0  0  0  0
  147.1256  141.1270  153.5101 H   0  0  0  0  0  0  0  0  0  0  0  0
  149.0621  142.9865  154.6666 H   0  0  0  0  0  0  0  0  0  0  0  0
  148.7297  140.2715  154.9443 H   0  0  0  0  0  0  0  0  0  0  0  0
  150.1632  140.5537  153.9679 H   0  0  0  0  0  0  0  0  0  0  0  0
  151.3375  144.4284  158.5040 H   0  0  0  0  0  0  0  0  0  0  0  0
  152.8860  143.6673  160.3130 H   0  0  0  0  0  0  0  0  0  0  0  0
  153.6306  141.3184  160.4416 H   0  0  0  0  0  0  0  0  0  0  0  0
  152.8624  139.6311  158.7735 H   0  0  0  0  0  0  0  0  0  0  0  0
  151.9319  138.6485  157.2273 H   0  0  0  0  0  0  0  0  0  0  0  0
  150.3396  138.5000  156.5227 H   0  0  0  0  0  0  0  0  0  0  0  0
  151.3474  139.2490  154.2622 H   0  0  0  0  0  0  0  0  0  0  0  0
  152.9377  139.1018  154.9983 H   0  0  0  0  0  0  0  0  0  0  0  0
  151.0258  137.0256  154.9504 H   0  0  0  0  0  0  0  0  0  0  0  0
  149.9382  143.3818  156.2017 H   0  0  0  0  0  0  0  0  0  0  0  0
  1  2  1  0  0  0  0
  1 16  1  0  0  0  0
  1 17  1  0  0  0  0
  1 18  1  0  0  0  0
  2  3  1  0  0  0  0
  2 19  1  0  0  0  0
  3  4  1  0  0  0  0
  3 20  1  0  0  0  0
  3 21  1  0  0  0  0
  4 12  1  0  0  0  0
  4  5  2  0  0  0  0
  5  6  1  0  0  0  0
  5 31  1  0  0  0  0
  6 11  2  0  0  0  0
  6  7  1  0  0  0  0
  7  8  2  0  0  0  0
  7 22  1  0  0  0  0
  8  9  1  0  0  0  0
  8 23  1  0  0  0  0
  9 10  2  0  0  0  0
  9 24  1  0  0  0  0
 10 11  1  0  0  0  0
 10 25  1  0  0  0  0
 11 12  1  0  0  0  0
 12 13  1  0  0  0  0
 13 14  1  0  0  0  0
 13 26  1  0  0  0  0
 13 27  1  0  0  0  0
 14 15  1  0  0  0  0
 14 28  1  0  0  0  0
 14 29  1  0  0  0  0
 15 30  1  0  0  0  0
M  CHG  1   5   1
M  END
> <s_m_source_file>
AV-unprocessed.smi

> <i_m_source_file_index>
661

> <i_lp_mmshare_version>
43012

> <i_f3d_flags>
0

> <s_epik_input>
W0NIM11bTkhdW0NIMl1jKG4xKW4oW0NIMl1bQ0gyXVtPSF0pYyhjMTIpW2NIXVtjSF1bY0hdW2NIXTI=

> <s_epik_cmdline>
J2VwaWtfcHl0aG9uJywgJy1waCcsICc3LjAnLCAnLXRuJywgJzgnLCAnLW1hJywgJzIwMCcsICctbWV0YWxfYmluZGluZycsICctaW1hZScsICc8aW5maWxlLm1hZT4nLCAnLW9tYWUnLCAnPG91dGZpbGUubWFlPic=

> <r_epik_Ionization_Penalty>
1.54621

> <r_epik_Ionization_Penalty_Charging>
0.868283

> <r_epik_Ionization_Penalty_Neutral>
0.677923

> <r_epik_State_Penalty>
2.71647

> <r_epik_Charging_Adjusted_Penalty>
3.58475

> <i_epik_Tot_Q>
1

> <i_epik_Tot_abs_Q>
1

> <r_epik_Metal_State_Penalty>
6.65543

> <b_epik_Metal_Only>
0

> <s_lp_Force_Field>
OPLS_2005

> <r_lp_Energy>
13.6315

> <b_lp_Chiralities_Consistent>
1

> <s_lp_Variant>
AV-unprocessed.smi:661-3

> <Gold.Version>
5.8.1

> <Gold.Id.Protein>
6NUR|6NUR_protein|mol2

> <Gold.PLP.Fitness>
49.1558

> <Gold.PLP.PLP>
-37.1826

> <Gold.PLP.part.hbond>
-4.0000

> <Gold.PLP.part.metal>
0.0000

> <Gold.PLP.part.buried>
-5.0658

> <Gold.PLP.part.nonpolar>
-29.3158

> <Gold.PLP.part.repulsive>
0.0681

> <Gold.PLP.ligand.clash>
0.0000

> <Gold.PLP.ligand.torsion>
0.4192

> <Gold.PLP.Chemscore.Hbond>
4.2640

> <Gold.PLP.Chemscore.CHOScore>
0.0000

> <Gold.PLP.Chemscore.Metal>
0.0000

> <Gold.Chemscore.Hbonds>
donor molecule, donor type, donor heavy atom, donor atom, acceptor molecule, acceptor atom, score
      L1  H     2    19       P1  8028  1.00
      L1  H     5    31       P1  8028  2.00
      P1  H  8011  8017       L1     2  0.32
      P1  H 10752 10765       L1    15  0.94

> <Gold.PLP.Chemscore.Internal.Correction>
0.0196

> <Gold.Rescore>
     Score         DG    S(hbond)    S(metal)    S(lipo)     H(rot)  DE(clash)    DE(int)     intcor
     18.30     -18.79       2.90        0.00      82.84       2.37       0.07       0.43       ----

> <Gold.Chemscore.Fitness>
18.3028

> <Gold.Chemscore.DG>
-18.7949

> <Gold.Chemscore.ZeroCoef>
-5.4800

> <Gold.Chemscore.Hbond>
2.8987

> <Gold.Chemscore.Metal>
0.0000

> <Gold.Chemscore.Lipo>
82.8387

> <Gold.Chemscore.Internal_Hbond>
0.0000

> <Gold.Chemscore.DEClash>
0.0663

> <Gold.Chemscore.DEInternal>
0.4257

> <Gold.Chemscore.Rot>
2.3667

> <Gold.Chemscore.Internal.Correction>
   9.000000E+99

> <Gold.Chemscore.Hbonds>
donor molecule, donor type, donor heavy atom, donor atom, acceptor molecule, acceptor atom, score
      L1  H     2    19       P1  8028  0.97
      L1  H     5    31       P1  8028  1.00
      P1  H  8011  8017       L1     2  0.09
      P1  H 10752 10765       L1    15  0.34

> <Gold.Chemscore.Hbond.Weighted>
-9.6816

> <Gold.Chemscore.Metal.Weighted>
-0.0000

> <Gold.Chemscore.Lipo.Weighted>
-9.6921

> <Gold.Chemscore.Internal_Hbond.Weighted>
0.0000

> <Gold.Chemscore.DEClash.Weighted>
0.0663

> <Gold.Chemscore.DEInternal.Weighted>
0.4257

> <Gold.Chemscore.Rot.Weighted>
6.0588

> <Gold.Chemscore.Internal.Correction.Weighted>
   9.000000E+99

> <Gold.Protein.RotatedTorsions>
[ 6907 6896 6895 6894 ] final -122.25 input  -60.11 | X-H torsion
[ 7974 7965 7964 7962 ] final  -97.69 input  175.53 | X-H torsion
[ 8008 7997 7996 7995 ] final  -85.01 input   59.86 | X-H torsion
[ 10167 10162 10161 10158 ] final -123.57 input  -65.29 | X-H torsion
[ 10718 10713 10712 10709 ] final   61.93 input   66.30 | X-H torsion
[ 10763 10752 10751 10750 ] final  169.71 input  -60.55 | X-H torsion
[ 11005 11000 10999 10996 ] final  -94.25 input  -57.11 | X-H torsion

> <Gold.Protein.ActiveResidues>
 VAL166  LYS551  ARG553  GLY616  TRP617  ASP618  TYR619  PRO620  LYS621  CYS622 
 ASP623  PHE694  ASN695  SER759  ASP760  ASP761  ALA762  ILE779  LEU786  VAL792 
 PHE793  MET794  SER795  GLU796  ALA797  LYS798  CYS799  TRP800  GLU811  SER814 

> <Gold.Protein.RotatedAtoms>
  150.8559  133.7716  159.3008 H   0  0  0  0  0  0  0  0  0  0  0  0  # atno 6907 bound_to 6896
  151.5374  135.1067  159.9927 H   0  0  0  0  0  0  0  0  0  0  0  0  # atno 6908 bound_to 6896
  152.4589  133.7737  159.6869 H   0  0  0  0  0  0  0  0  0  0  0  0  # atno 6909 bound_to 6896
  145.3304  140.9440  143.2665 H   0  0  0  0  0  0  0  0  0  0  0  0  # atno 7974 bound_to 7965
  154.6361  140.0597  156.9790 H   0  0  0  0  0  0  0  0  0  0  0  0  # atno 8008 bound_to 7997
  155.1590  140.3281  155.4397 H   0  0  0  0  0  0  0  0  0  0  0  0  # atno 8009 bound_to 7997
  156.2507  140.1934  156.6698 H   0  0  0  0  0  0  0  0  0  0  0  0  # atno 8010 bound_to 7997
  140.0021  143.5529  152.2299 H   0  0  0  0  0  0  0  0  0  0  0  0  # atno 10167 bound_to 10162
  157.5864  130.9022  149.9523 H   0  0  0  0  0  0  0  0  0  0  0  0  # atno 10718 bound_to 10713
  154.3870  135.2754  155.2177 H   0  0  0  0  0  0  0  0  0  0  0  0  # atno 10763 bound_to 10752
  154.4259  135.5989  153.6042 H   0  0  0  0  0  0  0  0  0  0  0  0  # atno 10764 bound_to 10752
  152.9833  135.5984  154.4120 H   0  0  0  0  0  0  0  0  0  0  0  0  # atno 10765 bound_to 10752
  141.1475  133.7943  157.0273 H   0  0  0  0  0  0  0  0  0  0  0  0  # atno 11005 bound_to 11000
  144.8869  139.4828  143.6696 LP  0  0  0  0  0  0  0  0  0  0  0  0  # atno 17320 bound_to 7965
  146.3048  139.7543  142.9064 LP  0  0  0  0  0  0  0  0  0  0  0  0  # atno 17321 bound_to 7965
  139.6264  144.7638  151.2629 LP  0  0  0  0  0  0  0  0  0  0  0  0  # atno 17342 bound_to 10162
  140.7415  143.6556  150.8209 LP  0  0  0  0  0  0  0  0  0  0  0  0  # atno 17343 bound_to 10162
  156.0913  130.3663  150.0389 LP  0  0  0  0  0  0  0  0  0  0  0  0  # atno 17370 bound_to 10713
  156.8519  130.9462  151.3625 LP  0  0  0  0  0  0  0  0  0  0  0  0  # atno 17371 bound_to 10713
  140.0777  134.9666  157.1573 LP  0  0  0  0  0  0  0  0  0  0  0  0  # atno 17394 bound_to 11000
  140.3621  134.2483  155.7186 LP  0  0  0  0  0  0  0  0  0  0  0  0  # atno 17395 bound_to 11000

$$$$
