AV-unprocessed.smi:869|AV-procd|sdf|4005|dock4
  -GOLD-   22720 1493D 1   1.00000     0.00000
 Structure written by MMmdl.
 47 49  0  0  0  0  0  0  0  0  2 V2000
  147.4398  141.7296  154.4507 C   0  0  0  0  0  0  0  0  0  0  0  0
  148.8123  141.8381  154.1161 O   0  0  0  0  0  0  0  0  0  0  0  0
  149.6094  140.8655  154.7720 C   0  0  0  0  0  0  0  0  0  0  0  0
  150.3889  141.4533  155.9022 C   0  0  0  0  0  0  0  0  0  0  0  0
  150.4411  142.7721  156.2432 N   0  3  0  0  0  0  0  0  0  0  0  0
  151.2710  142.9415  157.3517 C   0  0  0  0  0  0  0  0  0  0  0  0
  151.6287  144.0880  158.0544 C   0  0  0  0  0  0  0  0  0  0  0  0
  152.4994  143.9128  159.1499 C   0  0  0  0  0  0  0  0  0  0  0  0
  152.9785  142.6365  159.5098 C   0  0  0  0  0  0  0  0  0  0  0  0
  152.6096  141.4817  158.7889 C   0  0  0  0  0  0  0  0  0  0  0  0
  151.7495  141.6632  157.7057 C   0  0  0  0  0  0  0  0  0  0  0  0
  151.1798  140.7769  156.7831 N   0  0  0  0  0  0  0  0  0  0  0  0
  151.4784  139.3383  156.8708 C   0  0  0  0  0  0  0  0  0  0  0  0
  152.1473  138.7859  155.5958 C   0  0  2  0  0  0  0  0  0  0  0  0
  152.7781  139.8316  154.8836 O   0  0  0  0  0  0  0  0  0  0  0  0
  151.1433  138.0992  154.6587 C   0  0  0  0  0  0  0  0  0  0  0  0
  151.4094  136.7032  154.6388 O   0  0  0  0  0  0  0  0  0  0  0  0
  150.7023  135.8919  155.5002 C   0  0  0  0  0  0  0  0  0  0  0  0
  150.2338  136.4797  156.6933 C   0  0  0  0  0  0  0  0  0  0  0  0
  149.5047  135.7249  157.6321 C   0  0  0  0  0  0  0  0  0  0  0  0
  149.2351  134.3641  157.3884 C   0  0  0  0  0  0  0  0  0  0  0  0
  148.4497  133.5509  158.3964 C   0  0  0  0  0  0  0  0  0  0  0  0
  149.6962  133.7664  156.1989 C   0  0  0  0  0  0  0  0  0  0  0  0
  150.4250  134.5224  155.2599 C   0  0  0  0  0  0  0  0  0  0  0  0
  146.8707  142.4894  153.9150 H   0  0  0  0  0  0  0  0  0  0  0  0
  147.2818  141.8818  155.5192 H   0  0  0  0  0  0  0  0  0  0  0  0
  147.0413  140.7528  154.1732 H   0  0  0  0  0  0  0  0  0  0  0  0
  148.9765  140.0663  155.1607 H   0  0  0  0  0  0  0  0  0  0  0  0
  150.3073  140.4176  154.0634 H   0  0  0  0  0  0  0  0  0  0  0  0
  151.2610  145.0662  157.7814 H   0  0  0  0  0  0  0  0  0  0  0  0
  152.8041  144.7739  159.7269 H   0  0  0  0  0  0  0  0  0  0  0  0
  153.6411  142.5403  160.3577 H   0  0  0  0  0  0  0  0  0  0  0  0
  152.9775  140.5087  159.0786 H   0  0  0  0  0  0  0  0  0  0  0  0
  152.1393  139.1995  157.7271 H   0  0  0  0  0  0  0  0  0  0  0  0
  150.5645  138.7934  157.1069 H   0  0  0  0  0  0  0  0  0  0  0  0
  152.9212  138.0692  155.8722 H   0  0  0  0  0  0  0  0  0  0  0  0
  152.4198  139.8567  154.0092 H   0  0  0  0  0  0  0  0  0  0  0  0
  150.1233  138.2938  154.9951 H   0  0  0  0  0  0  0  0  0  0  0  0
  151.2500  138.5015  153.6496 H   0  0  0  0  0  0  0  0  0  0  0  0
  150.4353  137.5221  156.8914 H   0  0  0  0  0  0  0  0  0  0  0  0
  149.1543  136.1942  158.5397 H   0  0  0  0  0  0  0  0  0  0  0  0
  148.7218  132.4962  158.3435 H   0  0  0  0  0  0  0  0  0  0  0  0
  147.3810  133.6409  158.2008 H   0  0  0  0  0  0  0  0  0  0  0  0
  148.6448  133.8987  159.4113 H   0  0  0  0  0  0  0  0  0  0  0  0
  149.4927  132.7240  156.0016 H   0  0  0  0  0  0  0  0  0  0  0  0
  150.7616  134.0256  154.3629 H   0  0  0  0  0  0  0  0  0  0  0  0
  149.9403  143.4994  155.7492 H   0  0  0  0  0  0  0  0  0  0  0  0
  1  2  1  0  0  0  0
  1 25  1  0  0  0  0
  1 26  1  0  0  0  0
  1 27  1  0  0  0  0
  2  3  1  0  0  0  0
  3  4  1  0  0  0  0
  3 28  1  0  0  0  0
  3 29  1  0  0  0  0
  4 12  1  0  0  0  0
  4  5  2  0  0  0  0
  5  6  1  0  0  0  0
  5 47  1  0  0  0  0
  6 11  2  0  0  0  0
  6  7  1  0  0  0  0
  7  8  2  0  0  0  0
  7 30  1  0  0  0  0
  8  9  1  0  0  0  0
  8 31  1  0  0  0  0
  9 10  2  0  0  0  0
  9 32  1  0  0  0  0
 10 11  1  0  0  0  0
 10 33  1  0  0  0  0
 11 12  1  0  0  0  0
 12 13  1  0  0  0  0
 13 14  1  0  0  0  0
 13 34  1  0  0  0  0
 13 35  1  0  0  0  0
 14 15  1  0  0  0  0
 14 16  1  0  0  0  0
 14 36  1  0  0  0  0
 15 37  1  0  0  0  0
 16 17  1  0  0  0  0
 16 38  1  0  0  0  0
 16 39  1  0  0  0  0
 17 18  1  0  0  0  0
 18 24  1  0  0  0  0
 18 19  2  0  0  0  0
 19 20  1  0  0  0  0
 19 40  1  0  0  0  0
 20 21  2  0  0  0  0
 20 41  1  0  0  0  0
 21 22  1  0  0  0  0
 21 23  1  0  0  0  0
 22 42  1  0  0  0  0
 22 43  1  0  0  0  0
 22 44  1  0  0  0  0
 23 24  2  0  0  0  0
 23 45  1  0  0  0  0
 24 46  1  0  0  0  0
M  CHG  1   5   1
M  END
> <s_m_source_file>
AV-unprocessed.smi

> <i_m_source_file_index>
869

> <i_lp_mmshare_version>
43012

> <i_f3d_flags>
0

> <s_epik_input>
W2NIXTFbY0hdW2NIXVtjSF1jKGMxMiluKGMobjIpW0NIMl1PW0NIM10pW0NIMl1bQ0BIXShbT0hdKVtDSDJdT2MzW2NIXVtjSF1jKFtDSDNdKVtjSF1bY0hdMw==

> <s_epik_cmdline>
J2VwaWtfcHl0aG9uJywgJy1waCcsICc3LjAnLCAnLXRuJywgJzgnLCAnLW1hJywgJzIwMCcsICctbWV0YWxfYmluZGluZycsICctaW1hZScsICc8aW5maWxlLm1hZT4nLCAnLW9tYWUnLCAnPG91dGZpbGUubWFlPic=

> <r_lp_tautomer_probability>
1

> <r_epik_Ionization_Penalty>
1.5538

> <r_epik_Ionization_Penalty_Charging>
1.5538

> <r_epik_Ionization_Penalty_Neutral>
2.3993e-06

> <r_epik_State_Penalty>
1.64824

> <r_epik_Charging_Adjusted_Penalty>
3.20204

> <i_epik_Tot_Q>
1

> <i_epik_Tot_abs_Q>
1

> <r_epik_Metal_State_Penalty>
5.70315

> <b_epik_Metal_Only>
0

> <s_lp_Force_Field>
OPLS_2005

> <r_lp_Energy>
18.5065

> <b_lp_Chiralities_Consistent>
1

> <s_lp_Variant>
AV-unprocessed.smi:869-3

> <Gold.Version>
5.8.1

> <Gold.Id.Protein>
6NUR|6NUR_protein|mol2

> <Gold.PLP.Fitness>
58.5098

> <Gold.PLP.PLP>
-49.1664

> <Gold.PLP.part.hbond>
-5.0000

> <Gold.PLP.part.metal>
0.0000

> <Gold.PLP.part.buried>
-6.3926

> <Gold.PLP.part.nonpolar>
-38.9111

> <Gold.PLP.part.repulsive>
0.4733

> <Gold.PLP.ligand.clash>
0.0000

> <Gold.PLP.ligand.torsion>
2.1749

> <Gold.PLP.Chemscore.Hbond>
4.5120

> <Gold.PLP.Chemscore.CHOScore>
0.0000

> <Gold.PLP.Chemscore.Metal>
0.0000

> <Gold.Chemscore.Hbonds>
donor molecule, donor type, donor heavy atom, donor atom, acceptor molecule, acceptor atom, score
      L1  H     5    47       P1  8028  2.00
      P1  H  7997  8010       L1    15  1.00
      P1  H  8011  8017       L1     2  0.38
      P1  H 10752 10763       L1    17  1.00

> <Gold.PLP.Chemscore.Internal.Correction>
0.1570

> <Gold.Rescore>
     Score         DG    S(hbond)    S(metal)    S(lipo)     H(rot)  DE(clash)    DE(int)     intcor
     22.20     -24.46       3.33        0.00     120.87       2.45       0.14       2.12       ----

> <Gold.Chemscore.Fitness>
22.1994

> <Gold.Chemscore.DG>
-24.4621

> <Gold.Chemscore.ZeroCoef>
-5.4800

> <Gold.Chemscore.Hbond>
3.3266

> <Gold.Chemscore.Metal>
0.0000

> <Gold.Chemscore.Lipo>
120.8679

> <Gold.Chemscore.Internal_Hbond>
0.0000

> <Gold.Chemscore.DEClash>
0.1407

> <Gold.Chemscore.DEInternal>
2.1219

> <Gold.Chemscore.Rot>
2.4494

> <Gold.Chemscore.Internal.Correction>
   9.000000E+99

> <Gold.Chemscore.Hbonds>
donor molecule, donor type, donor heavy atom, donor atom, acceptor molecule, acceptor atom, score
      L1  H     5    47       P1  8028  0.97
      P1  H  7997  8010       L1    15  0.38
      P1  H  8011  8017       L1     2  0.26
      P1  H 10752 10763       L1    17  0.30

> <Gold.Chemscore.Hbond.Weighted>
-11.1110

> <Gold.Chemscore.Metal.Weighted>
-0.0000

> <Gold.Chemscore.Lipo.Weighted>
-14.1415

> <Gold.Chemscore.Internal_Hbond.Weighted>
0.0000

> <Gold.Chemscore.DEClash.Weighted>
0.1407

> <Gold.Chemscore.DEInternal.Weighted>
2.1219

> <Gold.Chemscore.Rot.Weighted>
6.2704

> <Gold.Chemscore.Internal.Correction.Weighted>
   9.000000E+99

> <Gold.Protein.RotatedTorsions>
[ 6907 6896 6895 6894 ] final   78.87 input  -60.11 | X-H torsion
[ 7974 7965 7964 7962 ] final   25.87 input  175.53 | X-H torsion
[ 8008 7997 7996 7995 ] final   97.81 input   59.86 | X-H torsion
[ 10167 10162 10161 10158 ] final  -29.05 input  -65.29 | X-H torsion
[ 10718 10713 10712 10709 ] final  123.56 input   66.30 | X-H torsion
[ 10763 10752 10751 10750 ] final   42.87 input  -60.55 | X-H torsion
[ 11005 11000 10999 10996 ] final -102.57 input  -57.11 | X-H torsion

> <Gold.Protein.ActiveResidues>
 VAL166  LYS551  ARG553  GLY616  TRP617  ASP618  TYR619  PRO620  LYS621  CYS622 
 ASP623  PHE694  ASN695  SER759  ASP760  ASP761  ALA762  ILE779  LEU786  VAL792 
 PHE793  MET794  SER795  GLU796  ALA797  LYS798  CYS799  TRP800  GLU811  SER814 

> <Gold.Protein.RotatedAtoms>
  152.5177  134.3597  159.9280 H   0  0  0  0  0  0  0  0  0  0  0  0  # atno 6907 bound_to 6896
  151.3549  133.3905  159.2691 H   0  0  0  0  0  0  0  0  0  0  0  0  # atno 6908 bound_to 6896
  150.9697  134.9091  159.7839 H   0  0  0  0  0  0  0  0  0  0  0  0  # atno 6909 bound_to 6896
  146.1867  139.7406  142.8862 H   0  0  0  0  0  0  0  0  0  0  0  0  # atno 7974 bound_to 7965
  156.0940  140.3253  155.7853 H   0  0  0  0  0  0  0  0  0  0  0  0  # atno 8008 bound_to 7997
  155.4949  140.0564  157.2965 H   0  0  0  0  0  0  0  0  0  0  0  0  # atno 8009 bound_to 7997
  154.4655  140.1987  156.0146 H   0  0  0  0  0  0  0  0  0  0  0  0  # atno 8010 bound_to 7997
  140.7264  143.3960  151.1347 H   0  0  0  0  0  0  0  0  0  0  0  0  # atno 10167 bound_to 10162
  157.5655  131.1087  150.8462 H   0  0  0  0  0  0  0  0  0  0  0  0  # atno 10718 bound_to 10713
  152.9873  135.6118  154.3019 H   0  0  0  0  0  0  0  0  0  0  0  0  # atno 10763 bound_to 10752
  154.2739  135.2779  155.2728 H   0  0  0  0  0  0  0  0  0  0  0  0  # atno 10764 bound_to 10752
  154.5097  135.5844  153.6652 H   0  0  0  0  0  0  0  0  0  0  0  0  # atno 10765 bound_to 10752
  141.1183  133.8569  157.1376 H   0  0  0  0  0  0  0  0  0  0  0  0  # atno 11005 bound_to 11000
  145.3918  141.0373  143.3120 LP  0  0  0  0  0  0  0  0  0  0  0  0  # atno 17320 bound_to 7965
  144.8410  139.5473  143.6900 LP  0  0  0  0  0  0  0  0  0  0  0  0  # atno 17321 bound_to 7965
  139.7572  143.8689  152.3092 LP  0  0  0  0  0  0  0  0  0  0  0  0  # atno 17342 bound_to 10162
  139.8563  144.7140  150.9153 LP  0  0  0  0  0  0  0  0  0  0  0  0  # atno 17343 bound_to 10162
  156.8948  130.5225  149.5285 LP  0  0  0  0  0  0  0  0  0  0  0  0  # atno 17370 bound_to 10713
  156.0703  130.5738  150.9371 LP  0  0  0  0  0  0  0  0  0  0  0  0  # atno 17371 bound_to 10713
  140.0121  134.9983  157.0418 LP  0  0  0  0  0  0  0  0  0  0  0  0  # atno 17394 bound_to 11000
  140.4581  134.1512  155.7188 LP  0  0  0  0  0  0  0  0  0  0  0  0  # atno 17395 bound_to 11000

$$$$
