AV-unprocessed.smi:1758|AV-procd|sdf|7081|dock7
  -GOLD-   22720 8303D 1   1.00000     0.00000
 Structure written by MMmdl.
 44 46  0  0  0  0  0  0  0  0  2 V2000
  150.7648  141.6221  157.3409 C   0  0  0  0  0  0  0  0  0  0  0  0
  151.5990  140.3573  157.1068 C   0  0  0  0  0  0  0  0  0  0  0  0
  151.0295  139.5231  156.0669 N   0  0  0  0  0  0  0  0  0  0  0  0
  150.6236  138.2062  156.1559 C   0  0  0  0  0  0  0  0  0  0  0  0
  150.1618  137.8776  154.9126 C   0  0  0  0  0  0  0  0  0  0  0  0
  149.6341  136.6478  154.4443 N   0  0  0  0  0  0  0  0  0  0  0  0
  149.4003  135.5356  155.1600 C   0  0  0  0  0  0  0  0  0  0  0  0
  149.5831  135.4232  156.3720 O   0  0  0  0  0  0  0  0  0  0  0  0
  148.9324  134.5483  154.3834 N   0  0  0  0  0  0  0  0  0  0  0  0
  148.5731  133.2082  154.8393 C   0  0  2  0  0  0  0  0  0  0  0  0
  149.7833  132.3774  155.3018 C   0  0  0  0  0  0  0  0  0  0  0  0
  149.5030  130.9422  154.8115 C   0  0  0  0  0  0  0  0  0  0  0  0
  148.1580  130.9917  154.2063 N   0  3  2  0  0  0  0  0  0  0  0  0
  147.8352  129.9670  153.1895 C   0  0  0  0  0  0  0  0  0  0  0  0
  146.3701  130.1401  152.7396 C   0  0  0  0  0  0  0  0  0  0  0  0
  146.0748  131.5838  152.2822 C   0  0  0  0  0  0  0  0  0  0  0  0
  146.5177  132.6070  153.3462 C   0  0  0  0  0  0  0  0  0  0  0  0
  147.9921  132.3644  153.7060 C   0  0  1  0  0  0  0  0  0  0  0  0
  150.3171  139.0451  154.1208 C   0  0  0  0  0  0  0  0  0  0  0  0
  150.8417  140.0359  154.8256 N   0  0  0  0  0  0  0  0  0  0  0  0
  151.1969  142.2290  158.1367 H   0  0  0  0  0  0  0  0  0  0  0  0
  149.7437  141.3716  157.6295 H   0  0  0  0  0  0  0  0  0  0  0  0
  150.7189  142.2371  156.4415 H   0  0  0  0  0  0  0  0  0  0  0  0
  152.6200  140.6210  156.8272 H   0  0  0  0  0  0  0  0  0  0  0  0
  151.6633  139.7736  158.0260 H   0  0  0  0  0  0  0  0  0  0  0  0
  150.7019  137.6429  157.0740 H   0  0  0  0  0  0  0  0  0  0  0  0
  149.4231  136.6092  153.4580 H   0  0  0  0  0  0  0  0  0  0  0  0
  148.8173  134.7390  153.3986 H   0  0  0  0  0  0  0  0  0  0  0  0
  147.8484  133.2435  155.6554 H   0  0  0  0  0  0  0  0  0  0  0  0
  150.7115  132.7433  154.8605 H   0  0  0  0  0  0  0  0  0  0  0  0
  149.8969  132.4219  156.3855 H   0  0  0  0  0  0  0  0  0  0  0  0
  150.2418  130.6526  154.0625 H   0  0  0  0  0  0  0  0  0  0  0  0
  149.5359  130.2116  155.6202 H   0  0  0  0  0  0  0  0  0  0  0  0
  148.5106  130.0615  152.3378 H   0  0  0  0  0  0  0  0  0  0  0  0
  147.9842  128.9726  153.6118 H   0  0  0  0  0  0  0  0  0  0  0  0
  146.1408  129.4395  151.9359 H   0  0  0  0  0  0  0  0  0  0  0  0
  145.7073  129.8844  153.5675 H   0  0  0  0  0  0  0  0  0  0  0  0
  146.6004  131.7820  151.3473 H   0  0  0  0  0  0  0  0  0  0  0  0
  145.0117  131.6999  152.0692 H   0  0  0  0  0  0  0  0  0  0  0  0
  146.3807  133.6221  152.9724 H   0  0  0  0  0  0  0  0  0  0  0  0
  145.8926  132.5125  154.2353 H   0  0  0  0  0  0  0  0  0  0  0  0
  148.6104  132.4861  152.8132 H   0  0  0  0  0  0  0  0  0  0  0  0
  150.0729  139.2044  153.0808 H   0  0  0  0  0  0  0  0  0  0  0  0
  147.4983  130.8832  154.9634 H   0  0  0  0  0  0  0  0  0  0  0  0
  1  2  1  0  0  0  0
  1 21  1  0  0  0  0
  1 22  1  0  0  0  0
  1 23  1  0  0  0  0
  2  3  1  0  0  0  0
  2 24  1  0  0  0  0
  2 25  1  0  0  0  0
  3 20  1  0  0  0  0
  3  4  1  0  0  0  0
  4  5  2  0  0  0  0
  4 26  1  0  0  0  0
  5  6  1  0  0  0  0
  5 19  1  0  0  0  0
  6  7  1  0  0  0  0
  6 27  1  0  0  0  0
  7  8  2  0  0  0  0
  7  9  1  0  0  0  0
  9 10  1  0  0  0  0
  9 28  1  0  0  0  0
 10 18  1  0  0  0  0
 10 11  1  0  0  0  0
 10 29  1  0  0  0  0
 11 12  1  0  0  0  0
 11 30  1  0  0  0  0
 11 31  1  0  0  0  0
 12 13  1  0  0  0  0
 12 32  1  0  0  0  0
 12 33  1  0  0  0  0
 13 18  1  0  0  0  0
 13 14  1  0  0  0  0
 13 44  1  0  0  0  0
 14 15  1  0  0  0  0
 14 34  1  0  0  0  0
 14 35  1  0  0  0  0
 15 16  1  0  0  0  0
 15 36  1  0  0  0  0
 15 37  1  0  0  0  0
 16 17  1  0  0  0  0
 16 38  1  0  0  0  0
 16 39  1  0  0  0  0
 17 18  1  0  0  0  0
 17 40  1  0  0  0  0
 17 41  1  0  0  0  0
 18 42  1  0  0  0  0
 19 20  2  0  0  0  0
 19 43  1  0  0  0  0
M  CHG  1  13   1
M  END
> <s_m_source_file>
AV-unprocessed.smi

> <i_m_source_file_index>
1758

> <i_lp_mmshare_version>
43012

> <i_f3d_flags>
0

> <s_epik_input>
W0NIM11bQ0gyXW4xW2NIXWMoW2NIXW4xKVtOSF1DKD1PKVtOSF1bQ0BIXShbQ0gyXVtDSDJdMilbQ0BASF0oTjIzKVtDSDJdW0NIMl1bQ0gyXVtDSDJdMw==

> <s_epik_cmdline>
J2VwaWtfcHl0aG9uJywgJy1waCcsICc3LjAnLCAnLXRuJywgJzgnLCAnLW1hJywgJzIwMCcsICctbWV0YWxfYmluZGluZycsICctaW1hZScsICc8aW5maWxlLm1hZT4nLCAnLW9tYWUnLCAnPG91dGZpbGUubWFlPic=

> <r_lp_tautomer_probability>
1

> <r_epik_Ionization_Penalty>
0.00111541

> <r_epik_Ionization_Penalty_Charging>
0.000974069

> <r_epik_Ionization_Penalty_Neutral>
0.000141346

> <r_epik_State_Penalty>
0.000633842

> <r_epik_Charging_Adjusted_Penalty>
0.00160791

> <i_epik_Tot_Q>
1

> <i_epik_Tot_abs_Q>
1

> <r_epik_Metal_State_Penalty>
-0

> <b_epik_Metal_Only>
0

> <s_lp_Force_Field>
OPLS_2005

> <r_lp_Energy>
39.1276

> <b_lp_Chiralities_Consistent>
1

> <s_lp_Variant>
AV-unprocessed.smi:1758-3

> <Gold.Version>
5.8.1

> <Gold.Id.Protein>
6NUR|6NUR_protein|mol2

> <Gold.PLP.Fitness>
42.6913

> <Gold.PLP.PLP>
-31.2357

> <Gold.PLP.part.hbond>
-3.4264

> <Gold.PLP.part.metal>
0.0000

> <Gold.PLP.part.buried>
-1.7179

> <Gold.PLP.part.nonpolar>
-25.3305

> <Gold.PLP.part.repulsive>
0.1434

> <Gold.PLP.ligand.clash>
0.0000

> <Gold.PLP.ligand.torsion>
0.0448

> <Gold.PLP.Chemscore.Hbond>
2.8447

> <Gold.PLP.Chemscore.CHOScore>
1.0000

> <Gold.PLP.Chemscore.Metal>
0.0000

> <Gold.Chemscore.Hbonds>
donor molecule, donor type, donor heavy atom, donor atom, acceptor molecule, acceptor atom, score
      L1  H     6    27       P1  7948  1.00
      L1  H     9    28       P1  7948  0.75
      P1  H  7989  7998       L1    20  0.90
      L1  C    19    43       P1  7957  1.00

> <Gold.PLP.Chemscore.Internal.Correction>
0.0110

> <Gold.Rescore>
     Score         DG    S(hbond)    S(metal)    S(lipo)     H(rot)  DE(clash)    DE(int)     intcor
     15.16     -16.48       1.73        0.00      70.71       1.19       0.07       1.25       ----

> <Gold.Chemscore.Fitness>
15.1613

> <Gold.Chemscore.DG>
-16.4786

> <Gold.Chemscore.ZeroCoef>
-5.4800

> <Gold.Chemscore.Hbond>
1.7270

> <Gold.Chemscore.Metal>
0.0000

> <Gold.Chemscore.Lipo>
70.7067

> <Gold.Chemscore.Internal_Hbond>
0.0000

> <Gold.Chemscore.DEClash>
0.0707

> <Gold.Chemscore.DEInternal>
1.2465

> <Gold.Chemscore.Rot>
1.1884

> <Gold.Chemscore.Internal.Correction>
   9.000000E+99

> <Gold.Chemscore.Hbonds>
donor molecule, donor type, donor heavy atom, donor atom, acceptor molecule, acceptor atom, score
      L1  H     6    27       P1  7948  0.82
      L1  H     9    28       P1  7948  0.22
      P1  H  7989  7998       L1    20  0.18

> <Gold.Chemscore.Hbond.Weighted>
-5.7682

> <Gold.Chemscore.Metal.Weighted>
-0.0000

> <Gold.Chemscore.Lipo.Weighted>
-8.2727

> <Gold.Chemscore.Internal_Hbond.Weighted>
0.0000

> <Gold.Chemscore.DEClash.Weighted>
0.0707

> <Gold.Chemscore.DEInternal.Weighted>
1.2465

> <Gold.Chemscore.Rot.Weighted>
3.0423

> <Gold.Chemscore.Internal.Correction.Weighted>
   9.000000E+99

> <Gold.Protein.RotatedTorsions>
[ 6907 6896 6895 6894 ] final -108.82 input  -60.11 | X-H torsion
[ 7974 7965 7964 7962 ] final   76.37 input  175.53 | X-H torsion
[ 8008 7997 7996 7995 ] final  174.37 input   59.86 | X-H torsion
[ 10167 10162 10161 10158 ] final -125.81 input  -65.29 | X-H torsion
[ 10718 10713 10712 10709 ] final  121.34 input   66.30 | X-H torsion
[ 10763 10752 10751 10750 ] final -102.66 input  -60.55 | X-H torsion
[ 11005 11000 10999 10996 ] final  -95.61 input  -57.11 | X-H torsion

> <Gold.Protein.ActiveResidues>
 VAL166  LYS551  ARG553  GLY616  TRP617  ASP618  TYR619  PRO620  LYS621  CYS622 
 ASP623  PHE694  ASN695  SER759  ASP760  ASP761  ALA762  ILE779  LEU786  VAL792 
 PHE793  MET794  SER795  GLU796  ALA797  LYS798  CYS799  TRP800  GLU811  SER814 

> <Gold.Protein.RotatedAtoms>
  150.7524  133.9621  159.3518 H   0  0  0  0  0  0  0  0  0  0  0  0  # atno 6907 bound_to 6896
  151.7548  135.0822  160.0346 H   0  0  0  0  0  0  0  0  0  0  0  0  # atno 6908 bound_to 6896
  152.3442  133.6066  159.5934 H   0  0  0  0  0  0  0  0  0  0  0  0  # atno 6909 bound_to 6896
  145.7037  139.2591  143.1690 H   0  0  0  0  0  0  0  0  0  0  0  0  # atno 7974 bound_to 7965
  156.0981  140.1436  156.9504 H   0  0  0  0  0  0  0  0  0  0  0  0  # atno 8008 bound_to 7997
  154.4684  140.0918  156.7128 H   0  0  0  0  0  0  0  0  0  0  0  0  # atno 8009 bound_to 7997
  155.4806  140.3445  155.4341 H   0  0  0  0  0  0  0  0  0  0  0  0  # atno 8010 bound_to 7997
  139.9781  143.5772  152.2388 H   0  0  0  0  0  0  0  0  0  0  0  0  # atno 10167 bound_to 10162
  157.5824  131.1073  150.8160 H   0  0  0  0  0  0  0  0  0  0  0  0  # atno 10718 bound_to 10713
  154.7750  135.4852  153.9726 H   0  0  0  0  0  0  0  0  0  0  0  0  # atno 10763 bound_to 10752
  153.1417  135.6774  153.9024 H   0  0  0  0  0  0  0  0  0  0  0  0  # atno 10764 bound_to 10752
  153.8696  135.3145  155.3420 H   0  0  0  0  0  0  0  0  0  0  0  0  # atno 10765 bound_to 10752
  141.1437  133.8038  157.0458 H   0  0  0  0  0  0  0  0  0  0  0  0  # atno 11005 bound_to 11000
  146.0774  140.7801  142.9658 LP  0  0  0  0  0  0  0  0  0  0  0  0  # atno 17320 bound_to 7965
  144.6961  140.3437  143.7194 LP  0  0  0  0  0  0  0  0  0  0  0  0  # atno 17321 bound_to 7965
  139.6430  144.7656  151.2300 LP  0  0  0  0  0  0  0  0  0  0  0  0  # atno 17342 bound_to 10162
  140.7499  143.6285  150.8445 LP  0  0  0  0  0  0  0  0  0  0  0  0  # atno 17343 bound_to 10162
  156.8603  130.5111  149.5304 LP  0  0  0  0  0  0  0  0  0  0  0  0  # atno 17370 bound_to 10713
  156.0871  130.5867  150.9668 LP  0  0  0  0  0  0  0  0  0  0  0  0  # atno 17371 bound_to 10713
  140.0663  134.9727  157.1392 LP  0  0  0  0  0  0  0  0  0  0  0  0  # atno 17394 bound_to 11000
  140.3775  134.2323  155.7173 LP  0  0  0  0  0  0  0  0  0  0  0  0  # atno 17395 bound_to 11000

$$$$
