AV-unprocessed.smi:3165|AV-procd|sdf|12089|dock9
  -GOLD-   2272017523D 1   1.00000     0.00000
 Structure written by MMmdl.
 37 38  0  0  0  0  0  0  0  0  1 V2000
  148.1042  141.7508  154.2853 C   0  0  0  0  0  0  0  0  0  0  0  0
  149.4391  141.3741  154.9472 C   0  0  2  0  0  0  0  0  0  0  0  0
  149.4935  139.8797  155.3554 C   0  0  0  0  0  0  0  0  0  0  0  0
  150.7433  139.2183  155.0145 N   0  0  0  0  0  0  0  0  0  0  0  0
  152.0250  139.5531  155.3994 C   0  0  0  0  0  0  0  0  0  0  0  0
  152.8709  138.6397  154.8387 C   0  0  0  0  0  0  0  0  0  0  0  0
  152.0020  137.7700  154.1227 C   0  0  0  0  0  0  0  0  0  0  0  0
  150.7301  138.1150  154.2348 N   0  0  0  0  0  0  0  0  0  0  0  0
  149.7017  142.2884  156.0645 N   0  0  0  0  0  0  0  0  0  0  0  0
  150.9739  142.0939  156.7590 C   0  0  0  0  0  0  0  0  0  0  0  0
  150.9816  142.8237  158.1093 C   0  0  2  0  0  0  0  0  0  0  0  0
  151.2563  144.3304  157.9369 C   0  0  0  0  0  0  0  0  0  0  0  0
  151.3551  145.0224  159.3011 C   0  0  0  0  0  0  0  0  0  0  0  0
  152.3813  144.2952  160.1765 C   0  0  0  0  0  0  0  0  0  0  0  0
  152.0662  142.7922  160.2317 C   0  0  0  0  0  0  0  0  0  0  0  0
  152.0177  142.2599  158.9118 O   0  0  0  0  0  0  0  0  0  0  0  0
  147.8806  141.0883  153.4487 H   0  0  0  0  0  0  0  0  0  0  0  0
  148.1344  142.7692  153.8969 H   0  0  0  0  0  0  0  0  0  0  0  0
  147.2732  141.6925  154.9887 H   0  0  0  0  0  0  0  0  0  0  0  0
  150.2147  141.5266  154.1958 H   0  0  0  0  0  0  0  0  0  0  0  0
  149.3625  139.8002  156.4351 H   0  0  0  0  0  0  0  0  0  0  0  0
  148.6656  139.3165  154.9243 H   0  0  0  0  0  0  0  0  0  0  0  0
  152.2252  140.4061  156.0309 H   0  0  0  0  0  0  0  0  0  0  0  0
  153.9461  138.5986  154.9268 H   0  0  0  0  0  0  0  0  0  0  0  0
  152.2554  136.9025  153.5313 H   0  0  0  0  0  0  0  0  0  0  0  0
  149.6301  143.2492  155.7457 H   0  0  0  0  0  0  0  0  0  0  0  0
  151.1792  141.0359  156.9200 H   0  0  0  0  0  0  0  0  0  0  0  0
  151.7831  142.4815  156.1390 H   0  0  0  0  0  0  0  0  0  0  0  0
  150.0166  142.6866  158.6014 H   0  0  0  0  0  0  0  0  0  0  0  0
  152.1885  144.4728  157.3884 H   0  0  0  0  0  0  0  0  0  0  0  0
  150.4695  144.7939  157.3411 H   0  0  0  0  0  0  0  0  0  0  0  0
  151.6336  146.0693  159.1785 H   0  0  0  0  0  0  0  0  0  0  0  0
  150.3802  145.0109  159.7904 H   0  0  0  0  0  0  0  0  0  0  0  0
  153.3816  144.4417  159.7674 H   0  0  0  0  0  0  0  0  0  0  0  0
  152.3886  144.7178  161.1814 H   0  0  0  0  0  0  0  0  0  0  0  0
  152.8392  142.2681  160.7939 H   0  0  0  0  0  0  0  0  0  0  0  0
  151.1207  142.6095  160.7445 H   0  0  0  0  0  0  0  0  0  0  0  0
  1  2  1  0  0  0  0
  1 17  1  0  0  0  0
  1 18  1  0  0  0  0
  1 19  1  0  0  0  0
  2  3  1  0  0  0  0
  2  9  1  0  0  0  0
  2 20  1  0  0  0  0
  3  4  1  0  0  0  0
  3 21  1  0  0  0  0
  3 22  1  0  0  0  0
  4  8  1  0  0  0  0
  4  5  1  0  0  0  0
  5  6  2  0  0  0  0
  5 23  1  0  0  0  0
  6  7  1  0  0  0  0
  6 24  1  0  0  0  0
  7  8  2  0  0  0  0
  7 25  1  0  0  0  0
  9 10  1  0  0  0  0
  9 26  1  0  0  0  0
 10 11  1  0  0  0  0
 10 27  1  0  0  0  0
 10 28  1  0  0  0  0
 11 16  1  0  0  0  0
 11 12  1  0  0  0  0
 11 29  1  0  0  0  0
 12 13  1  0  0  0  0
 12 30  1  0  0  0  0
 12 31  1  0  0  0  0
 13 14  1  0  0  0  0
 13 32  1  0  0  0  0
 13 33  1  0  0  0  0
 14 15  1  0  0  0  0
 14 34  1  0  0  0  0
 14 35  1  0  0  0  0
 15 16  1  0  0  0  0
 15 36  1  0  0  0  0
 15 37  1  0  0  0  0
M  END
> <s_m_source_file>
AV-unprocessed.smi

> <i_m_source_file_index>
3165

> <i_lp_mmshare_version>
43012

> <i_f3d_flags>
0

> <s_epik_input>
bjFbY0hdW2NIXVtjSF1uMVtDSDJdW0NAQEhdKFtDSDNdKVtOSF1bQ0gyXVtDQEBIXTJbQ0gyXVtDSDJdW0NIMl1bQ0gyXU8y

> <s_epik_cmdline>
J2VwaWtfcHl0aG9uJywgJy1waCcsICc3LjAnLCAnLXRuJywgJzgnLCAnLW1hJywgJzIwMCcsICctbWV0YWxfYmluZGluZycsICctaW1hZScsICc8aW5maWxlLm1hZT4nLCAnLW9tYWUnLCAnPG91dGZpbGUubWFlPic=

> <r_lp_tautomer_probability>
1

> <r_epik_Ionization_Penalty>
2.51982

> <r_epik_Ionization_Penalty_Charging>
0

> <r_epik_Ionization_Penalty_Neutral>
2.51982

> <r_epik_State_Penalty>
2.68614

> <r_epik_Charging_Adjusted_Penalty>
2.68614

> <i_epik_Tot_Q>
0

> <i_epik_Tot_abs_Q>
0

> <r_epik_Metal_State_Penalty>
2.6861

> <b_epik_Metal_Only>
0

> <s_lp_Force_Field>
OPLS_2005

> <r_lp_Energy>
14.3424

> <b_lp_Chiralities_Consistent>
1

> <s_lp_Variant>
AV-unprocessed.smi:3165-5

> <Gold.Version>
5.8.1

> <Gold.Id.Protein>
6NUR|6NUR_protein|mol2

> <Gold.PLP.Fitness>
45.1485

> <Gold.PLP.PLP>
-40.8076

> <Gold.PLP.part.hbond>
-1.0000

> <Gold.PLP.part.metal>
0.0000

> <Gold.PLP.part.buried>
-4.1408

> <Gold.PLP.part.nonpolar>
-36.1139

> <Gold.PLP.part.repulsive>
0.2235

> <Gold.PLP.ligand.clash>
0.0000

> <Gold.PLP.ligand.torsion>
0.8420

> <Gold.PLP.Chemscore.Hbond>
1.0000

> <Gold.PLP.Chemscore.CHOScore>
1.0000

> <Gold.PLP.Chemscore.Metal>
0.0000

> <Gold.Chemscore.Hbonds>
donor molecule, donor type, donor heavy atom, donor atom, acceptor molecule, acceptor atom, score
      L1  H     9    26       P1  8028  1.00
      L1  C     7    25       P1  7949  1.00

> <Gold.PLP.Chemscore.Internal.Correction>
0.0249

> <Gold.Rescore>
     Score         DG    S(hbond)    S(metal)    S(lipo)     H(rot)  DE(clash)    DE(int)     intcor
     16.49     -17.41       0.97        0.00     108.62       1.57       0.07       0.86       ----

> <Gold.Chemscore.Fitness>
16.4860

> <Gold.Chemscore.DG>
-17.4147

> <Gold.Chemscore.ZeroCoef>
-5.4800

> <Gold.Chemscore.Hbond>
0.9740

> <Gold.Chemscore.Metal>
0.0000

> <Gold.Chemscore.Lipo>
108.6219

> <Gold.Chemscore.Internal_Hbond>
0.0000

> <Gold.Chemscore.DEClash>
0.0675

> <Gold.Chemscore.DEInternal>
0.8613

> <Gold.Chemscore.Rot>
1.5731

> <Gold.Chemscore.Internal.Correction>
   9.000000E+99

> <Gold.Chemscore.Hbonds>
donor molecule, donor type, donor heavy atom, donor atom, acceptor molecule, acceptor atom, score
      L1  H     9    26       P1  8028  0.97

> <Gold.Chemscore.Hbond.Weighted>
-3.2532

> <Gold.Chemscore.Metal.Weighted>
-0.0000

> <Gold.Chemscore.Lipo.Weighted>
-12.7088

> <Gold.Chemscore.Internal_Hbond.Weighted>
0.0000

> <Gold.Chemscore.DEClash.Weighted>
0.0675

> <Gold.Chemscore.DEInternal.Weighted>
0.8613

> <Gold.Chemscore.Rot.Weighted>
4.0273

> <Gold.Chemscore.Internal.Correction.Weighted>
   9.000000E+99

> <Gold.Protein.RotatedTorsions>
[ 6907 6896 6895 6894 ] final  127.12 input  -60.11 | X-H torsion
[ 7974 7965 7964 7962 ] final  -46.57 input  175.53 | X-H torsion
[ 8008 7997 7996 7995 ] final  131.28 input   59.86 | X-H torsion
[ 10167 10162 10161 10158 ] final  160.06 input  -65.29 | X-H torsion
[ 10718 10713 10712 10709 ] final   80.02 input   66.30 | X-H torsion
[ 10763 10752 10751 10750 ] final  179.79 input  -60.55 | X-H torsion
[ 11005 11000 10999 10996 ] final  106.28 input  -57.11 | X-H torsion

> <Gold.Protein.ActiveResidues>
 VAL166  LYS551  ARG553  GLY616  TRP617  ASP618  TYR619  PRO620  LYS621  CYS622 
 ASP623  PHE694  ASN695  SER759  ASP760  ASP761  ALA762  ILE779  LEU786  VAL792 
 PHE793  MET794  SER795  GLU796  ALA797  LYS798  CYS799  TRP800  GLU811  SER814 

> <Gold.Protein.RotatedAtoms>
  152.3842  133.6587  159.6184 H   0  0  0  0  0  0  0  0  0  0  0  0  # atno 6907 bound_to 6896
  150.7765  133.9064  159.3365 H   0  0  0  0  0  0  0  0  0  0  0  0  # atno 6908 bound_to 6896
  151.6863  135.0955  160.0277 H   0  0  0  0  0  0  0  0  0  0  0  0  # atno 6909 bound_to 6896
  145.9705  140.7388  142.9412 H   0  0  0  0  0  0  0  0  0  0  0  0  # atno 7974 bound_to 7965
  156.2967  140.2575  156.2900 H   0  0  0  0  0  0  0  0  0  0  0  0  # atno 8008 bound_to 7997
  154.9519  140.0394  157.2167 H   0  0  0  0  0  0  0  0  0  0  0  0  # atno 8009 bound_to 7997
  154.8028  140.2831  155.5914 H   0  0  0  0  0  0  0  0  0  0  0  0  # atno 8010 bound_to 7997
  139.4837  144.4671  151.8627 H   0  0  0  0  0  0  0  0  0  0  0  0  # atno 10167 bound_to 10162
  157.6794  130.9940  150.2018 H   0  0  0  0  0  0  0  0  0  0  0  0  # atno 10718 bound_to 10713
  154.5252  135.2796  155.1228 H   0  0  0  0  0  0  0  0  0  0  0  0  # atno 10763 bound_to 10752
  154.2770  135.6292  153.5336 H   0  0  0  0  0  0  0  0  0  0  0  0  # atno 10764 bound_to 10752
  152.9945  135.5642  154.5751 H   0  0  0  0  0  0  0  0  0  0  0  0  # atno 10765 bound_to 10752
  139.8812  134.9364  156.5642 H   0  0  0  0  0  0  0  0  0  0  0  0  # atno 11005 bound_to 11000
  144.6836  140.2741  143.7301 LP  0  0  0  0  0  0  0  0  0  0  0  0  # atno 17320 bound_to 7965
  145.7912  139.1928  143.2101 LP  0  0  0  0  0  0  0  0  0  0  0  0  # atno 17321 bound_to 7965
  140.4137  144.2335  150.5888 LP  0  0  0  0  0  0  0  0  0  0  0  0  # atno 17342 bound_to 10162
  140.4942  143.2338  151.8774 LP  0  0  0  0  0  0  0  0  0  0  0  0  # atno 17343 bound_to 10162
  156.2707  130.3721  149.8035 LP  0  0  0  0  0  0  0  0  0  0  0  0  # atno 17370 bound_to 10713
  156.5752  130.8442  151.3368 LP  0  0  0  0  0  0  0  0  0  0  0  0  # atno 17371 bound_to 10713
  140.8146  133.8402  155.8841 LP  0  0  0  0  0  0  0  0  0  0  0  0  # atno 17394 bound_to 11000
  140.9474  134.1822  157.4753 LP  0  0  0  0  0  0  0  0  0  0  0  0  # atno 17395 bound_to 11000

$$$$
