AV-unprocessed.smi:1224|AV-procd|sdf|5133|dock8
  -GOLD-   22720 4193D 1   1.00000     0.00000
 Structure written by MMmdl.
 43 45  0  0  0  0  0  0  0  0  1 V2000
  153.7745  142.0180  161.8461 C   0  0  0  0  0  0  0  0  0  0  0  0
  153.1804  141.7091  160.4830 C   0  0  0  0  0  0  0  0  0  0  0  0
  152.3238  142.6550  159.8759 C   0  0  0  0  0  0  0  0  0  0  0  0
  151.7516  142.4059  158.6092 C   0  0  0  0  0  0  0  0  0  0  0  0
  150.8971  143.1786  157.8414 N   0  0  0  0  0  0  0  0  0  0  0  0
  150.7229  142.4051  156.7738 C   0  0  0  0  0  0  0  0  0  0  0  0
  151.3721  141.2248  156.7548 N   0  0  0  0  0  0  0  0  0  0  0  0
  151.3423  140.2239  155.7033 C   0  0  0  0  0  0  0  0  0  0  0  0
  149.9650  140.1225  155.0183 C   0  0  1  0  0  0  0  0  0  0  0  0
  150.0126  140.9213  153.8546 O   0  0  0  0  0  0  0  0  0  0  0  0
  149.5844  138.6871  154.6068 C   0  0  0  0  0  0  0  0  0  0  0  0
  148.8642  138.6759  153.3374 N   0  0  0  0  0  0  0  0  0  0  0  0
  147.4197  138.7960  153.4981 C   0  0  0  0  0  0  0  0  0  0  0  0
  147.0255  140.1378  154.0177 C   0  0  0  0  0  0  0  0  0  0  0  0
  147.0732  141.3408  153.3598 C   0  0  0  0  0  0  0  0  0  0  0  0
  146.6205  142.4338  154.1558 C   0  0  0  0  0  0  0  0  0  0  0  0
  146.2331  142.0502  155.4122 C   0  0  0  0  0  0  0  0  0  0  0  0
  146.4169  140.3328  155.6422 S   0  0  0  0  0  0  0  0  0  0  0  0
  152.0640  141.1759  157.9600 C   0  0  0  0  0  0  0  0  0  0  0  0
  152.9131  140.2260  158.5546 C   0  0  0  0  0  0  0  0  0  0  0  0
  153.4755  140.4903  159.8210 C   0  0  0  0  0  0  0  0  0  0  0  0
  154.3917  139.4582  160.4543 C   0  0  0  0  0  0  0  0  0  0  0  0
  153.4464  142.9912  162.2127 H   0  0  0  0  0  0  0  0  0  0  0  0
  154.8633  142.0306  161.7939 H   0  0  0  0  0  0  0  0  0  0  0  0
  153.4709  141.2663  162.5750 H   0  0  0  0  0  0  0  0  0  0  0  0
  152.0981  143.5832  160.3797 H   0  0  0  0  0  0  0  0  0  0  0  0
  150.0931  142.7179  155.9537 H   0  0  0  0  0  0  0  0  0  0  0  0
  152.1103  140.4807  154.9723 H   0  0  0  0  0  0  0  0  0  0  0  0
  151.6266  139.2607  156.1301 H   0  0  0  0  0  0  0  0  0  0  0  0
  149.2074  140.5325  155.6878 H   0  0  0  0  0  0  0  0  0  0  0  0
  149.6647  140.4172  153.1345 H   0  0  0  0  0  0  0  0  0  0  0  0
  150.4718  138.0543  154.5571 H   0  0  0  0  0  0  0  0  0  0  0  0
  148.9398  138.2477  155.3679 H   0  0  0  0  0  0  0  0  0  0  0  0
  149.2004  139.4392  152.7587 H   0  0  0  0  0  0  0  0  0  0  0  0
  146.9243  138.6245  152.5419 H   0  0  0  0  0  0  0  0  0  0  0  0
  147.0567  138.0212  154.1743 H   0  0  0  0  0  0  0  0  0  0  0  0
  147.4148  141.4719  152.3433 H   0  0  0  0  0  0  0  0  0  0  0  0
  146.5957  143.4476  153.7843 H   0  0  0  0  0  0  0  0  0  0  0  0
  145.8525  142.6676  156.2127 H   0  0  0  0  0  0  0  0  0  0  0  0
  153.1294  139.3018  158.0394 H   0  0  0  0  0  0  0  0  0  0  0  0
  154.5082  138.5836  159.8137 H   0  0  0  0  0  0  0  0  0  0  0  0
  153.9866  139.1216  161.4088 H   0  0  0  0  0  0  0  0  0  0  0  0
  155.3819  139.8805  160.6271 H   0  0  0  0  0  0  0  0  0  0  0  0
  1  2  1  0  0  0  0
  1 23  1  0  0  0  0
  1 24  1  0  0  0  0
  1 25  1  0  0  0  0
  2 21  1  0  0  0  0
  2  3  2  0  0  0  0
  3  4  1  0  0  0  0
  3 26  1  0  0  0  0
  4 19  2  0  0  0  0
  4  5  1  0  0  0  0
  5  6  2  0  0  0  0
  6  7  1  0  0  0  0
  6 27  1  0  0  0  0
  7  8  1  0  0  0  0
  7 19  1  0  0  0  0
  8  9  1  0  0  0  0
  8 28  1  0  0  0  0
  8 29  1  0  0  0  0
  9 10  1  0  0  0  0
  9 11  1  0  0  0  0
  9 30  1  0  0  0  0
 10 31  1  0  0  0  0
 11 12  1  0  0  0  0
 11 32  1  0  0  0  0
 11 33  1  0  0  0  0
 12 13  1  0  0  0  0
 12 34  1  0  0  0  0
 13 14  1  0  0  0  0
 13 35  1  0  0  0  0
 13 36  1  0  0  0  0
 14 18  1  0  0  0  0
 14 15  2  0  0  0  0
 15 16  1  0  0  0  0
 15 37  1  0  0  0  0
 16 17  2  0  0  0  0
 16 38  1  0  0  0  0
 17 18  1  0  0  0  0
 17 39  1  0  0  0  0
 19 20  1  0  0  0  0
 20 21  2  0  0  0  0
 20 40  1  0  0  0  0
 21 22  1  0  0  0  0
 22 41  1  0  0  0  0
 22 42  1  0  0  0  0
 22 43  1  0  0  0  0
M  END
> <s_m_source_file>
AV-unprocessed.smi

> <i_m_source_file_index>
1224

> <i_lp_mmshare_version>
43012

> <i_f3d_flags>
0

> <s_epik_input>
W0NIM11jKFtjSF0xKWMoW0NIM10pW2NIXWMoYzEyKW4oW2NIXW4yKVtDSDJdW0NASF0oW09IXSlbQ0gyXVtOSF1bQ0gyXWMzW2NIXVtjSF1bY0hdczM=

> <s_epik_cmdline>
J2VwaWtfcHl0aG9uJywgJy1waCcsICc3LjAnLCAnLXRuJywgJzgnLCAnLW1hJywgJzIwMCcsICctbWV0YWxfYmluZGluZycsICctaW1hZScsICc8aW5maWxlLm1hZT4nLCAnLW9tYWUnLCAnPG91dGZpbGUubWFlPic=

> <r_epik_Ionization_Penalty>
1.55566

> <r_epik_Ionization_Penalty_Charging>
0

> <r_epik_Ionization_Penalty_Neutral>
1.55566

> <r_epik_State_Penalty>
1.63945

> <r_epik_Charging_Adjusted_Penalty>
1.63945

> <i_epik_Tot_Q>
0

> <i_epik_Tot_abs_Q>
0

> <r_epik_Metal_State_Penalty>
1.52326

> <b_epik_Metal_Only>
0

> <s_lp_Force_Field>
OPLS_2005

> <r_lp_Energy>
15.3814

> <b_lp_Chiralities_Consistent>
1

> <s_lp_Variant>
AV-unprocessed.smi:1224-6

> <Gold.Version>
5.8.1

> <Gold.Id.Protein>
6NUR|6NUR_protein|mol2

> <Gold.PLP.Fitness>
54.5234

> <Gold.PLP.PLP>
-47.4927

> <Gold.PLP.part.hbond>
-4.3679

> <Gold.PLP.part.metal>
0.0000

> <Gold.PLP.part.buried>
-4.4964

> <Gold.PLP.part.nonpolar>
-38.2833

> <Gold.PLP.part.repulsive>
0.1339

> <Gold.PLP.ligand.clash>
0.0000

> <Gold.PLP.ligand.torsion>
1.6344

> <Gold.PLP.Chemscore.Hbond>
2.4160

> <Gold.PLP.Chemscore.CHOScore>
0.9969

> <Gold.PLP.Chemscore.Metal>
0.0000

> <Gold.Chemscore.Hbonds>
donor molecule, donor type, donor heavy atom, donor atom, acceptor molecule, acceptor atom, score
      L1  H    10    31       P1  7957  0.98
      L1  H    12    34       P1  7957  0.96
      P1  H  7989  7998       L1    10  0.45
      L1  C     6    27       P1  8028  1.00

> <Gold.PLP.Chemscore.Internal.Correction>
0.0610

> <Gold.Rescore>
     Score         DG    S(hbond)    S(metal)    S(lipo)     H(rot)  DE(clash)    DE(int)     intcor
     17.87     -19.98       1.85        0.00     121.78       2.32       0.28       1.84       ----

> <Gold.Chemscore.Fitness>
17.8678

> <Gold.Chemscore.DG>
-19.9849

> <Gold.Chemscore.ZeroCoef>
-5.4800

> <Gold.Chemscore.Hbond>
1.8531

> <Gold.Chemscore.Metal>
0.0000

> <Gold.Chemscore.Lipo>
121.7775

> <Gold.Chemscore.Internal_Hbond>
0.0000

> <Gold.Chemscore.DEClash>
0.2787

> <Gold.Chemscore.DEInternal>
1.8385

> <Gold.Chemscore.Rot>
2.3173

> <Gold.Chemscore.Internal.Correction>
   9.000000E+99

> <Gold.Chemscore.Hbonds>
donor molecule, donor type, donor heavy atom, donor atom, acceptor molecule, acceptor atom, score
      L1  H    10    31       P1  7957  0.89
      L1  H    12    34       P1  7957  0.92
      P1  H  7989  7998       L1    10  0.05

> <Gold.Chemscore.Hbond.Weighted>
-6.1893

> <Gold.Chemscore.Metal.Weighted>
-0.0000

> <Gold.Chemscore.Lipo.Weighted>
-14.2480

> <Gold.Chemscore.Internal_Hbond.Weighted>
0.0000

> <Gold.Chemscore.DEClash.Weighted>
0.2787

> <Gold.Chemscore.DEInternal.Weighted>
1.8385

> <Gold.Chemscore.Rot.Weighted>
5.9324

> <Gold.Chemscore.Internal.Correction.Weighted>
   9.000000E+99

> <Gold.Protein.RotatedTorsions>
[ 6907 6896 6895 6894 ] final  112.80 input  -60.11 | X-H torsion
[ 7974 7965 7964 7962 ] final  100.88 input  175.53 | X-H torsion
[ 8008 7997 7996 7995 ] final  -38.78 input   59.86 | X-H torsion
[ 10167 10162 10161 10158 ] final  -79.83 input  -65.29 | X-H torsion
[ 10718 10713 10712 10709 ] final  -22.82 input   66.30 | X-H torsion
[ 10763 10752 10751 10750 ] final   15.32 input  -60.55 | X-H torsion
[ 11005 11000 10999 10996 ] final  -27.00 input  -57.11 | X-H torsion

> <Gold.Protein.ActiveResidues>
 VAL166  LYS551  ARG553  GLY616  TRP617  ASP618  TYR619  PRO620  LYS621  CYS622 
 ASP623  PHE694  ASN695  SER759  ASP760  ASP761  ALA762  ILE779  LEU786  VAL792 
 PHE793  MET794  SER795  GLU796  ALA797  LYS798  CYS799  TRP800  GLU811  SER814 

> <Gold.Protein.RotatedAtoms>
  152.4896  133.8465  159.7179 H   0  0  0  0  0  0  0  0  0  0  0  0  # atno 6907 bound_to 6896
  150.9014  133.7104  159.2884 H   0  0  0  0  0  0  0  0  0  0  0  0  # atno 6908 bound_to 6896
  151.4544  135.1037  159.9759 H   0  0  0  0  0  0  0  0  0  0  0  0  # atno 6909 bound_to 6896
  145.3797  139.2382  143.3410 H   0  0  0  0  0  0  0  0  0  0  0  0  # atno 7974 bound_to 7965
  154.4032  140.1569  156.2756 H   0  0  0  0  0  0  0  0  0  0  0  0  # atno 8008 bound_to 7997
  155.8915  140.3438  155.5937 H   0  0  0  0  0  0  0  0  0  0  0  0  # atno 8009 bound_to 7997
  155.7553  140.0810  157.2172 H   0  0  0  0  0  0  0  0  0  0  0  0  # atno 8010 bound_to 7997
  140.4557  143.2469  151.8423 H   0  0  0  0  0  0  0  0  0  0  0  0  # atno 10167 bound_to 10162
  156.4993  130.4584  149.6710 H   0  0  0  0  0  0  0  0  0  0  0  0  # atno 10718 bound_to 10713
  153.1536  135.6783  153.8845 H   0  0  0  0  0  0  0  0  0  0  0  0  # atno 10763 bound_to 10752
  153.8263  135.3123  155.3416 H   0  0  0  0  0  0  0  0  0  0  0  0  # atno 10764 bound_to 10752
  154.7881  135.4850  154.0078 H   0  0  0  0  0  0  0  0  0  0  0  0  # atno 10765 bound_to 10752
  140.9079  133.7480  156.0631 H   0  0  0  0  0  0  0  0  0  0  0  0  # atno 11005 bound_to 11000
  146.2848  140.4462  142.8762 LP  0  0  0  0  0  0  0  0  0  0  0  0  # atno 17320 bound_to 7965
  144.8516  140.7010  143.6164 LP  0  0  0  0  0  0  0  0  0  0  0  0  # atno 17321 bound_to 7965
  139.4801  144.5067  151.8988 LP  0  0  0  0  0  0  0  0  0  0  0  0  # atno 17342 bound_to 10162
  140.4153  144.2315  150.5888 LP  0  0  0  0  0  0  0  0  0  0  0  0  # atno 17343 bound_to 10162
  156.3348  130.7351  151.2286 LP  0  0  0  0  0  0  0  0  0  0  0  0  # atno 17370 bound_to 10713
  157.7465  131.0420  150.4672 LP  0  0  0  0  0  0  0  0  0  0  0  0  # atno 17371 bound_to 10713
  140.8147  134.3359  157.5401 LP  0  0  0  0  0  0  0  0  0  0  0  0  # atno 17394 bound_to 11000
  139.8752  134.9274  156.3425 LP  0  0  0  0  0  0  0  0  0  0  0  0  # atno 17395 bound_to 11000

$$$$
