AV-unprocessed.smi:153|AV-procd|sdf|1258|dock1
  -GOLD-   2262018503D 1   1.00000     0.00000
 Structure written by MMmdl.
 59 62  0  0  0  0  0  0  0  0  1 V2000
  143.4303  132.5858  150.2248 C   0  0  0  0  0  0  0  0  0  0  0  0
  144.7873  133.2942  150.0958 C   0  0  2  0  0  0  0  0  0  0  0  0
  145.7924  132.4397  150.6326 O   0  0  0  0  0  0  0  0  0  0  0  0
  146.8729  133.2442  151.0693 C   0  0  0  0  0  0  0  0  0  0  0  0
  146.1555  134.4001  151.7490 C   0  0  0  0  0  0  0  0  0  0  0  0
  144.9521  134.6500  150.8403 C   0  0  1  0  0  0  0  0  0  0  0  0
  145.3283  135.6224  149.8799 O   0  0  0  0  0  0  0  0  0  0  0  0
  143.7059  135.1781  151.6001 C   0  0  0  0  0  0  0  0  0  0  0  0
  144.0307  136.1441  152.6394 N   0  0  0  0  0  0  0  0  0  0  0  0
  143.3377  136.3588  153.8076 C   0  0  0  0  0  0  0  0  0  0  0  0
  143.8371  137.2773  154.5869 N   0  0  0  0  0  0  0  0  0  0  0  0
  144.9589  137.7434  153.9074 C   0  0  0  0  0  0  0  0  0  0  0  0
  145.9608  138.7279  154.1761 C   0  0  0  0  0  0  0  0  0  0  0  0
  146.0276  139.4795  155.3155 N   0  0  0  0  0  0  0  0  0  0  0  0
  145.1579  139.1392  156.4354 C   0  0  0  0  0  0  0  0  0  0  0  0
  147.2332  140.2580  155.6111 C   0  0  0  0  0  0  0  0  0  0  0  0
  147.1162  141.7323  155.1629 C   0  0  2  0  0  0  0  0  0  0  0  0
  147.9441  142.5182  155.9971 O   0  0  0  0  0  0  0  0  0  0  0  0
  145.6723  142.2584  155.3103 C   0  0  0  0  0  0  0  0  0  0  0  0
  145.4331  143.5962  154.7670 N   0  0  0  0  0  0  0  0  0  0  0  0
  144.0812  144.0496  155.0766 C   0  0  0  0  0  0  0  0  0  0  0  0
  143.8001  145.4528  154.5120 C   0  0  0  0  0  0  0  0  0  0  0  0
  144.0142  145.4503  153.1045 O   0  0  0  0  0  0  0  0  0  0  0  0
  145.3360  145.0557  152.7528 C   0  0  0  0  0  0  0  0  0  0  0  0
  145.6261  143.6540  153.3172 C   0  0  0  0  0  0  0  0  0  0  0  0
  146.9060  138.9117  153.2133 N   0  0  0  0  0  0  0  0  0  0  0  0
  146.8972  138.1892  152.0909 C   0  0  0  0  0  0  0  0  0  0  0  0
  146.0422  137.2363  151.7226 N   0  0  0  0  0  0  0  0  0  0  0  0
  145.0801  137.0462  152.6688 C   0  0  0  0  0  0  0  0  0  0  0  0
  142.6235  133.1972  149.8208 H   0  0  0  0  0  0  0  0  0  0  0  0
  143.1961  132.3501  151.2627 H   0  0  0  0  0  0  0  0  0  0  0  0
  143.4351  131.6463  149.6718 H   0  0  0  0  0  0  0  0  0  0  0  0
  145.0073  133.4181  149.0335 H   0  0  0  0  0  0  0  0  0  0  0  0
  147.5348  132.7008  151.7436 H   0  0  0  0  0  0  0  0  0  0  0  0
  147.4528  133.5881  150.2112 H   0  0  0  0  0  0  0  0  0  0  0  0
  145.8206  134.0675  152.7321 H   0  0  0  0  0  0  0  0  0  0  0  0
  146.7913  135.2748  151.8938 H   0  0  0  0  0  0  0  0  0  0  0  0
  145.4955  135.1850  149.0589 H   0  0  0  0  0  0  0  0  0  0  0  0
  143.0015  135.6419  150.9082 H   0  0  0  0  0  0  0  0  0  0  0  0
  143.1742  134.3541  152.0764 H   0  0  0  0  0  0  0  0  0  0  0  0
  142.4473  135.8055  154.0693 H   0  0  0  0  0  0  0  0  0  0  0  0
  144.1414  139.4865  156.2497 H   0  0  0  0  0  0  0  0  0  0  0  0
  145.5019  139.6101  157.3567 H   0  0  0  0  0  0  0  0  0  0  0  0
  145.1392  138.0618  156.6036 H   0  0  0  0  0  0  0  0  0  0  0  0
  147.4298  140.1968  156.6821 H   0  0  0  0  0  0  0  0  0  0  0  0
  148.0986  139.7823  155.1472 H   0  0  0  0  0  0  0  0  0  0  0  0
  147.4632  141.8330  154.1358 H   0  0  0  0  0  0  0  0  0  0  0  0
  148.1295  143.3327  155.5556 H   0  0  0  0  0  0  0  0  0  0  0  0
  144.9853  141.5645  154.8231 H   0  0  0  0  0  0  0  0  0  0  0  0
  145.4042  142.2348  156.3679 H   0  0  0  0  0  0  0  0  0  0  0  0
  143.3522  143.3460  154.6713 H   0  0  0  0  0  0  0  0  0  0  0  0
  143.9344  144.0633  156.1572 H   0  0  0  0  0  0  0  0  0  0  0  0
  142.7696  145.7441  154.7156 H   0  0  0  0  0  0  0  0  0  0  0  0
  144.4439  146.1964  154.9848 H   0  0  0  0  0  0  0  0  0  0  0  0
  145.4300  145.0537  151.6669 H   0  0  0  0  0  0  0  0  0  0  0  0
  146.0542  145.7820  153.1363 H   0  0  0  0  0  0  0  0  0  0  0  0
  146.6461  143.3816  153.0517 H   0  0  0  0  0  0  0  0  0  0  0  0
  144.9740  142.9288  152.8276 H   0  0  0  0  0  0  0  0  0  0  0  0
  147.6906  138.4035  151.3899 H   0  0  0  0  0  0  0  0  0  0  0  0
  1  2  1  0  0  0  0
  1 30  1  0  0  0  0
  1 31  1  0  0  0  0
  1 32  1  0  0  0  0
  2  6  1  0  0  0  0
  2  3  1  0  0  0  0
  2 33  1  0  0  0  0
  3  4  1  0  0  0  0
  4  5  1  0  0  0  0
  4 34  1  0  0  0  0
  4 35  1  0  0  0  0
  5  6  1  0  0  0  0
  5 36  1  0  0  0  0
  5 37  1  0  0  0  0
  6  7  1  0  0  0  0
  6  8  1  0  0  0  0
  7 38  1  0  0  0  0
  8  9  1  0  0  0  0
  8 39  1  0  0  0  0
  8 40  1  0  0  0  0
  9 29  1  0  0  0  0
  9 10  1  0  0  0  0
 10 11  2  0  0  0  0
 10 41  1  0  0  0  0
 11 12  1  0  0  0  0
 12 29  2  0  0  0  0
 12 13  1  0  0  0  0
 13 14  1  0  0  0  0
 13 26  2  0  0  0  0
 14 15  1  0  0  0  0
 14 16  1  0  0  0  0
 15 42  1  0  0  0  0
 15 43  1  0  0  0  0
 15 44  1  0  0  0  0
 16 17  1  0  0  0  0
 16 45  1  0  0  0  0
 16 46  1  0  0  0  0
 17 18  1  0  0  0  0
 17 19  1  0  0  0  0
 17 47  1  0  0  0  0
 18 48  1  0  0  0  0
 19 20  1  0  0  0  0
 19 49  1  0  0  0  0
 19 50  1  0  0  0  0
 20 25  1  0  0  0  0
 20 21  1  0  0  0  0
 21 22  1  0  0  0  0
 21 51  1  0  0  0  0
 21 52  1  0  0  0  0
 22 23  1  0  0  0  0
 22 53  1  0  0  0  0
 22 54  1  0  0  0  0
 23 24  1  0  0  0  0
 24 25  1  0  0  0  0
 24 55  1  0  0  0  0
 24 56  1  0  0  0  0
 25 57  1  0  0  0  0
 25 58  1  0  0  0  0
 26 27  1  0  0  0  0
 27 28  2  0  0  0  0
 27 59  1  0  0  0  0
 28 29  1  0  0  0  0
M  END
> <s_m_source_file>
AV-unprocessed.smi

> <i_m_source_file_index>
153

> <i_lp_mmshare_version>
43012

> <i_f3d_flags>
0

> <s_epik_input>
W0NIMl0xW0NIMl1PW0NAQEhdKFtDSDNdKVtDQEBdMShbT0hdKVtDSDJdbihbY0hdbjIpYyhjMjMpbltjSF1uYzNOKFtDSDNdKVtDSDJdW0NASF0oW09IXSlbQ0gyXU40W0NIMl1bQ0gyXU9bQ0gyXVtDSDJdNA==

> <s_epik_cmdline>
J2VwaWtfcHl0aG9uJywgJy1waCcsICc3LjAnLCAnLXRuJywgJzgnLCAnLW1hJywgJzIwMCcsICctbWV0YWxfYmluZGluZycsICctaW1hZScsICc8aW5maWxlLm1hZT4nLCAnLW9tYWUnLCAnPG91dGZpbGUubWFlPic=

> <r_lp_tautomer_probability>
1

> <r_epik_Ionization_Penalty>
0.424123

> <r_epik_Ionization_Penalty_Charging>
0

> <r_epik_Ionization_Penalty_Neutral>
0.424123

> <r_epik_State_Penalty>
0.421495

> <r_epik_Charging_Adjusted_Penalty>
0.421495

> <i_epik_Tot_Q>
0

> <i_epik_Tot_abs_Q>
0

> <r_epik_Metal_State_Penalty>
0.421223

> <b_epik_Metal_Only>
0

> <s_lp_Force_Field>
OPLS_2005

> <r_lp_Energy>
56.4475

> <b_lp_Chiralities_Consistent>
1

> <s_lp_Variant>
AV-unprocessed.smi:153-9

> <Gold.Version>
5.8.1

> <Gold.Id.Protein>
6NUR|6NUR_protein|mol2

> <Gold.PLP.Fitness>
47.3743

> <Gold.PLP.PLP>
-39.3485

> <Gold.PLP.part.hbond>
-2.2605

> <Gold.PLP.part.metal>
0.0000

> <Gold.PLP.part.buried>
-3.9464

> <Gold.PLP.part.nonpolar>
-34.2075

> <Gold.PLP.part.repulsive>
1.4693

> <Gold.PLP.ligand.clash>
0.0000

> <Gold.PLP.ligand.torsion>
1.3311

> <Gold.PLP.Chemscore.Hbond>
1.7238

> <Gold.PLP.Chemscore.CHOScore>
1.2817

> <Gold.PLP.Chemscore.Metal>
0.0000

> <Gold.Chemscore.Hbonds>
donor molecule, donor type, donor heavy atom, donor atom, acceptor molecule, acceptor atom, score
      L1  H     7    38       P1  7921  1.00
      L1  H    18    48       P1  8028  0.93
      L1  C    27    59       P1  7948  0.31
      L1  C    27    59       P1  7957  1.00

> <Gold.PLP.Chemscore.Internal.Correction>
1.6713

> <Gold.Rescore>
     Score         DG    S(hbond)    S(metal)    S(lipo)     H(rot)  DE(clash)    DE(int)     intcor
      4.81     -11.68       1.79        0.00      78.94       3.52       1.94       4.93       ----

> <Gold.Chemscore.Fitness>
4.8119

> <Gold.Chemscore.DG>
-11.6792

> <Gold.Chemscore.ZeroCoef>
-5.4800

> <Gold.Chemscore.Hbond>
1.7864

> <Gold.Chemscore.Metal>
0.0000

> <Gold.Chemscore.Lipo>
78.9421

> <Gold.Chemscore.Internal_Hbond>
0.0000

> <Gold.Chemscore.DEClash>
1.9401

> <Gold.Chemscore.DEInternal>
4.9272

> <Gold.Chemscore.Rot>
3.5170

> <Gold.Chemscore.Internal.Correction>
   9.000000E+99

> <Gold.Chemscore.Hbonds>
donor molecule, donor type, donor heavy atom, donor atom, acceptor molecule, acceptor atom, score
      L1  H     7    38       P1  7921  0.98
      L1  H    18    48       P1  8028  0.67

> <Gold.Chemscore.Hbond.Weighted>
-5.9666

> <Gold.Chemscore.Metal.Weighted>
-0.0000

> <Gold.Chemscore.Lipo.Weighted>
-9.2362

> <Gold.Chemscore.Internal_Hbond.Weighted>
0.0000

> <Gold.Chemscore.DEClash.Weighted>
1.9401

> <Gold.Chemscore.DEInternal.Weighted>
4.9272

> <Gold.Chemscore.Rot.Weighted>
9.0036

> <Gold.Chemscore.Internal.Correction.Weighted>
   9.000000E+99

> <Gold.Protein.RotatedTorsions>
[ 6907 6896 6895 6894 ] final   72.19 input  -60.11 | X-H torsion
[ 7974 7965 7964 7962 ] final  111.86 input  175.53 | X-H torsion
[ 8008 7997 7996 7995 ] final  -44.59 input   59.86 | X-H torsion
[ 10167 10162 10161 10158 ] final -128.09 input  -65.29 | X-H torsion
[ 10718 10713 10712 10709 ] final  156.74 input   66.30 | X-H torsion
[ 10763 10752 10751 10750 ] final  -58.20 input  -60.55 | X-H torsion
[ 11005 11000 10999 10996 ] final   92.69 input  -57.11 | X-H torsion

> <Gold.Protein.ActiveResidues>
 VAL166  LYS551  ARG553  GLY616  TRP617  ASP618  TYR619  PRO620  LYS621  CYS622 
 ASP623  PHE694  ASN695  SER759  ASP760  ASP761  ALA762  ILE779  LEU786  VAL792 
 PHE793  MET794  SER795  GLU796  ALA797  LYS798  CYS799  TRP800  GLU811  SER814 

> <Gold.Protein.RotatedAtoms>
  152.4854  134.4608  159.9604 H   0  0  0  0  0  0  0  0  0  0  0  0  # atno 6907 bound_to 6896
  151.4605  133.3588  159.2816 H   0  0  0  0  0  0  0  0  0  0  0  0  # atno 6908 bound_to 6896
  150.8959  134.8393  159.7387 H   0  0  0  0  0  0  0  0  0  0  0  0  # atno 6909 bound_to 6896
  145.2369  139.2795  143.4138 H   0  0  0  0  0  0  0  0  0  0  0  0  # atno 7974 bound_to 7965
  154.3998  140.1418  156.3709 H   0  0  0  0  0  0  0  0  0  0  0  0  # atno 8008 bound_to 7997
  155.8094  140.3473  155.5428 H   0  0  0  0  0  0  0  0  0  0  0  0  # atno 8009 bound_to 7997
  155.8402  140.0925  157.1729 H   0  0  0  0  0  0  0  0  0  0  0  0  # atno 8010 bound_to 7997
  139.9540  143.6024  152.2466 H   0  0  0  0  0  0  0  0  0  0  0  0  # atno 10167 bound_to 10162
  157.2010  131.0676  151.2025 H   0  0  0  0  0  0  0  0  0  0  0  0  # atno 10718 bound_to 10713
  154.2345  135.6355  153.5186 H   0  0  0  0  0  0  0  0  0  0  0  0  # atno 10763 bound_to 10752
  152.9942  135.5527  154.5977 H   0  0  0  0  0  0  0  0  0  0  0  0  # atno 10764 bound_to 10752
  154.5468  135.2898  155.1020 H   0  0  0  0  0  0  0  0  0  0  0  0  # atno 10765 bound_to 10752
  139.8820  134.8747  156.3609 H   0  0  0  0  0  0  0  0  0  0  0  0  # atno 11005 bound_to 11000
  146.3338  140.2721  142.8606 LP  0  0  0  0  0  0  0  0  0  0  0  0  # atno 17320 bound_to 7965
  144.9625  140.8289  143.5505 LP  0  0  0  0  0  0  0  0  0  0  0  0  # atno 17321 bound_to 7965
  139.6606  144.7662  151.1970 LP  0  0  0  0  0  0  0  0  0  0  0  0  # atno 17342 bound_to 10162
  140.7574  143.6017  150.8694 LP  0  0  0  0  0  0  0  0  0  0  0  0  # atno 17343 bound_to 10162
  157.3767  130.7210  149.6602 LP  0  0  0  0  0  0  0  0  0  0  0  0  # atno 17370 bound_to 10713
  155.9700  130.4183  150.4324 LP  0  0  0  0  0  0  0  0  0  0  0  0  # atno 17371 bound_to 10713
  140.9530  133.7438  156.0297 LP  0  0  0  0  0  0  0  0  0  0  0  0  # atno 17394 bound_to 11000
  140.8083  134.3429  157.5419 LP  0  0  0  0  0  0  0  0  0  0  0  0  # atno 17395 bound_to 11000

$$$$
