AV-unprocessed.smi:942|AV-procd|sdf|4227|dock7
  -GOLD-   22720 2133D 1   1.00000     0.00000
 Structure written by MMmdl.
 42 44  0  0  0  0  0  0  0  0  1 V2000
  153.3195  140.1200  158.5841 O   0  0  0  0  0  0  0  0  0  0  0  0
  152.1316  140.3877  158.7667 C   0  0  0  0  0  0  0  0  0  0  0  0
  151.1550  139.4701  158.7199 N   0  0  0  0  0  0  0  0  0  0  0  0
  151.3485  138.0337  158.5186 C   0  0  2  0  0  0  0  0  0  0  0  0
  152.5346  137.5188  159.3625 C   0  0  0  0  0  0  0  0  0  0  0  0
  153.6152  137.0594  158.3734 C   0  0  0  0  0  0  0  0  0  0  0  0
  153.2486  137.7124  157.0420 C   0  0  0  0  0  0  0  0  0  0  0  0
  151.7168  137.7059  157.0548 C   0  0  2  0  0  0  0  0  0  0  0  0
  151.0769  138.5582  156.0561 N   0  0  0  0  0  0  0  0  0  0  0  0
  149.9781  138.2773  155.2491 C   0  0  0  0  0  0  0  0  0  0  0  0
  149.7520  139.3983  154.4832 C   0  0  0  0  0  0  0  0  0  0  0  0
  150.6799  140.3835  154.8084 N   0  0  0  0  0  0  0  0  0  0  0  0
  151.4223  139.8179  155.7506 C   0  0  0  0  0  0  0  0  0  0  0  0
  151.6974  141.8253  159.0796 C   0  0  0  0  0  0  0  0  0  0  0  0
  151.7596  142.7159  157.8206 C   0  0  0  0  0  0  0  0  0  0  0  0
  151.3376  144.1601  158.1380 C   0  0  0  0  0  0  0  0  0  0  0  0
  152.1907  144.7547  159.2698 C   0  0  0  0  0  0  0  0  0  0  0  0
  152.1435  143.8702  160.5256 C   0  0  0  0  0  0  0  0  0  0  0  0
  152.5650  142.4268  160.2055 C   0  0  0  0  0  0  0  0  0  0  0  0
  150.2076  139.7814  158.8788 H   0  0  0  0  0  0  0  0  0  0  0  0
  150.4304  137.5058  158.7834 H   0  0  0  0  0  0  0  0  0  0  0  0
  152.9293  138.3005  160.0135 H   0  0  0  0  0  0  0  0  0  0  0  0
  152.2308  136.6948  160.0088 H   0  0  0  0  0  0  0  0  0  0  0  0
  154.6209  137.3222  158.7027 H   0  0  0  0  0  0  0  0  0  0  0  0
  153.5760  135.9744  158.2690 H   0  0  0  0  0  0  0  0  0  0  0  0
  153.6305  138.7340  157.0282 H   0  0  0  0  0  0  0  0  0  0  0  0
  153.6673  137.1814  156.1865 H   0  0  0  0  0  0  0  0  0  0  0  0
  151.3933  136.6839  156.8491 H   0  0  0  0  0  0  0  0  0  0  0  0
  149.4579  137.3315  155.2754 H   0  0  0  0  0  0  0  0  0  0  0  0
  148.9947  139.5723  153.7329 H   0  0  0  0  0  0  0  0  0  0  0  0
  152.2466  140.3296  156.2253 H   0  0  0  0  0  0  0  0  0  0  0  0
  150.6623  141.8025  159.4261 H   0  0  0  0  0  0  0  0  0  0  0  0
  152.7710  142.7200  157.4110 H   0  0  0  0  0  0  0  0  0  0  0  0
  151.1128  142.3107  157.0412 H   0  0  0  0  0  0  0  0  0  0  0  0
  151.4237  144.7779  157.2437 H   0  0  0  0  0  0  0  0  0  0  0  0
  150.2858  144.1781  158.4260 H   0  0  0  0  0  0  0  0  0  0  0  0
  153.2235  144.8562  158.9340 H   0  0  0  0  0  0  0  0  0  0  0  0
  151.8428  145.7599  159.5093 H   0  0  0  0  0  0  0  0  0  0  0  0
  152.7938  144.2849  161.2964 H   0  0  0  0  0  0  0  0  0  0  0  0
  151.1342  143.8734  160.9390 H   0  0  0  0  0  0  0  0  0  0  0  0
  152.4875  141.8166  161.1066 H   0  0  0  0  0  0  0  0  0  0  0  0
  153.6171  142.4168  159.9159 H   0  0  0  0  0  0  0  0  0  0  0  0
  1  2  2  0  0  0  0
  2  3  1  0  0  0  0
  2 14  1  0  0  0  0
  3  4  1  0  0  0  0
  3 20  1  0  0  0  0
  4  8  1  0  0  0  0
  4  5  1  0  0  0  0
  4 21  1  0  0  0  0
  5  6  1  0  0  0  0
  5 22  1  0  0  0  0
  5 23  1  0  0  0  0
  6  7  1  0  0  0  0
  6 24  1  0  0  0  0
  6 25  1  0  0  0  0
  7  8  1  0  0  0  0
  7 26  1  0  0  0  0
  7 27  1  0  0  0  0
  8  9  1  0  0  0  0
  8 28  1  0  0  0  0
  9 13  1  0  0  0  0
  9 10  1  0  0  0  0
 10 11  2  0  0  0  0
 10 29  1  0  0  0  0
 11 12  1  0  0  0  0
 11 30  1  0  0  0  0
 12 13  2  0  0  0  0
 13 31  1  0  0  0  0
 14 19  1  0  0  0  0
 14 15  1  0  0  0  0
 14 32  1  0  0  0  0
 15 16  1  0  0  0  0
 15 33  1  0  0  0  0
 15 34  1  0  0  0  0
 16 17  1  0  0  0  0
 16 35  1  0  0  0  0
 16 36  1  0  0  0  0
 17 18  1  0  0  0  0
 17 37  1  0  0  0  0
 17 38  1  0  0  0  0
 18 19  1  0  0  0  0
 18 39  1  0  0  0  0
 18 40  1  0  0  0  0
 19 41  1  0  0  0  0
 19 42  1  0  0  0  0
M  END
> <s_m_source_file>
AV-unprocessed.smi

> <i_m_source_file_index>
942

> <i_lp_mmshare_version>
43012

> <i_f3d_flags>
0

> <s_epik_input>
W0NIMl0xW0NIMl1bQ0gyXVtDSDJdW0NIMl1bQ0hdMUMoPU8pW05IXVtDQEBIXTJbQ0gyXVtDSDJdW0NIMl1bQ0BIXTJuM1tjSF1bY0hdbltjSF0z

> <s_epik_cmdline>
J2VwaWtfcHl0aG9uJywgJy1waCcsICc3LjAnLCAnLXRuJywgJzgnLCAnLW1hJywgJzIwMCcsICctbWV0YWxfYmluZGluZycsICctaW1hZScsICc8aW5maWxlLm1hZT4nLCAnLW9tYWUnLCAnPG91dGZpbGUubWFlPic=

> <r_lp_tautomer_probability>
1

> <r_epik_Ionization_Penalty>
0.778458

> <r_epik_Ionization_Penalty_Charging>
0.778458

> <r_epik_Ionization_Penalty_Neutral>
2.79355e-08

> <r_epik_State_Penalty>
0.807804

> <r_epik_Charging_Adjusted_Penalty>
1.58626

> <i_epik_Tot_Q>
0

> <i_epik_Tot_abs_Q>
0

> <r_epik_Metal_State_Penalty>
0.343007

> <b_epik_Metal_Only>
0

> <s_lp_Force_Field>
OPLS_2005

> <r_lp_Energy>
33.2669

> <b_lp_Chiralities_Consistent>
1

> <s_lp_Variant>
AV-unprocessed.smi:942-7

> <Gold.Version>
5.8.1

> <Gold.Id.Protein>
6NUR|6NUR_protein|mol2

> <Gold.PLP.Fitness>
43.2838

> <Gold.PLP.PLP>
-36.1598

> <Gold.PLP.part.hbond>
-1.8645

> <Gold.PLP.part.metal>
0.0000

> <Gold.PLP.part.buried>
-4.5739

> <Gold.PLP.part.nonpolar>
-29.6042

> <Gold.PLP.part.repulsive>
0.2255

> <Gold.PLP.ligand.clash>
0.0000

> <Gold.PLP.ligand.torsion>
0.9129

> <Gold.PLP.Chemscore.Hbond>
1.9760

> <Gold.PLP.Chemscore.CHOScore>
1.0000

> <Gold.PLP.Chemscore.Metal>
0.0000

> <Gold.Chemscore.Hbonds>
donor molecule, donor type, donor heavy atom, donor atom, acceptor molecule, acceptor atom, score
      P1  H  7989  7998       L1    12  1.00
      P1  H  7997  8010       L1     1  0.99
      L1  C    11    30       P1  7957  0.52

> <Gold.PLP.Chemscore.Internal.Correction>
0.0216

> <Gold.Rescore>
     Score         DG    S(hbond)    S(metal)    S(lipo)     H(rot)  DE(clash)    DE(int)     intcor
     14.94     -19.61       1.89        0.00      98.43       1.44       0.00       4.67       ----

> <Gold.Chemscore.Fitness>
14.9406

> <Gold.Chemscore.DG>
-19.6119

> <Gold.Chemscore.ZeroCoef>
-5.4800

> <Gold.Chemscore.Hbond>
1.8864

> <Gold.Chemscore.Metal>
0.0000

> <Gold.Chemscore.Lipo>
98.4330

> <Gold.Chemscore.Internal_Hbond>
0.0000

> <Gold.Chemscore.DEClash>
0.0021

> <Gold.Chemscore.DEInternal>
4.6691

> <Gold.Chemscore.Rot>
1.4395

> <Gold.Chemscore.Internal.Correction>
   9.000000E+99

> <Gold.Chemscore.Hbonds>
donor molecule, donor type, donor heavy atom, donor atom, acceptor molecule, acceptor atom, score
      P1  H  7989  7998       L1    12  0.68
      P1  H  7997  8010       L1     1  0.90

> <Gold.Chemscore.Hbond.Weighted>
-6.3004

> <Gold.Chemscore.Metal.Weighted>
-0.0000

> <Gold.Chemscore.Lipo.Weighted>
-11.5167

> <Gold.Chemscore.Internal_Hbond.Weighted>
0.0000

> <Gold.Chemscore.DEClash.Weighted>
0.0021

> <Gold.Chemscore.DEInternal.Weighted>
4.6691

> <Gold.Chemscore.Rot.Weighted>
3.6852

> <Gold.Chemscore.Internal.Correction.Weighted>
   9.000000E+99

> <Gold.Protein.RotatedTorsions>
[ 6907 6896 6895 6894 ] final  178.22 input  -60.11 | X-H torsion
[ 7974 7965 7964 7962 ] final  -95.73 input  175.53 | X-H torsion
[ 8008 7997 7996 7995 ] final   25.27 input   59.86 | X-H torsion
[ 10167 10162 10161 10158 ] final   68.90 input  -65.29 | X-H torsion
[ 10718 10713 10712 10709 ] final   71.81 input   66.30 | X-H torsion
[ 10763 10752 10751 10750 ] final  175.81 input  -60.55 | X-H torsion
[ 11005 11000 10999 10996 ] final -132.97 input  -57.11 | X-H torsion

> <Gold.Protein.ActiveResidues>
 VAL166  LYS551  ARG553  GLY616  TRP617  ASP618  TYR619  PRO620  LYS621  CYS622 
 ASP623  PHE694  ASN695  SER759  ASP760  ASP761  ALA762  ILE779  LEU786  VAL792 
 PHE793  MET794  SER795  GLU796  ALA797  LYS798  CYS799  TRP800  GLU811  SER814 

> <Gold.Protein.RotatedAtoms>
  151.6914  133.3311  159.3243 H   0  0  0  0  0  0  0  0  0  0  0  0  # atno 6907 bound_to 6896
  150.7777  134.6695  159.6393 H   0  0  0  0  0  0  0  0  0  0  0  0  # atno 6908 bound_to 6896
  152.3825  134.6571  160.0189 H   0  0  0  0  0  0  0  0  0  0  0  0  # atno 6909 bound_to 6896
  145.3562  140.9484  143.2526 H   0  0  0  0  0  0  0  0  0  0  0  0  # atno 7974 bound_to 7965
  155.0091  140.3134  155.4837 H   0  0  0  0  0  0  0  0  0  0  0  0  # atno 8008 bound_to 7997
  156.2912  140.2218  156.5146 H   0  0  0  0  0  0  0  0  0  0  0  0  # atno 8009 bound_to 7997
  154.7550  140.0463  157.0914 H   0  0  0  0  0  0  0  0  0  0  0  0  # atno 8010 bound_to 7997
  140.0737  144.5131  150.7210 H   0  0  0  0  0  0  0  0  0  0  0  0  # atno 10167 bound_to 10162
  157.6470  130.9547  150.0841 H   0  0  0  0  0  0  0  0  0  0  0  0  # atno 10718 bound_to 10713
  154.4727  135.2771  155.1631 H   0  0  0  0  0  0  0  0  0  0  0  0  # atno 10763 bound_to 10752
  154.3373  135.6177  153.5583 H   0  0  0  0  0  0  0  0  0  0  0  0  # atno 10764 bound_to 10752
  152.9866  135.5780  154.5111 H   0  0  0  0  0  0  0  0  0  0  0  0  # atno 10765 bound_to 10752
  140.9123  134.1552  157.4380 H   0  0  0  0  0  0  0  0  0  0  0  0  # atno 11005 bound_to 11000
  144.8681  139.5078  143.6781 LP  0  0  0  0  0  0  0  0  0  0  0  0  # atno 17320 bound_to 7965
  146.2947  139.7242  142.9135 LP  0  0  0  0  0  0  0  0  0  0  0  0  # atno 17321 bound_to 7965
  140.7113  143.2507  151.4573 LP  0  0  0  0  0  0  0  0  0  0  0  0  # atno 17342 bound_to 10162
  139.5821  144.1687  152.1981 LP  0  0  0  0  0  0  0  0  0  0  0  0  # atno 17343 bound_to 10162
  156.1809  130.3650  149.9037 LP  0  0  0  0  0  0  0  0  0  0  0  0  # atno 17370 bound_to 10713
  156.6989  130.8925  151.3597 LP  0  0  0  0  0  0  0  0  0  0  0  0  # atno 17371 bound_to 10713
  139.8759  134.9940  156.5673 LP  0  0  0  0  0  0  0  0  0  0  0  0  # atno 17394 bound_to 11000
  140.8095  133.8441  155.8797 LP  0  0  0  0  0  0  0  0  0  0  0  0  # atno 17395 bound_to 11000

$$$$
