AV-unprocessed.smi:740|AV-procd|sdf|3550|dock10
  -GOLD-   22720 0543D 1   1.00000     0.00000
 Structure written by MMmdl.
 45 47  0  0  0  0  0  0  0  0  2 V2000
  152.8433  143.5208  161.4105 C   0  0  0  0  0  0  0  0  0  0  0  0
  152.3022  142.9806  160.0978 C   0  0  0  0  0  0  0  0  0  0  0  0
  152.6453  141.6635  159.7182 C   0  0  0  0  0  0  0  0  0  0  0  0
  152.1357  141.1978  158.5120 C   0  0  0  0  0  0  0  0  0  0  0  0
  152.2910  139.9681  157.8686 N   0  3  0  0  0  0  0  0  0  0  0  0
  151.5984  139.9782  156.6964 C   0  0  0  0  0  0  0  0  0  0  0  0
  151.0001  141.1949  156.5831 N   0  0  0  0  0  0  0  0  0  0  0  0
  150.1422  141.7170  155.5100 C   0  0  0  0  0  0  0  0  0  0  0  0
  149.4931  140.5992  154.6707 C   0  0  2  0  0  0  0  0  0  0  0  0
  149.2405  141.0920  153.3692 O   0  0  0  0  0  0  0  0  0  0  0  0
  148.1619  140.1260  155.2891 C   0  0  0  0  0  0  0  0  0  0  0  0
  147.2904  141.2509  155.6479 N   0  0  0  0  0  0  0  0  0  0  0  0
  146.5762  141.9591  154.7626 C   0  0  0  0  0  0  0  0  0  0  0  0
  146.5399  141.7787  153.5456 O   0  0  0  0  0  0  0  0  0  0  0  0
  145.7896  143.0638  155.4540 C   0  0  0  0  0  0  0  0  0  0  0  0
  146.1669  142.8928  156.9334 C   0  0  1  0  0  0  0  0  0  0  0  0
  144.9627  142.6346  157.8539 C   0  0  0  0  0  0  0  0  0  0  0  0
  147.1228  141.7018  156.8991 C   0  0  0  0  0  0  0  0  0  0  0  0
  147.6533  141.2450  157.9120 O   0  0  0  0  0  0  0  0  0  0  0  0
  151.3090  141.9912  157.6927 C   0  0  0  0  0  0  0  0  0  0  0  0
  150.9626  143.2919  158.0520 C   0  0  0  0  0  0  0  0  0  0  0  0
  151.4734  143.7853  159.2738 C   0  0  0  0  0  0  0  0  0  0  0  0
  151.1173  145.2032  159.6874 C   0  0  0  0  0  0  0  0  0  0  0  0
  153.4340  142.7709  161.9372 H   0  0  0  0  0  0  0  0  0  0  0  0
  152.0268  143.8218  162.0673 H   0  0  0  0  0  0  0  0  0  0  0  0
  153.4832  144.3854  161.2333 H   0  0  0  0  0  0  0  0  0  0  0  0
  153.2786  141.0462  160.3384 H   0  0  0  0  0  0  0  0  0  0  0  0
  151.5360  139.1681  155.9840 H   0  0  0  0  0  0  0  0  0  0  0  0
  149.3666  142.3145  155.9905 H   0  0  0  0  0  0  0  0  0  0  0  0
  150.7136  142.4054  154.8870 H   0  0  0  0  0  0  0  0  0  0  0  0
  150.1934  139.7658  154.5981 H   0  0  0  0  0  0  0  0  0  0  0  0
  149.3061  140.3747  152.7576 H   0  0  0  0  0  0  0  0  0  0  0  0
  147.6279  139.5035  154.5689 H   0  0  0  0  0  0  0  0  0  0  0  0
  148.3450  139.4741  156.1454 H   0  0  0  0  0  0  0  0  0  0  0  0
  146.0873  144.0403  155.0706 H   0  0  0  0  0  0  0  0  0  0  0  0
  144.7215  142.9316  155.2761 H   0  0  0  0  0  0  0  0  0  0  0  0
  146.7158  143.7687  157.2818 H   0  0  0  0  0  0  0  0  0  0  0  0
  145.2760  142.5216  158.8924 H   0  0  0  0  0  0  0  0  0  0  0  0
  144.4249  141.7300  157.5670 H   0  0  0  0  0  0  0  0  0  0  0  0
  144.2585  143.4659  157.8130 H   0  0  0  0  0  0  0  0  0  0  0  0
  150.3350  143.9075  157.4251 H   0  0  0  0  0  0  0  0  0  0  0  0
  150.5029  145.6965  158.9336 H   0  0  0  0  0  0  0  0  0  0  0  0
  152.0186  145.8010  159.8239 H   0  0  0  0  0  0  0  0  0  0  0  0
  150.5579  145.1999  160.6231 H   0  0  0  0  0  0  0  0  0  0  0  0
  152.8309  139.1794  158.2015 H   0  0  0  0  0  0  0  0  0  0  0  0
  1  2  1  0  0  0  0
  1 24  1  0  0  0  0
  1 25  1  0  0  0  0
  1 26  1  0  0  0  0
  2 22  1  0  0  0  0
  2  3  2  0  0  0  0
  3  4  1  0  0  0  0
  3 27  1  0  0  0  0
  4 20  2  0  0  0  0
  4  5  1  0  0  0  0
  5  6  2  0  0  0  0
  5 45  1  0  0  0  0
  6  7  1  0  0  0  0
  6 28  1  0  0  0  0
  7  8  1  0  0  0  0
  7 20  1  0  0  0  0
  8  9  1  0  0  0  0
  8 29  1  0  0  0  0
  8 30  1  0  0  0  0
  9 10  1  0  0  0  0
  9 11  1  0  0  0  0
  9 31  1  0  0  0  0
 10 32  1  0  0  0  0
 11 12  1  0  0  0  0
 11 33  1  0  0  0  0
 11 34  1  0  0  0  0
 12 18  1  0  0  0  0
 12 13  1  0  0  0  0
 13 14  2  0  0  0  0
 13 15  1  0  0  0  0
 15 16  1  0  0  0  0
 15 35  1  0  0  0  0
 15 36  1  0  0  0  0
 16 17  1  0  0  0  0
 16 18  1  0  0  0  0
 16 37  1  0  0  0  0
 17 38  1  0  0  0  0
 17 39  1  0  0  0  0
 17 40  1  0  0  0  0
 18 19  2  0  0  0  0
 20 21  1  0  0  0  0
 21 22  2  0  0  0  0
 21 41  1  0  0  0  0
 22 23  1  0  0  0  0
 23 42  1  0  0  0  0
 23 43  1  0  0  0  0
 23 44  1  0  0  0  0
M  CHG  1   5   1
M  END
> <s_m_source_file>
AV-unprocessed.smi

> <i_m_source_file_index>
740

> <i_lp_mmshare_version>
43012

> <i_f3d_flags>
0

> <s_epik_input>
W0NIM11jKFtjSF0xKWMoW0NIM10pW2NIXWMoYzEyKW4oW2NIXW4yKVtDSDJdW0NASF0oW09IXSlbQ0gyXU4zQyg9TylbQ0gyXVtDQEBIXShbQ0gzXSlDMz1P

> <s_epik_cmdline>
J2VwaWtfcHl0aG9uJywgJy1waCcsICc3LjAnLCAnLXRuJywgJzgnLCAnLW1hJywgJzIwMCcsICctbWV0YWxfYmluZGluZycsICctaW1hZScsICc8aW5maWxlLm1hZT4nLCAnLW9tYWUnLCAnPG91dGZpbGUubWFlPic=

> <r_lp_tautomer_probability>
1

> <r_epik_Ionization_Penalty>
1.08202

> <r_epik_Ionization_Penalty_Charging>
1.08202

> <r_epik_Ionization_Penalty_Neutral>
1.16605e-06

> <r_epik_State_Penalty>
1.13754

> <r_epik_Charging_Adjusted_Penalty>
2.21956

> <i_epik_Tot_Q>
1

> <i_epik_Tot_abs_Q>
1

> <r_epik_Metal_State_Penalty>
5.13645

> <b_epik_Metal_Only>
0

> <s_lp_Force_Field>
OPLS_2005

> <r_lp_Energy>
22.4261

> <b_lp_Chiralities_Consistent>
1

> <s_lp_Variant>
AV-unprocessed.smi:740-5

> <Gold.Version>
5.8.1

> <Gold.Id.Protein>
6NUR|6NUR_protein|mol2

> <Gold.PLP.Fitness>
48.4129

> <Gold.PLP.PLP>
-44.7678

> <Gold.PLP.part.hbond>
-2.7643

> <Gold.PLP.part.metal>
0.0000

> <Gold.PLP.part.buried>
-6.7399

> <Gold.PLP.part.nonpolar>
-34.6809

> <Gold.PLP.part.repulsive>
0.3418

> <Gold.PLP.ligand.clash>
0.0000

> <Gold.PLP.ligand.torsion>
0.9262

> <Gold.PLP.Chemscore.Hbond>
1.8320

> <Gold.PLP.Chemscore.CHOScore>
0.0000

> <Gold.PLP.Chemscore.Metal>
0.0000

> <Gold.Chemscore.Hbonds>
donor molecule, donor type, donor heavy atom, donor atom, acceptor molecule, acceptor atom, score
      L1  H    10    32       P1  7957  0.83
      P1  H  8011  8017       L1    10  0.95

> <Gold.PLP.Chemscore.Internal.Correction>
0.0015

> <Gold.Rescore>
     Score         DG    S(hbond)    S(metal)    S(lipo)     H(rot)  DE(clash)    DE(int)     intcor
     14.98     -16.69       1.40        0.00     107.68       2.37       0.58       1.13       ----

> <Gold.Chemscore.Fitness>
14.9770

> <Gold.Chemscore.DG>
-16.6880

> <Gold.Chemscore.ZeroCoef>
-5.4800

> <Gold.Chemscore.Hbond>
1.4022

> <Gold.Chemscore.Metal>
0.0000

> <Gold.Chemscore.Lipo>
107.6771

> <Gold.Chemscore.Internal_Hbond>
0.0000

> <Gold.Chemscore.DEClash>
0.5824

> <Gold.Chemscore.DEInternal>
1.1286

> <Gold.Chemscore.Rot>
2.3724

> <Gold.Chemscore.Internal.Correction>
   9.000000E+99

> <Gold.Chemscore.Hbonds>
donor molecule, donor type, donor heavy atom, donor atom, acceptor molecule, acceptor atom, score
      L1  H    10    32       P1  7957  0.83
      P1  H  8011  8017       L1    10  0.21

> <Gold.Chemscore.Hbond.Weighted>
-4.6832

> <Gold.Chemscore.Metal.Weighted>
-0.0000

> <Gold.Chemscore.Lipo.Weighted>
-12.5982

> <Gold.Chemscore.Internal_Hbond.Weighted>
0.0000

> <Gold.Chemscore.DEClash.Weighted>
0.5824

> <Gold.Chemscore.DEInternal.Weighted>
1.1286

> <Gold.Chemscore.Rot.Weighted>
6.0734

> <Gold.Chemscore.Internal.Correction.Weighted>
   9.000000E+99

> <Gold.Protein.RotatedTorsions>
[ 6907 6896 6895 6894 ] final -113.81 input  -60.11 | X-H torsion
[ 7974 7965 7964 7962 ] final   -4.46 input  175.53 | X-H torsion
[ 8008 7997 7996 7995 ] final  123.22 input   59.86 | X-H torsion
[ 10167 10162 10161 10158 ] final -108.84 input  -65.29 | X-H torsion
[ 10718 10713 10712 10709 ] final -170.21 input   66.30 | X-H torsion
[ 10763 10752 10751 10750 ] final  167.72 input  -60.55 | X-H torsion
[ 11005 11000 10999 10996 ] final  104.62 input  -57.11 | X-H torsion

> <Gold.Protein.ActiveResidues>
 VAL166  LYS551  ARG553  GLY616  TRP617  ASP618  TYR619  PRO620  LYS621  CYS622 
 ASP623  PHE694  ASN695  SER759  ASP760  ASP761  ALA762  ILE779  LEU786  VAL792 
 PHE793  MET794  SER795  GLU796  ALA797  LYS798  CYS799  TRP800  GLU811  SER814 

> <Gold.Protein.RotatedAtoms>
  150.7856  133.8890  159.3307 H   0  0  0  0  0  0  0  0  0  0  0  0  # atno 6907 bound_to 6896
  151.6742  135.0970  160.0213 H   0  0  0  0  0  0  0  0  0  0  0  0  # atno 6908 bound_to 6896
  152.3919  133.6653  159.6280 H   0  0  0  0  0  0  0  0  0  0  0  0  # atno 6909 bound_to 6896
  146.2372  140.1874  142.8332 H   0  0  0  0  0  0  0  0  0  0  0  0  # atno 7974 bound_to 7965
  156.2758  140.2768  156.1592 H   0  0  0  0  0  0  0  0  0  0  0  0  # atno 8008 bound_to 7997
  155.0771  140.0387  157.2645 H   0  0  0  0  0  0  0  0  0  0  0  0  # atno 8009 bound_to 7997
  154.6993  140.2646  155.6740 H   0  0  0  0  0  0  0  0  0  0  0  0  # atno 8010 bound_to 7997
  140.1618  143.4114  152.1420 H   0  0  0  0  0  0  0  0  0  0  0  0  # atno 10167 bound_to 10162
  156.7228  130.9276  151.3099 H   0  0  0  0  0  0  0  0  0  0  0  0  # atno 10718 bound_to 10713
  154.3580  135.2753  155.2335 H   0  0  0  0  0  0  0  0  0  0  0  0  # atno 10763 bound_to 10752
  154.4536  135.5924  153.6211 H   0  0  0  0  0  0  0  0  0  0  0  0  # atno 10764 bound_to 10752
  152.9845  135.6048  154.3797 H   0  0  0  0  0  0  0  0  0  0  0  0  # atno 10765 bound_to 10752
  139.8793  134.9307  156.5389 H   0  0  0  0  0  0  0  0  0  0  0  0  # atno 11005 bound_to 11000
  144.9885  140.8525  143.5353 LP  0  0  0  0  0  0  0  0  0  0  0  0  # atno 17320 bound_to 7965
  145.1877  139.2318  143.5259 LP  0  0  0  0  0  0  0  0  0  0  0  0  # atno 17321 bound_to 7965
  139.5378  144.7226  151.4836 LP  0  0  0  0  0  0  0  0  0  0  0  0  # atno 17342 bound_to 10162
  140.6638  143.8442  150.6918 LP  0  0  0  0  0  0  0  0  0  0  0  0  # atno 17343 bound_to 10162
  157.6891  130.9215  150.0465 LP  0  0  0  0  0  0  0  0  0  0  0  0  # atno 17370 bound_to 10713
  156.1582  130.3643  149.9337 LP  0  0  0  0  0  0  0  0  0  0  0  0  # atno 17371 bound_to 10713
  140.8325  133.8268  155.8998 LP  0  0  0  0  0  0  0  0  0  0  0  0  # atno 17394 bound_to 11000
  140.9315  134.2016  157.4861 LP  0  0  0  0  0  0  0  0  0  0  0  0  # atno 17395 bound_to 11000

$$$$
