AV-unprocessed.smi:1123|AV-procd|sdf|4830|dock2
  -GOLD-   22720 3393D 1   1.00000     0.00000
 Structure written by MMmdl.
 37 38  0  0  0  0  0  0  0  0  1 V2000
  147.8619  138.8453  154.1486 C   0  0  0  0  0  0  0  0  0  0  0  0
  149.2011  139.6068  154.2212 C   0  0  1  0  0  0  0  0  0  0  0  0
  149.1323  140.8544  155.1173 C   0  0  0  0  0  0  0  0  0  0  0  0
  148.2051  141.6578  155.0089 O   0  0  0  0  0  0  0  0  0  0  0  0
  150.1294  141.0044  156.0040 N   0  0  0  0  0  0  0  0  0  0  0  0
  150.2496  142.1048  156.9521 C   0  0  0  0  0  0  0  0  0  0  0  0
  151.4952  141.9438  157.8439 C   0  0  0  0  0  0  0  0  0  0  0  0
  151.4615  142.7037  159.0921 N   0  0  0  0  0  0  0  0  0  0  0  0
  151.3582  144.1449  158.8727 C   0  0  0  0  0  0  0  0  0  0  0  0
  151.3542  144.9288  160.1972 C   0  0  0  0  0  0  0  0  0  0  0  0
  152.5214  144.6104  160.9478 O   0  0  0  0  0  0  0  0  0  0  0  0
  152.6328  143.2180  161.2231 C   0  0  0  0  0  0  0  0  0  0  0  0
  152.6455  142.4321  159.9006 C   0  0  0  0  0  0  0  0  0  0  0  0
  150.2997  138.7430  154.6367 N   0  0  0  0  0  0  0  0  0  0  0  0
  150.3448  137.4154  154.7673 C   0  0  0  0  0  0  0  0  0  0  0  0
  151.5316  136.9494  155.1294 N   0  0  0  0  0  0  0  0  0  0  0  0
  152.2252  138.1239  155.2014 C   0  0  0  0  0  0  0  0  0  0  0  0
  151.5379  139.2271  154.9065 N   0  0  0  0  0  0  0  0  0  0  0  0
  147.0628  139.4901  153.7813 H   0  0  0  0  0  0  0  0  0  0  0  0
  147.5549  138.4612  155.1224 H   0  0  0  0  0  0  0  0  0  0  0  0
  147.9348  137.9967  153.4679 H   0  0  0  0  0  0  0  0  0  0  0  0
  149.4293  139.9506  153.2110 H   0  0  0  0  0  0  0  0  0  0  0  0
  150.8535  140.3013  156.0281 H   0  0  0  0  0  0  0  0  0  0  0  0
  150.3058  143.0252  156.3719 H   0  0  0  0  0  0  0  0  0  0  0  0
  149.3477  142.1741  157.5625 H   0  0  0  0  0  0  0  0  0  0  0  0
  151.5977  140.8853  158.0864 H   0  0  0  0  0  0  0  0  0  0  0  0
  152.3887  142.2072  157.2757 H   0  0  0  0  0  0  0  0  0  0  0  0
  152.1899  144.4860  158.2545 H   0  0  0  0  0  0  0  0  0  0  0  0
  150.4450  144.3815  158.3284 H   0  0  0  0  0  0  0  0  0  0  0  0
  151.3359  146.0012  160.0035 H   0  0  0  0  0  0  0  0  0  0  0  0
  150.4631  144.6936  160.7813 H   0  0  0  0  0  0  0  0  0  0  0  0
  153.5513  143.0370  161.7813 H   0  0  0  0  0  0  0  0  0  0  0  0
  151.8039  142.8971  161.8559 H   0  0  0  0  0  0  0  0  0  0  0  0
  152.7086  141.3654  160.1180 H   0  0  0  0  0  0  0  0  0  0  0  0
  153.5446  142.6889  159.3383 H   0  0  0  0  0  0  0  0  0  0  0  0
  149.4926  136.7760  154.5904 H   0  0  0  0  0  0  0  0  0  0  0  0
  153.2695  138.1668  155.4735 H   0  0  0  0  0  0  0  0  0  0  0  0
  1  2  1  0  0  0  0
  1 19  1  0  0  0  0
  1 20  1  0  0  0  0
  1 21  1  0  0  0  0
  2  3  1  0  0  0  0
  2 14  1  0  0  0  0
  2 22  1  0  0  0  0
  3  4  2  0  0  0  0
  3  5  1  0  0  0  0
  5  6  1  0  0  0  0
  5 23  1  0  0  0  0
  6  7  1  0  0  0  0
  6 24  1  0  0  0  0
  6 25  1  0  0  0  0
  7  8  1  0  0  0  0
  7 26  1  0  0  0  0
  7 27  1  0  0  0  0
  8 13  1  0  0  0  0
  8  9  1  0  0  0  0
  9 10  1  0  0  0  0
  9 28  1  0  0  0  0
  9 29  1  0  0  0  0
 10 11  1  0  0  0  0
 10 30  1  0  0  0  0
 10 31  1  0  0  0  0
 11 12  1  0  0  0  0
 12 13  1  0  0  0  0
 12 32  1  0  0  0  0
 12 33  1  0  0  0  0
 13 34  1  0  0  0  0
 13 35  1  0  0  0  0
 14 18  1  0  0  0  0
 14 15  1  0  0  0  0
 15 16  2  0  0  0  0
 15 36  1  0  0  0  0
 16 17  1  0  0  0  0
 17 18  2  0  0  0  0
 17 37  1  0  0  0  0
M  END
> <s_m_source_file>
AV-unprocessed.smi

> <i_m_source_file_index>
1123

> <i_lp_mmshare_version>
43012

> <i_f3d_flags>
0

> <s_epik_input>
bjFbY0hdbltjSF1uMVtDQEhdKFtDSDNdKUMoPU8pW05IXVtDSDJdW0NIMl1OMltDSDJdW0NIMl1PW0NIMl1bQ0gyXTI=

> <s_epik_cmdline>
J2VwaWtfcHl0aG9uJywgJy1waCcsICc3LjAnLCAnLXRuJywgJzgnLCAnLW1hJywgJzIwMCcsICctbWV0YWxfYmluZGluZycsICctaW1hZScsICc8aW5maWxlLm1hZT4nLCAnLW9tYWUnLCAnPG91dGZpbGUubWFlPic=

> <r_lp_tautomer_probability>
1

> <r_epik_Ionization_Penalty>
0.211373

> <r_epik_Ionization_Penalty_Charging>
0

> <r_epik_Ionization_Penalty_Neutral>
0.211373

> <r_epik_State_Penalty>
0.201459

> <r_epik_Charging_Adjusted_Penalty>
0.201459

> <i_epik_Tot_Q>
0

> <i_epik_Tot_abs_Q>
0

> <r_epik_Metal_State_Penalty>
0.201458

> <b_epik_Metal_Only>
0

> <s_lp_Force_Field>
OPLS_2005

> <r_lp_Energy>
26.9465

> <b_lp_Chiralities_Consistent>
1

> <s_lp_Variant>
AV-unprocessed.smi:1123-2

> <Gold.Version>
5.8.1

> <Gold.Id.Protein>
6NUR|6NUR_protein|mol2

> <Gold.PLP.Fitness>
43.3271

> <Gold.PLP.PLP>
-36.0326

> <Gold.PLP.part.hbond>
-2.0000

> <Gold.PLP.part.metal>
0.0000

> <Gold.PLP.part.buried>
-3.1885

> <Gold.PLP.part.nonpolar>
-32.0232

> <Gold.PLP.part.repulsive>
0.5811

> <Gold.PLP.ligand.clash>
0.0000

> <Gold.PLP.ligand.torsion>
0.5540

> <Gold.PLP.Chemscore.Hbond>
1.7760

> <Gold.PLP.Chemscore.CHOScore>
0.9743

> <Gold.PLP.Chemscore.Metal>
0.0000

> <Gold.Chemscore.Hbonds>
donor molecule, donor type, donor heavy atom, donor atom, acceptor molecule, acceptor atom, score
      P1  H  7989  7998       L1    18  0.68
      P1  H 10752 10763       L1    16  0.99
      L1  C    15    36       P1  7948  0.20

> <Gold.PLP.Chemscore.Internal.Correction>
0.1518

> <Gold.Rescore>
     Score         DG    S(hbond)    S(metal)    S(lipo)     H(rot)  DE(clash)    DE(int)     intcor
     10.32     -13.08       1.77        0.00      71.68       2.61       0.67       2.10       ----

> <Gold.Chemscore.Fitness>
10.3168

> <Gold.Chemscore.DG>
-13.0803

> <Gold.Chemscore.ZeroCoef>
-5.4800

> <Gold.Chemscore.Hbond>
1.7650

> <Gold.Chemscore.Metal>
0.0000

> <Gold.Chemscore.Lipo>
71.6757

> <Gold.Chemscore.Internal_Hbond>
0.0000

> <Gold.Chemscore.DEClash>
0.6669

> <Gold.Chemscore.DEInternal>
2.0966

> <Gold.Chemscore.Rot>
2.6097

> <Gold.Chemscore.Internal.Correction>
   9.000000E+99

> <Gold.Chemscore.Hbonds>
donor molecule, donor type, donor heavy atom, donor atom, acceptor molecule, acceptor atom, score
      P1  H  7989  7998       L1    18  0.20
      P1  H 10752 10763       L1    16  0.36

> <Gold.Chemscore.Hbond.Weighted>
-5.8951

> <Gold.Chemscore.Metal.Weighted>
-0.0000

> <Gold.Chemscore.Lipo.Weighted>
-8.3861

> <Gold.Chemscore.Internal_Hbond.Weighted>
0.0000

> <Gold.Chemscore.DEClash.Weighted>
0.6669

> <Gold.Chemscore.DEInternal.Weighted>
2.0966

> <Gold.Chemscore.Rot.Weighted>
6.6809

> <Gold.Chemscore.Internal.Correction.Weighted>
   9.000000E+99

> <Gold.Protein.RotatedTorsions>
[ 6907 6896 6895 6894 ] final  114.90 input  -60.11 | X-H torsion
[ 7974 7965 7964 7962 ] final -129.47 input  175.53 | X-H torsion
[ 8008 7997 7996 7995 ] final -140.94 input   59.86 | X-H torsion
[ 10167 10162 10161 10158 ] final -106.66 input  -65.29 | X-H torsion
[ 10718 10713 10712 10709 ] final  -79.40 input   66.30 | X-H torsion
[ 10763 10752 10751 10750 ] final   52.29 input  -60.55 | X-H torsion
[ 11005 11000 10999 10996 ] final  -82.21 input  -57.11 | X-H torsion

> <Gold.Protein.ActiveResidues>
 VAL166  LYS551  ARG553  GLY616  TRP617  ASP618  TYR619  PRO620  LYS621  CYS622 
 ASP623  PHE694  ASN695  SER759  ASP760  ASP761  ALA762  ILE779  LEU786  VAL792 
 PHE793  MET794  SER795  GLU796  ALA797  LYS798  CYS799  TRP800  GLU811  SER814 

> <Gold.Protein.RotatedAtoms>
  152.4774  133.8171  159.7033 H   0  0  0  0  0  0  0  0  0  0  0  0  # atno 6907 bound_to 6896
  150.8800  133.7375  159.2941 H   0  0  0  0  0  0  0  0  0  0  0  0  # atno 6908 bound_to 6896
  151.4882  135.1059  159.9848 H   0  0  0  0  0  0  0  0  0  0  0  0  # atno 6909 bound_to 6896
  144.9569  140.7405  143.4753 H   0  0  0  0  0  0  0  0  0  0  0  0  # atno 7974 bound_to 7965
  155.4697  140.0552  157.2981 H   0  0  0  0  0  0  0  0  0  0  0  0  # atno 8008 bound_to 7997
  154.4703  140.2037  155.9965 H   0  0  0  0  0  0  0  0  0  0  0  0  # atno 8009 bound_to 7997
  156.1045  140.3214  155.7992 H   0  0  0  0  0  0  0  0  0  0  0  0  # atno 8010 bound_to 7997
  140.1854  143.3934  152.1249 H   0  0  0  0  0  0  0  0  0  0  0  0  # atno 10167 bound_to 10162
  156.0093  130.4545  150.3643 H   0  0  0  0  0  0  0  0  0  0  0  0  # atno 10718 bound_to 10713
  152.9788  135.5817  154.4555 H   0  0  0  0  0  0  0  0  0  0  0  0  # atno 10763 bound_to 10752
  154.4138  135.2770  155.2022 H   0  0  0  0  0  0  0  0  0  0  0  0  # atno 10764 bound_to 10752
  154.3800  135.6149  153.5840 H   0  0  0  0  0  0  0  0  0  0  0  0  # atno 10765 bound_to 10752
  141.1664  133.7233  156.8537 H   0  0  0  0  0  0  0  0  0  0  0  0  # atno 11005 bound_to 11000
  145.2759  139.1937  143.4817 LP  0  0  0  0  0  0  0  0  0  0  0  0  # atno 17320 bound_to 7965
  146.3340  140.2712  142.8606 LP  0  0  0  0  0  0  0  0  0  0  0  0  # atno 17321 bound_to 7965
  139.5278  144.7124  151.5164 LP  0  0  0  0  0  0  0  0  0  0  0  0  # atno 17342 bound_to 10162
  140.6492  143.8732  150.6768 LP  0  0  0  0  0  0  0  0  0  0  0  0  # atno 17343 bound_to 10162
  157.1730  131.0373  151.2786 LP  0  0  0  0  0  0  0  0  0  0  0  0  # atno 17370 bound_to 10713
  157.4212  130.7438  149.6915 LP  0  0  0  0  0  0  0  0  0  0  0  0  # atno 17371 bound_to 10713
  140.1897  134.8974  157.3046 LP  0  0  0  0  0  0  0  0  0  0  0  0  # atno 17394 bound_to 11000
  140.2304  134.3916  155.7524 LP  0  0  0  0  0  0  0  0  0  0  0  0  # atno 17395 bound_to 11000

$$$$
