AV-unprocessed.smi:2931|AV-procd|sdf|11246|dock4
  -GOLD-   2272016143D 1   1.00000     0.00000
 Structure written by MMmdl.
 43 44  0  0  0  0  0  0  0  0  3 V2000
  143.2206  133.0929  151.5919 C   0  0  0  0  0  0  0  0  0  0  0  0
  144.3968  132.7072  152.4008 N   0  3  1  0  0  0  0  0  0  0  0  0
  145.0512  131.4752  151.8935 C   0  0  0  0  0  0  0  0  0  0  0  0
  146.1892  131.0308  152.8272 C   0  0  0  0  0  0  0  0  0  0  0  0
  147.2114  132.1581  153.0293 C   0  0  0  0  0  0  0  0  0  0  0  0
  146.5034  133.4328  153.5229 C   0  0  1  0  0  0  0  0  0  0  0  0
  147.4526  134.5356  153.6413 N   0  0  0  0  0  0  0  0  0  0  0  0
  147.6894  135.2283  154.7641 C   0  0  0  0  0  0  0  0  0  0  0  0
  147.1227  135.0187  155.8361 O   0  0  0  0  0  0  0  0  0  0  0  0
  148.6255  136.1697  154.5812 N   0  0  0  0  0  0  0  0  0  0  0  0
  149.0913  137.1015  155.6054 C   0  0  0  0  0  0  0  0  0  0  0  0
  150.2541  138.0007  155.1367 C   0  0  0  0  0  0  0  0  0  0  0  0
  149.9802  139.4874  155.2887 C   0  0  0  0  0  0  0  0  0  0  0  0
  150.7764  140.2807  156.1452 C   0  0  0  0  0  0  0  0  0  0  0  0
  150.4969  141.6572  156.2657 C   0  0  0  0  0  0  0  0  0  0  0  0
  149.4776  142.2005  155.5648 N   0  3  0  0  0  0  0  0  0  0  0  0
  148.6931  141.4783  154.7349 C   0  0  0  0  0  0  0  0  0  0  0  0
  148.9248  140.0967  154.5750 C   0  0  0  0  0  0  0  0  0  0  0  0
  145.3628  133.8228  152.5632 C   0  0  0  0  0  0  0  0  0  0  0  0
  143.5131  133.3492  150.5728 H   0  0  0  0  0  0  0  0  0  0  0  0
  142.7165  133.9544  152.0309 H   0  0  0  0  0  0  0  0  0  0  0  0
  142.5004  132.2753  151.5456 H   0  0  0  0  0  0  0  0  0  0  0  0
  144.3136  130.6755  151.8135 H   0  0  0  0  0  0  0  0  0  0  0  0
  145.4370  131.6533  150.8884 H   0  0  0  0  0  0  0  0  0  0  0  0
  145.7758  130.7355  153.7927 H   0  0  0  0  0  0  0  0  0  0  0  0
  146.6833  130.1484  152.4195 H   0  0  0  0  0  0  0  0  0  0  0  0
  147.9738  131.8435  153.7431 H   0  0  0  0  0  0  0  0  0  0  0  0
  147.7272  132.3574  152.0888 H   0  0  0  0  0  0  0  0  0  0  0  0
  146.0638  133.2345  154.5030 H   0  0  0  0  0  0  0  0  0  0  0  0
  147.9704  134.7844  152.8110 H   0  0  0  0  0  0  0  0  0  0  0  0
  149.0326  136.2649  153.6623 H   0  0  0  0  0  0  0  0  0  0  0  0
  148.2416  137.7257  155.8828 H   0  0  0  0  0  0  0  0  0  0  0  0
  149.3755  136.5542  156.5051 H   0  0  0  0  0  0  0  0  0  0  0  0
  151.1551  137.7519  155.6987 H   0  0  0  0  0  0  0  0  0  0  0  0
  150.4885  137.7875  154.0932 H   0  0  0  0  0  0  0  0  0  0  0  0
  151.5921  139.8419  156.7017 H   0  0  0  0  0  0  0  0  0  0  0  0
  151.0532  142.3345  156.8973 H   0  0  0  0  0  0  0  0  0  0  0  0
  147.9094  142.0229  154.2284 H   0  0  0  0  0  0  0  0  0  0  0  0
  148.3007  139.5135  153.9133 H   0  0  0  0  0  0  0  0  0  0  0  0
  145.7637  134.1011  151.5868 H   0  0  0  0  0  0  0  0  0  0  0  0
  144.8403  134.6977  152.9529 H   0  0  0  0  0  0  0  0  0  0  0  0
  144.0497  132.4900  153.3244 H   0  0  0  0  0  0  0  0  0  0  0  0
  149.2915  143.1986  155.6675 H   0  0  0  0  0  0  0  0  0  0  0  0
  1  2  1  0  0  0  0
  1 20  1  0  0  0  0
  1 21  1  0  0  0  0
  1 22  1  0  0  0  0
  2 19  1  0  0  0  0
  2  3  1  0  0  0  0
  2 42  1  0  0  0  0
  3  4  1  0  0  0  0
  3 23  1  0  0  0  0
  3 24  1  0  0  0  0
  4  5  1  0  0  0  0
  4 25  1  0  0  0  0
  4 26  1  0  0  0  0
  5  6  1  0  0  0  0
  5 27  1  0  0  0  0
  5 28  1  0  0  0  0
  6  7  1  0  0  0  0
  6 19  1  0  0  0  0
  6 29  1  0  0  0  0
  7  8  1  0  0  0  0
  7 30  1  0  0  0  0
  8  9  2  0  0  0  0
  8 10  1  0  0  0  0
 10 11  1  0  0  0  0
 10 31  1  0  0  0  0
 11 12  1  0  0  0  0
 11 32  1  0  0  0  0
 11 33  1  0  0  0  0
 12 13  1  0  0  0  0
 12 34  1  0  0  0  0
 12 35  1  0  0  0  0
 13 18  1  0  0  0  0
 13 14  2  0  0  0  0
 14 15  1  0  0  0  0
 14 36  1  0  0  0  0
 15 16  2  0  0  0  0
 15 37  1  0  0  0  0
 16 17  1  0  0  0  0
 16 43  1  0  0  0  0
 17 18  2  0  0  0  0
 17 38  1  0  0  0  0
 18 39  1  0  0  0  0
 19 40  1  0  0  0  0
 19 41  1  0  0  0  0
M  CHG  1   2   1
M  CHG  1  16   1
M  END
> <s_m_source_file>
AV-unprocessed.smi

> <i_m_source_file_index>
2931

> <i_lp_mmshare_version>
43012

> <i_f3d_flags>
0

> <s_epik_input>
W0NIM11OMVtDSDJdW0NIMl1bQ0gyXVtDQEhdKFtDSDJdMSlbTkhdQyg9TylbTkhdW0NIMl1bQ0gyXWMyW2NIXVtjSF1uW2NIXVtjSF0y

> <s_epik_cmdline>
J2VwaWtfcHl0aG9uJywgJy1waCcsICc3LjAnLCAnLXRuJywgJzgnLCAnLW1hJywgJzIwMCcsICctbWV0YWxfYmluZGluZycsICctaW1hZScsICc8aW5maWxlLm1hZT4nLCAnLW9tYWUnLCAnPG91dGZpbGUubWFlPic=

> <r_epik_Ionization_Penalty>
1.43754

> <r_epik_Ionization_Penalty_Charging>
1.4375

> <r_epik_Ionization_Penalty_Neutral>
3.7629e-05

> <r_epik_State_Penalty>
1.52008

> <r_epik_Charging_Adjusted_Penalty>
2.95758

> <i_epik_Tot_Q>
2

> <i_epik_Tot_abs_Q>
2

> <r_epik_Metal_State_Penalty>
1.57105

> <b_epik_Metal_Only>
0

> <s_lp_Force_Field>
OPLS_2005

> <r_lp_Energy>
22.3029

> <b_lp_Chiralities_Consistent>
1

> <s_lp_Variant>
AV-unprocessed.smi:2931-5

> <Gold.Version>
5.8.1

> <Gold.Id.Protein>
6NUR|6NUR_protein|mol2

> <Gold.PLP.Fitness>
45.6262

> <Gold.PLP.PLP>
-30.1947

> <Gold.PLP.part.hbond>
-3.9389

> <Gold.PLP.part.metal>
0.0000

> <Gold.PLP.part.buried>
-3.6005

> <Gold.PLP.part.nonpolar>
-24.7492

> <Gold.PLP.part.repulsive>
0.2243

> <Gold.PLP.ligand.clash>
0.0000

> <Gold.PLP.ligand.torsion>
0.4026

> <Gold.PLP.Chemscore.Hbond>
5.4080

> <Gold.PLP.Chemscore.CHOScore>
0.0000

> <Gold.PLP.Chemscore.Metal>
0.0000

> <Gold.Chemscore.Hbonds>
donor molecule, donor type, donor heavy atom, donor atom, acceptor molecule, acceptor atom, score
      L1  H     2    42       P1 10957  1.37
      L1  H     7    30       P1  7948  0.94
      L1  H    10    31       P1  7948  1.00
      L1  H    16    43       P1  8028  2.00

> <Gold.PLP.Chemscore.Internal.Correction>
0.0128

> <Gold.Rescore>
     Score         DG    S(hbond)    S(metal)    S(lipo)     H(rot)  DE(clash)    DE(int)     intcor
     21.30     -21.75       3.57        0.00      73.03       1.65       0.06       0.39       ----

> <Gold.Chemscore.Fitness>
21.2987

> <Gold.Chemscore.DG>
-21.7464

> <Gold.Chemscore.ZeroCoef>
-5.4800

> <Gold.Chemscore.Hbond>
3.5739

> <Gold.Chemscore.Metal>
0.0000

> <Gold.Chemscore.Lipo>
73.0292

> <Gold.Chemscore.Internal_Hbond>
0.0000

> <Gold.Chemscore.DEClash>
0.0573

> <Gold.Chemscore.DEInternal>
0.3903

> <Gold.Chemscore.Rot>
1.6464

> <Gold.Chemscore.Internal.Correction>
   9.000000E+99

> <Gold.Chemscore.Hbonds>
donor molecule, donor type, donor heavy atom, donor atom, acceptor molecule, acceptor atom, score
      L1  H     2    42       P1 10957  0.14
      L1  H     7    30       P1  7948  0.77
      L1  H    10    31       P1  7948  0.96
      L1  H    16    43       P1  8028  0.97

> <Gold.Chemscore.Hbond.Weighted>
-11.9367

> <Gold.Chemscore.Metal.Weighted>
-0.0000

> <Gold.Chemscore.Lipo.Weighted>
-8.5444

> <Gold.Chemscore.Internal_Hbond.Weighted>
0.0000

> <Gold.Chemscore.DEClash.Weighted>
0.0573

> <Gold.Chemscore.DEInternal.Weighted>
0.3903

> <Gold.Chemscore.Rot.Weighted>
4.2148

> <Gold.Chemscore.Internal.Correction.Weighted>
   9.000000E+99

> <Gold.Protein.RotatedTorsions>
[ 6907 6896 6895 6894 ] final  171.97 input  -60.11 | X-H torsion
[ 7974 7965 7964 7962 ] final  -67.12 input  175.53 | X-H torsion
[ 8008 7997 7996 7995 ] final  -66.98 input   59.86 | X-H torsion
[ 10167 10162 10161 10158 ] final  158.04 input  -65.29 | X-H torsion
[ 10718 10713 10712 10709 ] final  -58.34 input   66.30 | X-H torsion
[ 10763 10752 10751 10750 ] final  -82.77 input  -60.55 | X-H torsion
[ 11005 11000 10999 10996 ] final -175.28 input  -57.11 | X-H torsion

> <Gold.Protein.ActiveResidues>
 VAL166  LYS551  ARG553  GLY616  TRP617  ASP618  TYR619  PRO620  LYS621  CYS622 
 ASP623  PHE694  ASN695  SER759  ASP760  ASP761  ALA762  ILE779  LEU786  VAL792 
 PHE793  MET794  SER795  GLU796  ALA797  LYS798  CYS799  TRP800  GLU811  SER814 

> <Gold.Protein.RotatedAtoms>
  151.7917  133.3360  159.3500 H   0  0  0  0  0  0  0  0  0  0  0  0  # atno 6907 bound_to 6896
  150.7389  134.5836  159.5960 H   0  0  0  0  0  0  0  0  0  0  0  0  # atno 6908 bound_to 6896
  152.3205  134.7387  160.0366 H   0  0  0  0  0  0  0  0  0  0  0  0  # atno 6909 bound_to 6896
  145.7332  140.8987  143.0569 H   0  0  0  0  0  0  0  0  0  0  0  0  # atno 7974 bound_to 7965
  154.4770  140.0902  156.7285 H   0  0  0  0  0  0  0  0  0  0  0  0  # atno 8008 bound_to 7997
  155.4571  140.3459  155.4290 H   0  0  0  0  0  0  0  0  0  0  0  0  # atno 8009 bound_to 7997
  156.1131  140.1453  156.9298 H   0  0  0  0  0  0  0  0  0  0  0  0  # atno 8010 bound_to 7997
  139.4825  144.4861  151.8375 H   0  0  0  0  0  0  0  0  0  0  0  0  # atno 10167 bound_to 10162
  156.1142  130.4172  150.0564 H   0  0  0  0  0  0  0  0  0  0  0  0  # atno 10718 bound_to 10713
  154.5797  135.5579  153.7174 H   0  0  0  0  0  0  0  0  0  0  0  0  # atno 10763 bound_to 10752
  153.0077  135.6317  154.1999 H   0  0  0  0  0  0  0  0  0  0  0  0  # atno 10764 bound_to 10752
  154.1940  135.2881  155.2993 H   0  0  0  0  0  0  0  0  0  0  0  0  # atno 10765 bound_to 10752
  140.4651  134.6218  157.4859 H   0  0  0  0  0  0  0  0  0  0  0  0  # atno 11005 bound_to 11000
  144.6888  139.9359  143.7473 LP  0  0  0  0  0  0  0  0  0  0  0  0  # atno 17320 bound_to 7965
  146.0518  139.3518  143.0635 LP  0  0  0  0  0  0  0  0  0  0  0  0  # atno 17321 bound_to 7965
  140.4341  144.2075  150.5889 LP  0  0  0  0  0  0  0  0  0  0  0  0  # atno 17342 bound_to 10162
  140.4749  143.2399  151.9037 LP  0  0  0  0  0  0  0  0  0  0  0  0  # atno 17343 bound_to 10162
  156.8519  130.9462  151.3625 LP  0  0  0  0  0  0  0  0  0  0  0  0  # atno 17370 bound_to 10713
  157.6325  130.8740  149.9299 LP  0  0  0  0  0  0  0  0  0  0  0  0  # atno 17371 bound_to 10713
  139.9921  134.6969  155.9672 LP  0  0  0  0  0  0  0  0  0  0  0  0  # atno 17394 bound_to 11000
  141.1603  133.6539  156.4297 LP  0  0  0  0  0  0  0  0  0  0  0  0  # atno 17395 bound_to 11000

$$$$
