AV-unprocessed.smi:1012|AV-procd|sdf|4422|dock2
  -GOLD-   22720 2373D 1   1.00000     0.00000
 Structure written by MMmdl.
 43 45  0  0  0  0  0  0  0  0  1 V2000
  148.2947  131.5761  160.0696 C   0  0  0  0  0  0  0  0  0  0  0  0
  148.3743  132.9593  159.7574 O   0  0  0  0  0  0  0  0  0  0  0  0
  148.1275  133.8766  160.7591 C   0  0  0  0  0  0  0  0  0  0  0  0
  147.6705  133.5107  162.0519 C   0  0  0  0  0  0  0  0  0  0  0  0
  147.4354  134.4894  163.0359 C   0  0  0  0  0  0  0  0  0  0  0  0
  147.6536  135.8470  162.7457 C   0  0  0  0  0  0  0  0  0  0  0  0
  148.1066  136.2235  161.4691 C   0  0  0  0  0  0  0  0  0  0  0  0
  148.3414  135.2494  160.4757 C   0  0  0  0  0  0  0  0  0  0  0  0
  148.8402  135.7131  159.1167 C   0  0  0  0  0  0  0  0  0  0  0  0
  150.1083  136.3391  159.2192 O   0  0  0  0  0  0  0  0  0  0  0  0
  150.6175  136.7638  157.9656 C   0  0  0  0  0  0  0  0  0  0  0  0
  149.6544  137.7937  157.3584 C   0  0  2  0  0  0  0  0  0  0  0  0
  148.8268  137.1385  156.4176 O   0  0  0  0  0  0  0  0  0  0  0  0
  150.3922  138.9638  156.6791 C   0  0  0  0  0  0  0  0  0  0  0  0
  151.4253  139.5295  157.5272 N   0  0  0  0  0  0  0  0  0  0  0  0
  152.6266  138.9945  157.8189 C   0  0  0  0  0  0  0  0  0  0  0  0
  153.4251  139.6923  158.6218 N   0  0  0  0  0  0  0  0  0  0  0  0
  152.6522  140.8111  158.8814 C   0  0  0  0  0  0  0  0  0  0  0  0
  152.9228  141.9501  159.6730 C   0  0  0  0  0  0  0  0  0  0  0  0
  151.9678  142.9813  159.7923 C   0  0  0  0  0  0  0  0  0  0  0  0
  152.2433  144.0659  160.5548 F   0  0  0  0  0  0  0  0  0  0  0  0
  150.7292  142.8893  159.1228 C   0  0  0  0  0  0  0  0  0  0  0  0
  149.8178  143.8836  159.2436 F   0  0  0  0  0  0  0  0  0  0  0  0
  150.4375  141.7643  158.3278 C   0  0  0  0  0  0  0  0  0  0  0  0
  151.3936  140.7386  158.2121 C   0  0  0  0  0  0  0  0  0  0  0  0
  148.5059  130.9933  159.1731 H   0  0  0  0  0  0  0  0  0  0  0  0
  147.2964  131.3007  160.4124 H   0  0  0  0  0  0  0  0  0  0  0  0
  149.0289  131.2946  160.8256 H   0  0  0  0  0  0  0  0  0  0  0  0
  147.4914  132.4802  162.3181 H   0  0  0  0  0  0  0  0  0  0  0  0
  147.0875  134.1966  164.0156 H   0  0  0  0  0  0  0  0  0  0  0  0
  147.4750  136.5983  163.5008 H   0  0  0  0  0  0  0  0  0  0  0  0
  148.2747  137.2681  161.2508 H   0  0  0  0  0  0  0  0  0  0  0  0
  148.9143  134.8387  158.4682 H   0  0  0  0  0  0  0  0  0  0  0  0
  148.1347  136.3968  158.6442 H   0  0  0  0  0  0  0  0  0  0  0  0
  151.6146  137.1921  158.0818 H   0  0  0  0  0  0  0  0  0  0  0  0
  150.7055  135.9008  157.3032 H   0  0  0  0  0  0  0  0  0  0  0  0
  149.0084  138.1788  158.1486 H   0  0  0  0  0  0  0  0  0  0  0  0
  148.0777  137.6871  156.2427 H   0  0  0  0  0  0  0  0  0  0  0  0
  150.8621  138.6284  155.7537 H   0  0  0  0  0  0  0  0  0  0  0  0
  149.6911  139.7530  156.4038 H   0  0  0  0  0  0  0  0  0  0  0  0
  152.9337  138.0401  157.4165 H   0  0  0  0  0  0  0  0  0  0  0  0
  153.8675  142.0315  160.1897 H   0  0  0  0  0  0  0  0  0  0  0  0
  149.4913  141.6906  157.8126 H   0  0  0  0  0  0  0  0  0  0  0  0
  1  2  1  0  0  0  0
  1 26  1  0  0  0  0
  1 27  1  0  0  0  0
  1 28  1  0  0  0  0
  2  3  1  0  0  0  0
  3  8  1  0  0  0  0
  3  4  2  0  0  0  0
  4  5  1  0  0  0  0
  4 29  1  0  0  0  0
  5  6  2  0  0  0  0
  5 30  1  0  0  0  0
  6  7  1  0  0  0  0
  6 31  1  0  0  0  0
  7  8  2  0  0  0  0
  7 32  1  0  0  0  0
  8  9  1  0  0  0  0
  9 10  1  0  0  0  0
  9 33  1  0  0  0  0
  9 34  1  0  0  0  0
 10 11  1  0  0  0  0
 11 12  1  0  0  0  0
 11 35  1  0  0  0  0
 11 36  1  0  0  0  0
 12 13  1  0  0  0  0
 12 14  1  0  0  0  0
 12 37  1  0  0  0  0
 13 38  1  0  0  0  0
 14 15  1  0  0  0  0
 14 39  1  0  0  0  0
 14 40  1  0  0  0  0
 15 25  1  0  0  0  0
 15 16  1  0  0  0  0
 16 17  2  0  0  0  0
 16 41  1  0  0  0  0
 17 18  1  0  0  0  0
 18 25  2  0  0  0  0
 18 19  1  0  0  0  0
 19 20  2  0  0  0  0
 19 42  1  0  0  0  0
 20 21  1  0  0  0  0
 20 22  1  0  0  0  0
 22 23  1  0  0  0  0
 22 24  2  0  0  0  0
 24 25  1  0  0  0  0
 24 43  1  0  0  0  0
M  END
> <s_m_source_file>
AV-unprocessed.smi

> <i_m_source_file_index>
1012

> <i_lp_mmshare_version>
43012

> <i_f3d_flags>
0

> <s_epik_input>
W0NIM11PYzFbY0hdW2NIXVtjSF1bY0hdYzFbQ0gyXU9bQ0gyXVtDQEhdKFtPSF0pW0NIMl1uKFtjSF1uMiljKGMyMylbY0hdYyhGKWMoRilbY0hdMw==

> <s_epik_cmdline>
J2VwaWtfcHl0aG9uJywgJy1waCcsICc3LjAnLCAnLXRuJywgJzgnLCAnLW1hJywgJzIwMCcsICctbWV0YWxfYmluZGluZycsICctaW1hZScsICc8aW5maWxlLm1hZT4nLCAnLW9tYWUnLCAnPG91dGZpbGUubWFlPic=

> <r_lp_tautomer_probability>
1

> <r_epik_Ionization_Penalty>
0.0160257

> <r_epik_Ionization_Penalty_Charging>
0

> <r_epik_Ionization_Penalty_Neutral>
0.0160257

> <r_epik_State_Penalty>
0.0126263

> <r_epik_Charging_Adjusted_Penalty>
0.0126263

> <i_epik_Tot_Q>
0

> <i_epik_Tot_abs_Q>
0

> <r_epik_Metal_State_Penalty>
1.27616e-05

> <b_epik_Metal_Only>
0

> <s_lp_Force_Field>
OPLS_2005

> <r_lp_Energy>
17.5186

> <b_lp_Chiralities_Consistent>
1

> <s_lp_Variant>
AV-unprocessed.smi:1012-1

> <Gold.Version>
5.8.1

> <Gold.Id.Protein>
6NUR|6NUR_protein|mol2

> <Gold.PLP.Fitness>
50.6721

> <Gold.PLP.PLP>
-45.9872

> <Gold.PLP.part.hbond>
-2.0000

> <Gold.PLP.part.metal>
0.0000

> <Gold.PLP.part.buried>
-4.8375

> <Gold.PLP.part.nonpolar>
-39.6355

> <Gold.PLP.part.repulsive>
0.0000

> <Gold.PLP.ligand.clash>
0.0000

> <Gold.PLP.ligand.torsion>
0.8294

> <Gold.PLP.Chemscore.Hbond>
2.0000

> <Gold.PLP.Chemscore.CHOScore>
0.0000

> <Gold.PLP.Chemscore.Metal>
0.0000

> <Gold.Chemscore.Hbonds>
donor molecule, donor type, donor heavy atom, donor atom, acceptor molecule, acceptor atom, score
      P1  H  6896  6908       L1    10  0.90
      P1  H  7997  8008       L1    17  0.50

> <Gold.PLP.Chemscore.Internal.Correction>
0.3438

> <Gold.Rescore>
     Score         DG    S(hbond)    S(metal)    S(lipo)     H(rot)  DE(clash)    DE(int)     intcor
     12.93     -14.83       1.16        0.00     110.96       2.93       0.13       1.78       ----

> <Gold.Chemscore.Fitness>
12.9250

> <Gold.Chemscore.DG>
-14.8263

> <Gold.Chemscore.ZeroCoef>
-5.4800

> <Gold.Chemscore.Hbond>
1.1599

> <Gold.Chemscore.Metal>
0.0000

> <Gold.Chemscore.Lipo>
110.9572

> <Gold.Chemscore.Internal_Hbond>
0.0000

> <Gold.Chemscore.DEClash>
0.1257

> <Gold.Chemscore.DEInternal>
1.7756

> <Gold.Chemscore.Rot>
2.9335

> <Gold.Chemscore.Internal.Correction>
   9.000000E+99

> <Gold.Chemscore.Hbonds>
donor molecule, donor type, donor heavy atom, donor atom, acceptor molecule, acceptor atom, score
      P1  H  6896  6908       L1    10  0.13
      P1  H  7997  8008       L1    17  0.02

> <Gold.Chemscore.Hbond.Weighted>
-3.8740

> <Gold.Chemscore.Metal.Weighted>
-0.0000

> <Gold.Chemscore.Lipo.Weighted>
-12.9820

> <Gold.Chemscore.Internal_Hbond.Weighted>
0.0000

> <Gold.Chemscore.DEClash.Weighted>
0.1257

> <Gold.Chemscore.DEInternal.Weighted>
1.7756

> <Gold.Chemscore.Rot.Weighted>
7.5097

> <Gold.Chemscore.Internal.Correction.Weighted>
   9.000000E+99

> <Gold.Protein.RotatedTorsions>
[ 6907 6896 6895 6894 ] final -156.94 input  -60.11 | X-H torsion
[ 7974 7965 7964 7962 ] final  -75.41 input  175.53 | X-H torsion
[ 8008 7997 7996 7995 ] final  -91.00 input   59.86 | X-H torsion
[ 10167 10162 10161 10158 ] final -136.26 input  -65.29 | X-H torsion
[ 10718 10713 10712 10709 ] final  -76.88 input   66.30 | X-H torsion
[ 10763 10752 10751 10750 ] final -123.10 input  -60.55 | X-H torsion
[ 11005 11000 10999 10996 ] final  122.81 input  -57.11 | X-H torsion

> <Gold.Protein.ActiveResidues>
 VAL166  LYS551  ARG553  GLY616  TRP617  ASP618  TYR619  PRO620  LYS621  CYS622 
 ASP623  PHE694  ASN695  SER759  ASP760  ASP761  ALA762  ILE779  LEU786  VAL792 
 PHE793  MET794  SER795  GLU796  ALA797  LYS798  CYS799  TRP800  GLU811  SER814 

> <Gold.Protein.RotatedAtoms>
  151.2953  133.4146  159.2635 H   0  0  0  0  0  0  0  0  0  0  0  0  # atno 6907 bound_to 6896
  151.0242  134.9492  159.8086 H   0  0  0  0  0  0  0  0  0  0  0  0  # atno 6908 bound_to 6896
  152.5331  134.2916  159.9097 H   0  0  0  0  0  0  0  0  0  0  0  0  # atno 6909 bound_to 6896
  145.6264  140.9349  143.1110 H   0  0  0  0  0  0  0  0  0  0  0  0  # atno 7974 bound_to 7965
  154.7054  140.0524  157.0498 H   0  0  0  0  0  0  0  0  0  0  0  0  # atno 8008 bound_to 7997
  155.0628  140.3191  155.4636 H   0  0  0  0  0  0  0  0  0  0  0  0  # atno 8009 bound_to 7997
  156.2773  140.2096  156.5755 H   0  0  0  0  0  0  0  0  0  0  0  0  # atno 8010 bound_to 7997
  139.8696  143.6974  152.2641 H   0  0  0  0  0  0  0  0  0  0  0  0  # atno 10167 bound_to 10162
  156.0161  130.4477  150.3261 H   0  0  0  0  0  0  0  0  0  0  0  0  # atno 10718 bound_to 10713
  154.8702  135.4110  154.2889 H   0  0  0  0  0  0  0  0  0  0  0  0  # atno 10763 bound_to 10752
  153.3769  135.7010  153.6601 H   0  0  0  0  0  0  0  0  0  0  0  0  # atno 10764 bound_to 10752
  153.5439  135.3642  155.2702 H   0  0  0  0  0  0  0  0  0  0  0  0  # atno 10765 bound_to 10752
  139.9285  134.9641  156.8165 H   0  0  0  0  0  0  0  0  0  0  0  0  # atno 11005 bound_to 11000
  144.7211  139.8028  143.7381 LP  0  0  0  0  0  0  0  0  0  0  0  0  # atno 17320 bound_to 7965
  146.1391  139.4444  143.0120 LP  0  0  0  0  0  0  0  0  0  0  0  0  # atno 17321 bound_to 7965
  139.7296  144.7585  151.0823 LP  0  0  0  0  0  0  0  0  0  0  0  0  # atno 17342 bound_to 10162
  140.7763  143.5104  150.9659 LP  0  0  0  0  0  0  0  0  0  0  0  0  # atno 17343 bound_to 10162
  157.1360  131.0284  151.2948 LP  0  0  0  0  0  0  0  0  0  0  0  0  # atno 17370 bound_to 10713
  157.4511  130.7599  149.7152 LP  0  0  0  0  0  0  0  0  0  0  0  0  # atno 17371 bound_to 10713
  140.6269  133.9942  155.7644 LP  0  0  0  0  0  0  0  0  0  0  0  0  # atno 17394 bound_to 11000
  141.0858  133.9993  157.3315 LP  0  0  0  0  0  0  0  0  0  0  0  0  # atno 17395 bound_to 11000

$$$$
