AV-unprocessed.smi:2141|AV-procd|sdf|8718|dock5
  -GOLD-   2272011483D 1   1.00000     0.00000
 Structure written by MMmdl.
 42 43  0  0  0  0  0  0  0  0  1 V2000
  141.3451  138.0350  153.6925 C   0  0  0  0  0  0  0  0  0  0  0  0
  142.8937  137.0581  153.8786 S   0  0  0  0  0  0  0  0  0  0  0  0
  143.4086  137.2467  155.2434 O   0  0  0  0  0  0  0  0  0  0  0  0
  142.6481  135.7048  153.3583 O   0  0  0  0  0  0  0  0  0  0  0  0
  143.9894  137.8333  152.7917 N   0  0  0  0  0  0  0  0  0  0  0  0
  145.3152  137.2660  152.5212 C   0  0  0  0  0  0  0  0  0  0  0  0
  146.3952  138.3546  152.3535 C   0  0  0  0  0  0  0  0  0  0  0  0
  146.9317  138.8858  153.6851 C   0  0  0  0  0  0  0  0  0  0  0  0
  146.3648  138.5759  154.7326 O   0  0  0  0  0  0  0  0  0  0  0  0
  148.0242  139.6666  153.6052 N   0  0  0  0  0  0  0  0  0  0  0  0
  148.7922  140.2105  154.6682 C   0  0  0  0  0  0  0  0  0  0  0  0
  148.2662  140.5581  155.9336 C   0  0  0  0  0  0  0  0  0  0  0  0
  149.1316  141.0924  156.9073 C   0  0  0  0  0  0  0  0  0  0  0  0
  150.4992  141.2751  156.5936 C   0  0  0  0  0  0  0  0  0  0  0  0
  151.3849  141.7995  157.5593 N   0  0  0  0  0  0  0  0  0  0  0  0
  151.5755  140.9832  158.7554 C   0  0  0  0  0  0  0  0  0  0  0  0
  152.7781  141.4952  159.5673 C   0  0  0  0  0  0  0  0  0  0  0  0
  152.6107  142.8786  159.8597 O   0  0  0  0  0  0  0  0  0  0  0  0
  152.5411  143.6655  158.6755 C   0  0  0  0  0  0  0  0  0  0  0  0
  151.3255  143.2330  157.8386 C   0  0  0  0  0  0  0  0  0  0  0  0
  150.9960  140.9515  155.3745 N   0  0  0  0  0  0  0  0  0  0  0  0
  150.1628  140.4439  154.4430 C   0  0  0  0  0  0  0  0  0  0  0  0
  140.5705  137.6063  154.3278 H   0  0  0  0  0  0  0  0  0  0  0  0
  141.0143  138.0046  152.6545 H   0  0  0  0  0  0  0  0  0  0  0  0
  141.5202  139.0679  153.9904 H   0  0  0  0  0  0  0  0  0  0  0  0
  143.9462  138.8524  152.8090 H   0  0  0  0  0  0  0  0  0  0  0  0
  145.5933  136.5833  153.3249 H   0  0  0  0  0  0  0  0  0  0  0  0
  145.2539  136.6645  151.6143 H   0  0  0  0  0  0  0  0  0  0  0  0
  147.2223  137.9630  151.7596 H   0  0  0  0  0  0  0  0  0  0  0  0
  145.9867  139.1919  151.7859 H   0  0  0  0  0  0  0  0  0  0  0  0
  148.4158  139.7850  152.6819 H   0  0  0  0  0  0  0  0  0  0  0  0
  147.2217  140.4327  156.1738 H   0  0  0  0  0  0  0  0  0  0  0  0
  148.7407  141.3405  157.8828 H   0  0  0  0  0  0  0  0  0  0  0  0
  150.6696  141.0315  159.3611 H   0  0  0  0  0  0  0  0  0  0  0  0
  151.7348  139.9346  158.5079 H   0  0  0  0  0  0  0  0  0  0  0  0
  152.8608  140.9427  160.5033 H   0  0  0  0  0  0  0  0  0  0  0  0
  153.7102  141.3383  159.0220 H   0  0  0  0  0  0  0  0  0  0  0  0
  152.4527  144.7164  158.9510 H   0  0  0  0  0  0  0  0  0  0  0  0
  153.4640  143.5632  158.1024 H   0  0  0  0  0  0  0  0  0  0  0  0
  151.3089  143.7991  156.9064 H   0  0  0  0  0  0  0  0  0  0  0  0
  150.4031  143.4590  158.3753 H   0  0  0  0  0  0  0  0  0  0  0  0
  150.6109  140.2046  153.4895 H   0  0  0  0  0  0  0  0  0  0  0  0
  1  2  1  0  0  0  0
  1 23  1  0  0  0  0
  1 24  1  0  0  0  0
  1 25  1  0  0  0  0
  2  3  2  0  0  0  0
  2  4  2  0  0  0  0
  2  5  1  0  0  0  0
  5  6  1  0  0  0  0
  5 26  1  0  0  0  0
  6  7  1  0  0  0  0
  6 27  1  0  0  0  0
  6 28  1  0  0  0  0
  7  8  1  0  0  0  0
  7 29  1  0  0  0  0
  7 30  1  0  0  0  0
  8  9  2  0  0  0  0
  8 10  1  0  0  0  0
 10 11  1  0  0  0  0
 10 31  1  0  0  0  0
 11 22  1  0  0  0  0
 11 12  2  0  0  0  0
 12 13  1  0  0  0  0
 12 32  1  0  0  0  0
 13 14  2  0  0  0  0
 13 33  1  0  0  0  0
 14 15  1  0  0  0  0
 14 21  1  0  0  0  0
 15 20  1  0  0  0  0
 15 16  1  0  0  0  0
 16 17  1  0  0  0  0
 16 34  1  0  0  0  0
 16 35  1  0  0  0  0
 17 18  1  0  0  0  0
 17 36  1  0  0  0  0
 17 37  1  0  0  0  0
 18 19  1  0  0  0  0
 19 20  1  0  0  0  0
 19 38  1  0  0  0  0
 19 39  1  0  0  0  0
 20 40  1  0  0  0  0
 20 41  1  0  0  0  0
 21 22  2  0  0  0  0
 22 42  1  0  0  0  0
M  END
> <s_m_source_file>
AV-unprocessed.smi

> <i_m_source_file_index>
2141

> <i_lp_mmshare_version>
43012

> <i_f3d_flags>
0

> <s_epik_input>
W0NIM11TKD1PKSg9TylbTkhdW0NIMl1bQ0gyXUMoPU8pW05IXWMxW2NIXVtjSF1jKG5bY0hdMSlOMltDSDJdW0NIMl1PW0NIMl1bQ0gyXTI=

> <s_epik_cmdline>
J2VwaWtfcHl0aG9uJywgJy1waCcsICc3LjAnLCAnLXRuJywgJzgnLCAnLW1hJywgJzIwMCcsICctbWV0YWxfYmluZGluZycsICctaW1hZScsICc8aW5maWxlLm1hZT4nLCAnLW9tYWUnLCAnPG91dGZpbGUubWFlPic=

> <r_lp_tautomer_probability>
1

> <r_epik_Ionization_Penalty>
0.000610192

> <r_epik_Ionization_Penalty_Charging>
0

> <r_epik_Ionization_Penalty_Neutral>
0.000610192

> <r_epik_State_Penalty>
0.000370803

> <r_epik_Charging_Adjusted_Penalty>
0.000370803

> <i_epik_Tot_Q>
0

> <i_epik_Tot_abs_Q>
0

> <r_epik_Metal_State_Penalty>
0.0170256

> <b_epik_Metal_Only>
0

> <s_lp_Force_Field>
OPLS_2005

> <r_lp_Energy>
9.95274

> <b_lp_Chiralities_Consistent>
1

> <s_lp_Variant>
AV-unprocessed.smi:2141-1

> <Gold.Version>
5.8.1

> <Gold.Id.Protein>
6NUR|6NUR_protein|mol2

> <Gold.PLP.Fitness>
41.6768

> <Gold.PLP.PLP>
-34.2322

> <Gold.PLP.part.hbond>
-4.0000

> <Gold.PLP.part.metal>
0.0000

> <Gold.PLP.part.buried>
-0.9234

> <Gold.PLP.part.nonpolar>
-30.0307

> <Gold.PLP.part.repulsive>
0.5195

> <Gold.PLP.ligand.clash>
0.0000

> <Gold.PLP.ligand.torsion>
1.3837

> <Gold.PLP.Chemscore.Hbond>
2.0000

> <Gold.PLP.Chemscore.CHOScore>
0.9453

> <Gold.PLP.Chemscore.Metal>
0.0000

> <Gold.Chemscore.Hbonds>
donor molecule, donor type, donor heavy atom, donor atom, acceptor molecule, acceptor atom, score
      L1  H     5    26       P1 10175  1.00
      L1  H    10    31       P1  7957  1.00
      L1  C    22    42       P1  7957  1.00

> <Gold.PLP.Chemscore.Internal.Correction>
1.3762

> <Gold.Rescore>
     Score         DG    S(hbond)    S(metal)    S(lipo)     H(rot)  DE(clash)    DE(int)     intcor
     12.52     -16.44       2.00        0.00      80.27       1.99       1.55       2.37       ----

> <Gold.Chemscore.Fitness>
12.5154

> <Gold.Chemscore.DG>
-16.4372

> <Gold.Chemscore.ZeroCoef>
-5.4800

> <Gold.Chemscore.Hbond>
1.9960

> <Gold.Chemscore.Metal>
0.0000

> <Gold.Chemscore.Lipo>
80.2672

> <Gold.Chemscore.Internal_Hbond>
0.0000

> <Gold.Chemscore.DEClash>
1.5469

> <Gold.Chemscore.DEInternal>
2.3750

> <Gold.Chemscore.Rot>
1.9925

> <Gold.Chemscore.Internal.Correction>
   9.000000E+99

> <Gold.Chemscore.Hbonds>
donor molecule, donor type, donor heavy atom, donor atom, acceptor molecule, acceptor atom, score
      L1  H     5    26       P1 10175  1.00
      L1  H    10    31       P1  7957  0.99

> <Gold.Chemscore.Hbond.Weighted>
-6.6668

> <Gold.Chemscore.Metal.Weighted>
-0.0000

> <Gold.Chemscore.Lipo.Weighted>
-9.3913

> <Gold.Chemscore.Internal_Hbond.Weighted>
0.0000

> <Gold.Chemscore.DEClash.Weighted>
1.5469

> <Gold.Chemscore.DEInternal.Weighted>
2.3750

> <Gold.Chemscore.Rot.Weighted>
5.1008

> <Gold.Chemscore.Internal.Correction.Weighted>
   9.000000E+99

> <Gold.Protein.RotatedTorsions>
[ 6907 6896 6895 6894 ] final  112.48 input  -60.11 | X-H torsion
[ 7974 7965 7964 7962 ] final  -86.30 input  175.53 | X-H torsion
[ 8008 7997 7996 7995 ] final    9.48 input   59.86 | X-H torsion
[ 10167 10162 10161 10158 ] final  148.56 input  -65.29 | X-H torsion
[ 10718 10713 10712 10709 ] final   90.54 input   66.30 | X-H torsion
[ 10763 10752 10751 10750 ] final  149.67 input  -60.55 | X-H torsion
[ 11005 11000 10999 10996 ] final  -17.22 input  -57.11 | X-H torsion

> <Gold.Protein.ActiveResidues>
 VAL166  LYS551  ARG553  GLY616  TRP617  ASP618  TYR619  PRO620  LYS621  CYS622 
 ASP623  PHE694  ASN695  SER759  ASP760  ASP761  ALA762  ILE779  LEU786  VAL792 
 PHE793  MET794  SER795  GLU796  ALA797  LYS798  CYS799  TRP800  GLU811  SER814 

> <Gold.Protein.RotatedAtoms>
  152.4914  133.8510  159.7201 H   0  0  0  0  0  0  0  0  0  0  0  0  # atno 6907 bound_to 6896
  150.9048  133.7063  159.2876 H   0  0  0  0  0  0  0  0  0  0  0  0  # atno 6908 bound_to 6896
  151.4493  135.1032  159.9745 H   0  0  0  0  0  0  0  0  0  0  0  0  # atno 6909 bound_to 6896
  145.4817  140.9556  143.1861 H   0  0  0  0  0  0  0  0  0  0  0  0  # atno 7974 bound_to 7965
  154.7807  140.2818  155.6066 H   0  0  0  0  0  0  0  0  0  0  0  0  # atno 8008 bound_to 7997
  156.2949  140.2623  156.2559 H   0  0  0  0  0  0  0  0  0  0  0  0  # atno 8009 bound_to 7997
  154.9788  140.0375  157.2258 H   0  0  0  0  0  0  0  0  0  0  0  0  # atno 8010 bound_to 7997
  139.4873  144.5670  151.7126 H   0  0  0  0  0  0  0  0  0  0  0  0  # atno 10167 bound_to 10162
  157.6959  131.0374  150.3593 H   0  0  0  0  0  0  0  0  0  0  0  0  # atno 10718 bound_to 10713
  154.0749  135.2864  155.3301 H   0  0  0  0  0  0  0  0  0  0  0  0  # atno 10763 bound_to 10752
  154.6722  135.5295  153.8156 H   0  0  0  0  0  0  0  0  0  0  0  0  # atno 10764 bound_to 10752
  153.0471  135.6560  154.0928 H   0  0  0  0  0  0  0  0  0  0  0  0  # atno 10765 bound_to 10752
  140.8146  133.8114  155.9597 H   0  0  0  0  0  0  0  0  0  0  0  0  # atno 11005 bound_to 11000
  144.7885  139.6377  143.7123 LP  0  0  0  0  0  0  0  0  0  0  0  0  # atno 17320 bound_to 7965
  146.2337  139.5863  142.9538 LP  0  0  0  0  0  0  0  0  0  0  0  0  # atno 17321 bound_to 7965
  140.5250  144.0820  150.6034 LP  0  0  0  0  0  0  0  0  0  0  0  0  # atno 17342 bound_to 10162
  140.3790  143.2813  152.0192 LP  0  0  0  0  0  0  0  0  0  0  0  0  # atno 17343 bound_to 10162
  156.4032  130.3920  149.6945 LP  0  0  0  0  0  0  0  0  0  0  0  0  # atno 17370 bound_to 10713
  156.4255  130.7789  151.2808 LP  0  0  0  0  0  0  0  0  0  0  0  0  # atno 17371 bound_to 10713
  140.9162  134.2198  157.4955 LP  0  0  0  0  0  0  0  0  0  0  0  0  # atno 17394 bound_to 11000
  139.8712  134.9772  156.4951 LP  0  0  0  0  0  0  0  0  0  0  0  0  # atno 17395 bound_to 11000

$$$$
