AV-unprocessed.smi:1538|AV-procd|sdf|6194|dock8
  -GOLD-   22720 6363D 1   1.00000     0.00000
 Structure written by MMmdl.
 36 37  0  0  0  0  0  0  0  0  1 V2000
  149.2057  136.6049  159.1747 C   0  0  0  0  0  0  0  0  0  0  0  0
  149.9815  137.0789  158.0272 N   0  0  0  0  0  0  0  0  0  0  0  0
  149.1832  137.4550  156.8538 C   0  0  0  0  0  0  0  0  0  0  0  0
  149.9970  137.4737  155.5531 C   0  0  0  0  0  0  0  0  0  0  0  0
  151.3113  138.2506  155.7164 C   0  0  1  0  0  0  0  0  0  0  0  0
  151.0839  139.7687  155.8106 C   0  0  0  0  0  0  0  0  0  0  0  0
  150.6788  140.4004  154.8341 O   0  0  0  0  0  0  0  0  0  0  0  0
  151.3668  140.3439  156.9901 N   0  0  0  0  0  0  0  0  0  0  0  0
  151.3252  141.7790  157.2568 C   0  0  0  0  0  0  0  0  0  0  0  0
  152.1267  142.1502  158.5191 C   0  0  0  0  0  0  0  0  0  0  0  0
  151.8674  143.5059  158.9688 N   0  0  0  0  0  0  0  0  0  0  0  0
  152.2953  144.0942  160.1516 C   0  0  0  0  0  0  0  0  0  0  0  0
  151.7975  145.3778  160.1543 C   0  0  0  0  0  0  0  0  0  0  0  0
  151.0720  145.6026  158.9868 N   0  0  0  0  0  0  0  0  0  0  0  0
  151.1614  144.4516  158.3332 C   0  0  0  0  0  0  0  0  0  0  0  0
  152.1386  137.7023  156.9018 C   0  0  0  0  0  0  0  0  0  0  0  0
  151.3293  137.1962  158.1118 C   0  0  0  0  0  0  0  0  0  0  0  0
  151.9518  136.8953  159.1309 O   0  0  0  0  0  0  0  0  0  0  0  0
  149.4407  137.1832  160.0698 H   0  0  0  0  0  0  0  0  0  0  0  0
  149.4274  135.5562  159.3768 H   0  0  0  0  0  0  0  0  0  0  0  0
  148.1313  136.6920  159.0100 H   0  0  0  0  0  0  0  0  0  0  0  0
  148.3472  136.7647  156.7328 H   0  0  0  0  0  0  0  0  0  0  0  0
  148.7451  138.4364  157.0387 H   0  0  0  0  0  0  0  0  0  0  0  0
  150.2245  136.4484  155.2578 H   0  0  0  0  0  0  0  0  0  0  0  0
  149.3966  137.8941  154.7450 H   0  0  0  0  0  0  0  0  0  0  0  0
  151.9005  138.0816  154.8134 H   0  0  0  0  0  0  0  0  0  0  0  0
  151.6833  139.7495  157.7426 H   0  0  0  0  0  0  0  0  0  0  0  0
  151.6752  142.3524  156.3968 H   0  0  0  0  0  0  0  0  0  0  0  0
  150.2811  142.0574  157.3999 H   0  0  0  0  0  0  0  0  0  0  0  0
  151.8723  141.4704  159.3328 H   0  0  0  0  0  0  0  0  0  0  0  0
  153.1965  142.0355  158.3386 H   0  0  0  0  0  0  0  0  0  0  0  0
  152.8935  143.5627  160.8770 H   0  0  0  0  0  0  0  0  0  0  0  0
  151.9053  146.1508  160.9008 H   0  0  0  0  0  0  0  0  0  0  0  0
  150.6920  144.2891  157.3740 H   0  0  0  0  0  0  0  0  0  0  0  0
  152.7321  136.8582  156.5486 H   0  0  0  0  0  0  0  0  0  0  0  0
  152.8623  138.4427  157.2465 H   0  0  0  0  0  0  0  0  0  0  0  0
  1  2  1  0  0  0  0
  1 19  1  0  0  0  0
  1 20  1  0  0  0  0
  1 21  1  0  0  0  0
  2 17  1  0  0  0  0
  2  3  1  0  0  0  0
  3  4  1  0  0  0  0
  3 22  1  0  0  0  0
  3 23  1  0  0  0  0
  4  5  1  0  0  0  0
  4 24  1  0  0  0  0
  4 25  1  0  0  0  0
  5  6  1  0  0  0  0
  5 16  1  0  0  0  0
  5 26  1  0  0  0  0
  6  7  2  0  0  0  0
  6  8  1  0  0  0  0
  8  9  1  0  0  0  0
  8 27  1  0  0  0  0
  9 10  1  0  0  0  0
  9 28  1  0  0  0  0
  9 29  1  0  0  0  0
 10 11  1  0  0  0  0
 10 30  1  0  0  0  0
 10 31  1  0  0  0  0
 11 15  1  0  0  0  0
 11 12  1  0  0  0  0
 12 13  2  0  0  0  0
 12 32  1  0  0  0  0
 13 14  1  0  0  0  0
 13 33  1  0  0  0  0
 14 15  2  0  0  0  0
 15 34  1  0  0  0  0
 16 17  1  0  0  0  0
 16 35  1  0  0  0  0
 16 36  1  0  0  0  0
 17 18  2  0  0  0  0
M  END
> <s_m_source_file>
AV-unprocessed.smi

> <i_m_source_file_index>
1538

> <i_lp_mmshare_version>
43012

> <i_f3d_flags>
0

> <s_epik_input>
W0NIM11OMVtDSDJdW0NIMl1bQ0BIXShbQ0gyXUMxPU8pQyg9TylbTkhdW0NIMl1bQ0gyXW4yW2NIXVtjSF1uW2NIXTI=

> <s_epik_cmdline>
J2VwaWtfcHl0aG9uJywgJy1waCcsICc3LjAnLCAnLXRuJywgJzgnLCAnLW1hJywgJzIwMCcsICctbWV0YWxfYmluZGluZycsICctaW1hZScsICc8aW5maWxlLm1hZT4nLCAnLW9tYWUnLCAnPG91dGZpbGUubWFlPic=

> <r_lp_tautomer_probability>
1

> <r_epik_Ionization_Penalty>
0.590576

> <r_epik_Ionization_Penalty_Charging>
0.590576

> <r_epik_Ionization_Penalty_Neutral>
2.97775e-08

> <r_epik_State_Penalty>
0.604111

> <r_epik_Charging_Adjusted_Penalty>
1.19469

> <i_epik_Tot_Q>
0

> <i_epik_Tot_abs_Q>
0

> <r_epik_Metal_State_Penalty>
0.298544

> <b_epik_Metal_Only>
0

> <s_lp_Force_Field>
OPLS_2005

> <r_lp_Energy>
13.4422

> <b_lp_Chiralities_Consistent>
1

> <s_lp_Variant>
AV-unprocessed.smi:1538-3

> <Gold.Version>
5.8.1

> <Gold.Id.Protein>
6NUR|6NUR_protein|mol2

> <Gold.PLP.Fitness>
40.2279

> <Gold.PLP.PLP>
-32.0915

> <Gold.PLP.part.hbond>
-3.0000

> <Gold.PLP.part.metal>
0.0000

> <Gold.PLP.part.buried>
-4.9326

> <Gold.PLP.part.nonpolar>
-23.7710

> <Gold.PLP.part.repulsive>
0.3271

> <Gold.PLP.ligand.clash>
0.0000

> <Gold.PLP.ligand.torsion>
0.4542

> <Gold.PLP.Chemscore.Hbond>
2.0000

> <Gold.PLP.Chemscore.CHOScore>
1.0000

> <Gold.PLP.Chemscore.Metal>
0.0000

> <Gold.Chemscore.Hbonds>
donor molecule, donor type, donor heavy atom, donor atom, acceptor molecule, acceptor atom, score
      P1  H  6896  6909       L1    18  0.99
      P1  H  7989  7998       L1     7  1.00
      L1  C    15    34       P1  8028  1.00

> <Gold.PLP.Chemscore.Internal.Correction>
0.0448

> <Gold.Rescore>
     Score         DG    S(hbond)    S(metal)    S(lipo)     H(rot)  DE(clash)    DE(int)     intcor
     13.73     -13.99       1.97        0.00      59.76       1.98       0.00       0.26       ----

> <Gold.Chemscore.Fitness>
13.7309

> <Gold.Chemscore.DG>
-13.9923

> <Gold.Chemscore.ZeroCoef>
-5.4800

> <Gold.Chemscore.Hbond>
1.9716

> <Gold.Chemscore.Metal>
0.0000

> <Gold.Chemscore.Lipo>
59.7566

> <Gold.Chemscore.Internal_Hbond>
0.0000

> <Gold.Chemscore.DEClash>
0.0000

> <Gold.Chemscore.DEInternal>
0.2614

> <Gold.Chemscore.Rot>
1.9782

> <Gold.Chemscore.Internal.Correction>
   9.000000E+99

> <Gold.Chemscore.Hbonds>
donor molecule, donor type, donor heavy atom, donor atom, acceptor molecule, acceptor atom, score
      P1  H  6896  6909       L1    18  0.87
      P1  H  7989  7998       L1     7  0.98

> <Gold.Chemscore.Hbond.Weighted>
-6.5851

> <Gold.Chemscore.Metal.Weighted>
-0.0000

> <Gold.Chemscore.Lipo.Weighted>
-6.9915

> <Gold.Chemscore.Internal_Hbond.Weighted>
0.0000

> <Gold.Chemscore.DEClash.Weighted>
0.0000

> <Gold.Chemscore.DEInternal.Weighted>
0.2614

> <Gold.Chemscore.Rot.Weighted>
5.0643

> <Gold.Chemscore.Internal.Correction.Weighted>
   9.000000E+99

> <Gold.Protein.RotatedTorsions>
[ 6907 6896 6895 6894 ] final  115.43 input  -60.11 | X-H torsion
[ 7974 7965 7964 7962 ] final  -36.92 input  175.53 | X-H torsion
[ 8008 7997 7996 7995 ] final -132.19 input   59.86 | X-H torsion
[ 10167 10162 10161 10158 ] final  131.12 input  -65.29 | X-H torsion
[ 10718 10713 10712 10709 ] final  -37.04 input   66.30 | X-H torsion
[ 10763 10752 10751 10750 ] final   64.59 input  -60.55 | X-H torsion
[ 11005 11000 10999 10996 ] final  -81.17 input  -57.11 | X-H torsion

> <Gold.Protein.ActiveResidues>
 VAL166  LYS551  ARG553  GLY616  TRP617  ASP618  TYR619  PRO620  LYS621  CYS622 
 ASP623  PHE694  ASN695  SER759  ASP760  ASP761  ALA762  ILE779  LEU786  VAL792 
 PHE793  MET794  SER795  GLU796  ALA797  LYS798  CYS799  TRP800  GLU811  SER814 

> <Gold.Protein.RotatedAtoms>
  152.4742  133.8099  159.6997 H   0  0  0  0  0  0  0  0  0  0  0  0  # atno 6907 bound_to 6896
  150.8748  133.7444  159.2956 H   0  0  0  0  0  0  0  0  0  0  0  0  # atno 6908 bound_to 6896
  151.4967  135.1063  159.9870 H   0  0  0  0  0  0  0  0  0  0  0  0  # atno 6909 bound_to 6896
  146.0620  140.6335  142.8993 H   0  0  0  0  0  0  0  0  0  0  0  0  # atno 7974 bound_to 7965
  155.3248  140.0464  157.3040 H   0  0  0  0  0  0  0  0  0  0  0  0  # atno 8008 bound_to 7997
  154.5360  140.2272  155.8687 H   0  0  0  0  0  0  0  0  0  0  0  0  # atno 8009 bound_to 7997
  156.1836  140.3068  155.9201 H   0  0  0  0  0  0  0  0  0  0  0  0  # atno 8010 bound_to 7997
  139.5398  144.6719  151.4662 H   0  0  0  0  0  0  0  0  0  0  0  0  # atno 10167 bound_to 10162
  156.3198  130.4264  149.7971 H   0  0  0  0  0  0  0  0  0  0  0  0  # atno 10718 bound_to 10713
  153.0062  135.5387  154.6534 H   0  0  0  0  0  0  0  0  0  0  0  0  # atno 10763 bound_to 10752
  154.5761  135.2846  155.0782 H   0  0  0  0  0  0  0  0  0  0  0  0  # atno 10764 bound_to 10752
  154.1929  135.6497  153.5117 H   0  0  0  0  0  0  0  0  0  0  0  0  # atno 10765 bound_to 10752
  141.1667  133.7184  156.8382 H   0  0  0  0  0  0  0  0  0  0  0  0  # atno 11005 bound_to 11000
  144.7180  140.4277  143.7029 LP  0  0  0  0  0  0  0  0  0  0  0  0  # atno 17320 bound_to 7965
  145.6544  139.1570  143.2844 LP  0  0  0  0  0  0  0  0  0  0  0  0  # atno 17321 bound_to 7965
  140.6623  143.8473  150.6901 LP  0  0  0  0  0  0  0  0  0  0  0  0  # atno 17342 bound_to 10162
  140.1871  143.4067  152.1890 LP  0  0  0  0  0  0  0  0  0  0  0  0  # atno 17343 bound_to 10162
  156.5283  130.8246  151.3228 LP  0  0  0  0  0  0  0  0  0  0  0  0  # atno 17370 bound_to 10713
  157.7409  130.9860  150.2411 LP  0  0  0  0  0  0  0  0  0  0  0  0  # atno 17371 bound_to 10713
  140.2002  134.8902  157.3160 LP  0  0  0  0  0  0  0  0  0  0  0  0  # atno 17394 bound_to 11000
  140.2196  134.4040  155.7572 LP  0  0  0  0  0  0  0  0  0  0  0  0  # atno 17395 bound_to 11000

$$$$
