AV-unprocessed.smi:1610|AV-procd|sdf|6472|dock10
  -GOLD-   22720 7133D 1   1.00000     0.00000
 Structure written by MMmdl.
 43 44  0  0  0  0  0  0  0  0  2 V2000
  145.7694  139.1985  157.8270 C   0  0  0  0  0  0  0  0  0  0  0  0
  146.0727  138.1607  156.3426 S   0  0  0  0  0  0  0  0  0  0  0  0
  147.5350  138.0342  156.2342 O   0  0  0  0  0  0  0  0  0  0  0  0
  145.3037  136.9243  156.5559 O   0  0  0  0  0  0  0  0  0  0  0  0
  145.4381  139.1063  155.1889 N   0  5  0  0  0  0  0  0  0  0  0  0
  146.2261  140.1854  154.6103 C   0  0  0  0  0  0  0  0  0  0  0  0
  147.4990  139.6010  153.9378 C   0  0  0  0  0  0  0  0  0  0  0  0
  148.5456  140.6787  153.5397 C   0  0  0  0  0  0  0  0  0  0  0  0
  148.9254  141.4793  154.7221 N   0  0  0  0  0  0  0  0  0  0  0  0
  150.0410  141.3290  155.4779 C   0  0  0  0  0  0  0  0  0  0  0  0
  150.8570  140.4239  155.2974 O   0  0  0  0  0  0  0  0  0  0  0  0
  150.2191  142.2848  156.4070 N   0  0  0  0  0  0  0  0  0  0  0  0
  151.4543  142.5249  157.1509 C   0  0  0  0  0  0  0  0  0  0  0  0
  151.2347  143.5162  158.3128 C   0  0  0  0  0  0  0  0  0  0  0  0
  151.8346  143.0760  159.6418 C   0  0  0  0  0  0  0  0  0  0  0  0
  152.5622  141.8721  159.7556 C   0  0  0  0  0  0  0  0  0  0  0  0
  153.1337  141.5370  160.9981 C   0  0  0  0  0  0  0  0  0  0  0  0
  152.9409  142.4137  162.0839 C   0  0  0  0  0  0  0  0  0  0  0  0
  152.2259  143.5554  161.9950 N   0  0  0  0  0  0  0  0  0  0  0  0
  151.6912  143.8746  160.7970 C   0  0  0  0  0  0  0  0  0  0  0  0
  147.7443  142.2124  155.2099 C   0  0  0  0  0  0  0  0  0  0  0  0
  146.6599  141.2095  155.6985 C   0  0  0  0  0  0  0  0  0  0  0  0
  146.1594  138.6905  158.7082 H   0  0  0  0  0  0  0  0  0  0  0  0
  144.6981  139.3596  157.9443 H   0  0  0  0  0  0  0  0  0  0  0  0
  146.2716  140.1582  157.7082 H   0  0  0  0  0  0  0  0  0  0  0  0
  145.6696  140.7236  153.8421 H   0  0  0  0  0  0  0  0  0  0  0  0
  147.9799  138.9001  154.6193 H   0  0  0  0  0  0  0  0  0  0  0  0
  147.2168  139.0212  153.0584 H   0  0  0  0  0  0  0  0  0  0  0  0
  149.3986  140.2002  153.0587 H   0  0  0  0  0  0  0  0  0  0  0  0
  148.1390  141.3437  152.7749 H   0  0  0  0  0  0  0  0  0  0  0  0
  149.4946  142.9817  156.5002 H   0  0  0  0  0  0  0  0  0  0  0  0
  151.8300  141.5766  157.5355 H   0  0  0  0  0  0  0  0  0  0  0  0
  152.2345  142.9122  156.4944 H   0  0  0  0  0  0  0  0  0  0  0  0
  151.6680  144.4788  158.0385 H   0  0  0  0  0  0  0  0  0  0  0  0
  150.1679  143.6937  158.4507 H   0  0  0  0  0  0  0  0  0  0  0  0
  152.7003  141.2259  158.9016 H   0  0  0  0  0  0  0  0  0  0  0  0
  153.7130  140.6335  161.1151 H   0  0  0  0  0  0  0  0  0  0  0  0
  153.3698  142.1907  163.0497 H   0  0  0  0  0  0  0  0  0  0  0  0
  151.1412  144.8032  160.7597 H   0  0  0  0  0  0  0  0  0  0  0  0
  147.9943  142.8992  156.0196 H   0  0  0  0  0  0  0  0  0  0  0  0
  147.3551  142.8480  154.4116 H   0  0  0  0  0  0  0  0  0  0  0  0
  145.7916  141.7659  156.0515 H   0  0  0  0  0  0  0  0  0  0  0  0
  147.0505  140.6756  156.5667 H   0  0  0  0  0  0  0  0  0  0  0  0
  1  2  1  0  0  0  0
  1 23  1  0  0  0  0
  1 24  1  0  0  0  0
  1 25  1  0  0  0  0
  2  3  2  0  0  0  0
  2  4  2  0  0  0  0
  2  5  1  0  0  0  0
  5  6  1  0  0  0  0
  6 22  1  0  0  0  0
  6  7  1  0  0  0  0
  6 26  1  0  0  0  0
  7  8  1  0  0  0  0
  7 27  1  0  0  0  0
  7 28  1  0  0  0  0
  8  9  1  0  0  0  0
  8 29  1  0  0  0  0
  8 30  1  0  0  0  0
  9 10  1  0  0  0  0
  9 21  1  0  0  0  0
 10 11  2  0  0  0  0
 10 12  1  0  0  0  0
 12 13  1  0  0  0  0
 12 31  1  0  0  0  0
 13 14  1  0  0  0  0
 13 32  1  0  0  0  0
 13 33  1  0  0  0  0
 14 15  1  0  0  0  0
 14 34  1  0  0  0  0
 14 35  1  0  0  0  0
 15 20  1  0  0  0  0
 15 16  2  0  0  0  0
 16 17  1  0  0  0  0
 16 36  1  0  0  0  0
 17 18  2  0  0  0  0
 17 37  1  0  0  0  0
 18 19  1  0  0  0  0
 18 38  1  0  0  0  0
 19 20  2  0  0  0  0
 20 39  1  0  0  0  0
 21 22  1  0  0  0  0
 21 40  1  0  0  0  0
 21 41  1  0  0  0  0
 22 42  1  0  0  0  0
 22 43  1  0  0  0  0
M  CHG  1   5  -1
M  END
> <s_m_source_file>
AV-unprocessed.smi

> <i_m_source_file_index>
1610

> <i_lp_mmshare_version>
43012

> <i_f3d_flags>
0

> <s_epik_input>
W0NIM11TKD1PKSg9TylbTkhdW0NIXTFbQ0gyXVtDSDJdTihbQ0gyXVtDSDJdMSlDKD1PKVtOSF1bQ0gyXVtDSDJdYzJbY0hdW2NIXVtjSF1uW2NIXTI=

> <s_epik_cmdline>
J2VwaWtfcHl0aG9uJywgJy1waCcsICc3LjAnLCAnLXRuJywgJzgnLCAnLW1hJywgJzIwMCcsICctbWV0YWxfYmluZGluZycsICctaW1hZScsICc8aW5maWxlLm1hZT4nLCAnLW9tYWUnLCAnPG91dGZpbGUubWFlPic=

> <r_epik_Ionization_Penalty>
6.72257

> <r_epik_Ionization_Penalty_Charging>
6.70803

> <r_epik_Ionization_Penalty_Neutral>
0.0145361

> <r_epik_State_Penalty>
6.71933

> <r_epik_Charging_Adjusted_Penalty>
13.4274

> <i_epik_Tot_Q>
-1

> <i_epik_Tot_abs_Q>
1

> <r_epik_Metal_State_Penalty>
2.65475

> <b_epik_Metal_Only>
1

> <s_lp_Force_Field>
OPLS_2005

> <r_lp_Energy>
25.1746

> <b_lp_Chiralities_Consistent>
1

> <s_lp_Variant>
AV-unprocessed.smi:1610-3

> <Gold.Version>
5.8.1

> <Gold.Id.Protein>
6NUR|6NUR_protein|mol2

> <Gold.PLP.Fitness>
40.6614

> <Gold.PLP.PLP>
-35.8480

> <Gold.PLP.part.hbond>
-2.0000

> <Gold.PLP.part.metal>
0.0000

> <Gold.PLP.part.buried>
-0.1197

> <Gold.PLP.part.nonpolar>
-34.4558

> <Gold.PLP.part.repulsive>
0.3913

> <Gold.PLP.ligand.clash>
0.0000

> <Gold.PLP.ligand.torsion>
1.0041

> <Gold.PLP.Chemscore.Hbond>
1.9200

> <Gold.PLP.Chemscore.CHOScore>
0.0000

> <Gold.PLP.Chemscore.Metal>
0.0000

> <Gold.Chemscore.Hbonds>
donor molecule, donor type, donor heavy atom, donor atom, acceptor molecule, acceptor atom, score
      L1  H    12    31       P1  8028  0.82
      P1  H  7989  7998       L1    11  1.00

> <Gold.PLP.Chemscore.Internal.Correction>
1.0616

> <Gold.Rescore>
     Score         DG    S(hbond)    S(metal)    S(lipo)     H(rot)  DE(clash)    DE(int)     intcor
     13.64     -17.58       1.44        0.00      99.03       1.68       1.49       2.45       ----

> <Gold.Chemscore.Fitness>
13.6423

> <Gold.Chemscore.DG>
-17.5804

> <Gold.Chemscore.ZeroCoef>
-5.4800

> <Gold.Chemscore.Hbond>
1.4424

> <Gold.Chemscore.Metal>
0.0000

> <Gold.Chemscore.Lipo>
99.0335

> <Gold.Chemscore.Internal_Hbond>
0.0000

> <Gold.Chemscore.DEClash>
1.4928

> <Gold.Chemscore.DEInternal>
2.4453

> <Gold.Chemscore.Rot>
1.6813

> <Gold.Chemscore.Internal.Correction>
   9.000000E+99

> <Gold.Chemscore.Hbonds>
donor molecule, donor type, donor heavy atom, donor atom, acceptor molecule, acceptor atom, score
      L1  H    12    31       P1  8028  0.76
      P1  H  7989  7998       L1    11  0.36

> <Gold.Chemscore.Hbond.Weighted>
-4.8177

> <Gold.Chemscore.Metal.Weighted>
-0.0000

> <Gold.Chemscore.Lipo.Weighted>
-11.5869

> <Gold.Chemscore.Internal_Hbond.Weighted>
0.0000

> <Gold.Chemscore.DEClash.Weighted>
1.4928

> <Gold.Chemscore.DEInternal.Weighted>
2.4453

> <Gold.Chemscore.Rot.Weighted>
4.3042

> <Gold.Chemscore.Internal.Correction.Weighted>
   9.000000E+99

> <Gold.Protein.RotatedTorsions>
[ 6907 6896 6895 6894 ] final   30.93 input  -60.11 | X-H torsion
[ 7974 7965 7964 7962 ] final  162.40 input  175.53 | X-H torsion
[ 8008 7997 7996 7995 ] final -177.32 input   59.86 | X-H torsion
[ 10167 10162 10161 10158 ] final   98.27 input  -65.29 | X-H torsion
[ 10718 10713 10712 10709 ] final  -49.75 input   66.30 | X-H torsion
[ 10763 10752 10751 10750 ] final -113.46 input  -60.55 | X-H torsion
[ 11005 11000 10999 10996 ] final   45.62 input  -57.11 | X-H torsion

> <Gold.Protein.ActiveResidues>
 VAL166  LYS551  ARG553  GLY616  TRP617  ASP618  TYR619  PRO620  LYS621  CYS622 
 ASP623  PHE694  ASN695  SER759  ASP760  ASP761  ALA762  ILE779  LEU786  VAL792 
 PHE793  MET794  SER795  GLU796  ALA797  LYS798  CYS799  TRP800  GLU811  SER814 

> <Gold.Protein.RotatedAtoms>
  152.0530  134.9642  160.0574 H   0  0  0  0  0  0  0  0  0  0  0  0  # atno 6907 bound_to 6896
  152.1035  133.4257  159.4606 H   0  0  0  0  0  0  0  0  0  0  0  0  # atno 6908 bound_to 6896
  150.6840  134.2651  159.4608 H   0  0  0  0  0  0  0  0  0  0  0  0  # atno 6909 bound_to 6896
  144.7638  139.8034  143.6322 H   0  0  0  0  0  0  0  0  0  0  0  0  # atno 7974 bound_to 7965
  156.0055  140.1229  157.0505 H   0  0  0  0  0  0  0  0  0  0  0  0  # atno 8008 bound_to 7997
  154.4257  140.1098  156.5826 H   0  0  0  0  0  0  0  0  0  0  0  0  # atno 8009 bound_to 7997
  155.6153  140.3472  155.4637 H   0  0  0  0  0  0  0  0  0  0  0  0  # atno 8010 bound_to 7997
  139.7724  144.6918  151.0138 H   0  0  0  0  0  0  0  0  0  0  0  0  # atno 10167 bound_to 10162
  156.1864  130.4151  149.9433 H   0  0  0  0  0  0  0  0  0  0  0  0  # atno 10718 bound_to 10713
  154.8397  135.4453  154.1354 H   0  0  0  0  0  0  0  0  0  0  0  0  # atno 10763 bound_to 10752
  153.2553  135.6930  153.7642 H   0  0  0  0  0  0  0  0  0  0  0  0  # atno 10764 bound_to 10752
  153.6939  135.3383  155.3184 H   0  0  0  0  0  0  0  0  0  0  0  0  # atno 10765 bound_to 10752
  140.1443  134.4543  155.8427 H   0  0  0  0  0  0  0  0  0  0  0  0  # atno 11005 bound_to 11000
  146.1727  139.4885  142.9917 LP  0  0  0  0  0  0  0  0  0  0  0  0  # atno 17320 bound_to 7965
  145.6533  141.0258  143.1748 LP  0  0  0  0  0  0  0  0  0  0  0  0  # atno 17321 bound_to 7965
  140.7814  143.4574  151.0326 LP  0  0  0  0  0  0  0  0  0  0  0  0  # atno 17342 bound_to 10162
  139.8257  143.7759  152.3178 LP  0  0  0  0  0  0  0  0  0  0  0  0  # atno 17343 bound_to 10162
  156.7187  130.8998  151.3616 LP  0  0  0  0  0  0  0  0  0  0  0  0  # atno 17370 bound_to 10713
  157.6902  130.9225  150.0492 LP  0  0  0  0  0  0  0  0  0  0  0  0  # atno 17371 bound_to 10713
  141.2190  133.6846  156.7304 LP  0  0  0  0  0  0  0  0  0  0  0  0  # atno 17394 bound_to 11000
  140.2683  134.8412  157.3824 LP  0  0  0  0  0  0  0  0  0  0  0  0  # atno 17395 bound_to 11000

$$$$
