AV-unprocessed.smi:101|AV-procd|sdf|922|dock9
  -GOLD-   2262017433D 1   1.00000     0.00000
 Structure written by MMmdl.
 44 46  0  0  0  0  0  0  0  0  1 V2000
  147.4731  143.3434  159.0587 C   0  0  0  0  0  0  0  0  0  0  0  0
  146.7340  142.4353  158.0890 C   0  0  0  0  0  0  0  0  0  0  0  0
  147.1279  142.2725  156.8002 C   0  0  0  0  0  0  0  0  0  0  0  0
  146.4894  141.4368  155.8889 N   0  0  0  0  0  0  0  0  0  0  0  0
  146.9660  141.3215  154.4461 C   0  0  1  0  0  0  0  0  0  0  0  0
  148.2321  141.9118  154.3337 O   0  0  0  0  0  0  0  0  0  0  0  0
  149.2603  140.9257  154.3032 C   0  0  1  0  0  0  0  0  0  0  0  0
  149.6599  140.5010  155.7321 C   0  0  0  0  0  0  0  0  0  0  0  0
  150.5761  141.4433  156.2645 O   0  0  0  0  0  0  0  0  0  0  0  0
  151.2311  141.1735  157.4114 C   0  0  0  0  0  0  0  0  0  0  0  0
  151.5168  140.0336  157.7832 O   0  0  0  0  0  0  0  0  0  0  0  0
  151.5490  142.3987  158.1986 C   0  0  0  0  0  0  0  0  0  0  0  0
  152.1077  142.2654  159.4910 C   0  0  0  0  0  0  0  0  0  0  0  0
  152.4032  143.4039  160.2653 C   0  0  0  0  0  0  0  0  0  0  0  0
  152.1443  144.6897  159.7560 C   0  0  0  0  0  0  0  0  0  0  0  0
  151.5885  144.8355  158.4715 C   0  0  0  0  0  0  0  0  0  0  0  0
  151.2917  143.6979  157.6958 C   0  0  0  0  0  0  0  0  0  0  0  0
  148.5894  139.8269  153.4779 C   0  0  1  0  0  0  0  0  0  0  0  0
  149.1936  138.5618  153.6684 O   0  0  0  0  0  0  0  0  0  0  0  0
  147.1461  139.8540  153.9702 C   0  0  2  0  0  0  0  0  0  0  0  0
  146.2740  139.5354  152.9041 O   0  0  0  0  0  0  0  0  0  0  0  0
  145.2774  140.8216  156.2755 C   0  0  0  0  0  0  0  0  0  0  0  0
  144.5716  140.1796  155.4993 O   0  0  0  0  0  0  0  0  0  0  0  0
  144.8801  140.9730  157.6027 N   0  0  0  0  0  0  0  0  0  0  0  0
  145.5451  141.7291  158.5699 C   0  0  0  0  0  0  0  0  0  0  0  0
  145.1051  141.7717  159.7176 O   0  0  0  0  0  0  0  0  0  0  0  0
  144.0301  140.5078  157.8865 H   0  0  0  0  0  0  0  0  0  0  0  0
  148.3107  143.8519  158.5803 H   0  0  0  0  0  0  0  0  0  0  0  0
  147.8691  142.7642  159.8937 H   0  0  0  0  0  0  0  0  0  0  0  0
  146.8036  144.1069  159.4562 H   0  0  0  0  0  0  0  0  0  0  0  0
  147.9894  142.8390  156.4808 H   0  0  0  0  0  0  0  0  0  0  0  0
  146.2359  141.8967  153.8739 H   0  0  0  0  0  0  0  0  0  0  0  0
  150.1360  141.3169  153.7840 H   0  0  0  0  0  0  0  0  0  0  0  0
  148.7789  140.4124  156.3685 H   0  0  0  0  0  0  0  0  0  0  0  0
  150.1436  139.5240  155.7176 H   0  0  0  0  0  0  0  0  0  0  0  0
  152.3120  141.2883  159.9047 H   0  0  0  0  0  0  0  0  0  0  0  0
  152.8282  143.2899  161.2516 H   0  0  0  0  0  0  0  0  0  0  0  0
  152.3710  145.5629  160.3498 H   0  0  0  0  0  0  0  0  0  0  0  0
  151.3887  145.8219  158.0799 H   0  0  0  0  0  0  0  0  0  0  0  0
  150.8626  143.8451  156.7155 H   0  0  0  0  0  0  0  0  0  0  0  0
  148.6377  140.0982  152.4216 H   0  0  0  0  0  0  0  0  0  0  0  0
  148.9947  138.0176  152.9217 H   0  0  0  0  0  0  0  0  0  0  0  0
  147.0219  139.1585  154.8013 H   0  0  0  0  0  0  0  0  0  0  0  0
  145.4935  140.0618  152.9914 H   0  0  0  0  0  0  0  0  0  0  0  0
  1  2  1  0  0  0  0
  1 28  1  0  0  0  0
  1 29  1  0  0  0  0
  1 30  1  0  0  0  0
  2 25  1  0  0  0  0
  2  3  2  0  0  0  0
  3  4  1  0  0  0  0
  3 31  1  0  0  0  0
  4  5  1  0  0  0  0
  4 22  1  0  0  0  0
  5 20  1  0  0  0  0
  5  6  1  0  0  0  0
  5 32  1  0  0  0  0
  6  7  1  0  0  0  0
  7  8  1  0  0  0  0
  7 18  1  0  0  0  0
  7 33  1  0  0  0  0
  8  9  1  0  0  0  0
  8 34  1  0  0  0  0
  8 35  1  0  0  0  0
  9 10  1  0  0  0  0
 10 11  2  0  0  0  0
 10 12  1  0  0  0  0
 12 17  1  0  0  0  0
 12 13  2  0  0  0  0
 13 14  1  0  0  0  0
 13 36  1  0  0  0  0
 14 15  2  0  0  0  0
 14 37  1  0  0  0  0
 15 16  1  0  0  0  0
 15 38  1  0  0  0  0
 16 17  2  0  0  0  0
 16 39  1  0  0  0  0
 17 40  1  0  0  0  0
 18 19  1  0  0  0  0
 18 20  1  0  0  0  0
 18 41  1  0  0  0  0
 19 42  1  0  0  0  0
 20 21  1  0  0  0  0
 20 43  1  0  0  0  0
 21 44  1  0  0  0  0
 22 23  2  0  0  0  0
 22 24  1  0  0  0  0
 24 27  1  0  0  0  0
 24 25  1  0  0  0  0
 25 26  2  0  0  0  0
M  END
> <s_m_source_file>
AV-unprocessed.smi

> <i_m_source_file_index>
101

> <i_lp_mmshare_version>
43012

> <i_f3d_flags>
0

> <s_epik_input>
Tz1jMVtuSF1jKD1PKW4oW2NIXWMxW0NIM10pW0NAQEhdMk9bQ0BIXShbQ0BASF0oW09IXSlbQ0BIXTJbT0hdKVtDSDJdT0MoPU8pYzNbY0hdW2NIXVtjSF1bY0hdW2NIXTM=

> <s_epik_cmdline>
J2VwaWtfcHl0aG9uJywgJy1waCcsICc3LjAnLCAnLXRuJywgJzgnLCAnLW1hJywgJzIwMCcsICctbWV0YWxfYmluZGluZycsICctaW1hZScsICc8aW5maWxlLm1hZT4nLCAnLW9tYWUnLCAnPG91dGZpbGUubWFlPic=

> <r_lp_tautomer_probability>
0.999537

> <r_epik_Ionization_Penalty>
0.00263537

> <r_epik_Ionization_Penalty_Charging>
0.00263428

> <r_epik_Ionization_Penalty_Neutral>
1.09111e-06

> <r_epik_State_Penalty>
0.00183335

> <r_epik_Charging_Adjusted_Penalty>
0.00446763

> <i_epik_Tot_Q>
0

> <i_epik_Tot_abs_Q>
0

> <r_epik_Metal_State_Penalty>
1.00528

> <b_epik_Metal_Only>
0

> <s_epik_Chemistry_Notes>
This compound has an ester and may undergo hydrolysis at high or low pH. This compound contains an acetal/aminal-like group ( X-CH(R)-Y where X, Y are N, S, or O) that may be acid/base labile, releasing an aldehyde.

> <s_lp_Force_Field>
OPLS_2005

> <r_lp_Energy>
31.3632

> <b_lp_Chiralities_Consistent>
1

> <s_lp_Variant>
AV-unprocessed.smi:101-10

> <Gold.Version>
5.8.1

> <Gold.Id.Protein>
6NUR|6NUR_protein|mol2

> <Gold.PLP.Fitness>
50.0158

> <Gold.PLP.PLP>
-39.7257

> <Gold.PLP.part.hbond>
-4.2268

> <Gold.PLP.part.metal>
0.0000

> <Gold.PLP.part.buried>
-2.7919

> <Gold.PLP.part.nonpolar>
-35.2517

> <Gold.PLP.part.repulsive>
0.3660

> <Gold.PLP.ligand.clash>
0.0000

> <Gold.PLP.ligand.torsion>
0.7330

> <Gold.PLP.Chemscore.Hbond>
2.8833

> <Gold.PLP.Chemscore.CHOScore>
1.0000

> <Gold.PLP.Chemscore.Metal>
0.0000

> <Gold.Chemscore.Hbonds>
donor molecule, donor type, donor heavy atom, donor atom, acceptor molecule, acceptor atom, score
      L1  H    19    42       P1  7948  0.96
      L1  H    21    44       P1 10175  1.00
      P1  H  6934  6946       L1    26  0.40
      L1  C     3    31       P1  8028  1.00

> <Gold.PLP.Chemscore.Internal.Correction>
0.1063

> <Gold.Rescore>
     Score         DG    S(hbond)    S(metal)    S(lipo)     H(rot)  DE(clash)    DE(int)     intcor
     13.48     -16.15       2.08        0.00     104.48       3.32       1.55       1.12       ----

> <Gold.Chemscore.Fitness>
13.4790

> <Gold.Chemscore.DG>
-16.1459

> <Gold.Chemscore.ZeroCoef>
-5.4800

> <Gold.Chemscore.Hbond>
2.0761

> <Gold.Chemscore.Metal>
0.0000

> <Gold.Chemscore.Lipo>
104.4761

> <Gold.Chemscore.Internal_Hbond>
0.0000

> <Gold.Chemscore.DEClash>
1.5518

> <Gold.Chemscore.DEInternal>
1.1151

> <Gold.Chemscore.Rot>
3.3172

> <Gold.Chemscore.Internal.Correction>
   9.000000E+99

> <Gold.Chemscore.Hbonds>
donor molecule, donor type, donor heavy atom, donor atom, acceptor molecule, acceptor atom, score
      L1  H    19    42       P1  7948  0.89
      L1  H    21    44       P1 10175  0.94
      P1  H  6934  6946       L1    26  0.07

> <Gold.Chemscore.Hbond.Weighted>
-6.9343

> <Gold.Chemscore.Metal.Weighted>
-0.0000

> <Gold.Chemscore.Lipo.Weighted>
-12.2237

> <Gold.Chemscore.Internal_Hbond.Weighted>
0.0000

> <Gold.Chemscore.DEClash.Weighted>
1.5518

> <Gold.Chemscore.DEInternal.Weighted>
1.1151

> <Gold.Chemscore.Rot.Weighted>
8.4920

> <Gold.Chemscore.Internal.Correction.Weighted>
   9.000000E+99

> <Gold.Protein.RotatedTorsions>
[ 6907 6896 6895 6894 ] final -105.31 input  -60.11 | X-H torsion
[ 7974 7965 7964 7962 ] final  137.98 input  175.53 | X-H torsion
[ 8008 7997 7996 7995 ] final   -4.42 input   59.86 | X-H torsion
[ 10167 10162 10161 10158 ] final -163.86 input  -65.29 | X-H torsion
[ 10718 10713 10712 10709 ] final  121.35 input   66.30 | X-H torsion
[ 10763 10752 10751 10750 ] final -140.99 input  -60.55 | X-H torsion
[ 11005 11000 10999 10996 ] final -138.01 input  -57.11 | X-H torsion

> <Gold.Protein.ActiveResidues>
 VAL166  LYS551  ARG553  GLY616  TRP617  ASP618  TYR619  PRO620  LYS621  CYS622 
 ASP623  PHE694  ASN695  SER759  ASP760  ASP761  ALA762  ILE779  LEU786  VAL792 
 PHE793  MET794  SER795  GLU796  ALA797  LYS798  CYS799  TRP800  GLU811  SER814 

> <Gold.Protein.RotatedAtoms>
  150.7330  134.0146  159.3680 H   0  0  0  0  0  0  0  0  0  0  0  0  # atno 6907 bound_to 6896
  151.8108  135.0679  160.0422 H   0  0  0  0  0  0  0  0  0  0  0  0  # atno 6908 bound_to 6896
  152.3074  133.5681  159.5694 H   0  0  0  0  0  0  0  0  0  0  0  0  # atno 6909 bound_to 6896
  144.9416  139.4924  143.5569 H   0  0  0  0  0  0  0  0  0  0  0  0  # atno 7974 bound_to 7965
  154.6145  140.2484  155.7626 H   0  0  0  0  0  0  0  0  0  0  0  0  # atno 8008 bound_to 7997
  156.2391  140.2939  156.0343 H   0  0  0  0  0  0  0  0  0  0  0  0  # atno 8009 bound_to 7997
  155.1997  140.0394  157.2905 H   0  0  0  0  0  0  0  0  0  0  0  0  # atno 8010 bound_to 7997
  139.6291  144.0475  152.2000 H   0  0  0  0  0  0  0  0  0  0  0  0  # atno 10167 bound_to 10162
  157.5824  131.1073  150.8161 H   0  0  0  0  0  0  0  0  0  0  0  0  # atno 10718 bound_to 10713
  154.8560  135.3537  154.5796 H   0  0  0  0  0  0  0  0  0  0  0  0  # atno 10763 bound_to 10752
  153.6407  135.6998  153.5247 H   0  0  0  0  0  0  0  0  0  0  0  0  # atno 10764 bound_to 10752
  153.2973  135.4217  155.1180 H   0  0  0  0  0  0  0  0  0  0  0  0  # atno 10765 bound_to 10752
  140.8656  134.2114  157.4681 H   0  0  0  0  0  0  0  0  0  0  0  0  # atno 11005 bound_to 11000
  146.3288  139.8439  142.8885 LP  0  0  0  0  0  0  0  0  0  0  0  0  # atno 17320 bound_to 7965
  145.2982  141.0187  143.3624 LP  0  0  0  0  0  0  0  0  0  0  0  0  # atno 17321 bound_to 7965
  140.0135  144.6206  150.7627 LP  0  0  0  0  0  0  0  0  0  0  0  0  # atno 17342 bound_to 10162
  140.7428  143.2838  151.3523 LP  0  0  0  0  0  0  0  0  0  0  0  0  # atno 17343 bound_to 10162
  156.8604  130.5111  149.5304 LP  0  0  0  0  0  0  0  0  0  0  0  0  # atno 17370 bound_to 10713
  156.0870  130.5866  150.9666 LP  0  0  0  0  0  0  0  0  0  0  0  0  # atno 17371 bound_to 10713
  139.8709  134.9750  156.4868 LP  0  0  0  0  0  0  0  0  0  0  0  0  # atno 17394 bound_to 11000
  140.8632  133.8044  155.9287 LP  0  0  0  0  0  0  0  0  0  0  0  0  # atno 17395 bound_to 11000

$$$$
