AV-unprocessed.smi:2427|AV-procd|sdf|9578|dock6
  -GOLD-   2272013213D 1   1.00000     0.00000
 Structure written by MMmdl.
 35 36  0  0  0  0  0  0  0  0  3 V2000
  146.3025  137.5850  155.4725 O   0  0  0  0  0  0  0  0  0  0  0  0
  146.8603  137.5017  154.3773 C   0  0  0  0  0  0  0  0  0  0  0  0
  147.3264  138.7644  153.6395 C   0  0  0  0  0  0  0  0  0  0  0  0
  148.4966  139.3975  154.2704 N   0  0  0  0  0  0  0  0  0  0  0  0
  149.6540  138.6073  154.4153 C   0  0  0  0  0  0  0  0  0  0  0  0
  150.7790  139.0830  154.9846 C   0  0  0  0  0  0  0  0  0  0  0  0
  151.9560  138.2552  155.1320 N   0  3  0  0  0  0  0  0  0  0  0  0
  152.9785  138.7615  155.5821 O   0  0  0  0  0  0  0  0  0  0  0  0
  151.8990  137.0741  154.8030 O   0  5  0  0  0  0  0  0  0  0  0  0
  150.7698  140.4561  155.4508 C   0  0  0  0  0  0  0  0  0  0  0  0
  149.6645  141.2156  155.3195 C   0  0  0  0  0  0  0  0  0  0  0  0
  148.4392  140.6936  154.7058 C   0  0  0  0  0  0  0  0  0  0  0  0
  147.4230  141.3794  154.5903 O   0  0  0  0  0  0  0  0  0  0  0  0
  147.1092  136.3351  153.7636 N   0  0  0  0  0  0  0  0  0  0  0  0
  146.7309  135.0175  154.2638 C   0  0  0  0  0  0  0  0  0  0  0  0
  146.1011  134.1488  153.1610 C   0  0  2  0  0  0  0  0  0  0  0  0
  147.0946  133.3745  152.2937 C   0  0  0  0  0  0  0  0  0  0  0  0
  146.2831  133.1435  151.0399 C   0  0  0  0  0  0  0  0  0  0  0  0
  145.5113  134.4550  150.9176 C   0  0  0  0  0  0  0  0  0  0  0  0
  145.3802  134.9652  152.2430 O   0  0  0  0  0  0  0  0  0  0  0  0
  147.5444  138.4923  152.6059 H   0  0  0  0  0  0  0  0  0  0  0  0
  146.5034  139.4793  153.5785 H   0  0  0  0  0  0  0  0  0  0  0  0
  149.5570  137.5974  154.0437 H   0  0  0  0  0  0  0  0  0  0  0  0
  151.6488  140.8851  155.9094 H   0  0  0  0  0  0  0  0  0  0  0  0
  149.6795  142.2357  155.6746 H   0  0  0  0  0  0  0  0  0  0  0  0
  147.5792  136.3620  152.8703 H   0  0  0  0  0  0  0  0  0  0  0  0
  147.6349  134.5333  154.6331 H   0  0  0  0  0  0  0  0  0  0  0  0
  146.0585  135.0990  155.1194 H   0  0  0  0  0  0  0  0  0  0  0  0
  145.3890  133.4485  153.6010 H   0  0  0  0  0  0  0  0  0  0  0  0
  147.9666  133.9885  152.0644 H   0  0  0  0  0  0  0  0  0  0  0  0
  147.4380  132.4498  152.7585 H   0  0  0  0  0  0  0  0  0  0  0  0
  146.8954  132.9253  150.1646 H   0  0  0  0  0  0  0  0  0  0  0  0
  145.5922  132.3128  151.1906 H   0  0  0  0  0  0  0  0  0  0  0  0
  146.0747  135.1765  150.3247 H   0  0  0  0  0  0  0  0  0  0  0  0
  144.5374  134.3178  150.4470 H   0  0  0  0  0  0  0  0  0  0  0  0
  1  2  2  0  0  0  0
  2  3  1  0  0  0  0
  2 14  1  0  0  0  0
  3  4  1  0  0  0  0
  3 21  1  0  0  0  0
  3 22  1  0  0  0  0
  4 12  1  0  0  0  0
  4  5  1  0  0  0  0
  5  6  2  0  0  0  0
  5 23  1  0  0  0  0
  6  7  1  0  0  0  0
  6 10  1  0  0  0  0
  7  8  2  0  0  0  0
  7  9  1  0  0  0  0
 10 11  2  0  0  0  0
 10 24  1  0  0  0  0
 11 12  1  0  0  0  0
 11 25  1  0  0  0  0
 12 13  2  0  0  0  0
 14 15  1  0  0  0  0
 14 26  1  0  0  0  0
 15 16  1  0  0  0  0
 15 27  1  0  0  0  0
 15 28  1  0  0  0  0
 16 20  1  0  0  0  0
 16 17  1  0  0  0  0
 16 29  1  0  0  0  0
 17 18  1  0  0  0  0
 17 30  1  0  0  0  0
 17 31  1  0  0  0  0
 18 19  1  0  0  0  0
 18 32  1  0  0  0  0
 18 33  1  0  0  0  0
 19 20  1  0  0  0  0
 19 34  1  0  0  0  0
 19 35  1  0  0  0  0
M  CHG  1   7   1
M  CHG  1   9  -1
M  END
> <s_m_source_file>
AV-unprocessed.smi

> <i_m_source_file_index>
2427

> <i_lp_mmshare_version>
43012

> <i_f3d_flags>
0

> <s_epik_input>
TzFbQ0gyXVtDSDJdW0NIMl1bQ0BIXTFbQ0gyXVtOSF1DKD1PKVtDSDJdbjJbY0hdYyhbTitdKD1PKVtPLV0pW2NIXVtjSF1jMj1P

> <s_epik_cmdline>
J2VwaWtfcHl0aG9uJywgJy1waCcsICc3LjAnLCAnLXRuJywgJzgnLCAnLW1hJywgJzIwMCcsICctbWV0YWxfYmluZGluZycsICctaW1hZScsICc8aW5maWxlLm1hZT4nLCAnLW9tYWUnLCAnPG91dGZpbGUubWFlPic=

> <r_lp_tautomer_probability>
1

> <r_epik_Ionization_Penalty>
2.69366e-08

> <r_epik_Ionization_Penalty_Charging>
7.76344e-11

> <r_epik_Ionization_Penalty_Neutral>
2.6859e-08

> <r_epik_State_Penalty>
-0

> <r_epik_Charging_Adjusted_Penalty>
7.76344e-11

> <i_epik_Tot_Q>
0

> <i_epik_Tot_abs_Q>
2

> <r_epik_Metal_State_Penalty>
-0

> <b_epik_Metal_Only>
0

> <s_lp_Force_Field>
OPLS_2005

> <r_lp_Energy>
28.4558

> <b_lp_Chiralities_Consistent>
1

> <s_lp_Variant>
AV-unprocessed.smi:2427-1

> <Gold.Version>
5.8.1

> <Gold.Id.Protein>
6NUR|6NUR_protein|mol2

> <Gold.PLP.Fitness>
42.5150

> <Gold.PLP.PLP>
-31.9237

> <Gold.PLP.part.hbond>
-2.7483

> <Gold.PLP.part.metal>
0.0000

> <Gold.PLP.part.buried>
-3.0675

> <Gold.PLP.part.nonpolar>
-27.4189

> <Gold.PLP.part.repulsive>
0.3734

> <Gold.PLP.ligand.clash>
0.0000

> <Gold.PLP.ligand.torsion>
0.5359

> <Gold.PLP.Chemscore.Hbond>
2.8720

> <Gold.PLP.Chemscore.CHOScore>
1.0000

> <Gold.PLP.Chemscore.Metal>
0.0000

> <Gold.Chemscore.Hbonds>
donor molecule, donor type, donor heavy atom, donor atom, acceptor molecule, acceptor atom, score
      L1  H    14    26       P1  7948  1.00
      P1  H  7997  8010       L1     8  0.99
      P1  H 10752 10764       L1     9  0.91
      L1  C     5    23       P1  7948  0.78

> <Gold.PLP.Chemscore.Internal.Correction>
0.0471

> <Gold.Rescore>
     Score         DG    S(hbond)    S(metal)    S(lipo)     H(rot)  DE(clash)    DE(int)     intcor
     16.02     -16.61       2.76        0.00      58.00       1.90       0.06       0.53       ----

> <Gold.Chemscore.Fitness>
16.0206

> <Gold.Chemscore.DG>
-16.6107

> <Gold.Chemscore.ZeroCoef>
-5.4800

> <Gold.Chemscore.Hbond>
2.7604

> <Gold.Chemscore.Metal>
0.0000

> <Gold.Chemscore.Lipo>
58.0016

> <Gold.Chemscore.Internal_Hbond>
0.0000

> <Gold.Chemscore.DEClash>
0.0630

> <Gold.Chemscore.DEInternal>
0.5270

> <Gold.Chemscore.Rot>
1.9044

> <Gold.Chemscore.Internal.Correction>
   9.000000E+99

> <Gold.Chemscore.Hbonds>
donor molecule, donor type, donor heavy atom, donor atom, acceptor molecule, acceptor atom, score
      L1  H    14    26       P1  7948  0.98
      P1  H  7997  8010       L1     8  0.91
      P1  H 10752 10764       L1     9  0.88

> <Gold.Chemscore.Hbond.Weighted>
-9.2197

> <Gold.Chemscore.Metal.Weighted>
-0.0000

> <Gold.Chemscore.Lipo.Weighted>
-6.7862

> <Gold.Chemscore.Internal_Hbond.Weighted>
0.0000

> <Gold.Chemscore.DEClash.Weighted>
0.0630

> <Gold.Chemscore.DEInternal.Weighted>
0.5270

> <Gold.Chemscore.Rot.Weighted>
4.8753

> <Gold.Chemscore.Internal.Correction.Weighted>
   9.000000E+99

> <Gold.Protein.RotatedTorsions>
[ 6907 6896 6895 6894 ] final -150.73 input  -60.11 | X-H torsion
[ 7974 7965 7964 7962 ] final  -64.65 input  175.53 | X-H torsion
[ 8008 7997 7996 7995 ] final   91.88 input   59.86 | X-H torsion
[ 10167 10162 10161 10158 ] final  133.52 input  -65.29 | X-H torsion
[ 10718 10713 10712 10709 ] final -163.78 input   66.30 | X-H torsion
[ 10763 10752 10751 10750 ] final  -80.92 input  -60.55 | X-H torsion
[ 11005 11000 10999 10996 ] final  176.08 input  -57.11 | X-H torsion

> <Gold.Protein.ActiveResidues>
 VAL166  LYS551  ARG553  GLY616  TRP617  ASP618  TYR619  PRO620  LYS621  CYS622 
 ASP623  PHE694  ASN695  SER759  ASP760  ASP761  ALA762  ILE779  LEU786  VAL792 
 PHE793  MET794  SER795  GLU796  ALA797  LYS798  CYS799  TRP800  GLU811  SER814 

> <Gold.Protein.RotatedAtoms>
  151.2028  133.4601  159.2596 H   0  0  0  0  0  0  0  0  0  0  0  0  # atno 6907 bound_to 6896
  151.1053  134.9996  159.8478 H   0  0  0  0  0  0  0  0  0  0  0  0  # atno 6908 bound_to 6896
  152.5446  134.1951  159.8742 H   0  0  0  0  0  0  0  0  0  0  0  0  # atno 6909 bound_to 6896
  145.7641  140.8846  143.0414 H   0  0  0  0  0  0  0  0  0  0  0  0  # atno 7974 bound_to 7965
  156.0289  140.3332  155.7118 H   0  0  0  0  0  0  0  0  0  0  0  0  # atno 8008 bound_to 7997
  155.5914  140.0646  157.2775 H   0  0  0  0  0  0  0  0  0  0  0  0  # atno 8009 bound_to 7997
  154.4345  140.1826  156.1067 H   0  0  0  0  0  0  0  0  0  0  0  0  # atno 8010 bound_to 7997
  139.5293  144.6611  151.5008 H   0  0  0  0  0  0  0  0  0  0  0  0  # atno 10167 bound_to 10162
  156.6295  130.8924  151.2974 H   0  0  0  0  0  0  0  0  0  0  0  0  # atno 10718 bound_to 10713
  154.5572  135.5644  153.6974 H   0  0  0  0  0  0  0  0  0  0  0  0  # atno 10763 bound_to 10752
  153.0007  135.6265  154.2294 H   0  0  0  0  0  0  0  0  0  0  0  0  # atno 10764 bound_to 10752
  154.2231  135.2869  155.2897 H   0  0  0  0  0  0  0  0  0  0  0  0  # atno 10765 bound_to 10752
  140.3692  134.7045  157.4381 H   0  0  0  0  0  0  0  0  0  0  0  0  # atno 11005 bound_to 11000
  144.6825  139.9763  143.7483 LP  0  0  0  0  0  0  0  0  0  0  0  0  # atno 17320 bound_to 7965
  146.0235  139.3272  143.0798 LP  0  0  0  0  0  0  0  0  0  0  0  0  # atno 17321 bound_to 7965
  140.6460  143.8793  150.6738 LP  0  0  0  0  0  0  0  0  0  0  0  0  # atno 17342 bound_to 10162
  140.2142  143.3859  152.1694 LP  0  0  0  0  0  0  0  0  0  0  0  0  # atno 17343 bound_to 10162
  157.7204  130.9551  150.1416 LP  0  0  0  0  0  0  0  0  0  0  0  0  # atno 17370 bound_to 10713
  156.2246  130.3677  149.8516 LP  0  0  0  0  0  0  0  0  0  0  0  0  # atno 17371 bound_to 10713
  140.0565  134.6056  155.8799 LP  0  0  0  0  0  0  0  0  0  0  0  0  # atno 17394 bound_to 11000
  141.1960  133.6589  156.5669 LP  0  0  0  0  0  0  0  0  0  0  0  0  # atno 17395 bound_to 11000

$$$$
