AV-unprocessed.smi:2342|AV-procd|sdf|9355|dock4
  -GOLD-   2272012573D 1   1.00000     0.00000
 Structure written by MMmdl.
 38 38  0  0  0  0  0  0  0  0  2 V2000
  149.5829  141.2549  157.0097 C   0  0  0  0  0  0  0  0  0  0  0  0
  150.9704  140.6394  157.2899 C   0  0  1  0  0  0  0  0  0  0  0  0
  150.9022  139.4031  158.2227 C   0  0  0  0  0  0  0  0  0  0  0  0
  150.2866  138.2548  157.5676 N   0  0  0  0  0  0  0  0  0  0  0  0
  150.0519  137.0640  158.1401 C   0  0  0  0  0  0  0  0  0  0  0  0
  150.4181  136.7704  159.2780 O   0  0  0  0  0  0  0  0  0  0  0  0
  149.2623  136.0557  157.3040 C   0  0  0  0  0  0  0  0  0  0  0  0
  147.8895  135.8777  157.8862 C   0  0  0  0  0  0  0  0  0  0  0  0
  146.6914  136.0818  157.2497 C   0  0  0  0  0  0  0  0  0  0  0  0
  145.3383  135.7147  158.2817 S   0  0  0  0  0  0  0  0  0  0  0  0
  146.4649  135.2937  159.5771 C   0  0  0  0  0  0  0  0  0  0  0  0
  146.0665  134.7955  160.9454 C   0  0  0  0  0  0  0  0  0  0  0  0
  146.5665  133.3505  161.1385 C   0  0  0  0  0  0  0  0  0  0  0  0
  144.5318  134.7870  161.1144 C   0  0  0  0  0  0  0  0  0  0  0  0
  146.6485  135.7216  162.0308 C   0  0  0  0  0  0  0  0  0  0  0  0
  147.7416  135.4462  159.2084 N   0  0  0  0  0  0  0  0  0  0  0  0
  151.6838  140.3224  155.9607 C   0  0  0  0  0  0  0  0  0  0  0  0
  152.8065  139.7708  155.9999 O   0  0  0  0  0  0  0  0  0  0  0  0
  151.0887  140.6469  154.9092 O   0  5  0  0  0  0  0  0  0  0  0  0
  149.6408  142.0967  156.3191 H   0  0  0  0  0  0  0  0  0  0  0  0
  149.1282  141.6335  157.9248 H   0  0  0  0  0  0  0  0  0  0  0  0
  148.9016  140.5189  156.5819 H   0  0  0  0  0  0  0  0  0  0  0  0
  151.5769  141.4010  157.7819 H   0  0  0  0  0  0  0  0  0  0  0  0
  151.9063  139.1043  158.5262 H   0  0  0  0  0  0  0  0  0  0  0  0
  150.3571  139.6363  159.1394 H   0  0  0  0  0  0  0  0  0  0  0  0
  149.9470  138.3998  156.6279 H   0  0  0  0  0  0  0  0  0  0  0  0
  149.2075  136.4057  156.2723 H   0  0  0  0  0  0  0  0  0  0  0  0
  149.7973  135.1054  157.2810 H   0  0  0  0  0  0  0  0  0  0  0  0
  146.5246  136.4096  156.2341 H   0  0  0  0  0  0  0  0  0  0  0  0
  146.2855  132.9588  162.1168 H   0  0  0  0  0  0  0  0  0  0  0  0
  147.6529  133.2892  161.0642 H   0  0  0  0  0  0  0  0  0  0  0  0
  146.1491  132.6824  160.3842 H   0  0  0  0  0  0  0  0  0  0  0  0
  144.0497  134.1329  160.3868 H   0  0  0  0  0  0  0  0  0  0  0  0
  144.1088  135.7854  160.9971 H   0  0  0  0  0  0  0  0  0  0  0  0
  144.2446  134.4307  162.1045 H   0  0  0  0  0  0  0  0  0  0  0  0
  146.3613  135.3929  163.0301 H   0  0  0  0  0  0  0  0  0  0  0  0
  146.2976  136.7470  161.9071 H   0  0  0  0  0  0  0  0  0  0  0  0
  147.7383  135.7412  161.9974 H   0  0  0  0  0  0  0  0  0  0  0  0
  1  2  1  0  0  0  0
  1 20  1  0  0  0  0
  1 21  1  0  0  0  0
  1 22  1  0  0  0  0
  2  3  1  0  0  0  0
  2 17  1  0  0  0  0
  2 23  1  0  0  0  0
  3  4  1  0  0  0  0
  3 24  1  0  0  0  0
  3 25  1  0  0  0  0
  4  5  1  0  0  0  0
  4 26  1  0  0  0  0
  5  6  2  0  0  0  0
  5  7  1  0  0  0  0
  7  8  1  0  0  0  0
  7 27  1  0  0  0  0
  7 28  1  0  0  0  0
  8 16  1  0  0  0  0
  8  9  2  0  0  0  0
  9 10  1  0  0  0  0
  9 29  1  0  0  0  0
 10 11  1  0  0  0  0
 11 12  1  0  0  0  0
 11 16  2  0  0  0  0
 12 13  1  0  0  0  0
 12 14  1  0  0  0  0
 12 15  1  0  0  0  0
 13 30  1  0  0  0  0
 13 31  1  0  0  0  0
 13 32  1  0  0  0  0
 14 33  1  0  0  0  0
 14 34  1  0  0  0  0
 14 35  1  0  0  0  0
 15 36  1  0  0  0  0
 15 37  1  0  0  0  0
 15 38  1  0  0  0  0
 17 18  2  0  0  0  0
 17 19  1  0  0  0  0
M  CHG  1  19  -1
M  END
> <s_m_source_file>
AV-unprocessed.smi

> <i_m_source_file_index>
2342

> <i_lp_mmshare_version>
43012

> <i_f3d_flags>
0

> <s_epik_input>
Tz1DKFtPSF0pW0NASF0oW0NIM10pW0NIMl1bTkhdQyg9TylbQ0gyXWMxW2NIXXNjKG4xKUMoW0NIM10pKFtDSDNdKVtDSDNd

> <s_epik_cmdline>
J2VwaWtfcHl0aG9uJywgJy1waCcsICc3LjAnLCAnLXRuJywgJzgnLCAnLW1hJywgJzIwMCcsICctbWV0YWxfYmluZGluZycsICctaW1hZScsICc8aW5maWxlLm1hZT4nLCAnLW9tYWUnLCAnPG91dGZpbGUubWFlPic=

> <r_epik_Ionization_Penalty>
0.00120065

> <r_epik_Ionization_Penalty_Charging>
0.00115909

> <r_epik_Ionization_Penalty_Neutral>
4.15663e-05

> <r_epik_State_Penalty>
0.00076313

> <r_epik_Charging_Adjusted_Penalty>
0.00192222

> <i_epik_Tot_Q>
-1

> <i_epik_Tot_abs_Q>
1

> <r_epik_Metal_State_Penalty>
-0

> <b_epik_Metal_Only>
0

> <s_lp_Force_Field>
OPLS_2005

> <r_lp_Energy>
-2.08659

> <b_lp_Chiralities_Consistent>
1

> <s_lp_Variant>
AV-unprocessed.smi:2342-2

> <Gold.Version>
5.8.1

> <Gold.Id.Protein>
6NUR|6NUR_protein|mol2

> <Gold.PLP.Fitness>
43.3318

> <Gold.PLP.PLP>
-31.7466

> <Gold.PLP.part.hbond>
-3.0000

> <Gold.PLP.part.metal>
0.0000

> <Gold.PLP.part.buried>
-5.2037

> <Gold.PLP.part.nonpolar>
-23.7481

> <Gold.PLP.part.repulsive>
0.1301

> <Gold.PLP.ligand.clash>
0.0000

> <Gold.PLP.ligand.torsion>
0.2568

> <Gold.PLP.Chemscore.Hbond>
4.0000

> <Gold.PLP.Chemscore.CHOScore>
0.0000

> <Gold.PLP.Chemscore.Metal>
0.0000

> <Gold.Chemscore.Hbonds>
donor molecule, donor type, donor heavy atom, donor atom, acceptor molecule, acceptor atom, score
      P1  H  6896  6908       L1     6  1.00
      P1  H  7989  7998       L1    19  0.90
      P1  H  7997  8008       L1    18  2.00

> <Gold.PLP.Chemscore.Internal.Correction>
0.0987

> <Gold.Rescore>
     Score         DG    S(hbond)    S(metal)    S(lipo)     H(rot)  DE(clash)    DE(int)     intcor
     16.01     -16.49       2.94        0.00      62.26       2.38       0.00       0.47       ----

> <Gold.Chemscore.Fitness>
16.0124

> <Gold.Chemscore.DG>
-16.4871

> <Gold.Chemscore.ZeroCoef>
-5.4800

> <Gold.Chemscore.Hbond>
2.9396

> <Gold.Chemscore.Metal>
0.0000

> <Gold.Chemscore.Lipo>
62.2618

> <Gold.Chemscore.Internal_Hbond>
0.0000

> <Gold.Chemscore.DEClash>
0.0024

> <Gold.Chemscore.DEInternal>
0.4723

> <Gold.Chemscore.Rot>
2.3812

> <Gold.Chemscore.Internal.Correction>
   9.000000E+99

> <Gold.Chemscore.Hbonds>
donor molecule, donor type, donor heavy atom, donor atom, acceptor molecule, acceptor atom, score
      P1  H  6896  6908       L1     6  0.99
      P1  H  7989  7998       L1    19  0.84
      P1  H  7997  8008       L1    18  0.99

> <Gold.Chemscore.Hbond.Weighted>
-9.8184

> <Gold.Chemscore.Metal.Weighted>
-0.0000

> <Gold.Chemscore.Lipo.Weighted>
-7.2846

> <Gold.Chemscore.Internal_Hbond.Weighted>
0.0000

> <Gold.Chemscore.DEClash.Weighted>
0.0024

> <Gold.Chemscore.DEInternal.Weighted>
0.4723

> <Gold.Chemscore.Rot.Weighted>
6.0959

> <Gold.Chemscore.Internal.Correction.Weighted>
   9.000000E+99

> <Gold.Protein.RotatedTorsions>
[ 6907 6896 6895 6894 ] final -154.66 input  -60.11 | X-H torsion
[ 7974 7965 7964 7962 ] final    4.15 input  175.53 | X-H torsion
[ 8008 7997 7996 7995 ] final  -33.13 input   59.86 | X-H torsion
[ 10167 10162 10161 10158 ] final -173.64 input  -65.29 | X-H torsion
[ 10718 10713 10712 10709 ] final  136.73 input   66.30 | X-H torsion
[ 10763 10752 10751 10750 ] final  113.58 input  -60.55 | X-H torsion
[ 11005 11000 10999 10996 ] final -147.68 input  -57.11 | X-H torsion

> <Gold.Protein.ActiveResidues>
 VAL166  LYS551  ARG553  GLY616  TRP617  ASP618  TYR619  PRO620  LYS621  CYS622 
 ASP623  PHE694  ASN695  SER759  ASP760  ASP761  ALA762  ILE779  LEU786  VAL792 
 PHE793  MET794  SER795  GLU796  ALA797  LYS798  CYS799  TRP800  GLU811  SER814 

> <Gold.Protein.RotatedAtoms>
  151.2608  133.4303  159.2615 H   0  0  0  0  0  0  0  0  0  0  0  0  # atno 6907 bound_to 6896
  151.0532  134.9687  159.8232 H   0  0  0  0  0  0  0  0  0  0  0  0  # atno 6908 bound_to 6896
  152.5386  134.2562  159.8970 H   0  0  0  0  0  0  0  0  0  0  0  0  # atno 6909 bound_to 6896
  146.2444  140.0577  142.8370 H   0  0  0  0  0  0  0  0  0  0  0  0  # atno 7974 bound_to 7965
  154.4158  140.1719  156.1839 H   0  0  0  0  0  0  0  0  0  0  0  0  # atno 8008 bound_to 7997
  155.9659  140.3389  155.6508 H   0  0  0  0  0  0  0  0  0  0  0  0  # atno 8009 bound_to 7997
  155.6688  140.0709  157.2518 H   0  0  0  0  0  0  0  0  0  0  0  0  # atno 8010 bound_to 7997
  139.5677  144.1715  152.1338 H   0  0  0  0  0  0  0  0  0  0  0  0  # atno 10167 bound_to 10162
  157.4436  131.1060  151.0115 H   0  0  0  0  0  0  0  0  0  0  0  0  # atno 10718 bound_to 10713
  153.4946  135.3651  155.2509 H   0  0  0  0  0  0  0  0  0  0  0  0  # atno 10763 bound_to 10752
  154.8750  135.3985  154.3549 H   0  0  0  0  0  0  0  0  0  0  0  0  # atno 10764 bound_to 10752
  153.4175  135.7079  153.6383 H   0  0  0  0  0  0  0  0  0  0  0  0  # atno 10765 bound_to 10752
  140.7691  134.3210  157.5080 H   0  0  0  0  0  0  0  0  0  0  0  0  # atno 11005 bound_to 11000
  145.0927  140.9295  143.4759 LP  0  0  0  0  0  0  0  0  0  0  0  0  # atno 17320 bound_to 7965
  145.0754  139.3000  143.5811 LP  0  0  0  0  0  0  0  0  0  0  0  0  # atno 17321 bound_to 7965
  140.1242  144.5347  150.6844 LP  0  0  0  0  0  0  0  0  0  0  0  0  # atno 17342 bound_to 10162
  140.6961  143.2405  151.4996 LP  0  0  0  0  0  0  0  0  0  0  0  0  # atno 17343 bound_to 10162
  157.0969  130.5965  149.5452 LP  0  0  0  0  0  0  0  0  0  0  0  0  # atno 17370 bound_to 10713
  155.9958  130.5026  150.7474 LP  0  0  0  0  0  0  0  0  0  0  0  0  # atno 17371 bound_to 10713
  139.8758  134.9250  156.3363 LP  0  0  0  0  0  0  0  0  0  0  0  0  # atno 17394 bound_to 11000
  140.9591  133.7400  156.0376 LP  0  0  0  0  0  0  0  0  0  0  0  0  # atno 17395 bound_to 11000

$$$$
