AV-unprocessed.smi:1912|AV-procd|sdf|7748|dock9
  -GOLD-   22720 9483D 1   1.00000     0.00000
 Structure written by MMmdl.
 43 45  0  0  0  0  0  0  0  0  1 V2000
  153.5824  138.2761  160.7812 C   0  0  0  0  0  0  0  0  0  0  0  0
  153.9769  139.6146  161.0459 O   0  0  0  0  0  0  0  0  0  0  0  0
  153.3670  140.6251  160.3335 C   0  0  0  0  0  0  0  0  0  0  0  0
  153.7751  141.9420  160.6140 C   0  0  0  0  0  0  0  0  0  0  0  0
  153.2147  143.0335  159.9263 C   0  0  0  0  0  0  0  0  0  0  0  0
  152.2199  142.8307  158.9384 C   0  0  0  0  0  0  0  0  0  0  0  0
  151.6452  143.8586  158.2180 O   0  0  0  0  0  0  0  0  0  0  0  0
  152.0920  145.1851  158.4543 C   0  0  0  0  0  0  0  0  0  0  0  0
  151.7907  141.5094  158.6617 C   0  0  0  0  0  0  0  0  0  0  0  0
  150.7228  141.2642  157.5989 C   0  0  2  0  0  0  0  0  0  0  0  0
  149.6757  140.4232  158.0468 O   0  0  0  0  0  0  0  0  0  0  0  0
  151.3450  140.6852  156.3130 C   0  0  0  0  0  0  0  0  0  0  0  0
  150.4754  139.7224  155.6521 N   0  0  0  0  0  0  0  0  0  0  0  0
  150.6264  138.3768  155.5857 C   0  0  0  0  0  0  0  0  0  0  0  0
  151.7807  137.6787  156.2337 C   0  0  0  0  0  0  0  0  0  0  0  0
  149.6827  137.7181  154.9131 N   0  0  0  0  0  0  0  0  0  0  0  0
  148.8367  138.7324  154.5070 C   0  0  0  0  0  0  0  0  0  0  0  0
  147.6415  138.6850  153.7543 C   0  0  0  0  0  0  0  0  0  0  0  0
  146.9365  139.8705  153.4587 C   0  0  0  0  0  0  0  0  0  0  0  0
  147.4161  141.1175  153.9092 C   0  0  0  0  0  0  0  0  0  0  0  0
  148.6054  141.1873  154.6598 C   0  0  0  0  0  0  0  0  0  0  0  0
  149.3045  140.0012  154.9539 C   0  0  0  0  0  0  0  0  0  0  0  0
  152.3708  140.4186  159.3489 C   0  0  0  0  0  0  0  0  0  0  0  0
  154.1566  137.5999  161.4145 H   0  0  0  0  0  0  0  0  0  0  0  0
  153.7777  138.0003  159.7440 H   0  0  0  0  0  0  0  0  0  0  0  0
  152.5262  138.1200  161.0046 H   0  0  0  0  0  0  0  0  0  0  0  0
  154.5338  142.1184  161.3626 H   0  0  0  0  0  0  0  0  0  0  0  0
  153.5709  144.0211  160.1759 H   0  0  0  0  0  0  0  0  0  0  0  0
  151.5483  145.8676  157.8012 H   0  0  0  0  0  0  0  0  0  0  0  0
  153.1546  145.2940  158.2328 H   0  0  0  0  0  0  0  0  0  0  0  0
  151.9023  145.4923  159.4835 H   0  0  0  0  0  0  0  0  0  0  0  0
  150.2451  142.2161  157.3680 H   0  0  0  0  0  0  0  0  0  0  0  0
  149.5934  140.5213  158.9831 H   0  0  0  0  0  0  0  0  0  0  0  0
  151.5696  141.4866  155.6087 H   0  0  0  0  0  0  0  0  0  0  0  0
  152.2992  140.2055  156.5350 H   0  0  0  0  0  0  0  0  0  0  0  0
  151.7325  136.6054  156.0466 H   0  0  0  0  0  0  0  0  0  0  0  0
  151.7626  137.8388  157.3117 H   0  0  0  0  0  0  0  0  0  0  0  0
  152.7244  138.0523  155.8369 H   0  0  0  0  0  0  0  0  0  0  0  0
  147.2663  137.7348  153.4042 H   0  0  0  0  0  0  0  0  0  0  0  0
  146.0236  139.8227  152.8833 H   0  0  0  0  0  0  0  0  0  0  0  0
  146.8708  142.0208  153.6779 H   0  0  0  0  0  0  0  0  0  0  0  0
  148.9772  142.1411  155.0034 H   0  0  0  0  0  0  0  0  0  0  0  0
  152.0412  139.4206  159.1043 H   0  0  0  0  0  0  0  0  0  0  0  0
  1  2  1  0  0  0  0
  1 24  1  0  0  0  0
  1 25  1  0  0  0  0
  1 26  1  0  0  0  0
  2  3  1  0  0  0  0
  3 23  1  0  0  0  0
  3  4  2  0  0  0  0
  4  5  1  0  0  0  0
  4 27  1  0  0  0  0
  5  6  2  0  0  0  0
  5 28  1  0  0  0  0
  6  7  1  0  0  0  0
  6  9  1  0  0  0  0
  7  8  1  0  0  0  0
  8 29  1  0  0  0  0
  8 30  1  0  0  0  0
  8 31  1  0  0  0  0
  9 10  1  0  0  0  0
  9 23  2  0  0  0  0
 10 11  1  0  0  0  0
 10 12  1  0  0  0  0
 10 32  1  0  0  0  0
 11 33  1  0  0  0  0
 12 13  1  0  0  0  0
 12 34  1  0  0  0  0
 12 35  1  0  0  0  0
 13 22  1  0  0  0  0
 13 14  1  0  0  0  0
 14 15  1  0  0  0  0
 14 16  2  0  0  0  0
 15 36  1  0  0  0  0
 15 37  1  0  0  0  0
 15 38  1  0  0  0  0
 16 17  1  0  0  0  0
 17 22  2  0  0  0  0
 17 18  1  0  0  0  0
 18 19  2  0  0  0  0
 18 39  1  0  0  0  0
 19 20  1  0  0  0  0
 19 40  1  0  0  0  0
 20 21  2  0  0  0  0
 20 41  1  0  0  0  0
 21 22  1  0  0  0  0
 21 42  1  0  0  0  0
 23 43  1  0  0  0  0
M  END
> <s_m_source_file>
AV-unprocessed.smi

> <i_m_source_file_index>
1912

> <i_lp_mmshare_version>
43012

> <i_f3d_flags>
0

> <s_epik_input>
W0NIM11PYzFbY0hdW2NIXWMoT1tDSDNdKWMoW2NIXTEpW0NASF0oW09IXSlbQ0gyXW4oYyhuMilbQ0gzXSljKGMyMylbY0hdW2NIXVtjSF1bY0hdMw==

> <s_epik_cmdline>
J2VwaWtfcHl0aG9uJywgJy1waCcsICc3LjAnLCAnLXRuJywgJzgnLCAnLW1hJywgJzIwMCcsICctbWV0YWxfYmluZGluZycsICctaW1hZScsICc8aW5maWxlLm1hZT4nLCAnLW9tYWUnLCAnPG91dGZpbGUubWFlPic=

> <r_lp_tautomer_probability>
1

> <r_epik_Ionization_Penalty>
0.129663

> <r_epik_Ionization_Penalty_Charging>
0

> <r_epik_Ionization_Penalty_Neutral>
0.129663

> <r_epik_State_Penalty>
0.119073

> <r_epik_Charging_Adjusted_Penalty>
0.119073

> <i_epik_Tot_Q>
0

> <i_epik_Tot_abs_Q>
0

> <r_epik_Metal_State_Penalty>
0.000131867

> <b_epik_Metal_Only>
0

> <s_lp_Force_Field>
OPLS_2005

> <r_lp_Energy>
18.8247

> <b_lp_Chiralities_Consistent>
1

> <s_lp_Variant>
AV-unprocessed.smi:1912-1

> <Gold.Version>
5.8.1

> <Gold.Id.Protein>
6NUR|6NUR_protein|mol2

> <Gold.PLP.Fitness>
47.9702

> <Gold.PLP.PLP>
-49.7767

> <Gold.PLP.part.hbond>
0.0000

> <Gold.PLP.part.metal>
0.0000

> <Gold.PLP.part.buried>
-3.6389

> <Gold.PLP.part.nonpolar>
-45.8485

> <Gold.PLP.part.repulsive>
0.3113

> <Gold.PLP.ligand.clash>
0.0000

> <Gold.PLP.ligand.torsion>
0.9329

> <Gold.PLP.Chemscore.Hbond>
0.0000

> <Gold.PLP.Chemscore.CHOScore>
0.0000

> <Gold.PLP.Chemscore.Metal>
0.0000

> <Gold.PLP.Chemscore.Internal.Correction>
0.0592

> <Gold.Rescore>
     Score         DG    S(hbond)    S(metal)    S(lipo)     H(rot)  DE(clash)    DE(int)     intcor
     14.73     -15.84       0.00        0.00     136.01       2.17       0.02       1.09       ----

> <Gold.Chemscore.Fitness>
14.7338

> <Gold.Chemscore.DG>
-15.8411

> <Gold.Chemscore.ZeroCoef>
-5.4800

> <Gold.Chemscore.Hbond>
0.0000

> <Gold.Chemscore.Metal>
0.0000

> <Gold.Chemscore.Lipo>
136.0143

> <Gold.Chemscore.Internal_Hbond>
0.0000

> <Gold.Chemscore.DEClash>
0.0163

> <Gold.Chemscore.DEInternal>
1.0910

> <Gold.Chemscore.Rot>
2.1690

> <Gold.Chemscore.Internal.Correction>
   9.000000E+99

> <Gold.Chemscore.Hbond.Weighted>
-0.0000

> <Gold.Chemscore.Metal.Weighted>
-0.0000

> <Gold.Chemscore.Lipo.Weighted>
-15.9137

> <Gold.Chemscore.Internal_Hbond.Weighted>
0.0000

> <Gold.Chemscore.DEClash.Weighted>
0.0163

> <Gold.Chemscore.DEInternal.Weighted>
1.0910

> <Gold.Chemscore.Rot.Weighted>
5.5526

> <Gold.Chemscore.Internal.Correction.Weighted>
   9.000000E+99

> <Gold.Protein.RotatedTorsions>
[ 6907 6896 6895 6894 ] final  -83.24 input  -60.11 | X-H torsion
[ 7974 7965 7964 7962 ] final  -59.39 input  175.53 | X-H torsion
[ 8008 7997 7996 7995 ] final  138.85 input   59.86 | X-H torsion
[ 10167 10162 10161 10158 ] final   69.72 input  -65.29 | X-H torsion
[ 10718 10713 10712 10709 ] final  -50.54 input   66.30 | X-H torsion
[ 10763 10752 10751 10750 ] final    2.61 input  -60.55 | X-H torsion
[ 11005 11000 10999 10996 ] final   84.79 input  -57.11 | X-H torsion

> <Gold.Protein.ActiveResidues>
 VAL166  LYS551  ARG553  GLY616  TRP617  ASP618  TYR619  PRO620  LYS621  CYS622 
 ASP623  PHE694  ASN695  SER759  ASP760  ASP761  ALA762  ILE779  LEU786  VAL792 
 PHE793  MET794  SER795  GLU796  ALA797  LYS798  CYS799  TRP800  GLU811  SER814 

> <Gold.Protein.RotatedAtoms>
  150.6888  134.3542  159.4921 H   0  0  0  0  0  0  0  0  0  0  0  0  # atno 6907 bound_to 6896
  152.1379  134.9082  160.0564 H   0  0  0  0  0  0  0  0  0  0  0  0  # atno 6908 bound_to 6896
  152.0227  133.3870  159.4301 H   0  0  0  0  0  0  0  0  0  0  0  0  # atno 6909 bound_to 6896
  145.8281  140.8497  143.0098 H   0  0  0  0  0  0  0  0  0  0  0  0  # atno 7974 bound_to 7965
  156.2994  140.2383  156.4141 H   0  0  0  0  0  0  0  0  0  0  0  0  # atno 8008 bound_to 7997
  154.8414  140.0428  157.1564 H   0  0  0  0  0  0  0  0  0  0  0  0  # atno 8009 bound_to 7997
  154.9098  140.2989  155.5276 H   0  0  0  0  0  0  0  0  0  0  0  0  # atno 8010 bound_to 7997
  140.0647  144.5203  150.7269 H   0  0  0  0  0  0  0  0  0  0  0  0  # atno 10167 bound_to 10162
  156.1791  130.4150  149.9532 H   0  0  0  0  0  0  0  0  0  0  0  0  # atno 10718 bound_to 10713
  153.2935  135.6950  153.7270 H   0  0  0  0  0  0  0  0  0  0  0  0  # atno 10763 bound_to 10752
  153.6212  135.3427  155.3012 H   0  0  0  0  0  0  0  0  0  0  0  0  # atno 10764 bound_to 10752
  154.8531  135.4386  154.2025 H   0  0  0  0  0  0  0  0  0  0  0  0  # atno 10765 bound_to 10752
  139.8990  134.8241  156.2493 H   0  0  0  0  0  0  0  0  0  0  0  0  # atno 11005 bound_to 11000
  144.6742  140.0631  143.7475 LP  0  0  0  0  0  0  0  0  0  0  0  0  # atno 17320 bound_to 7965
  145.9601  139.2795  143.1160 LP  0  0  0  0  0  0  0  0  0  0  0  0  # atno 17321 bound_to 7965
  140.7155  143.2541  151.4448 LP  0  0  0  0  0  0  0  0  0  0  0  0  # atno 17342 bound_to 10162
  139.5872  144.1578  152.2044 LP  0  0  0  0  0  0  0  0  0  0  0  0  # atno 17343 bound_to 10162
  156.7308  130.9043  151.3625 LP  0  0  0  0  0  0  0  0  0  0  0  0  # atno 17370 bound_to 10713
  157.6856  130.9182  150.0378 LP  0  0  0  0  0  0  0  0  0  0  0  0  # atno 17371 bound_to 10713
  141.0234  133.7028  156.1307 LP  0  0  0  0  0  0  0  0  0  0  0  0  # atno 17394 bound_to 11000
  140.7200  134.4368  157.5575 LP  0  0  0  0  0  0  0  0  0  0  0  0  # atno 17395 bound_to 11000

$$$$
