AV-unprocessed.smi:169|AV-procd|sdf|1399|dock9
  -GOLD-   2262019143D 1   1.00000     0.00000
 Structure written by MMmdl.
 56 60  0  0  0  0  0  0  0  0  2 V2000
  143.4373  136.4825  153.0534 C   0  0  0  0  0  0  0  0  0  0  0  0
  143.1269  135.0709  153.5835 C   0  0  0  0  0  0  0  0  0  0  0  0
  143.9109  133.9902  152.9291 N   0  3  1  0  0  0  0  0  0  0  0  0
  143.4716  133.6890  151.5433 C   0  0  0  0  0  0  0  0  0  0  0  0
  143.5045  132.1752  151.2613 C   0  0  0  0  0  0  0  0  0  0  0  0
  144.8950  131.5071  151.3080 C   0  0  1  0  0  0  0  0  0  0  0  0
  145.8857  132.0925  150.2953 C   0  0  0  0  0  0  0  0  0  0  0  0
  146.6743  133.1428  151.0860 C   0  0  0  0  0  0  0  0  0  0  0  0
  146.2363  132.9744  152.5556 C   0  0  1  0  0  0  0  0  0  0  0  0
  145.3825  134.1535  153.0867 C   0  0  0  0  0  0  0  0  0  0  0  0
  145.5363  131.6922  152.6084 N   0  0  0  0  0  0  0  0  0  0  0  0
  146.2325  130.6791  153.1882 C   0  0  0  0  0  0  0  0  0  0  0  0
  146.7249  130.8075  154.4487 N   0  0  0  0  0  0  0  0  0  0  0  0
  147.3905  129.7995  155.0199 C   0  0  0  0  0  0  0  0  0  0  0  0
  147.6732  128.5965  154.5172 N   0  0  0  0  0  0  0  0  0  0  0  0
  147.1914  128.4628  153.2491 C   0  0  0  0  0  0  0  0  0  0  0  0
  146.4652  129.4452  152.5185 C   0  0  0  0  0  0  0  0  0  0  0  0
  146.1352  128.9545  151.2609 N   0  0  0  0  0  0  0  0  0  0  0  0
  146.6286  127.7463  151.2529 C   0  0  0  0  0  0  0  0  0  0  0  0
  147.2885  127.3717  152.4025 N   0  0  0  0  0  0  0  0  0  0  0  0
  147.9260  126.0877  152.6570 C   0  0  0  0  0  0  0  0  0  0  0  0
  148.2746  125.2849  151.3878 C   0  0  0  0  0  0  0  0  0  0  0  0
  149.1517  126.1569  150.4653 C   0  0  0  0  0  0  0  0  0  0  0  0
  149.7722  125.4074  149.4395 O   0  0  0  0  0  0  0  0  0  0  0  0
  148.7579  123.8435  151.6054 C   0  0  0  0  0  0  0  0  0  0  0  0
  147.7566  123.3119  150.7097 O   0  0  0  0  0  0  0  0  0  0  0  0
  147.0781  124.5867  150.7239 C   0  0  0  0  0  0  0  0  0  0  0  0
  142.7955  137.2187  153.5380 H   0  0  0  0  0  0  0  0  0  0  0  0
  143.2665  136.5615  151.9799 H   0  0  0  0  0  0  0  0  0  0  0  0
  144.4673  136.7761  153.2534 H   0  0  0  0  0  0  0  0  0  0  0  0
  143.3021  135.0374  154.6595 H   0  0  0  0  0  0  0  0  0  0  0  0
  142.0652  134.8598  153.4495 H   0  0  0  0  0  0  0  0  0  0  0  0
  142.4395  134.0164  151.4107 H   0  0  0  0  0  0  0  0  0  0  0  0
  144.0570  134.2543  150.8178 H   0  0  0  0  0  0  0  0  0  0  0  0
  142.8467  131.6692  151.9692 H   0  0  0  0  0  0  0  0  0  0  0  0
  143.0674  131.9959  150.2784 H   0  0  0  0  0  0  0  0  0  0  0  0
  144.7368  130.4517  151.0841 H   0  0  0  0  0  0  0  0  0  0  0  0
  146.5661  131.3108  149.9549 H   0  0  0  0  0  0  0  0  0  0  0  0
  145.3977  132.5058  149.4120 H   0  0  0  0  0  0  0  0  0  0  0  0
  147.7440  132.9565  150.9820 H   0  0  0  0  0  0  0  0  0  0  0  0
  146.4891  134.1489  150.7091 H   0  0  0  0  0  0  0  0  0  0  0  0
  147.1495  132.9452  153.1522 H   0  0  0  0  0  0  0  0  0  0  0  0
  145.7227  135.0911  152.6477 H   0  0  0  0  0  0  0  0  0  0  0  0
  145.5742  134.2411  154.1569 H   0  0  0  0  0  0  0  0  0  0  0  0
  147.7452  129.9824  156.0237 H   0  0  0  0  0  0  0  0  0  0  0  0
  146.5307  127.0917  150.3990 H   0  0  0  0  0  0  0  0  0  0  0  0
  148.8214  126.2735  153.2517 H   0  0  0  0  0  0  0  0  0  0  0  0
  147.2651  125.5048  153.2996 H   0  0  0  0  0  0  0  0  0  0  0  0
  148.5605  126.9454  149.9987 H   0  0  0  0  0  0  0  0  0  0  0  0
  149.9475  126.6458  151.0274 H   0  0  0  0  0  0  0  0  0  0  0  0
  149.6157  125.8384  148.6131 H   0  0  0  0  0  0  0  0  0  0  0  0
  149.7749  123.6556  151.2602 H   0  0  0  0  0  0  0  0  0  0  0  0
  148.6176  123.4720  152.6209 H   0  0  0  0  0  0  0  0  0  0  0  0
  146.1819  124.5576  151.3455 H   0  0  0  0  0  0  0  0  0  0  0  0
  146.8398  124.9489  149.7234 H   0  0  0  0  0  0  0  0  0  0  0  0
  143.6807  133.1596  153.4561 H   0  0  0  0  0  0  0  0  0  0  0  0
  1  2  1  0  0  0  0
  1 28  1  0  0  0  0
  1 29  1  0  0  0  0
  1 30  1  0  0  0  0
  2  3  1  0  0  0  0
  2 31  1  0  0  0  0
  2 32  1  0  0  0  0
  3 10  1  0  0  0  0
  3  4  1  0  0  0  0
  3 56  1  0  0  0  0
  4  5  1  0  0  0  0
  4 33  1  0  0  0  0
  4 34  1  0  0  0  0
  5  6  1  0  0  0  0
  5 35  1  0  0  0  0
  5 36  1  0  0  0  0
  6 11  1  0  0  0  0
  6  7  1  0  0  0  0
  6 37  1  0  0  0  0
  7  8  1  0  0  0  0
  7 38  1  0  0  0  0
  7 39  1  0  0  0  0
  8  9  1  0  0  0  0
  8 40  1  0  0  0  0
  8 41  1  0  0  0  0
  9 10  1  0  0  0  0
  9 11  1  0  0  0  0
  9 42  1  0  0  0  0
 10 43  1  0  0  0  0
 10 44  1  0  0  0  0
 11 12  1  0  0  0  0
 12 17  1  0  0  0  0
 12 13  2  0  0  0  0
 13 14  1  0  0  0  0
 14 15  2  0  0  0  0
 14 45  1  0  0  0  0
 15 16  1  0  0  0  0
 16 20  1  0  0  0  0
 16 17  2  0  0  0  0
 17 18  1  0  0  0  0
 18 19  2  0  0  0  0
 19 20  1  0  0  0  0
 19 46  1  0  0  0  0
 20 21  1  0  0  0  0
 21 22  1  0  0  0  0
 21 47  1  0  0  0  0
 21 48  1  0  0  0  0
 22 27  1  0  0  0  0
 22 23  1  0  0  0  0
 22 25  1  0  0  0  0
 23 24  1  0  0  0  0
 23 49  1  0  0  0  0
 23 50  1  0  0  0  0
 24 51  1  0  0  0  0
 25 26  1  0  0  0  0
 25 52  1  0  0  0  0
 25 53  1  0  0  0  0
 26 27  1  0  0  0  0
 27 54  1  0  0  0  0
 27 55  1  0  0  0  0
M  CHG  1   3   1
M  END
> <s_m_source_file>
AV-unprocessed.smi

> <i_m_source_file_index>
169

> <i_lp_mmshare_version>
43012

> <i_f3d_flags>
0

> <s_epik_input>
W0NASF0xMltDSDJdW0NIMl1OKFtDSDJdW0NIM10pW0NIMl1bQ0BIXShbQ0gyXVtDSDJdMSlOMmMobltjSF1uMyljKGMzNCluW2NIXW40W0NIMl1DNShbQ0gyXVtPSF0pW0NIMl1PW0NIMl01

> <s_epik_cmdline>
J2VwaWtfcHl0aG9uJywgJy1waCcsICc3LjAnLCAnLXRuJywgJzgnLCAnLW1hJywgJzIwMCcsICctbWV0YWxfYmluZGluZycsICctaW1hZScsICc8aW5maWxlLm1hZT4nLCAnLW9tYWUnLCAnPG91dGZpbGUubWFlPic=

> <r_lp_tautomer_probability>
1

> <r_epik_Ionization_Penalty>
0.00274162

> <r_epik_Ionization_Penalty_Charging>
0.00243722

> <r_epik_Ionization_Penalty_Neutral>
0.000304399

> <r_epik_State_Penalty>
-0

> <r_epik_Charging_Adjusted_Penalty>
0.00243722

> <i_epik_Tot_Q>
1

> <i_epik_Tot_abs_Q>
1

> <r_epik_Metal_State_Penalty>
-0

> <b_epik_Metal_Only>
0

> <s_lp_Force_Field>
OPLS_2005

> <r_lp_Energy>
78.3459

> <b_lp_Chiralities_Consistent>
1

> <s_lp_Variant>
AV-unprocessed.smi:169-2

> <Gold.Version>
5.8.1

> <Gold.Id.Protein>
6NUR|6NUR_protein|mol2

> <Gold.PLP.Fitness>
48.1378

> <Gold.PLP.PLP>
-39.9937

> <Gold.PLP.part.hbond>
-3.0000

> <Gold.PLP.part.metal>
0.0000

> <Gold.PLP.part.buried>
-2.4597

> <Gold.PLP.part.nonpolar>
-37.2361

> <Gold.PLP.part.repulsive>
0.9311

> <Gold.PLP.ligand.clash>
0.0000

> <Gold.PLP.ligand.torsion>
0.6883

> <Gold.PLP.Chemscore.Hbond>
3.0000

> <Gold.PLP.Chemscore.CHOScore>
0.0000

> <Gold.PLP.Chemscore.Metal>
0.0000

> <Gold.Chemscore.Hbonds>
donor molecule, donor type, donor heavy atom, donor atom, acceptor molecule, acceptor atom, score
      L1  H     3    56       P1 10957  1.30
      L1  H    24    51       P1 10769  0.79

> <Gold.PLP.Chemscore.Internal.Correction>
0.5208

> <Gold.Rescore>
     Score         DG    S(hbond)    S(metal)    S(lipo)     H(rot)  DE(clash)    DE(int)     intcor
     12.06     -15.44       1.62        0.00      96.31       2.62       1.43       1.95       ----

> <Gold.Chemscore.Fitness>
12.0555

> <Gold.Chemscore.DG>
-15.4376

> <Gold.Chemscore.ZeroCoef>
-5.4800

> <Gold.Chemscore.Hbond>
1.6166

> <Gold.Chemscore.Metal>
0.0000

> <Gold.Chemscore.Lipo>
96.3119

> <Gold.Chemscore.Internal_Hbond>
0.0000

> <Gold.Chemscore.DEClash>
1.4291

> <Gold.Chemscore.DEInternal>
1.9531

> <Gold.Chemscore.Rot>
2.6212

> <Gold.Chemscore.Internal.Correction>
   9.000000E+99

> <Gold.Chemscore.Hbonds>
donor molecule, donor type, donor heavy atom, donor atom, acceptor molecule, acceptor atom, score
      L1  H     3    56       P1 10957  0.58
      L1  H    24    51       P1 10769  0.59

> <Gold.Chemscore.Hbond.Weighted>
-5.3993

> <Gold.Chemscore.Metal.Weighted>
-0.0000

> <Gold.Chemscore.Lipo.Weighted>
-11.2685

> <Gold.Chemscore.Internal_Hbond.Weighted>
0.0000

> <Gold.Chemscore.DEClash.Weighted>
1.4291

> <Gold.Chemscore.DEInternal.Weighted>
1.9531

> <Gold.Chemscore.Rot.Weighted>
6.7102

> <Gold.Chemscore.Internal.Correction.Weighted>
   9.000000E+99

> <Gold.Protein.RotatedTorsions>
[ 6907 6896 6895 6894 ] final  169.63 input  -60.11 | X-H torsion
[ 7974 7965 7964 7962 ] final  -11.56 input  175.53 | X-H torsion
[ 8008 7997 7996 7995 ] final  -26.33 input   59.86 | X-H torsion
[ 10167 10162 10161 10158 ] final  160.86 input  -65.29 | X-H torsion
[ 10718 10713 10712 10709 ] final  163.72 input   66.30 | X-H torsion
[ 10763 10752 10751 10750 ] final  149.15 input  -60.55 | X-H torsion
[ 11005 11000 10999 10996 ] final  -40.23 input  -57.11 | X-H torsion

> <Gold.Protein.ActiveResidues>
 VAL166  LYS551  ARG553  GLY616  TRP617  ASP618  TYR619  PRO620  LYS621  CYS622 
 ASP623  PHE694  ASN695  SER759  ASP760  ASP761  ALA762  ILE779  LEU786  VAL792 
 PHE793  MET794  SER795  GLU796  ALA797  LYS798  CYS799  TRP800  GLU811  SER814 

> <Gold.Protein.RotatedAtoms>
  151.8288  133.3405  159.3606 H   0  0  0  0  0  0  0  0  0  0  0  0  # atno 6907 bound_to 6896
  150.7271  134.5503  159.5800 H   0  0  0  0  0  0  0  0  0  0  0  0  # atno 6908 bound_to 6896
  152.2951  134.7677  160.0421 H   0  0  0  0  0  0  0  0  0  0  0  0  # atno 6909 bound_to 6896
  146.2183  140.2929  142.8370 H   0  0  0  0  0  0  0  0  0  0  0  0  # atno 7974 bound_to 7965
  154.4430  140.1902  156.0758 H   0  0  0  0  0  0  0  0  0  0  0  0  # atno 8008 bound_to 7997
  156.0476  140.3312  155.7287 H   0  0  0  0  0  0  0  0  0  0  0  0  # atno 8009 bound_to 7997
  155.5606  140.0603  157.2820 H   0  0  0  0  0  0  0  0  0  0  0  0  # atno 8010 bound_to 7997
  139.4844  144.4593  151.8726 H   0  0  0  0  0  0  0  0  0  0  0  0  # atno 10167 bound_to 10162
  157.1045  131.0452  151.2483 H   0  0  0  0  0  0  0  0  0  0  0  0  # atno 10718 bound_to 10713
  154.0665  135.2870  155.3316 H   0  0  0  0  0  0  0  0  0  0  0  0  # atno 10763 bound_to 10752
  154.6774  135.5276  153.8221 H   0  0  0  0  0  0  0  0  0  0  0  0  # atno 10764 bound_to 10752
  153.0502  135.6573  154.0850 H   0  0  0  0  0  0  0  0  0  0  0  0  # atno 10765 bound_to 10752
  141.0159  133.6885  156.2293 H   0  0  0  0  0  0  0  0  0  0  0  0  # atno 11005 bound_to 11000
  144.9113  140.7761  143.5805 LP  0  0  0  0  0  0  0  0  0  0  0  0  # atno 17320 bound_to 7965
  145.2860  139.1901  143.4765 LP  0  0  0  0  0  0  0  0  0  0  0  0  # atno 17321 bound_to 7965
  140.4054  144.2439  150.5891 LP  0  0  0  0  0  0  0  0  0  0  0  0  # atno 17342 bound_to 10162
  140.5017  143.2316  151.8668 LP  0  0  0  0  0  0  0  0  0  0  0  0  # atno 17343 bound_to 10162
  157.4612  130.7654  149.7237 LP  0  0  0  0  0  0  0  0  0  0  0  0  # atno 17370 bound_to 10713
  155.9865  130.3974  150.3208 LP  0  0  0  0  0  0  0  0  0  0  0  0  # atno 17371 bound_to 10713
  140.6655  134.4923  157.5585 LP  0  0  0  0  0  0  0  0  0  0  0  0  # atno 17394 bound_to 11000
  139.9117  134.8331  156.1506 LP  0  0  0  0  0  0  0  0  0  0  0  0  # atno 17395 bound_to 11000

$$$$
