AV-unprocessed.smi:1703|AV-procd|sdf|6872|dock1
  -GOLD-   22720 8 73D 1   1.00000     0.00000
 Structure written by MMmdl.
 49 51  0  0  0  0  0  0  0  0  2 V2000
  147.3124  135.2598  162.4292 C   0  0  0  0  0  0  0  0  0  0  0  0
  147.2610  135.8137  161.0015 C   0  0  1  0  0  0  0  0  0  0  0  0
  148.5362  136.5943  160.6368 C   0  0  0  0  0  0  0  0  0  0  0  0
  148.5201  137.0534  159.2533 N   0  0  0  0  0  0  0  0  0  0  0  0
  149.7231  137.8303  158.9491 C   0  0  0  0  0  0  0  0  0  0  0  0
  149.6025  138.8018  157.7585 C   0  0  1  0  0  0  0  0  0  0  0  0
  148.7101  139.8380  158.1176 O   0  0  0  0  0  0  0  0  0  0  0  0
  150.9695  139.4059  157.3827 C   0  0  0  0  0  0  0  0  0  0  0  0
  150.9361  140.8740  157.2695 N   0  0  0  0  0  0  0  0  0  0  0  0
  150.3100  141.6710  156.3554 C   0  0  0  0  0  0  0  0  0  0  0  0
  149.4671  141.2312  155.2035 C   0  0  0  0  0  0  0  0  0  0  0  0
  148.9372  142.3191  154.4788 O   0  0  0  0  0  0  0  0  0  0  0  0
  150.5857  142.9630  156.6901 N   0  3  0  0  0  0  0  0  0  0  0  0
  151.3932  142.9954  157.8272 C   0  0  0  0  0  0  0  0  0  0  0  0
  151.9256  144.0688  158.5347 C   0  0  0  0  0  0  0  0  0  0  0  0
  152.7100  143.7558  159.6641 C   0  0  0  0  0  0  0  0  0  0  0  0
  152.9376  142.4194  160.0516 C   0  0  0  0  0  0  0  0  0  0  0  0
  152.3940  141.3396  159.3249 C   0  0  0  0  0  0  0  0  0  0  0  0
  151.6212  141.6568  158.2075 C   0  0  0  0  0  0  0  0  0  0  0  0
  148.3563  135.8965  158.3738 C   0  0  0  0  0  0  0  0  0  0  0  0
  147.1096  135.0569  158.7183 C   0  0  2  0  0  0  0  0  0  0  0  0
  145.7901  135.7240  158.2933 C   0  0  0  0  0  0  0  0  0  0  0  0
  147.1081  134.7150  160.1051 O   0  0  0  0  0  0  0  0  0  0  0  0
  147.4196  136.0632  163.1584 H   0  0  0  0  0  0  0  0  0  0  0  0
  148.1523  134.5765  162.5574 H   0  0  0  0  0  0  0  0  0  0  0  0
  146.3993  134.7141  162.6681 H   0  0  0  0  0  0  0  0  0  0  0  0
  146.3952  136.4716  160.9203 H   0  0  0  0  0  0  0  0  0  0  0  0
  148.6345  137.4490  161.3073 H   0  0  0  0  0  0  0  0  0  0  0  0
  149.4111  135.9644  160.8062 H   0  0  0  0  0  0  0  0  0  0  0  0
  150.0084  138.4116  159.8273 H   0  0  0  0  0  0  0  0  0  0  0  0
  150.5520  137.1437  158.7699 H   0  0  0  0  0  0  0  0  0  0  0  0
  149.2017  138.2932  156.8834 H   0  0  0  0  0  0  0  0  0  0  0  0
  147.8823  139.4465  158.3534 H   0  0  0  0  0  0  0  0  0  0  0  0
  151.7410  139.1145  158.0956 H   0  0  0  0  0  0  0  0  0  0  0  0
  151.2935  139.0149  156.4182 H   0  0  0  0  0  0  0  0  0  0  0  0
  150.0665  140.6173  154.5305 H   0  0  0  0  0  0  0  0  0  0  0  0
  148.6498  140.6057  155.5622 H   0  0  0  0  0  0  0  0  0  0  0  0
  149.0326  143.1027  154.9988 H   0  0  0  0  0  0  0  0  0  0  0  0
  151.7495  145.0935  158.2418 H   0  0  0  0  0  0  0  0  0  0  0  0
  153.1436  144.5563  160.2459 H   0  0  0  0  0  0  0  0  0  0  0  0
  153.5403  142.2169  160.9251 H   0  0  0  0  0  0  0  0  0  0  0  0
  152.5698  140.3207  159.6363 H   0  0  0  0  0  0  0  0  0  0  0  0
  148.2891  136.2074  157.3324 H   0  0  0  0  0  0  0  0  0  0  0  0
  149.2392  135.2596  158.4478 H   0  0  0  0  0  0  0  0  0  0  0  0
  147.1793  134.1157  158.1722 H   0  0  0  0  0  0  0  0  0  0  0  0
  145.7601  135.8688  157.2133 H   0  0  0  0  0  0  0  0  0  0  0  0
  145.6573  136.7016  158.7560 H   0  0  0  0  0  0  0  0  0  0  0  0
  144.9356  135.1051  158.5670 H   0  0  0  0  0  0  0  0  0  0  0  0
  150.2403  143.7637  156.1769 H   0  0  0  0  0  0  0  0  0  0  0  0
  1  2  1  0  0  0  0
  1 24  1  0  0  0  0
  1 25  1  0  0  0  0
  1 26  1  0  0  0  0
  2 23  1  0  0  0  0
  2  3  1  0  0  0  0
  2 27  1  0  0  0  0
  3  4  1  0  0  0  0
  3 28  1  0  0  0  0
  3 29  1  0  0  0  0
  4  5  1  0  0  0  0
  4 20  1  0  0  0  0
  5  6  1  0  0  0  0
  5 30  1  0  0  0  0
  5 31  1  0  0  0  0
  6  7  1  0  0  0  0
  6  8  1  0  0  0  0
  6 32  1  0  0  0  0
  7 33  1  0  0  0  0
  8  9  1  0  0  0  0
  8 34  1  0  0  0  0
  8 35  1  0  0  0  0
  9 19  1  0  0  0  0
  9 10  1  0  0  0  0
 10 11  1  0  0  0  0
 10 13  2  0  0  0  0
 11 12  1  0  0  0  0
 11 36  1  0  0  0  0
 11 37  1  0  0  0  0
 12 38  1  0  0  0  0
 13 14  1  0  0  0  0
 13 49  1  0  0  0  0
 14 19  2  0  0  0  0
 14 15  1  0  0  0  0
 15 16  2  0  0  0  0
 15 39  1  0  0  0  0
 16 17  1  0  0  0  0
 16 40  1  0  0  0  0
 17 18  2  0  0  0  0
 17 41  1  0  0  0  0
 18 19  1  0  0  0  0
 18 42  1  0  0  0  0
 20 21  1  0  0  0  0
 20 43  1  0  0  0  0
 20 44  1  0  0  0  0
 21 22  1  0  0  0  0
 21 23  1  0  0  0  0
 21 45  1  0  0  0  0
 22 46  1  0  0  0  0
 22 47  1  0  0  0  0
 22 48  1  0  0  0  0
M  CHG  1  13   1
M  END
> <s_m_source_file>
AV-unprocessed.smi

> <i_m_source_file_index>
1703

> <i_lp_mmshare_version>
43012

> <i_f3d_flags>
0

> <s_epik_input>
W0NIM11bQ0BASF0xW0NIMl1OKFtDSDJdW0NASF0oTzEpW0NIM10pW0NIMl1bQ0BIXShbT0hdKVtDSDJdbihjKG4yKVtDSDJdW09IXSljKGMyMylbY0hdW2NIXVtjSF1bY0hdMw==

> <s_epik_cmdline>
J2VwaWtfcHl0aG9uJywgJy1waCcsICc3LjAnLCAnLXRuJywgJzgnLCAnLW1hJywgJzIwMCcsICctbWV0YWxfYmluZGluZycsICctaW1hZScsICc8aW5maWxlLm1hZT4nLCAnLW9tYWUnLCAnPG91dGZpbGUubWFlPic=

> <r_epik_Ionization_Penalty>
1.7682

> <r_epik_Ionization_Penalty_Charging>
1.55298

> <r_epik_Ionization_Penalty_Neutral>
0.215215

> <r_epik_State_Penalty>
1.83821

> <r_epik_Charging_Adjusted_Penalty>
3.39119

> <i_epik_Tot_Q>
1

> <i_epik_Tot_abs_Q>
1

> <r_epik_Metal_State_Penalty>
5.89206

> <b_epik_Metal_Only>
0

> <s_lp_Force_Field>
OPLS_2005

> <r_lp_Energy>
35.5587

> <b_lp_Chiralities_Consistent>
1

> <s_lp_Variant>
AV-unprocessed.smi:1703-20

> <Gold.Version>
5.8.1

> <Gold.Id.Protein>
6NUR|6NUR_protein|mol2

> <Gold.PLP.Fitness>
51.9251

> <Gold.PLP.PLP>
-44.2440

> <Gold.PLP.part.hbond>
-3.3268

> <Gold.PLP.part.metal>
0.0000

> <Gold.PLP.part.buried>
-5.8669

> <Gold.PLP.part.nonpolar>
-35.8050

> <Gold.PLP.part.repulsive>
0.0705

> <Gold.PLP.ligand.clash>
0.0000

> <Gold.PLP.ligand.torsion>
1.0164

> <Gold.PLP.Chemscore.Hbond>
3.1618

> <Gold.PLP.Chemscore.CHOScore>
0.0000

> <Gold.PLP.Chemscore.Metal>
0.0000

> <Gold.Chemscore.Hbonds>
donor molecule, donor type, donor heavy atom, donor atom, acceptor molecule, acceptor atom, score
      L1  H    12    38       P1  8028  1.00
      L1  H    13    49       P1  8028  1.98
      P1  H  8011  8017       L1    12  0.07

> <Gold.PLP.Chemscore.Internal.Correction>
0.2285

> <Gold.Rescore>
     Score         DG    S(hbond)    S(metal)    S(lipo)     H(rot)  DE(clash)    DE(int)     intcor
     15.54     -17.85       2.08        0.00     110.99       2.96       0.34       1.97       ----

> <Gold.Chemscore.Fitness>
15.5402

> <Gold.Chemscore.DG>
-17.8491

> <Gold.Chemscore.ZeroCoef>
-5.4800

> <Gold.Chemscore.Hbond>
2.0805

> <Gold.Chemscore.Metal>
0.0000

> <Gold.Chemscore.Lipo>
110.9926

> <Gold.Chemscore.Internal_Hbond>
0.0000

> <Gold.Chemscore.DEClash>
0.3356

> <Gold.Chemscore.DEInternal>
1.9733

> <Gold.Chemscore.Rot>
2.9555

> <Gold.Chemscore.Internal.Correction>
   9.000000E+99

> <Gold.Chemscore.Hbonds>
donor molecule, donor type, donor heavy atom, donor atom, acceptor molecule, acceptor atom, score
      L1  H    12    38       P1  8028  1.00
      L1  H    13    49       P1  8028  0.94
      P1  H  8011  8017       L1    12  0.05

> <Gold.Chemscore.Hbond.Weighted>
-6.9489

> <Gold.Chemscore.Metal.Weighted>
-0.0000

> <Gold.Chemscore.Lipo.Weighted>
-12.9861

> <Gold.Chemscore.Internal_Hbond.Weighted>
0.0000

> <Gold.Chemscore.DEClash.Weighted>
0.3356

> <Gold.Chemscore.DEInternal.Weighted>
1.9733

> <Gold.Chemscore.Rot.Weighted>
7.5660

> <Gold.Chemscore.Internal.Correction.Weighted>
   9.000000E+99

> <Gold.Protein.RotatedTorsions>
[ 6907 6896 6895 6894 ] final  -51.23 input  -60.11 | X-H torsion
[ 7974 7965 7964 7962 ] final   -4.61 input  175.53 | X-H torsion
[ 8008 7997 7996 7995 ] final  -88.22 input   59.86 | X-H torsion
[ 10167 10162 10161 10158 ] final    7.90 input  -65.29 | X-H torsion
[ 10718 10713 10712 10709 ] final  134.36 input   66.30 | X-H torsion
[ 10763 10752 10751 10750 ] final  172.94 input  -60.55 | X-H torsion
[ 11005 11000 10999 10996 ] final  108.07 input  -57.11 | X-H torsion

> <Gold.Protein.ActiveResidues>
 VAL166  LYS551  ARG553  GLY616  TRP617  ASP618  TYR619  PRO620  LYS621  CYS622 
 ASP623  PHE694  ASN695  SER759  ASP760  ASP761  ALA762  ILE779  LEU786  VAL792 
 PHE793  MET794  SER795  GLU796  ALA797  LYS798  CYS799  TRP800  GLU811  SER814 

> <Gold.Protein.RotatedAtoms>
  150.8631  134.7988  159.7097 H   0  0  0  0  0  0  0  0  0  0  0  0  # atno 6907 bound_to 6896
  152.4661  134.5068  159.9751 H   0  0  0  0  0  0  0  0  0  0  0  0  # atno 6908 bound_to 6896
  151.5168  133.3436  159.2930 H   0  0  0  0  0  0  0  0  0  0  0  0  # atno 6909 bound_to 6896
  146.2369  140.1898  142.8332 H   0  0  0  0  0  0  0  0  0  0  0  0  # atno 7974 bound_to 7965
  154.6723  140.0556  157.0178 H   0  0  0  0  0  0  0  0  0  0  0  0  # atno 8008 bound_to 7997
  155.1071  140.3234  155.4513 H   0  0  0  0  0  0  0  0  0  0  0  0  # atno 8009 bound_to 7997
  156.2662  140.2021  156.6196 H   0  0  0  0  0  0  0  0  0  0  0  0  # atno 8010 bound_to 7997
  140.6345  143.7917  150.7341 H   0  0  0  0  0  0  0  0  0  0  0  0  # atno 10167 bound_to 10162
  157.4680  131.1078  150.9838 H   0  0  0  0  0  0  0  0  0  0  0  0  # atno 10718 bound_to 10713
  154.4331  135.2760  155.1899 H   0  0  0  0  0  0  0  0  0  0  0  0  # atno 10763 bound_to 10752
  154.3797  135.6090  153.5787 H   0  0  0  0  0  0  0  0  0  0  0  0  # atno 10764 bound_to 10752
  152.9837  135.5877  154.4645 H   0  0  0  0  0  0  0  0  0  0  0  0  # atno 10765 bound_to 10752
  139.8838  134.9419  156.5915 H   0  0  0  0  0  0  0  0  0  0  0  0  # atno 11005 bound_to 11000
  144.9867  140.8510  143.5364 LP  0  0  0  0  0  0  0  0  0  0  0  0  # atno 17320 bound_to 7965
  145.1898  139.2307  143.5248 LP  0  0  0  0  0  0  0  0  0  0  0  0  # atno 17321 bound_to 7965
  140.1535  143.4337  152.2115 LP  0  0  0  0  0  0  0  0  0  0  0  0  # atno 17342 bound_to 10162
  139.5557  144.7371  151.4302 LP  0  0  0  0  0  0  0  0  0  0  0  0  # atno 17343 bound_to 10162
  157.0612  130.5826  149.5386 LP  0  0  0  0  0  0  0  0  0  0  0  0  # atno 17370 bound_to 10713
  156.0060  130.5146  150.7830 LP  0  0  0  0  0  0  0  0  0  0  0  0  # atno 17371 bound_to 10713
  140.7951  133.8550  155.8679 LP  0  0  0  0  0  0  0  0  0  0  0  0  # atno 17394 bound_to 11000
  140.9642  134.1616  157.4629 LP  0  0  0  0  0  0  0  0  0  0  0  0  # atno 17395 bound_to 11000

$$$$
