AV-unprocessed.smi:1999|AV-procd|sdf|8094|dock2
  -GOLD-   2272010313D 1   1.00000     0.00000
 Structure written by MMmdl.
 39 40  0  0  0  0  0  0  0  0  2 V2000
  151.7163  141.0834  156.8866 C   0  0  0  0  0  0  0  0  0  0  0  0
  151.7931  139.8107  156.1146 C   0  0  0  0  0  0  0  0  0  0  0  0
  152.9258  139.3800  155.5462 N   0  0  0  0  0  0  0  0  0  0  0  0
  152.7563  138.1725  154.8835 N   0  0  0  0  0  0  0  0  0  0  0  0
  151.4953  137.7273  154.9713 C   0  0  0  0  0  0  0  0  0  0  0  0
  151.0463  136.5116  154.3906 N   0  0  0  0  0  0  0  0  0  0  0  0
  150.3299  135.5303  154.9657 C   0  0  0  0  0  0  0  0  0  0  0  0
  149.9641  135.5106  156.1411 O   0  0  0  0  0  0  0  0  0  0  0  0
  150.0439  134.5575  154.0871 N   0  0  0  0  0  0  0  0  0  0  0  0
  149.3067  133.3260  154.3752 C   0  0  2  0  0  0  0  0  0  0  0  0
  150.3109  132.1992  154.6538 C   0  0  0  0  0  0  0  0  0  0  0  0
  148.3530  132.9498  153.2168 C   0  0  0  0  0  0  0  0  0  0  0  0
  147.3393  133.9966  152.9300 N   0  3  0  0  0  0  0  0  0  0  0  0
  146.4054  133.6192  151.8439 C   0  0  0  0  0  0  0  0  0  0  0  0
  145.4380  134.7784  151.5482 C   0  0  0  0  0  0  0  0  0  0  0  0
  144.7389  135.1341  152.7349 O   0  0  0  0  0  0  0  0  0  0  0  0
  145.6201  135.5742  153.7616 C   0  0  0  0  0  0  0  0  0  0  0  0
  146.5867  134.4368  154.1299 C   0  0  0  0  0  0  0  0  0  0  0  0
  150.4038  138.7554  155.8837 S   0  0  0  0  0  0  0  0  0  0  0  0
  152.1518  141.8999  156.3103 H   0  0  0  0  0  0  0  0  0  0  0  0
  152.2627  140.9843  157.8246 H   0  0  0  0  0  0  0  0  0  0  0  0
  150.6783  141.3301  157.1106 H   0  0  0  0  0  0  0  0  0  0  0  0
  151.2934  136.3794  153.4209 H   0  0  0  0  0  0  0  0  0  0  0  0
  150.3866  134.6635  153.1430 H   0  0  0  0  0  0  0  0  0  0  0  0
  148.7283  133.4635  155.2896 H   0  0  0  0  0  0  0  0  0  0  0  0
  149.7979  131.2716  154.9094 H   0  0  0  0  0  0  0  0  0  0  0  0
  150.9648  132.4524  155.4893 H   0  0  0  0  0  0  0  0  0  0  0  0
  150.9406  132.0023  153.7857 H   0  0  0  0  0  0  0  0  0  0  0  0
  148.9566  132.7822  152.3233 H   0  0  0  0  0  0  0  0  0  0  0  0
  147.8493  132.0040  153.4221 H   0  0  0  0  0  0  0  0  0  0  0  0
  146.9652  133.3722  150.9411 H   0  0  0  0  0  0  0  0  0  0  0  0
  145.8481  132.7267  152.1328 H   0  0  0  0  0  0  0  0  0  0  0  0
  145.9757  135.6433  151.1562 H   0  0  0  0  0  0  0  0  0  0  0  0
  144.7159  134.4808  150.7878 H   0  0  0  0  0  0  0  0  0  0  0  0
  146.1671  136.4608  153.4360 H   0  0  0  0  0  0  0  0  0  0  0  0
  145.0320  135.8647  154.6322 H   0  0  0  0  0  0  0  0  0  0  0  0
  146.0305  133.5950  154.5455 H   0  0  0  0  0  0  0  0  0  0  0  0
  147.2714  134.7808  154.9045 H   0  0  0  0  0  0  0  0  0  0  0  0
  147.8497  134.8016  152.5948 H   0  0  0  0  0  0  0  0  0  0  0  0
  1  2  1  0  0  0  0
  1 20  1  0  0  0  0
  1 21  1  0  0  0  0
  1 22  1  0  0  0  0
  2 19  1  0  0  0  0
  2  3  2  0  0  0  0
  3  4  1  0  0  0  0
  4  5  2  0  0  0  0
  5  6  1  0  0  0  0
  5 19  1  0  0  0  0
  6  7  1  0  0  0  0
  6 23  1  0  0  0  0
  7  8  2  0  0  0  0
  7  9  1  0  0  0  0
  9 10  1  0  0  0  0
  9 24  1  0  0  0  0
 10 11  1  0  0  0  0
 10 12  1  0  0  0  0
 10 25  1  0  0  0  0
 11 26  1  0  0  0  0
 11 27  1  0  0  0  0
 11 28  1  0  0  0  0
 12 13  1  0  0  0  0
 12 29  1  0  0  0  0
 12 30  1  0  0  0  0
 13 18  1  0  0  0  0
 13 14  1  0  0  0  0
 13 39  1  0  0  0  0
 14 15  1  0  0  0  0
 14 31  1  0  0  0  0
 14 32  1  0  0  0  0
 15 16  1  0  0  0  0
 15 33  1  0  0  0  0
 15 34  1  0  0  0  0
 16 17  1  0  0  0  0
 17 18  1  0  0  0  0
 17 35  1  0  0  0  0
 17 36  1  0  0  0  0
 18 37  1  0  0  0  0
 18 38  1  0  0  0  0
M  CHG  1  13   1
M  END
> <s_m_source_file>
AV-unprocessed.smi

> <i_m_source_file_index>
1999

> <i_lp_mmshare_version>
43012

> <i_f3d_flags>
0

> <s_epik_input>
W0NIM11jMW5uYyhzMSlbTkhdQyg9TylbTkhdW0NASF0oW0NIM10pW0NIMl1OMltDSDJdW0NIMl1PW0NIMl1bQ0gyXTI=

> <s_epik_cmdline>
J2VwaWtfcHl0aG9uJywgJy1waCcsICc3LjAnLCAnLXRuJywgJzgnLCAnLW1hJywgJzIwMCcsICctbWV0YWxfYmluZGluZycsICctaW1hZScsICc8aW5maWxlLm1hZT4nLCAnLW9tYWUnLCAnPG91dGZpbGUubWFlPic=

> <r_lp_tautomer_probability>
1

> <r_epik_Ionization_Penalty>
0.701298

> <r_epik_Ionization_Penalty_Charging>
0.695697

> <r_epik_Ionization_Penalty_Neutral>
0.00560124

> <r_epik_State_Penalty>
0.717972

> <r_epik_Charging_Adjusted_Penalty>
1.41367

> <i_epik_Tot_Q>
1

> <i_epik_Tot_abs_Q>
1

> <r_epik_Metal_State_Penalty>
1.07748

> <b_epik_Metal_Only>
0

> <s_lp_Force_Field>
OPLS_2005

> <r_lp_Energy>
20.3025

> <b_lp_Chiralities_Consistent>
1

> <s_lp_Variant>
AV-unprocessed.smi:1999-3

> <Gold.Version>
5.8.1

> <Gold.Id.Protein>
6NUR|6NUR_protein|mol2

> <Gold.PLP.Fitness>
41.7800

> <Gold.PLP.PLP>
-31.3249

> <Gold.PLP.part.hbond>
-6.1251

> <Gold.PLP.part.metal>
0.0000

> <Gold.PLP.part.buried>
-2.6883

> <Gold.PLP.part.nonpolar>
-23.0457

> <Gold.PLP.part.repulsive>
0.3738

> <Gold.PLP.ligand.clash>
0.0000

> <Gold.PLP.ligand.torsion>
0.7558

> <Gold.PLP.Chemscore.Hbond>
3.9750

> <Gold.PLP.Chemscore.CHOScore>
0.0000

> <Gold.PLP.Chemscore.Metal>
0.0000

> <Gold.Chemscore.Hbonds>
donor molecule, donor type, donor heavy atom, donor atom, acceptor molecule, acceptor atom, score
      L1  H     6    23       P1  7949  1.00
      L1  H    13    39       P1  7948  2.00
      P1  H  7997  8009       L1     3  1.00

> <Gold.PLP.Chemscore.Internal.Correction>
0.0417

> <Gold.Rescore>
     Score         DG    S(hbond)    S(metal)    S(lipo)     H(rot)  DE(clash)    DE(int)     intcor
     13.65     -14.60       2.15        0.00      52.38       1.63       0.09       0.86       ----

> <Gold.Chemscore.Fitness>
13.6457

> <Gold.Chemscore.DG>
-14.6035

> <Gold.Chemscore.ZeroCoef>
-5.4800

> <Gold.Chemscore.Hbond>
2.1474

> <Gold.Chemscore.Metal>
0.0000

> <Gold.Chemscore.Lipo>
52.3809

> <Gold.Chemscore.Internal_Hbond>
0.0000

> <Gold.Chemscore.DEClash>
0.0949

> <Gold.Chemscore.DEInternal>
0.8629

> <Gold.Chemscore.Rot>
1.6317

> <Gold.Chemscore.Internal.Correction>
   9.000000E+99

> <Gold.Chemscore.Hbonds>
donor molecule, donor type, donor heavy atom, donor atom, acceptor molecule, acceptor atom, score
      L1  H     6    23       P1  7949  0.64
      L1  H    13    39       P1  7948  0.85
      P1  H  7997  8009       L1     3  0.88

> <Gold.Chemscore.Hbond.Weighted>
-7.1722

> <Gold.Chemscore.Metal.Weighted>
-0.0000

> <Gold.Chemscore.Lipo.Weighted>
-6.1286

> <Gold.Chemscore.Internal_Hbond.Weighted>
0.0000

> <Gold.Chemscore.DEClash.Weighted>
0.0949

> <Gold.Chemscore.DEInternal.Weighted>
0.8629

> <Gold.Chemscore.Rot.Weighted>
4.1773

> <Gold.Chemscore.Internal.Correction.Weighted>
   9.000000E+99

> <Gold.Protein.RotatedTorsions>
[ 6907 6896 6895 6894 ] final  167.95 input  -60.11 | X-H torsion
[ 7974 7965 7964 7962 ] final  169.78 input  175.53 | X-H torsion
[ 8008 7997 7996 7995 ] final -152.23 input   59.86 | X-H torsion
[ 10167 10162 10161 10158 ] final   50.82 input  -65.29 | X-H torsion
[ 10718 10713 10712 10709 ] final  -66.05 input   66.30 | X-H torsion
[ 10763 10752 10751 10750 ] final  -65.37 input  -60.55 | X-H torsion
[ 11005 11000 10999 10996 ] final   99.46 input  -57.11 | X-H torsion

> <Gold.Protein.ActiveResidues>
 VAL166  LYS551  ARG553  GLY616  TRP617  ASP618  TYR619  PRO620  LYS621  CYS622 
 ASP623  PHE694  ASN695  SER759  ASP760  ASP761  ALA762  ILE779  LEU786  VAL792 
 PHE793  MET794  SER795  GLU796  ALA797  LYS798  CYS799  TRP800  GLU811  SER814 

> <Gold.Protein.RotatedAtoms>
  151.8553  133.3447  159.3685 H   0  0  0  0  0  0  0  0  0  0  0  0  # atno 6907 bound_to 6896
  150.7194  134.5259  159.5686 H   0  0  0  0  0  0  0  0  0  0  0  0  # atno 6908 bound_to 6896
  152.2761  134.7880  160.0456 H   0  0  0  0  0  0  0  0  0  0  0  0  # atno 6909 bound_to 6896
  144.7344  139.9104  143.6414 H   0  0  0  0  0  0  0  0  0  0  0  0  # atno 7974 bound_to 7965
  155.6519  140.0713  157.2584 H   0  0  0  0  0  0  0  0  0  0  0  0  # atno 8008 bound_to 7997
  154.4160  140.1732  156.1734 H   0  0  0  0  0  0  0  0  0  0  0  0  # atno 8009 bound_to 7997
  155.9769  140.3357  155.6630 H   0  0  0  0  0  0  0  0  0  0  0  0  # atno 8010 bound_to 7997
  140.2684  144.3293  150.6297 H   0  0  0  0  0  0  0  0  0  0  0  0  # atno 10167 bound_to 10162
  156.0634  130.4256  150.1653 H   0  0  0  0  0  0  0  0  0  0  0  0  # atno 10718 bound_to 10713
  154.3440  135.6150  153.5610 H   0  0  0  0  0  0  0  0  0  0  0  0  # atno 10763 bound_to 10752
  152.9802  135.5776  154.4820 H   0  0  0  0  0  0  0  0  0  0  0  0  # atno 10764 bound_to 10752
  154.4529  135.2853  155.1745 H   0  0  0  0  0  0  0  0  0  0  0  0  # atno 10765 bound_to 10752
  139.8771  134.9096  156.4609 H   0  0  0  0  0  0  0  0  0  0  0  0  # atno 11005 bound_to 11000
  146.1005  139.4000  143.0350 LP  0  0  0  0  0  0  0  0  0  0  0  0  # atno 17320 bound_to 7965
  145.7585  140.9944  143.1212 LP  0  0  0  0  0  0  0  0  0  0  0  0  # atno 17321 bound_to 7965
  140.5909  143.2168  151.7254 LP  0  0  0  0  0  0  0  0  0  0  0  0  # atno 17342 bound_to 10162
  139.4996  144.3940  152.0250 LP  0  0  0  0  0  0  0  0  0  0  0  0  # atno 17343 bound_to 10162
  156.9717  130.9837  151.3457 LP  0  0  0  0  0  0  0  0  0  0  0  0  # atno 17370 bound_to 10713
  157.5659  130.8277  149.8327 LP  0  0  0  0  0  0  0  0  0  0  0  0  # atno 17371 bound_to 10713
  140.8865  133.7879  155.9524 LP  0  0  0  0  0  0  0  0  0  0  0  0  # atno 17394 bound_to 11000
  140.8799  134.2624  157.5149 LP  0  0  0  0  0  0  0  0  0  0  0  0  # atno 17395 bound_to 11000

$$$$
