AV-unprocessed.smi:283|AV-procd|sdf|2141|dock4
  -GOLD-   2262021473D 1   1.00000     0.00000
 Structure written by MMmdl.
 48 51  0  0  0  0  0  0  0  0  1 V2000
  151.2914  140.2524  155.7209 C   0  0  0  0  0  0  0  0  0  0  0  0
  150.3069  141.1649  156.4643 C   0  0  2  0  0  0  0  0  0  0  0  0
  149.5953  142.0126  155.5091 N   0  0  0  0  0  0  0  0  0  0  0  0
  148.5220  141.5490  154.8306 C   0  0  0  0  0  0  0  0  0  0  0  0
  147.6642  142.3973  154.2052 N   0  0  0  0  0  0  0  0  0  0  0  0
  146.6113  141.9136  153.5400 C   0  0  0  0  0  0  0  0  0  0  0  0
  146.2368  140.6424  153.3829 N   0  0  0  0  0  0  0  0  0  0  0  0
  147.0933  139.7863  154.0134 C   0  0  0  0  0  0  0  0  0  0  0  0
  148.2481  140.1591  154.7551 C   0  0  0  0  0  0  0  0  0  0  0  0
  148.8717  139.0239  155.2571 N   0  0  0  0  0  0  0  0  0  0  0  0
  148.1233  138.0395  154.8356 C   0  0  0  0  0  0  0  0  0  0  0  0
  147.0328  138.4087  154.0802 N   0  0  0  0  0  0  0  0  0  0  0  0
  146.0063  137.5167  153.4551 C   0  0  2  0  0  0  0  0  0  0  0  0
  146.2957  136.2059  153.8055 O   0  0  0  0  0  0  0  0  0  0  0  0
  145.7101  135.3523  152.8379 C   0  0  2  0  0  0  0  0  0  0  0  0
  146.4156  133.9847  152.8457 C   0  0  0  0  0  0  0  0  0  0  0  0
  147.4540  133.9234  151.8892 O   0  0  0  0  0  0  0  0  0  0  0  0
  145.7199  136.1294  151.5067 C   0  0  1  0  0  0  0  0  0  0  0  0
  144.4542  136.0174  150.8854 O   0  0  0  0  0  0  0  0  0  0  0  0
  145.9820  137.5816  151.9139 C   0  0  2  0  0  0  0  0  0  0  0  0
  147.1846  138.0584  151.3386 O   0  0  0  0  0  0  0  0  0  0  0  0
  151.0244  141.9317  157.5778 C   0  0  0  0  0  0  0  0  0  0  0  0
  151.0112  143.3461  157.5770 C   0  0  0  0  0  0  0  0  0  0  0  0
  151.6672  144.0708  158.5898 C   0  0  0  0  0  0  0  0  0  0  0  0
  152.3500  143.3881  159.6123 C   0  0  0  0  0  0  0  0  0  0  0  0
  152.3784  141.9814  159.6172 C   0  0  0  0  0  0  0  0  0  0  0  0
  151.7232  141.2504  158.6060 C   0  0  0  0  0  0  0  0  0  0  0  0
  151.8028  139.5237  158.6574 Cl  0  0  0  0  0  0  0  0  0  0  0  0
  145.0563  137.8123  153.9031 H   0  0  0  0  0  0  0  0  0  0  0  0
  144.6792  135.2080  153.1677 H   0  0  0  0  0  0  0  0  0  0  0  0
  146.4851  135.7677  150.8189 H   0  0  0  0  0  0  0  0  0  0  0  0
  145.1778  138.2533  151.6101 H   0  0  0  0  0  0  0  0  0  0  0  0
  151.7720  139.5542  156.4069 H   0  0  0  0  0  0  0  0  0  0  0  0
  152.0755  140.8299  155.2300 H   0  0  0  0  0  0  0  0  0  0  0  0
  150.7822  139.6636  154.9575 H   0  0  0  0  0  0  0  0  0  0  0  0
  149.5500  140.5212  156.9113 H   0  0  0  0  0  0  0  0  0  0  0  0
  149.8712  142.9839  155.4950 H   0  0  0  0  0  0  0  0  0  0  0  0
  145.9784  142.6498  153.0667 H   0  0  0  0  0  0  0  0  0  0  0  0
  148.3484  137.0084  155.0658 H   0  0  0  0  0  0  0  0  0  0  0  0
  146.8203  133.7686  153.8347 H   0  0  0  0  0  0  0  0  0  0  0  0
  145.6974  133.1975  152.6149 H   0  0  0  0  0  0  0  0  0  0  0  0
  147.9086  134.7519  151.8856 H   0  0  0  0  0  0  0  0  0  0  0  0
  144.2270  136.8575  150.5165 H   0  0  0  0  0  0  0  0  0  0  0  0
  147.9061  137.7654  151.8755 H   0  0  0  0  0  0  0  0  0  0  0  0
  150.4952  143.8858  156.7968 H   0  0  0  0  0  0  0  0  0  0  0  0
  151.6467  145.1508  158.5807 H   0  0  0  0  0  0  0  0  0  0  0  0
  152.8542  143.9419  160.3905 H   0  0  0  0  0  0  0  0  0  0  0  0
  152.9078  141.4605  160.4014 H   0  0  0  0  0  0  0  0  0  0  0  0
  1  2  1  0  0  0  0
  1 33  1  0  0  0  0
  1 34  1  0  0  0  0
  1 35  1  0  0  0  0
  2  3  1  0  0  0  0
  2 22  1  0  0  0  0
  2 36  1  0  0  0  0
  3  4  1  0  0  0  0
  3 37  1  0  0  0  0
  4  9  1  0  0  0  0
  4  5  2  0  0  0  0
  5  6  1  0  0  0  0
  6  7  2  0  0  0  0
  6 38  1  0  0  0  0
  7  8  1  0  0  0  0
  8 12  1  0  0  0  0
  8  9  2  0  0  0  0
  9 10  1  0  0  0  0
 10 11  2  0  0  0  0
 11 12  1  0  0  0  0
 11 39  1  0  0  0  0
 12 13  1  0  0  0  0
 13 29  1  0  0  0  0
 13 20  1  0  0  0  0
 13 14  1  0  0  0  0
 14 15  1  0  0  0  0
 15 30  1  0  0  0  0
 15 16  1  0  0  0  0
 15 18  1  0  0  0  0
 16 17  1  0  0  0  0
 16 40  1  0  0  0  0
 16 41  1  0  0  0  0
 17 42  1  0  0  0  0
 18 31  1  0  0  0  0
 18 19  1  0  0  0  0
 18 20  1  0  0  0  0
 19 43  1  0  0  0  0
 20 32  1  0  0  0  0
 20 21  1  0  0  0  0
 21 44  1  0  0  0  0
 22 27  1  0  0  0  0
 22 23  2  0  0  0  0
 23 24  1  0  0  0  0
 23 45  1  0  0  0  0
 24 25  2  0  0  0  0
 24 46  1  0  0  0  0
 25 26  1  0  0  0  0
 25 47  1  0  0  0  0
 26 27  2  0  0  0  0
 26 48  1  0  0  0  0
 27 28  1  0  0  0  0
M  END
> <s_m_source_file>
AV-unprocessed.smi

> <i_m_source_file_index>
283

> <i_lp_mmshare_version>
43012

> <i_f3d_flags>
0

> <s_epik_input>
Q2xjMVtjSF1bY0hdW2NIXVtjSF1jMVtDQEhdKFtDSDNdKVtOSF1jKG5bY0hdbjIpYyhjMjMpbltjSF1uM1tDQEBIXTRPW0NASF0oW0NIMl1bT0hdKVtDQEBIXShbT0hdKVtDQEhdNFtPSF0=

> <s_epik_cmdline>
J2VwaWtfcHl0aG9uJywgJy1waCcsICc3LjAnLCAnLXRuJywgJzgnLCAnLW1hJywgJzIwMCcsICctbWV0YWxfYmluZGluZycsICctaW1hZScsICc8aW5maWxlLm1hZT4nLCAnLW9tYWUnLCAnPG91dGZpbGUubWFlPic=

> <r_lp_tautomer_probability>
1

> <r_epik_Ionization_Penalty>
0.000266407

> <r_epik_Ionization_Penalty_Charging>
0

> <r_epik_Ionization_Penalty_Neutral>
0.000266407

> <r_epik_State_Penalty>
-0

> <r_epik_Charging_Adjusted_Penalty>
0

> <i_epik_Tot_Q>
0

> <i_epik_Tot_abs_Q>
0

> <r_epik_Metal_State_Penalty>
-0

> <b_epik_Metal_Only>
0

> <s_epik_Chemistry_Notes>
This compound contains an acetal/aminal-like group ( X-CH(R)-Y where X, Y are N, S, or O) that may be acid/base labile, releasing an aldehyde.

> <s_lp_Force_Field>
OPLS_2005

> <r_lp_Energy>
47.2056

> <b_lp_Chiralities_Consistent>
1

> <s_lp_Variant>
AV-unprocessed.smi:283-17

> <Gold.Version>
5.8.1

> <Gold.Id.Protein>
6NUR|6NUR_protein|mol2

> <Gold.PLP.Fitness>
54.7486

> <Gold.PLP.PLP>
-45.5783

> <Gold.PLP.part.hbond>
-6.6101

> <Gold.PLP.part.metal>
0.0000

> <Gold.PLP.part.buried>
-3.6379

> <Gold.PLP.part.nonpolar>
-38.7577

> <Gold.PLP.part.repulsive>
3.7791

> <Gold.PLP.ligand.clash>
0.0000

> <Gold.PLP.ligand.torsion>
0.8596

> <Gold.PLP.Chemscore.Hbond>
3.6113

> <Gold.PLP.Chemscore.CHOScore>
0.0000

> <Gold.PLP.Chemscore.Metal>
0.0000

> <Gold.Chemscore.Hbonds>
donor molecule, donor type, donor heavy atom, donor atom, acceptor molecule, acceptor atom, score
      L1  H     3    37       P1  8028  0.69
      L1  H    17    42       P1  7948  1.00
      L1  H    19    43       P1 10171  1.00
      L1  H    21    44       P1  7948  0.64
      P1  H  7954  7966       L1    21  0.50

> <Gold.PLP.Chemscore.Internal.Correction>
0.0558

> <Gold.Rescore>
     Score         DG    S(hbond)    S(metal)    S(lipo)     H(rot)  DE(clash)    DE(int)     intcor
     12.21     -17.45       3.20        0.00     100.56       4.10       1.75       3.49       ----

> <Gold.Chemscore.Fitness>
12.2121

> <Gold.Chemscore.DG>
-17.4506

> <Gold.Chemscore.ZeroCoef>
-5.4800

> <Gold.Chemscore.Hbond>
3.2013

> <Gold.Chemscore.Metal>
0.0000

> <Gold.Chemscore.Lipo>
100.5649

> <Gold.Chemscore.Internal_Hbond>
0.0000

> <Gold.Chemscore.DEClash>
1.7513

> <Gold.Chemscore.DEInternal>
3.4871

> <Gold.Chemscore.Rot>
4.0968

> <Gold.Chemscore.Internal.Correction>
   9.000000E+99

> <Gold.Chemscore.Hbonds>
donor molecule, donor type, donor heavy atom, donor atom, acceptor molecule, acceptor atom, score
      L1  H     3    37       P1  8028  0.67
      L1  H    17    42       P1  7948  0.30
      L1  H    19    43       P1 10171  1.00
      L1  H    21    44       P1  7948  0.64
      P1  H  7954  7966       L1    21  0.02

> <Gold.Chemscore.Hbond.Weighted>
-10.6924

> <Gold.Chemscore.Metal.Weighted>
-0.0000

> <Gold.Chemscore.Lipo.Weighted>
-11.7661

> <Gold.Chemscore.Internal_Hbond.Weighted>
0.0000

> <Gold.Chemscore.DEClash.Weighted>
1.7513

> <Gold.Chemscore.DEInternal.Weighted>
3.4871

> <Gold.Chemscore.Rot.Weighted>
10.4879

> <Gold.Chemscore.Internal.Correction.Weighted>
   9.000000E+99

> <Gold.Protein.RotatedTorsions>
[ 6907 6896 6895 6894 ] final -163.96 input  -60.11 | X-H torsion
[ 7974 7965 7964 7962 ] final   31.36 input  175.53 | X-H torsion
[ 8008 7997 7996 7995 ] final  150.83 input   59.86 | X-H torsion
[ 10167 10162 10161 10158 ] final   34.85 input  -65.29 | X-H torsion
[ 10718 10713 10712 10709 ] final  146.81 input   66.30 | X-H torsion
[ 10763 10752 10751 10750 ] final -179.96 input  -60.55 | X-H torsion
[ 11005 11000 10999 10996 ] final  -78.37 input  -57.11 | X-H torsion

> <Gold.Protein.ActiveResidues>
 VAL166  LYS551  ARG553  GLY616  TRP617  ASP618  TYR619  PRO620  LYS621  CYS622 
 ASP623  PHE694  ASN695  SER759  ASP760  ASP761  ALA762  ILE779  LEU786  VAL792 
 PHE793  MET794  SER795  GLU796  ALA797  LYS798  CYS799  TRP800  GLU811  SER814 

> <Gold.Protein.RotatedAtoms>
  151.4043  133.3747  159.2735 H   0  0  0  0  0  0  0  0  0  0  0  0  # atno 6907 bound_to 6896
  150.9410  134.8820  159.7623 H   0  0  0  0  0  0  0  0  0  0  0  0  # atno 6908 bound_to 6896
  152.5071  134.3994  159.9463 H   0  0  0  0  0  0  0  0  0  0  0  0  # atno 6909 bound_to 6896
  146.1555  139.6667  142.9069 H   0  0  0  0  0  0  0  0  0  0  0  0  # atno 7974 bound_to 7965
  156.2699  140.2064  156.6080 H   0  0  0  0  0  0  0  0  0  0  0  0  # atno 8008 bound_to 7997
  154.6854  140.0535  157.0333 H   0  0  0  0  0  0  0  0  0  0  0  0  # atno 8009 bound_to 7997
  155.0941  140.3199  155.4568 H   0  0  0  0  0  0  0  0  0  0  0  0  # atno 8010 bound_to 7997
  140.4276  144.1370  150.6155 H   0  0  0  0  0  0  0  0  0  0  0  0  # atno 10167 bound_to 10162
  157.3286  131.0916  151.1181 H   0  0  0  0  0  0  0  0  0  0  0  0  # atno 10718 bound_to 10713
  154.5284  135.2798  155.1202 H   0  0  0  0  0  0  0  0  0  0  0  0  # atno 10763 bound_to 10752
  154.2732  135.6299  153.5322 H   0  0  0  0  0  0  0  0  0  0  0  0  # atno 10764 bound_to 10752
  152.9951  135.5633  154.5791 H   0  0  0  0  0  0  0  0  0  0  0  0  # atno 10765 bound_to 10752
  141.1664  133.7060  156.7962 H   0  0  0  0  0  0  0  0  0  0  0  0  # atno 11005 bound_to 11000
  145.4719  141.0436  143.2694 LP  0  0  0  0  0  0  0  0  0  0  0  0  # atno 17320 bound_to 7965
  144.7958  139.6238  143.7093 LP  0  0  0  0  0  0  0  0  0  0  0  0  # atno 17321 bound_to 7965
  140.4463  143.2505  151.9406 LP  0  0  0  0  0  0  0  0  0  0  0  0  # atno 17342 bound_to 10162
  139.4784  144.5605  151.8246 LP  0  0  0  0  0  0  0  0  0  0  0  0  # atno 17343 bound_to 10162
  157.2438  130.6582  149.5901 LP  0  0  0  0  0  0  0  0  0  0  0  0  # atno 17370 bound_to 10713
  155.9693  130.4560  150.5908 LP  0  0  0  0  0  0  0  0  0  0  0  0  # atno 17371 bound_to 10713
  140.2289  134.8700  157.3456 LP  0  0  0  0  0  0  0  0  0  0  0  0  # atno 17394 bound_to 11000
  140.1911  134.4371  155.7715 LP  0  0  0  0  0  0  0  0  0  0  0  0  # atno 17395 bound_to 11000

$$$$
