AV-unprocessed.smi:1978|AV-procd|sdf|8001|dock6
  -GOLD-   2272010183D 1   1.00000     0.00000
 Structure written by MMmdl.
 44 45  0  0  0  0  0  0  0  0  3 V2000
  151.1387  141.0134  156.7887 C   0  0  0  0  0  0  0  0  0  0  0  0
  151.4180  139.7317  156.0805 C   0  0  0  0  0  0  0  0  0  0  0  0
  150.7962  138.5154  156.0852 C   0  0  0  0  0  0  0  0  0  0  0  0
  151.5875  137.7428  155.1917 C   0  0  0  0  0  0  0  0  0  0  0  0
  151.3696  136.4635  154.8501 N   0  5  0  0  0  0  0  0  0  0  0  0
  150.3692  135.7644  155.4320 C   0  0  0  0  0  0  0  0  0  0  0  0
  150.2926  135.4454  156.6208 O   0  0  0  0  0  0  0  0  0  0  0  0
  149.3897  135.4194  154.5839 N   0  0  0  0  0  0  0  0  0  0  0  0
  148.1753  134.6894  154.9368 C   0  0  0  0  0  0  0  0  0  0  0  0
  146.8771  135.3740  154.4181 C   0  0  1  0  0  0  0  0  0  0  0  0
  147.0209  136.9119  154.5588 C   0  0  0  0  0  0  0  0  0  0  0  0
  146.5486  134.9472  153.0131 N   0  3  1  0  0  0  0  0  0  0  0  0
  146.4318  133.4664  152.8400 C   0  0  0  0  0  0  0  0  0  0  0  0
  146.3414  133.0716  151.3568 C   0  0  0  0  0  0  0  0  0  0  0  0
  145.1756  133.7752  150.6592 C   0  0  0  0  0  0  0  0  0  0  0  0
  145.2905  135.2888  150.8702 C   0  0  0  0  0  0  0  0  0  0  0  0
  145.3994  135.6638  152.3634 C   0  0  1  0  0  0  0  0  0  0  0  0
  144.0560  135.4738  153.1052 C   0  0  0  0  0  0  0  0  0  0  0  0
  152.5903  138.4342  154.6770 N   0  0  0  0  0  0  0  0  0  0  0  0
  152.4924  139.7095  155.2465 O   0  0  0  0  0  0  0  0  0  0  0  0
  150.2435  141.4882  156.3869 H   0  0  0  0  0  0  0  0  0  0  0  0
  151.9693  141.7115  156.6810 H   0  0  0  0  0  0  0  0  0  0  0  0
  150.9809  140.8386  157.8528 H   0  0  0  0  0  0  0  0  0  0  0  0
  149.9181  138.2234  156.6410 H   0  0  0  0  0  0  0  0  0  0  0  0
  149.4957  135.6946  153.6182 H   0  0  0  0  0  0  0  0  0  0  0  0
  148.2555  133.6847  154.5209 H   0  0  0  0  0  0  0  0  0  0  0  0
  148.1903  134.5738  156.0184 H   0  0  0  0  0  0  0  0  0  0  0  0
  146.0475  135.0611  155.0531 H   0  0  0  0  0  0  0  0  0  0  0  0
  147.3032  137.2057  155.5693 H   0  0  0  0  0  0  0  0  0  0  0  0
  146.0909  137.4426  154.3618 H   0  0  0  0  0  0  0  0  0  0  0  0
  147.7831  137.3011  153.8829 H   0  0  0  0  0  0  0  0  0  0  0  0
  147.2947  132.9431  153.2413 H   0  0  0  0  0  0  0  0  0  0  0  0
  145.5687  133.0911  153.3903 H   0  0  0  0  0  0  0  0  0  0  0  0
  147.2756  133.3279  150.8550 H   0  0  0  0  0  0  0  0  0  0  0  0
  146.2300  131.9907  151.2656 H   0  0  0  0  0  0  0  0  0  0  0  0
  145.1795  133.5424  149.5940 H   0  0  0  0  0  0  0  0  0  0  0  0
  144.2274  133.4075  151.0525 H   0  0  0  0  0  0  0  0  0  0  0  0
  146.1735  135.6546  150.3445 H   0  0  0  0  0  0  0  0  0  0  0  0
  144.4383  135.7940  150.4138 H   0  0  0  0  0  0  0  0  0  0  0  0
  145.6185  136.7303  152.3553 H   0  0  0  0  0  0  0  0  0  0  0  0
  143.2650  136.0432  152.6165 H   0  0  0  0  0  0  0  0  0  0  0  0
  144.1025  135.8205  154.1369 H   0  0  0  0  0  0  0  0  0  0  0  0
  143.7348  134.4331  153.1266 H   0  0  0  0  0  0  0  0  0  0  0  0
  147.3572  135.2152  152.4707 H   0  0  0  0  0  0  0  0  0  0  0  0
  1  2  1  0  0  0  0
  1 21  1  0  0  0  0
  1 22  1  0  0  0  0
  1 23  1  0  0  0  0
  2 20  1  0  0  0  0
  2  3  2  0  0  0  0
  3  4  1  0  0  0  0
  3 24  1  0  0  0  0
  4  5  1  0  0  0  0
  4 19  2  0  0  0  0
  5  6  1  0  0  0  0
  6  7  2  0  0  0  0
  6  8  1  0  0  0  0
  8  9  1  0  0  0  0
  8 25  1  0  0  0  0
  9 10  1  0  0  0  0
  9 26  1  0  0  0  0
  9 27  1  0  0  0  0
 10 11  1  0  0  0  0
 10 12  1  0  0  0  0
 10 28  1  0  0  0  0
 11 29  1  0  0  0  0
 11 30  1  0  0  0  0
 11 31  1  0  0  0  0
 12 17  1  0  0  0  0
 12 13  1  0  0  0  0
 12 44  1  0  0  0  0
 13 14  1  0  0  0  0
 13 32  1  0  0  0  0
 13 33  1  0  0  0  0
 14 15  1  0  0  0  0
 14 34  1  0  0  0  0
 14 35  1  0  0  0  0
 15 16  1  0  0  0  0
 15 36  1  0  0  0  0
 15 37  1  0  0  0  0
 16 17  1  0  0  0  0
 16 38  1  0  0  0  0
 16 39  1  0  0  0  0
 17 18  1  0  0  0  0
 17 40  1  0  0  0  0
 18 41  1  0  0  0  0
 18 42  1  0  0  0  0
 18 43  1  0  0  0  0
 19 20  1  0  0  0  0
M  CHG  1   5  -1
M  CHG  1  12   1
M  END
> <s_m_source_file>
AV-unprocessed.smi

> <i_m_source_file_index>
1978

> <i_lp_mmshare_version>
43012

> <i_f3d_flags>
0

> <s_epik_input>
W0NIM11jMVtjSF1jKG5vMSlbTkhdQyg9TylbTkhdW0NIMl1bQ0BIXShbQ0gzXSlOMltDSDJdW0NIMl1bQ0gyXVtDSDJdW0NASF0yW0NIM10=

> <s_epik_cmdline>
J2VwaWtfcHl0aG9uJywgJy1waCcsICc3LjAnLCAnLXRuJywgJzgnLCAnLW1hJywgJzIwMCcsICctbWV0YWxfYmluZGluZycsICctaW1hZScsICc8aW5maWxlLm1hZT4nLCAnLW9tYWUnLCAnPG91dGZpbGUubWFlPic=

> <r_epik_Ionization_Penalty>
6.22372

> <r_epik_Ionization_Penalty_Charging>
6.22362

> <r_epik_Ionization_Penalty_Neutral>
9.65074e-05

> <r_epik_State_Penalty>
6.22363

> <r_epik_Charging_Adjusted_Penalty>
12.4472

> <i_epik_Tot_Q>
0

> <i_epik_Tot_abs_Q>
2

> <r_epik_Metal_State_Penalty>
2.16675

> <b_epik_Metal_Only>
1

> <s_lp_Force_Field>
OPLS_2005

> <r_lp_Energy>
13.574

> <b_lp_Chiralities_Consistent>
1

> <s_lp_Variant>
AV-unprocessed.smi:1978-10

> <Gold.Version>
5.8.1

> <Gold.Id.Protein>
6NUR|6NUR_protein|mol2

> <Gold.PLP.Fitness>
46.5721

> <Gold.PLP.PLP>
-29.4485

> <Gold.PLP.part.hbond>
-4.8891

> <Gold.PLP.part.metal>
0.0000

> <Gold.PLP.part.buried>
-5.0082

> <Gold.PLP.part.nonpolar>
-20.0898

> <Gold.PLP.part.repulsive>
0.2538

> <Gold.PLP.ligand.clash>
0.0000

> <Gold.PLP.ligand.torsion>
0.9761

> <Gold.PLP.Chemscore.Hbond>
6.3124

> <Gold.PLP.Chemscore.CHOScore>
0.0000

> <Gold.PLP.Chemscore.Metal>
0.0000

> <Gold.Chemscore.Hbonds>
donor molecule, donor type, donor heavy atom, donor atom, acceptor molecule, acceptor atom, score
      L1  H     8    25       P1  7948  1.00
      L1  H    12    44       P1  7948  2.00
      P1  H  7989  7998       L1    20  0.32
      P1  H  7997  8009       L1    20  0.78
      P1  H 10752 10765       L1     5  2.00

> <Gold.PLP.Chemscore.Internal.Correction>
0.1389

> <Gold.Rescore>
     Score         DG    S(hbond)    S(metal)    S(lipo)     H(rot)  DE(clash)    DE(int)     intcor
     16.88     -17.97       3.06        0.00      52.55       1.52       0.00       1.09       ----

> <Gold.Chemscore.Fitness>
16.8767

> <Gold.Chemscore.DG>
-17.9695

> <Gold.Chemscore.ZeroCoef>
-5.4800

> <Gold.Chemscore.Hbond>
3.0626

> <Gold.Chemscore.Metal>
0.0000

> <Gold.Chemscore.Lipo>
52.5547

> <Gold.Chemscore.Internal_Hbond>
0.0000

> <Gold.Chemscore.DEClash>
0.0029

> <Gold.Chemscore.DEInternal>
1.0899

> <Gold.Chemscore.Rot>
1.5190

> <Gold.Chemscore.Internal.Correction>
   9.000000E+99

> <Gold.Chemscore.Hbonds>
donor molecule, donor type, donor heavy atom, donor atom, acceptor molecule, acceptor atom, score
      L1  H     8    25       P1  7948  0.30
      L1  H    12    44       P1  7948  0.98
      P1  H  7989  7998       L1    20  0.02
      P1  H  7997  8009       L1    20  0.42
      P1  H 10752 10765       L1     5  0.67

> <Gold.Chemscore.Hbond.Weighted>
-10.2292

> <Gold.Chemscore.Metal.Weighted>
-0.0000

> <Gold.Chemscore.Lipo.Weighted>
-6.1489

> <Gold.Chemscore.Internal_Hbond.Weighted>
0.0000

> <Gold.Chemscore.DEClash.Weighted>
0.0029

> <Gold.Chemscore.DEInternal.Weighted>
1.0899

> <Gold.Chemscore.Rot.Weighted>
3.8886

> <Gold.Chemscore.Internal.Correction.Weighted>
   9.000000E+99

> <Gold.Protein.RotatedTorsions>
[ 6907 6896 6895 6894 ] final   72.05 input  -60.11 | X-H torsion
[ 7974 7965 7964 7962 ] final  -33.73 input  175.53 | X-H torsion
[ 8008 7997 7996 7995 ] final -134.42 input   59.86 | X-H torsion
[ 10167 10162 10161 10158 ] final -178.14 input  -65.29 | X-H torsion
[ 10718 10713 10712 10709 ] final -137.90 input   66.30 | X-H torsion
[ 10763 10752 10751 10750 ] final -170.23 input  -60.55 | X-H torsion
[ 11005 11000 10999 10996 ] final  130.47 input  -57.11 | X-H torsion

> <Gold.Protein.ActiveResidues>
 VAL166  LYS551  ARG553  GLY616  TRP617  ASP618  TYR619  PRO620  LYS621  CYS622 
 ASP623  PHE694  ASN695  SER759  ASP760  ASP761  ALA762  ILE779  LEU786  VAL792 
 PHE793  MET794  SER795  GLU796  ALA797  LYS798  CYS799  TRP800  GLU811  SER814 

> <Gold.Protein.RotatedAtoms>
  152.4845  134.4629  159.9610 H   0  0  0  0  0  0  0  0  0  0  0  0  # atno 6907 bound_to 6896
  151.4628  133.3582  159.2819 H   0  0  0  0  0  0  0  0  0  0  0  0  # atno 6908 bound_to 6896
  150.8945  134.8377  159.7377 H   0  0  0  0  0  0  0  0  0  0  0  0  # atno 6909 bound_to 6896
  146.0887  140.5952  142.8874 H   0  0  0  0  0  0  0  0  0  0  0  0  # atno 7974 bound_to 7965
  155.3617  140.0483  157.3046 H   0  0  0  0  0  0  0  0  0  0  0  0  # atno 8008 bound_to 7997
  154.5174  140.2213  155.9003 H   0  0  0  0  0  0  0  0  0  0  0  0  # atno 8009 bound_to 7997
  156.1652  140.3108  155.8882 H   0  0  0  0  0  0  0  0  0  0  0  0  # atno 8010 bound_to 7997
  139.5446  144.2269  152.0964 H   0  0  0  0  0  0  0  0  0  0  0  0  # atno 10167 bound_to 10162
  156.2933  130.7387  151.1419 H   0  0  0  0  0  0  0  0  0  0  0  0  # atno 10718 bound_to 10713
  154.6438  135.2902  155.0071 H   0  0  0  0  0  0  0  0  0  0  0  0  # atno 10763 bound_to 10752
  154.1188  135.6551  153.4903 H   0  0  0  0  0  0  0  0  0  0  0  0  # atno 10764 bound_to 10752
  153.0340  135.5283  154.7316 H   0  0  0  0  0  0  0  0  0  0  0  0  # atno 10765 bound_to 10752
  139.9674  134.9587  156.9298 H   0  0  0  0  0  0  0  0  0  0  0  0  # atno 11005 bound_to 11000
  144.7344  140.4766  143.6914 LP  0  0  0  0  0  0  0  0  0  0  0  0  # atno 17320 bound_to 7965
  145.6081  139.1510  143.3091 LP  0  0  0  0  0  0  0  0  0  0  0  0  # atno 17321 bound_to 7965
  140.1753  144.4896  150.6557 LP  0  0  0  0  0  0  0  0  0  0  0  0  # atno 17342 bound_to 10162
  140.6690  143.2278  151.5672 LP  0  0  0  0  0  0  0  0  0  0  0  0  # atno 17343 bound_to 10162
  157.7348  131.0578  150.5503 LP  0  0  0  0  0  0  0  0  0  0  0  0  # atno 17370 bound_to 10713
  156.5622  130.4258  149.6058 LP  0  0  0  0  0  0  0  0  0  0  0  0  # atno 17371 bound_to 10713
  140.5367  134.0760  155.7330 LP  0  0  0  0  0  0  0  0  0  0  0  0  # atno 17394 bound_to 11000
  141.1353  133.9231  157.2446 LP  0  0  0  0  0  0  0  0  0  0  0  0  # atno 17395 bound_to 11000

$$$$
