AV-unprocessed.smi:3241|AV-procd|sdf|12392|dock9
  -GOLD-   2272018263D 1   1.00000     0.00000
 Structure written by MMmdl.
 43 44  0  0  0  0  0  0  0  0  1 V2000
  147.4156  141.8136  154.5475 C   0  0  0  0  0  0  0  0  0  0  0  0
  148.7398  141.0345  154.4909 C   0  0  1  0  0  0  0  0  0  0  0  0
  149.7568  141.6226  155.4898 C   0  0  0  0  0  0  0  0  0  0  0  0
  151.0907  140.8624  155.4598 C   0  0  0  0  0  0  0  0  0  0  0  0
  150.8756  139.3672  155.7285 C   0  0  0  0  0  0  0  0  0  0  0  0
  149.8758  138.7668  154.7294 C   0  0  0  0  0  0  0  0  0  0  0  0
  148.5292  139.5235  154.7445 C   0  0  2  0  0  0  0  0  0  0  0  0
  147.6826  139.0296  153.7130 O   0  0  0  0  0  0  0  0  0  0  0  0
  147.1306  137.7435  153.9548 C   0  0  0  0  0  0  0  0  0  0  0  0
  146.0371  137.4774  152.9152 C   0  0  0  0  0  0  0  0  0  0  0  0
  146.6039  137.3917  151.5738 N   0  0  0  0  0  0  0  0  0  0  0  0
  145.9833  136.3698  150.7367 C   0  0  0  0  0  0  0  0  0  0  0  0
  146.3609  134.9529  151.1991 C   0  0  0  0  0  0  0  0  0  0  0  0
  145.7176  133.9240  150.4013 N   0  0  0  0  0  0  0  0  0  0  0  0
  146.3087  132.9769  149.5915 C   0  0  0  0  0  0  0  0  0  0  0  0
  145.3075  132.2227  149.0501 C   0  0  0  0  0  0  0  0  0  0  0  0
  144.1229  132.7916  149.5967 C   0  0  0  0  0  0  0  0  0  0  0  0
  144.3712  133.8124  150.4012 N   0  0  0  0  0  0  0  0  0  0  0  0
  146.9419  141.7200  155.5252 H   0  0  0  0  0  0  0  0  0  0  0  0
  146.7092  141.4525  153.7996 H   0  0  0  0  0  0  0  0  0  0  0  0
  147.5771  142.8747  154.3563 H   0  0  0  0  0  0  0  0  0  0  0  0
  149.1514  141.1541  153.4873 H   0  0  0  0  0  0  0  0  0  0  0  0
  149.9340  142.6749  155.2650 H   0  0  0  0  0  0  0  0  0  0  0  0
  149.3439  141.5889  156.4991 H   0  0  0  0  0  0  0  0  0  0  0  0
  151.5679  140.9957  154.4881 H   0  0  0  0  0  0  0  0  0  0  0  0
  151.7739  141.2790  156.2005 H   0  0  0  0  0  0  0  0  0  0  0  0
  151.8267  138.8378  155.6670 H   0  0  0  0  0  0  0  0  0  0  0  0
  150.5073  139.2260  156.7455 H   0  0  0  0  0  0  0  0  0  0  0  0
  150.3014  138.7999  153.7256 H   0  0  0  0  0  0  0  0  0  0  0  0
  149.7306  137.7137  154.9672 H   0  0  0  0  0  0  0  0  0  0  0  0
  148.0471  139.3974  155.7159 H   0  0  0  0  0  0  0  0  0  0  0  0
  147.8883  136.9609  153.9150 H   0  0  0  0  0  0  0  0  0  0  0  0
  146.6921  137.7220  154.9531 H   0  0  0  0  0  0  0  0  0  0  0  0
  145.5392  136.5385  153.1595 H   0  0  0  0  0  0  0  0  0  0  0  0
  145.2768  138.2580  152.9625 H   0  0  0  0  0  0  0  0  0  0  0  0
  147.6052  137.2352  151.6288 H   0  0  0  0  0  0  0  0  0  0  0  0
  144.8987  136.4771  150.7743 H   0  0  0  0  0  0  0  0  0  0  0  0
  146.2726  136.5079  149.6942 H   0  0  0  0  0  0  0  0  0  0  0  0
  147.4427  134.8104  151.1730 H   0  0  0  0  0  0  0  0  0  0  0  0
  146.0544  134.8123  152.2361 H   0  0  0  0  0  0  0  0  0  0  0  0
  147.3804  132.9188  149.4711 H   0  0  0  0  0  0  0  0  0  0  0  0
  145.4062  131.3902  148.3693 H   0  0  0  0  0  0  0  0  0  0  0  0
  143.0971  132.4967  149.4314 H   0  0  0  0  0  0  0  0  0  0  0  0
  1  2  1  0  0  0  0
  1 19  1  0  0  0  0
  1 20  1  0  0  0  0
  1 21  1  0  0  0  0
  2  7  1  0  0  0  0
  2  3  1  0  0  0  0
  2 22  1  0  0  0  0
  3  4  1  0  0  0  0
  3 23  1  0  0  0  0
  3 24  1  0  0  0  0
  4  5  1  0  0  0  0
  4 25  1  0  0  0  0
  4 26  1  0  0  0  0
  5  6  1  0  0  0  0
  5 27  1  0  0  0  0
  5 28  1  0  0  0  0
  6  7  1  0  0  0  0
  6 29  1  0  0  0  0
  6 30  1  0  0  0  0
  7  8  1  0  0  0  0
  7 31  1  0  0  0  0
  8  9  1  0  0  0  0
  9 10  1  0  0  0  0
  9 32  1  0  0  0  0
  9 33  1  0  0  0  0
 10 11  1  0  0  0  0
 10 34  1  0  0  0  0
 10 35  1  0  0  0  0
 11 12  1  0  0  0  0
 11 36  1  0  0  0  0
 12 13  1  0  0  0  0
 12 37  1  0  0  0  0
 12 38  1  0  0  0  0
 13 14  1  0  0  0  0
 13 39  1  0  0  0  0
 13 40  1  0  0  0  0
 14 18  1  0  0  0  0
 14 15  1  0  0  0  0
 15 16  2  0  0  0  0
 15 41  1  0  0  0  0
 16 17  1  0  0  0  0
 16 42  1  0  0  0  0
 17 18  2  0  0  0  0
 17 43  1  0  0  0  0
M  END
> <s_m_source_file>
AV-unprocessed.smi

> <i_m_source_file_index>
3241

> <i_lp_mmshare_version>
43012

> <i_f3d_flags>
0

> <s_epik_input>
W0NIM11bQ0BASF0xW0NIMl1bQ0gyXVtDSDJdW0NIMl1bQ0BIXTFPW0NIMl1bQ0gyXVtOSF1bQ0gyXVtDSDJdbjJbY0hdW2NIXVtjSF1uMg==

> <s_epik_cmdline>
J2VwaWtfcHl0aG9uJywgJy1waCcsICc3LjAnLCAnLXRuJywgJzgnLCAnLW1hJywgJzIwMCcsICctbWV0YWxfYmluZGluZycsICctaW1hZScsICc8aW5maWxlLm1hZT4nLCAnLW9tYWUnLCAnPG91dGZpbGUubWFlPic=

> <r_lp_tautomer_probability>
1

> <r_epik_Ionization_Penalty>
2.47055

> <r_epik_Ionization_Penalty_Charging>
0

> <r_epik_Ionization_Penalty_Neutral>
2.47055

> <r_epik_State_Penalty>
2.6322

> <r_epik_Charging_Adjusted_Penalty>
2.6322

> <i_epik_Tot_Q>
0

> <i_epik_Tot_abs_Q>
0

> <r_epik_Metal_State_Penalty>
2.63108

> <b_epik_Metal_Only>
0

> <s_lp_Force_Field>
OPLS_2005

> <r_lp_Energy>
16.4595

> <b_lp_Chiralities_Consistent>
1

> <s_lp_Variant>
AV-unprocessed.smi:3241-8

> <Gold.Version>
5.8.1

> <Gold.Id.Protein>
6NUR|6NUR_protein|mol2

> <Gold.PLP.Fitness>
41.1335

> <Gold.PLP.PLP>
-32.2269

> <Gold.PLP.part.hbond>
-1.0000

> <Gold.PLP.part.metal>
0.0000

> <Gold.PLP.part.buried>
-3.4739

> <Gold.PLP.part.nonpolar>
-29.7942

> <Gold.PLP.part.repulsive>
0.3797

> <Gold.PLP.ligand.clash>
0.0000

> <Gold.PLP.ligand.torsion>
0.4430

> <Gold.PLP.Chemscore.Hbond>
1.0000

> <Gold.PLP.Chemscore.CHOScore>
2.2508

> <Gold.PLP.Chemscore.Metal>
0.0000

> <Gold.Chemscore.Hbonds>
donor molecule, donor type, donor heavy atom, donor atom, acceptor molecule, acceptor atom, score
      L1  H    11    36       P1  7948  1.00
      L1  C    15    41       P1 10747  0.54
      L1  C    17    43       P1 10186  0.19

> <Gold.PLP.Chemscore.Internal.Correction>
0.0402

> <Gold.Rescore>
     Score         DG    S(hbond)    S(metal)    S(lipo)     H(rot)  DE(clash)    DE(int)     intcor
     14.19     -15.30       1.00        0.00      94.57       1.79       0.29       0.82       ----

> <Gold.Chemscore.Fitness>
14.1900

> <Gold.Chemscore.DG>
-15.2966

> <Gold.Chemscore.ZeroCoef>
-5.4800

> <Gold.Chemscore.Hbond>
0.9984

> <Gold.Chemscore.Metal>
0.0000

> <Gold.Chemscore.Lipo>
94.5698

> <Gold.Chemscore.Internal_Hbond>
0.0000

> <Gold.Chemscore.DEClash>
0.2865

> <Gold.Chemscore.DEInternal>
0.8202

> <Gold.Chemscore.Rot>
1.7901

> <Gold.Chemscore.Internal.Correction>
   9.000000E+99

> <Gold.Chemscore.Hbonds>
donor molecule, donor type, donor heavy atom, donor atom, acceptor molecule, acceptor atom, score
      L1  H    11    36       P1  7948  0.97

> <Gold.Chemscore.Hbond.Weighted>
-3.3347

> <Gold.Chemscore.Metal.Weighted>
-0.0000

> <Gold.Chemscore.Lipo.Weighted>
-11.0647

> <Gold.Chemscore.Internal_Hbond.Weighted>
0.0000

> <Gold.Chemscore.DEClash.Weighted>
0.2865

> <Gold.Chemscore.DEInternal.Weighted>
0.8202

> <Gold.Chemscore.Rot.Weighted>
4.5827

> <Gold.Chemscore.Internal.Correction.Weighted>
   9.000000E+99

> <Gold.Protein.RotatedTorsions>
[ 6907 6896 6895 6894 ] final  163.41 input  -60.11 | X-H torsion
[ 7974 7965 7964 7962 ] final -174.64 input  175.53 | X-H torsion
[ 8008 7997 7996 7995 ] final -134.24 input   59.86 | X-H torsion
[ 10167 10162 10161 10158 ] final   99.58 input  -65.29 | X-H torsion
[ 10718 10713 10712 10709 ] final  123.65 input   66.30 | X-H torsion
[ 10763 10752 10751 10750 ] final  -41.61 input  -60.55 | X-H torsion
[ 11005 11000 10999 10996 ] final  -61.09 input  -57.11 | X-H torsion

> <Gold.Protein.ActiveResidues>
 VAL166  LYS551  ARG553  GLY616  TRP617  ASP618  TYR619  PRO620  LYS621  CYS622 
 ASP623  PHE694  ASN695  SER759  ASP760  ASP761  ALA762  ILE779  LEU786  VAL792 
 PHE793  MET794  SER795  GLU796  ALA797  LYS798  CYS799  TRP800  GLU811  SER814 

> <Gold.Protein.RotatedAtoms>
  151.9257  133.3597  159.3912 H   0  0  0  0  0  0  0  0  0  0  0  0  # atno 6907 bound_to 6896
  150.7027  134.4589  159.5381 H   0  0  0  0  0  0  0  0  0  0  0  0  # atno 6908 bound_to 6896
  152.2221  134.8403  160.0535 H   0  0  0  0  0  0  0  0  0  0  0  0  # atno 6909 bound_to 6896
  144.7131  140.1441  143.6389 H   0  0  0  0  0  0  0  0  0  0  0  0  # atno 7974 bound_to 7965
  155.3588  140.0481  157.3046 H   0  0  0  0  0  0  0  0  0  0  0  0  # atno 8008 bound_to 7997
  154.5189  140.2218  155.8977 H   0  0  0  0  0  0  0  0  0  0  0  0  # atno 8009 bound_to 7997
  156.1667  140.3105  155.8907 H   0  0  0  0  0  0  0  0  0  0  0  0  # atno 8010 bound_to 7997
  139.7605  144.6956  151.0300 H   0  0  0  0  0  0  0  0  0  0  0  0  # atno 10167 bound_to 10162
  157.5648  131.1087  150.8474 H   0  0  0  0  0  0  0  0  0  0  0  0  # atno 10718 bound_to 10713
  153.9653  135.6735  153.4746 H   0  0  0  0  0  0  0  0  0  0  0  0  # atno 10763 bound_to 10752
  153.0818  135.4919  154.8516 H   0  0  0  0  0  0  0  0  0  0  0  0  # atno 10764 bound_to 10752
  154.7250  135.3125  154.8947 H   0  0  0  0  0  0  0  0  0  0  0  0  # atno 10765 bound_to 10752
  141.1312  133.6627  156.5323 H   0  0  0  0  0  0  0  0  0  0  0  0  # atno 11005 bound_to 11000
  145.9176  139.2525  143.1401 LP  0  0  0  0  0  0  0  0  0  0  0  0  # atno 17320 bound_to 7965
  145.9653  140.8803  143.0190 LP  0  0  0  0  0  0  0  0  0  0  0  0  # atno 17321 bound_to 7965
  140.7806  143.4703  151.0156 LP  0  0  0  0  0  0  0  0  0  0  0  0  # atno 17342 bound_to 10162
  139.8389  143.7590  152.3180 LP  0  0  0  0  0  0  0  0  0  0  0  0  # atno 17343 bound_to 10162
  156.8962  130.5230  149.5284 LP  0  0  0  0  0  0  0  0  0  0  0  0  # atno 17370 bound_to 10713
  156.0697  130.5732  150.9359 LP  0  0  0  0  0  0  0  0  0  0  0  0  # atno 17371 bound_to 10713
  140.4206  134.7191  157.4887 LP  0  0  0  0  0  0  0  0  0  0  0  0  # atno 17394 bound_to 11000
  140.0363  134.6333  155.9040 LP  0  0  0  0  0  0  0  0  0  0  0  0  # atno 17395 bound_to 11000

$$$$
