AV-unprocessed.smi:164|AV-procd|sdf|1385|dock9
  -GOLD-   2262019113D 1   1.00000     0.00000
 Structure written by MMmdl.
 53 55  0  0  0  0  0  0  0  0  1 V2000
  154.7716  140.5309  162.8519 C   0  0  0  0  0  0  0  0  0  0  0  0
  153.9409  141.6273  162.2073 C   0  0  0  0  0  0  0  0  0  0  0  0
  153.5341  142.7264  162.9913 C   0  0  0  0  0  0  0  0  0  0  0  0
  152.7598  143.7556  162.4275 C   0  0  0  0  0  0  0  0  0  0  0  0
  152.3929  143.7026  161.0689 C   0  0  0  0  0  0  0  0  0  0  0  0
  151.5530  144.8181  160.4744 C   0  0  0  0  0  0  0  0  0  0  0  0
  152.8113  142.6138  160.2701 C   0  0  0  0  0  0  0  0  0  0  0  0
  152.4582  142.5778  158.9463 O   0  0  0  0  0  0  0  0  0  0  0  0
  151.3702  141.7046  158.6726 C   0  0  0  0  0  0  0  0  0  0  0  0
  150.5914  142.2028  157.4452 C   0  0  1  0  0  0  0  0  0  0  0  0
  150.5419  143.6135  157.5150 O   0  0  0  0  0  0  0  0  0  0  0  0
  151.2198  141.7467  156.1096 C   0  0  0  0  0  0  0  0  0  0  0  0
  150.6043  140.5470  155.5675 N   0  0  0  0  0  0  0  0  0  0  0  0
  151.3815  139.3641  155.5255 C   0  0  0  0  0  0  0  0  0  0  0  0
  152.5432  139.3269  155.9343 O   0  0  0  0  0  0  0  0  0  0  0  0
  150.6975  138.2112  154.9502 C   0  0  0  0  0  0  0  0  0  0  0  0
  151.3336  137.0296  154.8792 F   0  0  0  0  0  0  0  0  0  0  0  0
  149.4332  138.3091  154.4848 C   0  0  0  0  0  0  0  0  0  0  0  0
  148.7069  139.4889  154.5125 N   0  0  0  0  0  0  0  0  0  0  0  0
  147.2931  139.5770  153.9760 C   0  0  1  0  0  0  0  0  0  0  0  0
  147.2251  140.5454  152.7793 C   0  0  0  0  0  0  0  0  0  0  0  0
  146.5396  139.7146  151.7125 C   0  0  0  0  0  0  0  0  0  0  0  0
  146.9629  138.3032  152.0905 C   0  0  0  0  0  0  0  0  0  0  0  0
  146.8818  138.3233  153.5097 O   0  0  0  0  0  0  0  0  0  0  0  0
  149.2844  140.6513  155.0685 C   0  0  0  0  0  0  0  0  0  0  0  0
  148.6580  141.7137  155.0998 O   0  0  0  0  0  0  0  0  0  0  0  0
  153.5702  141.5611  160.8410 C   0  0  0  0  0  0  0  0  0  0  0  0
  153.9854  140.3677  159.9905 C   0  0  0  0  0  0  0  0  0  0  0  0
  155.0856  140.8103  163.8579 H   0  0  0  0  0  0  0  0  0  0  0  0
  155.6702  140.3329  162.2670 H   0  0  0  0  0  0  0  0  0  0  0  0
  154.1933  139.6095  162.9244 H   0  0  0  0  0  0  0  0  0  0  0  0
  153.8104  142.7834  164.0341 H   0  0  0  0  0  0  0  0  0  0  0  0
  152.4498  144.5871  163.0435 H   0  0  0  0  0  0  0  0  0  0  0  0
  150.7607  144.4115  159.8450 H   0  0  0  0  0  0  0  0  0  0  0  0
  152.1730  145.4762  159.8656 H   0  0  0  0  0  0  0  0  0  0  0  0
  151.0848  145.4188  161.2548 H   0  0  0  0  0  0  0  0  0  0  0  0
  151.7631  140.7091  158.4615 H   0  0  0  0  0  0  0  0  0  0  0  0
  150.7111  141.6049  159.5368 H   0  0  0  0  0  0  0  0  0  0  0  0
  149.5677  141.8351  157.5274 H   0  0  0  0  0  0  0  0  0  0  0  0
  149.6795  143.8974  157.2525 H   0  0  0  0  0  0  0  0  0  0  0  0
  151.2015  142.5287  155.3485 H   0  0  0  0  0  0  0  0  0  0  0  0
  152.2807  141.5201  156.2324 H   0  0  0  0  0  0  0  0  0  0  0  0
  148.9894  137.4147  154.0755 H   0  0  0  0  0  0  0  0  0  0  0  0
  146.6740  139.8704  154.8257 H   0  0  0  0  0  0  0  0  0  0  0  0
  146.6742  141.4499  153.0390 H   0  0  0  0  0  0  0  0  0  0  0  0
  148.2306  140.8222  152.4579 H   0  0  0  0  0  0  0  0  0  0  0  0
  145.4567  139.8146  151.7966 H   0  0  0  0  0  0  0  0  0  0  0  0
  146.8333  139.9918  150.6997 H   0  0  0  0  0  0  0  0  0  0  0  0
  146.3158  137.5380  151.6615 H   0  0  0  0  0  0  0  0  0  0  0  0
  147.9878  138.1071  151.7725 H   0  0  0  0  0  0  0  0  0  0  0  0
  153.4275  140.3120  159.0561 H   0  0  0  0  0  0  0  0  0  0  0  0
  153.8100  139.4318  160.5206 H   0  0  0  0  0  0  0  0  0  0  0  0
  155.0458  140.4318  159.7466 H   0  0  0  0  0  0  0  0  0  0  0  0
  1  2  1  0  0  0  0
  1 29  1  0  0  0  0
  1 30  1  0  0  0  0
  1 31  1  0  0  0  0
  2 27  1  0  0  0  0
  2  3  2  0  0  0  0
  3  4  1  0  0  0  0
  3 32  1  0  0  0  0
  4  5  2  0  0  0  0
  4 33  1  0  0  0  0
  5  6  1  0  0  0  0
  5  7  1  0  0  0  0
  6 34  1  0  0  0  0
  6 35  1  0  0  0  0
  6 36  1  0  0  0  0
  7  8  1  0  0  0  0
  7 27  2  0  0  0  0
  8  9  1  0  0  0  0
  9 10  1  0  0  0  0
  9 37  1  0  0  0  0
  9 38  1  0  0  0  0
 10 11  1  0  0  0  0
 10 12  1  0  0  0  0
 10 39  1  0  0  0  0
 11 40  1  0  0  0  0
 12 13  1  0  0  0  0
 12 41  1  0  0  0  0
 12 42  1  0  0  0  0
 13 25  1  0  0  0  0
 13 14  1  0  0  0  0
 14 15  2  0  0  0  0
 14 16  1  0  0  0  0
 16 17  1  0  0  0  0
 16 18  2  0  0  0  0
 18 19  1  0  0  0  0
 18 43  1  0  0  0  0
 19 20  1  0  0  0  0
 19 25  1  0  0  0  0
 20 24  1  0  0  0  0
 20 21  1  0  0  0  0
 20 44  1  0  0  0  0
 21 22  1  0  0  0  0
 21 45  1  0  0  0  0
 21 46  1  0  0  0  0
 22 23  1  0  0  0  0
 22 47  1  0  0  0  0
 22 48  1  0  0  0  0
 23 24  1  0  0  0  0
 23 49  1  0  0  0  0
 23 50  1  0  0  0  0
 25 26  2  0  0  0  0
 27 28  1  0  0  0  0
 28 51  1  0  0  0  0
 28 52  1  0  0  0  0
 28 53  1  0  0  0  0
M  END
> <s_m_source_file>
AV-unprocessed.smi

> <i_m_source_file_index>
164

> <i_lp_mmshare_version>
43012

> <i_f3d_flags>
0

> <s_epik_input>
W0NIM11jMVtjSF1bY0hdYyhbQ0gzXSljKGMxW0NIM10pT1tDSDJdW0NASF0oW09IXSlbQ0gyXW4yYyg9TyljKEYpW2NIXW4oYzI9TylbQ0BASF0zW0NIMl1bQ0gyXVtDSDJdTzM=

> <s_epik_cmdline>
J2VwaWtfcHl0aG9uJywgJy1waCcsICc3LjAnLCAnLXRuJywgJzgnLCAnLW1hJywgJzIwMCcsICctbWV0YWxfYmluZGluZycsICctaW1hZScsICc8aW5maWxlLm1hZT4nLCAnLW9tYWUnLCAnPG91dGZpbGUubWFlPic=

> <r_lp_tautomer_probability>
1

> <r_epik_Ionization_Penalty>
1.45842e-07

> <r_epik_Ionization_Penalty_Charging>
2.86622e-08

> <r_epik_Ionization_Penalty_Neutral>
1.1718e-07

> <r_epik_State_Penalty>
-0

> <r_epik_Charging_Adjusted_Penalty>
2.86622e-08

> <i_epik_Tot_Q>
0

> <i_epik_Tot_abs_Q>
0

> <r_epik_Metal_State_Penalty>
-0

> <b_epik_Metal_Only>
0

> <s_epik_Chemistry_Notes>
This compound contains an acetal/aminal-like group ( X-CH(R)-Y where X, Y are N, S, or O) that may be acid/base labile, releasing an aldehyde.

> <s_lp_Force_Field>
OPLS_2005

> <r_lp_Energy>
46.8287

> <b_lp_Chiralities_Consistent>
1

> <s_lp_Variant>
AV-unprocessed.smi:164-4

> <Gold.Version>
5.8.1

> <Gold.Id.Protein>
6NUR|6NUR_protein|mol2

> <Gold.PLP.Fitness>
64.2999

> <Gold.PLP.PLP>
-58.8604

> <Gold.PLP.part.hbond>
-2.0000

> <Gold.PLP.part.metal>
0.0000

> <Gold.PLP.part.buried>
1.7376

> <Gold.PLP.part.nonpolar>
-59.0028

> <Gold.PLP.part.repulsive>
1.2223

> <Gold.PLP.ligand.clash>
0.0000

> <Gold.PLP.ligand.torsion>
1.2388

> <Gold.PLP.Chemscore.Hbond>
1.6080

> <Gold.PLP.Chemscore.CHOScore>
1.0000

> <Gold.PLP.Chemscore.Metal>
0.0000

> <Gold.Chemscore.Hbonds>
donor molecule, donor type, donor heavy atom, donor atom, acceptor molecule, acceptor atom, score
      L1  H    11    40       P1  8028  0.74
      P1  H  7997  8008       L1    15  1.00
      L1  C    18    43       P1  7948  1.00

> <Gold.PLP.Chemscore.Internal.Correction>
0.0931

> <Gold.Rescore>
     Score         DG    S(hbond)    S(metal)    S(lipo)     H(rot)  DE(clash)    DE(int)     intcor
     13.29     -21.05       1.28        0.00     156.29       2.73       4.62       3.15       ----

> <Gold.Chemscore.Fitness>
13.2870

> <Gold.Chemscore.DG>
-21.0547

> <Gold.Chemscore.ZeroCoef>
-5.4800

> <Gold.Chemscore.Hbond>
1.2820

> <Gold.Chemscore.Metal>
0.0000

> <Gold.Chemscore.Lipo>
156.2865

> <Gold.Chemscore.Internal_Hbond>
0.0000

> <Gold.Chemscore.DEClash>
4.6187

> <Gold.Chemscore.DEInternal>
3.1491

> <Gold.Chemscore.Rot>
2.7315

> <Gold.Chemscore.Internal.Correction>
   9.000000E+99

> <Gold.Chemscore.Hbonds>
donor molecule, donor type, donor heavy atom, donor atom, acceptor molecule, acceptor atom, score
      L1  H    11    40       P1  8028  0.50
      P1  H  7997  8008       L1    15  0.95

> <Gold.Chemscore.Hbond.Weighted>
-4.2818

> <Gold.Chemscore.Metal.Weighted>
-0.0000

> <Gold.Chemscore.Lipo.Weighted>
-18.2855

> <Gold.Chemscore.Internal_Hbond.Weighted>
0.0000

> <Gold.Chemscore.DEClash.Weighted>
4.6187

> <Gold.Chemscore.DEInternal.Weighted>
3.1491

> <Gold.Chemscore.Rot.Weighted>
6.9925

> <Gold.Chemscore.Internal.Correction.Weighted>
   9.000000E+99

> <Gold.Protein.RotatedTorsions>
[ 6907 6896 6895 6894 ] final -164.98 input  -60.11 | X-H torsion
[ 7974 7965 7964 7962 ] final   30.61 input  175.53 | X-H torsion
[ 8008 7997 7996 7995 ] final  -28.76 input   59.86 | X-H torsion
[ 10167 10162 10161 10158 ] final   76.68 input  -65.29 | X-H torsion
[ 10718 10713 10712 10709 ] final  -48.31 input   66.30 | X-H torsion
[ 10763 10752 10751 10750 ] final  -62.82 input  -60.55 | X-H torsion
[ 11005 11000 10999 10996 ] final    9.26 input  -57.11 | X-H torsion

> <Gold.Protein.ActiveResidues>
 VAL166  LYS551  ARG553  GLY616  TRP617  ASP618  TYR619  PRO620  LYS621  CYS622 
 ASP623  PHE694  ASN695  SER759  ASP760  ASP761  ALA762  ILE779  LEU786  VAL792 
 PHE793  MET794  SER795  GLU796  ALA797  LYS798  CYS799  TRP800  GLU811  SER814 

> <Gold.Protein.RotatedAtoms>
  151.4205  133.3700  159.2755 H   0  0  0  0  0  0  0  0  0  0  0  0  # atno 6907 bound_to 6896
  150.9297  134.8714  159.7554 H   0  0  0  0  0  0  0  0  0  0  0  0  # atno 6908 bound_to 6896
  152.5022  134.4149  159.9513 H   0  0  0  0  0  0  0  0  0  0  0  0  # atno 6909 bound_to 6896
  146.1601  139.6766  142.9039 H   0  0  0  0  0  0  0  0  0  0  0  0  # atno 7974 bound_to 7965
  154.4318  140.1836  156.1140 H   0  0  0  0  0  0  0  0  0  0  0  0  # atno 8008 bound_to 7997
  156.0195  140.3342  155.6999 H   0  0  0  0  0  0  0  0  0  0  0  0  # atno 8009 bound_to 7997
  155.5996  140.0639  157.2727 H   0  0  0  0  0  0  0  0  0  0  0  0  # atno 8010 bound_to 7997
  139.9896  144.5767  150.7829 H   0  0  0  0  0  0  0  0  0  0  0  0  # atno 10167 bound_to 10162
  156.2000  130.4156  149.9253 H   0  0  0  0  0  0  0  0  0  0  0  0  # atno 10718 bound_to 10713
  154.3056  135.6226  153.5443 H   0  0  0  0  0  0  0  0  0  0  0  0  # atno 10763 bound_to 10752
  152.9835  135.5689  154.5235 H   0  0  0  0  0  0  0  0  0  0  0  0  # atno 10764 bound_to 10752
  154.4874  135.2866  155.1500 H   0  0  0  0  0  0  0  0  0  0  0  0  # atno 10765 bound_to 10752
  140.5278  134.0496  155.7864 H   0  0  0  0  0  0  0  0  0  0  0  0  # atno 11005 bound_to 11000
  145.4609  141.0433  143.2752 LP  0  0  0  0  0  0  0  0  0  0  0  0  # atno 17320 bound_to 7965
  144.8016  139.6131  143.7069 LP  0  0  0  0  0  0  0  0  0  0  0  0  # atno 17321 bound_to 7965
  140.7459  143.2883  151.3401 LP  0  0  0  0  0  0  0  0  0  0  0  0  # atno 17342 bound_to 10162
  139.6350  144.0649  152.2508 LP  0  0  0  0  0  0  0  0  0  0  0  0  # atno 17343 bound_to 10162
  156.6966  130.8916  151.3594 LP  0  0  0  0  0  0  0  0  0  0  0  0  # atno 17370 bound_to 10713
  157.6980  130.9303  150.0701 LP  0  0  0  0  0  0  0  0  0  0  0  0  # atno 17371 bound_to 10713
  141.1299  133.9320  157.2558 LP  0  0  0  0  0  0  0  0  0  0  0  0  # atno 17394 bound_to 11000
  139.9571  135.0163  156.9158 LP  0  0  0  0  0  0  0  0  0  0  0  0  # atno 17395 bound_to 11000

$$$$
