AV-unprocessed.smi:3280|AV-procd|sdf|12554|dock5
  -GOLD-   2272018473D 1   1.00000     0.00000
 Structure written by MMmdl.
 38 39  0  0  0  0  0  0  0  0  1 V2000
  146.1834  144.2388  161.4317 C   0  0  0  0  0  0  0  0  0  0  0  0
  147.1709  145.3638  161.0883 C   0  0  0  0  0  0  0  0  0  0  0  0
  146.5333  146.4879  160.2580 C   0  0  0  0  0  0  0  0  0  0  0  0
  148.4127  144.8303  160.4419 C   0  0  0  0  0  0  0  0  0  0  0  0
  148.4907  143.5674  160.0381 N   0  0  0  0  0  0  0  0  0  0  0  0
  149.7741  143.4828  159.4798 O   0  0  0  0  0  0  0  0  0  0  0  0
  150.3253  144.7108  159.6323 C   0  0  0  0  0  0  0  0  0  0  0  0
  151.6894  144.9623  159.0834 C   0  0  0  0  0  0  0  0  0  0  0  0
  152.6929  143.8842  159.5116 C   0  0  0  0  0  0  0  0  0  0  0  0
  152.3275  142.6078  158.9125 N   0  0  0  0  0  0  0  0  0  0  0  0
  152.8062  141.4766  159.6995 C   0  0  2  0  0  0  0  0  0  0  0  0
  154.2795  141.6842  160.1197 C   0  0  0  0  0  0  0  0  0  0  0  0
  154.8241  140.5152  160.9565 C   0  0  0  0  0  0  0  0  0  0  0  0
  154.7933  139.1823  160.1967 C   0  0  0  0  0  0  0  0  0  0  0  0
  153.0961  138.7166  159.7627 S   0  0  0  0  0  0  0  0  0  0  0  0
  152.6394  140.2097  158.8403 C   0  0  0  0  0  0  0  0  0  0  0  0
  149.5169  145.5951  160.2107 N   0  0  0  0  0  0  0  0  0  0  0  0
  146.6478  143.4939  162.0788 H   0  0  0  0  0  0  0  0  0  0  0  0
  145.8345  143.7285  160.5331 H   0  0  0  0  0  0  0  0  0  0  0  0
  145.3089  144.6294  161.9522 H   0  0  0  0  0  0  0  0  0  0  0  0
  147.4668  145.8134  162.0377 H   0  0  0  0  0  0  0  0  0  0  0  0
  147.2399  147.3017  160.0914 H   0  0  0  0  0  0  0  0  0  0  0  0
  145.6633  146.9048  160.7658 H   0  0  0  0  0  0  0  0  0  0  0  0
  146.2060  146.1254  159.2830 H   0  0  0  0  0  0  0  0  0  0  0  0
  151.6231  145.0086  157.9956 H   0  0  0  0  0  0  0  0  0  0  0  0
  152.0230  145.9447  159.4206 H   0  0  0  0  0  0  0  0  0  0  0  0
  153.6966  144.1772  159.2051 H   0  0  0  0  0  0  0  0  0  0  0  0
  152.6944  143.7934  160.5986 H   0  0  0  0  0  0  0  0  0  0  0  0
  151.3205  142.5590  158.8490 H   0  0  0  0  0  0  0  0  0  0  0  0
  152.1793  141.3714  160.5865 H   0  0  0  0  0  0  0  0  0  0  0  0
  154.9030  141.8201  159.2350 H   0  0  0  0  0  0  0  0  0  0  0  0
  154.3851  142.5952  160.7079 H   0  0  0  0  0  0  0  0  0  0  0  0
  155.8501  140.7349  161.2531 H   0  0  0  0  0  0  0  0  0  0  0  0
  154.2522  140.4259  161.8809 H   0  0  0  0  0  0  0  0  0  0  0  0
  155.3885  139.2498  159.2854 H   0  0  0  0  0  0  0  0  0  0  0  0
  155.2285  138.3899  160.8059 H   0  0  0  0  0  0  0  0  0  0  0  0
  151.6045  140.1010  158.5134 H   0  0  0  0  0  0  0  0  0  0  0  0
  153.2541  140.2682  157.9410 H   0  0  0  0  0  0  0  0  0  0  0  0
  1  2  1  0  0  0  0
  1 18  1  0  0  0  0
  1 19  1  0  0  0  0
  1 20  1  0  0  0  0
  2  3  1  0  0  0  0
  2  4  1  0  0  0  0
  2 21  1  0  0  0  0
  3 22  1  0  0  0  0
  3 23  1  0  0  0  0
  3 24  1  0  0  0  0
  4 17  1  0  0  0  0
  4  5  2  0  0  0  0
  5  6  1  0  0  0  0
  6  7  1  0  0  0  0
  7  8  1  0  0  0  0
  7 17  2  0  0  0  0
  8  9  1  0  0  0  0
  8 25  1  0  0  0  0
  8 26  1  0  0  0  0
  9 10  1  0  0  0  0
  9 27  1  0  0  0  0
  9 28  1  0  0  0  0
 10 11  1  0  0  0  0
 10 29  1  0  0  0  0
 11 16  1  0  0  0  0
 11 12  1  0  0  0  0
 11 30  1  0  0  0  0
 12 13  1  0  0  0  0
 12 31  1  0  0  0  0
 12 32  1  0  0  0  0
 13 14  1  0  0  0  0
 13 33  1  0  0  0  0
 13 34  1  0  0  0  0
 14 15  1  0  0  0  0
 14 35  1  0  0  0  0
 14 36  1  0  0  0  0
 15 16  1  0  0  0  0
 16 37  1  0  0  0  0
 16 38  1  0  0  0  0
M  END
> <s_m_source_file>
AV-unprocessed.smi

> <i_m_source_file_index>
3280

> <i_lp_mmshare_version>
43012

> <i_f3d_flags>
0

> <s_epik_input>
W0NIM11bQ0hdKFtDSDNdKWMxbm9jKG4xKVtDSDJdW0NIMl1bTkhdW0NAQEhdMltDSDJdW0NIMl1bQ0gyXVNbQ0gyXTI=

> <s_epik_cmdline>
J2VwaWtfcHl0aG9uJywgJy1waCcsICc3LjAnLCAnLXRuJywgJzgnLCAnLW1hJywgJzIwMCcsICctbWV0YWxfYmluZGluZycsICctaW1hZScsICc8aW5maWxlLm1hZT4nLCAnLW9tYWUnLCAnPG91dGZpbGUubWFlPic=

> <r_lp_tautomer_probability>
1

> <r_epik_Ionization_Penalty>
2.40576

> <r_epik_Ionization_Penalty_Charging>
0

> <r_epik_Ionization_Penalty_Neutral>
2.40576

> <r_epik_State_Penalty>
2.56401

> <r_epik_Charging_Adjusted_Penalty>
2.56401

> <i_epik_Tot_Q>
0

> <i_epik_Tot_abs_Q>
0

> <r_epik_Metal_State_Penalty>
2.56401

> <b_epik_Metal_Only>
0

> <s_lp_Force_Field>
OPLS_2005

> <r_lp_Energy>
1.17925

> <b_lp_Chiralities_Consistent>
1

> <s_lp_Variant>
AV-unprocessed.smi:3280-3

> <Gold.Version>
5.8.1

> <Gold.Id.Protein>
6NUR|6NUR_protein|mol2

> <Gold.PLP.Fitness>
41.8980

> <Gold.PLP.PLP>
-40.3453

> <Gold.PLP.part.hbond>
-3.0000

> <Gold.PLP.part.metal>
0.0000

> <Gold.PLP.part.buried>
-7.3232

> <Gold.PLP.part.nonpolar>
-31.5325

> <Gold.PLP.part.repulsive>
0.4812

> <Gold.PLP.ligand.clash>
0.0000

> <Gold.PLP.ligand.torsion>
0.4733

> <Gold.PLP.Chemscore.Hbond>
0.8000

> <Gold.PLP.Chemscore.CHOScore>
0.0000

> <Gold.PLP.Chemscore.Metal>
0.0000

> <Gold.Chemscore.Hbonds>
donor molecule, donor type, donor heavy atom, donor atom, acceptor molecule, acceptor atom, score
      P1  H  6933  6944       L1     5  0.78

> <Gold.PLP.Chemscore.Internal.Correction>
0.0993

> <Gold.Rescore>
     Score         DG    S(hbond)    S(metal)    S(lipo)     H(rot)  DE(clash)    DE(int)     intcor
     12.29     -13.52       0.48        0.00      91.82       1.68       0.73       0.49       ----

> <Gold.Chemscore.Fitness>
12.2923

> <Gold.Chemscore.DG>
-13.5154

> <Gold.Chemscore.ZeroCoef>
-5.4800

> <Gold.Chemscore.Hbond>
0.4797

> <Gold.Chemscore.Metal>
0.0000

> <Gold.Chemscore.Lipo>
91.8157

> <Gold.Chemscore.Internal_Hbond>
0.0000

> <Gold.Chemscore.DEClash>
0.7338

> <Gold.Chemscore.DEInternal>
0.4893

> <Gold.Chemscore.Rot>
1.6833

> <Gold.Chemscore.Internal.Correction>
   9.000000E+99

> <Gold.Chemscore.Hbonds>
donor molecule, donor type, donor heavy atom, donor atom, acceptor molecule, acceptor atom, score
      P1  H  6933  6944       L1     5  0.30

> <Gold.Chemscore.Hbond.Weighted>
-1.6021

> <Gold.Chemscore.Metal.Weighted>
-0.0000

> <Gold.Chemscore.Lipo.Weighted>
-10.7424

> <Gold.Chemscore.Internal_Hbond.Weighted>
0.0000

> <Gold.Chemscore.DEClash.Weighted>
0.7338

> <Gold.Chemscore.DEInternal.Weighted>
0.4893

> <Gold.Chemscore.Rot.Weighted>
4.3092

> <Gold.Chemscore.Internal.Correction.Weighted>
   9.000000E+99

> <Gold.Protein.RotatedTorsions>
[ 6907 6896 6895 6894 ] final  -91.62 input  -60.11 | X-H torsion
[ 7974 7965 7964 7962 ] final   62.09 input  175.53 | X-H torsion
[ 8008 7997 7996 7995 ] final  -29.72 input   59.86 | X-H torsion
[ 10167 10162 10161 10158 ] final   30.83 input  -65.29 | X-H torsion
[ 10718 10713 10712 10709 ] final  102.88 input   66.30 | X-H torsion
[ 10763 10752 10751 10750 ] final  155.82 input  -60.55 | X-H torsion
[ 11005 11000 10999 10996 ] final  -28.89 input  -57.11 | X-H torsion

> <Gold.Protein.ActiveResidues>
 VAL166  LYS551  ARG553  GLY616  TRP617  ASP618  TYR619  PRO620  LYS621  CYS622 
 ASP623  PHE694  ASN695  SER759  ASP760  ASP761  ALA762  ILE779  LEU786  VAL792 
 PHE793  MET794  SER795  GLU796  ALA797  LYS798  CYS799  TRP800  GLU811  SER814 

> <Gold.Protein.RotatedAtoms>
  150.6895  134.2249  159.4411 H   0  0  0  0  0  0  0  0  0  0  0  0  # atno 6907 bound_to 6896
  152.0203  134.9824  160.0579 H   0  0  0  0  0  0  0  0  0  0  0  0  # atno 6908 bound_to 6896
  152.1404  133.4425  159.4801 H   0  0  0  0  0  0  0  0  0  0  0  0  # atno 6909 bound_to 6896
  145.8773  139.3419  143.0727 H   0  0  0  0  0  0  0  0  0  0  0  0  # atno 7974 bound_to 7965
  154.4279  140.1811  156.1292 H   0  0  0  0  0  0  0  0  0  0  0  0  # atno 8008 bound_to 7997
  156.0081  140.3353  155.6888 H   0  0  0  0  0  0  0  0  0  0  0  0  # atno 8009 bound_to 7997
  155.6149  140.0654  157.2686 H   0  0  0  0  0  0  0  0  0  0  0  0  # atno 8010 bound_to 7997
  140.4643  144.0859  150.6220 H   0  0  0  0  0  0  0  0  0  0  0  0  # atno 10167 bound_to 10162
  157.6789  131.0764  150.5471 H   0  0  0  0  0  0  0  0  0  0  0  0  # atno 10718 bound_to 10713
  154.1745  135.2803  155.3071 H   0  0  0  0  0  0  0  0  0  0  0  0  # atno 10763 bound_to 10752
  154.6050  135.5517  153.7416 H   0  0  0  0  0  0  0  0  0  0  0  0  # atno 10764 bound_to 10752
  153.0155  135.6401  154.1885 H   0  0  0  0  0  0  0  0  0  0  0  0  # atno 10765 bound_to 10752
  140.9249  133.7375  156.0853 H   0  0  0  0  0  0  0  0  0  0  0  0  # atno 11005 bound_to 11000
  145.9066  140.9208  143.0476 LP  0  0  0  0  0  0  0  0  0  0  0  0  # atno 17320 bound_to 7965
  144.6726  140.1103  143.7456 LP  0  0  0  0  0  0  0  0  0  0  0  0  # atno 17321 bound_to 7965
  140.4055  143.2682  151.9896 LP  0  0  0  0  0  0  0  0  0  0  0  0  # atno 17342 bound_to 10162
  139.4810  144.5961  151.7688 LP  0  0  0  0  0  0  0  0  0  0  0  0  # atno 17343 bound_to 10162
  156.5777  130.4296  149.5991 LP  0  0  0  0  0  0  0  0  0  0  0  0  # atno 17370 bound_to 10713
  156.2687  130.7004  151.1796 LP  0  0  0  0  0  0  0  0  0  0  0  0  # atno 17371 bound_to 10713
  140.7940  134.3585  157.5457 LP  0  0  0  0  0  0  0  0  0  0  0  0  # atno 17394 bound_to 11000
  139.8783  134.9157  156.3138 LP  0  0  0  0  0  0  0  0  0  0  0  0  # atno 17395 bound_to 11000

$$$$
