AV-unprocessed.smi:1914|AV-procd|sdf|7758|dock3
  -GOLD-   22720 9503D 1   1.00000     0.00000
 Structure written by MMmdl.
 44 45  0  0  0  0  0  0  0  0  2 V2000
  146.4938  129.3302  151.5984 C   0  0  0  0  0  0  0  0  0  0  0  0
  145.6900  130.4768  152.2366 C   0  0  2  0  0  0  0  0  0  0  0  0
  144.9831  131.3629  151.1943 C   0  0  0  0  0  0  0  0  0  0  0  0
  145.9833  132.2721  150.4661 C   0  0  0  0  0  0  0  0  0  0  0  0
  146.8240  133.0798  151.4674 C   0  0  0  0  0  0  0  0  0  0  0  0
  147.5191  132.1849  152.4282 N   0  3  1  0  0  0  0  0  0  0  0  0
  148.4571  132.9266  153.3078 C   0  0  0  0  0  0  0  0  0  0  0  0
  147.7683  134.0739  154.0643 C   0  0  0  0  0  0  0  0  0  0  0  0
  148.6269  135.2495  154.0953 N   0  0  0  0  0  0  0  0  0  0  0  0
  148.8779  135.9740  155.1946 C   0  0  0  0  0  0  0  0  0  0  0  0
  148.4061  135.7024  156.2994 O   0  0  0  0  0  0  0  0  0  0  0  0
  149.8226  137.1710  155.0135 C   0  0  0  0  0  0  0  0  0  0  0  0
  149.1300  138.4000  154.5913 N   0  0  0  0  0  0  0  0  0  0  0  0
  147.7671  138.2862  154.2520 C   0  0  0  0  0  0  0  0  0  0  0  0
  147.0435  139.3453  153.8559 C   0  0  0  0  0  0  0  0  0  0  0  0
  147.6981  140.6297  153.7809 C   0  0  0  0  0  0  0  0  0  0  0  0
  149.0020  140.7494  154.1006 C   0  0  0  0  0  0  0  0  0  0  0  0
  149.7968  139.5944  154.5339 C   0  0  0  0  0  0  0  0  0  0  0  0
  150.9886  139.6932  154.8278 O   0  0  0  0  0  0  0  0  0  0  0  0
  146.5546  131.3372  153.1812 C   0  0  0  0  0  0  0  0  0  0  0  0
  147.3213  129.6996  150.9925 H   0  0  0  0  0  0  0  0  0  0  0  0
  145.8604  128.7178  150.9559 H   0  0  0  0  0  0  0  0  0  0  0  0
  146.9135  128.6755  152.3626 H   0  0  0  0  0  0  0  0  0  0  0  0
  144.9132  130.0068  152.8414 H   0  0  0  0  0  0  0  0  0  0  0  0
  144.4353  130.7501  150.4777 H   0  0  0  0  0  0  0  0  0  0  0  0
  144.2391  131.9832  151.6962 H   0  0  0  0  0  0  0  0  0  0  0  0
  146.6391  131.6743  149.8322 H   0  0  0  0  0  0  0  0  0  0  0  0
  145.4497  132.9495  149.7986 H   0  0  0  0  0  0  0  0  0  0  0  0
  147.5551  133.6732  150.9172 H   0  0  0  0  0  0  0  0  0  0  0  0
  146.1916  133.7821  152.0133 H   0  0  0  0  0  0  0  0  0  0  0  0
  148.8731  132.2411  154.0478 H   0  0  0  0  0  0  0  0  0  0  0  0
  149.3001  133.2959  152.7215 H   0  0  0  0  0  0  0  0  0  0  0  0
  146.8248  134.3470  153.5915 H   0  0  0  0  0  0  0  0  0  0  0  0
  147.5406  133.7644  155.0858 H   0  0  0  0  0  0  0  0  0  0  0  0
  149.0539  135.5362  153.2261 H   0  0  0  0  0  0  0  0  0  0  0  0
  150.3489  137.3307  155.9555 H   0  0  0  0  0  0  0  0  0  0  0  0
  150.6016  136.9176  154.2916 H   0  0  0  0  0  0  0  0  0  0  0  0
  147.3543  137.2908  154.3276 H   0  0  0  0  0  0  0  0  0  0  0  0
  146.0005  139.2382  153.5964 H   0  0  0  0  0  0  0  0  0  0  0  0
  147.1398  141.4987  153.4649 H   0  0  0  0  0  0  0  0  0  0  0  0
  149.4755  141.7183  154.0373 H   0  0  0  0  0  0  0  0  0  0  0  0
  145.9110  131.9810  153.7830 H   0  0  0  0  0  0  0  0  0  0  0  0
  147.0779  130.6861  153.8804 H   0  0  0  0  0  0  0  0  0  0  0  0
  148.0848  131.5616  151.8697 H   0  0  0  0  0  0  0  0  0  0  0  0
  1  2  1  0  0  0  0
  1 21  1  0  0  0  0
  1 22  1  0  0  0  0
  1 23  1  0  0  0  0
  2 20  1  0  0  0  0
  2  3  1  0  0  0  0
  2 24  1  0  0  0  0
  3  4  1  0  0  0  0
  3 25  1  0  0  0  0
  3 26  1  0  0  0  0
  4  5  1  0  0  0  0
  4 27  1  0  0  0  0
  4 28  1  0  0  0  0
  5  6  1  0  0  0  0
  5 29  1  0  0  0  0
  5 30  1  0  0  0  0
  6  7  1  0  0  0  0
  6 20  1  0  0  0  0
  6 44  1  0  0  0  0
  7  8  1  0  0  0  0
  7 31  1  0  0  0  0
  7 32  1  0  0  0  0
  8  9  1  0  0  0  0
  8 33  1  0  0  0  0
  8 34  1  0  0  0  0
  9 10  1  0  0  0  0
  9 35  1  0  0  0  0
 10 11  2  0  0  0  0
 10 12  1  0  0  0  0
 12 13  1  0  0  0  0
 12 36  1  0  0  0  0
 12 37  1  0  0  0  0
 13 18  1  0  0  0  0
 13 14  1  0  0  0  0
 14 15  2  0  0  0  0
 14 38  1  0  0  0  0
 15 16  1  0  0  0  0
 15 39  1  0  0  0  0
 16 17  2  0  0  0  0
 16 40  1  0  0  0  0
 17 18  1  0  0  0  0
 17 41  1  0  0  0  0
 18 19  2  0  0  0  0
 20 42  1  0  0  0  0
 20 43  1  0  0  0  0
M  CHG  1   6   1
M  END
> <s_m_source_file>
AV-unprocessed.smi

> <i_m_source_file_index>
1914

> <i_lp_mmshare_version>
43012

> <i_f3d_flags>
0

> <s_epik_input>
W0NIM11bQ0BASF0xW0NIMl1bQ0gyXVtDSDJdTihbQ0gyXTEpW0NIMl1bQ0gyXVtOSF1DKD1PKVtDSDJdbjJbY0hdW2NIXVtjSF1bY0hdYzI9Tw==

> <s_epik_cmdline>
J2VwaWtfcHl0aG9uJywgJy1waCcsICc3LjAnLCAnLXRuJywgJzgnLCAnLW1hJywgJzIwMCcsICctbWV0YWxfYmluZGluZycsICctaW1hZScsICc8aW5maWxlLm1hZT4nLCAnLW9tYWUnLCAnPG91dGZpbGUubWFlPic=

> <r_lp_tautomer_probability>
1

> <r_epik_Ionization_Penalty>
0.00192477

> <r_epik_Ionization_Penalty_Charging>
0.00192469

> <r_epik_Ionization_Penalty_Neutral>
8.16761e-08

> <r_epik_State_Penalty>
0.00131115

> <r_epik_Charging_Adjusted_Penalty>
0.00323584

> <i_epik_Tot_Q>
1

> <i_epik_Tot_abs_Q>
1

> <r_epik_Metal_State_Penalty>
-0

> <b_epik_Metal_Only>
0

> <s_lp_Force_Field>
OPLS_2005

> <r_lp_Energy>
28.3213

> <b_lp_Chiralities_Consistent>
1

> <s_lp_Variant>
AV-unprocessed.smi:1914-3

> <Gold.Version>
5.8.1

> <Gold.Id.Protein>
6NUR|6NUR_protein|mol2

> <Gold.PLP.Fitness>
41.6346

> <Gold.PLP.PLP>
-34.8907

> <Gold.PLP.part.hbond>
-2.7780

> <Gold.PLP.part.metal>
0.0000

> <Gold.PLP.part.buried>
-3.9418

> <Gold.PLP.part.nonpolar>
-29.3375

> <Gold.PLP.part.repulsive>
0.0791

> <Gold.PLP.ligand.clash>
0.6216

> <Gold.PLP.ligand.torsion>
0.8191

> <Gold.PLP.Chemscore.Hbond>
2.9913

> <Gold.PLP.Chemscore.CHOScore>
0.0000

> <Gold.PLP.Chemscore.Metal>
0.0000

> <Gold.Chemscore.Hbonds>
donor molecule, donor type, donor heavy atom, donor atom, acceptor molecule, acceptor atom, score
      L1  H     6    44       P1 10747  1.00
      L1  H     9    35       P1  7948  0.93
      P1  H  7989  7998       L1    19  1.00

> <Gold.PLP.Chemscore.Internal.Correction>
0.0299

> <Gold.Rescore>
     Score         DG    S(hbond)    S(metal)    S(lipo)     H(rot)  DE(clash)    DE(int)     intcor
     18.82     -19.62       2.77        0.00      82.27       1.86       0.03       0.76       ----

> <Gold.Chemscore.Fitness>
18.8219

> <Gold.Chemscore.DG>
-19.6156

> <Gold.Chemscore.ZeroCoef>
-5.4800

> <Gold.Chemscore.Hbond>
2.7750

> <Gold.Chemscore.Metal>
0.0000

> <Gold.Chemscore.Lipo>
82.2672

> <Gold.Chemscore.Internal_Hbond>
0.0000

> <Gold.Chemscore.DEClash>
0.0310

> <Gold.Chemscore.DEInternal>
0.7628

> <Gold.Chemscore.Rot>
1.8586

> <Gold.Chemscore.Internal.Correction>
   9.000000E+99

> <Gold.Chemscore.Hbonds>
donor molecule, donor type, donor heavy atom, donor atom, acceptor molecule, acceptor atom, score
      L1  H     6    44       P1 10747  0.98
      L1  H     9    35       P1  7948  0.47
      P1  H  7989  7998       L1    19  0.35

> <Gold.Chemscore.Hbond.Weighted>
-9.2685

> <Gold.Chemscore.Metal.Weighted>
-0.0000

> <Gold.Chemscore.Lipo.Weighted>
-9.6253

> <Gold.Chemscore.Internal_Hbond.Weighted>
0.0000

> <Gold.Chemscore.DEClash.Weighted>
0.0310

> <Gold.Chemscore.DEInternal.Weighted>
0.7628

> <Gold.Chemscore.Rot.Weighted>
4.7581

> <Gold.Chemscore.Internal.Correction.Weighted>
   9.000000E+99

> <Gold.Protein.RotatedTorsions>
[ 6907 6896 6895 6894 ] final   99.49 input  -60.11 | X-H torsion
[ 7974 7965 7964 7962 ] final   99.91 input  175.53 | X-H torsion
[ 8008 7997 7996 7995 ] final -152.13 input   59.86 | X-H torsion
[ 10167 10162 10161 10158 ] final -153.50 input  -65.29 | X-H torsion
[ 10718 10713 10712 10709 ] final   66.36 input   66.30 | X-H torsion
[ 10763 10752 10751 10750 ] final  131.14 input  -60.55 | X-H torsion
[ 11005 11000 10999 10996 ] final -167.79 input  -57.11 | X-H torsion

> <Gold.Protein.ActiveResidues>
 VAL166  LYS551  ARG553  GLY616  TRP617  ASP618  TYR619  PRO620  LYS621  CYS622 
 ASP623  PHE694  ASN695  SER759  ASP760  ASP761  ALA762  ILE779  LEU786  VAL792 
 PHE793  MET794  SER795  GLU796  ALA797  LYS798  CYS799  TRP800  GLU811  SER814 

> <Gold.Protein.RotatedAtoms>
  152.5391  134.0420  159.8071 H   0  0  0  0  0  0  0  0  0  0  0  0  # atno 6907 bound_to 6896
  151.0575  133.5564  159.2644 H   0  0  0  0  0  0  0  0  0  0  0  0  # atno 6908 bound_to 6896
  151.2476  135.0618  159.9103 H   0  0  0  0  0  0  0  0  0  0  0  0  # atno 6909 bound_to 6896
  145.3925  139.2360  143.3344 H   0  0  0  0  0  0  0  0  0  0  0  0  # atno 7974 bound_to 7965
  155.6503  140.0711  157.2589 H   0  0  0  0  0  0  0  0  0  0  0  0  # atno 8008 bound_to 7997
  154.4164  140.1734  156.1718 H   0  0  0  0  0  0  0  0  0  0  0  0  # atno 8009 bound_to 7997
  155.9782  140.3356  155.6641 H   0  0  0  0  0  0  0  0  0  0  0  0  # atno 8010 bound_to 7997
  139.7092  143.9137  152.2461 H   0  0  0  0  0  0  0  0  0  0  0  0  # atno 10167 bound_to 10162
  157.6164  130.9263  150.0099 H   0  0  0  0  0  0  0  0  0  0  0  0  # atno 10718 bound_to 10713
  153.7696  135.3184  155.3350 H   0  0  0  0  0  0  0  0  0  0  0  0  # atno 10763 bound_to 10752
  154.8201  135.4609  154.0758 H   0  0  0  0  0  0  0  0  0  0  0  0  # atno 10764 bound_to 10752
  153.2013  135.6923  153.8312 H   0  0  0  0  0  0  0  0  0  0  0  0  # atno 10765 bound_to 10752
  140.5492  134.5445  157.5118 H   0  0  0  0  0  0  0  0  0  0  0  0  # atno 11005 bound_to 11000
  146.2790  140.4611  142.8784 LP  0  0  0  0  0  0  0  0  0  0  0  0  # atno 17320 bound_to 7965
  144.8430  140.6886  143.6217 LP  0  0  0  0  0  0  0  0  0  0  0  0  # atno 17321 bound_to 7965
  139.9001  144.6917  150.8675 LP  0  0  0  0  0  0  0  0  0  0  0  0  # atno 17342 bound_to 10162
  140.7729  143.3520  151.1995 LP  0  0  0  0  0  0  0  0  0  0  0  0  # atno 17343 bound_to 10162
  156.1288  130.3644  149.9765 LP  0  0  0  0  0  0  0  0  0  0  0  0  # atno 17370 bound_to 10713
  156.7830  130.9228  151.3646 LP  0  0  0  0  0  0  0  0  0  0  0  0  # atno 17371 bound_to 10713
  139.9464  134.7695  156.0553 LP  0  0  0  0  0  0  0  0  0  0  0  0  # atno 17394 bound_to 11000
  141.1181  133.6621  156.3146 LP  0  0  0  0  0  0  0  0  0  0  0  0  # atno 17395 bound_to 11000

$$$$
