AV-unprocessed.smi:3340|AV-procd|sdf|12881|dock4
  -GOLD-   2272019283D 1   1.00000     0.00000
 Structure written by MMmdl.
 41 42  0  0  0  0  0  0  0  0  1 V2000
  152.0319  145.4241  160.1601 C   0  0  0  0  0  0  0  0  0  0  0  0
  152.5374  143.9902  160.3358 C   0  0  0  0  0  0  0  0  0  0  0  0
  152.8949  143.6387  161.4602 O   0  0  0  0  0  0  0  0  0  0  0  0
  152.5735  143.1626  159.2637 N   0  0  0  0  0  0  0  0  0  0  0  0
  152.9916  141.7554  159.3585 C   0  0  0  0  0  0  0  0  0  0  0  0
  151.8010  140.8499  158.9832 C   0  0  0  0  0  0  0  0  0  0  0  0
  151.3548  141.1899  157.6184 N   0  0  0  0  0  0  0  0  0  0  0  0
  151.5030  140.4185  156.5123 C   0  0  0  0  0  0  0  0  0  0  0  0
  151.2441  140.8136  155.3745 O   0  0  0  0  0  0  0  0  0  0  0  0
  151.9089  139.1604  156.7563 N   0  0  0  0  0  0  0  0  0  0  0  0
  152.1168  138.1232  155.7500 C   0  0  2  0  0  0  0  0  0  0  0  0
  153.0280  138.6733  154.6407 C   0  0  0  0  0  0  0  0  0  0  0  0
  150.7573  137.6163  155.2224 C   0  0  0  0  0  0  0  0  0  0  0  0
  150.0968  136.7175  156.1498 N   0  0  0  0  0  0  0  0  0  0  0  0
  148.8754  136.0818  155.9698 C   0  0  0  0  0  0  0  0  0  0  0  0
  148.6531  135.3297  157.1011 C   0  0  0  0  0  0  0  0  0  0  0  0
  149.7207  135.4823  157.9829 N   0  0  0  0  0  0  0  0  0  0  0  0
  150.5373  136.3150  157.3499 C   0  0  0  0  0  0  0  0  0  0  0  0
  150.9284  142.5952  157.5371 C   0  0  0  0  0  0  0  0  0  0  0  0
  152.1179  143.5036  157.9065 C   0  0  0  0  0  0  0  0  0  0  0  0
  151.0002  145.4299  159.8071 H   0  0  0  0  0  0  0  0  0  0  0  0
  152.6541  145.9696  159.4502 H   0  0  0  0  0  0  0  0  0  0  0  0
  152.0619  145.9616  161.1086 H   0  0  0  0  0  0  0  0  0  0  0  0
  153.8277  141.5822  158.6793 H   0  0  0  0  0  0  0  0  0  0  0  0
  153.3525  141.4874  160.3520 H   0  0  0  0  0  0  0  0  0  0  0  0
  152.0906  139.8068  159.1086 H   0  0  0  0  0  0  0  0  0  0  0  0
  150.9757  141.0096  159.6784 H   0  0  0  0  0  0  0  0  0  0  0  0
  152.0829  138.9019  157.7167 H   0  0  0  0  0  0  0  0  0  0  0  0
  152.6432  137.2886  156.2170 H   0  0  0  0  0  0  0  0  0  0  0  0
  153.2835  137.9017  153.9140 H   0  0  0  0  0  0  0  0  0  0  0  0
  153.9644  139.0498  155.0539 H   0  0  0  0  0  0  0  0  0  0  0  0
  152.5482  139.4918  154.1029 H   0  0  0  0  0  0  0  0  0  0  0  0
  150.0847  138.4536  155.0314 H   0  0  0  0  0  0  0  0  0  0  0  0
  150.8894  137.0994  154.2706 H   0  0  0  0  0  0  0  0  0  0  0  0
  148.2818  136.2164  155.0775 H   0  0  0  0  0  0  0  0  0  0  0  0
  147.8144  134.6948  157.3456 H   0  0  0  0  0  0  0  0  0  0  0  0
  151.4762  136.6429  157.7714 H   0  0  0  0  0  0  0  0  0  0  0  0
  150.5504  142.8644  156.5500 H   0  0  0  0  0  0  0  0  0  0  0  0
  150.0993  142.7608  158.2266 H   0  0  0  0  0  0  0  0  0  0  0  0
  151.8246  144.5456  157.7911 H   0  0  0  0  0  0  0  0  0  0  0  0
  152.9399  143.3497  157.2058 H   0  0  0  0  0  0  0  0  0  0  0  0
  1  2  1  0  0  0  0
  1 21  1  0  0  0  0
  1 22  1  0  0  0  0
  1 23  1  0  0  0  0
  2  3  2  0  0  0  0
  2  4  1  0  0  0  0
  4 20  1  0  0  0  0
  4  5  1  0  0  0  0
  5  6  1  0  0  0  0
  5 24  1  0  0  0  0
  5 25  1  0  0  0  0
  6  7  1  0  0  0  0
  6 26  1  0  0  0  0
  6 27  1  0  0  0  0
  7  8  1  0  0  0  0
  7 19  1  0  0  0  0
  8  9  2  0  0  0  0
  8 10  1  0  0  0  0
 10 11  1  0  0  0  0
 10 28  1  0  0  0  0
 11 12  1  0  0  0  0
 11 13  1  0  0  0  0
 11 29  1  0  0  0  0
 12 30  1  0  0  0  0
 12 31  1  0  0  0  0
 12 32  1  0  0  0  0
 13 14  1  0  0  0  0
 13 33  1  0  0  0  0
 13 34  1  0  0  0  0
 14 18  1  0  0  0  0
 14 15  1  0  0  0  0
 15 16  2  0  0  0  0
 15 35  1  0  0  0  0
 16 17  1  0  0  0  0
 16 36  1  0  0  0  0
 17 18  2  0  0  0  0
 18 37  1  0  0  0  0
 19 20  1  0  0  0  0
 19 38  1  0  0  0  0
 19 39  1  0  0  0  0
 20 40  1  0  0  0  0
 20 41  1  0  0  0  0
M  END
> <s_m_source_file>
AV-unprocessed.smi

> <i_m_source_file_index>
3340

> <i_lp_mmshare_version>
43012

> <i_f3d_flags>
0

> <s_epik_input>
W0NIM11DKD1PKU4xW0NIMl1bQ0gyXU4oW0NIMl1bQ0gyXTEpQyg9TylbTkhdW0NASF0oW0NIM10pW0NIMl1uMltjSF1bY0hdbltjSF0y

> <s_epik_cmdline>
J2VwaWtfcHl0aG9uJywgJy1waCcsICc3LjAnLCAnLXRuJywgJzgnLCAnLW1hJywgJzIwMCcsICctbWV0YWxfYmluZGluZycsICctaW1hZScsICc8aW5maWxlLm1hZT4nLCAnLW9tYWUnLCAnPG91dGZpbGUubWFlPic=

> <r_lp_tautomer_probability>
1

> <r_epik_Ionization_Penalty>
0.622948

> <r_epik_Ionization_Penalty_Charging>
0.622904

> <r_epik_Ionization_Penalty_Neutral>
4.39259e-05

> <r_epik_State_Penalty>
0.639086

> <r_epik_Charging_Adjusted_Penalty>
1.26199

> <i_epik_Tot_Q>
0

> <i_epik_Tot_abs_Q>
0

> <r_epik_Metal_State_Penalty>
0.307185

> <b_epik_Metal_Only>
0

> <s_lp_Force_Field>
OPLS_2005

> <r_lp_Energy>
49.2595

> <b_lp_Chiralities_Consistent>
1

> <s_lp_Variant>
AV-unprocessed.smi:3340-3

> <Gold.Version>
5.8.1

> <Gold.Id.Protein>
6NUR|6NUR_protein|mol2

> <Gold.PLP.Fitness>
42.7911

> <Gold.PLP.PLP>
-38.0468

> <Gold.PLP.part.hbond>
-2.0000

> <Gold.PLP.part.metal>
0.0000

> <Gold.PLP.part.buried>
-3.8639

> <Gold.PLP.part.nonpolar>
-32.2876

> <Gold.PLP.part.repulsive>
0.2614

> <Gold.PLP.ligand.clash>
0.0000

> <Gold.PLP.ligand.torsion>
0.2930

> <Gold.PLP.Chemscore.Hbond>
1.7600

> <Gold.PLP.Chemscore.CHOScore>
0.0000

> <Gold.PLP.Chemscore.Metal>
0.0000

> <Gold.Chemscore.Hbonds>
donor molecule, donor type, donor heavy atom, donor atom, acceptor molecule, acceptor atom, score
      P1  H  6896  6907       L1    17  0.95
      P1  H  7989  7998       L1     9  0.75

> <Gold.PLP.Chemscore.Internal.Correction>
0.0502

> <Gold.Rescore>
     Score         DG    S(hbond)    S(metal)    S(lipo)     H(rot)  DE(clash)    DE(int)     intcor
     13.91     -15.54       1.70        0.00      73.58       1.65       0.02       1.61       ----

> <Gold.Chemscore.Fitness>
13.9098

> <Gold.Chemscore.DG>
-15.5403

> <Gold.Chemscore.ZeroCoef>
-5.4800

> <Gold.Chemscore.Hbond>
1.6972

> <Gold.Chemscore.Metal>
0.0000

> <Gold.Chemscore.Lipo>
73.5754

> <Gold.Chemscore.Internal_Hbond>
0.0000

> <Gold.Chemscore.DEClash>
0.0202

> <Gold.Chemscore.DEInternal>
1.6102

> <Gold.Chemscore.Rot>
1.6471

> <Gold.Chemscore.Internal.Correction>
   9.000000E+99

> <Gold.Chemscore.Hbonds>
donor molecule, donor type, donor heavy atom, donor atom, acceptor molecule, acceptor atom, score
      P1  H  6896  6907       L1    17  0.74
      P1  H  7989  7998       L1     9  0.74

> <Gold.Chemscore.Hbond.Weighted>
-5.6686

> <Gold.Chemscore.Metal.Weighted>
-0.0000

> <Gold.Chemscore.Lipo.Weighted>
-8.6083

> <Gold.Chemscore.Internal_Hbond.Weighted>
0.0000

> <Gold.Chemscore.DEClash.Weighted>
0.0202

> <Gold.Chemscore.DEInternal.Weighted>
1.6102

> <Gold.Chemscore.Rot.Weighted>
4.2166

> <Gold.Chemscore.Internal.Correction.Weighted>
   9.000000E+99

> <Gold.Protein.RotatedTorsions>
[ 6907 6896 6895 6894 ] final  -81.79 input  -60.11 | X-H torsion
[ 7974 7965 7964 7962 ] final   66.30 input  175.53 | X-H torsion
[ 8008 7997 7996 7995 ] final -141.27 input   59.86 | X-H torsion
[ 10167 10162 10161 10158 ] final  151.44 input  -65.29 | X-H torsion
[ 10718 10713 10712 10709 ] final  168.87 input   66.30 | X-H torsion
[ 10763 10752 10751 10750 ] final  -28.63 input  -60.55 | X-H torsion
[ 11005 11000 10999 10996 ] final   79.67 input  -57.11 | X-H torsion

> <Gold.Protein.ActiveResidues>
 VAL166  LYS551  ARG553  GLY616  TRP617  ASP618  TYR619  PRO620  LYS621  CYS622 
 ASP623  PHE694  ASN695  SER759  ASP760  ASP761  ALA762  ILE779  LEU786  VAL792 
 PHE793  MET794  SER795  GLU796  ALA797  LYS798  CYS799  TRP800  GLU811  SER814 

> <Gold.Protein.RotatedAtoms>
  150.6906  134.3763  159.5014 H   0  0  0  0  0  0  0  0  0  0  0  0  # atno 6907 bound_to 6896
  152.1572  134.8939  160.0553 H   0  0  0  0  0  0  0  0  0  0  0  0  # atno 6908 bound_to 6896
  152.0014  133.3792  159.4220 H   0  0  0  0  0  0  0  0  0  0  0  0  # atno 6909 bound_to 6896
  145.8283  139.3124  143.1003 H   0  0  0  0  0  0  0  0  0  0  0  0  # atno 7974 bound_to 7965
  155.4750  140.0556  157.2974 H   0  0  0  0  0  0  0  0  0  0  0  0  # atno 8008 bound_to 7997
  154.4683  140.2028  156.0014 H   0  0  0  0  0  0  0  0  0  0  0  0  # atno 8009 bound_to 7997
  156.1012  140.3219  155.7949 H   0  0  0  0  0  0  0  0  0  0  0  0  # atno 8010 bound_to 7997
  139.4840  144.5440  151.7516 H   0  0  0  0  0  0  0  0  0  0  0  0  # atno 10167 bound_to 10162
  157.0309  131.0259  151.2745 H   0  0  0  0  0  0  0  0  0  0  0  0  # atno 10718 bound_to 10713
  153.7514  135.6925  153.4945 H   0  0  0  0  0  0  0  0  0  0  0  0  # atno 10763 bound_to 10752
  153.2000  135.4440  155.0254 H   0  0  0  0  0  0  0  0  0  0  0  0  # atno 10764 bound_to 10752
  154.8186  135.3411  154.7035 H   0  0  0  0  0  0  0  0  0  0  0  0  # atno 10765 bound_to 10752
  139.9163  134.7861  156.1809 H   0  0  0  0  0  0  0  0  0  0  0  0  # atno 11005 bound_to 11000
  145.9599  140.8843  143.0216 LP  0  0  0  0  0  0  0  0  0  0  0  0  # atno 17320 bound_to 7965
  144.6742  140.1798  143.7407 LP  0  0  0  0  0  0  0  0  0  0  0  0  # atno 17321 bound_to 7965
  140.4984  144.1206  150.5965 LP  0  0  0  0  0  0  0  0  0  0  0  0  # atno 17342 bound_to 10162
  140.4091  143.2666  151.9855 LP  0  0  0  0  0  0  0  0  0  0  0  0  # atno 17343 bound_to 10162
  157.5178  130.7979  149.7776 LP  0  0  0  0  0  0  0  0  0  0  0  0  # atno 17370 bound_to 10713
  156.0070  130.3851  150.2397 LP  0  0  0  0  0  0  0  0  0  0  0  0  # atno 17371 bound_to 10713
  141.0643  133.6827  156.2013 LP  0  0  0  0  0  0  0  0  0  0  0  0  # atno 17394 bound_to 11000
  140.6611  134.4967  157.5583 LP  0  0  0  0  0  0  0  0  0  0  0  0  # atno 17395 bound_to 11000

$$$$
