AV-unprocessed.smi:3285|AV-procd|sdf|12583|dock1
  -GOLD-   2272018503D 1   1.00000     0.00000
 Structure written by MMmdl.
 45 46  0  0  0  0  0  0  0  0  2 V2000
  149.9962  137.8451  154.7911 C   0  0  0  0  0  0  0  0  0  0  0  0
  149.3264  139.1309  154.3999 C   0  0  0  0  0  0  0  0  0  0  0  0
  150.0743  140.1610  154.0439 N   0  0  0  0  0  0  0  0  0  0  0  0
  149.1845  141.1972  153.7469 O   0  0  0  0  0  0  0  0  0  0  0  0
  147.9195  140.7455  153.9385 C   0  0  0  0  0  0  0  0  0  0  0  0
  146.8219  141.7205  153.6758 C   0  0  0  0  0  0  0  0  0  0  0  0
  147.9359  139.4410  154.3520 C   0  0  0  0  0  0  0  0  0  0  0  0
  146.7703  138.5485  154.6848 C   0  0  0  0  0  0  0  0  0  0  0  0
  146.1680  137.9201  153.4217 C   0  0  0  0  0  0  0  0  0  0  0  0
  146.6701  136.5466  153.2212 N   0  3  0  0  0  0  0  0  0  0  0  0
  145.7017  135.6168  152.6015 C   0  0  1  0  0  0  0  0  0  0  0  0
  145.4473  136.0141  151.1403 C   0  0  0  0  0  0  0  0  0  0  0  0
  144.4676  135.0410  150.4716 C   0  0  0  0  0  0  0  0  0  0  0  0
  144.9659  133.5828  150.5361 C   0  0  2  0  0  0  0  0  0  0  0  0
  143.9516  132.6561  149.8419 C   0  0  0  0  0  0  0  0  0  0  0  0
  145.2624  133.1673  152.0025 C   0  0  1  0  0  0  0  0  0  0  0  0
  145.8356  131.7429  152.1151 C   0  0  0  0  0  0  0  0  0  0  0  0
  146.2234  134.1718  152.6743 C   0  0  0  0  0  0  0  0  0  0  0  0
  149.2720  137.0939  155.1053 H   0  0  0  0  0  0  0  0  0  0  0  0
  150.6883  138.0006  155.6191 H   0  0  0  0  0  0  0  0  0  0  0  0
  150.5627  137.4296  153.9573 H   0  0  0  0  0  0  0  0  0  0  0  0
  145.8450  141.2754  153.8635 H   0  0  0  0  0  0  0  0  0  0  0  0
  146.8453  142.0578  152.6395 H   0  0  0  0  0  0  0  0  0  0  0  0
  146.9222  142.5957  154.3180 H   0  0  0  0  0  0  0  0  0  0  0  0
  147.0775  137.7571  155.3696 H   0  0  0  0  0  0  0  0  0  0  0  0
  145.9981  139.1065  155.2152 H   0  0  0  0  0  0  0  0  0  0  0  0
  145.0798  137.8980  153.4957 H   0  0  0  0  0  0  0  0  0  0  0  0
  146.4234  138.5230  152.5487 H   0  0  0  0  0  0  0  0  0  0  0  0
  147.4847  136.5943  152.6262 H   0  0  0  0  0  0  0  0  0  0  0  0
  144.7530  135.6687  153.1391 H   0  0  0  0  0  0  0  0  0  0  0  0
  145.0472  137.0277  151.0916 H   0  0  0  0  0  0  0  0  0  0  0  0
  146.3867  136.0240  150.5855 H   0  0  0  0  0  0  0  0  0  0  0  0
  143.4929  135.1191  150.9556 H   0  0  0  0  0  0  0  0  0  0  0  0
  144.3178  135.3379  149.4329 H   0  0  0  0  0  0  0  0  0  0  0  0
  145.8986  133.5272  149.9726 H   0  0  0  0  0  0  0  0  0  0  0  0
  143.0106  132.6145  150.3914 H   0  0  0  0  0  0  0  0  0  0  0  0
  144.3299  131.6390  149.7454 H   0  0  0  0  0  0  0  0  0  0  0  0
  143.7300  133.0063  148.8334 H   0  0  0  0  0  0  0  0  0  0  0  0
  144.3228  133.1873  152.5571 H   0  0  0  0  0  0  0  0  0  0  0  0
  146.7427  131.6313  151.5204 H   0  0  0  0  0  0  0  0  0  0  0  0
  145.1215  130.9909  151.7815 H   0  0  0  0  0  0  0  0  0  0  0  0
  146.0863  131.5024  153.1485 H   0  0  0  0  0  0  0  0  0  0  0  0
  147.2029  134.1119  152.1968 H   0  0  0  0  0  0  0  0  0  0  0  0
  146.3740  133.8930  153.7185 H   0  0  0  0  0  0  0  0  0  0  0  0
  146.9492  136.1694  154.1157 H   0  0  0  0  0  0  0  0  0  0  0  0
  1  2  1  0  0  0  0
  1 19  1  0  0  0  0
  1 20  1  0  0  0  0
  1 21  1  0  0  0  0
  2  7  1  0  0  0  0
  2  3  2  0  0  0  0
  3  4  1  0  0  0  0
  4  5  1  0  0  0  0
  5  6  1  0  0  0  0
  5  7  2  0  0  0  0
  6 22  1  0  0  0  0
  6 23  1  0  0  0  0
  6 24  1  0  0  0  0
  7  8  1  0  0  0  0
  8  9  1  0  0  0  0
  8 25  1  0  0  0  0
  8 26  1  0  0  0  0
  9 10  1  0  0  0  0
  9 27  1  0  0  0  0
  9 28  1  0  0  0  0
 10 11  1  0  0  0  0
 10 29  1  0  0  0  0
 10 45  1  0  0  0  0
 11 18  1  0  0  0  0
 11 12  1  0  0  0  0
 11 30  1  0  0  0  0
 12 13  1  0  0  0  0
 12 31  1  0  0  0  0
 12 32  1  0  0  0  0
 13 14  1  0  0  0  0
 13 33  1  0  0  0  0
 13 34  1  0  0  0  0
 14 15  1  0  0  0  0
 14 16  1  0  0  0  0
 14 35  1  0  0  0  0
 15 36  1  0  0  0  0
 15 37  1  0  0  0  0
 15 38  1  0  0  0  0
 16 17  1  0  0  0  0
 16 18  1  0  0  0  0
 16 39  1  0  0  0  0
 17 40  1  0  0  0  0
 17 41  1  0  0  0  0
 17 42  1  0  0  0  0
 18 43  1  0  0  0  0
 18 44  1  0  0  0  0
M  CHG  1  10   1
M  END
> <s_m_source_file>
AV-unprocessed.smi

> <i_m_source_file_index>
3285

> <i_lp_mmshare_version>
43012

> <i_f3d_flags>
0

> <s_epik_input>
W0NIM11jMW5vYyhbQ0gzXSljMVtDSDJdW0NIMl1bTkhdW0NAQEhdMltDSDJdW0NIMl1bQ0BASF0oW0NIM10pW0NAQEhdKFtDSDNdKVtDSDJdMg==

> <s_epik_cmdline>
J2VwaWtfcHl0aG9uJywgJy1waCcsICc3LjAnLCAnLXRuJywgJzgnLCAnLW1hJywgJzIwMCcsICctbWV0YWxfYmluZGluZycsICctaW1hZScsICc8aW5maWxlLm1hZT4nLCAnLW9tYWUnLCAnPG91dGZpbGUubWFlPic=

> <r_lp_tautomer_probability>
1

> <r_epik_Ionization_Penalty>
0.000204615

> <r_epik_Ionization_Penalty_Charging>
0.000204615

> <r_epik_Ionization_Penalty_Neutral>
9.28663e-11

> <r_epik_State_Penalty>
-0

> <r_epik_Charging_Adjusted_Penalty>
0.000204615

> <i_epik_Tot_Q>
1

> <i_epik_Tot_abs_Q>
1

> <r_epik_Metal_State_Penalty>
-0

> <b_epik_Metal_Only>
0

> <s_lp_Force_Field>
OPLS_2005

> <r_lp_Energy>
11.6607

> <b_lp_Chiralities_Consistent>
1

> <s_lp_Variant>
AV-unprocessed.smi:3285-4

> <Gold.Version>
5.8.1

> <Gold.Id.Protein>
6NUR|6NUR_protein|mol2

> <Gold.PLP.Fitness>
42.1297

> <Gold.PLP.PLP>
-32.3279

> <Gold.PLP.part.hbond>
-4.0000

> <Gold.PLP.part.metal>
0.0000

> <Gold.PLP.part.buried>
-7.9759

> <Gold.PLP.part.nonpolar>
-24.6478

> <Gold.PLP.part.repulsive>
2.6570

> <Gold.PLP.ligand.clash>
0.0000

> <Gold.PLP.ligand.torsion>
0.8544

> <Gold.PLP.Chemscore.Hbond>
3.8240

> <Gold.PLP.Chemscore.CHOScore>
0.0000

> <Gold.PLP.Chemscore.Metal>
0.0000

> <Gold.Chemscore.Hbonds>
donor molecule, donor type, donor heavy atom, donor atom, acceptor molecule, acceptor atom, score
      L1  H    10    29       P1  7948  2.00
      P1  H  7989  7998       L1     3  0.90
      P1  H  8011  8017       L1     4  0.91

> <Gold.PLP.Chemscore.Internal.Correction>
0.0387

> <Gold.Rescore>
     Score         DG    S(hbond)    S(metal)    S(lipo)     H(rot)  DE(clash)    DE(int)     intcor
     16.95     -18.02       1.93        0.00      81.66       1.35       0.25       0.82       ----

> <Gold.Chemscore.Fitness>
16.9499

> <Gold.Chemscore.DG>
-18.0204

> <Gold.Chemscore.ZeroCoef>
-5.4800

> <Gold.Chemscore.Hbond>
1.9262

> <Gold.Chemscore.Metal>
0.0000

> <Gold.Chemscore.Lipo>
81.6575

> <Gold.Chemscore.Internal_Hbond>
0.0000

> <Gold.Chemscore.DEClash>
0.2507

> <Gold.Chemscore.DEInternal>
0.8198

> <Gold.Chemscore.Rot>
1.3465

> <Gold.Chemscore.Internal.Correction>
   9.000000E+99

> <Gold.Chemscore.Hbonds>
donor molecule, donor type, donor heavy atom, donor atom, acceptor molecule, acceptor atom, score
      L1  H    10    29       P1  7948  1.00
      P1  H  7989  7998       L1     3  0.23
      P1  H  8011  8017       L1     4  0.79

> <Gold.Chemscore.Hbond.Weighted>
-6.4335

> <Gold.Chemscore.Metal.Weighted>
-0.0000

> <Gold.Chemscore.Lipo.Weighted>
-9.5539

> <Gold.Chemscore.Internal_Hbond.Weighted>
0.0000

> <Gold.Chemscore.DEClash.Weighted>
0.2507

> <Gold.Chemscore.DEInternal.Weighted>
0.8198

> <Gold.Chemscore.Rot.Weighted>
3.4470

> <Gold.Chemscore.Internal.Correction.Weighted>
   9.000000E+99

> <Gold.Protein.RotatedTorsions>
[ 6907 6896 6895 6894 ] final -148.49 input  -60.11 | X-H torsion
[ 7974 7965 7964 7962 ] final  143.62 input  175.53 | X-H torsion
[ 8008 7997 7996 7995 ] final   25.67 input   59.86 | X-H torsion
[ 10167 10162 10161 10158 ] final  158.78 input  -65.29 | X-H torsion
[ 10718 10713 10712 10709 ] final   40.92 input   66.30 | X-H torsion
[ 10763 10752 10751 10750 ] final   67.99 input  -60.55 | X-H torsion
[ 11005 11000 10999 10996 ] final  112.28 input  -57.11 | X-H torsion

> <Gold.Protein.ActiveResidues>
 VAL166  LYS551  ARG553  GLY616  TRP617  ASP618  TYR619  PRO620  LYS621  CYS622 
 ASP623  PHE694  ASN695  SER759  ASP760  ASP761  ALA762  ILE779  LEU786  VAL792 
 PHE793  MET794  SER795  GLU796  ALA797  LYS798  CYS799  TRP800  GLU811  SER814 

> <Gold.Protein.RotatedAtoms>
  151.1705  133.4787  159.2593 H   0  0  0  0  0  0  0  0  0  0  0  0  # atno 6907 bound_to 6896
  151.1360  135.0155  159.8614 H   0  0  0  0  0  0  0  0  0  0  0  0  # atno 6908 bound_to 6896
  152.5461  134.1604  159.8608 H   0  0  0  0  0  0  0  0  0  0  0  0  # atno 6909 bound_to 6896
  144.8905  139.5565  143.5800 H   0  0  0  0  0  0  0  0  0  0  0  0  # atno 7974 bound_to 7965
  155.0153  140.3141  155.4814 H   0  0  0  0  0  0  0  0  0  0  0  0  # atno 8008 bound_to 7997
  156.2902  140.2207  156.5210 H   0  0  0  0  0  0  0  0  0  0  0  0  # atno 8009 bound_to 7997
  154.7499  140.0467  157.0872 H   0  0  0  0  0  0  0  0  0  0  0  0  # atno 8010 bound_to 7997
  139.4828  144.4792  151.8468 H   0  0  0  0  0  0  0  0  0  0  0  0  # atno 10167 bound_to 10162
  157.3877  130.7789  149.7244 H   0  0  0  0  0  0  0  0  0  0  0  0  # atno 10718 bound_to 10713
  153.0213  135.5264  154.7065 H   0  0  0  0  0  0  0  0  0  0  0  0  # atno 10763 bound_to 10752
  154.6159  135.2883  155.0383 H   0  0  0  0  0  0  0  0  0  0  0  0  # atno 10764 bound_to 10752
  154.1387  135.6581  153.4990 H   0  0  0  0  0  0  0  0  0  0  0  0  # atno 10765 bound_to 10752
  139.8923  134.9526  156.6562 H   0  0  0  0  0  0  0  0  0  0  0  0  # atno 11005 bound_to 11000
  146.3051  139.7553  142.9062 LP  0  0  0  0  0  0  0  0  0  0  0  0  # atno 17320 bound_to 7965
  145.3791  141.0355  143.3188 LP  0  0  0  0  0  0  0  0  0  0  0  0  # atno 17321 bound_to 7965
  140.4267  144.2171  150.5887 LP  0  0  0  0  0  0  0  0  0  0  0  0  # atno 17342 bound_to 10162
  140.4820  143.2376  151.8941 LP  0  0  0  0  0  0  0  0  0  0  0  0  # atno 17343 bound_to 10162
  155.9791  130.4044  150.3610 LP  0  0  0  0  0  0  0  0  0  0  0  0  # atno 17370 bound_to 10713
  157.1722  131.0371  151.2790 LP  0  0  0  0  0  0  0  0  0  0  0  0  # atno 17371 bound_to 10713
  140.7482  133.8919  155.8328 LP  0  0  0  0  0  0  0  0  0  0  0  0  # atno 17394 bound_to 11000
  141.0022  134.1135  157.4306 LP  0  0  0  0  0  0  0  0  0  0  0  0  # atno 17395 bound_to 11000

$$$$
