AV-unprocessed.smi:685|AV-procd|sdf|3334|dock8
  -GOLD-   22720 0303D 1   1.00000     0.00000
 Structure written by MMmdl.
 50 51  0  0  0  0  0  0  0  0  1 V2000
  154.6616  134.5382  157.9220 C   0  0  0  0  0  0  0  0  0  0  0  0
  153.7458  135.7041  157.6788 C   0  0  0  0  0  0  0  0  0  0  0  0
  152.6557  135.5323  156.9498 N   0  0  0  0  0  0  0  0  0  0  0  0
  152.0684  136.7453  156.9185 N   0  0  0  0  0  0  0  0  0  0  0  0
  150.8263  136.9156  156.1902 C   0  0  0  0  0  0  0  0  0  0  0  0
  152.7904  137.6863  157.6264 C   0  0  0  0  0  0  0  0  0  0  0  0
  152.3476  139.1101  157.7343 C   0  0  0  0  0  0  0  0  0  0  0  0
  153.8886  137.0466  158.1365 C   0  0  0  0  0  0  0  0  0  0  0  0
  155.0043  137.6029  158.9837 C   0  0  0  0  0  0  0  0  0  0  0  0
  154.5269  138.0132  160.3933 C   0  0  1  0  0  0  0  0  0  0  0  0
  155.6045  137.8074  161.4700 C   0  0  0  0  0  0  0  0  0  0  0  0
  154.1120  139.4133  160.3984 N   0  0  0  0  0  0  0  0  0  0  0  0
  154.8132  140.4324  159.8771 C   0  0  0  0  0  0  0  0  0  0  0  0
  155.9042  140.2877  159.3245 O   0  0  0  0  0  0  0  0  0  0  0  0
  154.1823  141.8228  159.9974 C   0  0  0  0  0  0  0  0  0  0  0  0
  152.7078  141.7725  160.4406 C   0  0  0  0  0  0  0  0  0  0  0  0
  151.9517  143.0883  160.1842 C   0  0  0  0  0  0  0  0  0  0  0  0
  152.0446  143.5699  158.7345 C   0  0  0  0  0  0  0  0  0  0  0  0
  151.6695  145.0542  158.7861 C   0  0  0  0  0  0  0  0  0  0  0  0
  151.9775  145.5242  160.2157 C   0  0  0  0  0  0  0  0  0  0  0  0
  152.4726  144.2900  160.9791 C   0  0  0  0  0  0  0  0  0  0  0  0
  155.0149  134.5250  158.9533 H   0  0  0  0  0  0  0  0  0  0  0  0
  155.5359  134.5893  157.2729 H   0  0  0  0  0  0  0  0  0  0  0  0
  154.1626  133.5869  157.7337 H   0  0  0  0  0  0  0  0  0  0  0  0
  150.9749  137.6230  155.3740 H   0  0  0  0  0  0  0  0  0  0  0  0
  150.0580  137.3008  156.8610 H   0  0  0  0  0  0  0  0  0  0  0  0
  150.4879  135.9647  155.7759 H   0  0  0  0  0  0  0  0  0  0  0  0
  153.0987  139.7241  158.2305 H   0  0  0  0  0  0  0  0  0  0  0  0
  151.4224  139.1843  158.3060 H   0  0  0  0  0  0  0  0  0  0  0  0
  152.1718  139.5376  156.7469 H   0  0  0  0  0  0  0  0  0  0  0  0
  155.8223  136.8876  159.0728 H   0  0  0  0  0  0  0  0  0  0  0  0
  155.4412  138.4684  158.4846 H   0  0  0  0  0  0  0  0  0  0  0  0
  153.6659  137.4000  160.6661 H   0  0  0  0  0  0  0  0  0  0  0  0
  155.8916  136.7591  161.5526 H   0  0  0  0  0  0  0  0  0  0  0  0
  155.2437  138.1210  162.4502 H   0  0  0  0  0  0  0  0  0  0  0  0
  156.5041  138.3818  161.2463 H   0  0  0  0  0  0  0  0  0  0  0  0
  153.2240  139.6228  160.8307 H   0  0  0  0  0  0  0  0  0  0  0  0
  154.7666  142.4014  160.7133 H   0  0  0  0  0  0  0  0  0  0  0  0
  154.2631  142.3379  159.0392 H   0  0  0  0  0  0  0  0  0  0  0  0
  152.1980  140.9504  159.9359 H   0  0  0  0  0  0  0  0  0  0  0  0
  152.6588  141.5504  161.5077 H   0  0  0  0  0  0  0  0  0  0  0  0
  150.8966  142.9462  160.4245 H   0  0  0  0  0  0  0  0  0  0  0  0
  153.0698  143.4680  158.3746 H   0  0  0  0  0  0  0  0  0  0  0  0
  151.4009  143.0012  158.0628 H   0  0  0  0  0  0  0  0  0  0  0  0
  152.2145  145.6308  158.0379 H   0  0  0  0  0  0  0  0  0  0  0  0
  150.6053  145.1766  158.5808 H   0  0  0  0  0  0  0  0  0  0  0  0
  152.7218  146.3210  160.2298 H   0  0  0  0  0  0  0  0  0  0  0  0
  151.0711  145.9174  160.6781 H   0  0  0  0  0  0  0  0  0  0  0  0
  152.1351  144.2845  162.0158 H   0  0  0  0  0  0  0  0  0  0  0  0
  153.5635  144.2846  160.9884 H   0  0  0  0  0  0  0  0  0  0  0  0
  1  2  1  0  0  0  0
  1 22  1  0  0  0  0
  1 23  1  0  0  0  0
  1 24  1  0  0  0  0
  2  8  1  0  0  0  0
  2  3  2  0  0  0  0
  3  4  1  0  0  0  0
  4  5  1  0  0  0  0
  4  6  1  0  0  0  0
  5 25  1  0  0  0  0
  5 26  1  0  0  0  0
  5 27  1  0  0  0  0
  6  7  1  0  0  0  0
  6  8  2  0  0  0  0
  7 28  1  0  0  0  0
  7 29  1  0  0  0  0
  7 30  1  0  0  0  0
  8  9  1  0  0  0  0
  9 10  1  0  0  0  0
  9 31  1  0  0  0  0
  9 32  1  0  0  0  0
 10 11  1  0  0  0  0
 10 12  1  0  0  0  0
 10 33  1  0  0  0  0
 11 34  1  0  0  0  0
 11 35  1  0  0  0  0
 11 36  1  0  0  0  0
 12 13  1  0  0  0  0
 12 37  1  0  0  0  0
 13 14  2  0  0  0  0
 13 15  1  0  0  0  0
 15 16  1  0  0  0  0
 15 38  1  0  0  0  0
 15 39  1  0  0  0  0
 16 17  1  0  0  0  0
 16 40  1  0  0  0  0
 16 41  1  0  0  0  0
 17 21  1  0  0  0  0
 17 18  1  0  0  0  0
 17 42  1  0  0  0  0
 18 19  1  0  0  0  0
 18 43  1  0  0  0  0
 18 44  1  0  0  0  0
 19 20  1  0  0  0  0
 19 45  1  0  0  0  0
 19 46  1  0  0  0  0
 20 21  1  0  0  0  0
 20 47  1  0  0  0  0
 20 48  1  0  0  0  0
 21 49  1  0  0  0  0
 21 50  1  0  0  0  0
M  END
> <s_m_source_file>
AV-unprocessed.smi

> <i_m_source_file_index>
685

> <i_lp_mmshare_version>
43012

> <i_f3d_flags>
0

> <s_epik_input>
W0NIM11jMW5uKFtDSDNdKWMoW0NIM10pYzFbQ0gyXVtDQEhdKFtDSDNdKVtOSF1DKD1PKVtDSDJdW0NIMl1bQ0hdMltDSDJdW0NIMl1bQ0gyXVtDSDJdMg==

> <s_epik_cmdline>
J2VwaWtfcHl0aG9uJywgJy1waCcsICc3LjAnLCAnLXRuJywgJzgnLCAnLW1hJywgJzIwMCcsICctbWV0YWxfYmluZGluZycsICctaW1hZScsICc8aW5maWxlLm1hZT4nLCAnLW9tYWUnLCAnPG91dGZpbGUubWFlPic=

> <r_lp_tautomer_probability>
1

> <r_epik_Ionization_Penalty>
0.0131144

> <r_epik_Ionization_Penalty_Charging>
0

> <r_epik_Ionization_Penalty_Neutral>
0.0131144

> <r_epik_State_Penalty>
0.0101889

> <r_epik_Charging_Adjusted_Penalty>
0.0101889

> <i_epik_Tot_Q>
0

> <i_epik_Tot_abs_Q>
0

> <r_epik_Metal_State_Penalty>
0.00996794

> <b_epik_Metal_Only>
0

> <s_lp_Force_Field>
OPLS_2005

> <r_lp_Energy>
16.0397

> <b_lp_Chiralities_Consistent>
1

> <s_lp_Variant>
AV-unprocessed.smi:685-2

> <Gold.Version>
5.8.1

> <Gold.Id.Protein>
6NUR|6NUR_protein|mol2

> <Gold.PLP.Fitness>
40.8799

> <Gold.PLP.PLP>
-37.0976

> <Gold.PLP.part.hbond>
-2.0000

> <Gold.PLP.part.metal>
0.0000

> <Gold.PLP.part.buried>
-5.2654

> <Gold.PLP.part.nonpolar>
-29.8337

> <Gold.PLP.part.repulsive>
0.0464

> <Gold.PLP.ligand.clash>
0.1540

> <Gold.PLP.ligand.torsion>
0.8515

> <Gold.PLP.Chemscore.Hbond>
1.8590

> <Gold.PLP.Chemscore.CHOScore>
0.0000

> <Gold.PLP.Chemscore.Metal>
0.0000

> <Gold.Chemscore.Hbonds>
donor molecule, donor type, donor heavy atom, donor atom, acceptor molecule, acceptor atom, score
      P1  H  7997  8010       L1    14  0.91
      P1  H 10752 10765       L1     3  0.95

> <Gold.PLP.Chemscore.Internal.Correction>
0.0620

> <Gold.Rescore>
     Score         DG    S(hbond)    S(metal)    S(lipo)     H(rot)  DE(clash)    DE(int)     intcor
     16.21     -18.51       1.05        0.00     114.83       1.53       0.19       2.11       ----

> <Gold.Chemscore.Fitness>
16.2148

> <Gold.Chemscore.DG>
-18.5140

> <Gold.Chemscore.ZeroCoef>
-5.4800

> <Gold.Chemscore.Hbond>
1.0503

> <Gold.Chemscore.Metal>
0.0000

> <Gold.Chemscore.Lipo>
114.8263

> <Gold.Chemscore.Internal_Hbond>
0.0000

> <Gold.Chemscore.DEClash>
0.1887

> <Gold.Chemscore.DEInternal>
2.1105

> <Gold.Chemscore.Rot>
1.5268

> <Gold.Chemscore.Internal.Correction>
   9.000000E+99

> <Gold.Chemscore.Hbonds>
donor molecule, donor type, donor heavy atom, donor atom, acceptor molecule, acceptor atom, score
      P1  H  7997  8010       L1    14  0.42
      P1  H 10752 10765       L1     3  0.09

> <Gold.Chemscore.Hbond.Weighted>
-3.5079

> <Gold.Chemscore.Metal.Weighted>
-0.0000

> <Gold.Chemscore.Lipo.Weighted>
-13.4347

> <Gold.Chemscore.Internal_Hbond.Weighted>
0.0000

> <Gold.Chemscore.DEClash.Weighted>
0.1887

> <Gold.Chemscore.DEInternal.Weighted>
2.1105

> <Gold.Chemscore.Rot.Weighted>
3.9086

> <Gold.Chemscore.Internal.Correction.Weighted>
   9.000000E+99

> <Gold.Protein.RotatedTorsions>
[ 6907 6896 6895 6894 ] final -107.98 input  -60.11 | X-H torsion
[ 7974 7965 7964 7962 ] final -146.94 input  175.53 | X-H torsion
[ 8008 7997 7996 7995 ] final  -20.19 input   59.86 | X-H torsion
[ 10167 10162 10161 10158 ] final   99.19 input  -65.29 | X-H torsion
[ 10718 10713 10712 10709 ] final -120.79 input   66.30 | X-H torsion
[ 10763 10752 10751 10750 ] final -129.24 input  -60.55 | X-H torsion
[ 11005 11000 10999 10996 ] final -144.66 input  -57.11 | X-H torsion

> <Gold.Protein.ActiveResidues>
 VAL166  LYS551  ARG553  GLY616  TRP617  ASP618  TYR619  PRO620  LYS621  CYS622 
 ASP623  PHE694  ASN695  SER759  ASP760  ASP761  ALA762  ILE779  LEU786  VAL792 
 PHE793  MET794  SER795  GLU796  ALA797  LYS798  CYS799  TRP800  GLU811  SER814 

> <Gold.Protein.RotatedAtoms>
  150.7475  133.9745  159.3556 H   0  0  0  0  0  0  0  0  0  0  0  0  # atno 6907 bound_to 6896
  151.7681  135.0791  160.0365 H   0  0  0  0  0  0  0  0  0  0  0  0  # atno 6908 bound_to 6896
  152.3357  133.5972  159.5877 H   0  0  0  0  0  0  0  0  0  0  0  0  # atno 6909 bound_to 6896
  144.8126  140.5391  143.5632 H   0  0  0  0  0  0  0  0  0  0  0  0  # atno 7974 bound_to 7965
  154.4786  140.2068  155.9818 H   0  0  0  0  0  0  0  0  0  0  0  0  # atno 8008 bound_to 7997
  156.1129  140.3226  155.8067 H   0  0  0  0  0  0  0  0  0  0  0  0  # atno 8009 bound_to 7997
  155.4604  140.0523  157.2982 H   0  0  0  0  0  0  0  0  0  0  0  0  # atno 8010 bound_to 7997
  139.7639  144.6945  151.0252 H   0  0  0  0  0  0  0  0  0  0  0  0  # atno 10167 bound_to 10162
  156.1285  130.6378  150.9583 H   0  0  0  0  0  0  0  0  0  0  0  0  # atno 10718 bound_to 10713
  154.8757  135.3902  154.3888 H   0  0  0  0  0  0  0  0  0  0  0  0  # atno 10763 bound_to 10752
  153.4626  135.7029  153.6046 H   0  0  0  0  0  0  0  0  0  0  0  0  # atno 10764 bound_to 10752
  153.4538  135.3827  155.2267 H   0  0  0  0  0  0  0  0  0  0  0  0  # atno 10765 bound_to 10752
  140.8002  134.2866  157.4981 H   0  0  0  0  0  0  0  0  0  0  0  0  # atno 11005 bound_to 11000
  145.5289  139.1475  143.3511 LP  0  0  0  0  0  0  0  0  0  0  0  0  # atno 17320 bound_to 7965
  146.2426  140.5429  142.8927 LP  0  0  0  0  0  0  0  0  0  0  0  0  # atno 17321 bound_to 7965
  140.7809  143.4665  151.0205 LP  0  0  0  0  0  0  0  0  0  0  0  0  # atno 17342 bound_to 10162
  139.8350  143.7640  152.3180 LP  0  0  0  0  0  0  0  0  0  0  0  0  # atno 17343 bound_to 10162
  157.6465  131.0903  150.8141 LP  0  0  0  0  0  0  0  0  0  0  0  0  # atno 17370 bound_to 10713
  156.8229  130.4990  149.5341 LP  0  0  0  0  0  0  0  0  0  0  0  0  # atno 17371 bound_to 10713
  139.8722  134.9425  156.3826 LP  0  0  0  0  0  0  0  0  0  0  0  0  # atno 17394 bound_to 11000
  140.9302  133.7584  156.0015 LP  0  0  0  0  0  0  0  0  0  0  0  0  # atno 17395 bound_to 11000

$$$$
