AV-unprocessed.smi:3148|AV-procd|sdf|11995|dock8
  -GOLD-   2272017403D 1   1.00000     0.00000
 Structure written by MMmdl.
 35 37  0  0  0  0  0  0  0  0  2 V2000
  152.6688  138.0615  156.2068 C   0  0  0  0  0  0  0  0  0  0  0  0
  152.6552  139.3500  156.8119 O   0  0  0  0  0  0  0  0  0  0  0  0
  151.6973  140.2546  156.4023 C   0  0  0  0  0  0  0  0  0  0  0  0
  150.8160  139.9087  155.3648 C   0  0  0  0  0  0  0  0  0  0  0  0
  149.8582  140.8710  154.9909 C   0  0  0  0  0  0  0  0  0  0  0  0
  148.8484  140.6167  153.8923 C   0  0  0  0  0  0  0  0  0  0  0  0
  149.8160  142.0700  155.6236 N   0  3  0  0  0  0  0  0  0  0  0  0
  150.6858  142.3384  156.6087 C   0  0  0  0  0  0  0  0  0  0  0  0
  150.5932  143.5726  157.2263 N   0  0  0  0  0  0  0  0  0  0  0  0
  151.4643  144.0105  158.3095 C   0  0  2  0  0  0  0  0  0  0  0  0
  151.6922  142.9258  159.3703 C   0  0  0  0  0  0  0  0  0  0  0  0
  151.2290  143.6331  160.6498 C   0  0  1  0  0  0  0  0  0  0  0  0
  152.1806  144.7630  161.0661 C   0  0  0  0  0  0  0  0  0  0  0  0
  151.8715  145.8333  160.0197 C   0  0  0  0  0  0  0  0  0  0  0  0
  150.8234  145.1295  159.1468 C   0  0  2  0  0  0  0  0  0  0  0  0
  150.1398  144.3809  160.1390 O   0  0  0  0  0  0  0  0  0  0  0  0
  151.6190  141.4627  157.0072 N   0  0  0  0  0  0  0  0  0  0  0  0
  153.4827  137.4729  156.6297 H   0  0  0  0  0  0  0  0  0  0  0  0
  152.8333  138.1273  155.1302 H   0  0  0  0  0  0  0  0  0  0  0  0
  151.7390  137.5223  156.3942 H   0  0  0  0  0  0  0  0  0  0  0  0
  150.8734  138.9450  154.8798 H   0  0  0  0  0  0  0  0  0  0  0  0
  149.0470  139.6718  153.3858 H   0  0  0  0  0  0  0  0  0  0  0  0
  148.8837  141.4142  153.1495 H   0  0  0  0  0  0  0  0  0  0  0  0
  147.8409  140.5764  154.3074 H   0  0  0  0  0  0  0  0  0  0  0  0
  149.7877  144.1416  157.0101 H   0  0  0  0  0  0  0  0  0  0  0  0
  152.4078  144.3566  157.8852 H   0  0  0  0  0  0  0  0  0  0  0  0
  151.0769  142.0436  159.1860 H   0  0  0  0  0  0  0  0  0  0  0  0
  152.7328  142.6043  159.4253 H   0  0  0  0  0  0  0  0  0  0  0  0
  150.9662  142.9532  161.4606 H   0  0  0  0  0  0  0  0  0  0  0  0
  151.9414  145.1260  162.0663 H   0  0  0  0  0  0  0  0  0  0  0  0
  153.2247  144.4487  161.0566 H   0  0  0  0  0  0  0  0  0  0  0  0
  151.4471  146.7191  160.4940 H   0  0  0  0  0  0  0  0  0  0  0  0
  152.7513  146.1393  159.4527 H   0  0  0  0  0  0  0  0  0  0  0  0
  150.1948  145.8182  158.5811 H   0  0  0  0  0  0  0  0  0  0  0  0
  149.1155  142.7576  155.3452 H   0  0  0  0  0  0  0  0  0  0  0  0
  1  2  1  0  0  0  0
  1 18  1  0  0  0  0
  1 19  1  0  0  0  0
  1 20  1  0  0  0  0
  2  3  1  0  0  0  0
  3 17  1  0  0  0  0
  3  4  2  0  0  0  0
  4  5  1  0  0  0  0
  4 21  1  0  0  0  0
  5  6  1  0  0  0  0
  5  7  2  0  0  0  0
  6 22  1  0  0  0  0
  6 23  1  0  0  0  0
  6 24  1  0  0  0  0
  7  8  1  0  0  0  0
  7 35  1  0  0  0  0
  8  9  1  0  0  0  0
  8 17  2  0  0  0  0
  9 10  1  0  0  0  0
  9 25  1  0  0  0  0
 10 15  1  0  0  0  0
 10 11  1  0  0  0  0
 10 26  1  0  0  0  0
 11 12  1  0  0  0  0
 11 27  1  0  0  0  0
 11 28  1  0  0  0  0
 12 16  1  0  0  0  0
 12 13  1  0  0  0  0
 12 29  1  0  0  0  0
 13 14  1  0  0  0  0
 13 30  1  0  0  0  0
 13 31  1  0  0  0  0
 14 15  1  0  0  0  0
 14 32  1  0  0  0  0
 14 33  1  0  0  0  0
 15 16  1  0  0  0  0
 15 34  1  0  0  0  0
M  CHG  1   7   1
M  END
> <s_m_source_file>
AV-unprocessed.smi

> <i_m_source_file_index>
3148

> <i_lp_mmshare_version>
43012

> <i_f3d_flags>
0

> <s_epik_input>
W0NIM11PYzFbY0hdYyhbQ0gzXSluYyhuMSlbTkhdW0NASF0oW0NIMl1bQ0BASF0yMylbQ0BASF0oTzMpW0NIMl1bQ0gyXTI=

> <s_epik_cmdline>
J2VwaWtfcHl0aG9uJywgJy1waCcsICc3LjAnLCAnLXRuJywgJzgnLCAnLW1hJywgJzIwMCcsICctbWV0YWxfYmluZGluZycsICctaW1hZScsICc8aW5maWxlLm1hZT4nLCAnLW9tYWUnLCAnPG91dGZpbGUubWFlPic=

> <r_lp_tautomer_probability>
0.999985

> <r_epik_Ionization_Penalty>
1.09461

> <r_epik_Ionization_Penalty_Charging>
1.0946

> <r_epik_Ionization_Penalty_Neutral>
6.69406e-06

> <r_epik_State_Penalty>
1.15119

> <r_epik_Charging_Adjusted_Penalty>
2.24579

> <i_epik_Tot_Q>
1

> <i_epik_Tot_abs_Q>
1

> <r_epik_Metal_State_Penalty>
1.2392

> <b_epik_Metal_Only>
0

> <s_lp_Force_Field>
OPLS_2005

> <r_lp_Energy>
35.8621

> <b_lp_Chiralities_Consistent>
1

> <s_lp_Variant>
AV-unprocessed.smi:3148-5

> <Gold.Version>
5.8.1

> <Gold.Id.Protein>
6NUR|6NUR_protein|mol2

> <Gold.PLP.Fitness>
45.2221

> <Gold.PLP.PLP>
-33.2077

> <Gold.PLP.part.hbond>
-3.1804

> <Gold.PLP.part.metal>
0.0000

> <Gold.PLP.part.buried>
1.6851

> <Gold.PLP.part.nonpolar>
-31.6497

> <Gold.PLP.part.repulsive>
0.3359

> <Gold.PLP.ligand.clash>
0.0558

> <Gold.PLP.ligand.torsion>
0.2744

> <Gold.PLP.Chemscore.Hbond>
4.2000

> <Gold.PLP.Chemscore.CHOScore>
0.0000

> <Gold.PLP.Chemscore.Metal>
0.0000

> <Gold.Chemscore.Hbonds>
donor molecule, donor type, donor heavy atom, donor atom, acceptor molecule, acceptor atom, score
      L1  H     7    35       P1  8028  1.41
      L1  H     9    25       P1  8028  1.66
      P1  H  7997  8009       L1     2  1.00

> <Gold.PLP.Chemscore.Internal.Correction>
0.0190

> <Gold.Rescore>
     Score         DG    S(hbond)    S(metal)    S(lipo)     H(rot)  DE(clash)    DE(int)     intcor
     16.40     -19.47       1.77        0.00      96.17       1.24       1.68       1.40       ----

> <Gold.Chemscore.Fitness>
16.3978

> <Gold.Chemscore.DG>
-19.4726

> <Gold.Chemscore.ZeroCoef>
-5.4800

> <Gold.Chemscore.Hbond>
1.7693

> <Gold.Chemscore.Metal>
0.0000

> <Gold.Chemscore.Lipo>
96.1657

> <Gold.Chemscore.Internal_Hbond>
0.0000

> <Gold.Chemscore.DEClash>
1.6790

> <Gold.Chemscore.DEInternal>
1.3958

> <Gold.Chemscore.Rot>
1.2376

> <Gold.Chemscore.Internal.Correction>
   9.000000E+99

> <Gold.Chemscore.Hbonds>
donor molecule, donor type, donor heavy atom, donor atom, acceptor molecule, acceptor atom, score
      L1  H     7    35       P1  8028  0.68
      L1  H     9    25       P1  8028  0.65
      P1  H  7997  8009       L1     2  0.56

> <Gold.Chemscore.Hbond.Weighted>
-5.9094

> <Gold.Chemscore.Metal.Weighted>
-0.0000

> <Gold.Chemscore.Lipo.Weighted>
-11.2514

> <Gold.Chemscore.Internal_Hbond.Weighted>
0.0000

> <Gold.Chemscore.DEClash.Weighted>
1.6790

> <Gold.Chemscore.DEInternal.Weighted>
1.3958

> <Gold.Chemscore.Rot.Weighted>
3.1681

> <Gold.Chemscore.Internal.Correction.Weighted>
   9.000000E+99

> <Gold.Protein.RotatedTorsions>
[ 6907 6896 6895 6894 ] final -148.27 input  -60.11 | X-H torsion
[ 7974 7965 7964 7962 ] final    8.46 input  175.53 | X-H torsion
[ 8008 7997 7996 7995 ] final  172.46 input   59.86 | X-H torsion
[ 10167 10162 10161 10158 ] final  -39.10 input  -65.29 | X-H torsion
[ 10718 10713 10712 10709 ] final -144.44 input   66.30 | X-H torsion
[ 10763 10752 10751 10750 ] final  -41.35 input  -60.55 | X-H torsion
[ 11005 11000 10999 10996 ] final    5.23 input  -57.11 | X-H torsion

> <Gold.Protein.ActiveResidues>
 VAL166  LYS551  ARG553  GLY616  TRP617  ASP618  TYR619  PRO620  LYS621  CYS622 
 ASP623  PHE694  ASN695  SER759  ASP760  ASP761  ALA762  ILE779  LEU786  VAL792 
 PHE793  MET794  SER795  GLU796  ALA797  LYS798  CYS799  TRP800  GLU811  SER814 

> <Gold.Protein.RotatedAtoms>
  151.1674  133.4806  159.2593 H   0  0  0  0  0  0  0  0  0  0  0  0  # atno 6907 bound_to 6896
  151.1391  135.0170  159.8627 H   0  0  0  0  0  0  0  0  0  0  0  0  # atno 6908 bound_to 6896
  152.5462  134.1570  159.8595 H   0  0  0  0  0  0  0  0  0  0  0  0  # atno 6909 bound_to 6896
  146.2416  139.9930  142.8424 H   0  0  0  0  0  0  0  0  0  0  0  0  # atno 7974 bound_to 7965
  156.1172  140.1485  156.9256 H   0  0  0  0  0  0  0  0  0  0  0  0  # atno 8008 bound_to 7997
  154.4809  140.0879  156.7417 H   0  0  0  0  0  0  0  0  0  0  0  0  # atno 8009 bound_to 7997
  155.4492  140.3434  155.4301 H   0  0  0  0  0  0  0  0  0  0  0  0  # atno 8010 bound_to 7997
  140.7074  143.3235  151.2735 H   0  0  0  0  0  0  0  0  0  0  0  0  # atno 10167 bound_to 10162
  156.3701  130.7783  151.1963 H   0  0  0  0  0  0  0  0  0  0  0  0  # atno 10718 bound_to 10713
  153.9611  135.6739  153.4745 H   0  0  0  0  0  0  0  0  0  0  0  0  # atno 10763 bound_to 10752
  153.0838  135.4910  154.8552 H   0  0  0  0  0  0  0  0  0  0  0  0  # atno 10764 bound_to 10752
  154.7272  135.3130  154.8911 H   0  0  0  0  0  0  0  0  0  0  0  0  # atno 10765 bound_to 10752
  140.5731  134.0084  155.8016 H   0  0  0  0  0  0  0  0  0  0  0  0  # atno 11005 bound_to 11000
  145.1486  140.9610  143.4446 LP  0  0  0  0  0  0  0  0  0  0  0  0  # atno 17320 bound_to 7965
  145.0227  139.3410  143.6064 LP  0  0  0  0  0  0  0  0  0  0  0  0  # atno 17321 bound_to 7965
  139.6696  144.0043  152.2745 LP  0  0  0  0  0  0  0  0  0  0  0  0  # atno 17342 bound_to 10162
  139.9637  144.6540  150.8055 LP  0  0  0  0  0  0  0  0  0  0  0  0  # atno 17343 bound_to 10162
  157.7483  131.0374  150.4457 LP  0  0  0  0  0  0  0  0  0  0  0  0  # atno 17370 bound_to 10713
  156.4683  130.4047  149.6534 LP  0  0  0  0  0  0  0  0  0  0  0  0  # atno 17371 bound_to 10713
  141.1044  133.9717  157.3023 LP  0  0  0  0  0  0  0  0  0  0  0  0  # atno 17394 bound_to 11000
  139.9352  135.0197  156.8533 LP  0  0  0  0  0  0  0  0  0  0  0  0  # atno 17395 bound_to 11000

$$$$
