AV-unprocessed.smi:2751|AV-procd|sdf|10598|dock5
  -GOLD-   2272015 53D 1   1.00000     0.00000
 Structure written by MMmdl.
 35 36  0  0  0  0  0  0  0  0  2 V2000
  147.0742  137.6286  153.8860 O   0  0  0  0  0  0  0  0  0  0  0  0
  146.2553  138.4091  153.3993 C   0  0  0  0  0  0  0  0  0  0  0  0
  146.2066  139.7157  153.6995 N   0  0  0  0  0  0  0  0  0  0  0  0
  147.0976  140.3902  154.6372 C   0  0  0  0  0  0  0  0  0  0  0  0
  148.5267  140.5022  154.0783 C   0  0  0  0  0  0  0  0  0  0  0  0
  149.5611  139.7396  154.9211 C   0  0  1  0  0  0  0  0  0  0  0  0
  150.0458  138.4594  154.2131 C   0  0  0  0  0  0  0  0  0  0  0  0
  151.1366  137.7654  155.0362 C   0  0  0  0  0  0  0  0  0  0  0  0
  152.2525  138.7639  155.3602 C   0  0  0  0  0  0  0  0  0  0  0  0
  151.6653  140.0292  156.0049 C   0  0  0  0  0  0  0  0  0  0  0  0
  150.6779  140.5971  155.1497 O   0  0  0  0  0  0  0  0  0  0  0  0
  145.3043  138.0697  152.5125 N   0  0  0  0  0  0  0  0  0  0  0  0
  145.0546  136.7806  151.9772 C   0  0  0  0  0  0  0  0  0  0  0  0
  145.9610  135.8793  151.5916 N   0  3  0  0  0  0  0  0  0  0  0  0
  145.3103  134.7622  151.1318 C   0  0  0  0  0  0  0  0  0  0  0  0
  143.9698  135.0343  151.2599 C   0  0  0  0  0  0  0  0  0  0  0  0
  143.7949  136.2980  151.7893 O   0  0  0  0  0  0  0  0  0  0  0  0
  145.5031  140.2866  153.2537 H   0  0  0  0  0  0  0  0  0  0  0  0
  146.7015  141.3762  154.8860 H   0  0  0  0  0  0  0  0  0  0  0  0
  147.1066  139.8178  155.5651 H   0  0  0  0  0  0  0  0  0  0  0  0
  148.5391  140.1133  153.0592 H   0  0  0  0  0  0  0  0  0  0  0  0
  148.8203  141.5505  154.0103 H   0  0  0  0  0  0  0  0  0  0  0  0
  149.1098  139.4738  155.8789 H   0  0  0  0  0  0  0  0  0  0  0  0
  149.2116  137.7761  154.0519 H   0  0  0  0  0  0  0  0  0  0  0  0
  150.4392  138.7107  153.2272 H   0  0  0  0  0  0  0  0  0  0  0  0
  150.7090  137.3787  155.9620 H   0  0  0  0  0  0  0  0  0  0  0  0
  151.5371  136.9091  154.4931 H   0  0  0  0  0  0  0  0  0  0  0  0
  152.9878  138.3072  156.0232 H   0  0  0  0  0  0  0  0  0  0  0  0
  152.7806  139.0335  154.4447 H   0  0  0  0  0  0  0  0  0  0  0  0
  151.2310  139.8039  156.9801 H   0  0  0  0  0  0  0  0  0  0  0  0
  152.4527  140.7646  156.1703 H   0  0  0  0  0  0  0  0  0  0  0  0
  146.9695  135.9702  151.6198 H   0  0  0  0  0  0  0  0  0  0  0  0
  145.8551  133.9031  150.7670 H   0  0  0  0  0  0  0  0  0  0  0  0
  143.0712  134.4773  151.0371 H   0  0  0  0  0  0  0  0  0  0  0  0
  144.6954  138.8068  152.1891 H   0  0  0  0  0  0  0  0  0  0  0  0
  1  2  2  0  0  0  0
  2 12  1  0  0  0  0
  2  3  1  0  0  0  0
  3  4  1  0  0  0  0
  3 18  1  0  0  0  0
  4  5  1  0  0  0  0
  4 19  1  0  0  0  0
  4 20  1  0  0  0  0
  5  6  1  0  0  0  0
  5 21  1  0  0  0  0
  5 22  1  0  0  0  0
  6 11  1  0  0  0  0
  6  7  1  0  0  0  0
  6 23  1  0  0  0  0
  7  8  1  0  0  0  0
  7 24  1  0  0  0  0
  7 25  1  0  0  0  0
  8  9  1  0  0  0  0
  8 26  1  0  0  0  0
  8 27  1  0  0  0  0
  9 10  1  0  0  0  0
  9 28  1  0  0  0  0
  9 29  1  0  0  0  0
 10 11  1  0  0  0  0
 10 30  1  0  0  0  0
 10 31  1  0  0  0  0
 12 13  1  0  0  0  0
 12 35  1  0  0  0  0
 13 17  1  0  0  0  0
 13 14  2  0  0  0  0
 14 32  1  0  0  0  0
 14 15  1  0  0  0  0
 15 33  1  0  0  0  0
 15 16  2  0  0  0  0
 16 34  1  0  0  0  0
 16 17  1  0  0  0  0
M  CHG  1  14   1
M  END
> <s_m_source_file>
AV-unprocessed.smi

> <i_m_source_file_index>
2751

> <i_lp_mmshare_version>
43012

> <i_f3d_flags>
0

> <s_epik_input>
bzFbY0hdW2NIXW5jMVtOSF1DKD1PKVtOSF1bQ0gyXVtDSDJdW0NAQEhdMltDSDJdW0NIMl1bQ0gyXVtDSDJdTzI=

> <s_epik_cmdline>
J2VwaWtfcHl0aG9uJywgJy1waCcsICc3LjAnLCAnLXRuJywgJzgnLCAnLW1hJywgJzIwMCcsICctbWV0YWxfYmluZGluZycsICctaW1hZScsICc8aW5maWxlLm1hZT4nLCAnLW9tYWUnLCAnPG91dGZpbGUubWFlPic=

> <r_epik_Ionization_Penalty>
6.63408

> <r_epik_Ionization_Penalty_Charging>
6.57733

> <r_epik_Ionization_Penalty_Neutral>
0.0567487

> <r_epik_State_Penalty>
1.8175

> <r_epik_Charging_Adjusted_Penalty>
8.39483

> <i_epik_Tot_Q>
1

> <i_epik_Tot_abs_Q>
1

> <r_epik_Metal_State_Penalty>
1.83396

> <b_epik_Metal_Only>
0

> <s_lp_Force_Field>
OPLS_2005

> <r_lp_Energy>
17.5714

> <b_lp_Chiralities_Consistent>
1

> <s_lp_Variant>
AV-unprocessed.smi:2751-4

> <Gold.Version>
5.8.1

> <Gold.Id.Protein>
6NUR|6NUR_protein|mol2

> <Gold.PLP.Fitness>
43.4705

> <Gold.PLP.PLP>
-28.4926

> <Gold.PLP.part.hbond>
-4.8898

> <Gold.PLP.part.metal>
0.0000

> <Gold.PLP.part.buried>
-3.0508

> <Gold.PLP.part.nonpolar>
-23.4858

> <Gold.PLP.part.repulsive>
2.3069

> <Gold.PLP.ligand.clash>
0.0000

> <Gold.PLP.ligand.torsion>
1.4134

> <Gold.PLP.Chemscore.Hbond>
4.9280

> <Gold.PLP.Chemscore.CHOScore>
1.0000

> <Gold.PLP.Chemscore.Metal>
0.0000

> <Gold.Chemscore.Hbonds>
donor molecule, donor type, donor heavy atom, donor atom, acceptor molecule, acceptor atom, score
      L1  H     3    18       P1 10175  1.00
      L1  H    12    35       P1 10175  1.00
      L1  H    14    32       P1  7948  2.00
      P1  H  7989  7998       L1    11  0.94
      L1  C    16    34       P1 10186  1.00

> <Gold.PLP.Chemscore.Internal.Correction>
0.0207

> <Gold.Rescore>
     Score         DG    S(hbond)    S(metal)    S(lipo)     H(rot)  DE(clash)    DE(int)     intcor
     14.68     -17.67       2.82        0.00      60.00       1.66       1.60       1.39       ----

> <Gold.Chemscore.Fitness>
14.6800

> <Gold.Chemscore.DG>
-17.6693

> <Gold.Chemscore.ZeroCoef>
-5.4800

> <Gold.Chemscore.Hbond>
2.8179

> <Gold.Chemscore.Metal>
0.0000

> <Gold.Chemscore.Lipo>
60.0040

> <Gold.Chemscore.Internal_Hbond>
0.0000

> <Gold.Chemscore.DEClash>
1.5987

> <Gold.Chemscore.DEInternal>
1.3907

> <Gold.Chemscore.Rot>
1.6575

> <Gold.Chemscore.Internal.Correction>
   9.000000E+99

> <Gold.Chemscore.Hbonds>
donor molecule, donor type, donor heavy atom, donor atom, acceptor molecule, acceptor atom, score
      L1  H     3    18       P1 10175  0.91
      L1  H    12    35       P1 10175  0.96
      L1  H    14    32       P1  7948  0.97
      P1  H  7989  7998       L1    11  0.27

> <Gold.Chemscore.Hbond.Weighted>
-9.4120

> <Gold.Chemscore.Metal.Weighted>
-0.0000

> <Gold.Chemscore.Lipo.Weighted>
-7.0205

> <Gold.Chemscore.Internal_Hbond.Weighted>
0.0000

> <Gold.Chemscore.DEClash.Weighted>
1.5987

> <Gold.Chemscore.DEInternal.Weighted>
1.3907

> <Gold.Chemscore.Rot.Weighted>
4.2431

> <Gold.Chemscore.Internal.Correction.Weighted>
   9.000000E+99

> <Gold.Protein.RotatedTorsions>
[ 6907 6896 6895 6894 ] final   75.83 input  -60.11 | X-H torsion
[ 7974 7965 7964 7962 ] final   28.56 input  175.53 | X-H torsion
[ 8008 7997 7996 7995 ] final  159.48 input   59.86 | X-H torsion
[ 10167 10162 10161 10158 ] final    1.54 input  -65.29 | X-H torsion
[ 10718 10713 10712 10709 ] final -145.60 input   66.30 | X-H torsion
[ 10763 10752 10751 10750 ] final  103.08 input  -60.55 | X-H torsion
[ 11005 11000 10999 10996 ] final  145.65 input  -57.11 | X-H torsion

> <Gold.Protein.ActiveResidues>
 VAL166  LYS551  ARG553  GLY616  TRP617  ASP618  TYR619  PRO620  LYS621  CYS622 
 ASP623  PHE694  ASN695  SER759  ASP760  ASP761  ALA762  ILE779  LEU786  VAL792 
 PHE793  MET794  SER795  GLU796  ALA797  LYS798  CYS799  TRP800  GLU811  SER814 

> <Gold.Protein.RotatedAtoms>
  152.5044  134.4062  159.9432 H   0  0  0  0  0  0  0  0  0  0  0  0  # atno 6907 bound_to 6896
  151.4028  133.3746  159.2742 H   0  0  0  0  0  0  0  0  0  0  0  0  # atno 6908 bound_to 6896
  150.9349  134.8783  159.7634 H   0  0  0  0  0  0  0  0  0  0  0  0  # atno 6909 bound_to 6896
  146.1722  139.7040  142.8959 H   0  0  0  0  0  0  0  0  0  0  0  0  # atno 7974 bound_to 7965
  156.2236  140.1830  156.7418 H   0  0  0  0  0  0  0  0  0  0  0  0  # atno 8008 bound_to 7997
  154.5904  140.0651  156.9259 H   0  0  0  0  0  0  0  0  0  0  0  0  # atno 8009 bound_to 7997
  155.2345  140.3317  155.4302 H   0  0  0  0  0  0  0  0  0  0  0  0  # atno 8010 bound_to 7997
  140.6678  143.7133  150.7861 H   0  0  0  0  0  0  0  0  0  0  0  0  # atno 10167 bound_to 10162
  156.3844  130.7854  151.2049 H   0  0  0  0  0  0  0  0  0  0  0  0  # atno 10718 bound_to 10713
  153.3480  135.3988  155.1624 H   0  0  0  0  0  0  0  0  0  0  0  0  # atno 10763 bound_to 10752
  154.8657  135.3649  154.5259 H   0  0  0  0  0  0  0  0  0  0  0  0  # atno 10764 bound_to 10752
  153.5709  135.7079  153.5565 H   0  0  0  0  0  0  0  0  0  0  0  0  # atno 10765 bound_to 10752
  140.0730  134.9141  157.1376 H   0  0  0  0  0  0  0  0  0  0  0  0  # atno 11005 bound_to 11000
  145.4309  141.0415  143.2911 LP  0  0  0  0  0  0  0  0  0  0  0  0  # atno 17320 bound_to 7965
  144.8180  139.5842  143.6999 LP  0  0  0  0  0  0  0  0  0  0  0  0  # atno 17321 bound_to 7965
  140.0813  143.4966  152.2529 LP  0  0  0  0  0  0  0  0  0  0  0  0  # atno 17342 bound_to 10162
  139.5933  144.7558  151.3347 LP  0  0  0  0  0  0  0  0  0  0  0  0  # atno 17343 bound_to 10162
  157.7495  131.0334  150.4271 LP  0  0  0  0  0  0  0  0  0  0  0  0  # atno 17370 bound_to 10713
  156.4521  130.4014  149.6629 LP  0  0  0  0  0  0  0  0  0  0  0  0  # atno 17371 bound_to 10713
  140.3600  134.2505  155.7188 LP  0  0  0  0  0  0  0  0  0  0  0  0  # atno 17394 bound_to 11000
  141.2019  133.7952  157.0419 LP  0  0  0  0  0  0  0  0  0  0  0  0  # atno 17395 bound_to 11000

$$$$
