AV-unprocessed.smi:2032|AV-procd|sdf|8240|dock1
  -GOLD-   2272010513D 1   1.00000     0.00000
 Structure written by MMmdl.
 43 44  0  0  0  0  0  0  0  0  2 V2000
  148.6085  141.7845  154.1561 C   0  0  0  0  0  0  0  0  0  0  0  0
  148.9835  140.3892  154.6666 C   0  0  1  0  0  0  0  0  0  0  0  0
  148.5539  139.2777  153.6880 C   0  0  0  0  0  0  0  0  0  0  0  0
  148.9597  137.9360  154.1882 N   0  3  2  0  0  0  0  0  0  0  0  0
  148.1592  137.3597  155.3208 C   0  0  1  0  0  0  0  0  0  0  0  0
  146.6919  137.8516  155.3476 C   0  0  0  0  0  0  0  0  0  0  0  0
  148.1930  135.8084  155.2677 C   0  0  0  0  0  0  0  0  0  0  0  0
  147.8818  135.2734  153.9451 N   0  0  0  0  0  0  0  0  0  0  0  0
  146.7779  134.5722  153.6483 C   0  0  0  0  0  0  0  0  0  0  0  0
  145.9029  134.3101  154.4747 O   0  0  0  0  0  0  0  0  0  0  0  0
  146.7616  134.2085  152.3541 N   0  0  0  0  0  0  0  0  0  0  0  0
  145.7600  133.4790  151.6611 C   0  0  0  0  0  0  0  0  0  0  0  0
  145.8523  132.1815  151.3469 N   0  0  0  0  0  0  0  0  0  0  0  0
  144.7190  131.7246  150.6691 C   0  0  0  0  0  0  0  0  0  0  0  0
  143.7666  132.6940  150.4762 C   0  0  0  0  0  0  0  0  0  0  0  0
  144.2588  134.2293  151.1395 S   0  0  0  0  0  0  0  0  0  0  0  0
  150.4304  137.9438  154.4224 C   0  0  0  0  0  0  0  0  0  0  0  0
  150.8571  139.1026  155.3526 C   0  0  1  0  0  0  0  0  0  0  0  0
  152.3803  139.1878  155.5000 C   0  0  0  0  0  0  0  0  0  0  0  0
  150.3985  140.3376  154.8125 O   0  0  0  0  0  0  0  0  0  0  0  0
  147.5295  141.8804  154.0331 H   0  0  0  0  0  0  0  0  0  0  0  0
  149.0756  141.9927  153.1930 H   0  0  0  0  0  0  0  0  0  0  0  0
  148.9319  142.5551  154.8564 H   0  0  0  0  0  0  0  0  0  0  0  0
  148.5132  140.2409  155.6399 H   0  0  0  0  0  0  0  0  0  0  0  0
  147.4913  139.3306  153.4563 H   0  0  0  0  0  0  0  0  0  0  0  0
  149.0520  139.4401  152.7309 H   0  0  0  0  0  0  0  0  0  0  0  0
  148.6115  137.6869  156.2563 H   0  0  0  0  0  0  0  0  0  0  0  0
  146.1221  137.3802  156.1481 H   0  0  0  0  0  0  0  0  0  0  0  0
  146.1805  137.6311  154.4102 H   0  0  0  0  0  0  0  0  0  0  0  0
  146.6219  138.9232  155.5325 H   0  0  0  0  0  0  0  0  0  0  0  0
  149.1851  135.4531  155.5479 H   0  0  0  0  0  0  0  0  0  0  0  0
  147.5033  135.3552  155.9781 H   0  0  0  0  0  0  0  0  0  0  0  0
  148.5533  135.4449  153.2108 H   0  0  0  0  0  0  0  0  0  0  0  0
  147.5552  134.4889  151.7970 H   0  0  0  0  0  0  0  0  0  0  0  0
  144.6729  130.6906  150.3601 H   0  0  0  0  0  0  0  0  0  0  0  0
  142.8091  132.5985  149.9860 H   0  0  0  0  0  0  0  0  0  0  0  0
  150.7869  136.9948  154.8173 H   0  0  0  0  0  0  0  0  0  0  0  0
  150.9223  138.0614  153.4557 H   0  0  0  0  0  0  0  0  0  0  0  0
  150.4306  138.9699  156.3473 H   0  0  0  0  0  0  0  0  0  0  0  0
  152.7852  138.2703  155.9279 H   0  0  0  0  0  0  0  0  0  0  0  0
  152.6625  140.0117  156.1559 H   0  0  0  0  0  0  0  0  0  0  0  0
  152.8632  139.3492  154.5359 H   0  0  0  0  0  0  0  0  0  0  0  0
  148.7978  137.3054  153.4159 H   0  0  0  0  0  0  0  0  0  0  0  0
  1  2  1  0  0  0  0
  1 21  1  0  0  0  0
  1 22  1  0  0  0  0
  1 23  1  0  0  0  0
  2 20  1  0  0  0  0
  2  3  1  0  0  0  0
  2 24  1  0  0  0  0
  3  4  1  0  0  0  0
  3 25  1  0  0  0  0
  3 26  1  0  0  0  0
  4  5  1  0  0  0  0
  4 17  1  0  0  0  0
  4 43  1  0  0  0  0
  5  6  1  0  0  0  0
  5  7  1  0  0  0  0
  5 27  1  0  0  0  0
  6 28  1  0  0  0  0
  6 29  1  0  0  0  0
  6 30  1  0  0  0  0
  7  8  1  0  0  0  0
  7 31  1  0  0  0  0
  7 32  1  0  0  0  0
  8  9  1  0  0  0  0
  8 33  1  0  0  0  0
  9 10  2  0  0  0  0
  9 11  1  0  0  0  0
 11 12  1  0  0  0  0
 11 34  1  0  0  0  0
 12 16  1  0  0  0  0
 12 13  2  0  0  0  0
 13 14  1  0  0  0  0
 14 15  2  0  0  0  0
 14 35  1  0  0  0  0
 15 16  1  0  0  0  0
 15 36  1  0  0  0  0
 17 18  1  0  0  0  0
 17 37  1  0  0  0  0
 17 38  1  0  0  0  0
 18 19  1  0  0  0  0
 18 20  1  0  0  0  0
 18 39  1  0  0  0  0
 19 40  1  0  0  0  0
 19 41  1  0  0  0  0
 19 42  1  0  0  0  0
M  CHG  1   4   1
M  END
> <s_m_source_file>
AV-unprocessed.smi

> <i_m_source_file_index>
2032

> <i_lp_mmshare_version>
43012

> <i_f3d_flags>
0

> <s_epik_input>
W0NIM11bQ0BASF0xW0NIMl1OKFtDSDJdW0NASF0oTzEpW0NIM10pW0NASF0oW0NIM10pW0NIMl1bTkhdQyg9TylbTkhdYzJuW2NIXVtjSF1zMg==

> <s_epik_cmdline>
J2VwaWtfcHl0aG9uJywgJy1waCcsICc3LjAnLCAnLXRuJywgJzgnLCAnLW1hJywgJzIwMCcsICctbWV0YWxfYmluZGluZycsICctaW1hZScsICc8aW5maWxlLm1hZT4nLCAnLW9tYWUnLCAnPG91dGZpbGUubWFlPic=

> <r_lp_tautomer_probability>
0.999

> <r_epik_Ionization_Penalty>
0.695838

> <r_epik_Ionization_Penalty_Charging>
0.695697

> <r_epik_Ionization_Penalty_Neutral>
0.000141198

> <r_epik_State_Penalty>
0.717972

> <r_epik_Charging_Adjusted_Penalty>
1.41367

> <i_epik_Tot_Q>
1

> <i_epik_Tot_abs_Q>
1

> <r_epik_Metal_State_Penalty>
0.756405

> <b_epik_Metal_Only>
0

> <s_lp_Force_Field>
OPLS_2005

> <r_lp_Energy>
19.2871

> <b_lp_Chiralities_Consistent>
1

> <s_lp_Variant>
AV-unprocessed.smi:2032-10

> <Gold.Version>
5.8.1

> <Gold.Id.Protein>
6NUR|6NUR_protein|mol2

> <Gold.PLP.Fitness>
45.0748

> <Gold.PLP.PLP>
-31.4993

> <Gold.PLP.part.hbond>
-3.7029

> <Gold.PLP.part.metal>
0.0000

> <Gold.PLP.part.buried>
-2.0410

> <Gold.PLP.part.nonpolar>
-25.8382

> <Gold.PLP.part.repulsive>
0.2713

> <Gold.PLP.ligand.clash>
0.0000

> <Gold.PLP.ligand.torsion>
1.4197

> <Gold.PLP.Chemscore.Hbond>
4.4589

> <Gold.PLP.Chemscore.CHOScore>
0.9947

> <Gold.PLP.Chemscore.Metal>
0.0000

> <Gold.Chemscore.Hbonds>
donor molecule, donor type, donor heavy atom, donor atom, acceptor molecule, acceptor atom, score
      L1  H     4    43       P1  7948  2.00
      L1  H     8    33       P1  7948  1.00
      L1  H    11    34       P1  7948  0.45
      P1  H  7989  7998       L1    20  1.00
      L1  C    15    36       P1 10186  0.83

> <Gold.PLP.Chemscore.Internal.Correction>
0.0544

> <Gold.Rescore>
     Score         DG    S(hbond)    S(metal)    S(lipo)     H(rot)  DE(clash)    DE(int)     intcor
     17.48     -19.29       2.96        0.00      68.69       1.61       0.34       1.47       ----

> <Gold.Chemscore.Fitness>
17.4769

> <Gold.Chemscore.DG>
-19.2850

> <Gold.Chemscore.ZeroCoef>
-5.4800

> <Gold.Chemscore.Hbond>
2.9619

> <Gold.Chemscore.Metal>
0.0000

> <Gold.Chemscore.Lipo>
68.6865

> <Gold.Chemscore.Internal_Hbond>
0.0000

> <Gold.Chemscore.DEClash>
0.3411

> <Gold.Chemscore.DEInternal>
1.4670

> <Gold.Chemscore.Rot>
1.6110

> <Gold.Chemscore.Internal.Correction>
   9.000000E+99

> <Gold.Chemscore.Hbonds>
donor molecule, donor type, donor heavy atom, donor atom, acceptor molecule, acceptor atom, score
      L1  H     4    43       P1  7948  1.00
      L1  H     8    33       P1  7948  0.90
      L1  H    11    34       P1  7948  0.16
      P1  H  7989  7998       L1    20  0.63

> <Gold.Chemscore.Hbond.Weighted>
-9.8928

> <Gold.Chemscore.Metal.Weighted>
-0.0000

> <Gold.Chemscore.Lipo.Weighted>
-8.0363

> <Gold.Chemscore.Internal_Hbond.Weighted>
0.0000

> <Gold.Chemscore.DEClash.Weighted>
0.3411

> <Gold.Chemscore.DEInternal.Weighted>
1.4670

> <Gold.Chemscore.Rot.Weighted>
4.1242

> <Gold.Chemscore.Internal.Correction.Weighted>
   9.000000E+99

> <Gold.Protein.RotatedTorsions>
[ 6907 6896 6895 6894 ] final -163.58 input  -60.11 | X-H torsion
[ 7974 7965 7964 7962 ] final   56.41 input  175.53 | X-H torsion
[ 8008 7997 7996 7995 ] final  -68.14 input   59.86 | X-H torsion
[ 10167 10162 10161 10158 ] final  -34.35 input  -65.29 | X-H torsion
[ 10718 10713 10712 10709 ] final -146.26 input   66.30 | X-H torsion
[ 10763 10752 10751 10750 ] final   56.42 input  -60.55 | X-H torsion
[ 11005 11000 10999 10996 ] final  -15.48 input  -57.11 | X-H torsion

> <Gold.Protein.ActiveResidues>
 VAL166  LYS551  ARG553  GLY616  TRP617  ASP618  TYR619  PRO620  LYS621  CYS622 
 ASP623  PHE694  ASN695  SER759  ASP760  ASP761  ALA762  ILE779  LEU786  VAL792 
 PHE793  MET794  SER795  GLU796  ALA797  LYS798  CYS799  TRP800  GLU811  SER814 

> <Gold.Protein.RotatedAtoms>
  151.3983  133.3766  159.2728 H   0  0  0  0  0  0  0  0  0  0  0  0  # atno 6907 bound_to 6896
  150.9453  134.8859  159.7648 H   0  0  0  0  0  0  0  0  0  0  0  0  # atno 6908 bound_to 6896
  152.5089  134.3935  159.9444 H   0  0  0  0  0  0  0  0  0  0  0  0  # atno 6909 bound_to 6896
  145.9401  139.3881  143.0369 H   0  0  0  0  0  0  0  0  0  0  0  0  # atno 7974 bound_to 7965
  154.4848  140.0878  156.7460 H   0  0  0  0  0  0  0  0  0  0  0  0  # atno 8008 bound_to 7997
  155.4379  140.3452  155.4268 H   0  0  0  0  0  0  0  0  0  0  0  0  # atno 8009 bound_to 7997
  156.1245  140.1483  156.9145 H   0  0  0  0  0  0  0  0  0  0  0  0  # atno 8010 bound_to 7997
  140.7187  143.3554  151.2070 H   0  0  0  0  0  0  0  0  0  0  0  0  # atno 10167 bound_to 10162
  156.3927  130.7894  151.2097 H   0  0  0  0  0  0  0  0  0  0  0  0  # atno 10718 bound_to 10713
  152.9832  135.5677  154.5226 H   0  0  0  0  0  0  0  0  0  0  0  0  # atno 10763 bound_to 10752
  154.4711  135.2785  155.1643 H   0  0  0  0  0  0  0  0  0  0  0  0  # atno 10764 bound_to 10752
  154.3191  135.6272  153.5553 H   0  0  0  0  0  0  0  0  0  0  0  0  # atno 10765 bound_to 10752
  140.7971  133.8243  155.9434 H   0  0  0  0  0  0  0  0  0  0  0  0  # atno 11005 bound_to 11000
  145.8311  140.9630  143.0848 LP  0  0  0  0  0  0  0  0  0  0  0  0  # atno 17320 bound_to 7965
  144.6778  140.0164  143.7484 LP  0  0  0  0  0  0  0  0  0  0  0  0  # atno 17321 bound_to 7965
  139.7094  143.9401  152.2941 LP  0  0  0  0  0  0  0  0  0  0  0  0  # atno 17342 bound_to 10162
  139.9121  144.6850  150.8551 LP  0  0  0  0  0  0  0  0  0  0  0  0  # atno 17343 bound_to 10162
  157.7500  131.0311  150.4165 LP  0  0  0  0  0  0  0  0  0  0  0  0  # atno 17370 bound_to 10713
  156.4429  130.3995  149.6685 LP  0  0  0  0  0  0  0  0  0  0  0  0  # atno 17371 bound_to 10713
  140.9332  134.1995  157.4849 LP  0  0  0  0  0  0  0  0  0  0  0  0  # atno 17394 bound_to 11000
  139.8725  134.9841  156.5227 LP  0  0  0  0  0  0  0  0  0  0  0  0  # atno 17395 bound_to 11000

$$$$
