AV-unprocessed.smi:1005|AV-procd|sdf|4382|dock10
  -GOLD-   22720 2303D 1   1.00000     0.00000
 Structure written by MMmdl.
 58 60  0  0  0  0  0  0  0  0  4 V2000
  152.0605  144.6839  160.6695 C   0  0  0  0  0  0  0  0  0  0  0  0
  151.8873  143.5766  159.6439 C   0  0  0  0  0  0  0  0  0  0  0  0
  151.1672  143.8593  158.4612 C   0  0  0  0  0  0  0  0  0  0  0  0
  151.0280  142.8271  157.5411 C   0  0  0  0  0  0  0  0  0  0  0  0
  150.3879  142.7857  156.3006 N   0  3  0  0  0  0  0  0  0  0  0  0
  150.5223  141.5427  155.7606 C   0  0  0  0  0  0  0  0  0  0  0  0
  151.2419  140.7902  156.6375 N   0  0  0  0  0  0  0  0  0  0  0  0
  151.6741  139.3888  156.5504 C   0  0  0  0  0  0  0  0  0  0  0  0
  150.9993  138.6242  155.3940 C   0  0  2  0  0  0  0  0  0  0  0  0
  151.4571  139.1449  154.1609 O   0  0  0  0  0  0  0  0  0  0  0  0
  149.4627  138.7385  155.4458 C   0  0  0  0  0  0  0  0  0  0  0  0
  148.8640  137.8491  156.4780 N   0  3  1  0  0  0  0  0  0  0  0  0
  147.6181  138.3680  157.0982 C   0  0  0  0  0  0  0  0  0  0  0  0
  146.3985  138.1510  156.1830 C   0  0  0  0  0  0  0  0  0  0  0  0
  146.2975  136.7760  155.8335 O   0  0  0  0  0  0  0  0  0  0  0  0
  147.4353  136.3056  155.1177 C   0  0  2  0  0  0  0  0  0  0  0  0
  147.1770  134.8358  154.7362 C   0  0  0  0  0  0  0  0  0  0  0  0
  148.2158  134.2866  153.8270 N   0  3  0  0  0  0  0  0  0  0  0  0
  149.4416  133.8470  154.5329 C   0  0  0  0  0  0  0  0  0  0  0  0
  147.6829  133.2197  152.9511 C   0  0  0  0  0  0  0  0  0  0  0  0
  148.6751  136.4478  156.0270 C   0  0  0  0  0  0  0  0  0  0  0  0
  151.5750  141.5488  157.7648 C   0  0  0  0  0  0  0  0  0  0  0  0
  152.2840  141.2518  158.9260 C   0  0  0  0  0  0  0  0  0  0  0  0
  152.4383  142.2891  159.8735 C   0  0  0  0  0  0  0  0  0  0  0  0
  153.2111  141.9969  161.1484 C   0  0  0  0  0  0  0  0  0  0  0  0
  151.5950  145.6123  160.3372 H   0  0  0  0  0  0  0  0  0  0  0  0
  153.1181  144.8850  160.8414 H   0  0  0  0  0  0  0  0  0  0  0  0
  151.6023  144.4021  161.6178 H   0  0  0  0  0  0  0  0  0  0  0  0
  150.7443  144.8368  158.2803 H   0  0  0  0  0  0  0  0  0  0  0  0
  150.1316  141.2158  154.8077 H   0  0  0  0  0  0  0  0  0  0  0  0
  152.7601  139.3725  156.4490 H   0  0  0  0  0  0  0  0  0  0  0  0
  151.4449  138.9148  157.5060 H   0  0  0  0  0  0  0  0  0  0  0  0
  151.2997  137.5785  155.4457 H   0  0  0  0  0  0  0  0  0  0  0  0
  150.9372  138.7773  153.4622 H   0  0  0  0  0  0  0  0  0  0  0  0
  149.1674  139.7712  155.6312 H   0  0  0  0  0  0  0  0  0  0  0  0
  149.0648  138.4860  154.4618 H   0  0  0  0  0  0  0  0  0  0  0  0
  147.4596  137.8326  158.0353 H   0  0  0  0  0  0  0  0  0  0  0  0
  147.7137  139.4201  157.3636 H   0  0  0  0  0  0  0  0  0  0  0  0
  145.4869  138.4468  156.7024 H   0  0  0  0  0  0  0  0  0  0  0  0
  146.4578  138.7645  155.2834 H   0  0  0  0  0  0  0  0  0  0  0  0
  147.5779  136.9047  154.2179 H   0  0  0  0  0  0  0  0  0  0  0  0
  147.1121  134.2117  155.6290 H   0  0  0  0  0  0  0  0  0  0  0  0
  146.2008  134.7767  154.2520 H   0  0  0  0  0  0  0  0  0  0  0  0
  149.2214  133.0397  155.2328 H   0  0  0  0  0  0  0  0  0  0  0  0
  149.9005  134.6644  155.0877 H   0  0  0  0  0  0  0  0  0  0  0  0
  150.1837  133.4835  153.8211 H   0  0  0  0  0  0  0  0  0  0  0  0
  147.3420  132.3655  153.5374 H   0  0  0  0  0  0  0  0  0  0  0  0
  148.4471  132.8736  152.2541 H   0  0  0  0  0  0  0  0  0  0  0  0
  146.8435  133.5871  152.3599 H   0  0  0  0  0  0  0  0  0  0  0  0
  149.5726  136.0858  155.5243 H   0  0  0  0  0  0  0  0  0  0  0  0
  148.5508  135.8218  156.9119 H   0  0  0  0  0  0  0  0  0  0  0  0
  152.7028  140.2724  159.1011 H   0  0  0  0  0  0  0  0  0  0  0  0
  153.5526  140.9618  161.1804 H   0  0  0  0  0  0  0  0  0  0  0  0
  152.5853  142.1674  162.0246 H   0  0  0  0  0  0  0  0  0  0  0  0
  154.0892  142.6394  161.2190 H   0  0  0  0  0  0  0  0  0  0  0  0
  148.4852  135.0391  153.2088 H   0  0  0  0  0  0  0  0  0  0  0  0
  149.5566  137.8090  157.2133 H   0  0  0  0  0  0  0  0  0  0  0  0
  149.8956  143.5482  155.8526 H   0  0  0  0  0  0  0  0  0  0  0  0
  1  2  1  0  0  0  0
  1 26  1  0  0  0  0
  1 27  1  0  0  0  0
  1 28  1  0  0  0  0
  2 24  1  0  0  0  0
  2  3  2  0  0  0  0
  3  4  1  0  0  0  0
  3 29  1  0  0  0  0
  4 22  2  0  0  0  0
  4  5  1  0  0  0  0
  5  6  2  0  0  0  0
  5 58  1  0  0  0  0
  6  7  1  0  0  0  0
  6 30  1  0  0  0  0
  7  8  1  0  0  0  0
  7 22  1  0  0  0  0
  8  9  1  0  0  0  0
  8 31  1  0  0  0  0
  8 32  1  0  0  0  0
  9 10  1  0  0  0  0
  9 11  1  0  0  0  0
  9 33  1  0  0  0  0
 10 34  1  0  0  0  0
 11 12  1  0  0  0  0
 11 35  1  0  0  0  0
 11 36  1  0  0  0  0
 12 21  1  0  0  0  0
 12 13  1  0  0  0  0
 12 57  1  0  0  0  0
 13 14  1  0  0  0  0
 13 37  1  0  0  0  0
 13 38  1  0  0  0  0
 14 15  1  0  0  0  0
 14 39  1  0  0  0  0
 14 40  1  0  0  0  0
 15 16  1  0  0  0  0
 16 17  1  0  0  0  0
 16 21  1  0  0  0  0
 16 41  1  0  0  0  0
 17 18  1  0  0  0  0
 17 42  1  0  0  0  0
 17 43  1  0  0  0  0
 18 19  1  0  0  0  0
 18 20  1  0  0  0  0
 18 56  1  0  0  0  0
 19 44  1  0  0  0  0
 19 45  1  0  0  0  0
 19 46  1  0  0  0  0
 20 47  1  0  0  0  0
 20 48  1  0  0  0  0
 20 49  1  0  0  0  0
 21 50  1  0  0  0  0
 21 51  1  0  0  0  0
 22 23  1  0  0  0  0
 23 24  2  0  0  0  0
 23 52  1  0  0  0  0
 24 25  1  0  0  0  0
 25 53  1  0  0  0  0
 25 54  1  0  0  0  0
 25 55  1  0  0  0  0
M  CHG  1   5   1
M  CHG  1  12   1
M  CHG  1  18   1
M  END
> <s_m_source_file>
AV-unprocessed.smi

> <i_m_source_file_index>
1005

> <i_lp_mmshare_version>
43012

> <i_f3d_flags>
0

> <s_epik_input>
W0NIM11jKFtjSF0xKWMoW0NIM10pW2NIXWMoYzEyKW4oW2NIXW4yKVtDSDJdW0NASF0oW09IXSlbQ0gyXU4zW0NIMl1bQ0gyXU9bQ0BIXShbQ0gyXTMpW0NIMl1OKFtDSDNdKVtDSDNd

> <s_epik_cmdline>
J2VwaWtfcHl0aG9uJywgJy1waCcsICc3LjAnLCAnLXRuJywgJzgnLCAnLW1hJywgJzIwMCcsICctbWV0YWxfYmluZGluZycsICctaW1hZScsICc8aW5maWxlLm1hZT4nLCAnLW9tYWUnLCAnPG91dGZpbGUubWFlPic=

> <r_epik_Ionization_Penalty>
2.30802

> <r_epik_Ionization_Penalty_Charging>
2.30798

> <r_epik_Ionization_Penalty_Neutral>
3.4851e-05

> <r_epik_State_Penalty>
2.52618

> <r_epik_Charging_Adjusted_Penalty>
4.83416

> <i_epik_Tot_Q>
3

> <i_epik_Tot_abs_Q>
3

> <r_epik_Metal_State_Penalty>
6.53149

> <b_epik_Metal_Only>
0

> <s_lp_Force_Field>
OPLS_2005

> <r_lp_Energy>
46.1367

> <b_lp_Chiralities_Consistent>
1

> <s_lp_Variant>
AV-unprocessed.smi:1005-21

> <Gold.Version>
5.8.1

> <Gold.Id.Protein>
6NUR|6NUR_protein|mol2

> <Gold.PLP.Fitness>
55.4364

> <Gold.PLP.PLP>
-42.1272

> <Gold.PLP.part.hbond>
-2.9783

> <Gold.PLP.part.metal>
0.0000

> <Gold.PLP.part.buried>
-3.5798

> <Gold.PLP.part.nonpolar>
-35.8065

> <Gold.PLP.part.repulsive>
0.1064

> <Gold.PLP.ligand.clash>
0.0000

> <Gold.PLP.ligand.torsion>
0.9244

> <Gold.PLP.Chemscore.Hbond>
5.0000

> <Gold.PLP.Chemscore.CHOScore>
0.0000

> <Gold.PLP.Chemscore.Metal>
0.0000

> <Gold.Chemscore.Hbonds>
donor molecule, donor type, donor heavy atom, donor atom, acceptor molecule, acceptor atom, score
      L1  H     5    58       P1  8028  2.00
      L1  H    18    56       P1  7948  2.00
      P1  H  7989  7998       L1    10  0.90

> <Gold.PLP.Chemscore.Internal.Correction>
0.1580

> <Gold.Rescore>
     Score         DG    S(hbond)    S(metal)    S(lipo)     H(rot)  DE(clash)    DE(int)     intcor
     16.52     -20.90       2.70        0.00     110.66       2.56       1.51       2.87       ----

> <Gold.Chemscore.Fitness>
16.5188

> <Gold.Chemscore.DG>
-20.8984

> <Gold.Chemscore.ZeroCoef>
-5.4800

> <Gold.Chemscore.Hbond>
2.6995

> <Gold.Chemscore.Metal>
0.0000

> <Gold.Chemscore.Lipo>
110.6593

> <Gold.Chemscore.Internal_Hbond>
0.0000

> <Gold.Chemscore.DEClash>
1.5132

> <Gold.Chemscore.DEInternal>
2.8664

> <Gold.Chemscore.Rot>
2.5566

> <Gold.Chemscore.Internal.Correction>
   9.000000E+99

> <Gold.Chemscore.Hbonds>
donor molecule, donor type, donor heavy atom, donor atom, acceptor molecule, acceptor atom, score
      L1  H     5    58       P1  8028  0.95
      L1  H    18    56       P1  7948  0.78
      P1  H  7989  7998       L1    10  0.17

> <Gold.Chemscore.Hbond.Weighted>
-9.0162

> <Gold.Chemscore.Metal.Weighted>
-0.0000

> <Gold.Chemscore.Lipo.Weighted>
-12.9471

> <Gold.Chemscore.Internal_Hbond.Weighted>
0.0000

> <Gold.Chemscore.DEClash.Weighted>
1.5132

> <Gold.Chemscore.DEInternal.Weighted>
2.8664

> <Gold.Chemscore.Rot.Weighted>
6.5450

> <Gold.Chemscore.Internal.Correction.Weighted>
   9.000000E+99

> <Gold.Protein.RotatedTorsions>
[ 6907 6896 6895 6894 ] final  -14.02 input  -60.11 | X-H torsion
[ 7974 7965 7964 7962 ] final   -4.05 input  175.53 | X-H torsion
[ 8008 7997 7996 7995 ] final  -64.33 input   59.86 | X-H torsion
[ 10167 10162 10161 10158 ] final  -86.45 input  -65.29 | X-H torsion
[ 10718 10713 10712 10709 ] final    9.78 input   66.30 | X-H torsion
[ 10763 10752 10751 10750 ] final   72.81 input  -60.55 | X-H torsion
[ 11005 11000 10999 10996 ] final   59.40 input  -57.11 | X-H torsion

> <Gold.Protein.ActiveResidues>
 VAL166  LYS551  ARG553  GLY616  TRP617  ASP618  TYR619  PRO620  LYS621  CYS622 
 ASP623  PHE694  ASN695  SER759  ASP760  ASP761  ALA762  ILE779  LEU786  VAL792 
 PHE793  MET794  SER795  GLU796  ALA797  LYS798  CYS799  TRP800  GLU811  SER814 

> <Gold.Protein.RotatedAtoms>
  151.3459  135.0874  159.9386 H   0  0  0  0  0  0  0  0  0  0  0  0  # atno 6907 bound_to 6896
  152.5199  133.9401  159.7632 H   0  0  0  0  0  0  0  0  0  0  0  0  # atno 6908 bound_to 6896
  150.9766  133.6234  159.2759 H   0  0  0  0  0  0  0  0  0  0  0  0  # atno 6909 bound_to 6896
  146.2379  140.1813  142.8332 H   0  0  0  0  0  0  0  0  0  0  0  0  # atno 7974 bound_to 7965
  154.4605  140.0956  156.6880 H   0  0  0  0  0  0  0  0  0  0  0  0  # atno 8008 bound_to 7997
  155.5008  140.3473  155.4352 H   0  0  0  0  0  0  0  0  0  0  0  0  # atno 8009 bound_to 7997
  156.0861  140.1385  156.9639 H   0  0  0  0  0  0  0  0  0  0  0  0  # atno 8010 bound_to 7997
  140.3940  143.2692  151.9228 H   0  0  0  0  0  0  0  0  0  0  0  0  # atno 10167 bound_to 10162
  156.9713  130.5970  149.5669 H   0  0  0  0  0  0  0  0  0  0  0  0  # atno 10718 bound_to 10713
  153.0482  135.5086  154.7799 H   0  0  0  0  0  0  0  0  0  0  0  0  # atno 10763 bound_to 10752
  154.6683  135.2949  154.9778 H   0  0  0  0  0  0  0  0  0  0  0  0  # atno 10764 bound_to 10752
  154.0606  135.6691  153.4864 H   0  0  0  0  0  0  0  0  0  0  0  0  # atno 10765 bound_to 10752
  140.0307  134.6017  155.9511 H   0  0  0  0  0  0  0  0  0  0  0  0  # atno 11005 bound_to 11000
  144.9932  140.8566  143.5326 LP  0  0  0  0  0  0  0  0  0  0  0  0  # atno 17320 bound_to 7965
  145.1822  139.2346  143.5286 LP  0  0  0  0  0  0  0  0  0  0  0  0  # atno 17321 bound_to 7965
  139.4787  144.5700  151.8104 LP  0  0  0  0  0  0  0  0  0  0  0  0  # atno 17342 bound_to 10162
  140.4810  144.1449  150.5932 LP  0  0  0  0  0  0  0  0  0  0  0  0  # atno 17343 bound_to 10162
  156.0281  130.5374  150.8462 LP  0  0  0  0  0  0  0  0  0  0  0  0  # atno 17370 bound_to 10713
  157.5590  131.0945  150.9586 LP  0  0  0  0  0  0  0  0  0  0  0  0  # atno 17371 bound_to 10713
  141.1829  133.6550  156.5095 LP  0  0  0  0  0  0  0  0  0  0  0  0  # atno 17394 bound_to 11000
  140.4231  134.7169  157.4901 LP  0  0  0  0  0  0  0  0  0  0  0  0  # atno 17395 bound_to 11000

$$$$
