AV-unprocessed.smi:1285|AV-procd|sdf|5372|dock7
  -GOLD-   22720 4513D 1   1.00000     0.00000
 Structure written by MMmdl.
 47 48  0  0  0  0  0  0  0  0  2 V2000
  145.8901  133.1890  155.6431 C   0  0  0  0  0  0  0  0  0  0  0  0
  146.9770  132.7148  154.6618 C   0  0  0  0  0  0  0  0  0  0  0  0
  147.7691  133.8455  153.9348 C   0  0  2  0  0  0  0  0  0  0  0  0
  148.9631  133.1721  153.2068 C   0  0  0  0  0  0  0  0  0  0  0  0
  148.3060  134.8574  154.9960 C   0  0  0  0  0  0  0  0  0  0  0  0
  149.1187  135.9224  154.4127 N   0  0  0  0  0  0  0  0  0  0  0  0
  149.5017  137.0506  155.0311 C   0  0  0  0  0  0  0  0  0  0  0  0
  149.2745  137.2796  156.2195 O   0  0  0  0  0  0  0  0  0  0  0  0
  150.2149  138.0859  154.1487 C   0  0  2  0  0  0  0  0  0  0  0  0
  151.7174  138.2161  154.4640 C   0  0  0  0  0  0  0  0  0  0  0  0
  149.5338  139.3692  154.2599 N   0  0  0  0  0  0  0  0  0  0  0  0
  148.2698  139.7152  154.0005 C   0  0  0  0  0  0  0  0  0  0  0  0
  148.0225  141.0075  154.1614 N   0  0  0  0  0  0  0  0  0  0  0  0
  149.2633  141.4313  154.5443 C   0  0  0  0  0  0  0  0  0  0  0  0
  150.2073  140.4924  154.6082 N   0  0  0  0  0  0  0  0  0  0  0  0
  146.8823  134.5440  152.9339 N   0  3  0  0  0  0  0  0  0  0  0  0
  146.1990  133.6639  151.9440 C   0  0  0  0  0  0  0  0  0  0  0  0
  145.5031  134.5081  150.8642 C   0  0  0  0  0  0  0  0  0  0  0  0
  144.5680  135.3846  151.4765 O   0  0  0  0  0  0  0  0  0  0  0  0
  145.2034  136.2923  152.3656 C   0  0  0  0  0  0  0  0  0  0  0  0
  145.9005  135.5153  153.4952 C   0  0  0  0  0  0  0  0  0  0  0  0
  145.3953  132.3337  156.1037 H   0  0  0  0  0  0  0  0  0  0  0  0
  145.1193  133.7745  155.1425 H   0  0  0  0  0  0  0  0  0  0  0  0
  146.3045  133.7949  156.4487 H   0  0  0  0  0  0  0  0  0  0  0  0
  147.6593  132.0472  155.1870 H   0  0  0  0  0  0  0  0  0  0  0  0
  146.4914  132.0755  153.9233 H   0  0  0  0  0  0  0  0  0  0  0  0
  149.4814  132.4611  153.8508 H   0  0  0  0  0  0  0  0  0  0  0  0
  149.7111  133.8987  152.8888 H   0  0  0  0  0  0  0  0  0  0  0  0
  148.6410  132.6228  152.3218 H   0  0  0  0  0  0  0  0  0  0  0  0
  147.4900  135.2889  155.5761 H   0  0  0  0  0  0  0  0  0  0  0  0
  148.9480  134.3520  155.7165 H   0  0  0  0  0  0  0  0  0  0  0  0
  149.3566  135.8243  153.4359 H   0  0  0  0  0  0  0  0  0  0  0  0
  150.1273  137.7469  153.1147 H   0  0  0  0  0  0  0  0  0  0  0  0
  152.2296  137.2610  154.3398 H   0  0  0  0  0  0  0  0  0  0  0  0
  151.8927  138.5566  155.4853 H   0  0  0  0  0  0  0  0  0  0  0  0
  152.1945  138.9303  153.7924 H   0  0  0  0  0  0  0  0  0  0  0  0
  147.5189  139.0102  153.6750 H   0  0  0  0  0  0  0  0  0  0  0  0
  149.4795  142.4644  154.7745 H   0  0  0  0  0  0  0  0  0  0  0  0
  146.9009  132.9967  151.4484 H   0  0  0  0  0  0  0  0  0  0  0  0
  145.4557  133.0398  152.4405 H   0  0  0  0  0  0  0  0  0  0  0  0
  146.2312  135.0759  150.2826 H   0  0  0  0  0  0  0  0  0  0  0  0
  144.9726  133.8609  150.1656 H   0  0  0  0  0  0  0  0  0  0  0  0
  145.9168  136.9142  151.8225 H   0  0  0  0  0  0  0  0  0  0  0  0
  144.4509  136.9626  152.7812 H   0  0  0  0  0  0  0  0  0  0  0  0
  145.1525  134.9941  154.0928 H   0  0  0  0  0  0  0  0  0  0  0  0
  146.3800  136.2445  154.1452 H   0  0  0  0  0  0  0  0  0  0  0  0
  147.5195  135.1072  152.3886 H   0  0  0  0  0  0  0  0  0  0  0  0
  1  2  1  0  0  0  0
  1 22  1  0  0  0  0
  1 23  1  0  0  0  0
  1 24  1  0  0  0  0
  2  3  1  0  0  0  0
  2 25  1  0  0  0  0
  2 26  1  0  0  0  0
  3  4  1  0  0  0  0
  3  5  1  0  0  0  0
  3 16  1  0  0  0  0
  4 27  1  0  0  0  0
  4 28  1  0  0  0  0
  4 29  1  0  0  0  0
  5  6  1  0  0  0  0
  5 30  1  0  0  0  0
  5 31  1  0  0  0  0
  6  7  1  0  0  0  0
  6 32  1  0  0  0  0
  7  8  2  0  0  0  0
  7  9  1  0  0  0  0
  9 10  1  0  0  0  0
  9 11  1  0  0  0  0
  9 33  1  0  0  0  0
 10 34  1  0  0  0  0
 10 35  1  0  0  0  0
 10 36  1  0  0  0  0
 11 15  1  0  0  0  0
 11 12  1  0  0  0  0
 12 13  2  0  0  0  0
 12 37  1  0  0  0  0
 13 14  1  0  0  0  0
 14 15  2  0  0  0  0
 14 38  1  0  0  0  0
 16 21  1  0  0  0  0
 16 17  1  0  0  0  0
 16 47  1  0  0  0  0
 17 18  1  0  0  0  0
 17 39  1  0  0  0  0
 17 40  1  0  0  0  0
 18 19  1  0  0  0  0
 18 41  1  0  0  0  0
 18 42  1  0  0  0  0
 19 20  1  0  0  0  0
 20 21  1  0  0  0  0
 20 43  1  0  0  0  0
 20 44  1  0  0  0  0
 21 45  1  0  0  0  0
 21 46  1  0  0  0  0
M  CHG  1  16   1
M  END
> <s_m_source_file>
AV-unprocessed.smi

> <i_m_source_file_index>
1285

> <i_lp_mmshare_version>
43012

> <i_f3d_flags>
0

> <s_epik_input>
W0NIMl0xW0NIMl1PW0NIMl1bQ0gyXU4xW0NAQF0oW0NIM10pKFtDSDJdW0NIM10pW0NIMl1bTkhdQyg9TylbQ0BIXShbQ0gzXSluMltjSF1uW2NIXW4y

> <s_epik_cmdline>
J2VwaWtfcHl0aG9uJywgJy1waCcsICc3LjAnLCAnLXRuJywgJzgnLCAnLW1hJywgJzIwMCcsICctbWV0YWxfYmluZGluZycsICctaW1hZScsICc8aW5maWxlLm1hZT4nLCAnLW9tYWUnLCAnPG91dGZpbGUubWFlPic=

> <r_lp_tautomer_probability>
1

> <r_epik_Ionization_Penalty>
0.569304

> <r_epik_Ionization_Penalty_Charging>
0.569295

> <r_epik_Ionization_Penalty_Neutral>
8.22697e-06

> <r_epik_State_Penalty>
0.581114

> <r_epik_Charging_Adjusted_Penalty>
1.15041

> <i_epik_Tot_Q>
1

> <i_epik_Tot_abs_Q>
1

> <r_epik_Metal_State_Penalty>
0.581117

> <b_epik_Metal_Only>
0

> <s_lp_Force_Field>
OPLS_2005

> <r_lp_Energy>
32.2271

> <b_lp_Chiralities_Consistent>
1

> <s_lp_Variant>
AV-unprocessed.smi:1285-6

> <Gold.Version>
5.8.1

> <Gold.Id.Protein>
6NUR|6NUR_protein|mol2

> <Gold.PLP.Fitness>
45.1568

> <Gold.PLP.PLP>
-31.1362

> <Gold.PLP.part.hbond>
-3.0000

> <Gold.PLP.part.metal>
0.0000

> <Gold.PLP.part.buried>
-2.5696

> <Gold.PLP.part.nonpolar>
-24.5396

> <Gold.PLP.part.repulsive>
0.4513

> <Gold.PLP.ligand.clash>
0.0000

> <Gold.PLP.ligand.torsion>
0.5553

> <Gold.PLP.Chemscore.Hbond>
3.9200

> <Gold.PLP.Chemscore.CHOScore>
1.0000

> <Gold.PLP.Chemscore.Metal>
0.0000

> <Gold.Chemscore.Hbonds>
donor molecule, donor type, donor heavy atom, donor atom, acceptor molecule, acceptor atom, score
      L1  H     6    32       P1  7948  0.96
      L1  H    16    47       P1  7948  2.00
      P1  H  7989  7998       L1    15  0.94
      L1  C    14    38       P1  8028  1.00

> <Gold.PLP.Chemscore.Internal.Correction>
0.3712

> <Gold.Rescore>
     Score         DG    S(hbond)    S(metal)    S(lipo)     H(rot)  DE(clash)    DE(int)     intcor
     12.55     -13.25       2.78        0.00      47.51       2.76       0.00       0.70       ----

> <Gold.Chemscore.Fitness>
12.5456

> <Gold.Chemscore.DG>
-13.2494

> <Gold.Chemscore.ZeroCoef>
-5.4800

> <Gold.Chemscore.Hbond>
2.7764

> <Gold.Chemscore.Metal>
0.0000

> <Gold.Chemscore.Lipo>
47.5121

> <Gold.Chemscore.Internal_Hbond>
0.0000

> <Gold.Chemscore.DEClash>
0.0000

> <Gold.Chemscore.DEInternal>
0.7037

> <Gold.Chemscore.Rot>
2.7589

> <Gold.Chemscore.Internal.Correction>
   9.000000E+99

> <Gold.Chemscore.Hbonds>
donor molecule, donor type, donor heavy atom, donor atom, acceptor molecule, acceptor atom, score
      L1  H     6    32       P1  7948  0.41
      L1  H    16    47       P1  7948  0.99
      P1  H  7989  7998       L1    15  0.63

> <Gold.Chemscore.Hbond.Weighted>
-9.2731

> <Gold.Chemscore.Metal.Weighted>
-0.0000

> <Gold.Chemscore.Lipo.Weighted>
-5.5589

> <Gold.Chemscore.Internal_Hbond.Weighted>
0.0000

> <Gold.Chemscore.DEClash.Weighted>
0.0000

> <Gold.Chemscore.DEInternal.Weighted>
0.7037

> <Gold.Chemscore.Rot.Weighted>
7.0627

> <Gold.Chemscore.Internal.Correction.Weighted>
   9.000000E+99

> <Gold.Protein.RotatedTorsions>
[ 6907 6896 6895 6894 ] final  164.77 input  -60.11 | X-H torsion
[ 7974 7965 7964 7962 ] final   96.75 input  175.53 | X-H torsion
[ 8008 7997 7996 7995 ] final  -66.26 input   59.86 | X-H torsion
[ 10167 10162 10161 10158 ] final -156.50 input  -65.29 | X-H torsion
[ 10718 10713 10712 10709 ] final  -11.08 input   66.30 | X-H torsion
[ 10763 10752 10751 10750 ] final  153.10 input  -60.55 | X-H torsion
[ 11005 11000 10999 10996 ] final   27.69 input  -57.11 | X-H torsion

> <Gold.Protein.ActiveResidues>
 VAL166  LYS551  ARG553  GLY616  TRP617  ASP618  TYR619  PRO620  LYS621  CYS622 
 ASP623  PHE694  ASN695  SER759  ASP760  ASP761  ALA762  ILE779  LEU786  VAL792 
 PHE793  MET794  SER795  GLU796  ALA797  LYS798  CYS799  TRP800  GLU811  SER814 

> <Gold.Protein.RotatedAtoms>
  151.9048  133.3546  159.3842 H   0  0  0  0  0  0  0  0  0  0  0  0  # atno 6907 bound_to 6896
  150.7072  134.4792  159.5471 H   0  0  0  0  0  0  0  0  0  0  0  0  # atno 6908 bound_to 6896
  152.2387  134.8250  160.0514 H   0  0  0  0  0  0  0  0  0  0  0  0  # atno 6909 bound_to 6896
  145.4347  139.2307  143.3125 H   0  0  0  0  0  0  0  0  0  0  0  0  # atno 7974 bound_to 7965
  154.4723  140.0916  156.7176 H   0  0  0  0  0  0  0  0  0  0  0  0  # atno 8008 bound_to 7997
  155.4690  140.3463  155.4305 H   0  0  0  0  0  0  0  0  0  0  0  0  # atno 8009 bound_to 7997
  156.1060  140.1435  156.9392 H   0  0  0  0  0  0  0  0  0  0  0  0  # atno 8010 bound_to 7997
  139.6845  143.9524  152.2354 H   0  0  0  0  0  0  0  0  0  0  0  0  # atno 10167 bound_to 10162
  156.6642  130.4990  149.6020 H   0  0  0  0  0  0  0  0  0  0  0  0  # atno 10718 bound_to 10713
  154.1307  135.2827  155.3186 H   0  0  0  0  0  0  0  0  0  0  0  0  # atno 10763 bound_to 10752
  154.6357  135.5420  153.7735 H   0  0  0  0  0  0  0  0  0  0  0  0  # atno 10764 bound_to 10752
  153.0282  135.6474  154.1458 H   0  0  0  0  0  0  0  0  0  0  0  0  # atno 10765 bound_to 10752
  140.3236  134.2516  155.7713 H   0  0  0  0  0  0  0  0  0  0  0  0  # atno 11005 bound_to 11000
  146.2588  140.5088  142.8862 LP  0  0  0  0  0  0  0  0  0  0  0  0  # atno 17320 bound_to 7965
  144.8160  140.6468  143.6384 LP  0  0  0  0  0  0  0  0  0  0  0  0  # atno 17321 bound_to 7965
  139.9324  144.6733  150.8350 LP  0  0  0  0  0  0  0  0  0  0  0  0  # atno 17342 bound_to 10162
  140.7663  143.3300  151.2431 LP  0  0  0  0  0  0  0  0  0  0  0  0  # atno 17343 bound_to 10162
  156.1988  130.6606  151.1144 LP  0  0  0  0  0  0  0  0  0  0  0  0  # atno 17370 bound_to 10713
  157.7099  131.0739  150.6537 LP  0  0  0  0  0  0  0  0  0  0  0  0  # atno 17371 bound_to 10713
  141.2081  133.7788  157.0081 LP  0  0  0  0  0  0  0  0  0  0  0  0  # atno 17394 bound_to 11000
  140.0921  134.9586  157.1792 LP  0  0  0  0  0  0  0  0  0  0  0  0  # atno 17395 bound_to 11000

$$$$
