AV-unprocessed.smi:157|AV-procd|sdf|1322|dock9
  -GOLD-   2262019 13D 1   1.00000     0.00000
 Structure written by MMmdl.
 36 38  0  0  0  0  0  0  0  0  2 V2000
  147.2148  130.9234  152.4017 O   0  0  0  0  0  0  0  0  0  0  0  0
  145.9088  131.3546  152.0843 C   0  0  0  0  0  0  0  0  0  0  0  0
  145.9532  132.4100  150.9688 C   0  0  2  0  0  0  0  0  0  0  0  0
  145.9990  133.7015  151.5730 O   0  0  0  0  0  0  0  0  0  0  0  0
  145.2759  134.5744  150.7728 C   0  0  2  0  0  0  0  0  0  0  0  0
  144.8496  135.7513  151.5874 N   0  0  0  0  0  0  0  0  0  0  0  0
  145.1992  137.0403  151.3905 C   0  0  0  0  0  0  0  0  0  0  0  0
  144.6811  137.8844  152.2667 N   0  3  0  0  0  0  0  0  0  0  0  0
  143.9255  137.1291  153.1384 C   0  0  0  0  0  0  0  0  0  0  0  0
  144.0366  135.8087  152.6953 C   0  0  0  0  0  0  0  0  0  0  0  0
  143.4721  134.6338  153.2149 N   0  0  0  0  0  0  0  0  0  0  0  0
  142.5039  134.6354  154.0724 C   0  0  0  0  0  0  0  0  0  0  0  0
  141.8970  135.7075  154.7053 N   0  0  0  0  0  0  0  0  0  0  0  0
  142.6374  136.8034  155.3051 C   0  0  0  0  0  0  0  0  0  0  0  0
  143.2187  137.7876  154.2816 C   0  0  2  0  0  0  0  0  0  0  0  0
  142.1908  138.6585  153.8561 O   0  0  0  0  0  0  0  0  0  0  0  0
  144.0717  133.7743  150.3042 C   0  0  0  0  0  0  0  0  0  0  0  0
  144.7036  132.4143  150.0585 C   0  0  1  0  0  0  0  0  0  0  0  0
  145.0857  132.2970  148.7022 O   0  0  0  0  0  0  0  0  0  0  0  0
  146.8646  132.2884  150.3798 H   0  0  0  0  0  0  0  0  0  0  0  0
  145.8902  134.9705  149.9623 H   0  0  0  0  0  0  0  0  0  0  0  0
  143.9451  138.4127  154.8023 H   0  0  0  0  0  0  0  0  0  0  0  0
  144.0062  131.6099  150.2954 H   0  0  0  0  0  0  0  0  0  0  0  0
  147.7609  131.0285  151.6374 H   0  0  0  0  0  0  0  0  0  0  0  0
  145.2996  130.4994  151.7897 H   0  0  0  0  0  0  0  0  0  0  0  0
  145.4605  131.7769  152.9839 H   0  0  0  0  0  0  0  0  0  0  0  0
  145.8454  137.3511  150.5890 H   0  0  0  0  0  0  0  0  0  0  0  0
  142.0715  133.6823  154.3802 H   0  0  0  0  0  0  0  0  0  0  0  0
  141.0177  135.5538  155.1779 H   0  0  0  0  0  0  0  0  0  0  0  0
  142.0032  137.3231  156.0241 H   0  0  0  0  0  0  0  0  0  0  0  0
  143.4551  136.3683  155.8818 H   0  0  0  0  0  0  0  0  0  0  0  0
  142.4723  139.1026  153.0713 H   0  0  0  0  0  0  0  0  0  0  0  0
  143.3433  133.7126  151.1143 H   0  0  0  0  0  0  0  0  0  0  0  0
  143.6010  134.2275  149.4307 H   0  0  0  0  0  0  0  0  0  0  0  0
  145.0942  133.1603  148.3171 H   0  0  0  0  0  0  0  0  0  0  0  0
  144.8228  138.8863  152.2926 H   0  0  0  0  0  0  0  0  0  0  0  0
  1  2  1  0  0  0  0
  1 24  1  0  0  0  0
  2  3  1  0  0  0  0
  2 25  1  0  0  0  0
  2 26  1  0  0  0  0
  3 20  1  0  0  0  0
  3 18  1  0  0  0  0
  3  4  1  0  0  0  0
  4  5  1  0  0  0  0
  5 21  1  0  0  0  0
  5  6  1  0  0  0  0
  5 17  1  0  0  0  0
  6 10  1  0  0  0  0
  6  7  1  0  0  0  0
  7  8  2  0  0  0  0
  7 27  1  0  0  0  0
  8  9  1  0  0  0  0
  8 36  1  0  0  0  0
  9 15  1  0  0  0  0
  9 10  2  0  0  0  0
 10 11  1  0  0  0  0
 11 12  2  0  0  0  0
 12 13  1  0  0  0  0
 12 28  1  0  0  0  0
 13 14  1  0  0  0  0
 13 29  1  0  0  0  0
 14 15  1  0  0  0  0
 14 30  1  0  0  0  0
 14 31  1  0  0  0  0
 15 22  1  0  0  0  0
 15 16  1  0  0  0  0
 16 32  1  0  0  0  0
 17 18  1  0  0  0  0
 17 33  1  0  0  0  0
 17 34  1  0  0  0  0
 18 23  1  0  0  0  0
 18 19  1  0  0  0  0
 19 35  1  0  0  0  0
M  CHG  1   8   1
M  END
> <s_m_source_file>
AV-unprocessed.smi

> <i_m_source_file_index>
157

> <i_lp_mmshare_version>
43012

> <i_f3d_flags>
0

> <s_epik_input>
W09IXVtDSDJdW0NASF0xT1tDQEhdKFtDSDJdW0NAQEhdMVtPSF0pbihbY0hdbjIpYyhjMjMpTj1bQ0hdW05IXVtDSDJdW0NASF0zW09IXQ==

> <s_epik_cmdline>
J2VwaWtfcHl0aG9uJywgJy1waCcsICc3LjAnLCAnLXRuJywgJzgnLCAnLW1hJywgJzIwMCcsICctbWV0YWxfYmluZGluZycsICctaW1hZScsICc8aW5maWxlLm1hZT4nLCAnLW9tYWUnLCAnPG91dGZpbGUubWFlPic=

> <r_epik_Ionization_Penalty>
1.68594

> <r_epik_Ionization_Penalty_Charging>
0

> <r_epik_Ionization_Penalty_Neutral>
1.68594

> <r_epik_State_Penalty>
1.79006

> <r_epik_Charging_Adjusted_Penalty>
1.79006

> <i_epik_Tot_Q>
1

> <i_epik_Tot_abs_Q>
1

> <r_epik_Metal_State_Penalty>
5.85324

> <b_epik_Metal_Only>
0

> <s_epik_Chemistry_Notes>
This compound has an imine and may undergo hydrolysis. This compound contains an acetal/aminal-like group ( X-CH(R)-Y where X, Y are N, S, or O) that may be acid/base labile, releasing an aldehyde.

> <s_lp_Force_Field>
OPLS_2005

> <r_lp_Energy>
53.7485

> <b_lp_Chiralities_Consistent>
1

> <s_lp_Variant>
AV-unprocessed.smi:157-32

> <Gold.Version>
5.8.1

> <Gold.Id.Protein>
6NUR|6NUR_protein|mol2

> <Gold.PLP.Fitness>
43.5350

> <Gold.PLP.PLP>
-26.6609

> <Gold.PLP.part.hbond>
-7.0000

> <Gold.PLP.part.metal>
0.0000

> <Gold.PLP.part.buried>
0.5491

> <Gold.PLP.part.nonpolar>
-21.8850

> <Gold.PLP.part.repulsive>
0.3076

> <Gold.PLP.ligand.clash>
0.0000

> <Gold.PLP.ligand.torsion>
0.4526

> <Gold.PLP.Chemscore.Hbond>
4.7527

> <Gold.PLP.Chemscore.CHOScore>
1.1657

> <Gold.PLP.Chemscore.Metal>
0.0000

> <Gold.Chemscore.Hbonds>
donor molecule, donor type, donor heavy atom, donor atom, acceptor molecule, acceptor atom, score
      L1  H     1    24       P1 10747  1.00
      L1  H     8    36       P1 10175  1.41
      L1  H    13    29       P1 11000  0.48
      L1  H    16    32       P1 10175  0.85
      L1  H    19    35       P1  7921  0.95
      L1  C     7    27       P1 10171  0.10
      L1  C    12    28       P1 10957  1.00
      L1  C    12    28       P1 11000  0.08

> <Gold.PLP.Chemscore.Internal.Correction>
0.0240

> <Gold.Rescore>
     Score         DG    S(hbond)    S(metal)    S(lipo)     H(rot)  DE(clash)    DE(int)     intcor
      9.14     -11.09       3.19        0.00      36.95       3.67       1.50       0.44       ----

> <Gold.Chemscore.Fitness>
9.1437

> <Gold.Chemscore.DG>
-11.0883

> <Gold.Chemscore.ZeroCoef>
-5.4800

> <Gold.Chemscore.Hbond>
3.1947

> <Gold.Chemscore.Metal>
0.0000

> <Gold.Chemscore.Lipo>
36.9455

> <Gold.Chemscore.Internal_Hbond>
0.0000

> <Gold.Chemscore.DEClash>
1.5036

> <Gold.Chemscore.DEInternal>
0.4411

> <Gold.Chemscore.Rot>
3.6659

> <Gold.Chemscore.Internal.Correction>
   9.000000E+99

> <Gold.Chemscore.Hbonds>
donor molecule, donor type, donor heavy atom, donor atom, acceptor molecule, acceptor atom, score
      L1  H     1    24       P1 10747  1.00
      L1  H     8    36       P1 10175  0.69
      L1  H    13    29       P1 11000  0.28
      L1  H    16    32       P1 10175  0.85
      L1  H    19    35       P1  7921  0.30

> <Gold.Chemscore.Hbond.Weighted>
-10.6705

> <Gold.Chemscore.Metal.Weighted>
-0.0000

> <Gold.Chemscore.Lipo.Weighted>
-4.3226

> <Gold.Chemscore.Internal_Hbond.Weighted>
0.0000

> <Gold.Chemscore.DEClash.Weighted>
1.5036

> <Gold.Chemscore.DEInternal.Weighted>
0.4411

> <Gold.Chemscore.Rot.Weighted>
9.3848

> <Gold.Chemscore.Internal.Correction.Weighted>
   9.000000E+99

> <Gold.Protein.RotatedTorsions>
[ 6907 6896 6895 6894 ] final  -57.04 input  -60.11 | X-H torsion
[ 7974 7965 7964 7962 ] final  -33.13 input  175.53 | X-H torsion
[ 8008 7997 7996 7995 ] final  -29.60 input   59.86 | X-H torsion
[ 10167 10162 10161 10158 ] final   68.15 input  -65.29 | X-H torsion
[ 10718 10713 10712 10709 ] final  -97.88 input   66.30 | X-H torsion
[ 10763 10752 10751 10750 ] final  114.45 input  -60.55 | X-H torsion
[ 11005 11000 10999 10996 ] final -141.64 input  -57.11 | X-H torsion

> <Gold.Protein.ActiveResidues>
 VAL166  LYS551  ARG553  GLY616  TRP617  ASP618  TYR619  PRO620  LYS621  CYS622 
 ASP623  PHE694  ASN695  SER759  ASP760  ASP761  ALA762  ILE779  LEU786  VAL792 
 PHE793  MET794  SER795  GLU796  ALA797  LYS798  CYS799  TRP800  GLU811  SER814 

> <Gold.Protein.RotatedAtoms>
  150.8118  134.7278  159.6694 H   0  0  0  0  0  0  0  0  0  0  0  0  # atno 6907 bound_to 6896
  152.4238  134.5903  159.9982 H   0  0  0  0  0  0  0  0  0  0  0  0  # atno 6908 bound_to 6896
  151.6110  133.3310  159.3103 H   0  0  0  0  0  0  0  0  0  0  0  0  # atno 6909 bound_to 6896
  146.0935  140.5878  142.8853 H   0  0  0  0  0  0  0  0  0  0  0  0  # atno 7974 bound_to 7965
  154.4283  140.1814  156.1274 H   0  0  0  0  0  0  0  0  0  0  0  0  # atno 8008 bound_to 7997
  156.0095  140.3352  155.6901 H   0  0  0  0  0  0  0  0  0  0  0  0  # atno 8009 bound_to 7997
  155.6131  140.0652  157.2691 H   0  0  0  0  0  0  0  0  0  0  0  0  # atno 8010 bound_to 7997
  140.0818  144.5064  150.7157 H   0  0  0  0  0  0  0  0  0  0  0  0  # atno 10167 bound_to 10162
  156.0094  130.5214  150.6440 H   0  0  0  0  0  0  0  0  0  0  0  0  # atno 10718 bound_to 10713
  153.5074  135.3625  155.2570 H   0  0  0  0  0  0  0  0  0  0  0  0  # atno 10763 bound_to 10752
  154.8744  135.4014  154.3408 H   0  0  0  0  0  0  0  0  0  0  0  0  # atno 10764 bound_to 10752
  153.4055  135.7076  153.6462 H   0  0  0  0  0  0  0  0  0  0  0  0  # atno 10765 bound_to 10752
  140.8304  134.2524  157.4859 H   0  0  0  0  0  0  0  0  0  0  0  0  # atno 11005 bound_to 11000
  144.7378  140.4857  143.6891 LP  0  0  0  0  0  0  0  0  0  0  0  0  # atno 17320 bound_to 7965
  145.5993  139.1502  143.3138 LP  0  0  0  0  0  0  0  0  0  0  0  0  # atno 17321 bound_to 7965
  140.7074  143.2478  151.4686 LP  0  0  0  0  0  0  0  0  0  0  0  0  # atno 17342 bound_to 10162
  139.5775  144.1785  152.1923 LP  0  0  0  0  0  0  0  0  0  0  0  0  # atno 17343 bound_to 10162
  157.4215  131.0837  151.1126 LP  0  0  0  0  0  0  0  0  0  0  0  0  # atno 17370 bound_to 10713
  157.1727  130.6274  149.5646 LP  0  0  0  0  0  0  0  0  0  0  0  0  # atno 17371 bound_to 10713
  139.8705  134.9583  156.4296 LP  0  0  0  0  0  0  0  0  0  0  0  0  # atno 17394 bound_to 11000
  140.9004  133.7783  155.9673 LP  0  0  0  0  0  0  0  0  0  0  0  0  # atno 17395 bound_to 11000

$$$$
