AV-unprocessed.smi:72|AV-procd|sdf|710|dock7
  -GOLD-   2262017 33D 1   1.00000     0.00000
 Structure written by MMmdl.
 30 31  0  0  0  0  0  0  0  0  2 V2000
  145.2822  138.4818  153.5225 N   0  0  0  0  0  0  0  0  0  0  0  0
  145.1703  137.1402  153.2223 C   0  0  0  0  0  0  0  0  0  0  0  0
  144.4363  136.7913  152.1024 N   0  3  0  0  0  0  0  0  0  0  0  0
  144.2236  135.5370  151.6810 C   0  0  0  0  0  0  0  0  0  0  0  0
  144.7298  134.5363  152.3714 N   0  0  0  0  0  0  0  0  0  0  0  0
  144.5096  133.1143  151.9360 C   0  0  1  0  0  0  0  0  0  0  0  0
  143.6757  133.1396  150.8176 O   0  0  0  0  0  0  0  0  0  0  0  0
  144.1988  132.2930  149.7995 C   0  0  1  0  0  0  0  0  0  0  0  0
  143.7129  132.7686  148.4217 C   0  0  0  0  0  0  0  0  0  0  0  0
  142.4399  132.2260  148.1455 O   0  0  0  0  0  0  0  0  0  0  0  0
  145.7077  132.4351  150.0011 C   0  0  2  0  0  0  0  0  0  0  0  0
  146.4475  131.3894  149.4001 O   0  0  0  0  0  0  0  0  0  0  0  0
  145.8421  132.4733  151.5198 C   0  0  2  0  0  0  0  0  0  0  0  0
  145.9814  131.1838  152.0867 O   0  0  0  0  0  0  0  0  0  0  0  0
  145.5247  134.7948  153.5170 C   0  0  0  0  0  0  0  0  0  0  0  0
  146.0394  133.8690  154.1427 O   0  0  0  0  0  0  0  0  0  0  0  0
  145.6888  136.1398  153.8799 N   0  0  0  0  0  0  0  0  0  0  0  0
  144.0004  132.6058  152.7567 H   0  0  0  0  0  0  0  0  0  0  0  0
  143.8959  131.2620  149.9942 H   0  0  0  0  0  0  0  0  0  0  0  0
  146.0433  133.3881  149.5894 H   0  0  0  0  0  0  0  0  0  0  0  0
  146.6911  133.0814  151.8359 H   0  0  0  0  0  0  0  0  0  0  0  0
  145.8007  138.8299  154.3170 H   0  0  0  0  0  0  0  0  0  0  0  0
  144.8536  139.2192  152.9814 H   0  0  0  0  0  0  0  0  0  0  0  0
  143.6466  135.3643  150.7811 H   0  0  0  0  0  0  0  0  0  0  0  0
  143.6835  133.8568  148.3629 H   0  0  0  0  0  0  0  0  0  0  0  0
  144.3923  132.4197  147.6433 H   0  0  0  0  0  0  0  0  0  0  0  0
  142.1570  132.5353  147.2983 H   0  0  0  0  0  0  0  0  0  0  0  0
  147.3421  131.4389  149.7016 H   0  0  0  0  0  0  0  0  0  0  0  0
  146.3704  130.6113  151.4428 H   0  0  0  0  0  0  0  0  0  0  0  0
  144.0295  137.5433  151.5645 H   0  0  0  0  0  0  0  0  0  0  0  0
  1  2  1  0  0  0  0
  1 22  1  0  0  0  0
  1 23  1  0  0  0  0
  2 17  2  0  0  0  0
  2  3  1  0  0  0  0
  3  4  2  0  0  0  0
  3 30  1  0  0  0  0
  4  5  1  0  0  0  0
  4 24  1  0  0  0  0
  5  6  1  0  0  0  0
  5 15  1  0  0  0  0
  6 18  1  0  0  0  0
  6 13  1  0  0  0  0
  6  7  1  0  0  0  0
  7  8  1  0  0  0  0
  8 19  1  0  0  0  0
  8  9  1  0  0  0  0
  8 11  1  0  0  0  0
  9 10  1  0  0  0  0
  9 25  1  0  0  0  0
  9 26  1  0  0  0  0
 10 27  1  0  0  0  0
 11 20  1  0  0  0  0
 11 12  1  0  0  0  0
 11 13  1  0  0  0  0
 12 28  1  0  0  0  0
 13 21  1  0  0  0  0
 13 14  1  0  0  0  0
 14 29  1  0  0  0  0
 15 16  2  0  0  0  0
 15 17  1  0  0  0  0
M  CHG  1   3   1
M  END
> <s_m_source_file>
AV-unprocessed.smi

> <i_m_source_file_index>
72

> <i_lp_mmshare_version>
43012

> <i_f3d_flags>
0

> <s_epik_input>
W05IMl1jMW5bY0hdbihjKD1PKW4xKVtDQEBIXTJPW0NASF0oW0NIMl1bT0hdKVtDQEBIXShbT0hdKVtDQEhdMltPSF0=

> <s_epik_cmdline>
J2VwaWtfcHl0aG9uJywgJy1waCcsICc3LjAnLCAnLXRuJywgJzgnLCAnLW1hJywgJzIwMCcsICctbWV0YWxfYmluZGluZycsICctaW1hZScsICc8aW5maWxlLm1hZT4nLCAnLW9tYWUnLCAnPG91dGZpbGUubWFlPic=

> <r_lp_tautomer_probability>
4.77166e-05

> <r_epik_Ionization_Penalty>
0.104979

> <r_epik_Ionization_Penalty_Charging>
0.0999619

> <r_epik_Ionization_Penalty_Neutral>
0.00501745

> <r_epik_State_Penalty>
2.51541

> <r_epik_Charging_Adjusted_Penalty>
2.61537

> <i_epik_Tot_Q>
1

> <i_epik_Tot_abs_Q>
1

> <r_epik_Metal_State_Penalty>
3.53763

> <b_epik_Metal_Only>
0

> <s_epik_Chemistry_Notes>
This compound contains an acetal/aminal-like group ( X-CH(R)-Y where X, Y are N, S, or O) that may be acid/base labile, releasing an aldehyde.

> <s_lp_Force_Field>
OPLS_2005

> <r_lp_Energy>
34.5988

> <b_lp_Chiralities_Consistent>
1

> <s_lp_Variant>
AV-unprocessed.smi:72-48

> <Gold.Version>
5.8.1

> <Gold.Id.Protein>
6NUR|6NUR_protein|mol2

> <Gold.PLP.Fitness>
42.6008

> <Gold.PLP.PLP>
-30.0006

> <Gold.PLP.part.hbond>
-6.6710

> <Gold.PLP.part.metal>
0.0000

> <Gold.PLP.part.buried>
-8.1062

> <Gold.PLP.part.nonpolar>
-16.8972

> <Gold.PLP.part.repulsive>
0.3879

> <Gold.PLP.ligand.clash>
0.0000

> <Gold.PLP.ligand.torsion>
0.2509

> <Gold.PLP.Chemscore.Hbond>
4.3335

> <Gold.PLP.Chemscore.CHOScore>
0.0275

> <Gold.PLP.Chemscore.Metal>
0.0000

> <Gold.Chemscore.Hbonds>
donor molecule, donor type, donor heavy atom, donor atom, acceptor molecule, acceptor atom, score
      L1  H     1    23       P1 10175  1.00
      L1  H     3    30       P1 10171  0.98
      L1  H    10    27       P1 10195  1.00
      L1  H    12    28       P1 10747  1.00
      P1  H 10785 10796       L1    10  0.16

> <Gold.PLP.Chemscore.Internal.Correction>
0.0189

> <Gold.Rescore>
     Score         DG    S(hbond)    S(metal)    S(lipo)     H(rot)  DE(clash)    DE(int)     intcor
     13.07     -13.37       3.94        0.00      44.25       4.08       0.06       0.24       ----

> <Gold.Chemscore.Fitness>
13.0658

> <Gold.Chemscore.DG>
-13.3662

> <Gold.Chemscore.ZeroCoef>
-5.4800

> <Gold.Chemscore.Hbond>
3.9368

> <Gold.Chemscore.Metal>
0.0000

> <Gold.Chemscore.Lipo>
44.2522

> <Gold.Chemscore.Internal_Hbond>
0.0000

> <Gold.Chemscore.DEClash>
0.0589

> <Gold.Chemscore.DEInternal>
0.2415

> <Gold.Chemscore.Rot>
4.0783

> <Gold.Chemscore.Internal.Correction>
   9.000000E+99

> <Gold.Chemscore.Hbonds>
donor molecule, donor type, donor heavy atom, donor atom, acceptor molecule, acceptor atom, score
      L1  H     1    23       P1 10175  1.00
      L1  H     3    30       P1 10171  0.87
      L1  H    10    27       P1 10195  1.00
      L1  H    12    28       P1 10747  0.99
      P1  H 10785 10796       L1    10  0.01

> <Gold.Chemscore.Hbond.Weighted>
-13.1491

> <Gold.Chemscore.Metal.Weighted>
-0.0000

> <Gold.Chemscore.Lipo.Weighted>
-5.1775

> <Gold.Chemscore.Internal_Hbond.Weighted>
0.0000

> <Gold.Chemscore.DEClash.Weighted>
0.0589

> <Gold.Chemscore.DEInternal.Weighted>
0.2415

> <Gold.Chemscore.Rot.Weighted>
10.4404

> <Gold.Chemscore.Internal.Correction.Weighted>
   9.000000E+99

> <Gold.Protein.RotatedTorsions>
[ 6907 6896 6895 6894 ] final -164.85 input  -60.11 | X-H torsion
[ 7974 7965 7964 7962 ] final  132.01 input  175.53 | X-H torsion
[ 8008 7997 7996 7995 ] final   75.72 input   59.86 | X-H torsion
[ 10167 10162 10161 10158 ] final   79.97 input  -65.29 | X-H torsion
[ 10718 10713 10712 10709 ] final   22.05 input   66.30 | X-H torsion
[ 10763 10752 10751 10750 ] final   88.20 input  -60.55 | X-H torsion
[ 11005 11000 10999 10996 ] final   16.56 input  -57.11 | X-H torsion

> <Gold.Protein.ActiveResidues>
 VAL166  LYS551  ARG553  GLY616  TRP617  ASP618  TYR619  PRO620  LYS621  CYS622 
 ASP623  PHE694  ASN695  SER759  ASP760  ASP761  ALA762  ILE779  LEU786  VAL792 
 PHE793  MET794  SER795  GLU796  ALA797  LYS798  CYS799  TRP800  GLU811  SER814 

> <Gold.Protein.RotatedAtoms>
  151.4183  133.3706  159.2752 H   0  0  0  0  0  0  0  0  0  0  0  0  # atno 6907 bound_to 6896
  150.9312  134.8728  159.7563 H   0  0  0  0  0  0  0  0  0  0  0  0  # atno 6908 bound_to 6896
  152.5029  134.4128  159.9506 H   0  0  0  0  0  0  0  0  0  0  0  0  # atno 6909 bound_to 6896
  145.0013  139.4309  143.5291 H   0  0  0  0  0  0  0  0  0  0  0  0  # atno 7974 bound_to 7965
  155.8169  140.3471  155.5491 H   0  0  0  0  0  0  0  0  0  0  0  0  # atno 8008 bound_to 7997
  155.8382  140.0937  157.1771 H   0  0  0  0  0  0  0  0  0  0  0  0  # atno 8009 bound_to 7997
  154.4004  140.1399  156.3684 H   0  0  0  0  0  0  0  0  0  0  0  0  # atno 8010 bound_to 7997
  139.9547  144.6002  150.8127 H   0  0  0  0  0  0  0  0  0  0  0  0  # atno 10167 bound_to 10162
  157.1469  130.6657  149.5999 H   0  0  0  0  0  0  0  0  0  0  0  0  # atno 10718 bound_to 10713
  153.1745  135.4515  154.9946 H   0  0  0  0  0  0  0  0  0  0  0  0  # atno 10763 bound_to 10752
  154.7988  135.3248  154.7603 H   0  0  0  0  0  0  0  0  0  0  0  0  # atno 10764 bound_to 10752
  153.8075  135.6957  153.4901 H   0  0  0  0  0  0  0  0  0  0  0  0  # atno 10765 bound_to 10752
  140.4457  134.1276  155.7696 H   0  0  0  0  0  0  0  0  0  0  0  0  # atno 11005 bound_to 11000
  146.3452  139.9403  142.8742 LP  0  0  0  0  0  0  0  0  0  0  0  0  # atno 17320 bound_to 7965
  145.2150  140.9911  143.4079 LP  0  0  0  0  0  0  0  0  0  0  0  0  # atno 17321 bound_to 7965
  140.7572  143.3081  151.2912 LP  0  0  0  0  0  0  0  0  0  0  0  0  # atno 17342 bound_to 10162
  139.6600  144.0206  152.2686 LP  0  0  0  0  0  0  0  0  0  0  0  0  # atno 17343 bound_to 10162
  155.9778  130.4758  150.6614 LP  0  0  0  0  0  0  0  0  0  0  0  0  # atno 17370 bound_to 10713
  157.4256  131.0842  151.1089 LP  0  0  0  0  0  0  0  0  0  0  0  0  # atno 17371 bound_to 10713
  141.1686  133.8653  157.1639 LP  0  0  0  0  0  0  0  0  0  0  0  0  # atno 17394 bound_to 11000
  140.0040  135.0016  157.0252 LP  0  0  0  0  0  0  0  0  0  0  0  0  # atno 17395 bound_to 11000

$$$$
