AV-unprocessed.smi:526|AV-procd|sdf|2813|dock8
  -GOLD-   2262023293D 1   1.00000     0.00000
 Structure written by MMmdl.
 30 30  0  0  0  0  0  0  0  0  2 V2000
  152.3382  144.6542  158.2763 C   0  0  0  0  0  0  0  0  0  0  0  0
  152.1182  143.4142  158.7433 C   0  0  0  0  0  0  0  0  0  0  0  0
  152.9955  142.7914  159.8127 C   0  0  0  0  0  0  0  0  0  0  0  0
  150.9787  142.5513  158.2336 C   0  0  0  0  0  0  0  0  0  0  0  0
  151.0139  142.3518  156.4261 S   0  0  0  0  0  0  0  0  0  0  0  0
  150.6696  140.6125  156.2077 C   0  0  0  0  0  0  0  0  0  0  0  0
  150.5121  139.9227  157.3369 N   0  0  0  0  0  0  0  0  0  0  0  0
  150.2493  138.6030  157.2115 C   0  0  0  0  0  0  0  0  0  0  0  0
  150.0783  137.8374  158.5111 C   0  0  0  0  0  0  0  0  0  0  0  0
  150.1399  137.9830  155.9404 C   0  0  0  0  0  0  0  0  0  0  0  0
  149.8470  136.4923  155.7858 C   0  0  0  0  0  0  0  0  0  0  0  0
  150.8999  135.6931  156.5612 C   0  0  0  0  0  0  0  0  0  0  0  0
  152.0723  135.7363  156.1286 O   0  0  0  0  0  0  0  0  0  0  0  0
  150.5238  135.0598  157.5726 O   0  5  0  0  0  0  0  0  0  0  0  0
  150.3285  138.8263  154.8167 C   0  0  0  0  0  0  0  0  0  0  0  0
  150.2455  138.3303  153.5480 O   0  0  0  0  0  0  0  0  0  0  0  0
  150.5915  140.1430  154.9608 N   0  0  0  0  0  0  0  0  0  0  0  0
  150.1642  139.0099  152.8972 H   0  0  0  0  0  0  0  0  0  0  0  0
  153.1533  145.2571  158.6488 H   0  0  0  0  0  0  0  0  0  0  0  0
  151.7068  145.0858  157.5133 H   0  0  0  0  0  0  0  0  0  0  0  0
  153.4826  141.8923  159.4347 H   0  0  0  0  0  0  0  0  0  0  0  0
  152.3959  142.5177  160.6813 H   0  0  0  0  0  0  0  0  0  0  0  0
  153.7725  143.4823  160.1418 H   0  0  0  0  0  0  0  0  0  0  0  0
  151.0350  141.5739  158.7137 H   0  0  0  0  0  0  0  0  0  0  0  0
  150.0242  142.9966  158.5175 H   0  0  0  0  0  0  0  0  0  0  0  0
  149.0618  137.4533  158.5951 H   0  0  0  0  0  0  0  0  0  0  0  0
  150.2698  138.4743  159.3755 H   0  0  0  0  0  0  0  0  0  0  0  0
  150.7719  136.9978  158.5560 H   0  0  0  0  0  0  0  0  0  0  0  0
  149.8681  136.1952  154.7373 H   0  0  0  0  0  0  0  0  0  0  0  0
  148.8461  136.2592  156.1500 H   0  0  0  0  0  0  0  0  0  0  0  0
  1  2  2  0  0  0  0
  1 19  1  0  0  0  0
  1 20  1  0  0  0  0
  2  3  1  0  0  0  0
  2  4  1  0  0  0  0
  3 21  1  0  0  0  0
  3 22  1  0  0  0  0
  3 23  1  0  0  0  0
  4 24  1  0  0  0  0
  4 25  1  0  0  0  0
  4  5  1  0  0  0  0
  5  6  1  0  0  0  0
  6 17  1  0  0  0  0
  6  7  2  0  0  0  0
  7  8  1  0  0  0  0
  8 10  2  0  0  0  0
  8  9  1  0  0  0  0
  9 26  1  0  0  0  0
  9 27  1  0  0  0  0
  9 28  1  0  0  0  0
 10 15  1  0  0  0  0
 10 11  1  0  0  0  0
 11 12  1  0  0  0  0
 11 29  1  0  0  0  0
 11 30  1  0  0  0  0
 12 13  2  0  0  0  0
 12 14  1  0  0  0  0
 15 17  2  0  0  0  0
 15 16  1  0  0  0  0
 16 18  1  0  0  0  0
M  CHG  1  14  -1
M  END
> <s_m_source_file>
AV-unprocessed.smi

> <i_m_source_file_index>
526

> <i_lp_mmshare_version>
43012

> <i_f3d_flags>
0

> <s_epik_input>
W0NIMl09QyhbQ0gzXSlbQ0gyXVNjMW5jKFtDSDNdKWMoYyg9TylbbkhdMSlbQ0gyXUMoPU8pW09IXQ==

> <s_epik_cmdline>
J2VwaWtfcHl0aG9uJywgJy1waCcsICc3LjAnLCAnLXRuJywgJzgnLCAnLW1hJywgJzIwMCcsICctbWV0YWxfYmluZGluZycsICctaW1hZScsICc8aW5maWxlLm1hZT4nLCAnLW9tYWUnLCAnPG91dGZpbGUubWFlPic=

> <r_lp_tautomer_probability>
0.0660145

> <r_epik_Ionization_Penalty>
2.37967

> <r_epik_Ionization_Penalty_Charging>
0.000421182

> <r_epik_Ionization_Penalty_Neutral>
2.37925

> <r_epik_State_Penalty>
1.68674

> <r_epik_Charging_Adjusted_Penalty>
1.68716

> <i_epik_Tot_Q>
-1

> <i_epik_Tot_abs_Q>
1

> <r_epik_Metal_State_Penalty>
1.80034

> <b_epik_Metal_Only>
0

> <s_lp_Force_Field>
OPLS_2005

> <r_lp_Energy>
-7.53164

> <b_lp_Chiralities_Consistent>
1

> <s_lp_Variant>
AV-unprocessed.smi:526-3

> <Gold.Version>
5.8.1

> <Gold.Id.Protein>
6NUR|6NUR_protein|mol2

> <Gold.PLP.Fitness>
46.8839

> <Gold.PLP.PLP>
-31.4690

> <Gold.PLP.part.hbond>
-5.1492

> <Gold.PLP.part.metal>
0.0000

> <Gold.PLP.part.buried>
-5.3176

> <Gold.PLP.part.nonpolar>
-22.1912

> <Gold.PLP.part.repulsive>
0.0692

> <Gold.PLP.ligand.clash>
0.0000

> <Gold.PLP.ligand.torsion>
0.4080

> <Gold.PLP.Chemscore.Hbond>
5.4016

> <Gold.PLP.Chemscore.CHOScore>
0.0000

> <Gold.PLP.Chemscore.Metal>
0.0000

> <Gold.Chemscore.Hbonds>
donor molecule, donor type, donor heavy atom, donor atom, acceptor molecule, acceptor atom, score
      L1  H    16    18       P1  7957  0.88
      P1  H  6896  6908       L1    14  1.06
      P1  H  7989  7998       L1    17  1.00
      P1  H 10752 10765       L1    13  2.00

> <Gold.PLP.Chemscore.Internal.Correction>
0.0259

> <Gold.Rescore>
     Score         DG    S(hbond)    S(metal)    S(lipo)     H(rot)  DE(clash)    DE(int)     intcor
     16.47     -16.86       3.27        0.00      67.82       2.92       0.04       0.34       ----

> <Gold.Chemscore.Fitness>
16.4721

> <Gold.Chemscore.DG>
-16.8569

> <Gold.Chemscore.ZeroCoef>
-5.4800

> <Gold.Chemscore.Hbond>
3.2676

> <Gold.Chemscore.Metal>
0.0000

> <Gold.Chemscore.Lipo>
67.8216

> <Gold.Chemscore.Internal_Hbond>
0.0000

> <Gold.Chemscore.DEClash>
0.0431

> <Gold.Chemscore.DEInternal>
0.3417

> <Gold.Chemscore.Rot>
2.9187

> <Gold.Chemscore.Internal.Correction>
   9.000000E+99

> <Gold.Chemscore.Hbonds>
donor molecule, donor type, donor heavy atom, donor atom, acceptor molecule, acceptor atom, score
      L1  H    16    18       P1  7957  0.63
      P1  H  6896  6908       L1    14  0.53
      P1  H  7989  7998       L1    17  0.84
      P1  H 10752 10765       L1    13  0.93

> <Gold.Chemscore.Hbond.Weighted>
-10.9137

> <Gold.Chemscore.Metal.Weighted>
-0.0000

> <Gold.Chemscore.Lipo.Weighted>
-7.9351

> <Gold.Chemscore.Internal_Hbond.Weighted>
0.0000

> <Gold.Chemscore.DEClash.Weighted>
0.0431

> <Gold.Chemscore.DEInternal.Weighted>
0.3417

> <Gold.Chemscore.Rot.Weighted>
7.4720

> <Gold.Chemscore.Internal.Correction.Weighted>
   9.000000E+99

> <Gold.Protein.RotatedTorsions>
[ 6907 6896 6895 6894 ] final  152.09 input  -60.11 | X-H torsion
[ 7974 7965 7964 7962 ] final -154.92 input  175.53 | X-H torsion
[ 8008 7997 7996 7995 ] final -111.80 input   59.86 | X-H torsion
[ 10167 10162 10161 10158 ] final    5.84 input  -65.29 | X-H torsion
[ 10718 10713 10712 10709 ] final  179.47 input   66.30 | X-H torsion
[ 10763 10752 10751 10750 ] final -149.09 input  -60.55 | X-H torsion
[ 11005 11000 10999 10996 ] final   40.23 input  -57.11 | X-H torsion

> <Gold.Protein.ActiveResidues>
 VAL166  LYS551  ARG553  GLY616  TRP617  ASP618  TYR619  PRO620  LYS621  CYS622 
 ASP623  PHE694  ASN695  SER759  ASP760  ASP761  ALA762  ILE779  LEU786  VAL792 
 PHE793  MET794  SER795  GLU796  ALA797  LYS798  CYS799  TRP800  GLU811  SER814 

> <Gold.Protein.RotatedAtoms>
  152.0915  133.4203  159.4545 H   0  0  0  0  0  0  0  0  0  0  0  0  # atno 6907 bound_to 6896
  150.6862  134.2866  159.4658 H   0  0  0  0  0  0  0  0  0  0  0  0  # atno 6908 bound_to 6896
  152.0718  134.9528  160.0625 H   0  0  0  0  0  0  0  0  0  0  0  0  # atno 6909 bound_to 6896
  144.7665  140.4321  143.5938 H   0  0  0  0  0  0  0  0  0  0  0  0  # atno 7974 bound_to 7965
  154.9954  140.0395  157.2337 H   0  0  0  0  0  0  0  0  0  0  0  0  # atno 8008 bound_to 7997
  154.7591  140.2781  155.6206 H   0  0  0  0  0  0  0  0  0  0  0  0  # atno 8009 bound_to 7997
  156.2900  140.2632  156.2364 H   0  0  0  0  0  0  0  0  0  0  0  0  # atno 8010 bound_to 7997
  140.6460  143.7661  150.7500 H   0  0  0  0  0  0  0  0  0  0  0  0  # atno 10167 bound_to 10162
  156.8753  130.9797  151.3068 H   0  0  0  0  0  0  0  0  0  0  0  0  # atno 10718 bound_to 10713
  154.8197  135.3318  154.7074 H   0  0  0  0  0  0  0  0  0  0  0  0  # atno 10763 bound_to 10752
  153.7709  135.6925  153.4911 H   0  0  0  0  0  0  0  0  0  0  0  0  # atno 10764 bound_to 10752
  153.2045  135.4504  155.0255 H   0  0  0  0  0  0  0  0  0  0  0  0  # atno 10765 bound_to 10752
  140.1950  134.3940  155.8126 H   0  0  0  0  0  0  0  0  0  0  0  0  # atno 11005 bound_to 11000
  145.6453  139.1556  143.2892 LP  0  0  0  0  0  0  0  0  0  0  0  0  # atno 17320 bound_to 7965
  146.1777  140.6546  142.9203 LP  0  0  0  0  0  0  0  0  0  0  0  0  # atno 17321 bound_to 7965
  140.1302  143.4533  152.2259 LP  0  0  0  0  0  0  0  0  0  0  0  0  # atno 17342 bound_to 10162
  139.5671  144.7441  151.3993 LP  0  0  0  0  0  0  0  0  0  0  0  0  # atno 17343 bound_to 10162
  157.6172  130.8627  149.9048 LP  0  0  0  0  0  0  0  0  0  0  0  0  # atno 17370 bound_to 10713
  156.0705  130.3686  150.0786 LP  0  0  0  0  0  0  0  0  0  0  0  0  # atno 17371 bound_to 10713
  141.2227  133.7065  156.8161 LP  0  0  0  0  0  0  0  0  0  0  0  0  # atno 17394 bound_to 11000
  140.2117  134.8823  157.3281 LP  0  0  0  0  0  0  0  0  0  0  0  0  # atno 17395 bound_to 11000

$$$$
