AV-unprocessed.smi:1692|AV-procd|sdf|6779|dock8
  -GOLD-   22720 7543D 1   1.00000     0.00000
 Structure written by MMmdl.
 46 47  0  0  0  0  0  0  0  0  2 V2000
  144.7972  135.2545  150.4669 C   0  0  0  0  0  0  0  0  0  0  0  0
  145.7111  135.7757  151.5816 C   0  0  1  0  0  0  0  0  0  0  0  0
  145.8813  137.3056  151.5261 C   0  0  0  0  0  0  0  0  0  0  0  0
  146.7085  137.7789  152.6611 N   0  3  1  0  0  0  0  0  0  0  0  0
  146.9537  139.2421  152.6122 C   0  0  0  0  0  0  0  0  0  0  0  0
  147.4901  139.7928  153.9443 C   0  0  0  0  0  0  0  0  0  0  0  0
  148.8339  140.5211  153.7745 C   0  0  0  0  0  0  0  0  0  0  0  0
  149.0834  141.4571  154.8649 N   0  0  0  0  0  0  0  0  0  0  0  0
  150.1944  141.4824  155.6158 C   0  0  0  0  0  0  0  0  0  0  0  0
  151.1406  140.7119  155.4488 O   0  0  0  0  0  0  0  0  0  0  0  0
  150.1300  142.4470  156.5505 N   0  0  0  0  0  0  0  0  0  0  0  0
  151.0985  142.7819  157.5341 C   0  0  0  0  0  0  0  0  0  0  0  0
  151.2641  144.1664  157.7645 C   0  0  0  0  0  0  0  0  0  0  0  0
  152.1998  144.6025  158.7225 C   0  0  0  0  0  0  0  0  0  0  0  0
  152.9457  143.6416  159.4278 C   0  0  0  0  0  0  0  0  0  0  0  0
  152.7198  142.2834  159.1379 C   0  0  0  0  0  0  0  0  0  0  0  0
  151.8249  141.8633  158.2189 N   0  0  0  0  0  0  0  0  0  0  0  0
  146.1298  137.3163  153.9465 C   0  0  0  0  0  0  0  0  0  0  0  0
  145.9519  135.7859  153.9386 C   0  0  1  0  0  0  0  0  0  0  0  0
  145.2828  135.2740  155.2190 C   0  0  0  0  0  0  0  0  0  0  0  0
  145.1345  135.4178  152.8327 O   0  0  0  0  0  0  0  0  0  0  0  0
  145.1997  135.4977  149.4833 H   0  0  0  0  0  0  0  0  0  0  0  0
  143.7999  135.6892  150.5377 H   0  0  0  0  0  0  0  0  0  0  0  0
  144.6922  134.1708  150.5238 H   0  0  0  0  0  0  0  0  0  0  0  0
  146.6855  135.2934  151.4842 H   0  0  0  0  0  0  0  0  0  0  0  0
  146.3534  137.5871  150.5839 H   0  0  0  0  0  0  0  0  0  0  0  0
  144.9072  137.7968  151.5566 H   0  0  0  0  0  0  0  0  0  0  0  0
  147.6939  139.4519  151.8386 H   0  0  0  0  0  0  0  0  0  0  0  0
  146.0421  139.7632  152.3158 H   0  0  0  0  0  0  0  0  0  0  0  0
  146.7663  140.4789  154.3833 H   0  0  0  0  0  0  0  0  0  0  0  0
  147.6097  138.9736  154.6545 H   0  0  0  0  0  0  0  0  0  0  0  0
  149.6497  139.7982  153.7577 H   0  0  0  0  0  0  0  0  0  0  0  0
  148.8663  141.0473  152.8187 H   0  0  0  0  0  0  0  0  0  0  0  0
  148.3534  142.1237  155.0706 H   0  0  0  0  0  0  0  0  0  0  0  0
  149.2887  143.0043  156.5639 H   0  0  0  0  0  0  0  0  0  0  0  0
  150.6814  144.8916  157.2153 H   0  0  0  0  0  0  0  0  0  0  0  0
  152.3417  145.6560  158.9130 H   0  0  0  0  0  0  0  0  0  0  0  0
  153.6715  143.9371  160.1711 H   0  0  0  0  0  0  0  0  0  0  0  0
  153.2712  141.5137  159.6572 H   0  0  0  0  0  0  0  0  0  0  0  0
  146.7762  137.5977  154.7770 H   0  0  0  0  0  0  0  0  0  0  0  0
  145.1683  137.8063  154.1102 H   0  0  0  0  0  0  0  0  0  0  0  0
  146.9262  135.3034  153.8405 H   0  0  0  0  0  0  0  0  0  0  0  0
  145.8760  135.5233  156.0992 H   0  0  0  0  0  0  0  0  0  0  0  0
  145.1689  134.1900  155.1924 H   0  0  0  0  0  0  0  0  0  0  0  0
  144.2916  135.7094  155.3490 H   0  0  0  0  0  0  0  0  0  0  0  0
  147.6084  137.3310  152.5617 H   0  0  0  0  0  0  0  0  0  0  0  0
  1  2  1  0  0  0  0
  1 22  1  0  0  0  0
  1 23  1  0  0  0  0
  1 24  1  0  0  0  0
  2 21  1  0  0  0  0
  2  3  1  0  0  0  0
  2 25  1  0  0  0  0
  3  4  1  0  0  0  0
  3 26  1  0  0  0  0
  3 27  1  0  0  0  0
  4  5  1  0  0  0  0
  4 18  1  0  0  0  0
  4 46  1  0  0  0  0
  5  6  1  0  0  0  0
  5 28  1  0  0  0  0
  5 29  1  0  0  0  0
  6  7  1  0  0  0  0
  6 30  1  0  0  0  0
  6 31  1  0  0  0  0
  7  8  1  0  0  0  0
  7 32  1  0  0  0  0
  7 33  1  0  0  0  0
  8  9  1  0  0  0  0
  8 34  1  0  0  0  0
  9 10  2  0  0  0  0
  9 11  1  0  0  0  0
 11 12  1  0  0  0  0
 11 35  1  0  0  0  0
 12 17  1  0  0  0  0
 12 13  2  0  0  0  0
 13 14  1  0  0  0  0
 13 36  1  0  0  0  0
 14 15  2  0  0  0  0
 14 37  1  0  0  0  0
 15 16  1  0  0  0  0
 15 38  1  0  0  0  0
 16 17  2  0  0  0  0
 16 39  1  0  0  0  0
 18 19  1  0  0  0  0
 18 40  1  0  0  0  0
 18 41  1  0  0  0  0
 19 20  1  0  0  0  0
 19 21  1  0  0  0  0
 19 42  1  0  0  0  0
 20 43  1  0  0  0  0
 20 44  1  0  0  0  0
 20 45  1  0  0  0  0
M  CHG  1   4   1
M  END
> <s_m_source_file>
AV-unprocessed.smi

> <i_m_source_file_index>
1692

> <i_lp_mmshare_version>
43012

> <i_f3d_flags>
0

> <s_epik_input>
W0NIM11bQ0BASF0xW0NIMl1OKFtDSDJdW0NASF0oTzEpW0NIM10pW0NIMl1bQ0gyXVtDSDJdW05IXUMoPU8pW05IXWMyW2NIXVtjSF1bY0hdW2NIXW4y

> <s_epik_cmdline>
J2VwaWtfcHl0aG9uJywgJy1waCcsICc3LjAnLCAnLXRuJywgJzgnLCAnLW1hJywgJzIwMCcsICctbWV0YWxfYmluZGluZycsICctaW1hZScsICc8aW5maWxlLm1hZT4nLCAnLW9tYWUnLCAnPG91dGZpbGUubWFlPic=

> <r_epik_Ionization_Penalty>
0.270538

> <r_epik_Ionization_Penalty_Charging>
0.270496

> <r_epik_Ionization_Penalty_Neutral>
4.22978e-05

> <r_epik_State_Penalty>
0.262618

> <r_epik_Charging_Adjusted_Penalty>
0.533114

> <i_epik_Tot_Q>
1

> <i_epik_Tot_abs_Q>
1

> <r_epik_Metal_State_Penalty>
0.262618

> <b_epik_Metal_Only>
0

> <s_lp_Force_Field>
OPLS_2005

> <r_lp_Energy>
16.7861

> <b_lp_Chiralities_Consistent>
1

> <s_lp_Variant>
AV-unprocessed.smi:1692-2

> <Gold.Version>
5.8.1

> <Gold.Id.Protein>
6NUR|6NUR_protein|mol2

> <Gold.PLP.Fitness>
47.5217

> <Gold.PLP.PLP>
-38.5270

> <Gold.PLP.part.hbond>
-3.0000

> <Gold.PLP.part.metal>
0.0000

> <Gold.PLP.part.buried>
1.2875

> <Gold.PLP.part.nonpolar>
-37.1438

> <Gold.PLP.part.repulsive>
0.3992

> <Gold.PLP.ligand.clash>
0.0000

> <Gold.PLP.ligand.torsion>
0.9670

> <Gold.PLP.Chemscore.Hbond>
3.6320

> <Gold.PLP.Chemscore.CHOScore>
0.0000

> <Gold.PLP.Chemscore.Metal>
0.0000

> <Gold.Chemscore.Hbonds>
donor molecule, donor type, donor heavy atom, donor atom, acceptor molecule, acceptor atom, score
      L1  H     4    46       P1  7948  2.00
      L1  H    11    35       P1  8028  0.61
      P1  H  7989  7998       L1    10  0.82

> <Gold.PLP.Chemscore.Internal.Correction>
0.0328

> <Gold.Rescore>
     Score         DG    S(hbond)    S(metal)    S(lipo)     H(rot)  DE(clash)    DE(int)     intcor
     14.49     -19.00       2.02        0.00      96.93       1.78       2.53       1.98       ----

> <Gold.Chemscore.Fitness>
14.4892

> <Gold.Chemscore.DG>
-18.9978

> <Gold.Chemscore.ZeroCoef>
-5.4800

> <Gold.Chemscore.Hbond>
2.0172

> <Gold.Chemscore.Metal>
0.0000

> <Gold.Chemscore.Lipo>
96.9289

> <Gold.Chemscore.Internal_Hbond>
0.0000

> <Gold.Chemscore.DEClash>
2.5320

> <Gold.Chemscore.DEInternal>
1.9766

> <Gold.Chemscore.Rot>
1.7814

> <Gold.Chemscore.Internal.Correction>
   9.000000E+99

> <Gold.Chemscore.Hbonds>
donor molecule, donor type, donor heavy atom, donor atom, acceptor molecule, acceptor atom, score
      L1  H     4    46       P1  7948  0.99
      L1  H    11    35       P1  8028  0.59
      P1  H  7989  7998       L1    10  0.39

> <Gold.Chemscore.Hbond.Weighted>
-6.7375

> <Gold.Chemscore.Metal.Weighted>
-0.0000

> <Gold.Chemscore.Lipo.Weighted>
-11.3407

> <Gold.Chemscore.Internal_Hbond.Weighted>
0.0000

> <Gold.Chemscore.DEClash.Weighted>
2.5320

> <Gold.Chemscore.DEInternal.Weighted>
1.9766

> <Gold.Chemscore.Rot.Weighted>
4.5603

> <Gold.Chemscore.Internal.Correction.Weighted>
   9.000000E+99

> <Gold.Protein.RotatedTorsions>
[ 6907 6896 6895 6894 ] final   70.96 input  -60.11 | X-H torsion
[ 7974 7965 7964 7962 ] final   40.16 input  175.53 | X-H torsion
[ 8008 7997 7996 7995 ] final -162.98 input   59.86 | X-H torsion
[ 10167 10162 10161 10158 ] final  -56.64 input  -65.29 | X-H torsion
[ 10718 10713 10712 10709 ] final -134.90 input   66.30 | X-H torsion
[ 10763 10752 10751 10750 ] final -151.97 input  -60.55 | X-H torsion
[ 11005 11000 10999 10996 ] final   32.74 input  -57.11 | X-H torsion

> <Gold.Protein.ActiveResidues>
 VAL166  LYS551  ARG553  GLY616  TRP617  ASP618  TYR619  PRO620  LYS621  CYS622 
 ASP623  PHE694  ASN695  SER759  ASP760  ASP761  ALA762  ILE779  LEU786  VAL792 
 PHE793  MET794  SER795  GLU796  ALA797  LYS798  CYS799  TRP800  GLU811  SER814 

> <Gold.Protein.RotatedAtoms>
  152.4781  134.4790  159.9659 H   0  0  0  0  0  0  0  0  0  0  0  0  # atno 6907 bound_to 6896
  151.4802  133.3542  159.2845 H   0  0  0  0  0  0  0  0  0  0  0  0  # atno 6908 bound_to 6896
  150.8834  134.8255  159.7303 H   0  0  0  0  0  0  0  0  0  0  0  0  # atno 6909 bound_to 6896
  146.0927  139.5566  142.9465 H   0  0  0  0  0  0  0  0  0  0  0  0  # atno 7974 bound_to 7965
  155.8146  140.0910  157.1884 H   0  0  0  0  0  0  0  0  0  0  0  0  # atno 8008 bound_to 7997
  154.3979  140.1448  156.3487 H   0  0  0  0  0  0  0  0  0  0  0  0  # atno 8009 bound_to 7997
  155.8329  140.3442  155.5586 H   0  0  0  0  0  0  0  0  0  0  0  0  # atno 8010 bound_to 7997
  140.6305  143.2457  151.5252 H   0  0  0  0  0  0  0  0  0  0  0  0  # atno 10167 bound_to 10162
  156.2604  130.7206  151.1138 H   0  0  0  0  0  0  0  0  0  0  0  0  # atno 10718 bound_to 10713
  154.8024  135.3247  154.7516 H   0  0  0  0  0  0  0  0  0  0  0  0  # atno 10763 bound_to 10752
  153.8182  135.6890  153.4835 H   0  0  0  0  0  0  0  0  0  0  0  0  # atno 10764 bound_to 10752
  153.1749  135.4609  154.9895 H   0  0  0  0  0  0  0  0  0  0  0  0  # atno 10765 bound_to 10752
  140.2704  134.3089  155.7830 H   0  0  0  0  0  0  0  0  0  0  0  0  # atno 11005 bound_to 11000
  145.6008  141.0355  143.2019 LP  0  0  0  0  0  0  0  0  0  0  0  0  # atno 17320 bound_to 7965
  144.7372  139.7551  143.7325 LP  0  0  0  0  0  0  0  0  0  0  0  0  # atno 17321 bound_to 7965
  139.5520  144.2371  152.1547 LP  0  0  0  0  0  0  0  0  0  0  0  0  # atno 17342 bound_to 10162
  140.1614  144.5022  150.6630 LP  0  0  0  0  0  0  0  0  0  0  0  0  # atno 17343 bound_to 10162
  157.7248  131.0657  150.5979 LP  0  0  0  0  0  0  0  0  0  0  0  0  # atno 17370 bound_to 10713
  156.6066  130.4368  149.5876 LP  0  0  0  0  0  0  0  0  0  0  0  0  # atno 17371 bound_to 10713
  141.2178  133.7463  156.9325 LP  0  0  0  0  0  0  0  0  0  0  0  0  # atno 17394 bound_to 11000
  140.1379  134.9313  157.2426 LP  0  0  0  0  0  0  0  0  0  0  0  0  # atno 17395 bound_to 11000

$$$$
