AV-unprocessed.smi:1433|AV-procd|sdf|5837|dock9
  -GOLD-   22720 5503D 1   1.00000     0.00000
 Structure written by MMmdl.
 44 45  0  0  0  0  0  0  0  0  1 V2000
  149.6486  141.3690  156.7602 C   0  0  0  0  0  0  0  0  0  0  0  0
  149.5978  141.2530  155.2269 C   0  0  2  0  0  0  0  0  0  0  0  0
  148.2158  140.8279  154.6916 C   0  0  0  0  0  0  0  0  0  0  0  0
  147.9057  139.4111  154.9158 N   0  0  0  0  0  0  0  0  0  0  0  0
  146.5871  139.0195  154.3638 C   0  0  1  0  0  0  0  0  0  0  0  0
  145.4602  140.0183  154.7370 C   0  0  0  0  0  0  0  0  0  0  0  0
  146.5966  138.8313  152.8215 C   0  0  0  0  0  0  0  0  0  0  0  0
  145.5704  137.8972  152.3752 N   0  0  0  0  0  0  0  0  0  0  0  0
  145.5013  136.6044  152.7238 C   0  0  0  0  0  0  0  0  0  0  0  0
  146.2869  136.0682  153.5050 O   0  0  0  0  0  0  0  0  0  0  0  0
  144.3716  135.7898  152.0913 C   0  0  0  0  0  0  0  0  0  0  0  0
  144.8791  134.5705  151.4861 N   0  0  0  0  0  0  0  0  0  0  0  0
  144.1798  133.6038  150.7940 C   0  0  0  0  0  0  0  0  0  0  0  0
  145.0741  132.6392  150.4279 C   0  0  0  0  0  0  0  0  0  0  0  0
  146.3119  133.1097  150.9491 C   0  0  0  0  0  0  0  0  0  0  0  0
  146.1928  134.2661  151.5811 N   0  0  0  0  0  0  0  0  0  0  0  0
  149.0057  138.6159  154.3619 C   0  0  0  0  0  0  0  0  0  0  0  0
  150.3775  139.0024  154.9432 C   0  0  1  0  0  0  0  0  0  0  0  0
  151.5209  138.2192  154.2891 C   0  0  0  0  0  0  0  0  0  0  0  0
  150.6138  140.3888  154.7242 O   0  0  0  0  0  0  0  0  0  0  0  0
  148.9489  142.1265  157.1141 H   0  0  0  0  0  0  0  0  0  0  0  0
  150.6448  141.6583  157.0954 H   0  0  0  0  0  0  0  0  0  0  0  0
  149.3881  140.4323  157.2524 H   0  0  0  0  0  0  0  0  0  0  0  0
  149.8181  142.2438  154.8288 H   0  0  0  0  0  0  0  0  0  0  0  0
  147.4789  141.4694  155.1701 H   0  0  0  0  0  0  0  0  0  0  0  0
  148.1698  141.0422  153.6227 H   0  0  0  0  0  0  0  0  0  0  0  0
  146.3146  138.0565  154.7988 H   0  0  0  0  0  0  0  0  0  0  0  0
  144.5037  139.7627  154.2820 H   0  0  0  0  0  0  0  0  0  0  0  0
  145.7110  141.0309  154.4197 H   0  0  0  0  0  0  0  0  0  0  0  0
  145.2639  140.0389  155.8080 H   0  0  0  0  0  0  0  0  0  0  0  0
  146.4650  139.7973  152.3304 H   0  0  0  0  0  0  0  0  0  0  0  0
  147.5397  138.4171  152.4692 H   0  0  0  0  0  0  0  0  0  0  0  0
  144.8813  138.2505  151.7264 H   0  0  0  0  0  0  0  0  0  0  0  0
  143.6330  135.5234  152.8485 H   0  0  0  0  0  0  0  0  0  0  0  0
  143.8583  136.3874  151.3361 H   0  0  0  0  0  0  0  0  0  0  0  0
  143.1158  133.6822  150.6249 H   0  0  0  0  0  0  0  0  0  0  0  0
  144.8746  131.7340  149.8739 H   0  0  0  0  0  0  0  0  0  0  0  0
  147.2865  132.6484  150.8872 H   0  0  0  0  0  0  0  0  0  0  0  0
  148.8603  137.5590  154.5766 H   0  0  0  0  0  0  0  0  0  0  0  0
  149.0245  138.7187  153.2758 H   0  0  0  0  0  0  0  0  0  0  0  0
  150.3907  138.7948  156.0136 H   0  0  0  0  0  0  0  0  0  0  0  0
  151.3972  137.1460  154.4367 H   0  0  0  0  0  0  0  0  0  0  0  0
  152.4825  138.5044  154.7164 H   0  0  0  0  0  0  0  0  0  0  0  0
  151.5648  138.4072  153.2159 H   0  0  0  0  0  0  0  0  0  0  0  0
  1  2  1  0  0  0  0
  1 21  1  0  0  0  0
  1 22  1  0  0  0  0
  1 23  1  0  0  0  0
  2 20  1  0  0  0  0
  2  3  1  0  0  0  0
  2 24  1  0  0  0  0
  3  4  1  0  0  0  0
  3 25  1  0  0  0  0
  3 26  1  0  0  0  0
  4  5  1  0  0  0  0
  4 17  1  0  0  0  0
  5  6  1  0  0  0  0
  5  7  1  0  0  0  0
  5 27  1  0  0  0  0
  6 28  1  0  0  0  0
  6 29  1  0  0  0  0
  6 30  1  0  0  0  0
  7  8  1  0  0  0  0
  7 31  1  0  0  0  0
  7 32  1  0  0  0  0
  8  9  1  0  0  0  0
  8 33  1  0  0  0  0
  9 10  2  0  0  0  0
  9 11  1  0  0  0  0
 11 12  1  0  0  0  0
 11 34  1  0  0  0  0
 11 35  1  0  0  0  0
 12 16  1  0  0  0  0
 12 13  1  0  0  0  0
 13 14  2  0  0  0  0
 13 36  1  0  0  0  0
 14 15  1  0  0  0  0
 14 37  1  0  0  0  0
 15 16  2  0  0  0  0
 15 38  1  0  0  0  0
 17 18  1  0  0  0  0
 17 39  1  0  0  0  0
 17 40  1  0  0  0  0
 18 19  1  0  0  0  0
 18 20  1  0  0  0  0
 18 41  1  0  0  0  0
 19 42  1  0  0  0  0
 19 43  1  0  0  0  0
 19 44  1  0  0  0  0
M  END
> <s_m_source_file>
AV-unprocessed.smi

> <i_m_source_file_index>
1433

> <i_lp_mmshare_version>
43012

> <i_f3d_flags>
0

> <s_epik_input>
W0NIM11bQ0BASF0xW0NIMl1OKFtDSDJdW0NASF0oTzEpW0NIM10pW0NASF0oW0NIM10pW0NIMl1bTkhdQyg9TylbQ0gyXW4yW2NIXVtjSF1bY0hdbjI=

> <s_epik_cmdline>
J2VwaWtfcHl0aG9uJywgJy1waCcsICc3LjAnLCAnLXRuJywgJzgnLCAnLW1hJywgJzIwMCcsICctbWV0YWxfYmluZGluZycsICctaW1hZScsICc8aW5maWxlLm1hZT4nLCAnLW9tYWUnLCAnPG91dGZpbGUubWFlPic=

> <r_lp_tautomer_probability>
1

> <r_epik_Ionization_Penalty>
0.196927

> <r_epik_Ionization_Penalty_Charging>
0

> <r_epik_Ionization_Penalty_Neutral>
0.196927

> <r_epik_State_Penalty>
0.186684

> <r_epik_Charging_Adjusted_Penalty>
0.186684

> <i_epik_Tot_Q>
0

> <i_epik_Tot_abs_Q>
0

> <r_epik_Metal_State_Penalty>
0.186682

> <b_epik_Metal_Only>
0

> <s_lp_Force_Field>
OPLS_2005

> <r_lp_Energy>
30.021

> <b_lp_Chiralities_Consistent>
1

> <s_lp_Variant>
AV-unprocessed.smi:1433-3

> <Gold.Version>
5.8.1

> <Gold.Id.Protein>
6NUR|6NUR_protein|mol2

> <Gold.PLP.Fitness>
43.4408

> <Gold.PLP.PLP>
-32.4482

> <Gold.PLP.part.hbond>
-2.3010

> <Gold.PLP.part.metal>
0.0000

> <Gold.PLP.part.buried>
-1.7214

> <Gold.PLP.part.nonpolar>
-29.9418

> <Gold.PLP.part.repulsive>
1.3901

> <Gold.PLP.ligand.clash>
0.0000

> <Gold.PLP.ligand.torsion>
0.5280

> <Gold.PLP.Chemscore.Hbond>
2.0000

> <Gold.PLP.Chemscore.CHOScore>
2.0000

> <Gold.PLP.Chemscore.Metal>
0.0000

> <Gold.Chemscore.Hbonds>
donor molecule, donor type, donor heavy atom, donor atom, acceptor molecule, acceptor atom, score
      L1  H     8    33       P1 10171  0.62
      P1  H  7989  7998       L1    20  1.00
      L1  C    13    36       P1 10186  1.00
      L1  C    15    38       P1 10747  1.00

> <Gold.PLP.Chemscore.Internal.Correction>
0.0485

> <Gold.Rescore>
     Score         DG    S(hbond)    S(metal)    S(lipo)     H(rot)  DE(clash)    DE(int)     intcor
     13.00     -17.46       1.95        0.00      86.34       1.80       1.83       2.63       ----

> <Gold.Chemscore.Fitness>
13.0008

> <Gold.Chemscore.DG>
-17.4629

> <Gold.Chemscore.ZeroCoef>
-5.4800

> <Gold.Chemscore.Hbond>
1.9459

> <Gold.Chemscore.Metal>
0.0000

> <Gold.Chemscore.Lipo>
86.3352

> <Gold.Chemscore.Internal_Hbond>
0.0000

> <Gold.Chemscore.DEClash>
1.8293

> <Gold.Chemscore.DEInternal>
2.6328

> <Gold.Chemscore.Rot>
1.8038

> <Gold.Chemscore.Internal.Correction>
   9.000000E+99

> <Gold.Chemscore.Hbonds>
donor molecule, donor type, donor heavy atom, donor atom, acceptor molecule, acceptor atom, score
      L1  H     8    33       P1 10171  0.60
      P1  H  7989  7998       L1    20  0.94

> <Gold.Chemscore.Hbond.Weighted>
-6.4995

> <Gold.Chemscore.Metal.Weighted>
-0.0000

> <Gold.Chemscore.Lipo.Weighted>
-10.1012

> <Gold.Chemscore.Internal_Hbond.Weighted>
0.0000

> <Gold.Chemscore.DEClash.Weighted>
1.8293

> <Gold.Chemscore.DEInternal.Weighted>
2.6328

> <Gold.Chemscore.Rot.Weighted>
4.6178

> <Gold.Chemscore.Internal.Correction.Weighted>
   9.000000E+99

> <Gold.Protein.RotatedTorsions>
[ 6907 6896 6895 6894 ] final   94.93 input  -60.11 | X-H torsion
[ 7974 7965 7964 7962 ] final  -32.92 input  175.53 | X-H torsion
[ 8008 7997 7996 7995 ] final  -28.39 input   59.86 | X-H torsion
[ 10167 10162 10161 10158 ] final -121.99 input  -65.29 | X-H torsion
[ 10718 10713 10712 10709 ] final   29.16 input   66.30 | X-H torsion
[ 10763 10752 10751 10750 ] final  169.49 input  -60.55 | X-H torsion
[ 11005 11000 10999 10996 ] final  -66.42 input  -57.11 | X-H torsion

> <Gold.Protein.ActiveResidues>
 VAL166  LYS551  ARG553  GLY616  TRP617  ASP618  TYR619  PRO620  LYS621  CYS622 
 ASP623  PHE694  ASN695  SER759  ASP760  ASP761  ALA762  ILE779  LEU786  VAL792 
 PHE793  MET794  SER795  GLU796  ALA797  LYS798  CYS799  TRP800  GLU811  SER814 

> <Gold.Protein.RotatedAtoms>
  152.5447  134.1117  159.8361 H   0  0  0  0  0  0  0  0  0  0  0  0  # atno 6907 bound_to 6896
  151.1183  133.5115  159.2610 H   0  0  0  0  0  0  0  0  0  0  0  0  # atno 6908 bound_to 6896
  151.1807  135.0369  159.8846 H   0  0  0  0  0  0  0  0  0  0  0  0  # atno 6909 bound_to 6896
  146.0951  140.5853  142.8846 H   0  0  0  0  0  0  0  0  0  0  0  0  # atno 7974 bound_to 7965
  154.4334  140.1846  156.1082 H   0  0  0  0  0  0  0  0  0  0  0  0  # atno 8008 bound_to 7997
  156.0239  140.3338  155.7042 H   0  0  0  0  0  0  0  0  0  0  0  0  # atno 8009 bound_to 7997
  155.5937  140.0633  157.2742 H   0  0  0  0  0  0  0  0  0  0  0  0  # atno 8010 bound_to 7997
  140.0190  143.5363  152.2229 H   0  0  0  0  0  0  0  0  0  0  0  0  # atno 10167 bound_to 10162
  157.2429  130.7078  149.6367 H   0  0  0  0  0  0  0  0  0  0  0  0  # atno 10718 bound_to 10713
  154.3839  135.2753  155.2195 H   0  0  0  0  0  0  0  0  0  0  0  0  # atno 10763 bound_to 10752
  154.4290  135.5982  153.6060 H   0  0  0  0  0  0  0  0  0  0  0  0  # atno 10764 bound_to 10752
  152.9834  135.5991  154.4085 H   0  0  0  0  0  0  0  0  0  0  0  0  # atno 10765 bound_to 10752
  141.1481  133.6699  156.6137 H   0  0  0  0  0  0  0  0  0  0  0  0  # atno 11005 bound_to 11000
  144.7389  140.4888  143.6883 LP  0  0  0  0  0  0  0  0  0  0  0  0  # atno 17320 bound_to 7965
  145.5963  139.1500  143.3154 LP  0  0  0  0  0  0  0  0  0  0  0  0  # atno 17321 bound_to 7965
  139.6152  144.7618  151.2861 LP  0  0  0  0  0  0  0  0  0  0  0  0  # atno 17342 bound_to 10162
  140.7350  143.6749  150.8050 LP  0  0  0  0  0  0  0  0  0  0  0  0  # atno 17343 bound_to 10162
  155.9669  130.4452  150.5492 LP  0  0  0  0  0  0  0  0  0  0  0  0  # atno 17370 bound_to 10713
  157.3359  131.0708  151.1825 LP  0  0  0  0  0  0  0  0  0  0  0  0  # atno 17371 bound_to 10713
  140.3594  134.7700  157.4523 LP  0  0  0  0  0  0  0  0  0  0  0  0  # atno 17394 bound_to 11000
  140.0797  134.5749  155.8554 LP  0  0  0  0  0  0  0  0  0  0  0  0  # atno 17395 bound_to 11000

$$$$
