AV-unprocessed.smi:1047|AV-procd|sdf|4565|dock10
  -GOLD-   22720 3 13D 1   1.00000     0.00000
 Structure written by MMmdl.
 57 59  0  0  0  0  0  0  0  0  3 V2000
  144.4742  131.9480  151.0955 C   0  0  0  0  0  0  0  0  0  0  0  0
  145.3822  132.5733  152.1638 C   0  0  0  0  0  0  0  0  0  0  0  0
  144.6354  133.4512  153.1040 N   0  3  2  0  0  0  0  0  0  0  0  0
  143.7903  134.4628  152.4238 C   0  0  0  0  0  0  0  0  0  0  0  0
  144.6368  135.6434  151.9162 C   0  0  0  0  0  0  0  0  0  0  0  0
  145.3529  136.2140  153.0052 O   0  0  0  0  0  0  0  0  0  0  0  0
  146.2639  135.2974  153.6041 C   0  0  1  0  0  0  0  0  0  0  0  0
  147.0181  136.0378  154.7192 C   0  0  0  0  0  0  0  0  0  0  0  0
  147.7114  137.2333  154.1981 N   0  3  0  0  0  0  0  0  0  0  0  0
  148.4869  137.9700  155.2155 C   0  0  0  0  0  0  0  0  0  0  0  0
  149.7957  138.5296  154.6265 C   0  0  1  0  0  0  0  0  0  0  0  0
  149.6087  138.7409  153.2404 O   0  0  0  0  0  0  0  0  0  0  0  0
  150.2548  139.8497  155.2841 C   0  0  0  0  0  0  0  0  0  0  0  0
  150.9734  139.6589  156.5338 N   0  0  0  0  0  0  0  0  0  0  0  0
  151.3570  138.4886  157.0803 C   0  0  0  0  0  0  0  0  0  0  0  0
  152.0150  138.5413  158.2343 N   0  0  0  0  0  0  0  0  0  0  0  0
  152.0568  139.9044  158.4699 C   0  0  0  0  0  0  0  0  0  0  0  0
  152.6217  140.6330  159.5392 C   0  0  0  0  0  0  0  0  0  0  0  0
  152.5468  142.0435  159.5750 C   0  0  0  0  0  0  0  0  0  0  0  0
  153.1673  142.7863  160.7450 C   0  0  0  0  0  0  0  0  0  0  0  0
  151.8972  142.7473  158.5294 C   0  0  0  0  0  0  0  0  0  0  0  0
  151.8024  144.2627  158.5480 C   0  0  0  0  0  0  0  0  0  0  0  0
  151.3266  142.0351  157.4540 C   0  0  0  0  0  0  0  0  0  0  0  0
  151.4100  140.6314  157.4281 C   0  0  0  0  0  0  0  0  0  0  0  0
  145.4665  134.0936  154.1554 C   0  0  0  0  0  0  0  0  0  0  0  0
  145.0673  131.3968  150.3656 H   0  0  0  0  0  0  0  0  0  0  0  0
  143.9167  132.7132  150.5544 H   0  0  0  0  0  0  0  0  0  0  0  0
  143.7584  131.2465  151.5223 H   0  0  0  0  0  0  0  0  0  0  0  0
  145.9274  131.7973  152.7008 H   0  0  0  0  0  0  0  0  0  0  0  0
  146.1341  133.1702  151.6458 H   0  0  0  0  0  0  0  0  0  0  0  0
  143.2249  134.0106  151.6081 H   0  0  0  0  0  0  0  0  0  0  0  0
  143.0528  134.8304  153.1387 H   0  0  0  0  0  0  0  0  0  0  0  0
  145.3265  135.3302  151.1310 H   0  0  0  0  0  0  0  0  0  0  0  0
  143.9908  136.4071  151.4827 H   0  0  0  0  0  0  0  0  0  0  0  0
  146.9849  134.9579  152.8589 H   0  0  0  0  0  0  0  0  0  0  0  0
  146.3278  136.3300  155.5120 H   0  0  0  0  0  0  0  0  0  0  0  0
  147.7598  135.3758  155.1678 H   0  0  0  0  0  0  0  0  0  0  0  0
  148.3368  136.9549  153.4557 H   0  0  0  0  0  0  0  0  0  0  0  0
  147.8737  138.7733  155.6271 H   0  0  0  0  0  0  0  0  0  0  0  0
  148.7144  137.2879  156.0353 H   0  0  0  0  0  0  0  0  0  0  0  0
  150.5915  137.7937  154.7478 H   0  0  0  0  0  0  0  0  0  0  0  0
  149.2735  137.9447  152.8557 H   0  0  0  0  0  0  0  0  0  0  0  0
  150.9027  140.3972  154.5987 H   0  0  0  0  0  0  0  0  0  0  0  0
  149.3977  140.4978  155.4730 H   0  0  0  0  0  0  0  0  0  0  0  0
  151.1470  137.5440  156.5999 H   0  0  0  0  0  0  0  0  0  0  0  0
  153.1153  140.0965  160.3363 H   0  0  0  0  0  0  0  0  0  0  0  0
  152.4115  143.3700  161.2711 H   0  0  0  0  0  0  0  0  0  0  0  0
  153.9482  143.4629  160.3973 H   0  0  0  0  0  0  0  0  0  0  0  0
  153.6160  142.0978  161.4618 H   0  0  0  0  0  0  0  0  0  0  0  0
  151.2834  144.6400  157.6665 H   0  0  0  0  0  0  0  0  0  0  0  0
  152.7972  144.7086  158.5670 H   0  0  0  0  0  0  0  0  0  0  0  0
  151.2547  144.5997  159.4283 H   0  0  0  0  0  0  0  0  0  0  0  0
  150.8268  142.5603  156.6539 H   0  0  0  0  0  0  0  0  0  0  0  0
  144.7968  134.4372  154.9451 H   0  0  0  0  0  0  0  0  0  0  0  0
  146.1333  133.3702  154.6228 H   0  0  0  0  0  0  0  0  0  0  0  0
  147.0199  137.8650  153.8182 H   0  0  0  0  0  0  0  0  0  0  0  0
  143.9928  132.8345  153.5812 H   0  0  0  0  0  0  0  0  0  0  0  0
  1  2  1  0  0  0  0
  1 26  1  0  0  0  0
  1 27  1  0  0  0  0
  1 28  1  0  0  0  0
  2  3  1  0  0  0  0
  2 29  1  0  0  0  0
  2 30  1  0  0  0  0
  3 25  1  0  0  0  0
  3  4  1  0  0  0  0
  3 57  1  0  0  0  0
  4  5  1  0  0  0  0
  4 31  1  0  0  0  0
  4 32  1  0  0  0  0
  5  6  1  0  0  0  0
  5 33  1  0  0  0  0
  5 34  1  0  0  0  0
  6  7  1  0  0  0  0
  7  8  1  0  0  0  0
  7 25  1  0  0  0  0
  7 35  1  0  0  0  0
  8  9  1  0  0  0  0
  8 36  1  0  0  0  0
  8 37  1  0  0  0  0
  9 10  1  0  0  0  0
  9 38  1  0  0  0  0
  9 56  1  0  0  0  0
 10 11  1  0  0  0  0
 10 39  1  0  0  0  0
 10 40  1  0  0  0  0
 11 12  1  0  0  0  0
 11 13  1  0  0  0  0
 11 41  1  0  0  0  0
 12 42  1  0  0  0  0
 13 14  1  0  0  0  0
 13 43  1  0  0  0  0
 13 44  1  0  0  0  0
 14 24  1  0  0  0  0
 14 15  1  0  0  0  0
 15 16  2  0  0  0  0
 15 45  1  0  0  0  0
 16 17  1  0  0  0  0
 17 24  2  0  0  0  0
 17 18  1  0  0  0  0
 18 19  2  0  0  0  0
 18 46  1  0  0  0  0
 19 20  1  0  0  0  0
 19 21  1  0  0  0  0
 20 47  1  0  0  0  0
 20 48  1  0  0  0  0
 20 49  1  0  0  0  0
 21 22  1  0  0  0  0
 21 23  2  0  0  0  0
 22 50  1  0  0  0  0
 22 51  1  0  0  0  0
 22 52  1  0  0  0  0
 23 24  1  0  0  0  0
 23 53  1  0  0  0  0
 25 54  1  0  0  0  0
 25 55  1  0  0  0  0
M  CHG  1   3   1
M  CHG  1   9   1
M  END
> <s_m_source_file>
AV-unprocessed.smi

> <i_m_source_file_index>
1047

> <i_lp_mmshare_version>
43012

> <i_f3d_flags>
0

> <s_epik_input>
W0NIM11bQ0gyXU4xW0NIMl1bQ0gyXU9bQ0BIXShbQ0gyXTEpW0NIMl1bTkhdW0NIMl1bQ0BIXShbT0hdKVtDSDJdbihbY0hdbjIpYyhjMjMpW2NIXWMoW0NIM10pYyhbY0hdMylbQ0gzXQ==

> <s_epik_cmdline>
J2VwaWtfcHl0aG9uJywgJy1waCcsICc3LjAnLCAnLXRuJywgJzgnLCAnLW1hJywgJzIwMCcsICctbWV0YWxfYmluZGluZycsICctaW1hZScsICc8aW5maWxlLm1hZT4nLCAnLW9tYWUnLCAnPG91dGZpbGUubWFlPic=

> <r_epik_Ionization_Penalty>
0.528991

> <r_epik_Ionization_Penalty_Charging>
0.438567

> <r_epik_Ionization_Penalty_Neutral>
0.0904237

> <r_epik_State_Penalty>
0.533036

> <r_epik_Charging_Adjusted_Penalty>
0.971603

> <i_epik_Tot_Q>
2

> <i_epik_Tot_abs_Q>
2

> <r_epik_Metal_State_Penalty>
0.448985

> <b_epik_Metal_Only>
0

> <s_lp_Force_Field>
OPLS_2005

> <r_lp_Energy>
30.0062

> <b_lp_Chiralities_Consistent>
1

> <s_lp_Variant>
AV-unprocessed.smi:1047-6

> <Gold.Version>
5.8.1

> <Gold.Id.Protein>
6NUR|6NUR_protein|mol2

> <Gold.PLP.Fitness>
56.2451

> <Gold.PLP.PLP>
-43.0179

> <Gold.PLP.part.hbond>
-3.5232

> <Gold.PLP.part.metal>
0.0000

> <Gold.PLP.part.buried>
-5.7997

> <Gold.PLP.part.nonpolar>
-32.9910

> <Gold.PLP.part.repulsive>
0.1353

> <Gold.PLP.ligand.clash>
0.0000

> <Gold.PLP.ligand.torsion>
0.9644

> <Gold.PLP.Chemscore.Hbond>
5.0000

> <Gold.PLP.Chemscore.CHOScore>
0.0000

> <Gold.PLP.Chemscore.Metal>
0.0000

> <Gold.Chemscore.Hbonds>
donor molecule, donor type, donor heavy atom, donor atom, acceptor molecule, acceptor atom, score
      L1  H     3    57       P1 10957  1.76
      L1  H     9    38       P1  7948  2.00
      L1  H    12    42       P1  7948  1.00

> <Gold.PLP.Chemscore.Internal.Correction>
0.1560

> <Gold.Rescore>
     Score         DG    S(hbond)    S(metal)    S(lipo)     H(rot)  DE(clash)    DE(int)     intcor
     20.57     -21.58       2.94        0.00     112.80       2.70       0.09       0.92       ----

> <Gold.Chemscore.Fitness>
20.5741

> <Gold.Chemscore.DG>
-21.5834

> <Gold.Chemscore.ZeroCoef>
-5.4800

> <Gold.Chemscore.Hbond>
2.9383

> <Gold.Chemscore.Metal>
0.0000

> <Gold.Chemscore.Lipo>
112.8007

> <Gold.Chemscore.Internal_Hbond>
0.0000

> <Gold.Chemscore.DEClash>
0.0918

> <Gold.Chemscore.DEInternal>
0.9175

> <Gold.Chemscore.Rot>
2.6985

> <Gold.Chemscore.Internal.Correction>
   9.000000E+99

> <Gold.Chemscore.Hbonds>
donor molecule, donor type, donor heavy atom, donor atom, acceptor molecule, acceptor atom, score
      L1  H     3    57       P1 10957  0.64
      L1  H     9    38       P1  7948  1.00
      L1  H    12    42       P1  7948  0.94

> <Gold.Chemscore.Hbond.Weighted>
-9.8138

> <Gold.Chemscore.Metal.Weighted>
-0.0000

> <Gold.Chemscore.Lipo.Weighted>
-13.1977

> <Gold.Chemscore.Internal_Hbond.Weighted>
0.0000

> <Gold.Chemscore.DEClash.Weighted>
0.0918

> <Gold.Chemscore.DEInternal.Weighted>
0.9175

> <Gold.Chemscore.Rot.Weighted>
6.9081

> <Gold.Chemscore.Internal.Correction.Weighted>
   9.000000E+99

> <Gold.Protein.RotatedTorsions>
[ 6907 6896 6895 6894 ] final -122.52 input  -60.11 | X-H torsion
[ 7974 7965 7964 7962 ] final  -41.78 input  175.53 | X-H torsion
[ 8008 7997 7996 7995 ] final   52.38 input   59.86 | X-H torsion
[ 10167 10162 10161 10158 ] final  -61.77 input  -65.29 | X-H torsion
[ 10718 10713 10712 10709 ] final  -31.08 input   66.30 | X-H torsion
[ 10763 10752 10751 10750 ] final  -29.35 input  -60.55 | X-H torsion
[ 11005 11000 10999 10996 ] final  -82.26 input  -57.11 | X-H torsion

> <Gold.Protein.ActiveResidues>
 VAL166  LYS551  ARG553  GLY616  TRP617  ASP618  TYR619  PRO620  LYS621  CYS622 
 ASP623  PHE694  ASN695  SER759  ASP760  ASP761  ALA762  ILE779  LEU786  VAL792 
 PHE793  MET794  SER795  GLU796  ALA797  LYS798  CYS799  TRP800  GLU811  SER814 

> <Gold.Protein.RotatedAtoms>
  150.8584  133.7681  159.3000 H   0  0  0  0  0  0  0  0  0  0  0  0  # atno 6907 bound_to 6896
  151.5331  135.1067  159.9917 H   0  0  0  0  0  0  0  0  0  0  0  0  # atno 6908 bound_to 6896
  152.4607  133.7773  159.6887 H   0  0  0  0  0  0  0  0  0  0  0  0  # atno 6909 bound_to 6896
  146.0179  140.6886  142.9192 H   0  0  0  0  0  0  0  0  0  0  0  0  # atno 7974 bound_to 7965
  155.4509  140.3458  155.4301 H   0  0  0  0  0  0  0  0  0  0  0  0  # atno 8008 bound_to 7997
  156.1221  140.1490  156.9220 H   0  0  0  0  0  0  0  0  0  0  0  0  # atno 8009 bound_to 7997
  154.4831  140.0863  156.7402 H   0  0  0  0  0  0  0  0  0  0  0  0  # atno 8010 bound_to 7997
  140.5984  143.2356  151.5985 H   0  0  0  0  0  0  0  0  0  0  0  0  # atno 10167 bound_to 10162
  156.3917  130.4374  149.7389 H   0  0  0  0  0  0  0  0  0  0  0  0  # atno 10718 bound_to 10713
  153.7632  135.6918  153.4921 H   0  0  0  0  0  0  0  0  0  0  0  0  # atno 10763 bound_to 10752
  153.1924  135.4466  155.0164 H   0  0  0  0  0  0  0  0  0  0  0  0  # atno 10764 bound_to 10752
  154.8145  135.3392  154.7146 H   0  0  0  0  0  0  0  0  0  0  0  0  # atno 10765 bound_to 10752
  141.1664  133.7236  156.8545 H   0  0  0  0  0  0  0  0  0  0  0  0  # atno 11005 bound_to 11000
  144.6978  140.3514  143.7181 LP  0  0  0  0  0  0  0  0  0  0  0  0  # atno 17320 bound_to 7965
  145.7240  139.1717  143.2468 LP  0  0  0  0  0  0  0  0  0  0  0  0  # atno 17321 bound_to 7965
  139.5274  144.3019  152.1066 LP  0  0  0  0  0  0  0  0  0  0  0  0  # atno 17342 bound_to 10162
  140.2195  144.4481  150.6348 LP  0  0  0  0  0  0  0  0  0  0  0  0  # atno 17343 bound_to 10162
  156.4440  130.7875  151.2896 LP  0  0  0  0  0  0  0  0  0  0  0  0  # atno 17370 bound_to 10713
  157.7499  131.0116  150.3352 LP  0  0  0  0  0  0  0  0  0  0  0  0  # atno 17371 bound_to 10713
  140.1892  134.8978  157.3040 LP  0  0  0  0  0  0  0  0  0  0  0  0  # atno 17394 bound_to 11000
  140.2309  134.3910  155.7522 LP  0  0  0  0  0  0  0  0  0  0  0  0  # atno 17395 bound_to 11000

$$$$
