AV-unprocessed.smi:451|AV-procd|sdf|2609|dock10
  -GOLD-   2262023 03D 1   1.00000     0.00000
 Structure written by MMmdl.
 38 38  0  0  0  0  0  0  0  0  1 V2000
  149.2424  140.5180  154.3144 C   0  0  0  0  0  0  0  0  0  0  0  0
  150.0579  140.5326  155.6140 C   0  0  0  0  0  0  0  0  0  0  0  0
  150.7632  141.8715  155.9114 C   0  0  0  0  0  0  0  0  0  0  0  0
  151.3774  141.9363  157.2259 N   0  0  0  0  0  0  0  0  0  0  0  0
  151.1572  142.9884  158.1198 C   0  0  0  0  0  0  0  0  0  0  0  0
  150.3259  144.0217  157.7147 N   0  0  0  0  0  0  0  0  0  0  0  0
  151.7415  143.0260  159.3538 C   0  0  0  0  0  0  0  0  0  0  0  0
  151.5315  144.0540  160.2715 N   0  0  0  0  0  0  0  0  0  0  0  0
  152.1774  144.0522  161.5789 C   0  0  0  0  0  0  0  0  0  0  0  0
  150.5739  145.1293  160.0236 C   0  0  0  0  0  0  0  0  0  0  0  0
  149.2598  144.9316  160.8016 C   0  0  0  0  0  0  0  0  0  0  0  0
  148.2572  145.8530  160.3955 O   0  0  0  0  0  0  0  0  0  0  0  0
  146.9691  145.5849  160.9276 C   0  0  0  0  0  0  0  0  0  0  0  0
  152.6269  141.9370  159.7860 C   0  0  0  0  0  0  0  0  0  0  0  0
  153.1960  141.8615  160.8747 O   0  0  0  0  0  0  0  0  0  0  0  0
  152.8033  140.9165  158.8555 N   0  0  0  0  0  0  0  0  0  0  0  0
  152.2184  140.8585  157.5960 C   0  0  0  0  0  0  0  0  0  0  0  0
  152.4456  139.8877  156.8733 O   0  0  0  0  0  0  0  0  0  0  0  0
  153.4026  140.1491  159.1219 H   0  0  0  0  0  0  0  0  0  0  0  0
  148.7154  139.5706  154.1997 H   0  0  0  0  0  0  0  0  0  0  0  0
  149.8815  140.6450  153.4405 H   0  0  0  0  0  0  0  0  0  0  0  0
  148.4986  141.3154  154.3074 H   0  0  0  0  0  0  0  0  0  0  0  0
  149.3914  140.3015  156.4453 H   0  0  0  0  0  0  0  0  0  0  0  0
  150.7903  139.7256  155.5857 H   0  0  0  0  0  0  0  0  0  0  0  0
  151.5099  142.1114  155.1535 H   0  0  0  0  0  0  0  0  0  0  0  0
  150.0549  142.6993  155.8724 H   0  0  0  0  0  0  0  0  0  0  0  0
  149.8891  144.0222  156.8043 H   0  0  0  0  0  0  0  0  0  0  0  0
  150.1088  144.8010  158.3189 H   0  0  0  0  0  0  0  0  0  0  0  0
  153.0729  143.4297  161.5667 H   0  0  0  0  0  0  0  0  0  0  0  0
  151.5059  143.6617  162.3435 H   0  0  0  0  0  0  0  0  0  0  0  0
  152.4782  145.0594  161.8688 H   0  0  0  0  0  0  0  0  0  0  0  0
  151.0280  146.0830  160.2953 H   0  0  0  0  0  0  0  0  0  0  0  0
  150.3678  145.1871  158.9552 H   0  0  0  0  0  0  0  0  0  0  0  0
  148.9009  143.9050  160.7117 H   0  0  0  0  0  0  0  0  0  0  0  0
  149.4352  145.1051  161.8631 H   0  0  0  0  0  0  0  0  0  0  0  0
  146.2832  146.3776  160.6291 H   0  0  0  0  0  0  0  0  0  0  0  0
  146.9884  145.5543  162.0177 H   0  0  0  0  0  0  0  0  0  0  0  0
  146.5634  144.6438  160.5575 H   0  0  0  0  0  0  0  0  0  0  0  0
  1  2  1  0  0  0  0
  1 20  1  0  0  0  0
  1 21  1  0  0  0  0
  1 22  1  0  0  0  0
  2  3  1  0  0  0  0
  2 23  1  0  0  0  0
  2 24  1  0  0  0  0
  3  4  1  0  0  0  0
  3 25  1  0  0  0  0
  3 26  1  0  0  0  0
  4 17  1  0  0  0  0
  4  5  1  0  0  0  0
  5  6  1  0  0  0  0
  5  7  2  0  0  0  0
  6 27  1  0  0  0  0
  6 28  1  0  0  0  0
  7  8  1  0  0  0  0
  7 14  1  0  0  0  0
  8  9  1  0  0  0  0
  8 10  1  0  0  0  0
  9 29  1  0  0  0  0
  9 30  1  0  0  0  0
  9 31  1  0  0  0  0
 10 11  1  0  0  0  0
 10 32  1  0  0  0  0
 10 33  1  0  0  0  0
 11 12  1  0  0  0  0
 11 34  1  0  0  0  0
 11 35  1  0  0  0  0
 12 13  1  0  0  0  0
 13 36  1  0  0  0  0
 13 37  1  0  0  0  0
 13 38  1  0  0  0  0
 14 15  2  0  0  0  0
 14 16  1  0  0  0  0
 16 19  1  0  0  0  0
 16 17  1  0  0  0  0
 17 18  2  0  0  0  0
M  END
> <s_m_source_file>
AV-unprocessed.smi

> <i_m_source_file_index>
451

> <i_lp_mmshare_version>
43012

> <i_f3d_flags>
0

> <s_epik_input>
W0NIM11bQ0gyXVtDSDJdbjFjKFtOSDJdKWMoYyg9TylbbkhdYzE9TylOKFtDSDNdKVtDSDJdW0NIMl1PW0NIM10=

> <s_epik_cmdline>
J2VwaWtfcHl0aG9uJywgJy1waCcsICc3LjAnLCAnLXRuJywgJzgnLCAnLW1hJywgJzIwMCcsICctbWV0YWxfYmluZGluZycsICctaW1hZScsICc8aW5maWxlLm1hZT4nLCAnLW9tYWUnLCAnPG91dGZpbGUubWFlPic=

> <r_lp_tautomer_probability>
1

> <r_epik_Ionization_Penalty>
2.19941e-05

> <r_epik_Ionization_Penalty_Charging>
2.62604e-06

> <r_epik_Ionization_Penalty_Neutral>
1.93681e-05

> <r_epik_State_Penalty>
-0

> <r_epik_Charging_Adjusted_Penalty>
2.62604e-06

> <i_epik_Tot_Q>
0

> <i_epik_Tot_abs_Q>
0

> <r_epik_Metal_State_Penalty>
-0

> <b_epik_Metal_Only>
0

> <s_epik_Chemistry_Notes>
This compound has an imine and may undergo hydrolysis.

> <s_lp_Force_Field>
OPLS_2005

> <r_lp_Energy>
22.0879

> <b_lp_Chiralities_Consistent>
1

> <s_lp_Variant>
AV-unprocessed.smi:451-1

> <Gold.Version>
5.8.1

> <Gold.Id.Protein>
6NUR|6NUR_protein|mol2

> <Gold.PLP.Fitness>
45.0452

> <Gold.PLP.PLP>
-39.8119

> <Gold.PLP.part.hbond>
-3.7119

> <Gold.PLP.part.metal>
0.0000

> <Gold.PLP.part.buried>
-6.5072

> <Gold.PLP.part.nonpolar>
-29.1955

> <Gold.PLP.part.repulsive>
0.3492

> <Gold.PLP.ligand.clash>
21.3575

> <Gold.PLP.ligand.torsion>
0.3502

> <Gold.PLP.Chemscore.Hbond>
2.0000

> <Gold.PLP.Chemscore.CHOScore>
0.0000

> <Gold.PLP.Chemscore.Metal>
0.0000

> <Gold.Chemscore.Hbonds>
donor molecule, donor type, donor heavy atom, donor atom, acceptor molecule, acceptor atom, score
      L1  H     6    27       P1  8028  0.99
      P1  H  7997  8010       L1    18  1.00

> <Gold.PLP.Chemscore.Internal.Correction>
21.2912

> <Gold.Rescore>
     Score         DG    S(hbond)    S(metal)    S(lipo)     H(rot)  DE(clash)    DE(int)     intcor
      8.02     -13.57       1.59        0.00      67.51       2.00       0.50       5.05       ----

> <Gold.Chemscore.Fitness>
8.0231

> <Gold.Chemscore.DG>
-13.5730

> <Gold.Chemscore.ZeroCoef>
-5.4800

> <Gold.Chemscore.Hbond>
1.5933

> <Gold.Chemscore.Metal>
0.0000

> <Gold.Chemscore.Lipo>
67.5139

> <Gold.Chemscore.Internal_Hbond>
0.0000

> <Gold.Chemscore.DEClash>
0.5015

> <Gold.Chemscore.DEInternal>
5.0484

> <Gold.Chemscore.Rot>
2.0031

> <Gold.Chemscore.Internal.Correction>
   9.000000E+99

> <Gold.Chemscore.Hbonds>
donor molecule, donor type, donor heavy atom, donor atom, acceptor molecule, acceptor atom, score
      L1  H     6    27       P1  8028  0.91
      P1  H  7997  8010       L1    18  0.25

> <Gold.Chemscore.Hbond.Weighted>
-5.3217

> <Gold.Chemscore.Metal.Weighted>
-0.0000

> <Gold.Chemscore.Lipo.Weighted>
-7.8991

> <Gold.Chemscore.Internal_Hbond.Weighted>
0.0000

> <Gold.Chemscore.DEClash.Weighted>
0.5015

> <Gold.Chemscore.DEInternal.Weighted>
5.0484

> <Gold.Chemscore.Rot.Weighted>
5.1278

> <Gold.Chemscore.Internal.Correction.Weighted>
   9.000000E+99

> <Gold.Protein.RotatedTorsions>
[ 6907 6896 6895 6894 ] final -179.11 input  -60.11 | X-H torsion
[ 7974 7965 7964 7962 ] final   83.88 input  175.53 | X-H torsion
[ 8008 7997 7996 7995 ] final   60.67 input   59.86 | X-H torsion
[ 10167 10162 10161 10158 ] final  145.54 input  -65.29 | X-H torsion
[ 10718 10713 10712 10709 ] final  -14.02 input   66.30 | X-H torsion
[ 10763 10752 10751 10750 ] final -175.08 input  -60.55 | X-H torsion
[ 11005 11000 10999 10996 ] final  100.96 input  -57.11 | X-H torsion

> <Gold.Protein.ActiveResidues>
 VAL166  LYS551  ARG553  GLY616  TRP617  ASP618  TYR619  PRO620  LYS621  CYS622 
 ASP623  PHE694  ASN695  SER759  ASP760  ASP761  ALA762  ILE779  LEU786  VAL792 
 PHE793  MET794  SER795  GLU796  ALA797  LYS798  CYS799  TRP800  GLU811  SER814 

> <Gold.Protein.RotatedAtoms>
  151.6480  133.3322  159.3145 H   0  0  0  0  0  0  0  0  0  0  0  0  # atno 6907 bound_to 6896
  150.7974  134.7048  159.6580 H   0  0  0  0  0  0  0  0  0  0  0  0  # atno 6908 bound_to 6896
  152.4063  134.6206  160.0101 H   0  0  0  0  0  0  0  0  0  0  0  0  # atno 6909 bound_to 6896
  145.6061  139.2360  143.2218 H   0  0  0  0  0  0  0  0  0  0  0  0  # atno 7974 bound_to 7965
  155.5860  140.3492  155.4553 H   0  0  0  0  0  0  0  0  0  0  0  0  # atno 8008 bound_to 7997
  156.0337  140.1280  157.0255 H   0  0  0  0  0  0  0  0  0  0  0  0  # atno 8009 bound_to 7997
  154.4363  140.1038  156.6123 H   0  0  0  0  0  0  0  0  0  0  0  0  # atno 8010 bound_to 7997
  139.4924  144.5894  151.6712 H   0  0  0  0  0  0  0  0  0  0  0  0  # atno 10167 bound_to 10162
  156.6219  130.4878  149.6161 H   0  0  0  0  0  0  0  0  0  0  0  0  # atno 10718 bound_to 10713
  154.5887  135.2843  155.0658 H   0  0  0  0  0  0  0  0  0  0  0  0  # atno 10763 bound_to 10752
  154.1967  135.6431  153.5079 H   0  0  0  0  0  0  0  0  0  0  0  0  # atno 10764 bound_to 10752
  153.0113  135.5459  154.6565 H   0  0  0  0  0  0  0  0  0  0  0  0  # atno 10765 bound_to 10752
  139.8772  134.9162  156.4834 H   0  0  0  0  0  0  0  0  0  0  0  0  # atno 11005 bound_to 11000
  146.1540  140.6885  142.9309 LP  0  0  0  0  0  0  0  0  0  0  0  0  # atno 17320 bound_to 7965
  144.7289  140.4612  143.6952 LP  0  0  0  0  0  0  0  0  0  0  0  0  # atno 17321 bound_to 7965
  140.5517  144.0414  150.6130 LP  0  0  0  0  0  0  0  0  0  0  0  0  # atno 17342 bound_to 10162
  140.3470  143.2985  152.0527 LP  0  0  0  0  0  0  0  0  0  0  0  0  # atno 17343 bound_to 10162
  156.2305  130.6791  151.1458 LP  0  0  0  0  0  0  0  0  0  0  0  0  # atno 17370 bound_to 10713
  157.7225  131.0672  150.6075 LP  0  0  0  0  0  0  0  0  0  0  0  0  # atno 17371 bound_to 10713
  140.8711  133.7988  155.9365 LP  0  0  0  0  0  0  0  0  0  0  0  0  # atno 17394 bound_to 11000
  140.8952  134.2446  157.5072 LP  0  0  0  0  0  0  0  0  0  0  0  0  # atno 17395 bound_to 11000

$$$$
