AV-unprocessed.smi:1972|AV-procd|sdf|7975|dock5
  -GOLD-   2272010153D 1   1.00000     0.00000
 Structure written by MMmdl.
 44 45  0  0  0  0  0  0  0  0  1 V2000
  147.3861  133.3416  152.6450 C   0  0  0  0  0  0  0  0  0  0  0  0
  147.6867  133.3411  154.4312 S   0  0  0  0  0  0  0  0  0  0  0  0
  149.1952  134.3514  154.4824 C   0  0  0  0  0  0  0  0  0  0  0  0
  149.0276  135.6047  155.3596 C   0  0  0  0  0  0  0  0  0  0  0  0
  150.0714  136.6870  155.0661 C   0  0  0  0  0  0  0  0  0  0  0  0
  151.2533  136.5049  155.3584 O   0  0  0  0  0  0  0  0  0  0  0  0
  149.6187  137.8107  154.4913 N   0  0  0  0  0  0  0  0  0  0  0  0
  150.4512  138.9448  154.1064 C   0  0  0  0  0  0  0  0  0  0  0  0
  150.7360  139.9044  155.2510 C   0  0  0  0  0  0  0  0  0  0  0  0
  151.6099  139.5746  156.3084 C   0  0  0  0  0  0  0  0  0  0  0  0
  151.8175  140.5093  157.3406 C   0  0  0  0  0  0  0  0  0  0  0  0
  151.1432  141.7529  157.2942 C   0  0  0  0  0  0  0  0  0  0  0  0
  151.3382  142.7066  158.3171 N   0  0  0  0  0  0  0  0  0  0  0  0
  151.9010  144.0038  157.9480 C   0  0  0  0  0  0  0  0  0  0  0  0
  151.7654  144.9968  159.1136 C   0  0  0  0  0  0  0  0  0  0  0  0
  152.3632  144.4470  160.2828 O   0  0  0  0  0  0  0  0  0  0  0  0
  151.7274  143.2401  160.6940 C   0  0  2  0  0  0  0  0  0  0  0  0
  152.3747  142.7772  162.0035 C   0  0  0  0  0  0  0  0  0  0  0  0
  151.8636  142.1869  159.5772 C   0  0  0  0  0  0  0  0  0  0  0  0
  150.2923  142.0589  156.2836 N   0  0  0  0  0  0  0  0  0  0  0  0
  150.0971  141.1597  155.2964 C   0  0  0  0  0  0  0  0  0  0  0  0
  146.4924  132.7621  152.4140 H   0  0  0  0  0  0  0  0  0  0  0  0
  148.2313  132.9012  152.1163 H   0  0  0  0  0  0  0  0  0  0  0  0
  147.2408  134.3599  152.2838 H   0  0  0  0  0  0  0  0  0  0  0  0
  150.0027  133.7356  154.8790 H   0  0  0  0  0  0  0  0  0  0  0  0
  149.4821  134.6215  153.4654 H   0  0  0  0  0  0  0  0  0  0  0  0
  148.0189  136.0059  155.2497 H   0  0  0  0  0  0  0  0  0  0  0  0
  149.1329  135.3250  156.4082 H   0  0  0  0  0  0  0  0  0  0  0  0
  148.6312  137.8792  154.2920 H   0  0  0  0  0  0  0  0  0  0  0  0
  151.3922  138.5644  153.7067 H   0  0  0  0  0  0  0  0  0  0  0  0
  149.9713  139.5127  153.3074 H   0  0  0  0  0  0  0  0  0  0  0  0
  152.1131  138.6196  156.3403 H   0  0  0  0  0  0  0  0  0  0  0  0
  152.4746  140.2554  158.1589 H   0  0  0  0  0  0  0  0  0  0  0  0
  152.9524  143.8796  157.6843 H   0  0  0  0  0  0  0  0  0  0  0  0
  151.3889  144.4045  157.0720 H   0  0  0  0  0  0  0  0  0  0  0  0
  152.2633  145.9345  158.8671 H   0  0  0  0  0  0  0  0  0  0  0  0
  150.7172  145.2333  159.3035 H   0  0  0  0  0  0  0  0  0  0  0  0
  150.6708  143.4397  160.8823 H   0  0  0  0  0  0  0  0  0  0  0  0
  151.9107  141.8604  162.3681 H   0  0  0  0  0  0  0  0  0  0  0  0
  152.2677  143.5350  162.7798 H   0  0  0  0  0  0  0  0  0  0  0  0
  153.4397  142.5841  161.8704 H   0  0  0  0  0  0  0  0  0  0  0  0
  151.3482  141.2778  159.8830 H   0  0  0  0  0  0  0  0  0  0  0  0
  152.9125  141.9232  159.4354 H   0  0  0  0  0  0  0  0  0  0  0  0
  149.4095  141.4548  154.5174 H   0  0  0  0  0  0  0  0  0  0  0  0
  1  2  1  0  0  0  0
  1 22  1  0  0  0  0
  1 23  1  0  0  0  0
  1 24  1  0  0  0  0
  2  3  1  0  0  0  0
  3  4  1  0  0  0  0
  3 25  1  0  0  0  0
  3 26  1  0  0  0  0
  4  5  1  0  0  0  0
  4 27  1  0  0  0  0
  4 28  1  0  0  0  0
  5  6  2  0  0  0  0
  5  7  1  0  0  0  0
  7  8  1  0  0  0  0
  7 29  1  0  0  0  0
  8  9  1  0  0  0  0
  8 30  1  0  0  0  0
  8 31  1  0  0  0  0
  9 21  1  0  0  0  0
  9 10  2  0  0  0  0
 10 11  1  0  0  0  0
 10 32  1  0  0  0  0
 11 12  2  0  0  0  0
 11 33  1  0  0  0  0
 12 13  1  0  0  0  0
 12 20  1  0  0  0  0
 13 19  1  0  0  0  0
 13 14  1  0  0  0  0
 14 15  1  0  0  0  0
 14 34  1  0  0  0  0
 14 35  1  0  0  0  0
 15 16  1  0  0  0  0
 15 36  1  0  0  0  0
 15 37  1  0  0  0  0
 16 17  1  0  0  0  0
 17 18  1  0  0  0  0
 17 19  1  0  0  0  0
 17 38  1  0  0  0  0
 18 39  1  0  0  0  0
 18 40  1  0  0  0  0
 18 41  1  0  0  0  0
 19 42  1  0  0  0  0
 19 43  1  0  0  0  0
 20 21  2  0  0  0  0
 21 44  1  0  0  0  0
M  END
> <s_m_source_file>
AV-unprocessed.smi

> <i_m_source_file_index>
1972

> <i_lp_mmshare_version>
43012

> <i_f3d_flags>
0

> <s_epik_input>
W0NIM11TW0NIMl1bQ0gyXUMoPU8pW05IXVtDSDJdYzFbY0hdW2NIXWMobltjSF0xKU4yW0NIMl1bQ0gyXU9bQ0BASF0oW0NIM10pW0NIMl0y

> <s_epik_cmdline>
J2VwaWtfcHl0aG9uJywgJy1waCcsICc3LjAnLCAnLXRuJywgJzgnLCAnLW1hJywgJzIwMCcsICctbWV0YWxfYmluZGluZycsICctaW1hZScsICc8aW5maWxlLm1hZT4nLCAnLW9tYWUnLCAnPG91dGZpbGUubWFlPic=

> <r_lp_tautomer_probability>
1

> <r_epik_Ionization_Penalty>
0.00559088

> <r_epik_Ionization_Penalty_Charging>
0

> <r_epik_Ionization_Penalty_Neutral>
0.00559088

> <r_epik_State_Penalty>
0.00409544

> <r_epik_Charging_Adjusted_Penalty>
0.00409544

> <i_epik_Tot_Q>
0

> <i_epik_Tot_abs_Q>
0

> <r_epik_Metal_State_Penalty>
-0

> <b_epik_Metal_Only>
0

> <s_lp_Force_Field>
OPLS_2005

> <r_lp_Energy>
17.9422

> <b_lp_Chiralities_Consistent>
1

> <s_lp_Variant>
AV-unprocessed.smi:1972-2

> <Gold.Version>
5.8.1

> <Gold.Id.Protein>
6NUR|6NUR_protein|mol2

> <Gold.PLP.Fitness>
46.7664

> <Gold.PLP.PLP>
-45.6617

> <Gold.PLP.part.hbond>
-1.6168

> <Gold.PLP.part.metal>
0.0000

> <Gold.PLP.part.buried>
-4.6172

> <Gold.PLP.part.nonpolar>
-40.1992

> <Gold.PLP.part.repulsive>
0.5304

> <Gold.PLP.ligand.clash>
0.0000

> <Gold.PLP.ligand.torsion>
1.1309

> <Gold.PLP.Chemscore.Hbond>
1.0000

> <Gold.PLP.Chemscore.CHOScore>
0.0000

> <Gold.PLP.Chemscore.Metal>
0.0000

> <Gold.Chemscore.Hbonds>
donor molecule, donor type, donor heavy atom, donor atom, acceptor molecule, acceptor atom, score
      P1  H 10752 10763       L1     6  0.75

> <Gold.PLP.Chemscore.Internal.Correction>
0.3665

> <Gold.Rescore>
     Score         DG    S(hbond)    S(metal)    S(lipo)     H(rot)  DE(clash)    DE(int)     intcor
     15.78     -16.97       0.99        0.00     108.05       1.75       0.05       1.13       ----

> <Gold.Chemscore.Fitness>
15.7847

> <Gold.Chemscore.DG>
-16.9707

> <Gold.Chemscore.ZeroCoef>
-5.4800

> <Gold.Chemscore.Hbond>
0.9937

> <Gold.Chemscore.Metal>
0.0000

> <Gold.Chemscore.Lipo>
108.0458

> <Gold.Chemscore.Internal_Hbond>
0.0000

> <Gold.Chemscore.DEClash>
0.0544

> <Gold.Chemscore.DEInternal>
1.1316

> <Gold.Chemscore.Rot>
1.7460

> <Gold.Chemscore.Internal.Correction>
   9.000000E+99

> <Gold.Chemscore.Hbonds>
donor molecule, donor type, donor heavy atom, donor atom, acceptor molecule, acceptor atom, score
      P1  H 10752 10763       L1     6  0.72

> <Gold.Chemscore.Hbond.Weighted>
-3.3190

> <Gold.Chemscore.Metal.Weighted>
-0.0000

> <Gold.Chemscore.Lipo.Weighted>
-12.6414

> <Gold.Chemscore.Internal_Hbond.Weighted>
0.0000

> <Gold.Chemscore.DEClash.Weighted>
0.0544

> <Gold.Chemscore.DEInternal.Weighted>
1.1316

> <Gold.Chemscore.Rot.Weighted>
4.4697

> <Gold.Chemscore.Internal.Correction.Weighted>
   9.000000E+99

> <Gold.Protein.RotatedTorsions>
[ 6907 6896 6895 6894 ] final    7.87 input  -60.11 | X-H torsion
[ 7974 7965 7964 7962 ] final  -47.03 input  175.53 | X-H torsion
[ 8008 7997 7996 7995 ] final   11.27 input   59.86 | X-H torsion
[ 10167 10162 10161 10158 ] final   90.85 input  -65.29 | X-H torsion
[ 10718 10713 10712 10709 ] final  115.08 input   66.30 | X-H torsion
[ 10763 10752 10751 10750 ] final   45.01 input  -60.55 | X-H torsion
[ 11005 11000 10999 10996 ] final  -50.00 input  -57.11 | X-H torsion

> <Gold.Protein.ActiveResidues>
 VAL166  LYS551  ARG553  GLY616  TRP617  ASP618  TYR619  PRO620  LYS621  CYS622 
 ASP623  PHE694  ASN695  SER759  ASP760  ASP761  ALA762  ILE779  LEU786  VAL792 
 PHE793  MET794  SER795  GLU796  ALA797  LYS798  CYS799  TRP800  GLU811  SER814 

> <Gold.Protein.RotatedAtoms>
  151.6969  135.0937  160.0243 H   0  0  0  0  0  0  0  0  0  0  0  0  # atno 6907 bound_to 6896
  152.3745  133.6458  159.6121 H   0  0  0  0  0  0  0  0  0  0  0  0  # atno 6908 bound_to 6896
  150.7698  133.9133  159.3417 H   0  0  0  0  0  0  0  0  0  0  0  0  # atno 6909 bound_to 6896
  145.9659  140.7433  142.9434 H   0  0  0  0  0  0  0  0  0  0  0  0  # atno 7974 bound_to 7965
  154.8047  140.2858  155.5896 H   0  0  0  0  0  0  0  0  0  0  0  0  # atno 8008 bound_to 7997
  156.2981  140.2580  156.2852 H   0  0  0  0  0  0  0  0  0  0  0  0  # atno 8009 bound_to 7997
  154.9517  140.0379  157.2137 H   0  0  0  0  0  0  0  0  0  0  0  0  # atno 8010 bound_to 7997
  139.8433  144.6630  150.9257 H   0  0  0  0  0  0  0  0  0  0  0  0  # atno 10167 bound_to 10162
  157.6243  131.1007  150.7278 H   0  0  0  0  0  0  0  0  0  0  0  0  # atno 10718 bound_to 10713
  152.9831  135.6053  154.3367 H   0  0  0  0  0  0  0  0  0  0  0  0  # atno 10763 bound_to 10752
  154.3066  135.2772  155.2587 H   0  0  0  0  0  0  0  0  0  0  0  0  # atno 10764 bound_to 10752
  154.4816  135.5916  153.6449 H   0  0  0  0  0  0  0  0  0  0  0  0  # atno 10765 bound_to 10752
  141.0791  133.6658  156.3667 H   0  0  0  0  0  0  0  0  0  0  0  0  # atno 11005 bound_to 11000
  144.6825  140.2667  143.7311 LP  0  0  0  0  0  0  0  0  0  0  0  0  # atno 17320 bound_to 7965
  145.7975  139.1951  143.2067 LP  0  0  0  0  0  0  0  0  0  0  0  0  # atno 17321 bound_to 7965
  140.7796  143.3893  151.1338 LP  0  0  0  0  0  0  0  0  0  0  0  0  # atno 17342 bound_to 10162
  139.7537  143.8739  152.3083 LP  0  0  0  0  0  0  0  0  0  0  0  0  # atno 17343 bound_to 10162
  156.7629  130.4804  149.5433 LP  0  0  0  0  0  0  0  0  0  0  0  0  # atno 17370 bound_to 10713
  156.1407  130.6242  151.0462 LP  0  0  0  0  0  0  0  0  0  0  0  0  # atno 17371 bound_to 10713
  140.5508  134.6030  157.5407 LP  0  0  0  0  0  0  0  0  0  0  0  0  # atno 17394 bound_to 11000
  139.9604  134.7462  156.0249 LP  0  0  0  0  0  0  0  0  0  0  0  0  # atno 17395 bound_to 11000

$$$$
