AV-unprocessed.smi:1537|AV-procd|sdf|6191|dock6
  -GOLD-   22720 6353D 1   1.00000     0.00000
 Structure written by MMmdl.
 43 43  0  0  0  0  0  0  0  0  1 V2000
  146.3285  129.7833  152.2678 C   0  0  0  0  0  0  0  0  0  0  0  0
  146.8270  131.2225  152.4343 C   0  0  0  0  0  0  0  0  0  0  0  0
  145.9390  132.2158  151.7632 C   0  0  0  0  0  0  0  0  0  0  0  0
  146.2080  133.5225  151.7053 N   0  0  0  0  0  0  0  0  0  0  0  0
  145.2029  134.2530  151.0618 C   0  0  0  0  0  0  0  0  0  0  0  0
  145.3380  135.7394  150.9043 C   0  0  0  0  0  0  0  0  0  0  0  0
  145.1576  136.4330  152.2553 C   0  0  0  0  0  0  0  0  0  0  0  0
  144.0286  136.6001  152.7171 O   0  0  0  0  0  0  0  0  0  0  0  0
  146.2784  136.8357  152.8762 N   0  0  0  0  0  0  0  0  0  0  0  0
  146.3319  137.5267  154.1630 C   0  0  1  0  0  0  0  0  0  0  0  0
  147.2537  136.7225  155.0948 C   0  0  0  0  0  0  0  0  0  0  0  0
  146.9281  138.9345  154.0004 C   0  0  0  0  0  0  0  0  0  0  0  0
  147.1043  139.4110  152.8781 O   0  0  0  0  0  0  0  0  0  0  0  0
  147.2432  139.5713  155.1421 N   0  0  0  0  0  0  0  0  0  0  0  0
  147.8188  140.9106  155.3122 C   0  0  0  0  0  0  0  0  0  0  0  0
  147.8446  141.1974  156.8237 C   0  0  0  0  0  0  0  0  0  0  0  0
  146.9411  141.9718  154.6155 C   0  0  0  0  0  0  0  0  0  0  0  0
  149.2629  140.9573  154.7703 C   0  0  0  0  0  0  0  0  0  0  0  0
  144.1595  133.4709  150.6313 C   0  0  0  0  0  0  0  0  0  0  0  0
  144.3956  131.7922  151.0319 S   0  0  0  0  0  0  0  0  0  0  0  0
  146.9972  129.0802  152.7644 H   0  0  0  0  0  0  0  0  0  0  0  0
  146.2748  129.5057  151.2148 H   0  0  0  0  0  0  0  0  0  0  0  0
  145.3343  129.6594  152.6985 H   0  0  0  0  0  0  0  0  0  0  0  0
  146.8989  131.4720  153.4936 H   0  0  0  0  0  0  0  0  0  0  0  0
  147.8319  131.3180  152.0219 H   0  0  0  0  0  0  0  0  0  0  0  0
  146.3129  136.0022  150.4911 H   0  0  0  0  0  0  0  0  0  0  0  0
  144.5946  136.1194  150.2024 H   0  0  0  0  0  0  0  0  0  0  0  0
  147.1611  136.6587  152.4188 H   0  0  0  0  0  0  0  0  0  0  0  0
  145.3317  137.5851  154.5971 H   0  0  0  0  0  0  0  0  0  0  0  0
  147.3295  137.1897  156.0775 H   0  0  0  0  0  0  0  0  0  0  0  0
  148.2631  136.6321  154.6903 H   0  0  0  0  0  0  0  0  0  0  0  0
  146.8685  135.7133  155.2452 H   0  0  0  0  0  0  0  0  0  0  0  0
  147.0541  139.0714  155.9987 H   0  0  0  0  0  0  0  0  0  0  0  0
  148.2606  142.1834  157.0337 H   0  0  0  0  0  0  0  0  0  0  0  0
  148.4522  140.4653  157.3573 H   0  0  0  0  0  0  0  0  0  0  0  0
  146.8422  141.1674  157.2524 H   0  0  0  0  0  0  0  0  0  0  0  0
  145.9093  141.9255  154.9661 H   0  0  0  0  0  0  0  0  0  0  0  0
  146.9269  141.8470  153.5328 H   0  0  0  0  0  0  0  0  0  0  0  0
  147.3099  142.9783  154.8154 H   0  0  0  0  0  0  0  0  0  0  0  0
  149.7292  141.9203  154.9807 H   0  0  0  0  0  0  0  0  0  0  0  0
  149.3021  140.8144  153.6906 H   0  0  0  0  0  0  0  0  0  0  0  0
  149.8836  140.1860  155.2277 H   0  0  0  0  0  0  0  0  0  0  0  0
  143.2651  133.7820  150.1119 H   0  0  0  0  0  0  0  0  0  0  0  0
  1  2  1  0  0  0  0
  1 21  1  0  0  0  0
  1 22  1  0  0  0  0
  1 23  1  0  0  0  0
  2  3  1  0  0  0  0
  2 24  1  0  0  0  0
  2 25  1  0  0  0  0
  3 20  1  0  0  0  0
  3  4  2  0  0  0  0
  4  5  1  0  0  0  0
  5  6  1  0  0  0  0
  5 19  2  0  0  0  0
  6  7  1  0  0  0  0
  6 26  1  0  0  0  0
  6 27  1  0  0  0  0
  7  8  2  0  0  0  0
  7  9  1  0  0  0  0
  9 10  1  0  0  0  0
  9 28  1  0  0  0  0
 10 11  1  0  0  0  0
 10 12  1  0  0  0  0
 10 29  1  0  0  0  0
 11 30  1  0  0  0  0
 11 31  1  0  0  0  0
 11 32  1  0  0  0  0
 12 13  2  0  0  0  0
 12 14  1  0  0  0  0
 14 15  1  0  0  0  0
 14 33  1  0  0  0  0
 15 16  1  0  0  0  0
 15 17  1  0  0  0  0
 15 18  1  0  0  0  0
 16 34  1  0  0  0  0
 16 35  1  0  0  0  0
 16 36  1  0  0  0  0
 17 37  1  0  0  0  0
 17 38  1  0  0  0  0
 17 39  1  0  0  0  0
 18 40  1  0  0  0  0
 18 41  1  0  0  0  0
 18 42  1  0  0  0  0
 19 20  1  0  0  0  0
 19 43  1  0  0  0  0
M  END
> <s_m_source_file>
AV-unprocessed.smi

> <i_m_source_file_index>
1537

> <i_lp_mmshare_version>
43012

> <i_f3d_flags>
0

> <s_epik_input>
W0NIM11bQ0gyXWMxbmMoW2NIXXMxKVtDSDJdQyg9TylbTkhdW0NASF0oW0NIM10pQyg9TylbTkhdQyhbQ0gzXSkoW0NIM10pW0NIM10=

> <s_epik_cmdline>
J2VwaWtfcHl0aG9uJywgJy1waCcsICc3LjAnLCAnLXRuJywgJzgnLCAnLW1hJywgJzIwMCcsICctbWV0YWxfYmluZGluZycsICctaW1hZScsICc8aW5maWxlLm1hZT4nLCAnLW9tYWUnLCAnPG91dGZpbGUubWFlPic=

> <r_lp_tautomer_probability>
1

> <r_epik_Ionization_Penalty>
4.05444e-05

> <r_epik_Ionization_Penalty_Charging>
0

> <r_epik_Ionization_Penalty_Neutral>
4.05444e-05

> <r_epik_State_Penalty>
-0

> <r_epik_Charging_Adjusted_Penalty>
0

> <i_epik_Tot_Q>
0

> <i_epik_Tot_abs_Q>
0

> <r_epik_Metal_State_Penalty>
-0

> <b_epik_Metal_Only>
0

> <s_lp_Force_Field>
OPLS_2005

> <r_lp_Energy>
-2.34744

> <b_lp_Chiralities_Consistent>
1

> <s_lp_Variant>
AV-unprocessed.smi:1537-2

> <Gold.Version>
5.8.1

> <Gold.Id.Protein>
6NUR|6NUR_protein|mol2

> <Gold.PLP.Fitness>
37.3958

> <Gold.PLP.PLP>
-32.6292

> <Gold.PLP.part.hbond>
-1.0000

> <Gold.PLP.part.metal>
0.0000

> <Gold.PLP.part.buried>
-6.5860

> <Gold.PLP.part.nonpolar>
-27.0979

> <Gold.PLP.part.repulsive>
1.8897

> <Gold.PLP.ligand.clash>
0.0000

> <Gold.PLP.ligand.torsion>
0.6556

> <Gold.PLP.Chemscore.Hbond>
1.0000

> <Gold.PLP.Chemscore.CHOScore>
1.0000

> <Gold.PLP.Chemscore.Metal>
0.0000

> <Gold.Chemscore.Hbonds>
donor molecule, donor type, donor heavy atom, donor atom, acceptor molecule, acceptor atom, score
      L1  H     9    28       P1  7948  1.00
      L1  C    19    43       P1 10186  1.00

> <Gold.PLP.Chemscore.Internal.Correction>
0.0779

> <Gold.Rescore>
     Score         DG    S(hbond)    S(metal)    S(lipo)     H(rot)  DE(clash)    DE(int)     intcor
     12.45     -13.30       0.98        0.00      79.88       1.88       0.08       0.78       ----

> <Gold.Chemscore.Fitness>
12.4454

> <Gold.Chemscore.DG>
-13.3022

> <Gold.Chemscore.ZeroCoef>
-5.4800

> <Gold.Chemscore.Hbond>
0.9822

> <Gold.Chemscore.Metal>
0.0000

> <Gold.Chemscore.Lipo>
79.8793

> <Gold.Chemscore.Internal_Hbond>
0.0000

> <Gold.Chemscore.DEClash>
0.0790

> <Gold.Chemscore.DEInternal>
0.7778

> <Gold.Chemscore.Rot>
1.8766

> <Gold.Chemscore.Internal.Correction>
   9.000000E+99

> <Gold.Chemscore.Hbonds>
donor molecule, donor type, donor heavy atom, donor atom, acceptor molecule, acceptor atom, score
      L1  H     9    28       P1  7948  1.00

> <Gold.Chemscore.Hbond.Weighted>
-3.2805

> <Gold.Chemscore.Metal.Weighted>
-0.0000

> <Gold.Chemscore.Lipo.Weighted>
-9.3459

> <Gold.Chemscore.Internal_Hbond.Weighted>
0.0000

> <Gold.Chemscore.DEClash.Weighted>
0.0790

> <Gold.Chemscore.DEInternal.Weighted>
0.7778

> <Gold.Chemscore.Rot.Weighted>
4.8042

> <Gold.Chemscore.Internal.Correction.Weighted>
   9.000000E+99

> <Gold.Protein.RotatedTorsions>
[ 6907 6896 6895 6894 ] final   31.90 input  -60.11 | X-H torsion
[ 7974 7965 7964 7962 ] final  -64.92 input  175.53 | X-H torsion
[ 8008 7997 7996 7995 ] final  -69.99 input   59.86 | X-H torsion
[ 10167 10162 10161 10158 ] final   74.91 input  -65.29 | X-H torsion
[ 10718 10713 10712 10709 ] final   50.50 input   66.30 | X-H torsion
[ 10763 10752 10751 10750 ] final  132.03 input  -60.55 | X-H torsion
[ 11005 11000 10999 10996 ] final -100.07 input  -57.11 | X-H torsion

> <Gold.Protein.ActiveResidues>
 VAL166  LYS551  ARG553  GLY616  TRP617  ASP618  TYR619  PRO620  LYS621  CYS622 
 ASP623  PHE694  ASN695  SER759  ASP760  ASP761  ALA762  ILE779  LEU786  VAL792 
 PHE793  MET794  SER795  GLU796  ALA797  LYS798  CYS799  TRP800  GLU811  SER814 

> <Gold.Protein.RotatedAtoms>
  152.0669  134.9558  160.0574 H   0  0  0  0  0  0  0  0  0  0  0  0  # atno 6907 bound_to 6896
  152.0900  133.4191  159.4547 H   0  0  0  0  0  0  0  0  0  0  0  0  # atno 6908 bound_to 6896
  150.6837  134.2802  159.4667 H   0  0  0  0  0  0  0  0  0  0  0  0  # atno 6909 bound_to 6896
  145.7607  140.8863  143.0431 H   0  0  0  0  0  0  0  0  0  0  0  0  # atno 7974 bound_to 7965
  154.4979  140.0843  156.7735 H   0  0  0  0  0  0  0  0  0  0  0  0  # atno 8008 bound_to 7997
  155.4073  140.3440  155.4243 H   0  0  0  0  0  0  0  0  0  0  0  0  # atno 8009 bound_to 7997
  156.1418  140.1531  156.8897 H   0  0  0  0  0  0  0  0  0  0  0  0  # atno 8010 bound_to 7997
  140.0086  144.5631  150.7677 H   0  0  0  0  0  0  0  0  0  0  0  0  # atno 10167 bound_to 10162
  157.4890  130.8364  149.8181 H   0  0  0  0  0  0  0  0  0  0  0  0  # atno 10718 bound_to 10713
  153.7841  135.3164  155.3370 H   0  0  0  0  0  0  0  0  0  0  0  0  # atno 10763 bound_to 10752
  154.8150  135.4642  154.0622 H   0  0  0  0  0  0  0  0  0  0  0  0  # atno 10764 bound_to 10752
  153.1920  135.6910  153.8426 H   0  0  0  0  0  0  0  0  0  0  0  0  # atno 10765 bound_to 10752
  141.1285  133.8370  157.1054 H   0  0  0  0  0  0  0  0  0  0  0  0  # atno 11005 bound_to 11000
  144.6831  139.9719  143.7482 LP  0  0  0  0  0  0  0  0  0  0  0  0  # atno 17320 bound_to 7965
  146.0266  139.3298  143.0780 LP  0  0  0  0  0  0  0  0  0  0  0  0  # atno 17321 bound_to 7965
  140.7390  143.2786  151.3666 LP  0  0  0  0  0  0  0  0  0  0  0  0  # atno 17342 bound_to 10162
  139.6221  144.0887  152.2401 LP  0  0  0  0  0  0  0  0  0  0  0  0  # atno 17343 bound_to 10162
  156.0163  130.3812  150.2101 LP  0  0  0  0  0  0  0  0  0  0  0  0  # atno 17370 bound_to 10713
  157.0289  131.0001  151.3318 LP  0  0  0  0  0  0  0  0  0  0  0  0  # atno 17371 bound_to 10713
  140.0307  134.9902  157.0775 LP  0  0  0  0  0  0  0  0  0  0  0  0  # atno 17394 bound_to 11000
  140.4289  134.1801  155.7167 LP  0  0  0  0  0  0  0  0  0  0  0  0  # atno 17395 bound_to 11000

$$$$
