AV-unprocessed.smi:2973|AV-procd|sdf|11346|dock4
  -GOLD-   2272016263D 1   1.00000     0.00000
 Structure written by MMmdl.
 48 50  0  0  0  0  0  0  0  0  2 V2000
  152.9691  138.0341  158.7446 C   0  0  0  0  0  0  0  0  0  0  0  0
  152.1740  139.3417  158.9538 C   0  0  1  0  0  0  0  0  0  0  0  0
  153.0423  140.4010  159.6667 C   0  0  0  0  0  0  0  0  0  0  0  0
  152.2454  141.6746  159.9851 C   0  0  0  0  0  0  0  0  0  0  0  0
  151.6200  142.2684  158.7163 C   0  0  0  0  0  0  0  0  0  0  0  0
  150.7418  141.2345  157.9912 C   0  0  0  0  0  0  0  0  0  0  0  0
  151.5038  139.9232  157.6657 C   0  0  1  0  0  0  0  0  0  0  0  0
  152.4745  140.1554  156.6076 N   0  5  0  0  0  0  0  0  0  0  0  0
  152.1339  139.4167  155.5265 C   0  0  0  0  0  0  0  0  0  0  0  0
  152.7242  139.3760  154.4478 O   0  0  0  0  0  0  0  0  0  0  0  0
  151.0176  138.7009  155.7628 N   0  0  0  0  0  0  0  0  0  0  0  0
  150.3611  137.8111  154.7917 C   0  0  0  0  0  0  0  0  0  0  0  0
  150.2389  136.3425  155.2342 C   0  0  0  0  0  0  0  0  0  0  0  0
  150.6270  136.0242  156.3580 O   0  0  0  0  0  0  0  0  0  0  0  0
  149.7138  135.4566  154.3707 N   0  0  0  0  0  0  0  0  0  0  0  0
  149.5517  134.0297  154.6194 C   0  0  0  0  0  0  0  0  0  0  0  0
  149.2994  133.2566  153.3138 C   0  0  0  0  0  0  0  0  0  0  0  0
  147.8481  133.3191  152.8763 C   0  0  0  0  0  0  0  0  0  0  0  0
  147.5123  133.4769  151.5146 C   0  0  0  0  0  0  0  0  0  0  0  0
  146.1503  133.5279  151.1606 C   0  0  0  0  0  0  0  0  0  0  0  0
  145.1810  133.4192  152.1761 C   0  0  0  0  0  0  0  0  0  0  0  0
  145.6190  133.2615  153.5062 C   0  0  0  0  0  0  0  0  0  0  0  0
  146.9224  133.2103  153.8563 N   0  0  0  0  0  0  0  0  0  0  0  0
  150.5616  138.9314  156.9990 C   0  0  0  0  0  0  0  0  0  0  0  0
  149.5602  138.4502  157.5313 O   0  0  0  0  0  0  0  0  0  0  0  0
  153.8192  138.1840  158.0787 H   0  0  0  0  0  0  0  0  0  0  0  0
  152.3501  137.2432  158.3218 H   0  0  0  0  0  0  0  0  0  0  0  0
  153.3599  137.6624  159.6918 H   0  0  0  0  0  0  0  0  0  0  0  0
  151.3665  139.0939  159.6454 H   0  0  0  0  0  0  0  0  0  0  0  0
  153.4450  139.9895  160.5926 H   0  0  0  0  0  0  0  0  0  0  0  0
  153.9030  140.6544  159.0462 H   0  0  0  0  0  0  0  0  0  0  0  0
  151.4613  141.4458  160.7078 H   0  0  0  0  0  0  0  0  0  0  0  0
  152.8964  142.4111  160.4564 H   0  0  0  0  0  0  0  0  0  0  0  0
  151.0244  143.1449  158.9720 H   0  0  0  0  0  0  0  0  0  0  0  0
  152.4079  142.6172  158.0479 H   0  0  0  0  0  0  0  0  0  0  0  0
  149.8834  141.0090  158.6261 H   0  0  0  0  0  0  0  0  0  0  0  0
  150.3321  141.6788  157.0822 H   0  0  0  0  0  0  0  0  0  0  0  0
  149.3609  138.1861  154.5697 H   0  0  0  0  0  0  0  0  0  0  0  0
  150.8972  137.8381  153.8416 H   0  0  0  0  0  0  0  0  0  0  0  0
  149.4235  135.7987  153.4653 H   0  0  0  0  0  0  0  0  0  0  0  0
  150.4293  133.6363  155.1353 H   0  0  0  0  0  0  0  0  0  0  0  0
  148.7079  133.9018  155.2981 H   0  0  0  0  0  0  0  0  0  0  0  0
  149.9272  133.6576  152.5164 H   0  0  0  0  0  0  0  0  0  0  0  0
  149.5879  132.2115  153.4326 H   0  0  0  0  0  0  0  0  0  0  0  0
  148.2794  133.5560  150.7583 H   0  0  0  0  0  0  0  0  0  0  0  0
  145.8542  133.6479  150.1290 H   0  0  0  0  0  0  0  0  0  0  0  0
  144.1275  133.4551  151.9419 H   0  0  0  0  0  0  0  0  0  0  0  0
  144.9031  133.1750  154.3101 H   0  0  0  0  0  0  0  0  0  0  0  0
  1  2  1  0  0  0  0
  1 26  1  0  0  0  0
  1 27  1  0  0  0  0
  1 28  1  0  0  0  0
  2  7  1  0  0  0  0
  2  3  1  0  0  0  0
  2 29  1  0  0  0  0
  3  4  1  0  0  0  0
  3 30  1  0  0  0  0
  3 31  1  0  0  0  0
  4  5  1  0  0  0  0
  4 32  1  0  0  0  0
  4 33  1  0  0  0  0
  5  6  1  0  0  0  0
  5 34  1  0  0  0  0
  5 35  1  0  0  0  0
  6  7  1  0  0  0  0
  6 36  1  0  0  0  0
  6 37  1  0  0  0  0
  7 24  1  0  0  0  0
  7  8  1  0  0  0  0
  8  9  1  0  0  0  0
  9 10  2  0  0  0  0
  9 11  1  0  0  0  0
 11 12  1  0  0  0  0
 11 24  1  0  0  0  0
 12 13  1  0  0  0  0
 12 38  1  0  0  0  0
 12 39  1  0  0  0  0
 13 14  2  0  0  0  0
 13 15  1  0  0  0  0
 15 16  1  0  0  0  0
 15 40  1  0  0  0  0
 16 17  1  0  0  0  0
 16 41  1  0  0  0  0
 16 42  1  0  0  0  0
 17 18  1  0  0  0  0
 17 43  1  0  0  0  0
 17 44  1  0  0  0  0
 18 23  1  0  0  0  0
 18 19  2  0  0  0  0
 19 20  1  0  0  0  0
 19 45  1  0  0  0  0
 20 21  2  0  0  0  0
 20 46  1  0  0  0  0
 21 22  1  0  0  0  0
 21 47  1  0  0  0  0
 22 23  2  0  0  0  0
 22 48  1  0  0  0  0
 24 25  2  0  0  0  0
M  CHG  1   8  -1
M  END
> <s_m_source_file>
AV-unprocessed.smi

> <i_m_source_file_index>
2973

> <i_lp_mmshare_version>
43012

> <i_f3d_flags>
0

> <s_epik_input>
W0NIMl0xW0NIMl1bQ0gyXVtDSDJdW0NAQEhdKFtDSDNdKVtDQF0xMltOSF1DKD1PKU4oQzI9TylbQ0gyXUMoPU8pW05IXVtDSDJdW0NIMl1jM1tjSF1bY0hdW2NIXVtjSF1uMw==

> <s_epik_cmdline>
J2VwaWtfcHl0aG9uJywgJy1waCcsICc3LjAnLCAnLXRuJywgJzgnLCAnLW1hJywgJzIwMCcsICctbWV0YWxfYmluZGluZycsICctaW1hZScsICc8aW5maWxlLm1hZT4nLCAnLW9tYWUnLCAnPG91dGZpbGUubWFlPic=

> <r_lp_tautomer_probability>
1

> <r_epik_Ionization_Penalty>
6.04175

> <r_epik_Ionization_Penalty_Charging>
6.01728

> <r_epik_Ionization_Penalty_Neutral>
0.0244696

> <r_epik_State_Penalty>
6.03712

> <r_epik_Charging_Adjusted_Penalty>
12.0544

> <i_epik_Tot_Q>
-1

> <i_epik_Tot_abs_Q>
1

> <r_epik_Metal_State_Penalty>
2.01153

> <b_epik_Metal_Only>
1

> <s_lp_Force_Field>
OPLS_2005

> <r_lp_Energy>
16.8957

> <b_lp_Chiralities_Consistent>
1

> <s_lp_Variant>
AV-unprocessed.smi:2973-10

> <Gold.Version>
5.8.1

> <Gold.Id.Protein>
6NUR|6NUR_protein|mol2

> <Gold.PLP.Fitness>
48.7306

> <Gold.PLP.PLP>
-36.2159

> <Gold.PLP.part.hbond>
-3.0000

> <Gold.PLP.part.metal>
0.0000

> <Gold.PLP.part.buried>
-3.1295

> <Gold.PLP.part.nonpolar>
-29.9081

> <Gold.PLP.part.repulsive>
0.1738

> <Gold.PLP.ligand.clash>
0.0000

> <Gold.PLP.ligand.torsion>
0.5004

> <Gold.PLP.Chemscore.Hbond>
3.5039

> <Gold.PLP.Chemscore.CHOScore>
0.9842

> <Gold.PLP.Chemscore.Metal>
0.0000

> <Gold.Chemscore.Hbonds>
donor molecule, donor type, donor heavy atom, donor atom, acceptor molecule, acceptor atom, score
      L1  H    15    40       P1  7948  1.00
      P1  H  7989  7998       L1    10  0.46
      P1  H  7997  8008       L1     8  2.00
      L1  C    22    48       P1 10957  0.63

> <Gold.PLP.Chemscore.Internal.Correction>
0.0512

> <Gold.Rescore>
     Score         DG    S(hbond)    S(metal)    S(lipo)     H(rot)  DE(clash)    DE(int)     intcor
     15.80     -16.84       1.77        0.00      86.21       1.81       0.47       0.57       ----

> <Gold.Chemscore.Fitness>
15.8002

> <Gold.Chemscore.DG>
-16.8431

> <Gold.Chemscore.ZeroCoef>
-5.4800

> <Gold.Chemscore.Hbond>
1.7687

> <Gold.Chemscore.Metal>
0.0000

> <Gold.Chemscore.Lipo>
86.2107

> <Gold.Chemscore.Internal_Hbond>
0.0000

> <Gold.Chemscore.DEClash>
0.4723

> <Gold.Chemscore.DEInternal>
0.5706

> <Gold.Chemscore.Rot>
1.8090

> <Gold.Chemscore.Internal.Correction>
   9.000000E+99

> <Gold.Chemscore.Hbonds>
donor molecule, donor type, donor heavy atom, donor atom, acceptor molecule, acceptor atom, score
      L1  H    15    40       P1  7948  0.35
      P1  H  7989  7998       L1    10  0.10
      P1  H  7997  8008       L1     8  0.30

> <Gold.Chemscore.Hbond.Weighted>
-5.9074

> <Gold.Chemscore.Metal.Weighted>
-0.0000

> <Gold.Chemscore.Lipo.Weighted>
-10.0867

> <Gold.Chemscore.Internal_Hbond.Weighted>
0.0000

> <Gold.Chemscore.DEClash.Weighted>
0.4723

> <Gold.Chemscore.DEInternal.Weighted>
0.5706

> <Gold.Chemscore.Rot.Weighted>
4.6310

> <Gold.Chemscore.Internal.Correction.Weighted>
   9.000000E+99

> <Gold.Protein.RotatedTorsions>
[ 6907 6896 6895 6894 ] final   59.68 input  -60.11 | X-H torsion
[ 7974 7965 7964 7962 ] final   83.20 input  175.53 | X-H torsion
[ 8008 7997 7996 7995 ] final  -50.51 input   59.86 | X-H torsion
[ 10167 10162 10161 10158 ] final   57.35 input  -65.29 | X-H torsion
[ 10718 10713 10712 10709 ] final -162.93 input   66.30 | X-H torsion
[ 10763 10752 10751 10750 ] final    7.80 input  -60.55 | X-H torsion
[ 11005 11000 10999 10996 ] final -107.39 input  -57.11 | X-H torsion

> <Gold.Protein.ActiveResidues>
 VAL166  LYS551  ARG553  GLY616  TRP617  ASP618  TYR619  PRO620  LYS621  CYS622 
 ASP623  PHE694  ASN695  SER759  ASP760  ASP761  ALA762  ILE779  LEU786  VAL792 
 PHE793  MET794  SER795  GLU796  ALA797  LYS798  CYS799  TRP800  GLU811  SER814 

> <Gold.Protein.RotatedAtoms>
  152.3936  134.6401  160.0097 H   0  0  0  0  0  0  0  0  0  0  0  0  # atno 6907 bound_to 6896
  151.6627  133.3311  159.3186 H   0  0  0  0  0  0  0  0  0  0  0  0  # atno 6908 bound_to 6896
  150.7848  134.6867  159.6518 H   0  0  0  0  0  0  0  0  0  0  0  0  # atno 6909 bound_to 6896
  145.6150  139.2375  143.2170 H   0  0  0  0  0  0  0  0  0  0  0  0  # atno 7974 bound_to 7965
  154.4063  140.1270  156.4678 H   0  0  0  0  0  0  0  0  0  0  0  0  # atno 8008 bound_to 7997
  155.7209  140.3492  155.4996 H   0  0  0  0  0  0  0  0  0  0  0  0  # atno 8009 bound_to 7997
  155.9215  140.1053  157.1193 H   0  0  0  0  0  0  0  0  0  0  0  0  # atno 8010 bound_to 7997
  140.1990  144.4008  150.6537 H   0  0  0  0  0  0  0  0  0  0  0  0  # atno 10167 bound_to 10162
  156.6174  130.8876  151.2950 H   0  0  0  0  0  0  0  0  0  0  0  0  # atno 10718 bound_to 10713
  153.2322  135.6894  153.7877 H   0  0  0  0  0  0  0  0  0  0  0  0  # atno 10763 bound_to 10752
  153.7037  135.3293  155.3231 H   0  0  0  0  0  0  0  0  0  0  0  0  # atno 10764 bound_to 10752
  154.8319  135.4574  154.1212 H   0  0  0  0  0  0  0  0  0  0  0  0  # atno 10765 bound_to 10752
  141.0956  133.8977  157.1971 H   0  0  0  0  0  0  0  0  0  0  0  0  # atno 11005 bound_to 11000
  146.1475  140.6972  142.9338 LP  0  0  0  0  0  0  0  0  0  0  0  0  # atno 17320 bound_to 7965
  144.7254  140.4508  143.6977 LP  0  0  0  0  0  0  0  0  0  0  0  0  # atno 17321 bound_to 7965
  140.6404  143.2202  151.6303 LP  0  0  0  0  0  0  0  0  0  0  0  0  # atno 17342 bound_to 10162
  139.5225  144.3161  152.0951 LP  0  0  0  0  0  0  0  0  0  0  0  0  # atno 17343 bound_to 10162
  157.7237  130.9593  150.1545 LP  0  0  0  0  0  0  0  0  0  0  0  0  # atno 17370 bound_to 10713
  156.2339  130.3684  149.8413 LP  0  0  0  0  0  0  0  0  0  0  0  0  # atno 17371 bound_to 10713
  139.9792  135.0104  156.9707 LP  0  0  0  0  0  0  0  0  0  0  0  0  # atno 17394 bound_to 11000
  140.5148  134.0966  155.7278 LP  0  0  0  0  0  0  0  0  0  0  0  0  # atno 17395 bound_to 11000

$$$$
