AV-unprocessed.smi:2410|AV-procd|sdf|9528|dock10
  -GOLD-   2272013163D 1   1.00000     0.00000
 Structure written by MMmdl.
 47 49  0  0  0  0  0  0  0  0  2 V2000
  152.6815  143.3007  160.8915 C   0  0  0  0  0  0  0  0  0  0  0  0
  151.9533  142.7613  159.6722 C   0  0  0  0  0  0  0  0  0  0  0  0
  152.4493  141.5916  159.0525 C   0  0  0  0  0  0  0  0  0  0  0  0
  151.7599  141.1211  157.9409 C   0  0  0  0  0  0  0  0  0  0  0  0
  151.9866  140.0121  157.1220 N   0  3  0  0  0  0  0  0  0  0  0  0
  151.0313  139.9599  156.1521 C   0  0  0  0  0  0  0  0  0  0  0  0
  150.1995  141.0201  156.3403 N   0  0  0  0  0  0  0  0  0  0  0  0
  149.0078  141.4388  155.5926 C   0  0  0  0  0  0  0  0  0  0  0  0
  148.7144  140.5206  154.3899 C   0  0  2  0  0  0  0  0  0  0  0  0
  149.6991  140.7572  153.4026 O   0  0  0  0  0  0  0  0  0  0  0  0
  147.3188  140.7875  153.7846 C   0  0  0  0  0  0  0  0  0  0  0  0
  146.7731  139.5927  153.1204 N   0  0  0  0  0  0  0  0  0  0  0  0
  147.0442  139.4630  151.7489 C   0  0  0  0  0  0  0  0  0  0  0  0
  146.6156  138.4528  151.0652 N   0  0  0  0  0  0  0  0  0  0  0  0
  145.8658  137.4533  151.6926 C   0  0  0  0  0  0  0  0  0  0  0  0
  145.4075  136.3168  150.7958 C   0  0  0  0  0  0  0  0  0  0  0  0
  145.5788  137.5139  153.0218 C   0  0  0  0  0  0  0  0  0  0  0  0
  144.7673  136.4559  153.7590 C   0  0  0  0  0  0  0  0  0  0  0  0
  146.0662  138.6540  153.8146 C   0  0  0  0  0  0  0  0  0  0  0  0
  145.8625  138.7635  155.0260 O   0  0  0  0  0  0  0  0  0  0  0  0
  150.6161  141.7731  157.4426 C   0  0  0  0  0  0  0  0  0  0  0  0
  150.1148  142.9277  158.0388 C   0  0  0  0  0  0  0  0  0  0  0  0
  150.8006  143.4209  159.1713 C   0  0  0  0  0  0  0  0  0  0  0  0
  150.2734  144.6759  159.8460 C   0  0  0  0  0  0  0  0  0  0  0  0
  153.5304  142.6711  161.1602 H   0  0  0  0  0  0  0  0  0  0  0  0
  152.0124  143.3413  161.7514 H   0  0  0  0  0  0  0  0  0  0  0  0
  153.0595  144.3049  160.6984 H   0  0  0  0  0  0  0  0  0  0  0  0
  153.3257  141.0843  159.4285 H   0  0  0  0  0  0  0  0  0  0  0  0
  150.9465  139.2110  155.3779 H   0  0  0  0  0  0  0  0  0  0  0  0
  148.1662  141.4539  156.2864 H   0  0  0  0  0  0  0  0  0  0  0  0
  149.1597  142.4686  155.2664 H   0  0  0  0  0  0  0  0  0  0  0  0
  148.7960  139.4814  154.7100 H   0  0  0  0  0  0  0  0  0  0  0  0
  149.5910  140.1220  152.7113 H   0  0  0  0  0  0  0  0  0  0  0  0
  146.6247  141.0749  154.5768 H   0  0  0  0  0  0  0  0  0  0  0  0
  147.3408  141.6585  153.1262 H   0  0  0  0  0  0  0  0  0  0  0  0
  147.6383  140.2656  151.3087 H   0  0  0  0  0  0  0  0  0  0  0  0
  144.3189  136.2586  150.7787 H   0  0  0  0  0  0  0  0  0  0  0  0
  145.8033  135.3653  151.1519 H   0  0  0  0  0  0  0  0  0  0  0  0
  145.7507  136.4576  149.7700 H   0  0  0  0  0  0  0  0  0  0  0  0
  145.3574  136.0252  154.5687 H   0  0  0  0  0  0  0  0  0  0  0  0
  144.4462  135.6371  153.1171 H   0  0  0  0  0  0  0  0  0  0  0  0
  143.8722  136.9033  154.1926 H   0  0  0  0  0  0  0  0  0  0  0  0
  149.2355  143.4274  157.6582 H   0  0  0  0  0  0  0  0  0  0  0  0
  149.4058  145.0769  159.3208 H   0  0  0  0  0  0  0  0  0  0  0  0
  151.0384  145.4525  159.8648 H   0  0  0  0  0  0  0  0  0  0  0  0
  149.9716  144.4604  160.8712 H   0  0  0  0  0  0  0  0  0  0  0  0
  152.7355  139.3379  157.2170 H   0  0  0  0  0  0  0  0  0  0  0  0
  1  2  1  0  0  0  0
  1 25  1  0  0  0  0
  1 26  1  0  0  0  0
  1 27  1  0  0  0  0
  2 23  1  0  0  0  0
  2  3  2  0  0  0  0
  3  4  1  0  0  0  0
  3 28  1  0  0  0  0
  4 21  2  0  0  0  0
  4  5  1  0  0  0  0
  5  6  2  0  0  0  0
  5 47  1  0  0  0  0
  6  7  1  0  0  0  0
  6 29  1  0  0  0  0
  7  8  1  0  0  0  0
  7 21  1  0  0  0  0
  8  9  1  0  0  0  0
  8 30  1  0  0  0  0
  8 31  1  0  0  0  0
  9 10  1  0  0  0  0
  9 11  1  0  0  0  0
  9 32  1  0  0  0  0
 10 33  1  0  0  0  0
 11 12  1  0  0  0  0
 11 34  1  0  0  0  0
 11 35  1  0  0  0  0
 12 19  1  0  0  0  0
 12 13  1  0  0  0  0
 13 14  2  0  0  0  0
 13 36  1  0  0  0  0
 14 15  1  0  0  0  0
 15 16  1  0  0  0  0
 15 17  2  0  0  0  0
 16 37  1  0  0  0  0
 16 38  1  0  0  0  0
 16 39  1  0  0  0  0
 17 18  1  0  0  0  0
 17 19  1  0  0  0  0
 18 40  1  0  0  0  0
 18 41  1  0  0  0  0
 18 42  1  0  0  0  0
 19 20  2  0  0  0  0
 21 22  1  0  0  0  0
 22 23  2  0  0  0  0
 22 43  1  0  0  0  0
 23 24  1  0  0  0  0
 24 44  1  0  0  0  0
 24 45  1  0  0  0  0
 24 46  1  0  0  0  0
M  CHG  1   5   1
M  END
> <s_m_source_file>
AV-unprocessed.smi

> <i_m_source_file_index>
2410

> <i_lp_mmshare_version>
43012

> <i_f3d_flags>
0

> <s_epik_input>
W0NIM11jKFtjSF0xKWMoW0NIM10pW2NIXWMoYzEyKW4oW2NIXW4yKVtDSDJdW0NASF0oW09IXSlbQ0gyXW4zW2NIXW5jKFtDSDNdKWMoW0NIM10pYzM9Tw==

> <s_epik_cmdline>
J2VwaWtfcHl0aG9uJywgJy1waCcsICc3LjAnLCAnLXRuJywgJzgnLCAnLW1hJywgJzIwMCcsICctbWV0YWxfYmluZGluZycsICctaW1hZScsICc8aW5maWxlLm1hZT4nLCAnLW9tYWUnLCAnPG91dGZpbGUubWFlPic=

> <r_lp_tautomer_probability>
1

> <r_epik_Ionization_Penalty>
1.03571

> <r_epik_Ionization_Penalty_Charging>
1.03568

> <r_epik_Ionization_Penalty_Neutral>
3.18232e-05

> <r_epik_State_Penalty>
1.08724

> <r_epik_Charging_Adjusted_Penalty>
2.12292

> <i_epik_Tot_Q>
1

> <i_epik_Tot_abs_Q>
1

> <r_epik_Metal_State_Penalty>
1.18374

> <b_epik_Metal_Only>
0

> <s_lp_Force_Field>
OPLS_2005

> <r_lp_Energy>
24.5371

> <b_lp_Chiralities_Consistent>
1

> <s_lp_Variant>
AV-unprocessed.smi:2410-3

> <Gold.Version>
5.8.1

> <Gold.Id.Protein>
6NUR|6NUR_protein|mol2

> <Gold.PLP.Fitness>
53.0630

> <Gold.PLP.PLP>
-42.9537

> <Gold.PLP.part.hbond>
-3.3317

> <Gold.PLP.part.metal>
0.0000

> <Gold.PLP.part.buried>
-1.9468

> <Gold.PLP.part.nonpolar>
-39.6240

> <Gold.PLP.part.repulsive>
0.8238

> <Gold.PLP.ligand.clash>
0.0000

> <Gold.PLP.ligand.torsion>
0.7537

> <Gold.PLP.Chemscore.Hbond>
3.1135

> <Gold.PLP.Chemscore.CHOScore>
0.7531

> <Gold.PLP.Chemscore.Metal>
0.0000

> <Gold.Chemscore.Hbonds>
donor molecule, donor type, donor heavy atom, donor atom, acceptor molecule, acceptor atom, score
      L1  H    10    33       P1  7957  0.80
      P1  H  7954  7966       L1    14  1.00
      P1  H  7989  7998       L1    10  0.32
      P1  H  8011  8017       L1    10  1.00
      L1  C    13    36       P1  7957  0.62

> <Gold.PLP.Chemscore.Internal.Correction>
0.0168

> <Gold.Rescore>
     Score         DG    S(hbond)    S(metal)    S(lipo)     H(rot)  DE(clash)    DE(int)     intcor
     15.36     -18.17       1.70        0.00     112.68       2.41       1.86       0.96       ----

> <Gold.Chemscore.Fitness>
15.3555

> <Gold.Chemscore.DG>
-18.1718

> <Gold.Chemscore.ZeroCoef>
-5.4800

> <Gold.Chemscore.Hbond>
1.6964

> <Gold.Chemscore.Metal>
0.0000

> <Gold.Chemscore.Lipo>
112.6757

> <Gold.Chemscore.Internal_Hbond>
0.0000

> <Gold.Chemscore.DEClash>
1.8576

> <Gold.Chemscore.DEInternal>
0.9587

> <Gold.Chemscore.Rot>
2.4052

> <Gold.Chemscore.Internal.Correction>
   9.000000E+99

> <Gold.Chemscore.Hbonds>
donor molecule, donor type, donor heavy atom, donor atom, acceptor molecule, acceptor atom, score
      L1  H    10    33       P1  7957  0.76
      P1  H  7954  7966       L1    14  0.48
      P1  H  7989  7998       L1    10  0.08
      P1  H  8011  8017       L1    10  0.25

> <Gold.Chemscore.Hbond.Weighted>
-5.6660

> <Gold.Chemscore.Metal.Weighted>
-0.0000

> <Gold.Chemscore.Lipo.Weighted>
-13.1831

> <Gold.Chemscore.Internal_Hbond.Weighted>
0.0000

> <Gold.Chemscore.DEClash.Weighted>
1.8576

> <Gold.Chemscore.DEInternal.Weighted>
0.9587

> <Gold.Chemscore.Rot.Weighted>
6.1573

> <Gold.Chemscore.Internal.Correction.Weighted>
   9.000000E+99

> <Gold.Protein.RotatedTorsions>
[ 6907 6896 6895 6894 ] final   44.32 input  -60.11 | X-H torsion
[ 7974 7965 7964 7962 ] final  -70.20 input  175.53 | X-H torsion
[ 8008 7997 7996 7995 ] final  167.72 input   59.86 | X-H torsion
[ 10167 10162 10161 10158 ] final -143.24 input  -65.29 | X-H torsion
[ 10718 10713 10712 10709 ] final -138.88 input   66.30 | X-H torsion
[ 10763 10752 10751 10750 ] final   73.27 input  -60.55 | X-H torsion
[ 11005 11000 10999 10996 ] final   96.41 input  -57.11 | X-H torsion

> <Gold.Protein.ActiveResidues>
 VAL166  LYS551  ARG553  GLY616  TRP617  ASP618  TYR619  PRO620  LYS621  CYS622 
 ASP623  PHE694  ASN695  SER759  ASP760  ASP761  ALA762  ILE779  LEU786  VAL792 
 PHE793  MET794  SER795  GLU796  ALA797  LYS798  CYS799  TRP800  GLU811  SER814 

> <Gold.Protein.RotatedAtoms>
  152.2311  134.8321  160.0473 H   0  0  0  0  0  0  0  0  0  0  0  0  # atno 6907 bound_to 6896
  151.9070  133.3547  159.3858 H   0  0  0  0  0  0  0  0  0  0  0  0  # atno 6908 bound_to 6896
  150.7026  134.4696  159.5463 H   0  0  0  0  0  0  0  0  0  0  0  0  # atno 6909 bound_to 6896
  145.6940  140.9142  143.0766 H   0  0  0  0  0  0  0  0  0  0  0  0  # atno 7974 bound_to 7965
  156.1609  140.1609  156.8613 H   0  0  0  0  0  0  0  0  0  0  0  0  # atno 8008 bound_to 7997
  154.5160  140.0789  156.8117 H   0  0  0  0  0  0  0  0  0  0  0  0  # atno 8009 bound_to 7997
  155.3709  140.3400  155.4245 H   0  0  0  0  0  0  0  0  0  0  0  0  # atno 8010 bound_to 7997
  139.8012  143.7831  152.2658 H   0  0  0  0  0  0  0  0  0  0  0  0  # atno 10167 bound_to 10162
  156.3044  130.7446  151.1506 H   0  0  0  0  0  0  0  0  0  0  0  0  # atno 10718 bound_to 10713
  153.0511  135.5069  154.7868 H   0  0  0  0  0  0  0  0  0  0  0  0  # atno 10763 bound_to 10752
  154.6730  135.2956  154.9719 H   0  0  0  0  0  0  0  0  0  0  0  0  # atno 10764 bound_to 10752
  154.0530  135.6701  153.4855 H   0  0  0  0  0  0  0  0  0  0  0  0  # atno 10765 bound_to 10752
  139.8782  134.8949  156.4154 H   0  0  0  0  0  0  0  0  0  0  0  0  # atno 11005 bound_to 11000
  144.6988  139.8860  143.7450 LP  0  0  0  0  0  0  0  0  0  0  0  0  # atno 17320 bound_to 7965
  146.0856  139.3845  143.0437 LP  0  0  0  0  0  0  0  0  0  0  0  0  # atno 17321 bound_to 7965
  139.7952  144.7395  150.9900 LP  0  0  0  0  0  0  0  0  0  0  0  0  # atno 17342 bound_to 10162
  140.7820  143.4401  151.0564 LP  0  0  0  0  0  0  0  0  0  0  0  0  # atno 17343 bound_to 10162
  157.7376  131.0550  150.5347 LP  0  0  0  0  0  0  0  0  0  0  0  0  # atno 17370 bound_to 10713
  156.5478  130.4224  149.6122 LP  0  0  0  0  0  0  0  0  0  0  0  0  # atno 17371 bound_to 10713
  140.9171  133.7671  155.9861 LP  0  0  0  0  0  0  0  0  0  0  0  0  # atno 17394 bound_to 11000
  140.8481  134.2986  157.5286 LP  0  0  0  0  0  0  0  0  0  0  0  0  # atno 17395 bound_to 11000

$$$$
