AV-unprocessed.smi:2928|AV-procd|sdf|11233|dock7
  -GOLD-   2272016123D 1   1.00000     0.00000
 Structure written by MMmdl.
 55 58  0  0  0  0  0  0  0  0  2 V2000
  146.3380  131.4817  148.7500 C   0  0  0  0  0  0  0  0  0  0  0  0
  146.4027  131.8247  150.1907 N   0  3  2  0  0  0  0  0  0  0  0  0
  145.4629  131.0690  151.0543 C   0  0  2  0  0  0  0  0  0  0  0  0
  143.9957  131.5023  150.8053 C   0  0  0  0  0  0  0  0  0  0  0  0
  143.7687  133.0240  150.8875 C   0  0  0  0  0  0  0  0  0  0  0  0
  144.8969  133.8257  150.2111 C   0  0  0  0  0  0  0  0  0  0  0  0
  146.3182  133.2746  150.4918 C   0  0  1  0  0  0  0  0  0  0  0  0
  146.8352  133.5179  151.9286 C   0  0  0  0  0  0  0  0  0  0  0  0
  146.1634  132.6344  153.0115 C   0  0  2  0  0  0  0  0  0  0  0  0
  146.9814  132.6037  154.2221 N   0  0  0  0  0  0  0  0  0  0  0  0
  148.2448  132.1596  154.2921 C   0  0  0  0  0  0  0  0  0  0  0  0
  148.8531  131.6881  153.3316 O   0  0  0  0  0  0  0  0  0  0  0  0
  148.7334  132.2839  155.5373 N   0  0  0  0  0  0  0  0  0  0  0  0
  150.0204  131.9185  156.0256 C   0  0  0  0  0  0  0  0  0  0  0  0
  150.8693  131.0377  155.3107 C   0  0  0  0  0  0  0  0  0  0  0  0
  152.1565  130.7663  155.8055 C   0  0  0  0  0  0  0  0  0  0  0  0
  152.5591  131.3990  156.9930 C   0  0  0  0  0  0  0  0  0  0  0  0
  151.7698  132.2502  157.6780 N   0  0  0  0  0  0  0  0  0  0  0  0
  150.5204  132.5109  157.2207 C   0  0  0  0  0  0  0  0  0  0  0  0
  149.7305  133.3984  157.9864 N   0  0  0  0  0  0  0  0  0  0  0  0
  149.2871  134.6342  157.3473 C   0  0  0  0  0  0  0  0  0  0  0  0
  147.8857  134.9287  157.8949 C   0  0  0  0  0  0  0  0  0  0  0  0
  147.8180  134.1125  159.1822 C   0  0  0  0  0  0  0  0  0  0  0  0
  148.6581  132.8878  158.8333 C   0  0  0  0  0  0  0  0  0  0  0  0
  145.9326  131.1840  152.5232 C   0  0  0  0  0  0  0  0  0  0  0  0
  145.3769  131.7375  148.3052 H   0  0  0  0  0  0  0  0  0  0  0  0
  146.5018  130.4133  148.6069 H   0  0  0  0  0  0  0  0  0  0  0  0
  147.1160  132.0104  148.1985 H   0  0  0  0  0  0  0  0  0  0  0  0
  145.5392  130.0141  150.7867 H   0  0  0  0  0  0  0  0  0  0  0  0
  143.6926  131.1627  149.8146 H   0  0  0  0  0  0  0  0  0  0  0  0
  143.3297  130.9914  151.5015 H   0  0  0  0  0  0  0  0  0  0  0  0
  142.8153  133.2744  150.4210 H   0  0  0  0  0  0  0  0  0  0  0  0
  143.6518  133.3345  151.9223 H   0  0  0  0  0  0  0  0  0  0  0  0
  144.7248  133.8206  149.1345 H   0  0  0  0  0  0  0  0  0  0  0  0
  144.8342  134.8731  150.5080 H   0  0  0  0  0  0  0  0  0  0  0  0
  147.0057  133.7951  149.8233 H   0  0  0  0  0  0  0  0  0  0  0  0
  147.9074  133.3134  151.9303 H   0  0  0  0  0  0  0  0  0  0  0  0
  146.7368  134.5727  152.1883 H   0  0  0  0  0  0  0  0  0  0  0  0
  145.2038  133.0647  153.2879 H   0  0  0  0  0  0  0  0  0  0  0  0
  146.5619  132.9683  155.0649 H   0  0  0  0  0  0  0  0  0  0  0  0
  148.0835  132.6020  156.2413 H   0  0  0  0  0  0  0  0  0  0  0  0
  150.5667  130.5840  154.3795 H   0  0  0  0  0  0  0  0  0  0  0  0
  152.8238  130.0996  155.2796 H   0  0  0  0  0  0  0  0  0  0  0  0
  153.5432  131.2225  157.4013 H   0  0  0  0  0  0  0  0  0  0  0  0
  149.9693  135.4389  157.6215 H   0  0  0  0  0  0  0  0  0  0  0  0
  149.2798  134.5529  156.2592 H   0  0  0  0  0  0  0  0  0  0  0  0
  147.7082  135.9922  158.0557 H   0  0  0  0  0  0  0  0  0  0  0  0
  147.1341  134.5650  157.1928 H   0  0  0  0  0  0  0  0  0  0  0  0
  148.2832  134.6650  159.9995 H   0  0  0  0  0  0  0  0  0  0  0  0
  146.7993  133.8602  159.4774 H   0  0  0  0  0  0  0  0  0  0  0  0
  148.0425  132.1703  158.2893 H   0  0  0  0  0  0  0  0  0  0  0  0
  149.0520  132.3974  159.7239 H   0  0  0  0  0  0  0  0  0  0  0  0
  145.2321  130.6736  153.1853 H   0  0  0  0  0  0  0  0  0  0  0  0
  146.8721  130.6350  152.6079 H   0  0  0  0  0  0  0  0  0  0  0  0
  147.3281  131.5397  150.4787 H   0  0  0  0  0  0  0  0  0  0  0  0
  1  2  1  0  0  0  0
  1 26  1  0  0  0  0
  1 27  1  0  0  0  0
  1 28  1  0  0  0  0
  2  7  1  0  0  0  0
  2  3  1  0  0  0  0
  2 55  1  0  0  0  0
  3 25  1  0  0  0  0
  3  4  1  0  0  0  0
  3 29  1  0  0  0  0
  4  5  1  0  0  0  0
  4 30  1  0  0  0  0
  4 31  1  0  0  0  0
  5  6  1  0  0  0  0
  5 32  1  0  0  0  0
  5 33  1  0  0  0  0
  6  7  1  0  0  0  0
  6 34  1  0  0  0  0
  6 35  1  0  0  0  0
  7  8  1  0  0  0  0
  7 36  1  0  0  0  0
  8  9  1  0  0  0  0
  8 37  1  0  0  0  0
  8 38  1  0  0  0  0
  9 10  1  0  0  0  0
  9 25  1  0  0  0  0
  9 39  1  0  0  0  0
 10 11  1  0  0  0  0
 10 40  1  0  0  0  0
 11 12  2  0  0  0  0
 11 13  1  0  0  0  0
 13 14  1  0  0  0  0
 13 41  1  0  0  0  0
 14 19  1  0  0  0  0
 14 15  2  0  0  0  0
 15 16  1  0  0  0  0
 15 42  1  0  0  0  0
 16 17  2  0  0  0  0
 16 43  1  0  0  0  0
 17 18  1  0  0  0  0
 17 44  1  0  0  0  0
 18 19  2  0  0  0  0
 19 20  1  0  0  0  0
 20 24  1  0  0  0  0
 20 21  1  0  0  0  0
 21 22  1  0  0  0  0
 21 45  1  0  0  0  0
 21 46  1  0  0  0  0
 22 23  1  0  0  0  0
 22 47  1  0  0  0  0
 22 48  1  0  0  0  0
 23 24  1  0  0  0  0
 23 49  1  0  0  0  0
 23 50  1  0  0  0  0
 24 51  1  0  0  0  0
 24 52  1  0  0  0  0
 25 53  1  0  0  0  0
 25 54  1  0  0  0  0
M  CHG  1   2   1
M  END
> <s_m_source_file>
AV-unprocessed.smi

> <i_m_source_file_index>
2928

> <i_lp_mmshare_version>
43012

> <i_f3d_flags>
0

> <s_epik_input>
W0NIMl0xW0NIMl1bQ0gyXVtDQEhdKE4oW0NIM10pW0NIXTEyKVtDSDJdW0NASF0oW0NIMl0yKVtOSF1DKD1PKVtOSF1jM1tjSF1bY0hdW2NIXW5jM040W0NIMl1bQ0gyXVtDSDJdW0NIMl00

> <s_epik_cmdline>
J2VwaWtfcHl0aG9uJywgJy1waCcsICc3LjAnLCAnLXRuJywgJzgnLCAnLW1hJywgJzIwMCcsICctbWV0YWxfYmluZGluZycsICctaW1hZScsICc8aW5maWxlLm1hZT4nLCAnLW9tYWUnLCAnPG91dGZpbGUubWFlPic=

> <r_lp_tautomer_probability>
1

> <r_epik_Ionization_Penalty>
0.07954

> <r_epik_Ionization_Penalty_Charging>
0.00089841

> <r_epik_Ionization_Penalty_Neutral>
0.0786416

> <r_epik_State_Penalty>
0.0689917

> <r_epik_Charging_Adjusted_Penalty>
0.0698901

> <i_epik_Tot_Q>
1

> <i_epik_Tot_abs_Q>
1

> <r_epik_Metal_State_Penalty>
0.0608947

> <b_epik_Metal_Only>
0

> <s_lp_Force_Field>
OPLS_2005

> <r_lp_Energy>
63.7088

> <b_lp_Chiralities_Consistent>
1

> <s_lp_Variant>
AV-unprocessed.smi:2928-3

> <Gold.Version>
5.8.1

> <Gold.Id.Protein>
6NUR|6NUR_protein|mol2

> <Gold.PLP.Fitness>
41.4328

> <Gold.PLP.PLP>
-35.2596

> <Gold.PLP.part.hbond>
-3.0000

> <Gold.PLP.part.metal>
0.0000

> <Gold.PLP.part.buried>
-1.1868

> <Gold.PLP.part.nonpolar>
-30.5834

> <Gold.PLP.part.repulsive>
0.2478

> <Gold.PLP.ligand.clash>
0.0000

> <Gold.PLP.ligand.torsion>
0.2942

> <Gold.PLP.Chemscore.Hbond>
2.1538

> <Gold.PLP.Chemscore.CHOScore>
0.0000

> <Gold.PLP.Chemscore.Metal>
0.0000

> <Gold.Chemscore.Hbonds>
donor molecule, donor type, donor heavy atom, donor atom, acceptor molecule, acceptor atom, score
      L1  H     2    55       P1 10747  1.00
      P1  H  6896  6907       L1    20  0.17
      P1  H  6896  6909       L1    18  0.98

> <Gold.PLP.Chemscore.Internal.Correction>
0.3000

> <Gold.Rescore>
     Score         DG    S(hbond)    S(metal)    S(lipo)     H(rot)  DE(clash)    DE(int)     intcor
     17.08     -20.06       1.62        0.00     104.14       1.18       0.58       2.39       ----

> <Gold.Chemscore.Fitness>
17.0848

> <Gold.Chemscore.DG>
-20.0599

> <Gold.Chemscore.ZeroCoef>
-5.4800

> <Gold.Chemscore.Hbond>
1.6199

> <Gold.Chemscore.Metal>
0.0000

> <Gold.Chemscore.Lipo>
104.1383

> <Gold.Chemscore.Internal_Hbond>
0.0000

> <Gold.Chemscore.DEClash>
0.5840

> <Gold.Chemscore.DEInternal>
2.3912

> <Gold.Chemscore.Rot>
1.1776

> <Gold.Chemscore.Internal.Correction>
   9.000000E+99

> <Gold.Chemscore.Hbonds>
donor molecule, donor type, donor heavy atom, donor atom, acceptor molecule, acceptor atom, score
      L1  H     2    55       P1 10747  0.98
      P1  H  6896  6909       L1    18  0.41

> <Gold.Chemscore.Hbond.Weighted>
-5.4105

> <Gold.Chemscore.Metal.Weighted>
-0.0000

> <Gold.Chemscore.Lipo.Weighted>
-12.1842

> <Gold.Chemscore.Internal_Hbond.Weighted>
0.0000

> <Gold.Chemscore.DEClash.Weighted>
0.5840

> <Gold.Chemscore.DEInternal.Weighted>
2.3912

> <Gold.Chemscore.Rot.Weighted>
3.0147

> <Gold.Chemscore.Internal.Correction.Weighted>
   9.000000E+99

> <Gold.Protein.RotatedTorsions>
[ 6907 6896 6895 6894 ] final  -75.23 input  -60.11 | X-H torsion
[ 7974 7965 7964 7962 ] final   69.03 input  175.53 | X-H torsion
[ 8008 7997 7996 7995 ] final -168.79 input   59.86 | X-H torsion
[ 10167 10162 10161 10158 ] final  158.82 input  -65.29 | X-H torsion
[ 10718 10713 10712 10709 ] final   72.37 input   66.30 | X-H torsion
[ 10763 10752 10751 10750 ] final  -65.84 input  -60.55 | X-H torsion
[ 11005 11000 10999 10996 ] final   29.37 input  -57.11 | X-H torsion

> <Gold.Protein.ActiveResidues>
 VAL166  LYS551  ARG553  GLY616  TRP617  ASP618  TYR619  PRO620  LYS621  CYS622 
 ASP623  PHE694  ASN695  SER759  ASP760  ASP761  ALA762  ILE779  LEU786  VAL792 
 PHE793  MET794  SER795  GLU796  ALA797  LYS798  CYS799  TRP800  GLU811  SER814 

> <Gold.Protein.RotatedAtoms>
  150.7066  134.4751  159.5443 H   0  0  0  0  0  0  0  0  0  0  0  0  # atno 6907 bound_to 6896
  152.2399  134.8236  160.0471 H   0  0  0  0  0  0  0  0  0  0  0  0  # atno 6908 bound_to 6896
  151.9021  133.3505  159.3871 H   0  0  0  0  0  0  0  0  0  0  0  0  # atno 6909 bound_to 6896
  145.7954  139.2955  143.1186 H   0  0  0  0  0  0  0  0  0  0  0  0  # atno 7974 bound_to 7965
  155.8962  140.1033  157.1383 H   0  0  0  0  0  0  0  0  0  0  0  0  # atno 8008 bound_to 7997
  154.4020  140.1301  156.4442 H   0  0  0  0  0  0  0  0  0  0  0  0  # atno 8009 bound_to 7997
  155.7476  140.3465  155.5137 H   0  0  0  0  0  0  0  0  0  0  0  0  # atno 8010 bound_to 7997
  139.4829  144.4788  151.8473 H   0  0  0  0  0  0  0  0  0  0  0  0  # atno 10167 bound_to 10162
  157.6497  130.9575  150.0919 H   0  0  0  0  0  0  0  0  0  0  0  0  # atno 10718 bound_to 10713
  154.3509  135.6136  153.5642 H   0  0  0  0  0  0  0  0  0  0  0  0  # atno 10763 bound_to 10752
  152.9798  135.5792  154.4744 H   0  0  0  0  0  0  0  0  0  0  0  0  # atno 10764 bound_to 10752
  154.4465  135.2851  155.1788 H   0  0  0  0  0  0  0  0  0  0  0  0  # atno 10765 bound_to 10752
  140.3057  134.2706  155.7744 H   0  0  0  0  0  0  0  0  0  0  0  0  # atno 11005 bound_to 11000
  145.9933  140.8583  143.0055 LP  0  0  0  0  0  0  0  0  0  0  0  0  # atno 17320 bound_to 7965
  144.6776  140.2247  143.7362 LP  0  0  0  0  0  0  0  0  0  0  0  0  # atno 17321 bound_to 7965
  140.4263  144.2176  150.5887 LP  0  0  0  0  0  0  0  0  0  0  0  0  # atno 17342 bound_to 10162
  140.4824  143.2374  151.8936 LP  0  0  0  0  0  0  0  0  0  0  0  0  # atno 17343 bound_to 10162
  156.1866  130.3652  149.8965 LP  0  0  0  0  0  0  0  0  0  0  0  0  # atno 17370 bound_to 10713
  156.6904  130.8893  151.3587 LP  0  0  0  0  0  0  0  0  0  0  0  0  # atno 17371 bound_to 10713
  141.2119  133.7675  156.9833 LP  0  0  0  0  0  0  0  0  0  0  0  0  # atno 17394 bound_to 11000
  140.1069  134.9501  157.2008 LP  0  0  0  0  0  0  0  0  0  0  0  0  # atno 17395 bound_to 11000

$$$$
