AV-unprocessed.smi:1818|AV-procd|sdf|7380|dock2
  -GOLD-   22720 9 43D 1   1.00000     0.00000
 Structure written by MMmdl.
 36 37  0  0  0  0  0  0  0  0  1 V2000
  150.7041  139.6982  154.3963 N   0  0  0  0  0  0  0  0  0  0  0  0
  150.0279  140.3685  155.0541 C   0  0  0  0  0  0  0  0  0  0  0  0
  149.1663  141.2245  155.8935 C   0  0  0  0  0  0  0  0  0  0  0  0
  149.8640  142.4687  156.2335 N   0  0  0  0  0  0  0  0  0  0  0  0
  151.0124  142.5958  156.9199 C   0  0  0  0  0  0  0  0  0  0  0  0
  151.6353  141.6464  157.3932 O   0  0  0  0  0  0  0  0  0  0  0  0
  151.5472  144.0171  157.0901 C   0  0  0  0  0  0  0  0  0  0  0  0
  151.6418  144.3668  158.4947 N   0  0  0  0  0  0  0  0  0  0  0  0
  152.5725  143.9020  159.4155 C   0  0  0  0  0  0  0  0  0  0  0  0
  152.2669  144.4984  160.6181 C   0  0  0  0  0  0  0  0  0  0  0  0
  151.1586  145.3275  160.4620 N   0  0  0  0  0  0  0  0  0  0  0  0
  150.8428  145.1966  159.1801 C   0  0  0  0  0  0  0  0  0  0  0  0
  147.9316  141.6062  155.0395 C   0  0  0  0  0  0  0  0  0  0  0  0
  146.6803  142.0508  155.8180 C   0  0  0  0  0  0  0  0  0  0  0  0
  145.7669  140.8685  156.1894 C   0  0  0  0  0  0  0  0  0  0  0  0
  146.3018  139.9626  157.3095 C   0  0  0  0  0  0  0  0  0  0  0  0
  147.7119  139.3962  157.0674 C   0  0  0  0  0  0  0  0  0  0  0  0
  148.8033  140.4714  157.2002 C   0  0  0  0  0  0  0  0  0  0  0  0
  149.4372  143.3180  155.8935 H   0  0  0  0  0  0  0  0  0  0  0  0
  152.5317  144.1163  156.6306 H   0  0  0  0  0  0  0  0  0  0  0  0
  150.8844  144.7249  156.5903 H   0  0  0  0  0  0  0  0  0  0  0  0
  153.3519  143.2037  159.1480 H   0  0  0  0  0  0  0  0  0  0  0  0
  152.7541  144.3942  161.5764 H   0  0  0  0  0  0  0  0  0  0  0  0
  150.0091  145.7151  158.7290 H   0  0  0  0  0  0  0  0  0  0  0  0
  148.2158  142.4007  154.3474 H   0  0  0  0  0  0  0  0  0  0  0  0
  147.6596  140.7706  154.3926 H   0  0  0  0  0  0  0  0  0  0  0  0
  146.9470  142.6385  156.6970 H   0  0  0  0  0  0  0  0  0  0  0  0
  146.1058  142.7203  155.1771 H   0  0  0  0  0  0  0  0  0  0  0  0
  144.7990  141.2606  156.5029 H   0  0  0  0  0  0  0  0  0  0  0  0
  145.5647  140.2686  155.3013 H   0  0  0  0  0  0  0  0  0  0  0  0
  146.2833  140.5049  158.2557 H   0  0  0  0  0  0  0  0  0  0  0  0
  145.6080  139.1308  157.4366 H   0  0  0  0  0  0  0  0  0  0  0  0
  147.8950  138.6332  157.8246 H   0  0  0  0  0  0  0  0  0  0  0  0
  147.7750  138.8837  156.1069 H   0  0  0  0  0  0  0  0  0  0  0  0
  149.7048  139.9890  157.5803 H   0  0  0  0  0  0  0  0  0  0  0  0
  148.5153  141.1784  157.9800 H   0  0  0  0  0  0  0  0  0  0  0  0
  1  2  3  0  0  0  0
  2  3  1  0  0  0  0
  3 18  1  0  0  0  0
  3  4  1  0  0  0  0
  3 13  1  0  0  0  0
  4  5  1  0  0  0  0
  4 19  1  0  0  0  0
  5  6  2  0  0  0  0
  5  7  1  0  0  0  0
  7  8  1  0  0  0  0
  7 20  1  0  0  0  0
  7 21  1  0  0  0  0
  8 12  1  0  0  0  0
  8  9  1  0  0  0  0
  9 10  2  0  0  0  0
  9 22  1  0  0  0  0
 10 11  1  0  0  0  0
 10 23  1  0  0  0  0
 11 12  2  0  0  0  0
 12 24  1  0  0  0  0
 13 14  1  0  0  0  0
 13 25  1  0  0  0  0
 13 26  1  0  0  0  0
 14 15  1  0  0  0  0
 14 27  1  0  0  0  0
 14 28  1  0  0  0  0
 15 16  1  0  0  0  0
 15 29  1  0  0  0  0
 15 30  1  0  0  0  0
 16 17  1  0  0  0  0
 16 31  1  0  0  0  0
 16 32  1  0  0  0  0
 17 18  1  0  0  0  0
 17 33  1  0  0  0  0
 17 34  1  0  0  0  0
 18 35  1  0  0  0  0
 18 36  1  0  0  0  0
M  END
> <s_m_source_file>
AV-unprocessed.smi

> <i_m_source_file_index>
1818

> <i_lp_mmshare_version>
43012

> <i_f3d_flags>
0

> <s_epik_input>
W0NIMl0xW0NIMl1bQ0gyXVtDSDJdW0NIMl1bQ0gyXUMxKEMjTilbTkhdQyg9TylbQ0gyXW4yW2NIXVtjSF1uW2NIXTI=

> <s_epik_cmdline>
J2VwaWtfcHl0aG9uJywgJy1waCcsICc3LjAnLCAnLXRuJywgJzgnLCAnLW1hJywgJzIwMCcsICctbWV0YWxfYmluZGluZycsICctaW1hZScsICc8aW5maWxlLm1hZT4nLCAnLW9tYWUnLCAnPG91dGZpbGUubWFlPic=

> <r_lp_tautomer_probability>
1

> <r_epik_Ionization_Penalty>
0.21493

> <r_epik_Ionization_Penalty_Charging>
0.214927

> <r_epik_Ionization_Penalty_Neutral>
2.56273e-06

> <r_epik_State_Penalty>
0.205117

> <r_epik_Charging_Adjusted_Penalty>
0.420044

> <i_epik_Tot_Q>
0

> <i_epik_Tot_abs_Q>
0

> <r_epik_Metal_State_Penalty>
0.148888

> <b_epik_Metal_Only>
0

> <s_lp_Force_Field>
OPLS_2005

> <r_lp_Energy>
17.7076

> <b_lp_Chiralities_Consistent>
1

> <s_lp_Variant>
AV-unprocessed.smi:1818-1

> <Gold.Version>
5.8.1

> <Gold.Id.Protein>
6NUR|6NUR_protein|mol2

> <Gold.PLP.Fitness>
42.0466

> <Gold.PLP.PLP>
-33.4724

> <Gold.PLP.part.hbond>
-1.8823

> <Gold.PLP.part.metal>
0.0000

> <Gold.PLP.part.buried>
-3.6019

> <Gold.PLP.part.nonpolar>
-28.0755

> <Gold.PLP.part.repulsive>
0.5638

> <Gold.PLP.ligand.clash>
0.0000

> <Gold.PLP.ligand.torsion>
0.1586

> <Gold.PLP.Chemscore.Hbond>
1.9588

> <Gold.PLP.Chemscore.CHOScore>
1.0000

> <Gold.PLP.Chemscore.Metal>
0.0000

> <Gold.Chemscore.Hbonds>
donor molecule, donor type, donor heavy atom, donor atom, acceptor molecule, acceptor atom, score
      L1  H     4    19       P1  8028  0.99
      P1  H  7989  7998       L1     1  1.00
      L1  C    12    24       P1  8029  0.93

> <Gold.PLP.Chemscore.Internal.Correction>
0.0151

> <Gold.Rescore>
     Score         DG    S(hbond)    S(metal)    S(lipo)     H(rot)  DE(clash)    DE(int)     intcor
     12.68     -13.81       1.91        0.00      52.68       1.65       0.23       0.90       ----

> <Gold.Chemscore.Fitness>
12.6799

> <Gold.Chemscore.DG>
-13.8114

> <Gold.Chemscore.ZeroCoef>
-5.4800

> <Gold.Chemscore.Hbond>
1.9130

> <Gold.Chemscore.Metal>
0.0000

> <Gold.Chemscore.Lipo>
52.6753

> <Gold.Chemscore.Internal_Hbond>
0.0000

> <Gold.Chemscore.DEClash>
0.2302

> <Gold.Chemscore.DEInternal>
0.9012

> <Gold.Chemscore.Rot>
1.6488

> <Gold.Chemscore.Internal.Correction>
   9.000000E+99

> <Gold.Chemscore.Hbonds>
donor molecule, donor type, donor heavy atom, donor atom, acceptor molecule, acceptor atom, score
      L1  H     4    19       P1  8028  0.92
      P1  H  7989  7998       L1     1  0.40

> <Gold.Chemscore.Hbond.Weighted>
-6.3894

> <Gold.Chemscore.Metal.Weighted>
-0.0000

> <Gold.Chemscore.Lipo.Weighted>
-6.1630

> <Gold.Chemscore.Internal_Hbond.Weighted>
0.0000

> <Gold.Chemscore.DEClash.Weighted>
0.2302

> <Gold.Chemscore.DEInternal.Weighted>
0.9012

> <Gold.Chemscore.Rot.Weighted>
4.2210

> <Gold.Chemscore.Internal.Correction.Weighted>
   9.000000E+99

> <Gold.Protein.RotatedTorsions>
[ 6907 6896 6895 6894 ] final  126.30 input  -60.11 | X-H torsion
[ 7974 7965 7964 7962 ] final -134.11 input  175.53 | X-H torsion
[ 8008 7997 7996 7995 ] final   13.07 input   59.86 | X-H torsion
[ 10167 10162 10161 10158 ] final   14.31 input  -65.29 | X-H torsion
[ 10718 10713 10712 10709 ] final  -46.33 input   66.30 | X-H torsion
[ 10763 10752 10751 10750 ] final   44.02 input  -60.55 | X-H torsion
[ 11005 11000 10999 10996 ] final -112.75 input  -57.11 | X-H torsion

> <Gold.Protein.ActiveResidues>
 VAL166  LYS551  ARG553  GLY616  TRP617  ASP618  TYR619  PRO620  LYS621  CYS622 
 ASP623  PHE694  ASN695  SER759  ASP760  ASP761  ALA762  ILE779  LEU786  VAL792 
 PHE793  MET794  SER795  GLU796  ALA797  LYS798  CYS799  TRP800  GLU811  SER814 

> <Gold.Protein.RotatedAtoms>
  152.3916  133.6687  159.6241 H   0  0  0  0  0  0  0  0  0  0  0  0  # atno 6907 bound_to 6896
  150.7823  133.8945  159.3332 H   0  0  0  0  0  0  0  0  0  0  0  0  # atno 6908 bound_to 6896
  151.6730  135.0974  160.0253 H   0  0  0  0  0  0  0  0  0  0  0  0  # atno 6909 bound_to 6896
  144.9132  140.6921  143.5012 H   0  0  0  0  0  0  0  0  0  0  0  0  # atno 7974 bound_to 7965
  154.8293  140.2897  155.5733 H   0  0  0  0  0  0  0  0  0  0  0  0  # atno 8008 bound_to 7997
  156.3004  140.2535  156.3146 H   0  0  0  0  0  0  0  0  0  0  0  0  # atno 8009 bound_to 7997
  154.9249  140.0385  157.2007 H   0  0  0  0  0  0  0  0  0  0  0  0  # atno 8010 bound_to 7997
  140.5944  143.8730  150.6904 H   0  0  0  0  0  0  0  0  0  0  0  0  # atno 10167 bound_to 10162
  156.2193  130.4165  149.9013 H   0  0  0  0  0  0  0  0  0  0  0  0  # atno 10718 bound_to 10713
  152.9849  135.6083  154.3206 H   0  0  0  0  0  0  0  0  0  0  0  0  # atno 10763 bound_to 10752
  154.2916  135.2774  155.2654 H   0  0  0  0  0  0  0  0  0  0  0  0  # atno 10764 bound_to 10752
  154.4947  135.5883  153.6542 H   0  0  0  0  0  0  0  0  0  0  0  0  # atno 10765 bound_to 10752
  141.0656  133.9464  157.2585 H   0  0  0  0  0  0  0  0  0  0  0  0  # atno 11005 bound_to 11000
  145.3419  139.1730  143.4481 LP  0  0  0  0  0  0  0  0  0  0  0  0  # atno 17320 bound_to 7965
  146.3169  140.3461  142.8652 LP  0  0  0  0  0  0  0  0  0  0  0  0  # atno 17321 bound_to 7965
  140.2261  143.3771  152.1604 LP  0  0  0  0  0  0  0  0  0  0  0  0  # atno 17342 bound_to 10162
  139.5249  144.7089  151.5269 LP  0  0  0  0  0  0  0  0  0  0  0  0  # atno 17343 bound_to 10162
  156.6664  130.8803  151.3555 LP  0  0  0  0  0  0  0  0  0  0  0  0  # atno 17370 bound_to 10713
  157.7079  130.9406  150.0992 LP  0  0  0  0  0  0  0  0  0  0  0  0  # atno 17371 bound_to 10713
  139.9473  135.0182  156.8891 LP  0  0  0  0  0  0  0  0  0  0  0  0  # atno 17394 bound_to 11000
  140.5780  134.0380  155.7454 LP  0  0  0  0  0  0  0  0  0  0  0  0  # atno 17395 bound_to 11000

$$$$
