AV-unprocessed.smi:1312|AV-procd|sdf|5448|dock5
  -GOLD-   22720 5 13D 1   1.00000     0.00000
 Structure written by MMmdl.
 50 51  0  0  0  0  0  0  0  0  2 V2000
  145.8708  133.9323  151.3878 C   0  0  0  0  0  0  0  0  0  0  0  0
  147.3928  133.7702  151.5250 C   0  0  0  0  0  0  0  0  0  0  0  0
  147.8420  132.7867  152.6401 C   0  0  2  0  0  0  0  0  0  0  0  0
  149.2903  133.0613  153.1202 C   0  0  0  0  0  0  0  0  0  0  0  0
  149.4945  134.4629  153.4686 N   0  0  0  0  0  0  0  0  0  0  0  0
  150.1860  134.8909  154.5344 C   0  0  0  0  0  0  0  0  0  0  0  0
  150.7149  134.1252  155.3417 O   0  0  0  0  0  0  0  0  0  0  0  0
  150.2988  136.4119  154.6914 C   0  0  0  0  0  0  0  0  0  0  0  0
  151.0175  136.7884  155.9647 C   0  0  0  0  0  0  0  0  0  0  0  0
  150.7462  136.3179  157.2831 C   0  0  0  0  0  0  0  0  0  0  0  0
  149.6835  135.3512  157.7213 C   0  0  0  0  0  0  0  0  0  0  0  0
  151.5623  136.8397  158.1840 N   0  0  0  0  0  0  0  0  0  0  0  0
  152.3732  137.6560  157.4814 N   0  0  0  0  0  0  0  0  0  0  0  0
  153.4072  138.4003  158.1742 C   0  0  0  0  0  0  0  0  0  0  0  0
  152.0683  137.6500  156.1341 C   0  0  0  0  0  0  0  0  0  0  0  0
  152.8213  138.4779  155.1437 C   0  0  0  0  0  0  0  0  0  0  0  0
  147.6574  131.3670  152.2161 N   0  3  0  0  0  0  0  0  0  0  0  0
  148.1282  130.3394  153.1705 C   0  0  0  0  0  0  0  0  0  0  0  0
  147.4047  129.0610  152.7644 C   0  0  0  0  0  0  0  0  0  0  0  0
  146.0274  129.5660  152.3531 C   0  0  0  0  0  0  0  0  0  0  0  0
  146.2707  130.9910  151.8378 C   0  0  0  0  0  0  0  0  0  0  0  0
  145.6320  134.6606  150.6124 H   0  0  0  0  0  0  0  0  0  0  0  0
  145.4194  134.2828  152.3160 H   0  0  0  0  0  0  0  0  0  0  0  0
  145.3893  132.9947  151.1104 H   0  0  0  0  0  0  0  0  0  0  0  0
  147.7949  133.4463  150.5649 H   0  0  0  0  0  0  0  0  0  0  0  0
  147.8352  134.7529  151.6866 H   0  0  0  0  0  0  0  0  0  0  0  0
  147.1855  132.9468  153.4971 H   0  0  0  0  0  0  0  0  0  0  0  0
  149.5229  132.4771  154.0107 H   0  0  0  0  0  0  0  0  0  0  0  0
  150.0023  132.7558  152.3518 H   0  0  0  0  0  0  0  0  0  0  0  0
  149.0913  135.1556  152.8542 H   0  0  0  0  0  0  0  0  0  0  0  0
  150.8180  136.8040  153.8167 H   0  0  0  0  0  0  0  0  0  0  0  0
  149.2994  136.8481  154.6661 H   0  0  0  0  0  0  0  0  0  0  0  0
  149.7389  134.4248  157.1499 H   0  0  0  0  0  0  0  0  0  0  0  0
  148.6900  135.7743  157.5719 H   0  0  0  0  0  0  0  0  0  0  0  0
  149.7798  135.0933  158.7767 H   0  0  0  0  0  0  0  0  0  0  0  0
  154.3851  138.1184  157.7834 H   0  0  0  0  0  0  0  0  0  0  0  0
  153.3816  138.1924  159.2447 H   0  0  0  0  0  0  0  0  0  0  0  0
  153.2558  139.4687  158.0198 H   0  0  0  0  0  0  0  0  0  0  0  0
  152.3734  138.4140  154.1523 H   0  0  0  0  0  0  0  0  0  0  0  0
  153.8558  138.1431  155.0671 H   0  0  0  0  0  0  0  0  0  0  0  0
  152.8254  139.5274  155.4384 H   0  0  0  0  0  0  0  0  0  0  0  0
  149.2117  130.2201  153.1419 H   0  0  0  0  0  0  0  0  0  0  0  0
  147.8399  130.6178  154.1858 H   0  0  0  0  0  0  0  0  0  0  0  0
  147.9053  128.6065  151.9084 H   0  0  0  0  0  0  0  0  0  0  0  0
  147.3653  128.3219  153.5650 H   0  0  0  0  0  0  0  0  0  0  0  0
  145.5525  128.9250  151.6100 H   0  0  0  0  0  0  0  0  0  0  0  0
  145.3749  129.5994  153.2264 H   0  0  0  0  0  0  0  0  0  0  0  0
  145.5324  131.6665  152.2721 H   0  0  0  0  0  0  0  0  0  0  0  0
  146.1712  131.0423  150.7531 H   0  0  0  0  0  0  0  0  0  0  0  0
  148.2144  131.2368  151.3835 H   0  0  0  0  0  0  0  0  0  0  0  0
  1  2  1  0  0  0  0
  1 22  1  0  0  0  0
  1 23  1  0  0  0  0
  1 24  1  0  0  0  0
  2  3  1  0  0  0  0
  2 25  1  0  0  0  0
  2 26  1  0  0  0  0
  3  4  1  0  0  0  0
  3 17  1  0  0  0  0
  3 27  1  0  0  0  0
  4  5  1  0  0  0  0
  4 28  1  0  0  0  0
  4 29  1  0  0  0  0
  5  6  1  0  0  0  0
  5 30  1  0  0  0  0
  6  7  2  0  0  0  0
  6  8  1  0  0  0  0
  8  9  1  0  0  0  0
  8 31  1  0  0  0  0
  8 32  1  0  0  0  0
  9 15  2  0  0  0  0
  9 10  1  0  0  0  0
 10 11  1  0  0  0  0
 10 12  2  0  0  0  0
 11 33  1  0  0  0  0
 11 34  1  0  0  0  0
 11 35  1  0  0  0  0
 12 13  1  0  0  0  0
 13 14  1  0  0  0  0
 13 15  1  0  0  0  0
 14 36  1  0  0  0  0
 14 37  1  0  0  0  0
 14 38  1  0  0  0  0
 15 16  1  0  0  0  0
 16 39  1  0  0  0  0
 16 40  1  0  0  0  0
 16 41  1  0  0  0  0
 17 21  1  0  0  0  0
 17 18  1  0  0  0  0
 17 50  1  0  0  0  0
 18 19  1  0  0  0  0
 18 42  1  0  0  0  0
 18 43  1  0  0  0  0
 19 20  1  0  0  0  0
 19 44  1  0  0  0  0
 19 45  1  0  0  0  0
 20 21  1  0  0  0  0
 20 46  1  0  0  0  0
 20 47  1  0  0  0  0
 21 48  1  0  0  0  0
 21 49  1  0  0  0  0
M  CHG  1  17   1
M  END
> <s_m_source_file>
AV-unprocessed.smi

> <i_m_source_file_index>
1312

> <i_lp_mmshare_version>
43012

> <i_f3d_flags>
0

> <s_epik_input>
W0NIMl0xW0NIMl1bQ0gyXVtDSDJdTjFbQ0BIXShbQ0gyXVtDSDNdKVtDSDJdW05IXUMoPU8pW0NIMl1jMmMoW0NIM10pbm4oW0NIM10pYzJbQ0gzXQ==

> <s_epik_cmdline>
J2VwaWtfcHl0aG9uJywgJy1waCcsICc3LjAnLCAnLXRuJywgJzgnLCAnLW1hJywgJzIwMCcsICctbWV0YWxfYmluZGluZycsICctaW1hZScsICc8aW5maWxlLm1hZT4nLCAnLW9tYWUnLCAnPG91dGZpbGUubWFlPic=

> <r_lp_tautomer_probability>
1

> <r_epik_Ionization_Penalty>
0.00585463

> <r_epik_Ionization_Penalty_Charging>
0.00366302

> <r_epik_Ionization_Penalty_Neutral>
0.00219161

> <r_epik_State_Penalty>
-0

> <r_epik_Charging_Adjusted_Penalty>
0.00366302

> <i_epik_Tot_Q>
1

> <i_epik_Tot_abs_Q>
1

> <r_epik_Metal_State_Penalty>
-0

> <b_epik_Metal_Only>
0

> <s_lp_Force_Field>
OPLS_2005

> <r_lp_Energy>
29.647

> <b_lp_Chiralities_Consistent>
1

> <s_lp_Variant>
AV-unprocessed.smi:1312-1

> <Gold.Version>
5.8.1

> <Gold.Id.Protein>
6NUR|6NUR_protein|mol2

> <Gold.PLP.Fitness>
40.8817

> <Gold.PLP.PLP>
-32.6897

> <Gold.PLP.part.hbond>
-3.0000

> <Gold.PLP.part.metal>
0.0000

> <Gold.PLP.part.buried>
-4.8214

> <Gold.PLP.part.nonpolar>
-24.4279

> <Gold.PLP.part.repulsive>
0.0209

> <Gold.PLP.ligand.clash>
0.0000

> <Gold.PLP.ligand.torsion>
0.4714

> <Gold.PLP.Chemscore.Hbond>
3.0000

> <Gold.PLP.Chemscore.CHOScore>
0.0000

> <Gold.PLP.Chemscore.Metal>
0.0000

> <Gold.Chemscore.Hbonds>
donor molecule, donor type, donor heavy atom, donor atom, acceptor molecule, acceptor atom, score
      L1  H     5    30       P1  7948  0.48
      L1  H    17    50       P1 10747  0.65

> <Gold.PLP.Chemscore.Internal.Correction>
0.1349

> <Gold.Rescore>
     Score         DG    S(hbond)    S(metal)    S(lipo)     H(rot)  DE(clash)    DE(int)     intcor
     16.30     -19.42       2.52        0.00      84.91       1.72       0.05       3.08       ----

> <Gold.Chemscore.Fitness>
16.3008

> <Gold.Chemscore.DG>
-19.4237

> <Gold.Chemscore.ZeroCoef>
-5.4800

> <Gold.Chemscore.Hbond>
2.5197

> <Gold.Chemscore.Metal>
0.0000

> <Gold.Chemscore.Lipo>
84.9095

> <Gold.Chemscore.Internal_Hbond>
0.0000

> <Gold.Chemscore.DEClash>
0.0474

> <Gold.Chemscore.DEInternal>
3.0754

> <Gold.Chemscore.Rot>
1.7213

> <Gold.Chemscore.Internal.Correction>
   9.000000E+99

> <Gold.Chemscore.Hbonds>
donor molecule, donor type, donor heavy atom, donor atom, acceptor molecule, acceptor atom, score
      L1  H     5    30       P1  7948  0.04
      L1  H    17    50       P1 10747  0.65

> <Gold.Chemscore.Hbond.Weighted>
-8.4158

> <Gold.Chemscore.Metal.Weighted>
-0.0000

> <Gold.Chemscore.Lipo.Weighted>
-9.9344

> <Gold.Chemscore.Internal_Hbond.Weighted>
0.0000

> <Gold.Chemscore.DEClash.Weighted>
0.0474

> <Gold.Chemscore.DEInternal.Weighted>
3.0754

> <Gold.Chemscore.Rot.Weighted>
4.4065

> <Gold.Chemscore.Internal.Correction.Weighted>
   9.000000E+99

> <Gold.Protein.RotatedTorsions>
[ 6907 6896 6895 6894 ] final  -51.51 input  -60.11 | X-H torsion
[ 7974 7965 7964 7962 ] final   24.62 input  175.53 | X-H torsion
[ 8008 7997 7996 7995 ] final  178.65 input   59.86 | X-H torsion
[ 10167 10162 10161 10158 ] final  -86.72 input  -65.29 | X-H torsion
[ 10718 10713 10712 10709 ] final  -68.14 input   66.30 | X-H torsion
[ 10763 10752 10751 10750 ] final  -27.51 input  -60.55 | X-H torsion
[ 11005 11000 10999 10996 ] final  -97.12 input  -57.11 | X-H torsion

> <Gold.Protein.ActiveResidues>
 VAL166  LYS551  ARG553  GLY616  TRP617  ASP618  TYR619  PRO620  LYS621  CYS622 
 ASP623  PHE694  ASN695  SER759  ASP760  ASP761  ALA762  ILE779  LEU786  VAL792 
 PHE793  MET794  SER795  GLU796  ALA797  LYS798  CYS799  TRP800  GLU811  SER814 

> <Gold.Protein.RotatedAtoms>
  150.8604  134.7955  159.7078 H   0  0  0  0  0  0  0  0  0  0  0  0  # atno 6907 bound_to 6896
  152.4643  134.5109  159.9763 H   0  0  0  0  0  0  0  0  0  0  0  0  # atno 6908 bound_to 6896
  151.5214  133.3427  159.2937 H   0  0  0  0  0  0  0  0  0  0  0  0  # atno 6909 bound_to 6896
  146.1929  139.7580  142.8819 H   0  0  0  0  0  0  0  0  0  0  0  0  # atno 7974 bound_to 7965
  156.0523  140.1328  157.0036 H   0  0  0  0  0  0  0  0  0  0  0  0  # atno 8008 bound_to 7997
  154.4440  140.1008  156.6464 H   0  0  0  0  0  0  0  0  0  0  0  0  # atno 8009 bound_to 7997
  155.5505  140.3463  155.4469 H   0  0  0  0  0  0  0  0  0  0  0  0  # atno 8010 bound_to 7997
  140.3914  143.2703  151.9259 H   0  0  0  0  0  0  0  0  0  0  0  0  # atno 10167 bound_to 10162
  156.0521  130.4289  150.1957 H   0  0  0  0  0  0  0  0  0  0  0  0  # atno 10718 bound_to 10713
  153.7333  135.6937  153.4984 H   0  0  0  0  0  0  0  0  0  0  0  0  # atno 10763 bound_to 10752
  153.2120  135.4399  155.0390 H   0  0  0  0  0  0  0  0  0  0  0  0  # atno 10764 bound_to 10752
  154.8245  135.3439  154.6862 H   0  0  0  0  0  0  0  0  0  0  0  0  # atno 10765 bound_to 10752
  141.1389  133.8147  157.0663 H   0  0  0  0  0  0  0  0  0  0  0  0  # atno 11005 bound_to 11000
  145.3737  141.0347  143.3217 LP  0  0  0  0  0  0  0  0  0  0  0  0  # atno 17320 bound_to 7965
  144.8522  139.5305  143.6851 LP  0  0  0  0  0  0  0  0  0  0  0  0  # atno 17321 bound_to 7965
  139.4789  144.5723  151.8068 LP  0  0  0  0  0  0  0  0  0  0  0  0  # atno 17342 bound_to 10162
  140.4835  144.1414  150.5937 LP  0  0  0  0  0  0  0  0  0  0  0  0  # atno 17343 bound_to 10162
  157.0039  130.9930  151.3384 LP  0  0  0  0  0  0  0  0  0  0  0  0  # atno 17370 bound_to 10713
  157.5456  130.8149  149.8082 LP  0  0  0  0  0  0  0  0  0  0  0  0  # atno 17371 bound_to 10713
  140.0540  134.9790  157.1186 LP  0  0  0  0  0  0  0  0  0  0  0  0  # atno 17394 bound_to 11000
  140.3948  134.2146  155.7165 LP  0  0  0  0  0  0  0  0  0  0  0  0  # atno 17395 bound_to 11000

$$$$
