AV-unprocessed.smi:197|AV-procd|sdf|1549|dock4
  -GOLD-   2262019413D 1   1.00000     0.00000
 Structure written by MMmdl.
 54 57  0  0  0  0  0  0  0  0  1 V2000
  146.7806  128.0410  153.1820 C   0  0  0  0  0  0  0  0  0  0  0  0
  145.8088  128.7558  152.4333 O   0  0  0  0  0  0  0  0  0  0  0  0
  146.3518  129.7520  151.5777 C   0  0  0  0  0  0  0  0  0  0  0  0
  145.6733  131.1175  151.7920 C   0  0  0  0  0  0  0  0  0  0  0  0
  146.1277  132.1993  150.7808 C   0  0  1  0  0  0  0  0  0  0  0  0
  145.9026  131.7855  149.3097 C   0  0  0  0  0  0  0  0  0  0  0  0
  144.5107  131.7659  149.0101 O   0  0  0  0  0  0  0  0  0  0  0  0
  143.9212  133.0537  149.1498 C   0  0  0  0  0  0  0  0  0  0  0  0
  144.0637  133.5323  150.6030 C   0  0  0  0  0  0  0  0  0  0  0  0
  145.4669  133.4890  151.0149 N   0  0  0  0  0  0  0  0  0  0  0  0
  145.8134  134.1393  152.1589 C   0  0  0  0  0  0  0  0  0  0  0  0
  146.3389  133.4360  153.1984 N   0  0  0  0  0  0  0  0  0  0  0  0
  146.7389  134.0613  154.3086 C   0  0  0  0  0  0  0  0  0  0  0  0
  146.7108  135.3652  154.5865 N   0  0  0  0  0  0  0  0  0  0  0  0
  146.1713  136.0774  153.5569 C   0  0  0  0  0  0  0  0  0  0  0  0
  145.6907  135.5494  152.3248 C   0  0  0  0  0  0  0  0  0  0  0  0
  145.1933  136.5807  151.5360 N   0  0  0  0  0  0  0  0  0  0  0  0
  145.3947  137.6560  152.2465 C   0  0  0  0  0  0  0  0  0  0  0  0
  145.9968  137.4470  153.4660 N   0  0  0  0  0  0  0  0  0  0  0  0
  146.3695  138.4612  154.4384 C   0  0  0  0  0  0  0  0  0  0  0  0
  147.4927  139.4013  153.9368 C   0  0  1  0  0  0  0  0  0  0  0  0
  148.1131  138.7986  152.8121 O   0  0  0  0  0  0  0  0  0  0  0  0
  146.9649  140.7632  153.5126 C   0  0  0  0  0  0  0  0  0  0  0  0
  148.1940  141.6515  153.6492 C   0  0  0  0  0  0  0  0  0  0  0  0
  148.8501  141.1649  154.8107 O   0  0  0  0  0  0  0  0  0  0  0  0
  148.5458  139.7846  155.0077 C   0  0  2  0  0  0  0  0  0  0  0  0
  149.8422  138.9549  155.0423 C   0  0  0  0  0  0  0  0  0  0  0  0
  146.2854  127.2710  153.7734 H   0  0  0  0  0  0  0  0  0  0  0  0
  147.3242  128.6864  153.8714 H   0  0  0  0  0  0  0  0  0  0  0  0
  147.4991  127.5466  152.5275 H   0  0  0  0  0  0  0  0  0  0  0  0
  147.4333  129.8233  151.7063 H   0  0  0  0  0  0  0  0  0  0  0  0
  146.1834  129.4167  150.5550 H   0  0  0  0  0  0  0  0  0  0  0  0
  144.5901  130.9970  151.7592 H   0  0  0  0  0  0  0  0  0  0  0  0
  145.9039  131.4595  152.7998 H   0  0  0  0  0  0  0  0  0  0  0  0
  147.2014  132.3252  150.9033 H   0  0  0  0  0  0  0  0  0  0  0  0
  146.4100  132.4811  148.6389 H   0  0  0  0  0  0  0  0  0  0  0  0
  146.3261  130.8035  149.1040 H   0  0  0  0  0  0  0  0  0  0  0  0
  144.3920  133.7577  148.4616 H   0  0  0  0  0  0  0  0  0  0  0  0
  142.8684  132.9955  148.8742 H   0  0  0  0  0  0  0  0  0  0  0  0
  143.6768  134.5488  150.6871 H   0  0  0  0  0  0  0  0  0  0  0  0
  143.4667  132.9030  151.2639 H   0  0  0  0  0  0  0  0  0  0  0  0
  147.1490  133.4273  155.0807 H   0  0  0  0  0  0  0  0  0  0  0  0
  145.1232  138.6396  151.8917 H   0  0  0  0  0  0  0  0  0  0  0  0
  145.4786  139.0354  154.6963 H   0  0  0  0  0  0  0  0  0  0  0  0
  146.6816  137.9566  155.3536 H   0  0  0  0  0  0  0  0  0  0  0  0
  147.9755  137.8648  152.8612 H   0  0  0  0  0  0  0  0  0  0  0  0
  146.5346  140.7760  152.5104 H   0  0  0  0  0  0  0  0  0  0  0  0
  146.1979  141.1061  154.2083 H   0  0  0  0  0  0  0  0  0  0  0  0
  148.8546  141.5317  152.7895 H   0  0  0  0  0  0  0  0  0  0  0  0
  147.9434  142.7082  153.7424 H   0  0  0  0  0  0  0  0  0  0  0  0
  148.0806  139.7339  155.9922 H   0  0  0  0  0  0  0  0  0  0  0  0
  149.6356  137.8945  155.1854 H   0  0  0  0  0  0  0  0  0  0  0  0
  150.4823  139.2765  155.8636 H   0  0  0  0  0  0  0  0  0  0  0  0
  150.4152  139.0646  154.1215 H   0  0  0  0  0  0  0  0  0  0  0  0
  1  2  1  0  0  0  0
  1 28  1  0  0  0  0
  1 29  1  0  0  0  0
  1 30  1  0  0  0  0
  2  3  1  0  0  0  0
  3  4  1  0  0  0  0
  3 31  1  0  0  0  0
  3 32  1  0  0  0  0
  4  5  1  0  0  0  0
  4 33  1  0  0  0  0
  4 34  1  0  0  0  0
  5 10  1  0  0  0  0
  5  6  1  0  0  0  0
  5 35  1  0  0  0  0
  6  7  1  0  0  0  0
  6 36  1  0  0  0  0
  6 37  1  0  0  0  0
  7  8  1  0  0  0  0
  8  9  1  0  0  0  0
  8 38  1  0  0  0  0
  8 39  1  0  0  0  0
  9 10  1  0  0  0  0
  9 40  1  0  0  0  0
  9 41  1  0  0  0  0
 10 11  1  0  0  0  0
 11 16  1  0  0  0  0
 11 12  2  0  0  0  0
 12 13  1  0  0  0  0
 13 14  2  0  0  0  0
 13 42  1  0  0  0  0
 14 15  1  0  0  0  0
 15 19  1  0  0  0  0
 15 16  2  0  0  0  0
 16 17  1  0  0  0  0
 17 18  2  0  0  0  0
 18 19  1  0  0  0  0
 18 43  1  0  0  0  0
 19 20  1  0  0  0  0
 20 21  1  0  0  0  0
 20 44  1  0  0  0  0
 20 45  1  0  0  0  0
 21 26  1  0  0  0  0
 21 22  1  0  0  0  0
 21 23  1  0  0  0  0
 22 46  1  0  0  0  0
 23 24  1  0  0  0  0
 23 47  1  0  0  0  0
 23 48  1  0  0  0  0
 24 25  1  0  0  0  0
 24 49  1  0  0  0  0
 24 50  1  0  0  0  0
 25 26  1  0  0  0  0
 26 27  1  0  0  0  0
 26 51  1  0  0  0  0
 27 52  1  0  0  0  0
 27 53  1  0  0  0  0
 27 54  1  0  0  0  0
M  END
> <s_m_source_file>
AV-unprocessed.smi

> <i_m_source_file_index>
197

> <i_lp_mmshare_version>
43012

> <i_f3d_flags>
0

> <s_epik_input>
W0NIM11PW0NIMl1bQ0gyXVtDQEBIXTFbQ0gyXU9bQ0gyXVtDSDJdTjFjKG5bY0hdbjIpYyhjMjMpbltjSF1uM1tDSDJdW0NAQF00KFtPSF0pW0NIMl1bQ0gyXU9bQ0BIXTRbQ0gzXQ==

> <s_epik_cmdline>
J2VwaWtfcHl0aG9uJywgJy1waCcsICc3LjAnLCAnLXRuJywgJzgnLCAnLW1hJywgJzIwMCcsICctbWV0YWxfYmluZGluZycsICctaW1hZScsICc8aW5maWxlLm1hZT4nLCAnLW9tYWUnLCAnPG91dGZpbGUubWFlPic=

> <r_lp_tautomer_probability>
1

> <r_epik_Ionization_Penalty>
0.000106218

> <r_epik_Ionization_Penalty_Charging>
0

> <r_epik_Ionization_Penalty_Neutral>
0.000106218

> <r_epik_State_Penalty>
-0

> <r_epik_Charging_Adjusted_Penalty>
0

> <i_epik_Tot_Q>
0

> <i_epik_Tot_abs_Q>
0

> <r_epik_Metal_State_Penalty>
-0

> <b_epik_Metal_Only>
0

> <s_lp_Force_Field>
OPLS_2005

> <r_lp_Energy>
41.5492

> <b_lp_Chiralities_Consistent>
1

> <s_lp_Variant>
AV-unprocessed.smi:197-6

> <Gold.Version>
5.8.1

> <Gold.Id.Protein>
6NUR|6NUR_protein|mol2

> <Gold.PLP.Fitness>
40.1824

> <Gold.PLP.PLP>
-35.6200

> <Gold.PLP.part.hbond>
-3.0000

> <Gold.PLP.part.metal>
0.0000

> <Gold.PLP.part.buried>
-2.1661

> <Gold.PLP.part.nonpolar>
-31.8085

> <Gold.PLP.part.repulsive>
1.5924

> <Gold.PLP.ligand.clash>
0.0000

> <Gold.PLP.ligand.torsion>
1.6424

> <Gold.PLP.Chemscore.Hbond>
0.8445

> <Gold.PLP.Chemscore.CHOScore>
1.5785

> <Gold.PLP.Chemscore.Metal>
0.0000

> <Gold.Chemscore.Hbonds>
donor molecule, donor type, donor heavy atom, donor atom, acceptor molecule, acceptor atom, score
      L1  H    22    46       P1  7948  0.44
      P1  H 10785 10796       L1     7  0.33
      L1  C    18    43       P1 10171  0.68
      L1  C    18    43       P1 10175  1.00

> <Gold.PLP.Chemscore.Internal.Correction>
0.5784

> <Gold.Rescore>
     Score         DG    S(hbond)    S(metal)    S(lipo)     H(rot)  DE(clash)    DE(int)     intcor
      8.22     -13.65       1.00        0.00     103.41       2.84       1.95       3.48       ----

> <Gold.Chemscore.Fitness>
8.2178

> <Gold.Chemscore.DG>
-13.6517

> <Gold.Chemscore.ZeroCoef>
-5.4800

> <Gold.Chemscore.Hbond>
0.9976

> <Gold.Chemscore.Metal>
0.0000

> <Gold.Chemscore.Lipo>
103.4121

> <Gold.Chemscore.Internal_Hbond>
0.0000

> <Gold.Chemscore.DEClash>
1.9522

> <Gold.Chemscore.DEInternal>
3.4817

> <Gold.Chemscore.Rot>
2.8358

> <Gold.Chemscore.Internal.Correction>
   9.000000E+99

> <Gold.Chemscore.Hbonds>
donor molecule, donor type, donor heavy atom, donor atom, acceptor molecule, acceptor atom, score
      L1  H    22    46       P1  7948  0.44
      P1  H 10785 10796       L1     7  0.31

> <Gold.Chemscore.Hbond.Weighted>
-3.3321

> <Gold.Chemscore.Metal.Weighted>
-0.0000

> <Gold.Chemscore.Lipo.Weighted>
-12.0992

> <Gold.Chemscore.Internal_Hbond.Weighted>
0.0000

> <Gold.Chemscore.DEClash.Weighted>
1.9522

> <Gold.Chemscore.DEInternal.Weighted>
3.4817

> <Gold.Chemscore.Rot.Weighted>
7.2596

> <Gold.Chemscore.Internal.Correction.Weighted>
   9.000000E+99

> <Gold.Protein.RotatedTorsions>
[ 6907 6896 6895 6894 ] final  -96.79 input  -60.11 | X-H torsion
[ 7974 7965 7964 7962 ] final  108.70 input  175.53 | X-H torsion
[ 8008 7997 7996 7995 ] final   79.57 input   59.86 | X-H torsion
[ 10167 10162 10161 10158 ] final -168.29 input  -65.29 | X-H torsion
[ 10718 10713 10712 10709 ] final -146.99 input   66.30 | X-H torsion
[ 10763 10752 10751 10750 ] final -165.55 input  -60.55 | X-H torsion
[ 11005 11000 10999 10996 ] final  -35.09 input  -57.11 | X-H torsion

> <Gold.Protein.ActiveResidues>
 VAL166  LYS551  ARG553  GLY616  TRP617  ASP618  TYR619  PRO620  LYS621  CYS622 
 ASP623  PHE694  ASN695  SER759  ASP760  ASP761  ALA762  ILE779  LEU786  VAL792 
 PHE793  MET794  SER795  GLU796  ALA797  LYS798  CYS799  TRP800  GLU811  SER814 

> <Gold.Protein.RotatedAtoms>
  150.6998  134.1449  159.4118 H   0  0  0  0  0  0  0  0  0  0  0  0  # atno 6907 bound_to 6896
  151.9432  135.0201  160.0546 H   0  0  0  0  0  0  0  0  0  0  0  0  # atno 6908 bound_to 6896
  152.2075  133.4851  159.5129 H   0  0  0  0  0  0  0  0  0  0  0  0  # atno 6909 bound_to 6896
  145.2773  139.2645  143.3934 H   0  0  0  0  0  0  0  0  0  0  0  0  # atno 7974 bound_to 7965
  155.8716  140.3449  155.5825 H   0  0  0  0  0  0  0  0  0  0  0  0  # atno 8008 bound_to 7997
  155.7821  140.0860  157.2073 H   0  0  0  0  0  0  0  0  0  0  0  0  # atno 8009 bound_to 7997
  154.4018  140.1499  156.3052 H   0  0  0  0  0  0  0  0  0  0  0  0  # atno 8010 bound_to 7997
  139.5995  144.1042  152.1726 H   0  0  0  0  0  0  0  0  0  0  0  0  # atno 10167 bound_to 10162
  156.4019  130.7938  151.2149 H   0  0  0  0  0  0  0  0  0  0  0  0  # atno 10718 bound_to 10713
  154.6921  135.2972  154.9464 H   0  0  0  0  0  0  0  0  0  0  0  0  # atno 10763 bound_to 10752
  154.0424  135.6655  153.4795 H   0  0  0  0  0  0  0  0  0  0  0  0  # atno 10764 bound_to 10752
  153.0619  135.5110  154.8019 H   0  0  0  0  0  0  0  0  0  0  0  0  # atno 10765 bound_to 10752
  140.9768  133.7078  156.1617 H   0  0  0  0  0  0  0  0  0  0  0  0  # atno 11005 bound_to 11000
  146.3227  140.3231  142.8635 LP  0  0  0  0  0  0  0  0  0  0  0  0  # atno 17320 bound_to 7965
  144.9283  140.7946  143.5705 LP  0  0  0  0  0  0  0  0  0  0  0  0  # atno 17321 bound_to 7965
  140.0634  144.5838  150.7245 LP  0  0  0  0  0  0  0  0  0  0  0  0  # atno 17342 bound_to 10162
  140.7238  143.2615  151.4189 LP  0  0  0  0  0  0  0  0  0  0  0  0  # atno 17343 bound_to 10162
  157.7504  131.0284  150.4047 LP  0  0  0  0  0  0  0  0  0  0  0  0  # atno 17370 bound_to 10713
  156.4328  130.3975  149.6748 LP  0  0  0  0  0  0  0  0  0  0  0  0  # atno 17371 bound_to 10713
  140.7246  134.4321  157.5572 LP  0  0  0  0  0  0  0  0  0  0  0  0  # atno 17394 bound_to 11000
  139.8934  134.8732  156.2226 LP  0  0  0  0  0  0  0  0  0  0  0  0  # atno 17395 bound_to 11000

$$$$
