AV-unprocessed.smi:212|AV-procd|sdf|1624|dock1
  -GOLD-   2262019563D 1   1.00000     0.00000
 Structure written by MMmdl.
 65 68  0  0  0  0  0  0  0  0  2 V2000
  141.7120  138.1452  153.0702 C   0  0  0  0  0  0  0  0  0  0  0  0
  142.4183  136.7909  153.2734 C   0  0  1  0  0  0  0  0  0  0  0  0
  143.2712  136.3544  152.0617 C   0  0  0  0  0  0  0  0  0  0  0  0
  143.8812  135.0186  152.2908 N   0  3  1  0  0  0  0  0  0  0  0  0
  144.6560  134.5197  151.1243 C   0  0  0  0  0  0  0  0  0  0  0  0
  144.4433  133.0081  150.8820 C   0  0  0  0  0  0  0  0  0  0  0  0
  145.1780  132.5666  149.6051 C   0  0  0  0  0  0  0  0  0  0  0  0
  144.8919  132.1475  152.0774 C   0  0  0  0  0  0  0  0  0  0  0  0
  143.0655  132.7787  150.6596 O   0  0  0  0  0  0  0  0  0  0  0  0
  144.6309  134.9427  153.5715 C   0  0  0  0  0  0  0  0  0  0  0  0
  143.7462  135.3682  154.7585 C   0  0  0  0  0  0  0  0  0  0  0  0
  143.1723  136.6909  154.5302 N   0  0  0  0  0  0  0  0  0  0  0  0
  143.9904  137.6945  154.9392 C   0  0  0  0  0  0  0  0  0  0  0  0
  143.6913  138.4291  156.0427 N   0  0  0  0  0  0  0  0  0  0  0  0
  144.4896  139.4323  156.4207 C   0  0  0  0  0  0  0  0  0  0  0  0
  145.6117  139.8681  155.8450 N   0  0  0  0  0  0  0  0  0  0  0  0
  145.9100  139.1399  154.7315 C   0  0  0  0  0  0  0  0  0  0  0  0
  145.1586  138.0494  154.2118 C   0  0  0  0  0  0  0  0  0  0  0  0
  145.7658  137.5568  153.0634 N   0  0  0  0  0  0  0  0  0  0  0  0
  146.8195  138.3131  152.9131 C   0  0  0  0  0  0  0  0  0  0  0  0
  146.9854  139.2852  153.8739 N   0  0  0  0  0  0  0  0  0  0  0  0
  148.0620  140.2570  153.9529 C   0  0  0  0  0  0  0  0  0  0  0  0
  149.0429  139.9935  155.1229 C   0  0  1  0  0  0  0  0  0  0  0  0
  150.2734  139.1558  154.6974 C   0  0  0  0  0  0  0  0  0  0  0  0
  149.9169  138.1436  153.7781 O   0  0  0  0  0  0  0  0  0  0  0  0
  149.4435  141.3103  155.8345 C   0  0  2  0  0  0  0  0  0  0  0  0
  150.8097  141.2918  156.4979 C   0  0  0  0  0  0  0  0  0  0  0  0
  150.7157  142.4688  157.4624 C   0  0  0  0  0  0  0  0  0  0  0  0
  149.3498  142.5353  157.8571 O   0  0  0  0  0  0  0  0  0  0  0  0
  148.5626  141.6831  157.0314 C   0  0  0  0  0  0  0  0  0  0  0  0
  141.0386  138.1023  152.2139 H   0  0  0  0  0  0  0  0  0  0  0  0
  142.4119  138.9592  152.8851 H   0  0  0  0  0  0  0  0  0  0  0  0
  141.1133  138.4094  153.9423 H   0  0  0  0  0  0  0  0  0  0  0  0
  141.6173  136.0564  153.3698 H   0  0  0  0  0  0  0  0  0  0  0  0
  142.6428  136.3101  151.1712 H   0  0  0  0  0  0  0  0  0  0  0  0
  144.0559  137.0819  151.8529 H   0  0  0  0  0  0  0  0  0  0  0  0
  144.3808  135.0755  150.2258 H   0  0  0  0  0  0  0  0  0  0  0  0
  145.7192  134.7187  151.2684 H   0  0  0  0  0  0  0  0  0  0  0  0
  146.2544  132.7144  149.7000 H   0  0  0  0  0  0  0  0  0  0  0  0
  144.8446  133.1339  148.7351 H   0  0  0  0  0  0  0  0  0  0  0  0
  145.0101  131.5101  149.3922 H   0  0  0  0  0  0  0  0  0  0  0  0
  145.9481  132.3037  152.2995 H   0  0  0  0  0  0  0  0  0  0  0  0
  144.7540  131.0848  151.8741 H   0  0  0  0  0  0  0  0  0  0  0  0
  144.3264  132.3785  152.9806 H   0  0  0  0  0  0  0  0  0  0  0  0
  142.7156  133.5032  150.1628 H   0  0  0  0  0  0  0  0  0  0  0  0
  144.9872  133.9244  153.7297 H   0  0  0  0  0  0  0  0  0  0  0  0
  145.5131  135.5822  153.5133 H   0  0  0  0  0  0  0  0  0  0  0  0
  142.9309  134.6554  154.8875 H   0  0  0  0  0  0  0  0  0  0  0  0
  144.3228  135.3421  155.6841 H   0  0  0  0  0  0  0  0  0  0  0  0
  144.1849  139.9627  157.3108 H   0  0  0  0  0  0  0  0  0  0  0  0
  147.5132  138.1775  152.0959 H   0  0  0  0  0  0  0  0  0  0  0  0
  148.5990  140.2534  153.0036 H   0  0  0  0  0  0  0  0  0  0  0  0
  147.6091  141.2442  154.0463 H   0  0  0  0  0  0  0  0  0  0  0  0
  148.5045  139.3885  155.8535 H   0  0  0  0  0  0  0  0  0  0  0  0
  151.0356  139.7884  154.2430 H   0  0  0  0  0  0  0  0  0  0  0  0
  150.7497  138.6928  155.5614 H   0  0  0  0  0  0  0  0  0  0  0  0
  149.6263  138.5539  152.9778 H   0  0  0  0  0  0  0  0  0  0  0  0
  149.4188  142.1345  155.1195 H   0  0  0  0  0  0  0  0  0  0  0  0
  150.9513  140.3637  157.0541 H   0  0  0  0  0  0  0  0  0  0  0  0
  151.6343  141.3984  155.7926 H   0  0  0  0  0  0  0  0  0  0  0  0
  151.3761  142.3570  158.3226 H   0  0  0  0  0  0  0  0  0  0  0  0
  150.9752  143.3983  156.9540 H   0  0  0  0  0  0  0  0  0  0  0  0
  147.6372  142.1756  156.7320 H   0  0  0  0  0  0  0  0  0  0  0  0
  148.3001  140.7963  157.6097 H   0  0  0  0  0  0  0  0  0  0  0  0
  143.1033  134.3815  152.3891 H   0  0  0  0  0  0  0  0  0  0  0  0
  1  2  1  0  0  0  0
  1 31  1  0  0  0  0
  1 32  1  0  0  0  0
  1 33  1  0  0  0  0
  2 12  1  0  0  0  0
  2  3  1  0  0  0  0
  2 34  1  0  0  0  0
  3  4  1  0  0  0  0
  3 35  1  0  0  0  0
  3 36  1  0  0  0  0
  4  5  1  0  0  0  0
  4 10  1  0  0  0  0
  4 65  1  0  0  0  0
  5  6  1  0  0  0  0
  5 37  1  0  0  0  0
  5 38  1  0  0  0  0
  6  7  1  0  0  0  0
  6  8  1  0  0  0  0
  6  9  1  0  0  0  0
  7 39  1  0  0  0  0
  7 40  1  0  0  0  0
  7 41  1  0  0  0  0
  8 42  1  0  0  0  0
  8 43  1  0  0  0  0
  8 44  1  0  0  0  0
  9 45  1  0  0  0  0
 10 11  1  0  0  0  0
 10 46  1  0  0  0  0
 10 47  1  0  0  0  0
 11 12  1  0  0  0  0
 11 48  1  0  0  0  0
 11 49  1  0  0  0  0
 12 13  1  0  0  0  0
 13 18  1  0  0  0  0
 13 14  2  0  0  0  0
 14 15  1  0  0  0  0
 15 16  2  0  0  0  0
 15 50  1  0  0  0  0
 16 17  1  0  0  0  0
 17 21  1  0  0  0  0
 17 18  2  0  0  0  0
 18 19  1  0  0  0  0
 19 20  2  0  0  0  0
 20 21  1  0  0  0  0
 20 51  1  0  0  0  0
 21 22  1  0  0  0  0
 22 23  1  0  0  0  0
 22 52  1  0  0  0  0
 22 53  1  0  0  0  0
 23 24  1  0  0  0  0
 23 26  1  0  0  0  0
 23 54  1  0  0  0  0
 24 25  1  0  0  0  0
 24 55  1  0  0  0  0
 24 56  1  0  0  0  0
 25 57  1  0  0  0  0
 26 30  1  0  0  0  0
 26 27  1  0  0  0  0
 26 58  1  0  0  0  0
 27 28  1  0  0  0  0
 27 59  1  0  0  0  0
 27 60  1  0  0  0  0
 28 29  1  0  0  0  0
 28 61  1  0  0  0  0
 28 62  1  0  0  0  0
 29 30  1  0  0  0  0
 30 63  1  0  0  0  0
 30 64  1  0  0  0  0
M  CHG  1   4   1
M  END
> <s_m_source_file>
AV-unprocessed.smi

> <i_m_source_file_index>
212

> <i_lp_mmshare_version>
43012

> <i_f3d_flags>
0

> <s_epik_input>
W0NIM11bQ0BASF0xW0NIMl1OKFtDSDJdQyhbQ0gzXSkoW0NIM10pW09IXSlbQ0gyXVtDSDJdTjFjKG5bY0hdbjIpYyhjMjMpbltjSF1uM1tDSDJdW0NASF0oW0NIMl1bT0hdKVtDQEBIXTRbQ0gyXVtDSDJdT1tDSDJdNA==

> <s_epik_cmdline>
J2VwaWtfcHl0aG9uJywgJy1waCcsICc3LjAnLCAnLXRuJywgJzgnLCAnLW1hJywgJzIwMCcsICctbWV0YWxfYmluZGluZycsICctaW1hZScsICc8aW5maWxlLm1hZT4nLCAnLW9tYWUnLCAnPG91dGZpbGUubWFlPic=

> <r_lp_tautomer_probability>
1

> <r_epik_Ionization_Penalty>
0.00182193

> <r_epik_Ionization_Penalty_Charging>
0.00173996

> <r_epik_Ionization_Penalty_Neutral>
8.19718e-05

> <r_epik_State_Penalty>
-0

> <r_epik_Charging_Adjusted_Penalty>
0.00173996

> <i_epik_Tot_Q>
1

> <i_epik_Tot_abs_Q>
1

> <r_epik_Metal_State_Penalty>
-0

> <b_epik_Metal_Only>
0

> <s_lp_Force_Field>
OPLS_2005

> <r_lp_Energy>
58.8905

> <b_lp_Chiralities_Consistent>
1

> <s_lp_Variant>
AV-unprocessed.smi:212-8

> <Gold.Version>
5.8.1

> <Gold.Id.Protein>
6NUR|6NUR_protein|mol2

> <Gold.PLP.Fitness>
44.7647

> <Gold.PLP.PLP>
-39.2239

> <Gold.PLP.part.hbond>
-3.2713

> <Gold.PLP.part.metal>
0.0000

> <Gold.PLP.part.buried>
-3.5159

> <Gold.PLP.part.nonpolar>
-31.5590

> <Gold.PLP.part.repulsive>
0.8526

> <Gold.PLP.ligand.clash>
0.0000

> <Gold.PLP.ligand.torsion>
2.3352

> <Gold.PLP.Chemscore.Hbond>
1.9920

> <Gold.PLP.Chemscore.CHOScore>
0.9755

> <Gold.PLP.Chemscore.Metal>
0.0000

> <Gold.Chemscore.Hbonds>
donor molecule, donor type, donor heavy atom, donor atom, acceptor molecule, acceptor atom, score
      L1  H     9    45       P1 10186  0.89
      L1  H    25    57       P1  7957  0.24
      L1  C    20    51       P1  7948  0.90
      L1  C    20    51       P1  7957  0.03

> <Gold.PLP.Chemscore.Internal.Correction>
1.3087

> <Gold.Rescore>
     Score         DG    S(hbond)    S(metal)    S(lipo)     H(rot)  DE(clash)    DE(int)     intcor
      7.81     -12.73       1.75        0.00      92.55       3.68       0.40       4.52       ----

> <Gold.Chemscore.Fitness>
7.8114

> <Gold.Chemscore.DG>
-12.7275

> <Gold.Chemscore.ZeroCoef>
-5.4800

> <Gold.Chemscore.Hbond>
1.7493

> <Gold.Chemscore.Metal>
0.0000

> <Gold.Chemscore.Lipo>
92.5543

> <Gold.Chemscore.Internal_Hbond>
0.0000

> <Gold.Chemscore.DEClash>
0.4004

> <Gold.Chemscore.DEInternal>
4.5156

> <Gold.Chemscore.Rot>
3.6812

> <Gold.Chemscore.Internal.Correction>
   9.000000E+99

> <Gold.Chemscore.Hbonds>
donor molecule, donor type, donor heavy atom, donor atom, acceptor molecule, acceptor atom, score
      L1  H     9    45       P1 10186  0.80
      L1  H    25    57       P1  7957  0.19

> <Gold.Chemscore.Hbond.Weighted>
-5.8425

> <Gold.Chemscore.Metal.Weighted>
-0.0000

> <Gold.Chemscore.Lipo.Weighted>
-10.8289

> <Gold.Chemscore.Internal_Hbond.Weighted>
0.0000

> <Gold.Chemscore.DEClash.Weighted>
0.4004

> <Gold.Chemscore.DEInternal.Weighted>
4.5156

> <Gold.Chemscore.Rot.Weighted>
9.4239

> <Gold.Chemscore.Internal.Correction.Weighted>
   9.000000E+99

> <Gold.Protein.RotatedTorsions>
[ 6907 6896 6895 6894 ] final  -92.51 input  -60.11 | X-H torsion
[ 7974 7965 7964 7962 ] final    0.67 input  175.53 | X-H torsion
[ 8008 7997 7996 7995 ] final   83.97 input   59.86 | X-H torsion
[ 10167 10162 10161 10158 ] final  -91.96 input  -65.29 | X-H torsion
[ 10718 10713 10712 10709 ] final -109.28 input   66.30 | X-H torsion
[ 10763 10752 10751 10750 ] final -135.52 input  -60.55 | X-H torsion
[ 11005 11000 10999 10996 ] final   87.55 input  -57.11 | X-H torsion

> <Gold.Protein.ActiveResidues>
 VAL166  LYS551  ARG553  GLY616  TRP617  ASP618  TYR619  PRO620  LYS621  CYS622 
 ASP623  PHE694  ASN695  SER759  ASP760  ASP761  ALA762  ILE779  LEU786  VAL792 
 PHE793  MET794  SER795  GLU796  ALA797  LYS798  CYS799  TRP800  GLU811  SER814 

> <Gold.Protein.RotatedAtoms>
  150.6907  134.2110  159.4359 H   0  0  0  0  0  0  0  0  0  0  0  0  # atno 6907 bound_to 6896
  152.0072  134.9894  160.0576 H   0  0  0  0  0  0  0  0  0  0  0  0  # atno 6908 bound_to 6896
  152.1523  133.4495  159.4856 H   0  0  0  0  0  0  0  0  0  0  0  0  # atno 6909 bound_to 6896
  146.2436  140.1103  142.8344 H   0  0  0  0  0  0  0  0  0  0  0  0  # atno 7974 bound_to 7965
  155.9309  140.3415  155.6248 H   0  0  0  0  0  0  0  0  0  0  0  0  # atno 8008 bound_to 7997
  155.7158  140.0777  157.2370 H   0  0  0  0  0  0  0  0  0  0  0  0  # atno 8009 bound_to 7997
  154.4085  140.1614  156.2334 H   0  0  0  0  0  0  0  0  0  0  0  0  # atno 8010 bound_to 7997
  140.3396  143.2949  151.9850 H   0  0  0  0  0  0  0  0  0  0  0  0  # atno 10167 bound_to 10162
  156.0529  130.5756  150.8078 H   0  0  0  0  0  0  0  0  0  0  0  0  # atno 10718 bound_to 10713
  154.8701  135.3701  154.4911 H   0  0  0  0  0  0  0  0  0  0  0  0  # atno 10763 bound_to 10752
  153.5558  135.7024  153.5575 H   0  0  0  0  0  0  0  0  0  0  0  0  # atno 10764 bound_to 10752
  153.3673  135.4030  155.1727 H   0  0  0  0  0  0  0  0  0  0  0  0  # atno 10765 bound_to 10752
  139.8917  134.8429  156.2875 H   0  0  0  0  0  0  0  0  0  0  0  0  # atno 11005 bound_to 11000
  145.0493  140.9005  143.5005 LP  0  0  0  0  0  0  0  0  0  0  0  0  # atno 17320 bound_to 7965
  145.1197  139.2701  143.5594 LP  0  0  0  0  0  0  0  0  0  0  0  0  # atno 17321 bound_to 7965
  139.4842  144.6168  151.7331 LP  0  0  0  0  0  0  0  0  0  0  0  0  # atno 17342 bound_to 10162
  140.5321  144.0713  150.6057 LP  0  0  0  0  0  0  0  0  0  0  0  0  # atno 17343 bound_to 10162
  157.5472  131.0943  150.9746 LP  0  0  0  0  0  0  0  0  0  0  0  0  # atno 17370 bound_to 10713
  157.0014  130.5601  149.5312 LP  0  0  0  0  0  0  0  0  0  0  0  0  # atno 17371 bound_to 10713
  140.9998  133.7158  156.0942 LP  0  0  0  0  0  0  0  0  0  0  0  0  # atno 17394 bound_to 11000
  140.7513  134.4041  157.5541 LP  0  0  0  0  0  0  0  0  0  0  0  0  # atno 17395 bound_to 11000

$$$$
