AV-unprocessed.smi:3316|AV-procd|sdf|12753|dock2
  -GOLD-   2272019 93D 1   1.00000     0.00000
 Structure written by MMmdl.
 41 43  0  0  0  0  0  0  0  0  2 V2000
  152.3870  144.9308  157.9355 C   0  0  0  0  0  0  0  0  0  0  0  0
  152.3042  143.4563  158.3608 C   0  0  2  0  0  0  0  0  0  0  0  0
  150.9586  142.8272  157.9513 C   0  0  0  0  0  0  0  0  0  0  0  0
  150.8095  142.7638  156.4830 N   0  3  0  0  0  0  0  0  0  0  0  0
  150.0407  141.5974  156.0082 C   0  0  0  0  0  0  0  0  0  0  0  0
  150.6490  140.2805  156.5248 C   0  0  2  0  0  0  0  0  0  0  0  0
  152.1410  140.0524  156.1276 C   0  0  0  0  0  0  0  0  0  0  0  0
  152.1152  138.6546  155.4671 C   0  0  2  0  0  0  0  0  0  0  0  0
  151.3585  138.7792  154.1624 C   0  0  0  0  0  0  0  0  0  0  0  0
  150.0759  138.9832  154.4663 C   0  0  0  0  0  0  0  0  0  0  0  0
  149.9663  138.9987  155.9784 C   0  0  1  0  0  0  0  0  0  0  0  0
  151.0486  137.9705  156.3288 C   0  0  0  0  0  0  0  0  0  0  0  0
  152.5873  143.2931  159.8493 C   0  0  0  0  0  0  0  0  0  0  0  0
  153.4336  142.2614  160.3083 C   0  0  0  0  0  0  0  0  0  0  0  0
  153.6660  142.1445  161.6935 C   0  0  0  0  0  0  0  0  0  0  0  0
  153.1159  142.9695  162.6093 N   0  0  0  0  0  0  0  0  0  0  0  0
  152.3075  143.9556  162.1661 C   0  0  0  0  0  0  0  0  0  0  0  0
  152.0102  144.1589  160.8037 C   0  0  0  0  0  0  0  0  0  0  0  0
  153.3637  145.3525  158.1749 H   0  0  0  0  0  0  0  0  0  0  0  0
  151.6306  145.5381  158.4337 H   0  0  0  0  0  0  0  0  0  0  0  0
  152.2393  145.0380  156.8606 H   0  0  0  0  0  0  0  0  0  0  0  0
  153.0885  142.9279  157.8165 H   0  0  0  0  0  0  0  0  0  0  0  0
  150.8628  141.8231  158.3667 H   0  0  0  0  0  0  0  0  0  0  0  0
  150.1381  143.4184  158.3602 H   0  0  0  0  0  0  0  0  0  0  0  0
  150.3428  143.6031  156.1698 H   0  0  0  0  0  0  0  0  0  0  0  0
  149.0132  141.6878  156.3626 H   0  0  0  0  0  0  0  0  0  0  0  0
  150.0072  141.6094  154.9180 H   0  0  0  0  0  0  0  0  0  0  0  0
  150.5671  140.2675  157.6135 H   0  0  0  0  0  0  0  0  0  0  0  0
  152.5209  140.8119  155.4425 H   0  0  0  0  0  0  0  0  0  0  0  0
  152.7785  140.0559  157.0127 H   0  0  0  0  0  0  0  0  0  0  0  0
  153.0701  138.1335  155.3958 H   0  0  0  0  0  0  0  0  0  0  0  0
  151.8086  138.7393  153.1815 H   0  0  0  0  0  0  0  0  0  0  0  0
  149.2533  139.1477  153.7858 H   0  0  0  0  0  0  0  0  0  0  0  0
  148.9727  138.7766  156.3686 H   0  0  0  0  0  0  0  0  0  0  0  0
  150.8062  136.9623  155.9862 H   0  0  0  0  0  0  0  0  0  0  0  0
  151.2974  137.9297  157.3913 H   0  0  0  0  0  0  0  0  0  0  0  0
  153.9004  141.5727  159.6193 H   0  0  0  0  0  0  0  0  0  0  0  0
  154.3100  141.3659  162.0751 H   0  0  0  0  0  0  0  0  0  0  0  0
  151.8831  144.6018  162.9202 H   0  0  0  0  0  0  0  0  0  0  0  0
  151.3562  144.9650  160.5055 H   0  0  0  0  0  0  0  0  0  0  0  0
  151.7304  142.7327  156.0689 H   0  0  0  0  0  0  0  0  0  0  0  0
  1  2  1  0  0  0  0
  1 19  1  0  0  0  0
  1 20  1  0  0  0  0
  1 21  1  0  0  0  0
  2  3  1  0  0  0  0
  2 13  1  0  0  0  0
  2 22  1  0  0  0  0
  3  4  1  0  0  0  0
  3 23  1  0  0  0  0
  3 24  1  0  0  0  0
  4  5  1  0  0  0  0
  4 25  1  0  0  0  0
  4 41  1  0  0  0  0
  5  6  1  0  0  0  0
  5 26  1  0  0  0  0
  5 27  1  0  0  0  0
  6 11  1  0  0  0  0
  6  7  1  0  0  0  0
  6 28  1  0  0  0  0
  7  8  1  0  0  0  0
  7 29  1  0  0  0  0
  7 30  1  0  0  0  0
  8 12  1  0  0  0  0
  8  9  1  0  0  0  0
  8 31  1  0  0  0  0
  9 10  2  0  0  0  0
  9 32  1  0  0  0  0
 10 11  1  0  0  0  0
 10 33  1  0  0  0  0
 11 12  1  0  0  0  0
 11 34  1  0  0  0  0
 12 35  1  0  0  0  0
 12 36  1  0  0  0  0
 13 18  1  0  0  0  0
 13 14  2  0  0  0  0
 14 15  1  0  0  0  0
 14 37  1  0  0  0  0
 15 16  2  0  0  0  0
 15 38  1  0  0  0  0
 16 17  1  0  0  0  0
 17 18  2  0  0  0  0
 17 39  1  0  0  0  0
 18 40  1  0  0  0  0
M  CHG  1   4   1
M  END
> <s_m_source_file>
AV-unprocessed.smi

> <i_m_source_file_index>
3316

> <i_lp_mmshare_version>
43012

> <i_f3d_flags>
0

> <s_epik_input>
W2NIXTFbY0hdbltjSF1bY0hdYzFbQ0BIXShbQ0gzXSlbQ0gyXVtOSF1bQ0gyXVtDQEhdKFtDSDJdW0NASF0yMylbQ0BIXShbQ0gyXTMpW0NIXT1bQ0hdMg==

> <s_epik_cmdline>
J2VwaWtfcHl0aG9uJywgJy1waCcsICc3LjAnLCAnLXRuJywgJzgnLCAnLW1hJywgJzIwMCcsICctbWV0YWxfYmluZGluZycsICctaW1hZScsICc8aW5maWxlLm1hZT4nLCAnLW9tYWUnLCAnPG91dGZpbGUubWFlPic=

> <r_lp_tautomer_probability>
1

> <r_epik_Ionization_Penalty>
0.00280406

> <r_epik_Ionization_Penalty_Charging>
0.000446589

> <r_epik_Ionization_Penalty_Neutral>
0.00235747

> <r_epik_State_Penalty>
-0

> <r_epik_Charging_Adjusted_Penalty>
0.000446589

> <i_epik_Tot_Q>
1

> <i_epik_Tot_abs_Q>
1

> <r_epik_Metal_State_Penalty>
-0

> <b_epik_Metal_Only>
0

> <s_lp_Force_Field>
OPLS_2005

> <r_lp_Energy>
65.4585

> <b_lp_Chiralities_Consistent>
1

> <s_lp_Variant>
AV-unprocessed.smi:3316-1

> <Gold.Version>
5.8.1

> <Gold.Id.Protein>
6NUR|6NUR_protein|mol2

> <Gold.PLP.Fitness>
49.8813

> <Gold.PLP.PLP>
-45.2850

> <Gold.PLP.part.hbond>
-1.0000

> <Gold.PLP.part.metal>
0.0000

> <Gold.PLP.part.buried>
-5.7508

> <Gold.PLP.part.nonpolar>
-38.9774

> <Gold.PLP.part.repulsive>
0.1510

> <Gold.PLP.ligand.clash>
0.0000

> <Gold.PLP.ligand.torsion>
0.7629

> <Gold.PLP.Chemscore.Hbond>
2.0000

> <Gold.PLP.Chemscore.CHOScore>
0.0000

> <Gold.PLP.Chemscore.Metal>
0.0000

> <Gold.Chemscore.Hbonds>
donor molecule, donor type, donor heavy atom, donor atom, acceptor molecule, acceptor atom, score
      L1  H     4    25       P1  8028  2.00

> <Gold.PLP.Chemscore.Internal.Correction>
0.1221

> <Gold.Rescore>
     Score         DG    S(hbond)    S(metal)    S(lipo)     H(rot)  DE(clash)    DE(int)     intcor
     20.74     -21.44       0.98        0.00     138.23       1.36       0.05       0.65       ----

> <Gold.Chemscore.Fitness>
20.7392

> <Gold.Chemscore.DG>
-21.4432

> <Gold.Chemscore.ZeroCoef>
-5.4800

> <Gold.Chemscore.Hbond>
0.9826

> <Gold.Chemscore.Metal>
0.0000

> <Gold.Chemscore.Lipo>
138.2323

> <Gold.Chemscore.Internal_Hbond>
0.0000

> <Gold.Chemscore.DEClash>
0.0495

> <Gold.Chemscore.DEInternal>
0.6545

> <Gold.Chemscore.Rot>
1.3640

> <Gold.Chemscore.Internal.Correction>
   9.000000E+99

> <Gold.Chemscore.Hbonds>
donor molecule, donor type, donor heavy atom, donor atom, acceptor molecule, acceptor atom, score
      L1  H     4    25       P1  8028  0.99

> <Gold.Chemscore.Hbond.Weighted>
-3.2820

> <Gold.Chemscore.Metal.Weighted>
-0.0000

> <Gold.Chemscore.Lipo.Weighted>
-16.1732

> <Gold.Chemscore.Internal_Hbond.Weighted>
0.0000

> <Gold.Chemscore.DEClash.Weighted>
0.0495

> <Gold.Chemscore.DEInternal.Weighted>
0.6545

> <Gold.Chemscore.Rot.Weighted>
3.4919

> <Gold.Chemscore.Internal.Correction.Weighted>
   9.000000E+99

> <Gold.Protein.RotatedTorsions>
[ 6907 6896 6895 6894 ] final -148.63 input  -60.11 | X-H torsion
[ 7974 7965 7964 7962 ] final -115.06 input  175.53 | X-H torsion
[ 8008 7997 7996 7995 ] final  -64.99 input   59.86 | X-H torsion
[ 10167 10162 10161 10158 ] final -150.10 input  -65.29 | X-H torsion
[ 10718 10713 10712 10709 ] final -106.86 input   66.30 | X-H torsion
[ 10763 10752 10751 10750 ] final   71.52 input  -60.55 | X-H torsion
[ 11005 11000 10999 10996 ] final  129.41 input  -57.11 | X-H torsion

> <Gold.Protein.ActiveResidues>
 VAL166  LYS551  ARG553  GLY616  TRP617  ASP618  TYR619  PRO620  LYS621  CYS622 
 ASP623  PHE694  ASN695  SER759  ASP760  ASP761  ALA762  ILE779  LEU786  VAL792 
 PHE793  MET794  SER795  GLU796  ALA797  LYS798  CYS799  TRP800  GLU811  SER814 

> <Gold.Protein.RotatedAtoms>
  151.1726  133.4775  159.2593 H   0  0  0  0  0  0  0  0  0  0  0  0  # atno 6907 bound_to 6896
  151.1341  135.0145  159.8606 H   0  0  0  0  0  0  0  0  0  0  0  0  # atno 6908 bound_to 6896
  152.5461  134.1626  159.8617 H   0  0  0  0  0  0  0  0  0  0  0  0  # atno 6909 bound_to 6896
  145.1128  140.8622  143.3860 H   0  0  0  0  0  0  0  0  0  0  0  0  # atno 7974 bound_to 7965
  154.4645  140.0942  156.6982 H   0  0  0  0  0  0  0  0  0  0  0  0  # atno 8008 bound_to 7997
  155.4899  140.3470  155.4335 H   0  0  0  0  0  0  0  0  0  0  0  0  # atno 8009 bound_to 7997
  156.0930  140.1402  156.9555 H   0  0  0  0  0  0  0  0  0  0  0  0  # atno 8010 bound_to 7997
  139.7384  143.8700  152.2555 H   0  0  0  0  0  0  0  0  0  0  0  0  # atno 10167 bound_to 10162
  156.0409  130.5633  150.7740 H   0  0  0  0  0  0  0  0  0  0  0  0  # atno 10718 bound_to 10713
  153.0404  135.5134  154.7606 H   0  0  0  0  0  0  0  0  0  0  0  0  # atno 10763 bound_to 10752
  154.6548  135.2930  154.9943 H   0  0  0  0  0  0  0  0  0  0  0  0  # atno 10764 bound_to 10752
  154.0815  135.6663  153.4891 H   0  0  0  0  0  0  0  0  0  0  0  0  # atno 10765 bound_to 10752
  139.9614  134.9601  156.9144 H   0  0  0  0  0  0  0  0  0  0  0  0  # atno 11005 bound_to 11000
  145.0827  139.2947  143.5775 LP  0  0  0  0  0  0  0  0  0  0  0  0  # atno 17320 bound_to 7965
  146.3525  140.0339  142.8648 LP  0  0  0  0  0  0  0  0  0  0  0  0  # atno 17321 bound_to 7965
  139.8644  144.7101  150.9062 LP  0  0  0  0  0  0  0  0  0  0  0  0  # atno 17342 bound_to 10162
  140.7782  143.3791  151.1510 LP  0  0  0  0  0  0  0  0  0  0  0  0  # atno 17343 bound_to 10162
  157.5226  131.0932  151.0059 LP  0  0  0  0  0  0  0  0  0  0  0  0  # atno 17370 bound_to 10713
  157.0386  130.5740  149.5353 LP  0  0  0  0  0  0  0  0  0  0  0  0  # atno 17371 bound_to 10713
  140.5492  134.0644  155.7364 LP  0  0  0  0  0  0  0  0  0  0  0  0  # atno 17394 bound_to 11000
  141.1291  133.9332  157.2573 LP  0  0  0  0  0  0  0  0  0  0  0  0  # atno 17395 bound_to 11000

$$$$
