AV-unprocessed.smi:1162|AV-procd|sdf|4919|dock3
  -GOLD-   22720 3503D 1   1.00000     0.00000
 Structure written by MMmdl.
 44 45  0  0  0  0  0  0  0  0  1 V2000
  151.1141  141.9706  158.2465 C   0  0  0  0  0  0  0  0  0  0  0  0
  151.2246  141.8104  156.8364 O   0  0  0  0  0  0  0  0  0  0  0  0
  150.8824  140.5919  156.2869 C   0  0  0  0  0  0  0  0  0  0  0  0
  150.7625  139.4772  157.1406 C   0  0  0  0  0  0  0  0  0  0  0  0
  150.4180  138.2288  156.5879 C   0  0  0  0  0  0  0  0  0  0  0  0
  150.1958  138.1366  155.1930 C   0  0  0  0  0  0  0  0  0  0  0  0
  149.8666  136.9351  154.5093 N   0  0  0  0  0  0  0  0  0  0  0  0
  149.7800  135.6861  154.9976 C   0  0  0  0  0  0  0  0  0  0  0  0
  149.9411  135.3665  156.1752 O   0  0  0  0  0  0  0  0  0  0  0  0
  149.4693  134.8110  154.0301 N   0  0  0  0  0  0  0  0  0  0  0  0
  149.2625  133.3781  154.2257 C   0  0  0  0  0  0  0  0  0  0  0  0
  147.9351  132.8783  153.6429 C   0  0  0  0  0  0  0  0  0  0  0  0
  147.4740  131.7827  153.9669 O   0  0  0  0  0  0  0  0  0  0  0  0
  147.3206  133.7120  152.7901 N   0  0  0  0  0  0  0  0  0  0  0  0
  146.0468  133.4541  152.1253 C   0  0  0  0  0  0  0  0  0  0  0  0
  146.0769  132.0924  151.4003 C   0  0  0  0  0  0  0  0  0  0  0  0
  144.7737  131.8383  150.6252 C   0  0  0  0  0  0  0  0  0  0  0  0
  144.4736  132.9821  149.6438 C   0  0  0  0  0  0  0  0  0  0  0  0
  144.4348  134.3370  150.3675 C   0  0  0  0  0  0  0  0  0  0  0  0
  145.7414  134.5943  151.1353 C   0  0  0  0  0  0  0  0  0  0  0  0
  150.3509  139.3092  154.4254 C   0  0  0  0  0  0  0  0  0  0  0  0
  150.6805  140.5086  154.9487 N   0  0  0  0  0  0  0  0  0  0  0  0
  151.4110  142.9833  158.5189 H   0  0  0  0  0  0  0  0  0  0  0  0
  151.7689  141.2794  158.7791 H   0  0  0  0  0  0  0  0  0  0  0  0
  150.0874  141.8251  158.5856 H   0  0  0  0  0  0  0  0  0  0  0  0
  150.9381  139.5762  158.2015 H   0  0  0  0  0  0  0  0  0  0  0  0
  150.3479  137.3728  157.2402 H   0  0  0  0  0  0  0  0  0  0  0  0
  149.6235  137.0467  153.5358 H   0  0  0  0  0  0  0  0  0  0  0  0
  149.3423  135.1632  153.0929 H   0  0  0  0  0  0  0  0  0  0  0  0
  150.0778  132.8456  153.7355 H   0  0  0  0  0  0  0  0  0  0  0  0
  149.3206  133.1306  155.2873 H   0  0  0  0  0  0  0  0  0  0  0  0
  147.7701  134.5923  152.5840 H   0  0  0  0  0  0  0  0  0  0  0  0
  145.2520  133.4368  152.8739 H   0  0  0  0  0  0  0  0  0  0  0  0
  146.9203  132.0604  150.7090 H   0  0  0  0  0  0  0  0  0  0  0  0
  146.2361  131.2863  152.1177 H   0  0  0  0  0  0  0  0  0  0  0  0
  144.8414  130.8937  150.0849 H   0  0  0  0  0  0  0  0  0  0  0  0
  143.9464  131.7339  151.3282 H   0  0  0  0  0  0  0  0  0  0  0  0
  145.2369  133.0060  148.8649 H   0  0  0  0  0  0  0  0  0  0  0  0
  143.5232  132.8014  149.1410 H   0  0  0  0  0  0  0  0  0  0  0  0
  144.2617  135.1380  149.6484 H   0  0  0  0  0  0  0  0  0  0  0  0
  143.5929  134.3576  151.0612 H   0  0  0  0  0  0  0  0  0  0  0  0
  145.6726  135.5437  151.6676 H   0  0  0  0  0  0  0  0  0  0  0  0
  146.5626  134.6971  150.4242 H   0  0  0  0  0  0  0  0  0  0  0  0
  150.2036  139.2869  153.3554 H   0  0  0  0  0  0  0  0  0  0  0  0
  1  2  1  0  0  0  0
  1 23  1  0  0  0  0
  1 24  1  0  0  0  0
  1 25  1  0  0  0  0
  2  3  1  0  0  0  0
  3 22  1  0  0  0  0
  3  4  2  0  0  0  0
  4  5  1  0  0  0  0
  4 26  1  0  0  0  0
  5  6  2  0  0  0  0
  5 27  1  0  0  0  0
  6  7  1  0  0  0  0
  6 21  1  0  0  0  0
  7  8  1  0  0  0  0
  7 28  1  0  0  0  0
  8  9  2  0  0  0  0
  8 10  1  0  0  0  0
 10 11  1  0  0  0  0
 10 29  1  0  0  0  0
 11 12  1  0  0  0  0
 11 30  1  0  0  0  0
 11 31  1  0  0  0  0
 12 13  2  0  0  0  0
 12 14  1  0  0  0  0
 14 15  1  0  0  0  0
 14 32  1  0  0  0  0
 15 20  1  0  0  0  0
 15 16  1  0  0  0  0
 15 33  1  0  0  0  0
 16 17  1  0  0  0  0
 16 34  1  0  0  0  0
 16 35  1  0  0  0  0
 17 18  1  0  0  0  0
 17 36  1  0  0  0  0
 17 37  1  0  0  0  0
 18 19  1  0  0  0  0
 18 38  1  0  0  0  0
 18 39  1  0  0  0  0
 19 20  1  0  0  0  0
 19 40  1  0  0  0  0
 19 41  1  0  0  0  0
 20 42  1  0  0  0  0
 20 43  1  0  0  0  0
 21 22  2  0  0  0  0
 21 44  1  0  0  0  0
M  END
> <s_m_source_file>
AV-unprocessed.smi

> <i_m_source_file_index>
1162

> <i_lp_mmshare_version>
43012

> <i_f3d_flags>
0

> <s_epik_input>
W0NIM11PYzFbY0hdW2NIXWMoW2NIXW4xKVtOSF1DKD1PKVtOSF1bQ0gyXUMoPU8pW05IXVtDSF0yW0NIMl1bQ0gyXVtDSDJdW0NIMl1bQ0gyXTI=

> <s_epik_cmdline>
J2VwaWtfcHl0aG9uJywgJy1waCcsICc3LjAnLCAnLXRuJywgJzgnLCAnLW1hJywgJzIwMCcsICctbWV0YWxfYmluZGluZycsICctaW1hZScsICc8aW5maWxlLm1hZT4nLCAnLW9tYWUnLCAnPG91dGZpbGUubWFlPic=

> <r_lp_tautomer_probability>
1

> <r_epik_Ionization_Penalty>
0.000141568

> <r_epik_Ionization_Penalty_Charging>
0

> <r_epik_Ionization_Penalty_Neutral>
0.000141568

> <r_epik_State_Penalty>
-0

> <r_epik_Charging_Adjusted_Penalty>
0

> <i_epik_Tot_Q>
0

> <i_epik_Tot_abs_Q>
0

> <r_epik_Metal_State_Penalty>
-0

> <b_epik_Metal_Only>
0

> <s_lp_Force_Field>
OPLS_2005

> <r_lp_Energy>
7.6567

> <b_lp_Chiralities_Consistent>
1

> <s_lp_Variant>
AV-unprocessed.smi:1162-1

> <Gold.Version>
5.8.1

> <Gold.Id.Protein>
6NUR|6NUR_protein|mol2

> <Gold.PLP.Fitness>
46.3639

> <Gold.PLP.PLP>
-35.6826

> <Gold.PLP.part.hbond>
-4.2077

> <Gold.PLP.part.metal>
0.0000

> <Gold.PLP.part.buried>
-2.5294

> <Gold.PLP.part.nonpolar>
-28.0167

> <Gold.PLP.part.repulsive>
0.2833

> <Gold.PLP.ligand.clash>
0.0000

> <Gold.PLP.ligand.torsion>
0.4622

> <Gold.PLP.Chemscore.Hbond>
2.8548

> <Gold.PLP.Chemscore.CHOScore>
1.0000

> <Gold.PLP.Chemscore.Metal>
0.0000

> <Gold.Chemscore.Hbonds>
donor molecule, donor type, donor heavy atom, donor atom, acceptor molecule, acceptor atom, score
      L1  H     7    28       P1  7948  0.98
      L1  H    10    29       P1  7948  0.50
      L1  H    14    32       P1  7948  0.81
      P1  H  7989  7998       L1    22  0.50
      L1  C    21    44       P1  7957  1.00

> <Gold.PLP.Chemscore.Internal.Correction>
0.0416

> <Gold.Rescore>
     Score         DG    S(hbond)    S(metal)    S(lipo)     H(rot)  DE(clash)    DE(int)     intcor
     12.84     -14.36       1.49        0.00      73.25       1.82       0.03       1.48       ----

> <Gold.Chemscore.Fitness>
12.8448

> <Gold.Chemscore.DG>
-14.3597

> <Gold.Chemscore.ZeroCoef>
-5.4800

> <Gold.Chemscore.Hbond>
1.4878

> <Gold.Chemscore.Metal>
0.0000

> <Gold.Chemscore.Lipo>
73.2539

> <Gold.Chemscore.Internal_Hbond>
0.0000

> <Gold.Chemscore.DEClash>
0.0335

> <Gold.Chemscore.DEInternal>
1.4814

> <Gold.Chemscore.Rot>
1.8204

> <Gold.Chemscore.Internal.Correction>
   9.000000E+99

> <Gold.Chemscore.Hbonds>
donor molecule, donor type, donor heavy atom, donor atom, acceptor molecule, acceptor atom, score
      L1  H     7    28       P1  7948  0.72
      L1  H    10    29       P1  7948  0.02
      L1  H    14    32       P1  7948  0.60
      P1  H  7989  7998       L1    22  0.02

> <Gold.Chemscore.Hbond.Weighted>
-4.9691

> <Gold.Chemscore.Metal.Weighted>
-0.0000

> <Gold.Chemscore.Lipo.Weighted>
-8.5707

> <Gold.Chemscore.Internal_Hbond.Weighted>
0.0000

> <Gold.Chemscore.DEClash.Weighted>
0.0335

> <Gold.Chemscore.DEInternal.Weighted>
1.4814

> <Gold.Chemscore.Rot.Weighted>
4.6601

> <Gold.Chemscore.Internal.Correction.Weighted>
   9.000000E+99

> <Gold.Protein.RotatedTorsions>
[ 6907 6896 6895 6894 ] final  -76.26 input  -60.11 | X-H torsion
[ 7974 7965 7964 7962 ] final   92.09 input  175.53 | X-H torsion
[ 8008 7997 7996 7995 ] final -102.99 input   59.86 | X-H torsion
[ 10167 10162 10161 10158 ] final -145.39 input  -65.29 | X-H torsion
[ 10718 10713 10712 10709 ] final -125.10 input   66.30 | X-H torsion
[ 10763 10752 10751 10750 ] final   19.26 input  -60.55 | X-H torsion
[ 11005 11000 10999 10996 ] final  -19.58 input  -57.11 | X-H torsion

> <Gold.Protein.ActiveResidues>
 VAL166  LYS551  ARG553  GLY616  TRP617  ASP618  TYR619  PRO620  LYS621  CYS622 
 ASP623  PHE694  ASN695  SER759  ASP760  ASP761  ALA762  ILE779  LEU786  VAL792 
 PHE793  MET794  SER795  GLU796  ALA797  LYS798  CYS799  TRP800  GLU811  SER814 

> <Gold.Protein.RotatedAtoms>
  150.7033  134.4599  159.5375 H   0  0  0  0  0  0  0  0  0  0  0  0  # atno 6907 bound_to 6896
  152.2275  134.8351  160.0487 H   0  0  0  0  0  0  0  0  0  0  0  0  # atno 6908 bound_to 6896
  151.9179  133.3543  159.3923 H   0  0  0  0  0  0  0  0  0  0  0  0  # atno 6909 bound_to 6896
  145.4970  139.2276  143.2798 H   0  0  0  0  0  0  0  0  0  0  0  0  # atno 7974 bound_to 7965
  154.8645  140.0425  157.1686 H   0  0  0  0  0  0  0  0  0  0  0  0  # atno 8008 bound_to 7997
  154.8805  140.2972  155.5407 H   0  0  0  0  0  0  0  0  0  0  0  0  # atno 8009 bound_to 7997
  156.2999  140.2412  156.3806 H   0  0  0  0  0  0  0  0  0  0  0  0  # atno 8010 bound_to 7997
  139.7810  143.8100  152.2638 H   0  0  0  0  0  0  0  0  0  0  0  0  # atno 10167 bound_to 10162
  156.1646  130.6625  151.0097 H   0  0  0  0  0  0  0  0  0  0  0  0  # atno 10718 bound_to 10713
  153.1177  135.6712  153.9389 H   0  0  0  0  0  0  0  0  0  0  0  0  # atno 10763 bound_to 10752
  153.8913  135.3046  155.3449 H   0  0  0  0  0  0  0  0  0  0  0  0  # atno 10764 bound_to 10752
  154.7592  135.4996  153.9511 H   0  0  0  0  0  0  0  0  0  0  0  0  # atno 10765 bound_to 10752
  140.8381  133.7947  155.9831 H   0  0  0  0  0  0  0  0  0  0  0  0  # atno 11005 bound_to 11000
  146.2249  140.5768  142.9000 LP  0  0  0  0  0  0  0  0  0  0  0  0  # atno 17320 bound_to 7965
  144.7801  140.5823  143.6611 LP  0  0  0  0  0  0  0  0  0  0  0  0  # atno 17321 bound_to 7965
  139.8163  144.7315  150.9631 LP  0  0  0  0  0  0  0  0  0  0  0  0  # atno 17342 bound_to 10162
  140.7818  143.4202  151.0854 LP  0  0  0  0  0  0  0  0  0  0  0  0  # atno 17343 bound_to 10162
  157.6758  131.0850  150.7498 LP  0  0  0  0  0  0  0  0  0  0  0  0  # atno 17370 bound_to 10713
  156.7559  130.4783  149.5447 LP  0  0  0  0  0  0  0  0  0  0  0  0  # atno 17371 bound_to 10713
  140.8925  134.2478  157.5086 LP  0  0  0  0  0  0  0  0  0  0  0  0  # atno 17394 bound_to 11000
  139.8703  134.9668  156.4576 LP  0  0  0  0  0  0  0  0  0  0  0  0  # atno 17395 bound_to 11000

$$$$
