AV-unprocessed.smi:3028|AV-procd|sdf|11520|dock4
  -GOLD-   2272016453D 1   1.00000     0.00000
 Structure written by MMmdl.
 48 49  0  0  0  0  0  0  0  0  2 V2000
  151.8410  141.4945  158.4392 C   0  0  0  0  0  0  0  0  0  0  0  0
  150.8764  141.0221  157.3899 C   0  0  0  0  0  0  0  0  0  0  0  0
  149.4707  141.2401  157.3330 C   0  0  0  0  0  0  0  0  0  0  0  0
  148.9080  140.6883  156.2706 N   0  0  0  0  0  0  0  0  0  0  0  0
  149.9303  140.0996  155.6109 N   0  0  0  0  0  0  0  0  0  0  0  0
  149.6838  139.3756  154.3701 C   0  0  1  0  0  0  0  0  0  0  0  0
  150.2670  137.9522  154.4672 C   0  0  0  0  0  0  0  0  0  0  0  0
  148.1830  139.3758  153.9736 C   0  0  1  0  0  0  0  0  0  0  0  0
  147.6031  140.7963  153.8100 C   0  0  0  0  0  0  0  0  0  0  0  0
  147.9987  138.6071  152.7220 N   0  3  0  0  0  0  0  0  0  0  0  0
  146.6645  138.7248  152.0944 C   0  0  0  0  0  0  0  0  0  0  0  0
  145.8279  137.4502  152.2732 C   0  0  0  0  0  0  0  0  0  0  0  0
  144.6953  137.5190  152.7484 O   0  0  0  0  0  0  0  0  0  0  0  0
  146.3466  136.2667  151.9047 N   0  0  0  0  0  0  0  0  0  0  0  0
  145.7201  134.9489  151.9911 C   0  0  0  0  0  0  0  0  0  0  0  0
  146.5504  134.0449  152.9151 C   0  0  0  0  0  0  0  0  0  0  0  0
  146.0027  132.6084  152.9081 C   0  0  0  0  0  0  0  0  0  0  0  0
  145.9824  132.1037  151.5773 O   0  0  0  0  0  0  0  0  0  0  0  0
  145.1270  132.8457  150.7149 C   0  0  0  0  0  0  0  0  0  0  0  0
  145.6234  134.2966  150.6010 C   0  0  0  0  0  0  0  0  0  0  0  0
  151.1292  140.2849  156.2679 C   0  0  0  0  0  0  0  0  0  0  0  0
  151.3318  141.7699  159.3629 H   0  0  0  0  0  0  0  0  0  0  0  0
  152.3989  142.3700  158.1064 H   0  0  0  0  0  0  0  0  0  0  0  0
  152.5705  140.7252  158.6928 H   0  0  0  0  0  0  0  0  0  0  0  0
  148.8465  141.7803  158.0294 H   0  0  0  0  0  0  0  0  0  0  0  0
  150.2351  139.9036  153.5902 H   0  0  0  0  0  0  0  0  0  0  0  0
  150.2125  137.4291  153.5125 H   0  0  0  0  0  0  0  0  0  0  0  0
  149.7355  137.3498  155.2048 H   0  0  0  0  0  0  0  0  0  0  0  0
  151.3171  137.9805  154.7596 H   0  0  0  0  0  0  0  0  0  0  0  0
  147.6287  138.8716  154.7672 H   0  0  0  0  0  0  0  0  0  0  0  0
  147.6587  141.3669  154.7369 H   0  0  0  0  0  0  0  0  0  0  0  0
  146.5519  140.7733  153.5240 H   0  0  0  0  0  0  0  0  0  0  0  0
  148.1415  141.3561  153.0444 H   0  0  0  0  0  0  0  0  0  0  0  0
  148.7064  138.8833  152.0564 H   0  0  0  0  0  0  0  0  0  0  0  0
  146.1378  139.5649  152.5484 H   0  0  0  0  0  0  0  0  0  0  0  0
  146.7745  138.9346  151.0312 H   0  0  0  0  0  0  0  0  0  0  0  0
  147.2807  136.2826  151.5203 H   0  0  0  0  0  0  0  0  0  0  0  0
  144.7200  135.0299  152.4182 H   0  0  0  0  0  0  0  0  0  0  0  0
  147.5905  134.0305  152.5856 H   0  0  0  0  0  0  0  0  0  0  0  0
  146.5504  134.4391  153.9320 H   0  0  0  0  0  0  0  0  0  0  0  0
  146.6347  131.9642  153.5195 H   0  0  0  0  0  0  0  0  0  0  0  0
  145.0008  132.5717  153.3385 H   0  0  0  0  0  0  0  0  0  0  0  0
  145.1233  132.3735  149.7324 H   0  0  0  0  0  0  0  0  0  0  0  0
  144.1018  132.8133  151.0869 H   0  0  0  0  0  0  0  0  0  0  0  0
  144.9569  134.8651  149.9524 H   0  0  0  0  0  0  0  0  0  0  0  0
  146.6029  134.3013  150.1202 H   0  0  0  0  0  0  0  0  0  0  0  0
  152.0559  139.8813  155.8869 H   0  0  0  0  0  0  0  0  0  0  0  0
  148.1337  137.6296  152.9382 H   0  0  0  0  0  0  0  0  0  0  0  0
  1  2  1  0  0  0  0
  1 22  1  0  0  0  0
  1 23  1  0  0  0  0
  1 24  1  0  0  0  0
  2 21  2  0  0  0  0
  2  3  1  0  0  0  0
  3  4  2  0  0  0  0
  3 25  1  0  0  0  0
  4  5  1  0  0  0  0
  5  6  1  0  0  0  0
  5 21  1  0  0  0  0
  6  7  1  0  0  0  0
  6  8  1  0  0  0  0
  6 26  1  0  0  0  0
  7 27  1  0  0  0  0
  7 28  1  0  0  0  0
  7 29  1  0  0  0  0
  8  9  1  0  0  0  0
  8 10  1  0  0  0  0
  8 30  1  0  0  0  0
  9 31  1  0  0  0  0
  9 32  1  0  0  0  0
  9 33  1  0  0  0  0
 10 11  1  0  0  0  0
 10 34  1  0  0  0  0
 10 48  1  0  0  0  0
 11 12  1  0  0  0  0
 11 35  1  0  0  0  0
 11 36  1  0  0  0  0
 12 13  2  0  0  0  0
 12 14  1  0  0  0  0
 14 15  1  0  0  0  0
 14 37  1  0  0  0  0
 15 20  1  0  0  0  0
 15 16  1  0  0  0  0
 15 38  1  0  0  0  0
 16 17  1  0  0  0  0
 16 39  1  0  0  0  0
 16 40  1  0  0  0  0
 17 18  1  0  0  0  0
 17 41  1  0  0  0  0
 17 42  1  0  0  0  0
 18 19  1  0  0  0  0
 19 20  1  0  0  0  0
 19 43  1  0  0  0  0
 19 44  1  0  0  0  0
 20 45  1  0  0  0  0
 20 46  1  0  0  0  0
 21 47  1  0  0  0  0
M  CHG  1  10   1
M  END
> <s_m_source_file>
AV-unprocessed.smi

> <i_m_source_file_index>
3028

> <i_lp_mmshare_version>
43012

> <i_f3d_flags>
0

> <s_epik_input>
W0NIM11jMVtjSF1ubihbY0hdMSlbQ0BIXShbQ0gzXSlbQ0BIXShbQ0gzXSlbTkhdW0NIMl1DKD1PKVtOSF1bQ0hdMltDSDJdW0NIMl1PW0NIMl1bQ0gyXTI=

> <s_epik_cmdline>
J2VwaWtfcHl0aG9uJywgJy1waCcsICc3LjAnLCAnLXRuJywgJzgnLCAnLW1hJywgJzIwMCcsICctbWV0YWxfYmluZGluZycsICctaW1hZScsICc8aW5maWxlLm1hZT4nLCAnLW9tYWUnLCAnPG91dGZpbGUubWFlPic=

> <r_lp_tautomer_probability>
1

> <r_epik_Ionization_Penalty>
0.151514

> <r_epik_Ionization_Penalty_Charging>
0.151494

> <r_epik_Ionization_Penalty_Neutral>
1.95502e-05

> <r_epik_State_Penalty>
0.141395

> <r_epik_Charging_Adjusted_Penalty>
0.292889

> <i_epik_Tot_Q>
1

> <i_epik_Tot_abs_Q>
1

> <r_epik_Metal_State_Penalty>
0.141632

> <b_epik_Metal_Only>
0

> <s_lp_Force_Field>
OPLS_2005

> <r_lp_Energy>
16.118

> <b_lp_Chiralities_Consistent>
1

> <s_lp_Variant>
AV-unprocessed.smi:3028-4

> <Gold.Version>
5.8.1

> <Gold.Id.Protein>
6NUR|6NUR_protein|mol2

> <Gold.PLP.Fitness>
46.4609

> <Gold.PLP.PLP>
-37.7748

> <Gold.PLP.part.hbond>
-2.7094

> <Gold.PLP.part.metal>
0.0000

> <Gold.PLP.part.buried>
-2.6144

> <Gold.PLP.part.nonpolar>
-32.7279

> <Gold.PLP.part.repulsive>
0.5249

> <Gold.PLP.ligand.clash>
0.0000

> <Gold.PLP.ligand.torsion>
0.5241

> <Gold.PLP.Chemscore.Hbond>
3.1760

> <Gold.PLP.Chemscore.CHOScore>
0.0000

> <Gold.PLP.Chemscore.Metal>
0.0000

> <Gold.Chemscore.Hbonds>
donor molecule, donor type, donor heavy atom, donor atom, acceptor molecule, acceptor atom, score
      L1  H    10    34       P1  7957  1.00
      L1  H    10    48       P1  7948  1.12
      L1  H    14    37       P1  7948  0.96

> <Gold.PLP.Chemscore.Internal.Correction>
0.2065

> <Gold.Rescore>
     Score         DG    S(hbond)    S(metal)    S(lipo)     H(rot)  DE(clash)    DE(int)     intcor
     17.44     -18.17       2.49        0.00      80.82       1.99       0.05       0.68       ----

> <Gold.Chemscore.Fitness>
17.4371

> <Gold.Chemscore.DG>
-18.1710

> <Gold.Chemscore.ZeroCoef>
-5.4800

> <Gold.Chemscore.Hbond>
2.4936

> <Gold.Chemscore.Metal>
0.0000

> <Gold.Chemscore.Lipo>
80.8204

> <Gold.Chemscore.Internal_Hbond>
0.0000

> <Gold.Chemscore.DEClash>
0.0525

> <Gold.Chemscore.DEInternal>
0.6813

> <Gold.Chemscore.Rot>
1.9897

> <Gold.Chemscore.Internal.Correction>
   9.000000E+99

> <Gold.Chemscore.Hbonds>
donor molecule, donor type, donor heavy atom, donor atom, acceptor molecule, acceptor atom, score
      L1  H    10    34       P1  7957  0.89
      L1  H    10    48       P1  7948  0.56
      L1  H    14    37       P1  7948  0.92

> <Gold.Chemscore.Hbond.Weighted>
-8.3286

> <Gold.Chemscore.Metal.Weighted>
-0.0000

> <Gold.Chemscore.Lipo.Weighted>
-9.4560

> <Gold.Chemscore.Internal_Hbond.Weighted>
0.0000

> <Gold.Chemscore.DEClash.Weighted>
0.0525

> <Gold.Chemscore.DEInternal.Weighted>
0.6813

> <Gold.Chemscore.Rot.Weighted>
5.0936

> <Gold.Chemscore.Internal.Correction.Weighted>
   9.000000E+99

> <Gold.Protein.RotatedTorsions>
[ 6907 6896 6895 6894 ] final  -32.81 input  -60.11 | X-H torsion
[ 7974 7965 7964 7962 ] final  -97.41 input  175.53 | X-H torsion
[ 8008 7997 7996 7995 ] final  -74.05 input   59.86 | X-H torsion
[ 10167 10162 10161 10158 ] final  163.04 input  -65.29 | X-H torsion
[ 10718 10713 10712 10709 ] final  -78.90 input   66.30 | X-H torsion
[ 10763 10752 10751 10750 ] final   97.83 input  -60.55 | X-H torsion
[ 11005 11000 10999 10996 ] final -158.63 input  -57.11 | X-H torsion

> <Gold.Protein.ActiveResidues>
 VAL166  LYS551  ARG553  GLY616  TRP617  ASP618  TYR619  PRO620  LYS621  CYS622 
 ASP623  PHE694  ASN695  SER759  ASP760  ASP761  ALA762  ILE779  LEU786  VAL792 
 PHE793  MET794  SER795  GLU796  ALA797  LYS798  CYS799  TRP800  GLU811  SER814 

> <Gold.Protein.RotatedAtoms>
  151.0738  134.9815  159.8321 H   0  0  0  0  0  0  0  0  0  0  0  0  # atno 6907 bound_to 6896
  152.5411  134.2266  159.8818 H   0  0  0  0  0  0  0  0  0  0  0  0  # atno 6908 bound_to 6896
  151.2292  133.4416  159.2637 H   0  0  0  0  0  0  0  0  0  0  0  0  # atno 6909 bound_to 6896
  145.3341  140.9447  143.2645 H   0  0  0  0  0  0  0  0  0  0  0  0  # atno 7974 bound_to 7965
  154.5298  140.0768  156.8324 H   0  0  0  0  0  0  0  0  0  0  0  0  # atno 8008 bound_to 7997
  155.3399  140.3406  155.4221 H   0  0  0  0  0  0  0  0  0  0  0  0  # atno 8009 bound_to 7997
  156.1769  140.1639  156.8332 H   0  0  0  0  0  0  0  0  0  0  0  0  # atno 8010 bound_to 7997
  139.4868  144.4377  151.8991 H   0  0  0  0  0  0  0  0  0  0  0  0  # atno 10167 bound_to 10162
  156.0105  130.4531  150.3567 H   0  0  0  0  0  0  0  0  0  0  0  0  # atno 10718 bound_to 10713
  153.2816  135.4169  155.1084 H   0  0  0  0  0  0  0  0  0  0  0  0  # atno 10763 bound_to 10752
  154.8491  135.3496  154.6104 H   0  0  0  0  0  0  0  0  0  0  0  0  # atno 10764 bound_to 10752
  153.6525  135.7052  153.5262 H   0  0  0  0  0  0  0  0  0  0  0  0  # atno 10765 bound_to 10752
  140.6514  134.4446  157.5235 H   0  0  0  0  0  0  0  0  0  0  0  0  # atno 11005 bound_to 11000
  144.8841  139.4863  143.6709 LP  0  0  0  0  0  0  0  0  0  0  0  0  # atno 17320 bound_to 7965
  146.3034  139.7499  142.9074 LP  0  0  0  0  0  0  0  0  0  0  0  0  # atno 17321 bound_to 7965
  140.3827  144.2715  150.5907 LP  0  0  0  0  0  0  0  0  0  0  0  0  # atno 17342 bound_to 10162
  140.5218  143.2264  151.8376 LP  0  0  0  0  0  0  0  0  0  0  0  0  # atno 17343 bound_to 10162
  157.1657  131.0356  151.2819 LP  0  0  0  0  0  0  0  0  0  0  0  0  # atno 17370 bound_to 10713
  157.4272  130.7470  149.6961 LP  0  0  0  0  0  0  0  0  0  0  0  0  # atno 17371 bound_to 10713
  139.9044  134.8482  156.1764 LP  0  0  0  0  0  0  0  0  0  0  0  0  # atno 17394 bound_to 11000
  141.0533  133.6877  156.1814 LP  0  0  0  0  0  0  0  0  0  0  0  0  # atno 17395 bound_to 11000

$$$$
