AV-unprocessed.smi:2682|AV-procd|sdf|10374|dock4
  -GOLD-   2272014403D 1   1.00000     0.00000
 Structure written by MMmdl.
 30 30  0  0  0  0  0  0  0  0  1 V2000
  153.3965  142.5268  162.4444 C   0  0  0  0  0  0  0  0  0  0  0  0
  153.2898  142.5613  161.0321 O   0  0  0  0  0  0  0  0  0  0  0  0
  152.0976  143.1920  160.5951 C   0  0  0  0  0  0  0  0  0  0  0  0
  152.1194  143.3050  159.0681 C   0  0  0  0  0  0  0  0  0  0  0  0
  151.1390  142.4360  158.5261 O   0  0  0  0  0  0  0  0  0  0  0  0
  150.8017  142.7601  157.1864 C   0  0  0  0  0  0  0  0  0  0  0  0
  150.1672  141.5389  156.5233 C   0  0  0  0  0  0  0  0  0  0  0  0
  150.3919  140.4220  156.9871 O   0  0  0  0  0  0  0  0  0  0  0  0
  149.3920  141.8009  155.4518 N   0  0  0  0  0  0  0  0  0  0  0  0
  148.7006  140.9194  154.6026 C   0  0  0  0  0  0  0  0  0  0  0  0
  147.3751  140.9936  154.3099 C   0  0  0  0  0  0  0  0  0  0  0  0
  146.7485  140.0293  153.4305 C   0  0  0  0  0  0  0  0  0  0  0  0
  147.5081  139.0516  152.9149 C   0  0  0  0  0  0  0  0  0  0  0  0
  148.8690  138.9691  153.2194 N   0  0  0  0  0  0  0  0  0  0  0  0
  149.5218  139.8354  154.0302 C   0  0  0  0  0  0  0  0  0  0  0  0
  150.7241  139.6907  154.2495 O   0  0  0  0  0  0  0  0  0  0  0  0
  154.3258  142.0343  162.7298 H   0  0  0  0  0  0  0  0  0  0  0  0
  152.5702  141.9705  162.8890 H   0  0  0  0  0  0  0  0  0  0  0  0
  153.4063  143.5338  162.8633 H   0  0  0  0  0  0  0  0  0  0  0  0
  151.2412  142.5901  160.9028 H   0  0  0  0  0  0  0  0  0  0  0  0
  151.9859  144.1781  161.0488 H   0  0  0  0  0  0  0  0  0  0  0  0
  151.9437  144.3361  158.7580 H   0  0  0  0  0  0  0  0  0  0  0  0
  153.1030  143.0136  158.6971 H   0  0  0  0  0  0  0  0  0  0  0  0
  150.0932  143.5894  157.1583 H   0  0  0  0  0  0  0  0  0  0  0  0
  151.6930  143.0623  156.6337 H   0  0  0  0  0  0  0  0  0  0  0  0
  149.2633  142.7783  155.2313 H   0  0  0  0  0  0  0  0  0  0  0  0
  146.7395  141.7567  154.7272 H   0  0  0  0  0  0  0  0  0  0  0  0
  145.6962  140.0957  153.1965 H   0  0  0  0  0  0  0  0  0  0  0  0
  147.1473  138.2803  152.2506 H   0  0  0  0  0  0  0  0  0  0  0  0
  149.3875  138.2098  152.8016 H   0  0  0  0  0  0  0  0  0  0  0  0
  1  2  1  0  0  0  0
  1 17  1  0  0  0  0
  1 18  1  0  0  0  0
  1 19  1  0  0  0  0
  2  3  1  0  0  0  0
  3  4  1  0  0  0  0
  3 20  1  0  0  0  0
  3 21  1  0  0  0  0
  4  5  1  0  0  0  0
  4 22  1  0  0  0  0
  4 23  1  0  0  0  0
  5  6  1  0  0  0  0
  6  7  1  0  0  0  0
  6 24  1  0  0  0  0
  6 25  1  0  0  0  0
  7  8  2  0  0  0  0
  7  9  1  0  0  0  0
  9 26  1  0  0  0  0
  9 10  1  0  0  0  0
 10 11  2  0  0  0  0
 10 15  1  0  0  0  0
 11 12  1  0  0  0  0
 11 27  1  0  0  0  0
 12 13  2  0  0  0  0
 12 28  1  0  0  0  0
 13 14  1  0  0  0  0
 13 29  1  0  0  0  0
 14 15  1  0  0  0  0
 14 30  1  0  0  0  0
 15 16  2  0  0  0  0
M  END
> <s_m_source_file>
AV-unprocessed.smi

> <i_m_source_file_index>
2682

> <i_lp_mmshare_version>
43012

> <i_f3d_flags>
0

> <s_epik_input>
W0NIM11PW0NIMl1bQ0gyXU9bQ0gyXUMoPU8pW05IXWMxW2NIXVtjSF1bY0hdbmMxW09IXQ==

> <s_epik_cmdline>
J2VwaWtfcHl0aG9uJywgJy1waCcsICc3LjAnLCAnLXRuJywgJzgnLCAnLW1hJywgJzIwMCcsICctbWV0YWxfYmluZGluZycsICctaW1hZScsICc8aW5maWxlLm1hZT4nLCAnLW9tYWUnLCAnPG91dGZpbGUubWFlPic=

> <r_lp_tautomer_probability>
1

> <r_epik_Ionization_Penalty>
0.000101939

> <r_epik_Ionization_Penalty_Charging>
0.000101884

> <r_epik_Ionization_Penalty_Neutral>
5.41789e-08

> <r_epik_State_Penalty>
-0

> <r_epik_Charging_Adjusted_Penalty>
0.000101884

> <i_epik_Tot_Q>
0

> <i_epik_Tot_abs_Q>
0

> <r_epik_Metal_State_Penalty>
0.0807852

> <b_epik_Metal_Only>
0

> <s_lp_Force_Field>
OPLS_2005

> <r_lp_Energy>
15.1735

> <b_lp_Chiralities_Consistent>
1

> <s_lp_Variant>
AV-unprocessed.smi:2682-1

> <Gold.Version>
5.8.1

> <Gold.Id.Protein>
6NUR|6NUR_protein|mol2

> <Gold.PLP.Fitness>
37.1124

> <Gold.PLP.PLP>
-32.1673

> <Gold.PLP.part.hbond>
-3.8937

> <Gold.PLP.part.metal>
0.0000

> <Gold.PLP.part.buried>
-2.5010

> <Gold.PLP.part.nonpolar>
-27.8833

> <Gold.PLP.part.repulsive>
0.4375

> <Gold.PLP.ligand.clash>
0.0000

> <Gold.PLP.ligand.torsion>
1.3292

> <Gold.PLP.Chemscore.Hbond>
2.3205

> <Gold.PLP.Chemscore.CHOScore>
0.1870

> <Gold.PLP.Chemscore.Metal>
0.0000

> <Gold.Chemscore.Hbonds>
donor molecule, donor type, donor heavy atom, donor atom, acceptor molecule, acceptor atom, score
      L1  H     9    26       P1  8028  1.00
      L1  H    14    30       P1  7948  0.47
      P1  H  7989  7998       L1    16  1.00
      L1  C    13    29       P1  7948  0.33

> <Gold.PLP.Chemscore.Internal.Correction>
0.0809

> <Gold.Rescore>
     Score         DG    S(hbond)    S(metal)    S(lipo)     H(rot)  DE(clash)    DE(int)     intcor
     13.54     -15.23       2.30        0.00      65.28       2.17       0.24       1.46       ----

> <Gold.Chemscore.Fitness>
13.5383

> <Gold.Chemscore.DG>
-15.2347

> <Gold.Chemscore.ZeroCoef>
-5.4800

> <Gold.Chemscore.Hbond>
2.3007

> <Gold.Chemscore.Metal>
0.0000

> <Gold.Chemscore.Lipo>
65.2768

> <Gold.Chemscore.Internal_Hbond>
0.0000

> <Gold.Chemscore.DEClash>
0.2405

> <Gold.Chemscore.DEInternal>
1.4558

> <Gold.Chemscore.Rot>
2.1746

> <Gold.Chemscore.Internal.Correction>
   9.000000E+99

> <Gold.Chemscore.Hbonds>
donor molecule, donor type, donor heavy atom, donor atom, acceptor molecule, acceptor atom, score
      L1  H     9    26       P1  8028  0.93
      L1  H    14    30       P1  7948  0.41
      P1  H  7989  7998       L1    16  0.78

> <Gold.Chemscore.Hbond.Weighted>
-7.6842

> <Gold.Chemscore.Metal.Weighted>
-0.0000

> <Gold.Chemscore.Lipo.Weighted>
-7.6374

> <Gold.Chemscore.Internal_Hbond.Weighted>
0.0000

> <Gold.Chemscore.DEClash.Weighted>
0.2405

> <Gold.Chemscore.DEInternal.Weighted>
1.4558

> <Gold.Chemscore.Rot.Weighted>
5.5669

> <Gold.Chemscore.Internal.Correction.Weighted>
   9.000000E+99

> <Gold.Protein.RotatedTorsions>
[ 6907 6896 6895 6894 ] final  -21.71 input  -60.11 | X-H torsion
[ 7974 7965 7964 7962 ] final  149.10 input  175.53 | X-H torsion
[ 8008 7997 7996 7995 ] final   55.92 input   59.86 | X-H torsion
[ 10167 10162 10161 10158 ] final -145.54 input  -65.29 | X-H torsion
[ 10718 10713 10712 10709 ] final   91.44 input   66.30 | X-H torsion
[ 10763 10752 10751 10750 ] final  103.46 input  -60.55 | X-H torsion
[ 11005 11000 10999 10996 ] final    3.72 input  -57.11 | X-H torsion

> <Gold.Protein.ActiveResidues>
 VAL166  LYS551  ARG553  GLY616  TRP617  ASP618  TYR619  PRO620  LYS621  CYS622 
 ASP623  PHE694  ASN695  SER759  ASP760  ASP761  ALA762  ILE779  LEU786  VAL792 
 PHE793  MET794  SER795  GLU796  ALA797  LYS798  CYS799  TRP800  GLU811  SER814 

> <Gold.Protein.RotatedAtoms>
  151.2293  135.0548  159.8980 H   0  0  0  0  0  0  0  0  0  0  0  0  # atno 6907 bound_to 6896
  152.5407  134.0555  159.8139 H   0  0  0  0  0  0  0  0  0  0  0  0  # atno 6908 bound_to 6896
  151.0732  133.5401  159.2657 H   0  0  0  0  0  0  0  0  0  0  0  0  # atno 6909 bound_to 6896
  144.8463  139.6238  143.5994 H   0  0  0  0  0  0  0  0  0  0  0  0  # atno 7974 bound_to 7965
  155.5090  140.3476  155.4385 H   0  0  0  0  0  0  0  0  0  0  0  0  # atno 8008 bound_to 7997
  156.0862  140.1399  156.9678 H   0  0  0  0  0  0  0  0  0  0  0  0  # atno 8009 bound_to 7997
  154.4608  140.0935  156.6864 H   0  0  0  0  0  0  0  0  0  0  0  0  # atno 8010 bound_to 7997
  139.7796  143.8119  152.2637 H   0  0  0  0  0  0  0  0  0  0  0  0  # atno 10167 bound_to 10162
  157.6960  131.0407  150.3730 H   0  0  0  0  0  0  0  0  0  0  0  0  # atno 10718 bound_to 10713
  153.3530  135.3976  155.1660 H   0  0  0  0  0  0  0  0  0  0  0  0  # atno 10763 bound_to 10752
  154.8666  135.3661  154.5198 H   0  0  0  0  0  0  0  0  0  0  0  0  # atno 10764 bound_to 10752
  153.5651  135.7080  153.5590 H   0  0  0  0  0  0  0  0  0  0  0  0  # atno 10765 bound_to 10752
  140.5900  133.9933  155.8084 H   0  0  0  0  0  0  0  0  0  0  0  0  # atno 11005 bound_to 11000
  146.2747  139.6723  142.9271 LP  0  0  0  0  0  0  0  0  0  0  0  0  # atno 17320 bound_to 7965
  145.4590  141.0432  143.2762 LP  0  0  0  0  0  0  0  0  0  0  0  0  # atno 17321 bound_to 7965
  139.8178  144.7308  150.9612 LP  0  0  0  0  0  0  0  0  0  0  0  0  # atno 17342 bound_to 10162
  140.7818  143.4188  151.0874 LP  0  0  0  0  0  0  0  0  0  0  0  0  # atno 17343 bound_to 10162
  156.4153  130.3942  149.6863 LP  0  0  0  0  0  0  0  0  0  0  0  0  # atno 17370 bound_to 10713
  156.4133  130.7732  151.2746 LP  0  0  0  0  0  0  0  0  0  0  0  0  # atno 17371 bound_to 10713
  141.0941  133.9871  157.3189 LP  0  0  0  0  0  0  0  0  0  0  0  0  # atno 17394 bound_to 11000
  139.9278  135.0201  156.8297 LP  0  0  0  0  0  0  0  0  0  0  0  0  # atno 17395 bound_to 11000

$$$$
