AV-unprocessed.smi:1198|AV-procd|sdf|5012|dock1
  -GOLD-   22720 4 23D 1   1.00000     0.00000
 Structure written by MMmdl.
 40 41  0  0  0  0  0  0  0  0  2 V2000
  150.9488  142.8670  157.5743 C   0  0  0  0  0  0  0  0  0  0  0  0
  151.5518  142.1381  156.5107 O   0  0  0  0  0  0  0  0  0  0  0  0
  150.7857  141.2109  155.8347 C   0  0  0  0  0  0  0  0  0  0  0  0
  149.3975  141.4282  155.7348 C   0  0  0  0  0  0  0  0  0  0  0  0
  148.6121  140.4863  155.0445 C   0  0  0  0  0  0  0  0  0  0  0  0
  149.2314  139.3526  154.4810 C   0  0  0  0  0  0  0  0  0  0  0  0
  148.4084  138.4317  153.7772 N   0  0  0  0  0  0  0  0  0  0  0  0
  147.0680  138.3959  153.6857 C   0  0  0  0  0  0  0  0  0  0  0  0
  146.2926  139.1978  154.2052 O   0  0  0  0  0  0  0  0  0  0  0  0
  146.6637  137.3637  152.9321 N   0  0  0  0  0  0  0  0  0  0  0  0
  145.2733  137.0413  152.6295 C   0  0  0  0  0  0  0  0  0  0  0  0
  145.1277  135.6525  151.9776 C   0  0  2  0  0  0  0  0  0  0  0  0
  145.2722  135.6360  150.4567 C   0  0  0  0  0  0  0  0  0  0  0  0
  144.6142  134.3120  150.0772 C   0  0  0  0  0  0  0  0  0  0  0  0
  143.4920  134.1430  151.0258 N   0  3  1  0  0  0  0  0  0  0  0  0
  143.1825  132.7348  151.3509 C   0  0  0  0  0  0  0  0  0  0  0  0
  143.7578  134.9992  152.2064 C   0  0  0  0  0  0  0  0  0  0  0  0
  150.6349  139.2288  154.6278 C   0  0  0  0  0  0  0  0  0  0  0  0
  151.3941  140.1297  155.2876 N   0  0  0  0  0  0  0  0  0  0  0  0
  151.6830  143.5459  158.0077 H   0  0  0  0  0  0  0  0  0  0  0  0
  150.6041  142.2032  158.3683 H   0  0  0  0  0  0  0  0  0  0  0  0
  150.1105  143.4685  157.2200 H   0  0  0  0  0  0  0  0  0  0  0  0
  148.9438  142.3024  156.1778 H   0  0  0  0  0  0  0  0  0  0  0  0
  147.5459  140.6344  154.9530 H   0  0  0  0  0  0  0  0  0  0  0  0
  148.9060  137.7385  153.2380 H   0  0  0  0  0  0  0  0  0  0  0  0
  147.3686  136.7586  152.5365 H   0  0  0  0  0  0  0  0  0  0  0  0
  144.6737  137.0964  153.5398 H   0  0  0  0  0  0  0  0  0  0  0  0
  144.8883  137.8114  151.9607 H   0  0  0  0  0  0  0  0  0  0  0  0
  145.8850  134.9836  152.3907 H   0  0  0  0  0  0  0  0  0  0  0  0
  144.7230  136.4676  150.0128 H   0  0  0  0  0  0  0  0  0  0  0  0
  146.3098  135.6996  150.1268 H   0  0  0  0  0  0  0  0  0  0  0  0
  144.2699  134.2950  149.0427 H   0  0  0  0  0  0  0  0  0  0  0  0
  145.3347  133.5019  150.2040 H   0  0  0  0  0  0  0  0  0  0  0  0
  144.0169  132.2587  151.8679 H   0  0  0  0  0  0  0  0  0  0  0  0
  142.9734  132.1699  150.4417 H   0  0  0  0  0  0  0  0  0  0  0  0
  142.3032  132.6772  151.9930 H   0  0  0  0  0  0  0  0  0  0  0  0
  143.7346  134.4438  153.1453 H   0  0  0  0  0  0  0  0  0  0  0  0
  142.9708  135.7528  152.2539 H   0  0  0  0  0  0  0  0  0  0  0  0
  151.1881  138.4084  154.1989 H   0  0  0  0  0  0  0  0  0  0  0  0
  142.6744  134.5314  150.5772 H   0  0  0  0  0  0  0  0  0  0  0  0
  1  2  1  0  0  0  0
  1 20  1  0  0  0  0
  1 21  1  0  0  0  0
  1 22  1  0  0  0  0
  2  3  1  0  0  0  0
  3 19  1  0  0  0  0
  3  4  2  0  0  0  0
  4  5  1  0  0  0  0
  4 23  1  0  0  0  0
  5  6  2  0  0  0  0
  5 24  1  0  0  0  0
  6  7  1  0  0  0  0
  6 18  1  0  0  0  0
  7  8  1  0  0  0  0
  7 25  1  0  0  0  0
  8  9  2  0  0  0  0
  8 10  1  0  0  0  0
 10 11  1  0  0  0  0
 10 26  1  0  0  0  0
 11 12  1  0  0  0  0
 11 27  1  0  0  0  0
 11 28  1  0  0  0  0
 12 17  1  0  0  0  0
 12 13  1  0  0  0  0
 12 29  1  0  0  0  0
 13 14  1  0  0  0  0
 13 30  1  0  0  0  0
 13 31  1  0  0  0  0
 14 15  1  0  0  0  0
 14 32  1  0  0  0  0
 14 33  1  0  0  0  0
 15 16  1  0  0  0  0
 15 17  1  0  0  0  0
 15 40  1  0  0  0  0
 16 34  1  0  0  0  0
 16 35  1  0  0  0  0
 16 36  1  0  0  0  0
 17 37  1  0  0  0  0
 17 38  1  0  0  0  0
 18 19  2  0  0  0  0
 18 39  1  0  0  0  0
M  CHG  1  15   1
M  END
> <s_m_source_file>
AV-unprocessed.smi

> <i_m_source_file_index>
1198

> <i_lp_mmshare_version>
43012

> <i_f3d_flags>
0

> <s_epik_input>
W0NIM11PYzFbY0hdW2NIXWMoW2NIXW4xKVtOSF1DKD1PKVtOSF1bQ0gyXVtDQEBIXTJbQ0gyXVtDSDJdTihbQ0gzXSlbQ0gyXTI=

> <s_epik_cmdline>
J2VwaWtfcHl0aG9uJywgJy1waCcsICc3LjAnLCAnLXRuJywgJzgnLCAnLW1hJywgJzIwMCcsICctbWV0YWxfYmluZGluZycsICctaW1hZScsICc8aW5maWxlLm1hZT4nLCAnLW9tYWUnLCAnPG91dGZpbGUubWFlPic=

> <r_lp_tautomer_probability>
1

> <r_epik_Ionization_Penalty>
0.00131396

> <r_epik_Ionization_Penalty_Charging>
0.0012301

> <r_epik_Ionization_Penalty_Neutral>
8.38549e-05

> <r_epik_State_Penalty>
0.00081314

> <r_epik_Charging_Adjusted_Penalty>
0.00204324

> <i_epik_Tot_Q>
1

> <i_epik_Tot_abs_Q>
1

> <r_epik_Metal_State_Penalty>
-0

> <b_epik_Metal_Only>
0

> <s_lp_Force_Field>
OPLS_2005

> <r_lp_Energy>
29.8617

> <b_lp_Chiralities_Consistent>
1

> <s_lp_Variant>
AV-unprocessed.smi:1198-3

> <Gold.Version>
5.8.1

> <Gold.Id.Protein>
6NUR|6NUR_protein|mol2

> <Gold.PLP.Fitness>
40.0454

> <Gold.PLP.PLP>
-28.9972

> <Gold.PLP.part.hbond>
-4.0741

> <Gold.PLP.part.metal>
0.0000

> <Gold.PLP.part.buried>
0.4993

> <Gold.PLP.part.nonpolar>
-26.1313

> <Gold.PLP.part.repulsive>
0.2476

> <Gold.PLP.ligand.clash>
0.0000

> <Gold.PLP.ligand.torsion>
0.7559

> <Gold.PLP.Chemscore.Hbond>
4.1800

> <Gold.PLP.Chemscore.CHOScore>
0.0000

> <Gold.PLP.Chemscore.Metal>
0.0000

> <Gold.Chemscore.Hbonds>
donor molecule, donor type, donor heavy atom, donor atom, acceptor molecule, acceptor atom, score
      L1  H     7    25       P1  7948  1.00
      L1  H    10    26       P1  7948  1.00
      L1  H    15    40       P1 10186  2.00
      P1  H  7989  7998       L1    19  0.13

> <Gold.PLP.Chemscore.Internal.Correction>
0.0201

> <Gold.Rescore>
     Score         DG    S(hbond)    S(metal)    S(lipo)     H(rot)  DE(clash)    DE(int)     intcor
     14.21     -17.86       2.45        0.00      69.10       1.51       1.49       2.17       ----

> <Gold.Chemscore.Fitness>
14.2060

> <Gold.Chemscore.DG>
-17.8640

> <Gold.Chemscore.ZeroCoef>
-5.4800

> <Gold.Chemscore.Hbond>
2.4484

> <Gold.Chemscore.Metal>
0.0000

> <Gold.Chemscore.Lipo>
69.0987

> <Gold.Chemscore.Internal_Hbond>
0.0000

> <Gold.Chemscore.DEClash>
1.4871

> <Gold.Chemscore.DEInternal>
2.1708

> <Gold.Chemscore.Rot>
1.5149

> <Gold.Chemscore.Internal.Correction>
   9.000000E+99

> <Gold.Chemscore.Hbonds>
donor molecule, donor type, donor heavy atom, donor atom, acceptor molecule, acceptor atom, score
      L1  H     7    25       P1  7948  0.91
      L1  H    10    26       P1  7948  1.00
      L1  H    15    40       P1 10186  0.29

> <Gold.Chemscore.Hbond.Weighted>
-8.1776

> <Gold.Chemscore.Metal.Weighted>
-0.0000

> <Gold.Chemscore.Lipo.Weighted>
-8.0846

> <Gold.Chemscore.Internal_Hbond.Weighted>
0.0000

> <Gold.Chemscore.DEClash.Weighted>
1.4871

> <Gold.Chemscore.DEInternal.Weighted>
2.1708

> <Gold.Chemscore.Rot.Weighted>
3.8781

> <Gold.Chemscore.Internal.Correction.Weighted>
   9.000000E+99

> <Gold.Protein.RotatedTorsions>
[ 6907 6896 6895 6894 ] final   51.64 input  -60.11 | X-H torsion
[ 7974 7965 7964 7962 ] final  -36.89 input  175.53 | X-H torsion
[ 8008 7997 7996 7995 ] final   47.20 input   59.86 | X-H torsion
[ 10167 10162 10161 10158 ] final   81.73 input  -65.29 | X-H torsion
[ 10718 10713 10712 10709 ] final  114.11 input   66.30 | X-H torsion
[ 10763 10752 10751 10750 ] final   29.45 input  -60.55 | X-H torsion
[ 11005 11000 10999 10996 ] final   88.02 input  -57.11 | X-H torsion

> <Gold.Protein.ActiveResidues>
 VAL166  LYS551  ARG553  GLY616  TRP617  ASP618  TYR619  PRO620  LYS621  CYS622 
 ASP623  PHE694  ASN695  SER759  ASP760  ASP761  ALA762  ILE779  LEU786  VAL792 
 PHE793  MET794  SER795  GLU796  ALA797  LYS798  CYS799  TRP800  GLU811  SER814 

> <Gold.Protein.RotatedAtoms>
  152.3148  134.7453  160.0327 H   0  0  0  0  0  0  0  0  0  0  0  0  # atno 6907 bound_to 6896
  151.7921  133.3355  159.3510 H   0  0  0  0  0  0  0  0  0  0  0  0  # atno 6908 bound_to 6896
  150.7339  134.5763  159.5960 H   0  0  0  0  0  0  0  0  0  0  0  0  # atno 6909 bound_to 6896
  146.0622  140.6332  142.8992 H   0  0  0  0  0  0  0  0  0  0  0  0  # atno 7974 bound_to 7965
  155.3651  140.3421  155.4241 H   0  0  0  0  0  0  0  0  0  0  0  0  # atno 8008 bound_to 7997
  156.1693  140.1626  156.8510 H   0  0  0  0  0  0  0  0  0  0  0  0  # atno 8009 bound_to 7997
  154.5217  140.0765  156.8166 H   0  0  0  0  0  0  0  0  0  0  0  0  # atno 8010 bound_to 7997
  139.9362  144.6120  150.8296 H   0  0  0  0  0  0  0  0  0  0  0  0  # atno 10167 bound_to 10162
  157.6300  131.0994  150.7139 H   0  0  0  0  0  0  0  0  0  0  0  0  # atno 10718 bound_to 10713
  153.0430  135.6489  154.0892 H   0  0  0  0  0  0  0  0  0  0  0  0  # atno 10763 bound_to 10752
  154.0595  135.2889  155.3329 H   0  0  0  0  0  0  0  0  0  0  0  0  # atno 10764 bound_to 10752
  154.6667  135.5371  153.8151 H   0  0  0  0  0  0  0  0  0  0  0  0  # atno 10765 bound_to 10752
  139.8906  134.8460  156.2941 H   0  0  0  0  0  0  0  0  0  0  0  0  # atno 11005 bound_to 11000
  144.7181  140.4281  143.7028 LP  0  0  0  0  0  0  0  0  0  0  0  0  # atno 17320 bound_to 7965
  145.6540  139.1570  143.2846 LP  0  0  0  0  0  0  0  0  0  0  0  0  # atno 17321 bound_to 7965
  140.7624  143.3196  151.2652 LP  0  0  0  0  0  0  0  0  0  0  0  0  # atno 17342 bound_to 10162
  139.6741  143.9968  152.2771 LP  0  0  0  0  0  0  0  0  0  0  0  0  # atno 17343 bound_to 10162
  156.7480  130.4760  149.5463 LP  0  0  0  0  0  0  0  0  0  0  0  0  # atno 17370 bound_to 10713
  156.1496  130.6301  151.0578 LP  0  0  0  0  0  0  0  0  0  0  0  0  # atno 17371 bound_to 10713
  140.9956  133.7182  156.0881 LP  0  0  0  0  0  0  0  0  0  0  0  0  # atno 17394 bound_to 11000
  140.7566  134.3985  157.5533 LP  0  0  0  0  0  0  0  0  0  0  0  0  # atno 17395 bound_to 11000

$$$$
