AV-unprocessed.smi:322|AV-procd|sdf|2335|dock7
  -GOLD-   2262022243D 1   1.00000     0.00000
 Structure written by MMmdl.
 43 45  0  0  0  0  0  0  0  0  1 V2000
  156.7857  140.8625  162.9111 O   0  0  0  0  0  0  0  0  0  0  0  0
  155.7038  140.3036  162.1936 C   0  0  0  0  0  0  0  0  0  0  0  0
  154.6854  141.3119  161.7412 C   0  0  0  0  0  0  0  0  0  0  0  0
  154.1131  142.1898  162.5684 N   0  0  0  0  0  0  0  0  0  0  0  0
  153.2572  142.8833  161.7362 C   0  0  0  0  0  0  0  0  0  0  0  0
  152.3665  143.9446  162.0137 C   0  0  0  0  0  0  0  0  0  0  0  0
  151.5787  144.5025  160.9856 C   0  0  0  0  0  0  0  0  0  0  0  0
  151.6709  144.0089  159.6682 C   0  0  0  0  0  0  0  0  0  0  0  0
  152.5524  142.9519  159.3703 C   0  0  0  0  0  0  0  0  0  0  0  0
  153.3357  142.3974  160.4005 C   0  0  0  0  0  0  0  0  0  0  0  0
  154.2783  141.3743  160.4480 N   0  0  0  0  0  0  0  0  0  0  0  0
  154.7151  140.5473  159.3304 C   0  0  0  0  0  0  0  0  0  0  0  0
  153.9801  139.1931  159.2632 C   0  0  2  0  0  0  0  0  0  0  0  0
  154.9293  138.1611  159.0788 O   0  0  0  0  0  0  0  0  0  0  0  0
  152.9785  139.1454  158.0988 C   0  0  0  0  0  0  0  0  0  0  0  0
  153.6615  139.4418  156.8890 O   0  0  0  0  0  0  0  0  0  0  0  0
  152.9860  138.9937  155.7220 C   0  0  0  0  0  0  0  0  0  0  0  0
  151.6249  139.6405  155.5269 C   0  0  0  0  0  0  0  0  0  0  0  0
  151.2898  140.8157  156.2323 C   0  0  0  0  0  0  0  0  0  0  0  0
  150.0338  141.4233  156.0401 C   0  0  0  0  0  0  0  0  0  0  0  0
  149.1100  140.8621  155.1369 C   0  0  0  0  0  0  0  0  0  0  0  0
  147.5724  141.6076  154.8991 Cl  0  0  0  0  0  0  0  0  0  0  0  0
  149.4441  139.6931  154.4253 C   0  0  0  0  0  0  0  0  0  0  0  0
  150.7000  139.0851  154.6180 C   0  0  0  0  0  0  0  0  0  0  0  0
  156.4481  141.2766  163.6902 H   0  0  0  0  0  0  0  0  0  0  0  0
  156.1069  139.7797  161.3274 H   0  0  0  0  0  0  0  0  0  0  0  0
  155.2125  139.5631  162.8250 H   0  0  0  0  0  0  0  0  0  0  0  0
  152.2888  144.3292  163.0198 H   0  0  0  0  0  0  0  0  0  0  0  0
  150.9003  145.3129  161.2087 H   0  0  0  0  0  0  0  0  0  0  0  0
  151.0646  144.4422  158.8862 H   0  0  0  0  0  0  0  0  0  0  0  0
  152.6269  142.5738  158.3614 H   0  0  0  0  0  0  0  0  0  0  0  0
  154.5670  141.1055  158.4057 H   0  0  0  0  0  0  0  0  0  0  0  0
  155.7911  140.3892  159.4141 H   0  0  0  0  0  0  0  0  0  0  0  0
  153.4532  139.0214  160.2021 H   0  0  0  0  0  0  0  0  0  0  0  0
  155.3365  138.2760  158.2338 H   0  0  0  0  0  0  0  0  0  0  0  0
  152.5627  138.1403  158.0140 H   0  0  0  0  0  0  0  0  0  0  0  0
  152.1427  139.8247  158.2748 H   0  0  0  0  0  0  0  0  0  0  0  0
  153.6021  139.2497  154.8600 H   0  0  0  0  0  0  0  0  0  0  0  0
  152.9007  137.9057  155.7287 H   0  0  0  0  0  0  0  0  0  0  0  0
  151.9951  141.2523  156.9244 H   0  0  0  0  0  0  0  0  0  0  0  0
  149.7811  142.3211  156.5850 H   0  0  0  0  0  0  0  0  0  0  0  0
  148.7388  139.2624  153.7299 H   0  0  0  0  0  0  0  0  0  0  0  0
  150.9494  138.1908  154.0658 H   0  0  0  0  0  0  0  0  0  0  0  0
  1  2  1  0  0  0  0
  1 25  1  0  0  0  0
  2  3  1  0  0  0  0
  2 26  1  0  0  0  0
  2 27  1  0  0  0  0
  3 11  1  0  0  0  0
  3  4  2  0  0  0  0
  4  5  1  0  0  0  0
  5 10  2  0  0  0  0
  5  6  1  0  0  0  0
  6  7  2  0  0  0  0
  6 28  1  0  0  0  0
  7  8  1  0  0  0  0
  7 29  1  0  0  0  0
  8  9  2  0  0  0  0
  8 30  1  0  0  0  0
  9 10  1  0  0  0  0
  9 31  1  0  0  0  0
 10 11  1  0  0  0  0
 11 12  1  0  0  0  0
 12 13  1  0  0  0  0
 12 32  1  0  0  0  0
 12 33  1  0  0  0  0
 13 14  1  0  0  0  0
 13 15  1  0  0  0  0
 13 34  1  0  0  0  0
 14 35  1  0  0  0  0
 15 16  1  0  0  0  0
 15 36  1  0  0  0  0
 15 37  1  0  0  0  0
 16 17  1  0  0  0  0
 17 18  1  0  0  0  0
 17 38  1  0  0  0  0
 17 39  1  0  0  0  0
 18 24  1  0  0  0  0
 18 19  2  0  0  0  0
 19 20  1  0  0  0  0
 19 40  1  0  0  0  0
 20 21  2  0  0  0  0
 20 41  1  0  0  0  0
 21 22  1  0  0  0  0
 21 23  1  0  0  0  0
 23 24  2  0  0  0  0
 23 42  1  0  0  0  0
 24 43  1  0  0  0  0
M  END
> <s_m_source_file>
AV-unprocessed.smi

> <i_m_source_file_index>
322

> <i_lp_mmshare_version>
43012

> <i_f3d_flags>
0

> <s_epik_input>
W2NIXTFbY0hdW2NIXVtjSF1jKGMxMiluKGMobjIpW0NIMl1bT0hdKVtDSDJdW0NASF0oW09IXSlbQ0gyXU9bQ0gyXWMzW2NIXVtjSF1jKENsKVtjSF1bY0hdMw==

> <s_epik_cmdline>
J2VwaWtfcHl0aG9uJywgJy1waCcsICc3LjAnLCAnLXRuJywgJzgnLCAnLW1hJywgJzIwMCcsICctbWV0YWxfYmluZGluZycsICctaW1hZScsICc8aW5maWxlLm1hZT4nLCAnLW9tYWUnLCAnPG91dGZpbGUubWFlPic=

> <r_epik_Ionization_Penalty>
0.0649918

> <r_epik_Ionization_Penalty_Charging>
0

> <r_epik_Ionization_Penalty_Neutral>
0.0649918

> <r_epik_State_Penalty>
0.0565791

> <r_epik_Charging_Adjusted_Penalty>
0.0565791

> <i_epik_Tot_Q>
0

> <i_epik_Tot_abs_Q>
0

> <r_epik_Metal_State_Penalty>
5.93658e-05

> <b_epik_Metal_Only>
0

> <s_lp_Force_Field>
OPLS_2005

> <r_lp_Energy>
16.0387

> <b_lp_Chiralities_Consistent>
1

> <s_lp_Variant>
AV-unprocessed.smi:322-1

> <Gold.Version>
5.8.1

> <Gold.Id.Protein>
6NUR|6NUR_protein|mol2

> <Gold.PLP.Fitness>
61.6371

> <Gold.PLP.PLP>
-61.2383

> <Gold.PLP.part.hbond>
-2.0000

> <Gold.PLP.part.metal>
0.0000

> <Gold.PLP.part.buried>
-3.0644

> <Gold.PLP.part.nonpolar>
-55.8982

> <Gold.PLP.part.repulsive>
0.0501

> <Gold.PLP.ligand.clash>
0.0000

> <Gold.PLP.ligand.torsion>
1.3760

> <Gold.PLP.Chemscore.Hbond>
1.0000

> <Gold.PLP.Chemscore.CHOScore>
0.0000

> <Gold.PLP.Chemscore.Metal>
0.0000

> <Gold.PLP.Chemscore.Internal.Correction>
0.1508

> <Gold.Rescore>
     Score         DG    S(hbond)    S(metal)    S(lipo)     H(rot)  DE(clash)    DE(int)     intcor
     16.73     -18.38       0.96        0.00     151.35       3.13       0.09       1.55       ----

> <Gold.Chemscore.Fitness>
16.7349

> <Gold.Chemscore.DG>
-18.3751

> <Gold.Chemscore.ZeroCoef>
-5.4800

> <Gold.Chemscore.Hbond>
0.9609

> <Gold.Chemscore.Metal>
0.0000

> <Gold.Chemscore.Lipo>
151.3507

> <Gold.Chemscore.Internal_Hbond>
0.0000

> <Gold.Chemscore.DEClash>
0.0865

> <Gold.Chemscore.DEInternal>
1.5537

> <Gold.Chemscore.Rot>
3.1337

> <Gold.Chemscore.Internal.Correction>
   9.000000E+99

> <Gold.Chemscore.Hbond.Weighted>
-3.2095

> <Gold.Chemscore.Metal.Weighted>
-0.0000

> <Gold.Chemscore.Lipo.Weighted>
-17.7080

> <Gold.Chemscore.Internal_Hbond.Weighted>
0.0000

> <Gold.Chemscore.DEClash.Weighted>
0.0865

> <Gold.Chemscore.DEInternal.Weighted>
1.5537

> <Gold.Chemscore.Rot.Weighted>
8.0224

> <Gold.Chemscore.Internal.Correction.Weighted>
   9.000000E+99

> <Gold.Protein.RotatedTorsions>
[ 6907 6896 6895 6894 ] final -118.76 input  -60.11 | X-H torsion
[ 7974 7965 7964 7962 ] final -160.61 input  175.53 | X-H torsion
[ 8008 7997 7996 7995 ] final  -54.10 input   59.86 | X-H torsion
[ 10167 10162 10161 10158 ] final   37.89 input  -65.29 | X-H torsion
[ 10718 10713 10712 10709 ] final  -11.43 input   66.30 | X-H torsion
[ 10763 10752 10751 10750 ] final   58.65 input  -60.55 | X-H torsion
[ 11005 11000 10999 10996 ] final   36.56 input  -57.11 | X-H torsion

> <Gold.Protein.ActiveResidues>
 VAL166  LYS551  ARG553  GLY616  TRP617  ASP618  TYR619  PRO620  LYS621  CYS622 
 ASP623  PHE694  ASN695  SER759  ASP760  ASP761  ALA762  ILE779  LEU786  VAL792 
 PHE793  MET794  SER795  GLU796  ALA797  LYS798  CYS799  TRP800  GLU811  SER814 

> <Gold.Protein.RotatedAtoms>
  150.8247  133.8192  159.3123 H   0  0  0  0  0  0  0  0  0  0  0  0  # atno 6907 bound_to 6896
  151.5939  135.1050  160.0055 H   0  0  0  0  0  0  0  0  0  0  0  0  # atno 6908 bound_to 6896
  152.4333  133.7275  159.6625 H   0  0  0  0  0  0  0  0  0  0  0  0  # atno 6909 bound_to 6896
  144.7420  140.3516  143.6114 H   0  0  0  0  0  0  0  0  0  0  0  0  # atno 7974 bound_to 7965
  154.4152  140.1184  156.5261 H   0  0  0  0  0  0  0  0  0  0  0  0  # atno 8008 bound_to 7997
  155.6653  140.3496  155.4778 H   0  0  0  0  0  0  0  0  0  0  0  0  # atno 8009 bound_to 7997
  155.9679  140.1135  157.0828 H   0  0  0  0  0  0  0  0  0  0  0  0  # atno 8010 bound_to 7997
  140.3989  144.1751  150.6133 H   0  0  0  0  0  0  0  0  0  0  0  0  # atno 10167 bound_to 10162
  156.6591  130.4977  149.6036 H   0  0  0  0  0  0  0  0  0  0  0  0  # atno 10718 bound_to 10713
  152.9876  135.5599  154.5586 H   0  0  0  0  0  0  0  0  0  0  0  0  # atno 10763 bound_to 10752
  154.5010  135.2797  155.1423 H   0  0  0  0  0  0  0  0  0  0  0  0  # atno 10764 bound_to 10752
  154.2853  135.6337  153.5416 H   0  0  0  0  0  0  0  0  0  0  0  0  # atno 10765 bound_to 10752
  140.2314  134.3523  155.7962 H   0  0  0  0  0  0  0  0  0  0  0  0  # atno 11005 bound_to 11000
  145.7270  139.1725  143.2452 LP  0  0  0  0  0  0  0  0  0  0  0  0  # atno 17320 bound_to 7965
  146.1235  140.7279  142.9446 LP  0  0  0  0  0  0  0  0  0  0  0  0  # atno 17321 bound_to 7965
  140.4761  143.2395  151.9021 LP  0  0  0  0  0  0  0  0  0  0  0  0  # atno 17342 bound_to 10162
  139.4785  144.5319  151.8654 LP  0  0  0  0  0  0  0  0  0  0  0  0  # atno 17343 bound_to 10162
  156.2025  130.6628  151.1182 LP  0  0  0  0  0  0  0  0  0  0  0  0  # atno 17370 bound_to 10713
  157.7115  131.0731  150.6482 LP  0  0  0  0  0  0  0  0  0  0  0  0  # atno 17371 bound_to 10713
  141.2217  133.7247  156.8737 LP  0  0  0  0  0  0  0  0  0  0  0  0  # atno 17394 bound_to 11000
  140.1747  134.9075  157.2876 LP  0  0  0  0  0  0  0  0  0  0  0  0  # atno 17395 bound_to 11000

$$$$
