AV-unprocessed.smi:1722|AV-procd|sdf|6944|dock10
  -GOLD-   22720 8153D 1   1.00000     0.00000
 Structure written by MMmdl.
 38 39  0  0  0  0  0  0  0  0  2 V2000
  151.7778  137.7647  157.2613 O   0  0  0  0  0  0  0  0  0  0  0  0
  151.5991  138.7080  156.4916 C   0  0  0  0  0  0  0  0  0  0  0  0
  151.1785  138.4233  155.0508 C   0  0  0  0  0  0  0  0  0  0  0  0
  150.7365  139.6359  154.4547 O   0  0  0  0  0  0  0  0  0  0  0  0
  149.3926  139.9873  154.7531 C   0  0  0  0  0  0  0  0  0  0  0  0
  148.4865  139.1178  153.8633 C   0  0  0  0  0  0  0  0  0  0  0  0
  147.0035  139.4788  154.0444 C   0  0  0  0  0  0  0  0  0  0  0  0
  146.7591  140.9722  153.7760 C   0  0  0  0  0  0  0  0  0  0  0  0
  147.6598  141.8486  154.6607 C   0  0  0  0  0  0  0  0  0  0  0  0
  149.1430  141.4857  154.4808 C   0  0  0  0  0  0  0  0  0  0  0  0
  151.7715  140.0090  156.7978 N   0  0  0  0  0  0  0  0  0  0  0  0
  152.1042  140.6012  158.0277 C   0  0  0  0  0  0  0  0  0  0  0  0
  153.1390  140.2102  158.8219 C   0  0  0  0  0  0  0  0  0  0  0  0
  153.4254  140.8480  160.1009 C   0  0  0  0  0  0  0  0  0  0  0  0
  154.5196  140.3862  161.0470 C   0  0  0  0  0  0  0  0  0  0  0  0
  155.7130  140.5644  160.4825 F   0  0  0  0  0  0  0  0  0  0  0  0
  154.4916  141.0776  162.1866 F   0  0  0  0  0  0  0  0  0  0  0  0
  154.3864  139.0920  161.3375 F   0  0  0  0  0  0  0  0  0  0  0  0
  152.5186  141.8453  160.4034 C   0  0  0  0  0  0  0  0  0  0  0  0
  151.4763  142.2981  159.6725 N   0  5  0  0  0  0  0  0  0  0  0  0
  151.2227  141.6997  158.4744 C   0  0  0  0  0  0  0  0  0  0  0  0
  150.2824  142.0553  157.7629 O   0  0  0  0  0  0  0  0  0  0  0  0
  152.0317  138.0174  154.5053 H   0  0  0  0  0  0  0  0  0  0  0  0
  150.3888  137.6716  155.0443 H   0  0  0  0  0  0  0  0  0  0  0  0
  149.1706  139.7576  155.7972 H   0  0  0  0  0  0  0  0  0  0  0  0
  148.7660  139.2479  152.8169 H   0  0  0  0  0  0  0  0  0  0  0  0
  148.6412  138.0633  154.0945 H   0  0  0  0  0  0  0  0  0  0  0  0
  146.3895  138.8756  153.3748 H   0  0  0  0  0  0  0  0  0  0  0  0
  146.6884  139.2328  155.0592 H   0  0  0  0  0  0  0  0  0  0  0  0
  146.9544  141.1914  152.7255 H   0  0  0  0  0  0  0  0  0  0  0  0
  145.7114  141.2162  153.9532 H   0  0  0  0  0  0  0  0  0  0  0  0
  147.5033  142.9008  154.4231 H   0  0  0  0  0  0  0  0  0  0  0  0
  147.3780  141.7227  155.7068 H   0  0  0  0  0  0  0  0  0  0  0  0
  149.7460  142.1039  155.1450 H   0  0  0  0  0  0  0  0  0  0  0  0
  149.4554  141.7291  153.4644 H   0  0  0  0  0  0  0  0  0  0  0  0
  151.6682  140.6633  156.0356 H   0  0  0  0  0  0  0  0  0  0  0  0
  153.7766  139.3905  158.5342 H   0  0  0  0  0  0  0  0  0  0  0  0
  152.6470  142.3525  161.3834 H   0  0  0  0  0  0  0  0  0  0  0  0
  1  2  2  0  0  0  0
  2  3  1  0  0  0  0
  2 11  1  0  0  0  0
  3  4  1  0  0  0  0
  3 23  1  0  0  0  0
  3 24  1  0  0  0  0
  4  5  1  0  0  0  0
  5 10  1  0  0  0  0
  5  6  1  0  0  0  0
  5 25  1  0  0  0  0
  6  7  1  0  0  0  0
  6 26  1  0  0  0  0
  6 27  1  0  0  0  0
  7  8  1  0  0  0  0
  7 28  1  0  0  0  0
  7 29  1  0  0  0  0
  8  9  1  0  0  0  0
  8 30  1  0  0  0  0
  8 31  1  0  0  0  0
  9 10  1  0  0  0  0
  9 32  1  0  0  0  0
  9 33  1  0  0  0  0
 10 34  1  0  0  0  0
 10 35  1  0  0  0  0
 11 12  1  0  0  0  0
 11 36  1  0  0  0  0
 12 21  1  0  0  0  0
 12 13  2  0  0  0  0
 13 14  1  0  0  0  0
 13 37  1  0  0  0  0
 14 15  1  0  0  0  0
 14 19  2  0  0  0  0
 15 16  1  0  0  0  0
 15 17  1  0  0  0  0
 15 18  1  0  0  0  0
 19 20  1  0  0  0  0
 19 38  1  0  0  0  0
 20 21  1  0  0  0  0
 21 22  2  0  0  0  0
M  CHG  1  20  -1
M  END
> <s_m_source_file>
AV-unprocessed.smi

> <i_m_source_file_index>
1722

> <i_lp_mmshare_version>
43012

> <i_f3d_flags>
0

> <s_epik_input>
Tz1jMVtuSF1bY0hdYyhDKEYpKEYpRilbY0hdYzFbTkhdQyg9TylbQ0gyXU9bQ0hdMltDSDJdW0NIMl1bQ0gyXVtDSDJdW0NIMl0y

> <s_epik_cmdline>
J2VwaWtfcHl0aG9uJywgJy1waCcsICc3LjAnLCAnLXRuJywgJzgnLCAnLW1hJywgJzIwMCcsICctbWV0YWxfYmluZGluZycsICctaW1hZScsICc8aW5maWxlLm1hZT4nLCAnLW9tYWUnLCAnPG91dGZpbGUubWFlPic=

> <r_epik_Ionization_Penalty>
2.55378

> <r_epik_Ionization_Penalty_Charging>
0.0617094

> <r_epik_Ionization_Penalty_Neutral>
2.49207

> <r_epik_State_Penalty>
2.65647

> <r_epik_Charging_Adjusted_Penalty>
2.71818

> <i_epik_Tot_Q>
-1

> <i_epik_Tot_abs_Q>
1

> <r_epik_Metal_State_Penalty>
0.516461

> <b_epik_Metal_Only>
0

> <s_lp_Force_Field>
OPLS_2005

> <r_lp_Energy>
27.5399

> <b_lp_Chiralities_Consistent>
1

> <s_lp_Variant>
AV-unprocessed.smi:1722-2

> <Gold.Version>
5.8.1

> <Gold.Id.Protein>
6NUR|6NUR_protein|mol2

> <Gold.PLP.Fitness>
38.5154

> <Gold.PLP.PLP>
-37.3036

> <Gold.PLP.part.hbond>
-1.2952

> <Gold.PLP.part.metal>
0.0000

> <Gold.PLP.part.buried>
0.1532

> <Gold.PLP.part.nonpolar>
-35.1682

> <Gold.PLP.part.repulsive>
0.3378

> <Gold.PLP.ligand.clash>
0.0000

> <Gold.PLP.ligand.torsion>
0.9325

> <Gold.PLP.Chemscore.Hbond>
1.0000

> <Gold.PLP.Chemscore.CHOScore>
0.0000

> <Gold.PLP.Chemscore.Metal>
0.0000

> <Gold.Chemscore.Hbonds>
donor molecule, donor type, donor heavy atom, donor atom, acceptor molecule, acceptor atom, score
      P1  H  7989  7998       L1     4  1.00

> <Gold.PLP.Chemscore.Internal.Correction>
0.0768

> <Gold.Rescore>
     Score         DG    S(hbond)    S(metal)    S(lipo)     H(rot)  DE(clash)    DE(int)     intcor
     13.60     -14.42       0.98        0.00      82.84       1.57       0.01       0.81       ----

> <Gold.Chemscore.Fitness>
13.6011

> <Gold.Chemscore.DG>
-14.4202

> <Gold.Chemscore.ZeroCoef>
-5.4800

> <Gold.Chemscore.Hbond>
0.9795

> <Gold.Chemscore.Metal>
0.0000

> <Gold.Chemscore.Lipo>
82.8393

> <Gold.Chemscore.Internal_Hbond>
0.0000

> <Gold.Chemscore.DEClash>
0.0095

> <Gold.Chemscore.DEInternal>
0.8097

> <Gold.Chemscore.Rot>
1.5717

> <Gold.Chemscore.Internal.Correction>
   9.000000E+99

> <Gold.Chemscore.Hbonds>
donor molecule, donor type, donor heavy atom, donor atom, acceptor molecule, acceptor atom, score
      P1  H  7989  7998       L1     4  0.91

> <Gold.Chemscore.Hbond.Weighted>
-3.2717

> <Gold.Chemscore.Metal.Weighted>
-0.0000

> <Gold.Chemscore.Lipo.Weighted>
-9.6922

> <Gold.Chemscore.Internal_Hbond.Weighted>
0.0000

> <Gold.Chemscore.DEClash.Weighted>
0.0095

> <Gold.Chemscore.DEInternal.Weighted>
0.8097

> <Gold.Chemscore.Rot.Weighted>
4.0237

> <Gold.Chemscore.Internal.Correction.Weighted>
   9.000000E+99

> <Gold.Protein.RotatedTorsions>
[ 6907 6896 6895 6894 ] final  110.06 input  -60.11 | X-H torsion
[ 7974 7965 7964 7962 ] final -106.97 input  175.53 | X-H torsion
[ 8008 7997 7996 7995 ] final   50.00 input   59.86 | X-H torsion
[ 10167 10162 10161 10158 ] final  104.02 input  -65.29 | X-H torsion
[ 10718 10713 10712 10709 ] final  -24.65 input   66.30 | X-H torsion
[ 10763 10752 10751 10750 ] final  -19.08 input  -60.55 | X-H torsion
[ 11005 11000 10999 10996 ] final   47.74 input  -57.11 | X-H torsion

> <Gold.Protein.ActiveResidues>
 VAL166  LYS551  ARG553  GLY616  TRP617  ASP618  TYR619  PRO620  LYS621  CYS622 
 ASP623  PHE694  ASN695  SER759  ASP760  ASP761  ALA762  ILE779  LEU786  VAL792 
 PHE793  MET794  SER795  GLU796  ALA797  LYS798  CYS799  TRP800  GLU811  SER814 

> <Gold.Protein.RotatedAtoms>
  152.5038  133.8855  159.7367 H   0  0  0  0  0  0  0  0  0  0  0  0  # atno 6907 bound_to 6896
  150.9307  133.6762  159.2818 H   0  0  0  0  0  0  0  0  0  0  0  0  # atno 6908 bound_to 6896
  151.4107  135.0989  159.9637 H   0  0  0  0  0  0  0  0  0  0  0  0  # atno 6909 bound_to 6896
  145.2111  140.9096  143.3314 H   0  0  0  0  0  0  0  0  0  0  0  0  # atno 7974 bound_to 7965
  155.4115  140.3442  155.4264 H   0  0  0  0  0  0  0  0  0  0  0  0  # atno 8008 bound_to 7997
  156.1446  140.1552  156.8899 H   0  0  0  0  0  0  0  0  0  0  0  0  # atno 8009 bound_to 7997
  154.4999  140.0817  156.7758 H   0  0  0  0  0  0  0  0  0  0  0  0  # atno 8010 bound_to 7997
  139.7213  144.7057  151.0868 H   0  0  0  0  0  0  0  0  0  0  0  0  # atno 10167 bound_to 10162
  156.4748  130.4532  149.6847 H   0  0  0  0  0  0  0  0  0  0  0  0  # atno 10718 bound_to 10713
  153.5992  135.7000  153.5391 H   0  0  0  0  0  0  0  0  0  0  0  0  # atno 10763 bound_to 10752
  153.3111  135.4101  155.1336 H   0  0  0  0  0  0  0  0  0  0  0  0  # atno 10764 bound_to 10752
  154.8586  135.3672  154.5527 H   0  0  0  0  0  0  0  0  0  0  0  0  # atno 10765 bound_to 10752
  140.1252  134.4777  155.8565 H   0  0  0  0  0  0  0  0  0  0  0  0  # atno 11005 bound_to 11000
  144.9855  139.3741  143.6241 LP  0  0  0  0  0  0  0  0  0  0  0  0  # atno 17320 bound_to 7965
  146.3397  139.9014  142.8794 LP  0  0  0  0  0  0  0  0  0  0  0  0  # atno 17321 bound_to 7965
  140.7754  143.5163  150.9591 LP  0  0  0  0  0  0  0  0  0  0  0  0  # atno 17342 bound_to 10162
  139.8850  143.7025  152.3152 LP  0  0  0  0  0  0  0  0  0  0  0  0  # atno 17343 bound_to 10162
  156.3582  130.7467  151.2436 LP  0  0  0  0  0  0  0  0  0  0  0  0  # atno 17370 bound_to 10713
  157.7488  131.0358  150.4379 LP  0  0  0  0  0  0  0  0  0  0  0  0  # atno 17371 bound_to 10713
  141.2160  133.6775  156.6965 LP  0  0  0  0  0  0  0  0  0  0  0  0  # atno 17394 bound_to 11000
  140.2913  134.8238  157.4019 LP  0  0  0  0  0  0  0  0  0  0  0  0  # atno 17395 bound_to 11000

$$$$
