AV-unprocessed.smi:3193|AV-procd|sdf|12204|dock4
  -GOLD-   2272018 43D 1   1.00000     0.00000
 Structure written by MMmdl.
 40 41  0  0  0  0  0  0  0  0  2 V2000
  152.4769  140.8201  159.2647 C   0  0  0  0  0  0  0  0  0  0  0  0
  151.9044  142.2486  159.3319 C   0  0  1  0  0  0  0  0  0  0  0  0
  152.7042  143.0743  160.3621 C   0  0  0  0  0  0  0  0  0  0  0  0
  152.1456  144.4944  160.5221 C   0  0  0  0  0  0  0  0  0  0  0  0
  152.1070  145.2188  159.1724 C   0  0  0  0  0  0  0  0  0  0  0  0
  151.3046  144.4119  158.1424 C   0  0  0  0  0  0  0  0  0  0  0  0
  151.8599  142.9819  157.9570 C   0  0  2  0  0  0  0  0  0  0  0  0
  151.0241  142.2452  156.8861 C   0  0  0  0  0  0  0  0  0  0  0  0
  149.5886  142.2227  157.2275 N   0  3  0  0  0  0  0  0  0  0  0  0
  148.7906  141.2514  156.4535 C   0  0  0  0  0  0  0  0  0  0  0  0
  148.9440  141.4846  154.9426 C   0  0  0  0  0  0  0  0  0  0  0  0
  148.2489  140.4725  154.1687 N   0  0  0  0  0  0  0  0  0  0  0  0
  147.1733  140.6652  153.3117 C   0  0  0  0  0  0  0  0  0  0  0  0
  146.8375  139.4251  152.8170 C   0  0  0  0  0  0  0  0  0  0  0  0
  147.6902  138.4619  153.3505 N   0  0  0  0  0  0  0  0  0  0  0  0
  148.5031  139.1568  154.1349 C   0  0  0  0  0  0  0  0  0  0  0  0
  153.4596  140.8050  158.7923 H   0  0  0  0  0  0  0  0  0  0  0  0
  151.8221  140.1463  158.7132 H   0  0  0  0  0  0  0  0  0  0  0  0
  152.5858  140.3945  160.2627 H   0  0  0  0  0  0  0  0  0  0  0  0
  150.8819  142.1669  159.7039 H   0  0  0  0  0  0  0  0  0  0  0  0
  152.6922  142.5754  161.3319 H   0  0  0  0  0  0  0  0  0  0  0  0
  153.7508  143.1285  160.0587 H   0  0  0  0  0  0  0  0  0  0  0  0
  151.1412  144.4493  160.9448 H   0  0  0  0  0  0  0  0  0  0  0  0
  152.7552  145.0573  161.2296 H   0  0  0  0  0  0  0  0  0  0  0  0
  151.6670  146.2091  159.2944 H   0  0  0  0  0  0  0  0  0  0  0  0
  153.1234  145.3737  158.8080 H   0  0  0  0  0  0  0  0  0  0  0  0
  150.2599  144.3643  158.4538 H   0  0  0  0  0  0  0  0  0  0  0  0
  151.3159  144.9443  157.1906 H   0  0  0  0  0  0  0  0  0  0  0  0
  152.8808  143.0814  157.5838 H   0  0  0  0  0  0  0  0  0  0  0  0
  151.1740  142.7077  155.9095 H   0  0  0  0  0  0  0  0  0  0  0  0
  151.3503  141.2081  156.7959 H   0  0  0  0  0  0  0  0  0  0  0  0
  149.4867  142.0250  158.2127 H   0  0  0  0  0  0  0  0  0  0  0  0
  149.1060  140.2372  156.7028 H   0  0  0  0  0  0  0  0  0  0  0  0
  147.7429  141.3399  156.7429 H   0  0  0  0  0  0  0  0  0  0  0  0
  148.5390  142.4599  154.6706 H   0  0  0  0  0  0  0  0  0  0  0  0
  149.9974  141.4899  154.6584 H   0  0  0  0  0  0  0  0  0  0  0  0
  146.7442  141.6401  153.1319 H   0  0  0  0  0  0  0  0  0  0  0  0
  146.0538  139.1543  152.1244 H   0  0  0  0  0  0  0  0  0  0  0  0
  149.2943  138.6950  154.7075 H   0  0  0  0  0  0  0  0  0  0  0  0
  149.2164  143.1437  157.0439 H   0  0  0  0  0  0  0  0  0  0  0  0
  1  2  1  0  0  0  0
  1 17  1  0  0  0  0
  1 18  1  0  0  0  0
  1 19  1  0  0  0  0
  2  7  1  0  0  0  0
  2  3  1  0  0  0  0
  2 20  1  0  0  0  0
  3  4  1  0  0  0  0
  3 21  1  0  0  0  0
  3 22  1  0  0  0  0
  4  5  1  0  0  0  0
  4 23  1  0  0  0  0
  4 24  1  0  0  0  0
  5  6  1  0  0  0  0
  5 25  1  0  0  0  0
  5 26  1  0  0  0  0
  6  7  1  0  0  0  0
  6 27  1  0  0  0  0
  6 28  1  0  0  0  0
  7  8  1  0  0  0  0
  7 29  1  0  0  0  0
  8  9  1  0  0  0  0
  8 30  1  0  0  0  0
  8 31  1  0  0  0  0
  9 10  1  0  0  0  0
  9 32  1  0  0  0  0
  9 40  1  0  0  0  0
 10 11  1  0  0  0  0
 10 33  1  0  0  0  0
 10 34  1  0  0  0  0
 11 12  1  0  0  0  0
 11 35  1  0  0  0  0
 11 36  1  0  0  0  0
 12 16  1  0  0  0  0
 12 13  1  0  0  0  0
 13 14  2  0  0  0  0
 13 37  1  0  0  0  0
 14 15  1  0  0  0  0
 14 38  1  0  0  0  0
 15 16  2  0  0  0  0
 16 39  1  0  0  0  0
M  CHG  1   9   1
M  END
> <s_m_source_file>
AV-unprocessed.smi

> <i_m_source_file_index>
3193

> <i_lp_mmshare_version>
43012

> <i_f3d_flags>
0

> <s_epik_input>
W0NIM11bQ0BASF0xW0NIMl1bQ0gyXVtDSDJdW0NIMl1bQ0BIXTFbQ0gyXVtOSF1bQ0gyXVtDSDJdbjJbY0hdW2NIXW5bY0hdMg==

> <s_epik_cmdline>
J2VwaWtfcHl0aG9uJywgJy1waCcsICc3LjAnLCAnLXRuJywgJzgnLCAnLW1hJywgJzIwMCcsICctbWV0YWxfYmluZGluZycsICctaW1hZScsICc8aW5maWxlLm1hZT4nLCAnLW9tYWUnLCAnPG91dGZpbGUubWFlPic=

> <r_lp_tautomer_probability>
1

> <r_epik_Ionization_Penalty>
0.0503046

> <r_epik_Ionization_Penalty_Charging>
0.0503046

> <r_epik_Ionization_Penalty_Neutral>
0

> <r_epik_State_Penalty>
0.0981804

> <r_epik_Charging_Adjusted_Penalty>
0.148485

> <i_epik_Tot_Q>
1

> <i_epik_Tot_abs_Q>
1

> <r_epik_Metal_State_Penalty>
0.000105854

> <b_epik_Metal_Only>
0

> <s_lp_Force_Field>
OPLS_2005

> <r_lp_Energy>
18.894

> <b_lp_Chiralities_Consistent>
1

> <s_lp_Variant>
AV-unprocessed.smi:3193-4

> <Gold.Version>
5.8.1

> <Gold.Id.Protein>
6NUR|6NUR_protein|mol2

> <Gold.PLP.Fitness>
46.2551

> <Gold.PLP.PLP>
-38.2683

> <Gold.PLP.part.hbond>
-1.0000

> <Gold.PLP.part.metal>
0.0000

> <Gold.PLP.part.buried>
-3.3209

> <Gold.PLP.part.nonpolar>
-34.2896

> <Gold.PLP.part.repulsive>
0.2476

> <Gold.PLP.ligand.clash>
0.0000

> <Gold.PLP.ligand.torsion>
0.0953

> <Gold.PLP.Chemscore.Hbond>
1.9840

> <Gold.PLP.Chemscore.CHOScore>
0.7373

> <Gold.PLP.Chemscore.Metal>
0.0000

> <Gold.Chemscore.Hbonds>
donor molecule, donor type, donor heavy atom, donor atom, acceptor molecule, acceptor atom, score
      L1  H     9    40       P1  8028  1.55
      L1  C    14    38       P1 10175  0.37

> <Gold.PLP.Chemscore.Internal.Correction>
0.0136

> <Gold.Rescore>
     Score         DG    S(hbond)    S(metal)    S(lipo)     H(rot)  DE(clash)    DE(int)     intcor
     16.97     -17.10       0.97        0.00     112.96       1.89       0.01       0.12       ----

> <Gold.Chemscore.Fitness>
16.9691

> <Gold.Chemscore.DG>
-17.0961

> <Gold.Chemscore.ZeroCoef>
-5.4800

> <Gold.Chemscore.Hbond>
0.9691

> <Gold.Chemscore.Metal>
0.0000

> <Gold.Chemscore.Lipo>
112.9606

> <Gold.Chemscore.Internal_Hbond>
0.0000

> <Gold.Chemscore.DEClash>
0.0114

> <Gold.Chemscore.DEInternal>
0.1156

> <Gold.Chemscore.Rot>
1.8895

> <Gold.Chemscore.Internal.Correction>
   9.000000E+99

> <Gold.Chemscore.Hbonds>
donor molecule, donor type, donor heavy atom, donor atom, acceptor molecule, acceptor atom, score
      L1  H     9    40       P1  8028  0.66

> <Gold.Chemscore.Hbond.Weighted>
-3.2367

> <Gold.Chemscore.Metal.Weighted>
-0.0000

> <Gold.Chemscore.Lipo.Weighted>
-13.2164

> <Gold.Chemscore.Internal_Hbond.Weighted>
0.0000

> <Gold.Chemscore.DEClash.Weighted>
0.0114

> <Gold.Chemscore.DEInternal.Weighted>
0.1156

> <Gold.Chemscore.Rot.Weighted>
4.8371

> <Gold.Chemscore.Internal.Correction.Weighted>
   9.000000E+99

> <Gold.Protein.RotatedTorsions>
[ 6907 6896 6895 6894 ] final  106.69 input  -60.11 | X-H torsion
[ 7974 7965 7964 7962 ] final   15.60 input  175.53 | X-H torsion
[ 8008 7997 7996 7995 ] final   41.23 input   59.86 | X-H torsion
[ 10167 10162 10161 10158 ] final   85.36 input  -65.29 | X-H torsion
[ 10718 10713 10712 10709 ] final  149.04 input   66.30 | X-H torsion
[ 10763 10752 10751 10750 ] final   20.12 input  -60.55 | X-H torsion
[ 11005 11000 10999 10996 ] final -158.79 input  -57.11 | X-H torsion

> <Gold.Protein.ActiveResidues>
 VAL166  LYS551  ARG553  GLY616  TRP617  ASP618  TYR619  PRO620  LYS621  CYS622 
 ASP623  PHE694  ASN695  SER759  ASP760  ASP761  ALA762  ILE779  LEU786  VAL792 
 PHE793  MET794  SER795  GLU796  ALA797  LYS798  CYS799  TRP800  GLU811  SER814 

> <Gold.Protein.RotatedAtoms>
  152.5184  133.9344  159.7595 H   0  0  0  0  0  0  0  0  0  0  0  0  # atno 6907 bound_to 6896
  150.9687  133.6358  159.2748 H   0  0  0  0  0  0  0  0  0  0  0  0  # atno 6908 bound_to 6896
  151.3577  135.0903  159.9477 H   0  0  0  0  0  0  0  0  0  0  0  0  # atno 6909 bound_to 6896
  146.2274  139.8870  142.8561 H   0  0  0  0  0  0  0  0  0  0  0  0  # atno 7974 bound_to 7965
  155.2662  140.3363  155.4269 H   0  0  0  0  0  0  0  0  0  0  0  0  # atno 8008 bound_to 7997
  156.2153  140.1786  156.7645 H   0  0  0  0  0  0  0  0  0  0  0  0  # atno 8009 bound_to 7997
  154.5744  140.0664  156.8997 H   0  0  0  0  0  0  0  0  0  0  0  0  # atno 8010 bound_to 7997
  139.8985  144.6343  150.8662 H   0  0  0  0  0  0  0  0  0  0  0  0  # atno 10167 bound_to 10162
  157.3011  131.0871  151.1389 H   0  0  0  0  0  0  0  0  0  0  0  0  # atno 10718 bound_to 10713
  153.1104  135.6695  153.9511 H   0  0  0  0  0  0  0  0  0  0  0  0  # atno 10763 bound_to 10752
  153.9056  135.3031  155.3450 H   0  0  0  0  0  0  0  0  0  0  0  0  # atno 10764 bound_to 10752
  154.7524  135.5028  153.9390 H   0  0  0  0  0  0  0  0  0  0  0  0  # atno 10765 bound_to 10752
  140.6498  134.4463  157.5235 H   0  0  0  0  0  0  0  0  0  0  0  0  # atno 11005 bound_to 11000
  145.2455  141.0025  143.3911 LP  0  0  0  0  0  0  0  0  0  0  0  0  # atno 17320 bound_to 7965
  144.9417  139.4182  143.6446 LP  0  0  0  0  0  0  0  0  0  0  0  0  # atno 17321 bound_to 7965
  140.7712  143.3455  151.2120 LP  0  0  0  0  0  0  0  0  0  0  0  0  # atno 17342 bound_to 10162
  139.7046  143.9476  152.2921 LP  0  0  0  0  0  0  0  0  0  0  0  0  # atno 17343 bound_to 10162
  157.2748  130.6721  149.6037 LP  0  0  0  0  0  0  0  0  0  0  0  0  # atno 17370 bound_to 10713
  155.9671  130.4468  150.5555 LP  0  0  0  0  0  0  0  0  0  0  0  0  # atno 17371 bound_to 10713
  139.9050  134.8470  156.1742 LP  0  0  0  0  0  0  0  0  0  0  0  0  # atno 17394 bound_to 11000
  141.0545  133.6872  156.1835 LP  0  0  0  0  0  0  0  0  0  0  0  0  # atno 17395 bound_to 11000

$$$$
