AV-unprocessed.smi:861|AV-procd|sdf|3969|dock10
  -GOLD-   22720 1443D 1   1.00000     0.00000
 Structure written by MMmdl.
 44 45  0  0  0  0  0  0  0  0  2 V2000
  152.4411  142.8928  158.8387 C   0  0  0  0  0  0  0  0  0  0  0  0
  152.7089  143.5551  160.2015 C   0  0  0  0  0  0  0  0  0  0  0  0
  153.0993  142.4919  161.2401 C   0  0  0  0  0  0  0  0  0  0  0  0
  151.5107  144.3914  160.6985 C   0  0  0  0  0  0  0  0  0  0  0  0
  150.7950  145.1827  159.5856 C   0  0  0  0  0  0  0  0  0  0  0  0
  149.4206  144.6858  159.3224 N   0  3  2  0  0  0  0  0  0  0  0  0
  148.5734  144.7100  160.5387 C   0  0  0  0  0  0  0  0  0  0  0  0
  147.1469  144.2407  160.2118 C   0  0  0  0  0  0  0  0  0  0  0  0
  147.1965  142.9423  159.6352 O   0  0  0  0  0  0  0  0  0  0  0  0
  147.9202  142.9243  158.4089 C   0  0  2  0  0  0  0  0  0  0  0  0
  147.8379  141.5088  157.8208 C   0  0  0  0  0  0  0  0  0  0  0  0
  148.3738  141.4576  156.4675 N   0  0  0  0  0  0  0  0  0  0  0  0
  149.6236  140.8769  156.2140 C   0  0  0  0  0  0  0  0  0  0  0  0
  150.5585  140.7850  157.2644 C   0  0  0  0  0  0  0  0  0  0  0  0
  151.8013  140.1923  156.9816 C   0  0  0  0  0  0  0  0  0  0  0  0
  152.0148  139.7364  155.6679 C   0  0  0  0  0  0  0  0  0  0  0  0
  151.0808  139.8509  154.6969 N   0  0  0  0  0  0  0  0  0  0  0  0
  149.8982  140.4151  154.9678 N   0  0  0  0  0  0  0  0  0  0  0  0
  149.3767  143.3421  158.6928 C   0  0  0  0  0  0  0  0  0  0  0  0
  151.5683  142.2401  158.8800 H   0  0  0  0  0  0  0  0  0  0  0  0
  153.2913  142.2861  158.5258 H   0  0  0  0  0  0  0  0  0  0  0  0
  152.2706  143.6286  158.0537 H   0  0  0  0  0  0  0  0  0  0  0  0
  153.5647  144.2220  160.0884 H   0  0  0  0  0  0  0  0  0  0  0  0
  152.2841  141.7886  161.4135 H   0  0  0  0  0  0  0  0  0  0  0  0
  153.3548  142.9486  162.1967 H   0  0  0  0  0  0  0  0  0  0  0  0
  153.9674  141.9199  160.9105 H   0  0  0  0  0  0  0  0  0  0  0  0
  150.7983  143.7407  161.2075 H   0  0  0  0  0  0  0  0  0  0  0  0
  151.8735  145.0890  161.4528 H   0  0  0  0  0  0  0  0  0  0  0  0
  150.7665  146.2470  159.8244 H   0  0  0  0  0  0  0  0  0  0  0  0
  151.3701  145.0887  158.6648 H   0  0  0  0  0  0  0  0  0  0  0  0
  149.0124  144.0660  161.3026 H   0  0  0  0  0  0  0  0  0  0  0  0
  148.5399  145.7195  160.9502 H   0  0  0  0  0  0  0  0  0  0  0  0
  146.5462  144.2015  161.1208 H   0  0  0  0  0  0  0  0  0  0  0  0
  146.6521  144.9364  159.5324 H   0  0  0  0  0  0  0  0  0  0  0  0
  147.4731  143.6295  157.7052 H   0  0  0  0  0  0  0  0  0  0  0  0
  148.4128  140.8231  158.4448 H   0  0  0  0  0  0  0  0  0  0  0  0
  146.8052  141.1575  157.8224 H   0  0  0  0  0  0  0  0  0  0  0  0
  147.8003  141.7724  155.6984 H   0  0  0  0  0  0  0  0  0  0  0  0
  150.3328  141.1540  158.2541 H   0  0  0  0  0  0  0  0  0  0  0  0
  152.5614  140.0905  157.7417 H   0  0  0  0  0  0  0  0  0  0  0  0
  152.9494  139.2717  155.3900 H   0  0  0  0  0  0  0  0  0  0  0  0
  149.9339  143.3438  157.7568 H   0  0  0  0  0  0  0  0  0  0  0  0
  149.8571  142.6145  159.3495 H   0  0  0  0  0  0  0  0  0  0  0  0
  148.9991  145.3323  158.6707 H   0  0  0  0  0  0  0  0  0  0  0  0
  1  2  1  0  0  0  0
  1 20  1  0  0  0  0
  1 21  1  0  0  0  0
  1 22  1  0  0  0  0
  2  3  1  0  0  0  0
  2  4  1  0  0  0  0
  2 23  1  0  0  0  0
  3 24  1  0  0  0  0
  3 25  1  0  0  0  0
  3 26  1  0  0  0  0
  4  5  1  0  0  0  0
  4 27  1  0  0  0  0
  4 28  1  0  0  0  0
  5  6  1  0  0  0  0
  5 29  1  0  0  0  0
  5 30  1  0  0  0  0
  6 19  1  0  0  0  0
  6  7  1  0  0  0  0
  6 44  1  0  0  0  0
  7  8  1  0  0  0  0
  7 31  1  0  0  0  0
  7 32  1  0  0  0  0
  8  9  1  0  0  0  0
  8 33  1  0  0  0  0
  8 34  1  0  0  0  0
  9 10  1  0  0  0  0
 10 11  1  0  0  0  0
 10 19  1  0  0  0  0
 10 35  1  0  0  0  0
 11 12  1  0  0  0  0
 11 36  1  0  0  0  0
 11 37  1  0  0  0  0
 12 13  1  0  0  0  0
 12 38  1  0  0  0  0
 13 18  1  0  0  0  0
 13 14  2  0  0  0  0
 14 15  1  0  0  0  0
 14 39  1  0  0  0  0
 15 16  2  0  0  0  0
 15 40  1  0  0  0  0
 16 17  1  0  0  0  0
 16 41  1  0  0  0  0
 17 18  2  0  0  0  0
 19 42  1  0  0  0  0
 19 43  1  0  0  0  0
M  CHG  1   6   1
M  END
> <s_m_source_file>
AV-unprocessed.smi

> <i_m_source_file_index>
861

> <i_lp_mmshare_version>
43012

> <i_f3d_flags>
0

> <s_epik_input>
W0NIM11bQ0hdKFtDSDNdKVtDSDJdW0NIMl1OMVtDSDJdW0NIMl1PW0NASF0oW0NIMl0xKVtDSDJdW05IXWMyW2NIXVtjSF1bY0hdbm4y

> <s_epik_cmdline>
J2VwaWtfcHl0aG9uJywgJy1waCcsICc3LjAnLCAnLXRuJywgJzgnLCAnLW1hJywgJzIwMCcsICctbWV0YWxfYmluZGluZycsICctaW1hZScsICc8aW5maWxlLm1hZT4nLCAnLW9tYWUnLCAnPG91dGZpbGUubWFlPic=

> <r_lp_tautomer_probability>
0.999978

> <r_epik_Ionization_Penalty>
0.114704

> <r_epik_Ionization_Penalty_Charging>
0.0953451

> <r_epik_Ionization_Penalty_Neutral>
0.0193593

> <r_epik_State_Penalty>
0.104983

> <r_epik_Charging_Adjusted_Penalty>
0.200328

> <i_epik_Tot_Q>
1

> <i_epik_Tot_abs_Q>
1

> <r_epik_Metal_State_Penalty>
0.100113

> <b_epik_Metal_Only>
0

> <s_lp_Force_Field>
OPLS_2005

> <r_lp_Energy>
25.0457

> <b_lp_Chiralities_Consistent>
1

> <s_lp_Variant>
AV-unprocessed.smi:861-4

> <Gold.Version>
5.8.1

> <Gold.Id.Protein>
6NUR|6NUR_protein|mol2

> <Gold.PLP.Fitness>
46.6322

> <Gold.PLP.PLP>
-38.2888

> <Gold.PLP.part.hbond>
-4.1146

> <Gold.PLP.part.metal>
0.0000

> <Gold.PLP.part.buried>
-6.6878

> <Gold.PLP.part.nonpolar>
-28.9674

> <Gold.PLP.part.repulsive>
0.4374

> <Gold.PLP.ligand.clash>
0.0000

> <Gold.PLP.ligand.torsion>
0.8014

> <Gold.PLP.Chemscore.Hbond>
3.2929

> <Gold.PLP.Chemscore.CHOScore>
0.0000

> <Gold.PLP.Chemscore.Metal>
0.0000

> <Gold.Chemscore.Hbonds>
donor molecule, donor type, donor heavy atom, donor atom, acceptor molecule, acceptor atom, score
      L1  H     6    44       P1  8029  2.00
      P1  H  6933  6944       L1     9  0.10
      P1  H  6934  6946       L1     9  0.15
      P1  H  7989  7998       L1    17  1.00

> <Gold.PLP.Chemscore.Internal.Correction>
0.0676

> <Gold.Rescore>
     Score         DG    S(hbond)    S(metal)    S(lipo)     H(rot)  DE(clash)    DE(int)     intcor
     18.16     -19.09       2.25        0.00      89.53       1.71       0.14       0.79       ----

> <Gold.Chemscore.Fitness>
18.1607

> <Gold.Chemscore.DG>
-19.0939

> <Gold.Chemscore.ZeroCoef>
-5.4800

> <Gold.Chemscore.Hbond>
2.2525

> <Gold.Chemscore.Metal>
0.0000

> <Gold.Chemscore.Lipo>
89.5290

> <Gold.Chemscore.Internal_Hbond>
0.0000

> <Gold.Chemscore.DEClash>
0.1432

> <Gold.Chemscore.DEInternal>
0.7900

> <Gold.Chemscore.Rot>
1.7127

> <Gold.Chemscore.Internal.Correction>
   9.000000E+99

> <Gold.Chemscore.Hbonds>
donor molecule, donor type, donor heavy atom, donor atom, acceptor molecule, acceptor atom, score
      L1  H     6    44       P1  8029  0.98
      P1  H  6934  6946       L1     9  0.15
      P1  H  7989  7998       L1    17  0.22

> <Gold.Chemscore.Hbond.Weighted>
-7.5234

> <Gold.Chemscore.Metal.Weighted>
-0.0000

> <Gold.Chemscore.Lipo.Weighted>
-10.4749

> <Gold.Chemscore.Internal_Hbond.Weighted>
0.0000

> <Gold.Chemscore.DEClash.Weighted>
0.1432

> <Gold.Chemscore.DEInternal.Weighted>
0.7900

> <Gold.Chemscore.Rot.Weighted>
4.3844

> <Gold.Chemscore.Internal.Correction.Weighted>
   9.000000E+99

> <Gold.Protein.RotatedTorsions>
[ 6907 6896 6895 6894 ] final  -28.64 input  -60.11 | X-H torsion
[ 7974 7965 7964 7962 ] final   25.19 input  175.53 | X-H torsion
[ 8008 7997 7996 7995 ] final  -46.76 input   59.86 | X-H torsion
[ 10167 10162 10161 10158 ] final -149.95 input  -65.29 | X-H torsion
[ 10718 10713 10712 10709 ] final -176.03 input   66.30 | X-H torsion
[ 10763 10752 10751 10750 ] final -154.42 input  -60.55 | X-H torsion
[ 11005 11000 10999 10996 ] final -152.55 input  -57.11 | X-H torsion

> <Gold.Protein.ActiveResidues>
 VAL166  LYS551  ARG553  GLY616  TRP617  ASP618  TYR619  PRO620  LYS621  CYS622 
 ASP623  PHE694  ASN695  SER759  ASP760  ASP761  ALA762  ILE779  LEU786  VAL792 
 PHE793  MET794  SER795  GLU796  ALA797  LYS798  CYS799  TRP800  GLU811  SER814 

> <Gold.Protein.RotatedAtoms>
  151.1301  135.0125  159.8578 H   0  0  0  0  0  0  0  0  0  0  0  0  # atno 6907 bound_to 6896
  152.5450  134.1620  159.8572 H   0  0  0  0  0  0  0  0  0  0  0  0  # atno 6908 bound_to 6896
  151.1686  133.4753  159.2627 H   0  0  0  0  0  0  0  0  0  0  0  0  # atno 6909 bound_to 6896
  146.1901  139.7500  142.8838 H   0  0  0  0  0  0  0  0  0  0  0  0  # atno 7974 bound_to 7965
  154.4010  140.1363  156.4064 H   0  0  0  0  0  0  0  0  0  0  0  0  # atno 8008 bound_to 7997
  155.7775  140.3482  155.5259 H   0  0  0  0  0  0  0  0  0  0  0  0  # atno 8009 bound_to 7997
  155.8706  140.0971  157.1543 H   0  0  0  0  0  0  0  0  0  0  0  0  # atno 8010 bound_to 7997
  139.7397  143.8680  152.2559 H   0  0  0  0  0  0  0  0  0  0  0  0  # atno 10167 bound_to 10162
  156.8086  130.9578  151.3116 H   0  0  0  0  0  0  0  0  0  0  0  0  # atno 10718 bound_to 10713
  154.7860  135.3190  154.7885 H   0  0  0  0  0  0  0  0  0  0  0  0  # atno 10763 bound_to 10752
  153.8585  135.6855  153.4789 H   0  0  0  0  0  0  0  0  0  0  0  0  # atno 10764 bound_to 10752
  153.1512  135.4699  154.9577 H   0  0  0  0  0  0  0  0  0  0  0  0  # atno 10765 bound_to 10752
  140.7176  134.3763  157.5188 H   0  0  0  0  0  0  0  0  0  0  0  0  # atno 11005 bound_to 11000
  145.3820  141.0359  143.3172 LP  0  0  0  0  0  0  0  0  0  0  0  0  # atno 17320 bound_to 7965
  144.8470  139.5382  143.6874 LP  0  0  0  0  0  0  0  0  0  0  0  0  # atno 17321 bound_to 7965
  139.8627  144.7109  150.9080 LP  0  0  0  0  0  0  0  0  0  0  0  0  # atno 17342 bound_to 10162
  140.7784  143.3804  151.1488 LP  0  0  0  0  0  0  0  0  0  0  0  0  # atno 17343 bound_to 10162
  157.6517  130.8890  149.9647 LP  0  0  0  0  0  0  0  0  0  0  0  0  # atno 17370 bound_to 10713
  156.1058  130.3653  150.0137 LP  0  0  0  0  0  0  0  0  0  0  0  0  # atno 17371 bound_to 10713
  139.8856  134.8933  156.2634 LP  0  0  0  0  0  0  0  0  0  0  0  0  # atno 17394 bound_to 11000
  141.0031  133.7140  156.0991 LP  0  0  0  0  0  0  0  0  0  0  0  0  # atno 17395 bound_to 11000

$$$$
