AV-unprocessed.smi:3026|AV-procd|sdf|11514|dock1
  -GOLD-   2272016453D 1   1.00000     0.00000
 Structure written by MMmdl.
 33 34  0  0  0  0  0  0  0  0  1 V2000
  152.3860  144.8687  158.7706 C   0  0  0  0  0  0  0  0  0  0  0  0
  152.2804  143.3670  158.9286 C   0  0  0  0  0  0  0  0  0  0  0  0
  152.7094  142.7163  160.1041 C   0  0  0  0  0  0  0  0  0  0  0  0
  152.5604  141.3153  160.1282 C   0  0  0  0  0  0  0  0  0  0  0  0
  152.0347  140.6379  159.0848 N   0  0  0  0  0  0  0  0  0  0  0  0
  151.6483  141.3572  158.0225 C   0  0  0  0  0  0  0  0  0  0  0  0
  151.1299  140.6756  156.9288 N   0  0  0  0  0  0  0  0  0  0  0  0
  150.4830  141.5668  155.9704 C   0  0  0  0  0  0  0  0  0  0  0  0
  149.6496  140.7755  154.9560 C   0  0  0  0  0  0  0  0  0  0  0  0
  150.4960  139.8419  154.3034 O   0  0  0  0  0  0  0  0  0  0  0  0
  151.0311  138.8960  155.2197 C   0  0  0  0  0  0  0  0  0  0  0  0
  151.9001  139.5921  156.2971 C   0  0  2  0  0  0  0  0  0  0  0  0
  152.4145  138.5541  157.3305 C   0  0  0  0  0  0  0  0  0  0  0  0
  151.3068  137.9185  158.1865 C   0  0  0  0  0  0  0  0  0  0  0  0
  151.8692  136.9693  159.0669 O   0  0  0  0  0  0  0  0  0  0  0  0
  151.7542  142.6836  157.8888 N   0  0  0  0  0  0  0  0  0  0  0  0
  152.9672  145.3092  159.5811 H   0  0  0  0  0  0  0  0  0  0  0  0
  151.3934  145.3197  158.7763 H   0  0  0  0  0  0  0  0  0  0  0  0
  152.8731  145.1197  157.8280 H   0  0  0  0  0  0  0  0  0  0  0  0
  153.1299  143.2560  160.9398 H   0  0  0  0  0  0  0  0  0  0  0  0
  152.8661  140.7356  160.9865 H   0  0  0  0  0  0  0  0  0  0  0  0
  149.8413  142.2790  156.4911 H   0  0  0  0  0  0  0  0  0  0  0  0
  151.2475  142.1476  155.4523 H   0  0  0  0  0  0  0  0  0  0  0  0
  148.8168  140.2646  155.4423 H   0  0  0  0  0  0  0  0  0  0  0  0
  149.2230  141.4491  154.2127 H   0  0  0  0  0  0  0  0  0  0  0  0
  150.2196  138.3287  155.6788 H   0  0  0  0  0  0  0  0  0  0  0  0
  151.6245  138.1871  154.6438 H   0  0  0  0  0  0  0  0  0  0  0  0
  152.7590  140.0492  155.8034 H   0  0  0  0  0  0  0  0  0  0  0  0
  152.9344  137.7405  156.8256 H   0  0  0  0  0  0  0  0  0  0  0  0
  153.1563  139.0218  157.9797 H   0  0  0  0  0  0  0  0  0  0  0  0
  150.7832  138.6663  158.7813 H   0  0  0  0  0  0  0  0  0  0  0  0
  150.5696  137.4221  157.5548 H   0  0  0  0  0  0  0  0  0  0  0  0
  152.7886  137.1625  159.1698 H   0  0  0  0  0  0  0  0  0  0  0  0
  1  2  1  0  0  0  0
  1 17  1  0  0  0  0
  1 18  1  0  0  0  0
  1 19  1  0  0  0  0
  2 16  1  0  0  0  0
  2  3  2  0  0  0  0
  3  4  1  0  0  0  0
  3 20  1  0  0  0  0
  4  5  2  0  0  0  0
  4 21  1  0  0  0  0
  5  6  1  0  0  0  0
  6  7  1  0  0  0  0
  6 16  2  0  0  0  0
  7 12  1  0  0  0  0
  7  8  1  0  0  0  0
  8  9  1  0  0  0  0
  8 22  1  0  0  0  0
  8 23  1  0  0  0  0
  9 10  1  0  0  0  0
  9 24  1  0  0  0  0
  9 25  1  0  0  0  0
 10 11  1  0  0  0  0
 11 12  1  0  0  0  0
 11 26  1  0  0  0  0
 11 27  1  0  0  0  0
 12 13  1  0  0  0  0
 12 28  1  0  0  0  0
 13 14  1  0  0  0  0
 13 29  1  0  0  0  0
 13 30  1  0  0  0  0
 14 15  1  0  0  0  0
 14 31  1  0  0  0  0
 14 32  1  0  0  0  0
 15 33  1  0  0  0  0
M  END
> <s_m_source_file>
AV-unprocessed.smi

> <i_m_source_file_index>
3026

> <i_lp_mmshare_version>
43012

> <i_f3d_flags>
0

> <s_epik_input>
W0NIM11jMVtjSF1bY0hdbmMobjEpTjJbQ0gyXVtDSDJdT1tDSDJdW0NASF0yW0NIMl1bQ0gyXVtPSF0=

> <s_epik_cmdline>
J2VwaWtfcHl0aG9uJywgJy1waCcsICc3LjAnLCAnLXRuJywgJzgnLCAnLW1hJywgJzIwMCcsICctbWV0YWxfYmluZGluZycsICctaW1hZScsICc8aW5maWxlLm1hZT4nLCAnLW9tYWUnLCAnPG91dGZpbGUubWFlPic=

> <r_lp_tautomer_probability>
1

> <r_epik_Ionization_Penalty>
6.52665e-05

> <r_epik_Ionization_Penalty_Charging>
0

> <r_epik_Ionization_Penalty_Neutral>
6.52665e-05

> <r_epik_State_Penalty>
-0

> <r_epik_Charging_Adjusted_Penalty>
0

> <i_epik_Tot_Q>
0

> <i_epik_Tot_abs_Q>
0

> <r_epik_Metal_State_Penalty>
-0

> <b_epik_Metal_Only>
0

> <s_lp_Force_Field>
OPLS_2005

> <r_lp_Energy>
13.9454

> <b_lp_Chiralities_Consistent>
1

> <s_lp_Variant>
AV-unprocessed.smi:3026-2

> <Gold.Version>
5.8.1

> <Gold.Id.Protein>
6NUR|6NUR_protein|mol2

> <Gold.PLP.Fitness>
38.7098

> <Gold.PLP.PLP>
-32.8005

> <Gold.PLP.part.hbond>
-2.0000

> <Gold.PLP.part.metal>
0.0000

> <Gold.PLP.part.buried>
-4.7072

> <Gold.PLP.part.nonpolar>
-27.6493

> <Gold.PLP.part.repulsive>
0.1823

> <Gold.PLP.ligand.clash>
0.0000

> <Gold.PLP.ligand.torsion>
0.1944

> <Gold.PLP.Chemscore.Hbond>
1.9913

> <Gold.PLP.Chemscore.CHOScore>
0.0000

> <Gold.PLP.Chemscore.Metal>
0.0000

> <Gold.Chemscore.Hbonds>
donor molecule, donor type, donor heavy atom, donor atom, acceptor molecule, acceptor atom, score
      P1  H  6896  6908       L1    15  0.99
      P1  H  7989  7998       L1    10  1.00

> <Gold.PLP.Chemscore.Internal.Correction>
0.3243

> <Gold.Rescore>
     Score         DG    S(hbond)    S(metal)    S(lipo)     H(rot)  DE(clash)    DE(int)     intcor
     13.78     -15.43       1.64        0.00      81.80       1.99       0.00       1.65       ----

> <Gold.Chemscore.Fitness>
13.7784

> <Gold.Chemscore.DG>
-15.4274

> <Gold.Chemscore.ZeroCoef>
-5.4800

> <Gold.Chemscore.Hbond>
1.6353

> <Gold.Chemscore.Metal>
0.0000

> <Gold.Chemscore.Lipo>
81.8002

> <Gold.Chemscore.Internal_Hbond>
0.0000

> <Gold.Chemscore.DEClash>
0.0009

> <Gold.Chemscore.DEInternal>
1.6481

> <Gold.Chemscore.Rot>
1.9864

> <Gold.Chemscore.Internal.Correction>
   9.000000E+99

> <Gold.Chemscore.Hbonds>
donor molecule, donor type, donor heavy atom, donor atom, acceptor molecule, acceptor atom, score
      P1  H  6896  6908       L1    15  0.53
      P1  H  7989  7998       L1    10  0.37

> <Gold.Chemscore.Hbond.Weighted>
-5.4619

> <Gold.Chemscore.Metal.Weighted>
-0.0000

> <Gold.Chemscore.Lipo.Weighted>
-9.5706

> <Gold.Chemscore.Internal_Hbond.Weighted>
0.0000

> <Gold.Chemscore.DEClash.Weighted>
0.0009

> <Gold.Chemscore.DEInternal.Weighted>
1.6481

> <Gold.Chemscore.Rot.Weighted>
5.0851

> <Gold.Chemscore.Internal.Correction.Weighted>
   9.000000E+99

> <Gold.Protein.RotatedTorsions>
[ 6907 6896 6895 6894 ] final -122.18 input  -60.11 | X-H torsion
[ 7974 7965 7964 7962 ] final  -30.57 input  175.53 | X-H torsion
[ 8008 7997 7996 7995 ] final   -4.63 input   59.86 | X-H torsion
[ 10167 10162 10161 10158 ] final -107.29 input  -65.29 | X-H torsion
[ 10718 10713 10712 10709 ] final  147.07 input   66.30 | X-H torsion
[ 10763 10752 10751 10750 ] final -176.16 input  -60.55 | X-H torsion
[ 11005 11000 10999 10996 ] final -133.96 input  -57.11 | X-H torsion

> <Gold.Protein.ActiveResidues>
 VAL166  LYS551  ARG553  GLY616  TRP617  ASP618  TYR619  PRO620  LYS621  CYS622 
 ASP623  PHE694  ASN695  SER759  ASP760  ASP761  ALA762  ILE779  LEU786  VAL792 
 PHE793  MET794  SER795  GLU796  ALA797  LYS798  CYS799  TRP800  GLU811  SER814 

> <Gold.Protein.RotatedAtoms>
  150.8552  133.7726  159.3011 H   0  0  0  0  0  0  0  0  0  0  0  0  # atno 6907 bound_to 6896
  151.5385  135.1067  159.9930 H   0  0  0  0  0  0  0  0  0  0  0  0  # atno 6908 bound_to 6896
  152.4584  133.7727  159.6864 H   0  0  0  0  0  0  0  0  0  0  0  0  # atno 6909 bound_to 6896
  146.1133  140.5558  142.8768 H   0  0  0  0  0  0  0  0  0  0  0  0  # atno 7974 bound_to 7965
  154.6123  140.2479  155.7653 H   0  0  0  0  0  0  0  0  0  0  0  0  # atno 8008 bound_to 7997
  156.2378  140.2944  156.0310 H   0  0  0  0  0  0  0  0  0  0  0  0  # atno 8009 bound_to 7997
  155.2032  140.0395  157.2911 H   0  0  0  0  0  0  0  0  0  0  0  0  # atno 8010 bound_to 7997
  140.1786  143.3985  152.1299 H   0  0  0  0  0  0  0  0  0  0  0  0  # atno 10167 bound_to 10162
  157.3255  131.0911  151.1206 H   0  0  0  0  0  0  0  0  0  0  0  0  # atno 10718 bound_to 10713
  154.5756  135.2831  155.0783 H   0  0  0  0  0  0  0  0  0  0  0  0  # atno 10763 bound_to 10752
  154.2139  135.6403  153.5127 H   0  0  0  0  0  0  0  0  0  0  0  0  # atno 10764 bound_to 10752
  153.0071  135.5498  154.6394 H   0  0  0  0  0  0  0  0  0  0  0  0  # atno 10765 bound_to 10752
  140.9033  134.1662  157.4444 H   0  0  0  0  0  0  0  0  0  0  0  0  # atno 11005 bound_to 11000
  144.7530  140.5238  143.6788 LP  0  0  0  0  0  0  0  0  0  0  0  0  # atno 17320 bound_to 7965
  145.5619  139.1480  143.3336 LP  0  0  0  0  0  0  0  0  0  0  0  0  # atno 17321 bound_to 7965
  139.5306  144.7155  151.5069 LP  0  0  0  0  0  0  0  0  0  0  0  0  # atno 17342 bound_to 10162
  140.6535  143.8648  150.6810 LP  0  0  0  0  0  0  0  0  0  0  0  0  # atno 17343 bound_to 10162
  157.2474  130.6598  149.5916 LP  0  0  0  0  0  0  0  0  0  0  0  0  # atno 17370 bound_to 10713
  155.9690  130.4549  150.5867 LP  0  0  0  0  0  0  0  0  0  0  0  0  # atno 17371 bound_to 10713
  139.8745  134.9907  156.5514 LP  0  0  0  0  0  0  0  0  0  0  0  0  # atno 17394 bound_to 11000
  140.8202  133.8359  155.8889 LP  0  0  0  0  0  0  0  0  0  0  0  0  # atno 17395 bound_to 11000

$$$$
