AV-unprocessed.smi:1754|AV-procd|sdf|7067|dock7
  -GOLD-   22720 8283D 1   1.00000     0.00000
 Structure written by MMmdl.
 44 45  0  0  0  0  0  0  0  0  1 V2000
  152.1269  145.3310  158.9642 C   0  0  0  0  0  0  0  0  0  0  0  0
  152.0184  144.0192  158.1734 C   0  0  0  0  0  0  0  0  0  0  0  0
  151.5760  142.8979  159.0041 N   0  0  0  0  0  0  0  0  0  0  0  0
  150.8690  141.8070  158.3312 C   0  0  0  0  0  0  0  0  0  0  0  0
  151.4525  141.4747  156.9487 C   0  0  0  0  0  0  0  0  0  0  0  0
  152.3435  142.6325  160.1640 C   0  0  0  0  0  0  0  0  0  0  0  0
  152.1582  143.3454  161.3752 C   0  0  0  0  0  0  0  0  0  0  0  0
  152.9552  143.0304  162.4925 C   0  0  0  0  0  0  0  0  0  0  0  0
  153.9178  142.0014  162.3795 C   0  0  0  0  0  0  0  0  0  0  0  0
  154.7994  141.6023  163.4189 N   0  0  0  0  0  0  0  0  0  0  0  0
  154.8658  142.0389  164.6918 C   0  0  0  0  0  0  0  0  0  0  0  0
  154.0769  142.8297  165.2039 O   0  0  0  0  0  0  0  0  0  0  0  0
  155.8738  141.5026  165.4040 N   0  0  0  0  0  0  0  0  0  0  0  0
  156.2268  141.7570  166.8022 C   0  0  1  0  0  0  0  0  0  0  0  0
  155.0101  141.6390  167.7450 C   0  0  0  0  0  0  0  0  0  0  0  0
  155.5112  141.5456  169.1915 C   0  0  0  0  0  0  0  0  0  0  0  0
  157.1620  140.7523  169.1113 S   0  0  0  0  0  0  0  0  0  0  0  0
  158.1596  141.6781  169.6686 O   0  0  0  0  0  0  0  0  0  0  0  0
  157.0684  139.3636  169.5856 O   0  0  0  0  0  0  0  0  0  0  0  0
  157.2848  140.7563  167.2838 C   0  0  0  0  0  0  0  0  0  0  0  0
  154.0359  141.3544  161.1346 C   0  0  0  0  0  0  0  0  0  0  0  0
  153.2743  141.6532  160.0627 N   0  0  0  0  0  0  0  0  0  0  0  0
  152.4759  146.1394  158.3219 H   0  0  0  0  0  0  0  0  0  0  0  0
  152.8298  145.2393  159.7927 H   0  0  0  0  0  0  0  0  0  0  0  0
  151.1612  145.6283  159.3741 H   0  0  0  0  0  0  0  0  0  0  0  0
  151.3610  144.1544  157.3146 H   0  0  0  0  0  0  0  0  0  0  0  0
  152.9931  143.7737  157.7510 H   0  0  0  0  0  0  0  0  0  0  0  0
  150.9291  140.9123  158.9517 H   0  0  0  0  0  0  0  0  0  0  0  0
  149.8067  142.0391  158.2563 H   0  0  0  0  0  0  0  0  0  0  0  0
  150.9283  140.6277  156.5060 H   0  0  0  0  0  0  0  0  0  0  0  0
  152.5066  141.2064  157.0245 H   0  0  0  0  0  0  0  0  0  0  0  0
  151.3715  142.3083  156.2519 H   0  0  0  0  0  0  0  0  0  0  0  0
  151.4205  144.1264  161.4733 H   0  0  0  0  0  0  0  0  0  0  0  0
  152.8183  143.5929  163.4027 H   0  0  0  0  0  0  0  0  0  0  0  0
  155.4550  140.8766  163.1691 H   0  0  0  0  0  0  0  0  0  0  0  0
  156.4382  140.8135  164.9279 H   0  0  0  0  0  0  0  0  0  0  0  0
  156.6535  142.7568  166.9023 H   0  0  0  0  0  0  0  0  0  0  0  0
  154.3122  142.4676  167.6222 H   0  0  0  0  0  0  0  0  0  0  0  0
  154.4615  140.7265  167.5070 H   0  0  0  0  0  0  0  0  0  0  0  0
  155.6362  142.5387  169.6235 H   0  0  0  0  0  0  0  0  0  0  0  0
  154.8456  140.9679  169.8333 H   0  0  0  0  0  0  0  0  0  0  0  0
  157.0633  139.7469  166.9354 H   0  0  0  0  0  0  0  0  0  0  0  0
  158.2970  141.0180  166.9747 H   0  0  0  0  0  0  0  0  0  0  0  0
  154.7638  140.5691  160.9916 H   0  0  0  0  0  0  0  0  0  0  0  0
  1  2  1  0  0  0  0
  1 23  1  0  0  0  0
  1 24  1  0  0  0  0
  1 25  1  0  0  0  0
  2  3  1  0  0  0  0
  2 26  1  0  0  0  0
  2 27  1  0  0  0  0
  3  4  1  0  0  0  0
  3  6  1  0  0  0  0
  4  5  1  0  0  0  0
  4 28  1  0  0  0  0
  4 29  1  0  0  0  0
  5 30  1  0  0  0  0
  5 31  1  0  0  0  0
  5 32  1  0  0  0  0
  6 22  1  0  0  0  0
  6  7  2  0  0  0  0
  7  8  1  0  0  0  0
  7 33  1  0  0  0  0
  8  9  2  0  0  0  0
  8 34  1  0  0  0  0
  9 10  1  0  0  0  0
  9 21  1  0  0  0  0
 10 11  1  0  0  0  0
 10 35  1  0  0  0  0
 11 12  2  0  0  0  0
 11 13  1  0  0  0  0
 13 14  1  0  0  0  0
 13 36  1  0  0  0  0
 14 20  1  0  0  0  0
 14 15  1  0  0  0  0
 14 37  1  0  0  0  0
 15 16  1  0  0  0  0
 15 38  1  0  0  0  0
 15 39  1  0  0  0  0
 16 17  1  0  0  0  0
 16 40  1  0  0  0  0
 16 41  1  0  0  0  0
 17 18  2  0  0  0  0
 17 19  2  0  0  0  0
 17 20  1  0  0  0  0
 20 42  1  0  0  0  0
 20 43  1  0  0  0  0
 21 22  2  0  0  0  0
 21 44  1  0  0  0  0
M  END
> <s_m_source_file>
AV-unprocessed.smi

> <i_m_source_file_index>
1754

> <i_lp_mmshare_version>
43012

> <i_f3d_flags>
0

> <s_epik_input>
W0NIM11bQ0gyXU4oW0NIMl1bQ0gzXSljMVtjSF1bY0hdYyhbY0hdbjEpW05IXUMoPU8pW05IXVtDQEBIXShbQ0gyXTIpW0NIMl1bQ0gyXVMyKD1PKT1P

> <s_epik_cmdline>
J2VwaWtfcHl0aG9uJywgJy1waCcsICc3LjAnLCAnLXRuJywgJzgnLCAnLW1hJywgJzIwMCcsICctbWV0YWxfYmluZGluZycsICctaW1hZScsICc8aW5maWxlLm1hZT4nLCAnLW9tYWUnLCAnPG91dGZpbGUubWFlPic=

> <r_lp_tautomer_probability>
1

> <r_epik_Ionization_Penalty>
0.615754

> <r_epik_Ionization_Penalty_Charging>
0

> <r_epik_Ionization_Penalty_Neutral>
0.615754

> <r_epik_State_Penalty>
2.08676

> <r_epik_Charging_Adjusted_Penalty>
2.08676

> <i_epik_Tot_Q>
0

> <i_epik_Tot_abs_Q>
0

> <r_epik_Metal_State_Penalty>
1.53042

> <b_epik_Metal_Only>
0

> <s_lp_Force_Field>
OPLS_2005

> <r_lp_Energy>
21.6605

> <b_lp_Chiralities_Consistent>
1

> <s_lp_Variant>
AV-unprocessed.smi:1754-4

> <Gold.Version>
5.8.1

> <Gold.Id.Protein>
6NUR|6NUR_protein|mol2

> <Gold.PLP.Fitness>
44.8352

> <Gold.PLP.PLP>
-47.3257

> <Gold.PLP.part.hbond>
-3.0000

> <Gold.PLP.part.metal>
0.0000

> <Gold.PLP.part.buried>
-6.5209

> <Gold.PLP.part.nonpolar>
-36.9379

> <Gold.PLP.part.repulsive>
0.1305

> <Gold.PLP.ligand.clash>
0.0000

> <Gold.PLP.ligand.torsion>
1.6969

> <Gold.PLP.Chemscore.Hbond>
0.0000

> <Gold.PLP.Chemscore.CHOScore>
0.0000

> <Gold.PLP.Chemscore.Metal>
0.0000

> <Gold.PLP.Chemscore.Internal.Correction>
0.9033

> <Gold.Rescore>
     Score         DG    S(hbond)    S(metal)    S(lipo)     H(rot)  DE(clash)    DE(int)     intcor
      9.58     -13.73       0.00        0.00     100.91       1.39       0.10       4.05       ----

> <Gold.Chemscore.Fitness>
9.5824

> <Gold.Chemscore.DG>
-13.7346

> <Gold.Chemscore.ZeroCoef>
-5.4800

> <Gold.Chemscore.Hbond>
0.0000

> <Gold.Chemscore.Metal>
0.0000

> <Gold.Chemscore.Lipo>
100.9141

> <Gold.Chemscore.Internal_Hbond>
0.0000

> <Gold.Chemscore.DEClash>
0.1002

> <Gold.Chemscore.DEInternal>
4.0519

> <Gold.Chemscore.Rot>
1.3876

> <Gold.Chemscore.Internal.Correction>
   9.000000E+99

> <Gold.Chemscore.Hbond.Weighted>
-0.0000

> <Gold.Chemscore.Metal.Weighted>
-0.0000

> <Gold.Chemscore.Lipo.Weighted>
-11.8070

> <Gold.Chemscore.Internal_Hbond.Weighted>
0.0000

> <Gold.Chemscore.DEClash.Weighted>
0.1002

> <Gold.Chemscore.DEInternal.Weighted>
4.0519

> <Gold.Chemscore.Rot.Weighted>
3.5524

> <Gold.Chemscore.Internal.Correction.Weighted>
   9.000000E+99

> <Gold.Protein.RotatedTorsions>
[ 6907 6896 6895 6894 ] final -164.41 input  -60.11 | X-H torsion
[ 7974 7965 7964 7962 ] final   49.94 input  175.53 | X-H torsion
[ 8008 7997 7996 7995 ] final   72.34 input   59.86 | X-H torsion
[ 10167 10162 10161 10158 ] final  -53.22 input  -65.29 | X-H torsion
[ 10718 10713 10712 10709 ] final  120.71 input   66.30 | X-H torsion
[ 10763 10752 10751 10750 ] final -136.34 input  -60.55 | X-H torsion
[ 11005 11000 10999 10996 ] final  -70.20 input  -57.11 | X-H torsion

> <Gold.Protein.ActiveResidues>
 VAL166  LYS551  ARG553  GLY616  TRP617  ASP618  TYR619  PRO620  LYS621  CYS622 
 ASP623  PHE694  ASN695  SER759  ASP760  ASP761  ALA762  ILE779  LEU786  VAL792 
 PHE793  MET794  SER795  GLU796  ALA797  LYS798  CYS799  TRP800  GLU811  SER814 

> <Gold.Protein.RotatedAtoms>
  151.4114  133.3726  159.2744 H   0  0  0  0  0  0  0  0  0  0  0  0  # atno 6907 bound_to 6896
  150.9360  134.8774  159.7592 H   0  0  0  0  0  0  0  0  0  0  0  0  # atno 6908 bound_to 6896
  152.5050  134.4062  159.9485 H   0  0  0  0  0  0  0  0  0  0  0  0  # atno 6909 bound_to 6896
  146.0060  139.4491  142.9985 H   0  0  0  0  0  0  0  0  0  0  0  0  # atno 7974 bound_to 7965
  155.7674  140.3485  155.5229 H   0  0  0  0  0  0  0  0  0  0  0  0  # atno 8008 bound_to 7997
  155.8855  140.1009  157.1476 H   0  0  0  0  0  0  0  0  0  0  0  0  # atno 8009 bound_to 7997
  154.4028  140.1314  156.4237 H   0  0  0  0  0  0  0  0  0  0  0  0  # atno 8010 bound_to 7997
  140.6496  143.2557  151.4761 H   0  0  0  0  0  0  0  0  0  0  0  0  # atno 10167 bound_to 10162
  157.5871  131.1068  150.8073 H   0  0  0  0  0  0  0  0  0  0  0  0  # atno 10718 bound_to 10713
  154.8685  135.3675  154.5045 H   0  0  0  0  0  0  0  0  0  0  0  0  # atno 10763 bound_to 10752
  153.5684  135.7021  153.5520 H   0  0  0  0  0  0  0  0  0  0  0  0  # atno 10764 bound_to 10752
  153.3564  135.4058  155.1648 H   0  0  0  0  0  0  0  0  0  0  0  0  # atno 10765 bound_to 10752
  141.1569  133.6784  156.6716 H   0  0  0  0  0  0  0  0  0  0  0  0  # atno 11005 bound_to 11000
  145.7414  141.0006  143.1299 LP  0  0  0  0  0  0  0  0  0  0  0  0  # atno 17320 bound_to 7965
  144.6936  139.9104  143.7463 LP  0  0  0  0  0  0  0  0  0  0  0  0  # atno 17321 bound_to 7965
  139.5710  144.1929  152.1836 LP  0  0  0  0  0  0  0  0  0  0  0  0  # atno 17342 bound_to 10162
  140.1225  144.5360  150.6853 LP  0  0  0  0  0  0  0  0  0  0  0  0  # atno 17343 bound_to 10162
  156.8505  130.5078  149.5312 LP  0  0  0  0  0  0  0  0  0  0  0  0  # atno 17370 bound_to 10713
  156.0921  130.5904  150.9751 LP  0  0  0  0  0  0  0  0  0  0  0  0  # atno 17371 bound_to 10713
  140.3170  134.8039  157.4222 LP  0  0  0  0  0  0  0  0  0  0  0  0  # atno 17394 bound_to 11000
  140.1129  134.5321  155.8250 LP  0  0  0  0  0  0  0  0  0  0  0  0  # atno 17395 bound_to 11000

$$$$
