AV-unprocessed.smi:2885|AV-procd|sdf|11086|dock9
  -GOLD-   2272015563D 1   1.00000     0.00000
 Structure written by MMmdl.
 40 42  0  0  0  0  0  0  0  0  1 V2000
  152.9596  137.8510  156.2259 N   0  0  0  0  0  0  0  0  0  0  0  0
  151.9175  137.9661  155.3980 C   0  0  0  0  0  0  0  0  0  0  0  0
  151.5670  137.0539  154.6524 O   0  0  0  0  0  0  0  0  0  0  0  0
  151.2503  139.2962  155.4093 C   0  0  0  0  0  0  0  0  0  0  0  0
  151.5946  140.3913  156.1700 C   0  0  0  0  0  0  0  0  0  0  0  0
  150.6722  141.3894  155.8792 N   0  0  0  0  0  0  0  0  0  0  0  0
  150.6499  142.7206  156.4719 C   0  0  0  0  0  0  0  0  0  0  0  0
  150.8183  142.6746  157.9930 C   0  0  0  0  0  0  0  0  0  0  0  0
  150.1398  141.8946  158.6606 O   0  0  0  0  0  0  0  0  0  0  0  0
  151.7366  143.4969  158.5244 N   0  0  0  0  0  0  0  0  0  0  0  0
  152.1426  143.5059  159.9233 C   0  0  0  0  0  0  0  0  0  0  0  0
  152.5800  142.1129  160.3706 C   0  0  0  0  0  0  0  0  0  0  0  0
  153.0935  141.8968  161.8011 C   0  0  0  0  0  0  0  0  0  0  0  0
  154.0680  140.8549  161.2441 C   0  0  0  0  0  0  0  0  0  0  0  0
  153.9189  141.5387  159.8825 C   0  0  0  0  0  0  0  0  0  0  0  0
  149.8338  140.8626  154.9628 C   0  0  0  0  0  0  0  0  0  0  0  0
  148.6622  141.6036  154.4002 C   0  0  0  0  0  0  0  0  0  0  0  0
  147.2469  141.2348  154.7857 C   0  0  0  0  0  0  0  0  0  0  0  0
  147.7401  140.9591  153.3892 C   0  0  0  0  0  0  0  0  0  0  0  0
  150.1165  139.5995  154.6617 N   0  0  0  0  0  0  0  0  0  0  0  0
  153.4696  136.9809  156.2705 H   0  0  0  0  0  0  0  0  0  0  0  0
  153.2366  138.6356  156.7972 H   0  0  0  0  0  0  0  0  0  0  0  0
  152.3923  140.5388  156.8832 H   0  0  0  0  0  0  0  0  0  0  0  0
  151.4537  143.3187  156.0406 H   0  0  0  0  0  0  0  0  0  0  0  0
  149.7124  143.2108  156.2084 H   0  0  0  0  0  0  0  0  0  0  0  0
  152.2430  144.1071  157.8993 H   0  0  0  0  0  0  0  0  0  0  0  0
  152.9626  144.2160  160.0320 H   0  0  0  0  0  0  0  0  0  0  0  0
  151.3300  143.8772  160.5495 H   0  0  0  0  0  0  0  0  0  0  0  0
  151.7960  141.3783  160.1728 H   0  0  0  0  0  0  0  0  0  0  0  0
  153.6014  142.7729  162.2080 H   0  0  0  0  0  0  0  0  0  0  0  0
  152.3520  141.5029  162.4969 H   0  0  0  0  0  0  0  0  0  0  0  0
  155.0714  140.8941  161.6689 H   0  0  0  0  0  0  0  0  0  0  0  0
  153.6595  139.8431  161.2566 H   0  0  0  0  0  0  0  0  0  0  0  0
  153.8402  140.8596  159.0328 H   0  0  0  0  0  0  0  0  0  0  0  0
  154.6735  142.3086  159.7123 H   0  0  0  0  0  0  0  0  0  0  0  0
  148.8955  142.6600  154.2816 H   0  0  0  0  0  0  0  0  0  0  0  0
  147.1051  140.3795  155.4438 H   0  0  0  0  0  0  0  0  0  0  0  0
  146.5347  142.0468  154.9163 H   0  0  0  0  0  0  0  0  0  0  0  0
  147.3621  141.5877  152.5857 H   0  0  0  0  0  0  0  0  0  0  0  0
  147.9248  139.9205  153.1219 H   0  0  0  0  0  0  0  0  0  0  0  0
  1  2  1  0  0  0  0
  1 21  1  0  0  0  0
  1 22  1  0  0  0  0
  2  3  2  0  0  0  0
  2  4  1  0  0  0  0
  4 20  1  0  0  0  0
  4  5  2  0  0  0  0
  5  6  1  0  0  0  0
  5 23  1  0  0  0  0
  6  7  1  0  0  0  0
  6 16  1  0  0  0  0
  7  8  1  0  0  0  0
  7 24  1  0  0  0  0
  7 25  1  0  0  0  0
  8  9  2  0  0  0  0
  8 10  1  0  0  0  0
 10 11  1  0  0  0  0
 10 26  1  0  0  0  0
 11 12  1  0  0  0  0
 11 27  1  0  0  0  0
 11 28  1  0  0  0  0
 12 15  1  0  0  0  0
 12 13  1  0  0  0  0
 12 29  1  0  0  0  0
 13 14  1  0  0  0  0
 13 30  1  0  0  0  0
 13 31  1  0  0  0  0
 14 15  1  0  0  0  0
 14 32  1  0  0  0  0
 14 33  1  0  0  0  0
 15 34  1  0  0  0  0
 15 35  1  0  0  0  0
 16 17  1  0  0  0  0
 16 20  2  0  0  0  0
 17 19  1  0  0  0  0
 17 18  1  0  0  0  0
 17 36  1  0  0  0  0
 18 19  1  0  0  0  0
 18 37  1  0  0  0  0
 18 38  1  0  0  0  0
 19 39  1  0  0  0  0
 19 40  1  0  0  0  0
M  END
> <s_m_source_file>
AV-unprocessed.smi

> <i_m_source_file_index>
2885

> <i_lp_mmshare_version>
43012

> <i_f3d_flags>
0

> <s_epik_input>
W05IMl1DKD1PKWMxW2NIXW4oYyhuMSlbQ0hdMltDSDJdW0NIMl0yKVtDSDJdQyg9TylbTkhdW0NIMl1bQ0hdM1tDSDJdW0NIMl1bQ0gyXTM=

> <s_epik_cmdline>
J2VwaWtfcHl0aG9uJywgJy1waCcsICc3LjAnLCAnLXRuJywgJzgnLCAnLW1hJywgJzIwMCcsICctbWV0YWxfYmluZGluZycsICctaW1hZScsICc8aW5maWxlLm1hZT4nLCAnLW9tYWUnLCAnPG91dGZpbGUubWFlPic=

> <r_lp_tautomer_probability>
1

> <r_epik_Ionization_Penalty>
0.00135877

> <r_epik_Ionization_Penalty_Charging>
0.00135847

> <r_epik_Ionization_Penalty_Neutral>
3.0068e-07

> <r_epik_State_Penalty>
0.000904027

> <r_epik_Charging_Adjusted_Penalty>
0.00226249

> <i_epik_Tot_Q>
0

> <i_epik_Tot_abs_Q>
0

> <r_epik_Metal_State_Penalty>
-0

> <b_epik_Metal_Only>
0

> <s_lp_Force_Field>
OPLS_2005

> <r_lp_Energy>
17.7141

> <b_lp_Chiralities_Consistent>
1

> <s_lp_Variant>
AV-unprocessed.smi:2885-1

> <Gold.Version>
5.8.1

> <Gold.Id.Protein>
6NUR|6NUR_protein|mol2

> <Gold.PLP.Fitness>
46.6952

> <Gold.PLP.PLP>
-44.3360

> <Gold.PLP.part.hbond>
-1.9693

> <Gold.PLP.part.metal>
0.0000

> <Gold.PLP.part.buried>
-0.5753

> <Gold.PLP.part.nonpolar>
-41.0332

> <Gold.PLP.part.repulsive>
0.4848

> <Gold.PLP.ligand.clash>
0.0000

> <Gold.PLP.ligand.torsion>
0.4440

> <Gold.PLP.Chemscore.Hbond>
1.0000

> <Gold.PLP.Chemscore.CHOScore>
0.0000

> <Gold.PLP.Chemscore.Metal>
0.0000

> <Gold.Chemscore.Hbonds>
donor molecule, donor type, donor heavy atom, donor atom, acceptor molecule, acceptor atom, score
      P1  H 10752 10763       L1     3  1.00

> <Gold.PLP.Chemscore.Internal.Correction>
0.2471

> <Gold.Rescore>
     Score         DG    S(hbond)    S(metal)    S(lipo)     H(rot)  DE(clash)    DE(int)     intcor
     12.40     -14.91       0.94        0.00      96.93       1.98       1.52       0.99       ----

> <Gold.Chemscore.Fitness>
12.4023

> <Gold.Chemscore.DG>
-14.9082

> <Gold.Chemscore.ZeroCoef>
-5.4800

> <Gold.Chemscore.Hbond>
0.9441

> <Gold.Chemscore.Metal>
0.0000

> <Gold.Chemscore.Lipo>
96.9333

> <Gold.Chemscore.Internal_Hbond>
0.0000

> <Gold.Chemscore.DEClash>
1.5183

> <Gold.Chemscore.DEInternal>
0.9875

> <Gold.Chemscore.Rot>
1.9791

> <Gold.Chemscore.Internal.Correction>
   9.000000E+99

> <Gold.Chemscore.Hbonds>
donor molecule, donor type, donor heavy atom, donor atom, acceptor molecule, acceptor atom, score
      P1  H 10752 10763       L1     3  0.88

> <Gold.Chemscore.Hbond.Weighted>
-3.1534

> <Gold.Chemscore.Metal.Weighted>
-0.0000

> <Gold.Chemscore.Lipo.Weighted>
-11.3412

> <Gold.Chemscore.Internal_Hbond.Weighted>
0.0000

> <Gold.Chemscore.DEClash.Weighted>
1.5183

> <Gold.Chemscore.DEInternal.Weighted>
0.9875

> <Gold.Chemscore.Rot.Weighted>
5.0665

> <Gold.Chemscore.Internal.Correction.Weighted>
   9.000000E+99

> <Gold.Protein.RotatedTorsions>
[ 6907 6896 6895 6894 ] final  162.76 input  -60.11 | X-H torsion
[ 7974 7965 7964 7962 ] final  -13.00 input  175.53 | X-H torsion
[ 8008 7997 7996 7995 ] final   92.36 input   59.86 | X-H torsion
[ 10167 10162 10161 10158 ] final  106.04 input  -65.29 | X-H torsion
[ 10718 10713 10712 10709 ] final  130.23 input   66.30 | X-H torsion
[ 10763 10752 10751 10750 ] final   38.70 input  -60.55 | X-H torsion
[ 11005 11000 10999 10996 ] final  -36.55 input  -57.11 | X-H torsion

> <Gold.Protein.ActiveResidues>
 VAL166  LYS551  ARG553  GLY616  TRP617  ASP618  TYR619  PRO620  LYS621  CYS622 
 ASP623  PHE694  ASN695  SER759  ASP760  ASP761  ALA762  ILE779  LEU786  VAL792 
 PHE793  MET794  SER795  GLU796  ALA797  LYS798  CYS799  TRP800  GLU811  SER814 

> <Gold.Protein.RotatedAtoms>
  151.9356  133.3623  159.3946 H   0  0  0  0  0  0  0  0  0  0  0  0  # atno 6907 bound_to 6896
  150.7008  134.4493  159.5338 H   0  0  0  0  0  0  0  0  0  0  0  0  # atno 6908 bound_to 6896
  152.2141  134.8474  160.0545 H   0  0  0  0  0  0  0  0  0  0  0  0  # atno 6909 bound_to 6896
  146.2131  140.3140  142.8385 H   0  0  0  0  0  0  0  0  0  0  0  0  # atno 7974 bound_to 7965
  156.0345  140.3326  155.7175 H   0  0  0  0  0  0  0  0  0  0  0  0  # atno 8008 bound_to 7997
  155.5836  140.0639  157.2794 H   0  0  0  0  0  0  0  0  0  0  0  0  # atno 8009 bound_to 7997
  154.4367  140.1839  156.0990 H   0  0  0  0  0  0  0  0  0  0  0  0  # atno 8010 bound_to 7997
  139.7042  144.7089  151.1135 H   0  0  0  0  0  0  0  0  0  0  0  0  # atno 10167 bound_to 10162
  157.5081  131.1096  150.9332 H   0  0  0  0  0  0  0  0  0  0  0  0  # atno 10718 bound_to 10713
  152.9992  135.6242  154.2346 H   0  0  0  0  0  0  0  0  0  0  0  0  # atno 10763 bound_to 10752
  154.2087  135.2801  155.2967 H   0  0  0  0  0  0  0  0  0  0  0  0  # atno 10764 bound_to 10752
  154.5624  135.5701  153.7078 H   0  0  0  0  0  0  0  0  0  0  0  0  # atno 10765 bound_to 10752
  140.9884  133.7018  156.1805 H   0  0  0  0  0  0  0  0  0  0  0  0  # atno 11005 bound_to 11000
  144.8968  140.7592  143.5892 LP  0  0  0  0  0  0  0  0  0  0  0  0  # atno 17320 bound_to 7965
  145.3064  139.1833  143.4662 LP  0  0  0  0  0  0  0  0  0  0  0  0  # atno 17321 bound_to 7965
  140.7717  143.5382  150.9344 LP  0  0  0  0  0  0  0  0  0  0  0  0  # atno 17342 bound_to 10162
  139.9064  143.6773  152.3122 LP  0  0  0  0  0  0  0  0  0  0  0  0  # atno 17343 bound_to 10162
  156.9982  130.5589  149.5309 LP  0  0  0  0  0  0  0  0  0  0  0  0  # atno 17370 bound_to 10713
  156.0271  130.5364  150.8436 LP  0  0  0  0  0  0  0  0  0  0  0  0  # atno 17371 bound_to 10713
  140.7079  134.4493  157.5583 LP  0  0  0  0  0  0  0  0  0  0  0  0  # atno 17394 bound_to 11000
  139.8981  134.8622  156.2017 LP  0  0  0  0  0  0  0  0  0  0  0  0  # atno 17395 bound_to 11000

$$$$
