AV-unprocessed.smi:1355|AV-procd|sdf|5539|dock2
  -GOLD-   22720 5133D 1   1.00000     0.00000
 Structure written by MMmdl.
 33 34  0  0  0  0  0  0  0  0  2 V2000
  150.5426  136.7220  155.0621 C   0  0  0  0  0  0  0  0  0  0  0  0
  151.8606  137.2333  154.9746 O   0  0  0  0  0  0  0  0  0  0  0  0
  151.9054  138.6465  155.0858 C   0  0  0  0  0  0  0  0  0  0  0  0
  151.4048  139.0785  156.4717 C   0  0  0  0  0  0  0  0  0  0  0  0
  151.0025  140.4931  156.5027 N   0  0  0  0  0  0  0  0  0  0  0  0
  150.1044  141.1697  155.7297 C   0  0  0  0  0  0  0  0  0  0  0  0
  149.2626  140.6060  154.6275 C   0  0  1  0  0  0  0  0  0  0  0  0
  147.7805  140.9306  154.8531 C   0  0  0  0  0  0  0  0  0  0  0  0
  149.6454  141.0965  153.3593 O   0  0  0  0  0  0  0  0  0  0  0  0
  150.0919  142.4617  156.1659 N   0  3  0  0  0  0  0  0  0  0  0  0
  151.0012  142.6179  157.2119 C   0  0  0  0  0  0  0  0  0  0  0  0
  151.3437  143.7395  157.9606 C   0  0  0  0  0  0  0  0  0  0  0  0
  152.3192  143.5574  158.9629 C   0  0  0  0  0  0  0  0  0  0  0  0
  152.9138  142.2990  159.1882 C   0  0  0  0  0  0  0  0  0  0  0  0
  152.5581  141.1694  158.4221 C   0  0  0  0  0  0  0  0  0  0  0  0
  151.5913  141.3570  157.4343 C   0  0  0  0  0  0  0  0  0  0  0  0
  150.5653  135.6359  154.9738 H   0  0  0  0  0  0  0  0  0  0  0  0
  149.9149  137.1117  154.2598 H   0  0  0  0  0  0  0  0  0  0  0  0
  150.0847  136.9727  156.0197 H   0  0  0  0  0  0  0  0  0  0  0  0
  152.9270  138.9987  154.9355 H   0  0  0  0  0  0  0  0  0  0  0  0
  151.2865  139.1014  154.3111 H   0  0  0  0  0  0  0  0  0  0  0  0
  150.5402  138.4801  156.7601 H   0  0  0  0  0  0  0  0  0  0  0  0
  152.1634  138.9025  157.2343 H   0  0  0  0  0  0  0  0  0  0  0  0
  149.3913  139.5236  154.6063 H   0  0  0  0  0  0  0  0  0  0  0  0
  147.4319  140.5281  155.8046 H   0  0  0  0  0  0  0  0  0  0  0  0
  147.1595  140.5001  154.0668 H   0  0  0  0  0  0  0  0  0  0  0  0
  147.6061  142.0070  154.8632 H   0  0  0  0  0  0  0  0  0  0  0  0
  149.5324  140.4062  152.7236 H   0  0  0  0  0  0  0  0  0  0  0  0
  150.8908  144.7048  157.7878 H   0  0  0  0  0  0  0  0  0  0  0  0
  152.6185  144.4000  159.5693 H   0  0  0  0  0  0  0  0  0  0  0  0
  153.6595  142.1974  159.9634 H   0  0  0  0  0  0  0  0  0  0  0  0
  153.0257  140.2122  158.5994 H   0  0  0  0  0  0  0  0  0  0  0  0
  149.5022  143.1818  155.7685 H   0  0  0  0  0  0  0  0  0  0  0  0
  1  2  1  0  0  0  0
  1 17  1  0  0  0  0
  1 18  1  0  0  0  0
  1 19  1  0  0  0  0
  2  3  1  0  0  0  0
  3  4  1  0  0  0  0
  3 20  1  0  0  0  0
  3 21  1  0  0  0  0
  4  5  1  0  0  0  0
  4 22  1  0  0  0  0
  4 23  1  0  0  0  0
  5 16  1  0  0  0  0
  5  6  1  0  0  0  0
  6  7  1  0  0  0  0
  6 10  2  0  0  0  0
  7  8  1  0  0  0  0
  7  9  1  0  0  0  0
  7 24  1  0  0  0  0
  8 25  1  0  0  0  0
  8 26  1  0  0  0  0
  8 27  1  0  0  0  0
  9 28  1  0  0  0  0
 10 11  1  0  0  0  0
 10 33  1  0  0  0  0
 11 16  2  0  0  0  0
 11 12  1  0  0  0  0
 12 13  2  0  0  0  0
 12 29  1  0  0  0  0
 13 14  1  0  0  0  0
 13 30  1  0  0  0  0
 14 15  2  0  0  0  0
 14 31  1  0  0  0  0
 15 16  1  0  0  0  0
 15 32  1  0  0  0  0
M  CHG  1  10   1
M  END
> <s_m_source_file>
AV-unprocessed.smi

> <i_m_source_file_index>
1355

> <i_lp_mmshare_version>
43012

> <i_f3d_flags>
0

> <s_epik_input>
W0NIM11PW0NIMl1bQ0gyXW4oYyhuMSlbQ0BIXShbQ0gzXSlbT0hdKWMoYzEyKVtjSF1bY0hdW2NIXVtjSF0y

> <s_epik_cmdline>
J2VwaWtfcHl0aG9uJywgJy1waCcsICc3LjAnLCAnLXRuJywgJzgnLCAnLW1hJywgJzIwMCcsICctbWV0YWxfYmluZGluZycsICctaW1hZScsICc8aW5maWxlLm1hZT4nLCAnLW9tYWUnLCAnPG91dGZpbGUubWFlPic=

> <r_epik_Ionization_Penalty>
1.43426

> <r_epik_Ionization_Penalty_Charging>
1.43423

> <r_epik_Ionization_Penalty_Neutral>
2.92192e-05

> <r_epik_State_Penalty>
1.51908

> <r_epik_Charging_Adjusted_Penalty>
2.95331

> <i_epik_Tot_Q>
1

> <i_epik_Tot_abs_Q>
1

> <r_epik_Metal_State_Penalty>
5.5644

> <b_epik_Metal_Only>
0

> <s_lp_Force_Field>
OPLS_2005

> <r_lp_Energy>
11.2179

> <b_lp_Chiralities_Consistent>
1

> <s_lp_Variant>
AV-unprocessed.smi:1355-4

> <Gold.Version>
5.8.1

> <Gold.Id.Protein>
6NUR|6NUR_protein|mol2

> <Gold.PLP.Fitness>
50.2686

> <Gold.PLP.PLP>
-35.7084

> <Gold.PLP.part.hbond>
-4.4722

> <Gold.PLP.part.metal>
0.0000

> <Gold.PLP.part.buried>
-3.9438

> <Gold.PLP.part.nonpolar>
-27.9311

> <Gold.PLP.part.repulsive>
0.2093

> <Gold.PLP.ligand.clash>
0.0000

> <Gold.PLP.ligand.torsion>
0.2337

> <Gold.PLP.Chemscore.Hbond>
5.0040

> <Gold.PLP.Chemscore.CHOScore>
0.0000

> <Gold.PLP.Chemscore.Metal>
0.0000

> <Gold.Chemscore.Hbonds>
donor molecule, donor type, donor heavy atom, donor atom, acceptor molecule, acceptor atom, score
      L1  H     9    28       P1  7957  0.88
      L1  H    10    33       P1  8028  2.00
      P1  H  7989  7998       L1     9  0.13
      P1  H  8011  8017       L1     9  1.00
      P1  H 10752 10765       L1     2  0.99

> <Gold.PLP.Chemscore.Internal.Correction>
0.0156

> <Gold.Rescore>
     Score         DG    S(hbond)    S(metal)    S(lipo)     H(rot)  DE(clash)    DE(int)     intcor
     20.95     -21.34       3.22        0.00      89.70       2.10       0.02       0.38       ----

> <Gold.Chemscore.Fitness>
20.9459

> <Gold.Chemscore.DG>
-21.3443

> <Gold.Chemscore.ZeroCoef>
-5.4800

> <Gold.Chemscore.Hbond>
3.2186

> <Gold.Chemscore.Metal>
0.0000

> <Gold.Chemscore.Lipo>
89.6965

> <Gold.Chemscore.Internal_Hbond>
0.0000

> <Gold.Chemscore.DEClash>
0.0227

> <Gold.Chemscore.DEInternal>
0.3758

> <Gold.Chemscore.Rot>
2.1017

> <Gold.Chemscore.Internal.Correction>
   9.000000E+99

> <Gold.Chemscore.Hbonds>
donor molecule, donor type, donor heavy atom, donor atom, acceptor molecule, acceptor atom, score
      L1  H     9    28       P1  7957  0.85
      L1  H    10    33       P1  8028  0.98
      P1  H  8011  8017       L1     9  0.25
      P1  H 10752 10765       L1     2  0.36

> <Gold.Chemscore.Hbond.Weighted>
-10.7501

> <Gold.Chemscore.Metal.Weighted>
-0.0000

> <Gold.Chemscore.Lipo.Weighted>
-10.4945

> <Gold.Chemscore.Internal_Hbond.Weighted>
0.0000

> <Gold.Chemscore.DEClash.Weighted>
0.0227

> <Gold.Chemscore.DEInternal.Weighted>
0.3758

> <Gold.Chemscore.Rot.Weighted>
5.3803

> <Gold.Chemscore.Internal.Correction.Weighted>
   9.000000E+99

> <Gold.Protein.RotatedTorsions>
[ 6907 6896 6895 6894 ] final   84.79 input  -60.11 | X-H torsion
[ 7974 7965 7964 7962 ] final   16.45 input  175.53 | X-H torsion
[ 8008 7997 7996 7995 ] final  -19.26 input   59.86 | X-H torsion
[ 10167 10162 10161 10158 ] final -133.26 input  -65.29 | X-H torsion
[ 10718 10713 10712 10709 ] final  121.79 input   66.30 | X-H torsion
[ 10763 10752 10751 10750 ] final  175.32 input  -60.55 | X-H torsion
[ 11005 11000 10999 10996 ] final -146.64 input  -57.11 | X-H torsion

> <Gold.Protein.ActiveResidues>
 VAL166  LYS551  ARG553  GLY616  TRP617  ASP618  TYR619  PRO620  LYS621  CYS622 
 ASP623  PHE694  ASN695  SER759  ASP760  ASP761  ALA762  ILE779  LEU786  VAL792 
 PHE793  MET794  SER795  GLU796  ALA797  LYS798  CYS799  TRP800  GLU811  SER814 

> <Gold.Protein.RotatedAtoms>
  152.5360  134.2686  159.8962 H   0  0  0  0  0  0  0  0  0  0  0  0  # atno 6907 bound_to 6896
  151.2644  133.4279  159.2625 H   0  0  0  0  0  0  0  0  0  0  0  0  # atno 6908 bound_to 6896
  151.0424  134.9631  159.8225 H   0  0  0  0  0  0  0  0  0  0  0  0  # atno 6909 bound_to 6896
  146.2249  139.8746  142.8581 H   0  0  0  0  0  0  0  0  0  0  0  0  # atno 7974 bound_to 7965
  154.4849  140.2093  155.9679 H   0  0  0  0  0  0  0  0  0  0  0  0  # atno 8008 bound_to 7997
  156.1220  140.3211  155.8192 H   0  0  0  0  0  0  0  0  0  0  0  0  # atno 8009 bound_to 7997
  155.4450  140.0513  157.2997 H   0  0  0  0  0  0  0  0  0  0  0  0  # atno 8010 bound_to 7997
  139.9001  143.6618  152.2596 H   0  0  0  0  0  0  0  0  0  0  0  0  # atno 10167 bound_to 10162
  157.5791  131.1076  150.8221 H   0  0  0  0  0  0  0  0  0  0  0  0  # atno 10718 bound_to 10713
  154.4660  135.2769  155.1678 H   0  0  0  0  0  0  0  0  0  0  0  0  # atno 10763 bound_to 10752
  154.3446  135.6163  153.5617 H   0  0  0  0  0  0  0  0  0  0  0  0  # atno 10764 bound_to 10752
  152.9859  135.5797  154.5031 H   0  0  0  0  0  0  0  0  0  0  0  0  # atno 10765 bound_to 10752
  140.7799  134.3091  157.5049 H   0  0  0  0  0  0  0  0  0  0  0  0  # atno 11005 bound_to 11000
  145.2573  141.0065  143.3846 LP  0  0  0  0  0  0  0  0  0  0  0  0  # atno 17320 bound_to 7965
  144.9326  139.4281  143.6488 LP  0  0  0  0  0  0  0  0  0  0  0  0  # atno 17321 bound_to 7965
  139.7033  144.7632  151.1236 LP  0  0  0  0  0  0  0  0  0  0  0  0  # atno 17342 bound_to 10162
  140.7708  143.5429  150.9292 LP  0  0  0  0  0  0  0  0  0  0  0  0  # atno 17343 bound_to 10162
  156.8672  130.5133  149.5299 LP  0  0  0  0  0  0  0  0  0  0  0  0  # atno 17370 bound_to 10713
  156.0836  130.5841  150.9609 LP  0  0  0  0  0  0  0  0  0  0  0  0  # atno 17371 bound_to 10713
  139.8744  134.9312  156.3522 LP  0  0  0  0  0  0  0  0  0  0  0  0  # atno 17394 bound_to 11000
  140.9493  133.7462  156.0250 LP  0  0  0  0  0  0  0  0  0  0  0  0  # atno 17395 bound_to 11000

$$$$
