AV-unprocessed.smi:3290|AV-procd|sdf|12616|dock3
  -GOLD-   2272018543D 1   1.00000     0.00000
 Structure written by MMmdl.
 43 44  0  0  0  0  0  0  0  0  2 V2000
  146.0099  142.5014  154.3112 C   0  0  0  0  0  0  0  0  0  0  0  0
  147.4275  141.9305  154.4808 C   0  0  1  0  0  0  0  0  0  0  0  0
  147.7268  141.5876  155.9555 C   0  0  0  0  0  0  0  0  0  0  0  0
  149.1790  141.1229  156.1457 C   0  0  0  0  0  0  0  0  0  0  0  0
  149.5236  139.9567  155.2088 C   0  0  0  0  0  0  0  0  0  0  0  0
  149.2291  140.3187  153.7433 C   0  0  0  0  0  0  0  0  0  0  0  0
  147.7604  140.7461  153.5269 C   0  0  1  0  0  0  0  0  0  0  0  0
  146.8094  139.5284  153.6329 C   0  0  0  0  0  0  0  0  0  0  0  0
  146.1250  139.2428  152.3562 N   0  3  0  0  0  0  0  0  0  0  0  0
  146.0432  137.8070  152.0215 C   0  0  0  0  0  0  0  0  0  0  0  0
  144.8454  137.1351  152.7150 C   0  0  1  0  0  0  0  0  0  0  0  0
  143.7159  137.9773  152.5913 O   0  0  0  0  0  0  0  0  0  0  0  0
  144.5815  135.7522  152.1408 C   0  0  0  0  0  0  0  0  0  0  0  0
  143.6798  134.8610  152.7626 C   0  0  0  0  0  0  0  0  0  0  0  0
  143.4727  133.5953  152.1785 C   0  0  0  0  0  0  0  0  0  0  0  0
  144.0920  133.1899  151.0496 N   0  0  0  0  0  0  0  0  0  0  0  0
  144.9515  134.0465  150.4579 C   0  0  0  0  0  0  0  0  0  0  0  0
  145.2296  135.3338  150.9599 C   0  0  0  0  0  0  0  0  0  0  0  0
  145.2495  141.8122  154.6780 H   0  0  0  0  0  0  0  0  0  0  0  0
  145.7946  142.7227  153.2657 H   0  0  0  0  0  0  0  0  0  0  0  0
  145.8982  143.4306  154.8710 H   0  0  0  0  0  0  0  0  0  0  0  0
  148.1053  142.7412  154.2077 H   0  0  0  0  0  0  0  0  0  0  0  0
  147.5469  142.4617  156.5826 H   0  0  0  0  0  0  0  0  0  0  0  0
  147.0440  140.8165  156.3122 H   0  0  0  0  0  0  0  0  0  0  0  0
  149.8550  141.9565  155.9510 H   0  0  0  0  0  0  0  0  0  0  0  0
  149.3433  140.8291  157.1828 H   0  0  0  0  0  0  0  0  0  0  0  0
  150.5759  139.6935  155.3200 H   0  0  0  0  0  0  0  0  0  0  0  0
  148.9553  139.0718  155.4964 H   0  0  0  0  0  0  0  0  0  0  0  0
  149.8882  141.1340  153.4413 H   0  0  0  0  0  0  0  0  0  0  0  0
  149.4815  139.4790  153.0949 H   0  0  0  0  0  0  0  0  0  0  0  0
  147.6981  141.1149  152.5017 H   0  0  0  0  0  0  0  0  0  0  0  0
  147.3785  138.6365  153.8980 H   0  0  0  0  0  0  0  0  0  0  0  0
  146.0738  139.6716  154.4241 H   0  0  0  0  0  0  0  0  0  0  0  0
  145.1863  139.6118  152.4087 H   0  0  0  0  0  0  0  0  0  0  0  0
  145.9769  137.6848  150.9392 H   0  0  0  0  0  0  0  0  0  0  0  0
  146.9688  137.3264  152.3417 H   0  0  0  0  0  0  0  0  0  0  0  0
  145.0580  137.0309  153.7802 H   0  0  0  0  0  0  0  0  0  0  0  0
  143.9842  138.8660  152.7714 H   0  0  0  0  0  0  0  0  0  0  0  0
  143.1553  135.1365  153.6660 H   0  0  0  0  0  0  0  0  0  0  0  0
  142.7894  132.8908  152.6292 H   0  0  0  0  0  0  0  0  0  0  0  0
  145.4312  133.6970  149.5556 H   0  0  0  0  0  0  0  0  0  0  0  0
  145.9251  135.9803  150.4452 H   0  0  0  0  0  0  0  0  0  0  0  0
  146.6164  139.7168  151.6116 H   0  0  0  0  0  0  0  0  0  0  0  0
  1  2  1  0  0  0  0
  1 19  1  0  0  0  0
  1 20  1  0  0  0  0
  1 21  1  0  0  0  0
  2  7  1  0  0  0  0
  2  3  1  0  0  0  0
  2 22  1  0  0  0  0
  3  4  1  0  0  0  0
  3 23  1  0  0  0  0
  3 24  1  0  0  0  0
  4  5  1  0  0  0  0
  4 25  1  0  0  0  0
  4 26  1  0  0  0  0
  5  6  1  0  0  0  0
  5 27  1  0  0  0  0
  5 28  1  0  0  0  0
  6  7  1  0  0  0  0
  6 29  1  0  0  0  0
  6 30  1  0  0  0  0
  7  8  1  0  0  0  0
  7 31  1  0  0  0  0
  8  9  1  0  0  0  0
  8 32  1  0  0  0  0
  8 33  1  0  0  0  0
  9 10  1  0  0  0  0
  9 34  1  0  0  0  0
  9 43  1  0  0  0  0
 10 11  1  0  0  0  0
 10 35  1  0  0  0  0
 10 36  1  0  0  0  0
 11 12  1  0  0  0  0
 11 13  1  0  0  0  0
 11 37  1  0  0  0  0
 12 38  1  0  0  0  0
 13 18  1  0  0  0  0
 13 14  2  0  0  0  0
 14 15  1  0  0  0  0
 14 39  1  0  0  0  0
 15 16  2  0  0  0  0
 15 40  1  0  0  0  0
 16 17  1  0  0  0  0
 17 18  2  0  0  0  0
 17 41  1  0  0  0  0
 18 42  1  0  0  0  0
M  CHG  1   9   1
M  END
> <s_m_source_file>
AV-unprocessed.smi

> <i_m_source_file_index>
3290

> <i_lp_mmshare_version>
43012

> <i_f3d_flags>
0

> <s_epik_input>
W0NIM11bQ0BASF0xW0NIMl1bQ0gyXVtDSDJdW0NIMl1bQ0BIXTFbQ0gyXVtOSF1bQ0gyXVtDQEhdKFtPSF0pYzJbY0hdW2NIXW5bY0hdW2NIXTI=

> <s_epik_cmdline>
J2VwaWtfcHl0aG9uJywgJy1waCcsICc3LjAnLCAnLXRuJywgJzgnLCAnLW1hJywgJzIwMCcsICctbWV0YWxfYmluZGluZycsICctaW1hZScsICc8aW5maWxlLm1hZT4nLCAnLW9tYWUnLCAnPG91dGZpbGUubWFlPic=

> <r_lp_tautomer_probability>
1

> <r_epik_Ionization_Penalty>
0.00420552

> <r_epik_Ionization_Penalty_Charging>
0.00207255

> <r_epik_Ionization_Penalty_Neutral>
0.00213297

> <r_epik_State_Penalty>
-0

> <r_epik_Charging_Adjusted_Penalty>
0.00207255

> <i_epik_Tot_Q>
1

> <i_epik_Tot_abs_Q>
1

> <r_epik_Metal_State_Penalty>
-0

> <b_epik_Metal_Only>
0

> <s_lp_Force_Field>
OPLS_2005

> <r_lp_Energy>
19.3007

> <b_lp_Chiralities_Consistent>
1

> <s_lp_Variant>
AV-unprocessed.smi:3290-6

> <Gold.Version>
5.8.1

> <Gold.Id.Protein>
6NUR|6NUR_protein|mol2

> <Gold.PLP.Fitness>
45.0335

> <Gold.PLP.PLP>
-33.2333

> <Gold.PLP.part.hbond>
-2.4580

> <Gold.PLP.part.metal>
0.0000

> <Gold.PLP.part.buried>
0.6664

> <Gold.PLP.part.nonpolar>
-31.7828

> <Gold.PLP.part.repulsive>
0.2017

> <Gold.PLP.ligand.clash>
0.0000

> <Gold.PLP.ligand.torsion>
1.4561

> <Gold.PLP.Chemscore.Hbond>
2.9199

> <Gold.PLP.Chemscore.CHOScore>
1.9355

> <Gold.PLP.Chemscore.Metal>
0.0000

> <Gold.Chemscore.Hbonds>
donor molecule, donor type, donor heavy atom, donor atom, acceptor molecule, acceptor atom, score
      L1  H     9    34       P1 10175  2.00
      L1  H    12    38       P1 10175  0.86
      L1  C    15    40       P1 10957  0.92
      L1  C    17    41       P1  7921  1.00

> <Gold.PLP.Chemscore.Internal.Correction>
0.1462

> <Gold.Rescore>
     Score         DG    S(hbond)    S(metal)    S(lipo)     H(rot)  DE(clash)    DE(int)     intcor
     15.14     -16.60       1.95        0.00      84.27       2.05       0.18       1.28       ----

> <Gold.Chemscore.Fitness>
15.1446

> <Gold.Chemscore.DG>
-16.6020

> <Gold.Chemscore.ZeroCoef>
-5.4800

> <Gold.Chemscore.Hbond>
1.9490

> <Gold.Chemscore.Metal>
0.0000

> <Gold.Chemscore.Lipo>
84.2710

> <Gold.Chemscore.Internal_Hbond>
0.0000

> <Gold.Chemscore.DEClash>
0.1787

> <Gold.Chemscore.DEInternal>
1.2787

> <Gold.Chemscore.Rot>
2.0498

> <Gold.Chemscore.Internal.Correction>
   9.000000E+99

> <Gold.Chemscore.Hbonds>
donor molecule, donor type, donor heavy atom, donor atom, acceptor molecule, acceptor atom, score
      L1  H     9    34       P1 10175  1.00
      L1  H    12    38       P1 10175  0.86

> <Gold.Chemscore.Hbond.Weighted>
-6.5098

> <Gold.Chemscore.Metal.Weighted>
-0.0000

> <Gold.Chemscore.Lipo.Weighted>
-9.8597

> <Gold.Chemscore.Internal_Hbond.Weighted>
0.0000

> <Gold.Chemscore.DEClash.Weighted>
0.1787

> <Gold.Chemscore.DEInternal.Weighted>
1.2787

> <Gold.Chemscore.Rot.Weighted>
5.2475

> <Gold.Chemscore.Internal.Correction.Weighted>
   9.000000E+99

> <Gold.Protein.RotatedTorsions>
[ 6907 6896 6895 6894 ] final  118.34 input  -60.11 | X-H torsion
[ 7974 7965 7964 7962 ] final   12.70 input  175.53 | X-H torsion
[ 8008 7997 7996 7995 ] final   79.37 input   59.86 | X-H torsion
[ 10167 10162 10161 10158 ] final  -72.07 input  -65.29 | X-H torsion
[ 10718 10713 10712 10709 ] final -102.81 input   66.30 | X-H torsion
[ 10763 10752 10751 10750 ] final  103.26 input  -60.55 | X-H torsion
[ 11005 11000 10999 10996 ] final  137.32 input  -57.11 | X-H torsion

> <Gold.Protein.ActiveResidues>
 VAL166  LYS551  ARG553  GLY616  TRP617  ASP618  TYR619  PRO620  LYS621  CYS622 
 ASP623  PHE694  ASN695  SER759  ASP760  ASP761  ALA762  ILE779  LEU786  VAL792 
 PHE793  MET794  SER795  GLU796  ALA797  LYS798  CYS799  TRP800  GLU811  SER814 

> <Gold.Protein.RotatedAtoms>
  152.4549  133.7704  159.6795 H   0  0  0  0  0  0  0  0  0  0  0  0  # atno 6907 bound_to 6896
  150.8473  133.7832  159.3045 H   0  0  0  0  0  0  0  0  0  0  0  0  # atno 6908 bound_to 6896
  151.5438  135.1071  159.9985 H   0  0  0  0  0  0  0  0  0  0  0  0  # atno 6909 bound_to 6896
  146.2346  139.9298  142.8498 H   0  0  0  0  0  0  0  0  0  0  0  0  # atno 7974 bound_to 7965
  155.8687  140.3450  155.5806 H   0  0  0  0  0  0  0  0  0  0  0  0  # atno 8008 bound_to 7997
  155.7852  140.0864  157.2057 H   0  0  0  0  0  0  0  0  0  0  0  0  # atno 8009 bound_to 7997
  154.4016  140.1493  156.3086 H   0  0  0  0  0  0  0  0  0  0  0  0  # atno 8010 bound_to 7997
  140.5222  143.2330  151.7410 H   0  0  0  0  0  0  0  0  0  0  0  0  # atno 10167 bound_to 10162
  156.0242  130.5438  150.7163 H   0  0  0  0  0  0  0  0  0  0  0  0  # atno 10718 bound_to 10713
  153.3504  135.3982  155.1641 H   0  0  0  0  0  0  0  0  0  0  0  0  # atno 10763 bound_to 10752
  154.8661  135.3655  154.5230 H   0  0  0  0  0  0  0  0  0  0  0  0  # atno 10764 bound_to 10752
  153.5681  135.7079  153.5577 H   0  0  0  0  0  0  0  0  0  0  0  0  # atno 10765 bound_to 10752
  140.0106  134.9440  157.0269 H   0  0  0  0  0  0  0  0  0  0  0  0  # atno 11005 bound_to 11000
  145.2055  140.9873  143.4131 LP  0  0  0  0  0  0  0  0  0  0  0  0  # atno 17320 bound_to 7965
  144.9736  139.3855  143.6297 LP  0  0  0  0  0  0  0  0  0  0  0  0  # atno 17321 bound_to 7965
  139.4927  144.4238  151.9948 LP  0  0  0  0  0  0  0  0  0  0  0  0  # atno 17342 bound_to 10162
  140.3336  144.3287  150.5982 LP  0  0  0  0  0  0  0  0  0  0  0  0  # atno 17343 bound_to 10162
  157.4789  131.0900  151.0558 LP  0  0  0  0  0  0  0  0  0  0  0  0  # atno 17370 bound_to 10713
  157.0997  130.5977  149.5457 LP  0  0  0  0  0  0  0  0  0  0  0  0  # atno 17371 bound_to 10713
  140.4562  134.1531  155.7186 LP  0  0  0  0  0  0  0  0  0  0  0  0  # atno 17394 bound_to 11000
  141.1708  133.8613  157.1576 LP  0  0  0  0  0  0  0  0  0  0  0  0  # atno 17395 bound_to 11000

$$$$
