AV-unprocessed.smi:2880|AV-procd|sdf|11051|dock3
  -GOLD-   2272015523D 1   1.00000     0.00000
 Structure written by MMmdl.
 47 48  0  0  0  0  0  0  0  0  1 V2000
  144.5095  141.1815  155.6996 C   0  0  0  0  0  0  0  0  0  0  0  0
  145.8295  141.8631  155.2850 C   0  0  0  0  0  0  0  0  0  0  0  0
  145.4782  143.1181  154.4509 C   0  0  0  0  0  0  0  0  0  0  0  0
  146.6057  142.2973  156.5420 C   0  0  0  0  0  0  0  0  0  0  0  0
  146.6562  140.9155  154.5254 N   0  0  0  0  0  0  0  0  0  0  0  0
  147.8608  141.1534  153.8829 C   0  0  0  0  0  0  0  0  0  0  0  0
  148.2383  140.0047  153.2477 C   0  0  0  0  0  0  0  0  0  0  0  0
  147.1773  139.1080  153.5427 C   0  0  0  0  0  0  0  0  0  0  0  0
  147.1897  137.7790  153.0478 N   0  0  0  0  0  0  0  0  0  0  0  0
  146.2029  136.8691  153.1196 C   0  0  0  0  0  0  0  0  0  0  0  0
  145.1080  137.0515  153.6527 O   0  0  0  0  0  0  0  0  0  0  0  0
  146.5634  135.7168  152.5356 N   0  0  0  0  0  0  0  0  0  0  0  0
  145.7453  134.5074  152.4518 C   0  0  2  0  0  0  0  0  0  0  0  0
  146.5655  133.3178  152.9909 C   0  0  0  0  0  0  0  0  0  0  0  0
  145.8005  131.9933  152.8696 C   0  0  0  0  0  0  0  0  0  0  0  0
  145.3682  131.7455  151.4193 C   0  0  0  0  0  0  0  0  0  0  0  0
  144.5277  132.9164  150.8893 C   0  0  0  0  0  0  0  0  0  0  0  0
  145.2751  134.2661  150.9932 C   0  0  1  0  0  0  0  0  0  0  0  0
  144.4013  135.4267  150.4663 C   0  0  0  0  0  0  0  0  0  0  0  0
  145.1999  136.4369  149.8860 O   0  0  0  0  0  0  0  0  0  0  0  0
  146.2259  139.6535  154.2847 N   0  0  0  0  0  0  0  0  0  0  0  0
  143.8565  141.8757  156.2299 H   0  0  0  0  0  0  0  0  0  0  0  0
  144.6769  140.3326  156.3624 H   0  0  0  0  0  0  0  0  0  0  0  0
  143.9626  140.8185  154.8285 H   0  0  0  0  0  0  0  0  0  0  0  0
  144.9543  142.8523  153.5319 H   0  0  0  0  0  0  0  0  0  0  0  0
  146.3677  143.6864  154.1754 H   0  0  0  0  0  0  0  0  0  0  0  0
  144.8306  143.7946  155.0096 H   0  0  0  0  0  0  0  0  0  0  0  0
  146.0277  143.0003  157.1428 H   0  0  0  0  0  0  0  0  0  0  0  0
  147.5451  142.7846  156.2779 H   0  0  0  0  0  0  0  0  0  0  0  0
  146.8463  141.4447  157.1780 H   0  0  0  0  0  0  0  0  0  0  0  0
  148.3497  142.1153  153.9259 H   0  0  0  0  0  0  0  0  0  0  0  0
  149.1289  139.8383  152.6601 H   0  0  0  0  0  0  0  0  0  0  0  0
  148.0447  137.4867  152.5985 H   0  0  0  0  0  0  0  0  0  0  0  0
  147.4842  135.6645  152.1254 H   0  0  0  0  0  0  0  0  0  0  0  0
  144.8544  134.6153  153.0734 H   0  0  0  0  0  0  0  0  0  0  0  0
  147.5057  133.2397  152.4428 H   0  0  0  0  0  0  0  0  0  0  0  0
  146.8313  133.4907  154.0346 H   0  0  0  0  0  0  0  0  0  0  0  0
  146.4243  131.1699  153.2184 H   0  0  0  0  0  0  0  0  0  0  0  0
  144.9230  132.0145  153.5171 H   0  0  0  0  0  0  0  0  0  0  0  0
  146.2490  131.6110  150.7902 H   0  0  0  0  0  0  0  0  0  0  0  0
  144.7977  130.8186  151.3548 H   0  0  0  0  0  0  0  0  0  0  0  0
  144.2529  132.7149  149.8536 H   0  0  0  0  0  0  0  0  0  0  0  0
  143.5925  132.9710  151.4481 H   0  0  0  0  0  0  0  0  0  0  0  0
  146.1651  134.2046  150.3641 H   0  0  0  0  0  0  0  0  0  0  0  0
  143.6825  135.0667  149.7296 H   0  0  0  0  0  0  0  0  0  0  0  0
  143.8281  135.8877  151.2706 H   0  0  0  0  0  0  0  0  0  0  0  0
  145.4980  136.1349  149.0416 H   0  0  0  0  0  0  0  0  0  0  0  0
  1  2  1  0  0  0  0
  1 22  1  0  0  0  0
  1 23  1  0  0  0  0
  1 24  1  0  0  0  0
  2  3  1  0  0  0  0
  2  4  1  0  0  0  0
  2  5  1  0  0  0  0
  3 25  1  0  0  0  0
  3 26  1  0  0  0  0
  3 27  1  0  0  0  0
  4 28  1  0  0  0  0
  4 29  1  0  0  0  0
  4 30  1  0  0  0  0
  5 21  1  0  0  0  0
  5  6  1  0  0  0  0
  6  7  2  0  0  0  0
  6 31  1  0  0  0  0
  7  8  1  0  0  0  0
  7 32  1  0  0  0  0
  8  9  1  0  0  0  0
  8 21  2  0  0  0  0
  9 10  1  0  0  0  0
  9 33  1  0  0  0  0
 10 11  2  0  0  0  0
 10 12  1  0  0  0  0
 12 13  1  0  0  0  0
 12 34  1  0  0  0  0
 13 18  1  0  0  0  0
 13 14  1  0  0  0  0
 13 35  1  0  0  0  0
 14 15  1  0  0  0  0
 14 36  1  0  0  0  0
 14 37  1  0  0  0  0
 15 16  1  0  0  0  0
 15 38  1  0  0  0  0
 15 39  1  0  0  0  0
 16 17  1  0  0  0  0
 16 40  1  0  0  0  0
 16 41  1  0  0  0  0
 17 18  1  0  0  0  0
 17 42  1  0  0  0  0
 17 43  1  0  0  0  0
 18 19  1  0  0  0  0
 18 44  1  0  0  0  0
 19 20  1  0  0  0  0
 19 45  1  0  0  0  0
 19 46  1  0  0  0  0
 20 47  1  0  0  0  0
M  END
> <s_m_source_file>
AV-unprocessed.smi

> <i_m_source_file_index>
2880

> <i_lp_mmshare_version>
43012

> <i_f3d_flags>
0

> <s_epik_input>
W0NIM11DKFtDSDNdKShbQ0gzXSluMVtjSF1bY0hdYyhuMSlbTkhdQyg9TylbTkhdW0NAQEhdMltDSDJdW0NIMl1bQ0gyXVtDSDJdW0NASF0yW0NIMl1bT0hd

> <s_epik_cmdline>
J2VwaWtfcHl0aG9uJywgJy1waCcsICc3LjAnLCAnLXRuJywgJzgnLCAnLW1hJywgJzIwMCcsICctbWV0YWxfYmluZGluZycsICctaW1hZScsICc8aW5maWxlLm1hZT4nLCAnLW9tYWUnLCAnPG91dGZpbGUubWFlPic=

> <r_lp_tautomer_probability>
1

> <r_epik_Ionization_Penalty>
3.89283e-05

> <r_epik_Ionization_Penalty_Charging>
0

> <r_epik_Ionization_Penalty_Neutral>
3.89283e-05

> <r_epik_State_Penalty>
-0

> <r_epik_Charging_Adjusted_Penalty>
0

> <i_epik_Tot_Q>
0

> <i_epik_Tot_abs_Q>
0

> <r_epik_Metal_State_Penalty>
-0

> <b_epik_Metal_Only>
0

> <s_lp_Force_Field>
OPLS_2005

> <r_lp_Energy>
21.5121

> <b_lp_Chiralities_Consistent>
1

> <s_lp_Variant>
AV-unprocessed.smi:2880-1

> <Gold.Version>
5.8.1

> <Gold.Id.Protein>
6NUR|6NUR_protein|mol2

> <Gold.PLP.Fitness>
39.2624

> <Gold.PLP.PLP>
-31.2308

> <Gold.PLP.part.hbond>
-3.9446

> <Gold.PLP.part.metal>
0.0000

> <Gold.PLP.part.buried>
-1.2124

> <Gold.PLP.part.nonpolar>
-27.4238

> <Gold.PLP.part.repulsive>
0.3036

> <Gold.PLP.ligand.clash>
0.0000

> <Gold.PLP.ligand.torsion>
0.5036

> <Gold.PLP.Chemscore.Hbond>
2.9920

> <Gold.PLP.Chemscore.CHOScore>
0.0000

> <Gold.PLP.Chemscore.Metal>
0.0000

> <Gold.Chemscore.Hbonds>
donor molecule, donor type, donor heavy atom, donor atom, acceptor molecule, acceptor atom, score
      L1  H     9    33       P1  7948  0.99
      L1  H    12    34       P1  7948  1.00
      L1  H    20    47       P1  7921  1.00

> <Gold.PLP.Chemscore.Internal.Correction>
0.0629

> <Gold.Rescore>
     Score         DG    S(hbond)    S(metal)    S(lipo)     H(rot)  DE(clash)    DE(int)     intcor
     14.91     -18.43       2.95        0.00      69.53       1.97       1.74       1.78       ----

> <Gold.Chemscore.Fitness>
14.9146

> <Gold.Chemscore.DG>
-18.4311

> <Gold.Chemscore.ZeroCoef>
-5.4800

> <Gold.Chemscore.Hbond>
2.9499

> <Gold.Chemscore.Metal>
0.0000

> <Gold.Chemscore.Lipo>
69.5265

> <Gold.Chemscore.Internal_Hbond>
0.0000

> <Gold.Chemscore.DEClash>
1.7390

> <Gold.Chemscore.DEInternal>
1.7775

> <Gold.Chemscore.Rot>
1.9672

> <Gold.Chemscore.Internal.Correction>
   9.000000E+99

> <Gold.Chemscore.Hbonds>
donor molecule, donor type, donor heavy atom, donor atom, acceptor molecule, acceptor atom, score
      L1  H     9    33       P1  7948  0.93
      L1  H    12    34       P1  7948  0.94
      L1  H    20    47       P1  7921  0.95

> <Gold.Chemscore.Hbond.Weighted>
-9.8526

> <Gold.Chemscore.Metal.Weighted>
-0.0000

> <Gold.Chemscore.Lipo.Weighted>
-8.1346

> <Gold.Chemscore.Internal_Hbond.Weighted>
0.0000

> <Gold.Chemscore.DEClash.Weighted>
1.7390

> <Gold.Chemscore.DEInternal.Weighted>
1.7775

> <Gold.Chemscore.Rot.Weighted>
5.0360

> <Gold.Chemscore.Internal.Correction.Weighted>
   9.000000E+99

> <Gold.Protein.RotatedTorsions>
[ 6907 6896 6895 6894 ] final   45.73 input  -60.11 | X-H torsion
[ 7974 7965 7964 7962 ] final  -38.40 input  175.53 | X-H torsion
[ 8008 7997 7996 7995 ] final  -61.52 input   59.86 | X-H torsion
[ 10167 10162 10161 10158 ] final    2.69 input  -65.29 | X-H torsion
[ 10718 10713 10712 10709 ] final  132.87 input   66.30 | X-H torsion
[ 10763 10752 10751 10750 ] final -111.27 input  -60.55 | X-H torsion
[ 11005 11000 10999 10996 ] final   14.69 input  -57.11 | X-H torsion

> <Gold.Protein.ActiveResidues>
 VAL166  LYS551  ARG553  GLY616  TRP617  ASP618  TYR619  PRO620  LYS621  CYS622 
 ASP623  PHE694  ASN695  SER759  ASP760  ASP761  ALA762  ILE779  LEU786  VAL792 
 PHE793  MET794  SER795  GLU796  ALA797  LYS798  CYS799  TRP800  GLU811  SER814 

> <Gold.Protein.RotatedAtoms>
  152.2481  134.8161  160.0450 H   0  0  0  0  0  0  0  0  0  0  0  0  # atno 6907 bound_to 6896
  151.8851  133.3498  159.3787 H   0  0  0  0  0  0  0  0  0  0  0  0  # atno 6908 bound_to 6896
  150.7075  134.4906  159.5558 H   0  0  0  0  0  0  0  0  0  0  0  0  # atno 6909 bound_to 6896
  146.0490  140.6507  142.9051 H   0  0  0  0  0  0  0  0  0  0  0  0  # atno 7974 bound_to 7965
  154.4452  140.1016  156.6443 H   0  0  0  0  0  0  0  0  0  0  0  0  # atno 8008 bound_to 7997
  155.5467  140.3485  155.4440 H   0  0  0  0  0  0  0  0  0  0  0  0  # atno 8009 bound_to 7997
  156.0558  140.1315  156.9987 H   0  0  0  0  0  0  0  0  0  0  0  0  # atno 8010 bound_to 7997
  140.6622  143.7273  150.7761 H   0  0  0  0  0  0  0  0  0  0  0  0  # atno 10167 bound_to 10162
  157.4829  131.1087  150.9658 H   0  0  0  0  0  0  0  0  0  0  0  0  # atno 10718 bound_to 10713
  154.8291  135.4533  154.1013 H   0  0  0  0  0  0  0  0  0  0  0  0  # atno 10763 bound_to 10752
  153.2301  135.6904  153.7906 H   0  0  0  0  0  0  0  0  0  0  0  0  # atno 10764 bound_to 10752
  153.7291  135.3329  155.3258 H   0  0  0  0  0  0  0  0  0  0  0  0  # atno 10765 bound_to 10752
  140.4667  134.1072  155.7725 H   0  0  0  0  0  0  0  0  0  0  0  0  # atno 11005 bound_to 11000
  144.7112  140.4047  143.7079 LP  0  0  0  0  0  0  0  0  0  0  0  0  # atno 17320 bound_to 7965
  145.6757  139.1608  143.2729 LP  0  0  0  0  0  0  0  0  0  0  0  0  # atno 17321 bound_to 7965
  140.0943  143.4847  152.2461 LP  0  0  0  0  0  0  0  0  0  0  0  0  # atno 17342 bound_to 10162
  139.5860  144.7531  151.3519 LP  0  0  0  0  0  0  0  0  0  0  0  0  # atno 17343 bound_to 10162
  157.0385  130.5740  149.5353 LP  0  0  0  0  0  0  0  0  0  0  0  0  # atno 17370 bound_to 10713
  156.0131  130.5224  150.8051 LP  0  0  0  0  0  0  0  0  0  0  0  0  # atno 17371 bound_to 10713
  141.1596  133.8818  157.1884 LP  0  0  0  0  0  0  0  0  0  0  0  0  # atno 17394 bound_to 11000
  139.9911  135.0064  156.9976 LP  0  0  0  0  0  0  0  0  0  0  0  0  # atno 17395 bound_to 11000

$$$$
