AV-unprocessed.smi:2510|AV-procd|sdf|9877|dock2
  -GOLD-   2272013513D 1   1.00000     0.00000
 Structure written by MMmdl.
 48 49  0  0  0  0  0  0  0  0  1 V2000
  153.1117  138.2708  155.9580 C   0  0  0  0  0  0  0  0  0  0  0  0
  152.2488  139.2713  155.1707 C   0  0  0  0  0  0  0  0  0  0  0  0
  150.7372  139.2440  155.5038 C   0  0  0  0  0  0  0  0  0  0  0  0
  150.0875  138.0581  154.7415 C   0  0  0  0  0  0  0  0  0  0  0  0
  150.7115  136.6810  155.0177 C   0  0  0  0  0  0  0  0  0  0  0  0
  150.4303  139.3984  157.0253 C   0  0  2  0  0  0  0  0  0  0  0  0
  149.1727  138.7790  157.4398 N   0  0  0  0  0  0  0  0  0  0  0  0
  149.0196  137.9832  158.5084 C   0  0  0  0  0  0  0  0  0  0  0  0
  149.9114  137.7685  159.3290 O   0  0  0  0  0  0  0  0  0  0  0  0
  147.6581  137.3015  158.6527 C   0  0  0  0  0  0  0  0  0  0  0  0
  147.5845  136.5927  159.9799 C   0  0  0  0  0  0  0  0  0  0  0  0
  147.3512  135.2063  160.2219 C   0  0  0  0  0  0  0  0  0  0  0  0
  147.3309  135.0994  161.5837 C   0  0  0  0  0  0  0  0  0  0  0  0
  147.1120  133.9247  162.4755 C   0  0  0  0  0  0  0  0  0  0  0  0
  147.5540  136.3660  162.0724 N   0  0  0  0  0  0  0  0  0  0  0  0
  147.7157  137.2856  161.1034 N   0  0  0  0  0  0  0  0  0  0  0  0
  150.2781  140.9158  156.8208 C   0  0  2  0  0  0  0  0  0  0  0  0
  149.2777  141.7298  157.6391 C   0  0  0  0  0  0  0  0  0  0  0  0
  150.0371  140.6195  155.3293 C   0  0  2  0  0  0  0  0  0  0  0  0
  148.6545  140.4765  155.0197 O   0  0  0  0  0  0  0  0  0  0  0  0
  148.0310  141.6990  154.6673 C   0  0  0  0  0  0  0  0  0  0  0  0
  147.5971  136.6138  163.0506 H   0  0  0  0  0  0  0  0  0  0  0  0
  154.1697  138.4425  155.7595 H   0  0  0  0  0  0  0  0  0  0  0  0
  152.8982  137.2401  155.6769 H   0  0  0  0  0  0  0  0  0  0  0  0
  152.9606  138.3655  157.0330 H   0  0  0  0  0  0  0  0  0  0  0  0
  152.6512  140.2644  155.3691 H   0  0  0  0  0  0  0  0  0  0  0  0
  152.4140  139.1266  154.1038 H   0  0  0  0  0  0  0  0  0  0  0  0
  149.0145  138.0162  154.9265 H   0  0  0  0  0  0  0  0  0  0  0  0
  150.1669  138.2128  153.6664 H   0  0  0  0  0  0  0  0  0  0  0  0
  150.2938  135.9330  154.3434 H   0  0  0  0  0  0  0  0  0  0  0  0
  150.5166  136.3406  156.0341 H   0  0  0  0  0  0  0  0  0  0  0  0
  151.7906  136.6954  154.8638 H   0  0  0  0  0  0  0  0  0  0  0  0
  151.2704  139.1571  157.6781 H   0  0  0  0  0  0  0  0  0  0  0  0
  148.3845  138.8924  156.8182 H   0  0  0  0  0  0  0  0  0  0  0  0
  146.8659  138.0472  158.5770 H   0  0  0  0  0  0  0  0  0  0  0  0
  147.5141  136.6059  157.8245 H   0  0  0  0  0  0  0  0  0  0  0  0
  147.2018  134.4152  159.5021 H   0  0  0  0  0  0  0  0  0  0  0  0
  147.4640  133.0078  162.0024 H   0  0  0  0  0  0  0  0  0  0  0  0
  146.0516  133.8039  162.6982 H   0  0  0  0  0  0  0  0  0  0  0  0
  147.6456  134.0422  163.4190 H   0  0  0  0  0  0  0  0  0  0  0  0
  151.2662  141.3675  156.9209 H   0  0  0  0  0  0  0  0  0  0  0  0
  148.2562  141.3698  157.5153 H   0  0  0  0  0  0  0  0  0  0  0  0
  149.2918  142.7790  157.3446 H   0  0  0  0  0  0  0  0  0  0  0  0
  149.5140  141.6861  158.7022 H   0  0  0  0  0  0  0  0  0  0  0  0
  150.5688  141.2837  154.6453 H   0  0  0  0  0  0  0  0  0  0  0  0
  146.9705  141.5275  154.4832 H   0  0  0  0  0  0  0  0  0  0  0  0
  148.4680  142.1099  153.7566 H   0  0  0  0  0  0  0  0  0  0  0  0
  148.1201  142.4404  155.4612 H   0  0  0  0  0  0  0  0  0  0  0  0
  1  2  1  0  0  0  0
  1 23  1  0  0  0  0
  1 24  1  0  0  0  0
  1 25  1  0  0  0  0
  2  3  1  0  0  0  0
  2 26  1  0  0  0  0
  2 27  1  0  0  0  0
  3 19  1  0  0  0  0
  3  4  1  0  0  0  0
  3  6  1  0  0  0  0
  4  5  1  0  0  0  0
  4 28  1  0  0  0  0
  4 29  1  0  0  0  0
  5 30  1  0  0  0  0
  5 31  1  0  0  0  0
  5 32  1  0  0  0  0
  6  7  1  0  0  0  0
  6 17  1  0  0  0  0
  6 33  1  0  0  0  0
  7  8  1  0  0  0  0
  7 34  1  0  0  0  0
  8  9  2  0  0  0  0
  8 10  1  0  0  0  0
 10 11  1  0  0  0  0
 10 35  1  0  0  0  0
 10 36  1  0  0  0  0
 11 16  2  0  0  0  0
 11 12  1  0  0  0  0
 12 13  2  0  0  0  0
 12 37  1  0  0  0  0
 13 14  1  0  0  0  0
 13 15  1  0  0  0  0
 14 38  1  0  0  0  0
 14 39  1  0  0  0  0
 14 40  1  0  0  0  0
 15 22  1  0  0  0  0
 15 16  1  0  0  0  0
 17 18  1  0  0  0  0
 17 19  1  0  0  0  0
 17 41  1  0  0  0  0
 18 42  1  0  0  0  0
 18 43  1  0  0  0  0
 18 44  1  0  0  0  0
 19 20  1  0  0  0  0
 19 45  1  0  0  0  0
 20 21  1  0  0  0  0
 21 46  1  0  0  0  0
 21 47  1  0  0  0  0
 21 48  1  0  0  0  0
M  END
> <s_m_source_file>
AV-unprocessed.smi

> <i_m_source_file_index>
2510

> <i_lp_mmshare_version>
43012

> <i_f3d_flags>
0

> <s_epik_input>
W0NIM11PW0NAQEhdMVtDQEhdKFtDSDNdKVtDQEBIXShDMShbQ0gyXVtDSDNdKVtDSDJdW0NIM10pW05IXUMoPU8pW0NIMl1jMltjSF1jKFtDSDNdKVtuSF1uMg==

> <s_epik_cmdline>
J2VwaWtfcHl0aG9uJywgJy1waCcsICc3LjAnLCAnLXRuJywgJzgnLCAnLW1hJywgJzIwMCcsICctbWV0YWxfYmluZGluZycsICctaW1hZScsICc8aW5maWxlLm1hZT4nLCAnLW9tYWUnLCAnPG91dGZpbGUubWFlPic=

> <r_lp_tautomer_probability>
0.5

> <r_epik_Ionization_Penalty>
9.73156e-05

> <r_epik_Ionization_Penalty_Charging>
0

> <r_epik_Ionization_Penalty_Neutral>
9.73156e-05

> <r_epik_State_Penalty>
0.41068

> <r_epik_Charging_Adjusted_Penalty>
0.41068

> <i_epik_Tot_Q>
0

> <i_epik_Tot_abs_Q>
0

> <r_epik_Metal_State_Penalty>
0.410699

> <b_epik_Metal_Only>
0

> <s_lp_Force_Field>
OPLS_2005

> <r_lp_Energy>
26.3407

> <b_lp_Chiralities_Consistent>
1

> <s_lp_Variant>
AV-unprocessed.smi:2510-8

> <Gold.Version>
5.8.1

> <Gold.Id.Protein>
6NUR|6NUR_protein|mol2

> <Gold.PLP.Fitness>
38.1024

> <Gold.PLP.PLP>
-33.4173

> <Gold.PLP.part.hbond>
-2.8588

> <Gold.PLP.part.metal>
0.0000

> <Gold.PLP.part.buried>
-4.3193

> <Gold.PLP.part.nonpolar>
-27.1106

> <Gold.PLP.part.repulsive>
0.3050

> <Gold.PLP.ligand.clash>
0.0000

> <Gold.PLP.ligand.torsion>
0.7259

> <Gold.PLP.Chemscore.Hbond>
1.7920

> <Gold.PLP.Chemscore.CHOScore>
0.0000

> <Gold.PLP.Chemscore.Metal>
0.0000

> <Gold.Chemscore.Hbonds>
donor molecule, donor type, donor heavy atom, donor atom, acceptor molecule, acceptor atom, score
      P1  H  6931  6943       L1    16  0.79
      P1  H  6934  6947       L1    16  0.85

> <Gold.PLP.Chemscore.Internal.Correction>
0.7608

> <Gold.Rescore>
     Score         DG    S(hbond)    S(metal)    S(lipo)     H(rot)  DE(clash)    DE(int)     intcor
     12.30     -14.63       1.21        0.00      83.39       1.81       0.17       2.16       ----

> <Gold.Chemscore.Fitness>
12.2961

> <Gold.Chemscore.DG>
-14.6280

> <Gold.Chemscore.ZeroCoef>
-5.4800

> <Gold.Chemscore.Hbond>
1.2053

> <Gold.Chemscore.Metal>
0.0000

> <Gold.Chemscore.Lipo>
83.3870

> <Gold.Chemscore.Internal_Hbond>
0.0000

> <Gold.Chemscore.DEClash>
0.1748

> <Gold.Chemscore.DEInternal>
2.1572

> <Gold.Chemscore.Rot>
1.8102

> <Gold.Chemscore.Internal.Correction>
   9.000000E+99

> <Gold.Chemscore.Hbonds>
donor molecule, donor type, donor heavy atom, donor atom, acceptor molecule, acceptor atom, score
      P1  H  6931  6943       L1    16  0.15
      P1  H  6934  6947       L1    16  0.71

> <Gold.Chemscore.Hbond.Weighted>
-4.0258

> <Gold.Chemscore.Metal.Weighted>
-0.0000

> <Gold.Chemscore.Lipo.Weighted>
-9.7563

> <Gold.Chemscore.Internal_Hbond.Weighted>
0.0000

> <Gold.Chemscore.DEClash.Weighted>
0.1748

> <Gold.Chemscore.DEInternal.Weighted>
2.1572

> <Gold.Chemscore.Rot.Weighted>
4.6341

> <Gold.Chemscore.Internal.Correction.Weighted>
   9.000000E+99

> <Gold.Protein.RotatedTorsions>
[ 6907 6896 6895 6894 ] final  -69.33 input  -60.11 | X-H torsion
[ 7974 7965 7964 7962 ] final   78.88 input  175.53 | X-H torsion
[ 8008 7997 7996 7995 ] final -166.01 input   59.86 | X-H torsion
[ 10167 10162 10161 10158 ] final  -77.31 input  -65.29 | X-H torsion
[ 10718 10713 10712 10709 ] final   -5.70 input   66.30 | X-H torsion
[ 10763 10752 10751 10750 ] final  -54.86 input  -60.55 | X-H torsion
[ 11005 11000 10999 10996 ] final  135.42 input  -57.11 | X-H torsion

> <Gold.Protein.ActiveResidues>
 VAL166  LYS551  ARG553  GLY616  TRP617  ASP618  TYR619  PRO620  LYS621  CYS622 
 ASP623  PHE694  ASN695  SER759  ASP760  ASP761  ALA762  ILE779  LEU786  VAL792 
 PHE793  MET794  SER795  GLU796  ALA797  LYS798  CYS799  TRP800  GLU811  SER814 

> <Gold.Protein.RotatedAtoms>
  150.7311  134.5613  159.5843 H   0  0  0  0  0  0  0  0  0  0  0  0  # atno 6907 bound_to 6896
  152.3075  134.7534  160.0353 H   0  0  0  0  0  0  0  0  0  0  0  0  # atno 6908 bound_to 6896
  151.8093  133.3344  159.3587 H   0  0  0  0  0  0  0  0  0  0  0  0  # atno 6909 bound_to 6896
  145.6715  139.2498  143.1866 H   0  0  0  0  0  0  0  0  0  0  0  0  # atno 7974 bound_to 7965
  155.8578  140.0973  157.1633 H   0  0  0  0  0  0  0  0  0  0  0  0  # atno 8008 bound_to 7997
  154.3989  140.1371  156.3985 H   0  0  0  0  0  0  0  0  0  0  0  0  # atno 8009 bound_to 7997
  155.7890  140.3456  155.5341 H   0  0  0  0  0  0  0  0  0  0  0  0  # atno 8010 bound_to 7997
  140.4781  143.2409  151.8100 H   0  0  0  0  0  0  0  0  0  0  0  0  # atno 10167 bound_to 10162
  156.7427  130.5215  149.5820 H   0  0  0  0  0  0  0  0  0  0  0  0  # atno 10718 bound_to 10713
  154.1816  135.6442  153.5035 H   0  0  0  0  0  0  0  0  0  0  0  0  # atno 10763 bound_to 10752
  153.0058  135.5407  154.6509 H   0  0  0  0  0  0  0  0  0  0  0  0  # atno 10764 bound_to 10752
  154.5874  135.2931  155.0643 H   0  0  0  0  0  0  0  0  0  0  0  0  # atno 10765 bound_to 10752
  139.9978  134.9490  157.0005 H   0  0  0  0  0  0  0  0  0  0  0  0  # atno 11005 bound_to 11000
  146.1041  140.7508  142.9534 LP  0  0  0  0  0  0  0  0  0  0  0  0  # atno 17320 bound_to 7965
  144.7055  140.3835  143.7121 LP  0  0  0  0  0  0  0  0  0  0  0  0  # atno 17321 bound_to 7965
  139.4829  144.4807  151.9310 LP  0  0  0  0  0  0  0  0  0  0  0  0  # atno 17342 bound_to 10162
  140.3892  144.2637  150.5901 LP  0  0  0  0  0  0  0  0  0  0  0  0  # atno 17343 bound_to 10162
  156.1454  130.6273  151.0523 LP  0  0  0  0  0  0  0  0  0  0  0  0  # atno 17370 bound_to 10713
  157.6811  131.0837  150.7366 LP  0  0  0  0  0  0  0  0  0  0  0  0  # atno 17371 bound_to 10713
  140.4784  134.1314  155.7213 LP  0  0  0  0  0  0  0  0  0  0  0  0  # atno 17394 bound_to 11000
  141.1618  133.8778  157.1825 LP  0  0  0  0  0  0  0  0  0  0  0  0  # atno 17395 bound_to 11000

$$$$
