AV-unprocessed.smi:2579|AV-procd|sdf|10125|dock8
  -GOLD-   2272014143D 1   1.00000     0.00000
 Structure written by MMmdl.
 38 40  0  0  0  0  0  0  0  0  1 V2000
  150.3355  137.9922  153.6924 O   0  0  0  0  0  0  0  0  0  0  0  0
  151.0798  137.5269  154.7980 C   0  0  0  0  0  0  0  0  0  0  0  0
  152.1789  138.5352  155.1563 C   0  0  0  0  0  0  0  0  0  0  0  0
  151.6242  139.7769  155.6605 N   0  0  0  0  0  0  0  0  0  0  0  0
  151.8733  140.5068  156.8156 C   0  0  0  0  0  0  0  0  0  0  0  0
  152.7535  140.1470  157.7481 N   0  0  0  0  0  0  0  0  0  0  0  0
  152.6304  141.1658  158.6746 C   0  0  0  0  0  0  0  0  0  0  0  0
  153.2938  141.3714  159.9055 C   0  0  0  0  0  0  0  0  0  0  0  0
  152.9974  142.5009  160.6966 C   0  0  0  0  0  0  0  0  0  0  0  0
  152.0347  143.4387  160.2705 C   0  0  0  0  0  0  0  0  0  0  0  0
  151.3618  143.2541  159.0474 C   0  0  0  0  0  0  0  0  0  0  0  0
  151.6623  142.1265  158.2598 C   0  0  0  0  0  0  0  0  0  0  0  0
  151.1944  141.6569  157.0361 N   0  0  0  0  0  0  0  0  0  0  0  0
  150.1816  142.2804  156.1970 C   0  0  0  0  0  0  0  0  0  0  0  0
  148.9857  141.3454  155.9581 C   0  0  2  0  0  0  0  0  0  0  0  0
  148.1019  141.7593  154.7814 C   0  0  0  0  0  0  0  0  0  0  0  0
  146.7595  141.1970  155.1895 C   0  0  0  0  0  0  0  0  0  0  0  0
  146.7660  141.4597  156.6909 C   0  0  0  0  0  0  0  0  0  0  0  0
  148.1237  141.3175  157.0956 O   0  0  0  0  0  0  0  0  0  0  0  0
  150.7217  137.6461  152.9024 H   0  0  0  0  0  0  0  0  0  0  0  0
  150.3919  137.4223  155.6373 H   0  0  0  0  0  0  0  0  0  0  0  0
  151.4902  136.5371  154.5938 H   0  0  0  0  0  0  0  0  0  0  0  0
  152.8808  138.1161  155.8779 H   0  0  0  0  0  0  0  0  0  0  0  0
  152.7530  138.7754  154.2609 H   0  0  0  0  0  0  0  0  0  0  0  0
  150.9053  140.1645  155.0672 H   0  0  0  0  0  0  0  0  0  0  0  0
  154.0313  140.6579  160.2420 H   0  0  0  0  0  0  0  0  0  0  0  0
  153.5100  142.6473  161.6361 H   0  0  0  0  0  0  0  0  0  0  0  0
  151.8118  144.2996  160.8839 H   0  0  0  0  0  0  0  0  0  0  0  0
  150.6213  143.9688  158.7200 H   0  0  0  0  0  0  0  0  0  0  0  0
  149.8514  143.1999  156.6811 H   0  0  0  0  0  0  0  0  0  0  0  0
  150.6316  142.5783  155.2493 H   0  0  0  0  0  0  0  0  0  0  0  0
  149.3376  140.3256  155.7945 H   0  0  0  0  0  0  0  0  0  0  0  0
  148.0395  142.8460  154.7073 H   0  0  0  0  0  0  0  0  0  0  0  0
  148.4568  141.3721  153.8259 H   0  0  0  0  0  0  0  0  0  0  0  0
  145.9206  141.6685  154.6768 H   0  0  0  0  0  0  0  0  0  0  0  0
  146.7247  140.1243  154.9943 H   0  0  0  0  0  0  0  0  0  0  0  0
  146.4481  142.4822  156.8988 H   0  0  0  0  0  0  0  0  0  0  0  0
  146.1116  140.7818  157.2393 H   0  0  0  0  0  0  0  0  0  0  0  0
  1  2  1  0  0  0  0
  1 20  1  0  0  0  0
  2  3  1  0  0  0  0
  2 21  1  0  0  0  0
  2 22  1  0  0  0  0
  3  4  1  0  0  0  0
  3 23  1  0  0  0  0
  3 24  1  0  0  0  0
  4  5  1  0  0  0  0
  4 25  1  0  0  0  0
  5 13  1  0  0  0  0
  5  6  2  0  0  0  0
  6  7  1  0  0  0  0
  7 12  2  0  0  0  0
  7  8  1  0  0  0  0
  8  9  2  0  0  0  0
  8 26  1  0  0  0  0
  9 10  1  0  0  0  0
  9 27  1  0  0  0  0
 10 11  2  0  0  0  0
 10 28  1  0  0  0  0
 11 12  1  0  0  0  0
 11 29  1  0  0  0  0
 12 13  1  0  0  0  0
 13 14  1  0  0  0  0
 14 15  1  0  0  0  0
 14 30  1  0  0  0  0
 14 31  1  0  0  0  0
 15 19  1  0  0  0  0
 15 16  1  0  0  0  0
 15 32  1  0  0  0  0
 16 17  1  0  0  0  0
 16 33  1  0  0  0  0
 16 34  1  0  0  0  0
 17 18  1  0  0  0  0
 17 35  1  0  0  0  0
 17 36  1  0  0  0  0
 18 19  1  0  0  0  0
 18 37  1  0  0  0  0
 18 38  1  0  0  0  0
M  END
> <s_m_source_file>
AV-unprocessed.smi

> <i_m_source_file_index>
2579

> <i_lp_mmshare_version>
43012

> <i_f3d_flags>
0

> <s_epik_input>
W09IXVtDSDJdW0NIMl1bTkhdYyhuMSluKGMoYzEyKVtjSF1bY0hdW2NIXVtjSF0yKVtDSDJdW0NAQEhdM1tDSDJdW0NIMl1bQ0gyXU8z

> <s_epik_cmdline>
J2VwaWtfcHl0aG9uJywgJy1waCcsICc3LjAnLCAnLXRuJywgJzgnLCAnLW1hJywgJzIwMCcsICctbWV0YWxfYmluZGluZycsICctaW1hZScsICc8aW5maWxlLm1hZT4nLCAnLW9tYWUnLCAnPG91dGZpbGUubWFlPic=

> <r_epik_Ionization_Penalty>
1.27244

> <r_epik_Ionization_Penalty_Charging>
0

> <r_epik_Ionization_Penalty_Neutral>
1.27244

> <r_epik_State_Penalty>
1.34401

> <r_epik_Charging_Adjusted_Penalty>
1.34401

> <i_epik_Tot_Q>
0

> <i_epik_Tot_abs_Q>
0

> <r_epik_Metal_State_Penalty>
0.00511131

> <b_epik_Metal_Only>
0

> <s_lp_Force_Field>
OPLS_2005

> <r_lp_Energy>
20.4938

> <b_lp_Chiralities_Consistent>
1

> <s_lp_Variant>
AV-unprocessed.smi:2579-3

> <Gold.Version>
5.8.1

> <Gold.Id.Protein>
6NUR|6NUR_protein|mol2

> <Gold.PLP.Fitness>
42.2321

> <Gold.PLP.PLP>
-36.6292

> <Gold.PLP.part.hbond>
-3.0000

> <Gold.PLP.part.metal>
0.0000

> <Gold.PLP.part.buried>
-3.1654

> <Gold.PLP.part.nonpolar>
-30.5540

> <Gold.PLP.part.repulsive>
0.2396

> <Gold.PLP.ligand.clash>
0.0000

> <Gold.PLP.ligand.torsion>
0.1899

> <Gold.PLP.Chemscore.Hbond>
1.9913

> <Gold.PLP.Chemscore.CHOScore>
0.0000

> <Gold.PLP.Chemscore.Metal>
0.0000

> <Gold.Chemscore.Hbonds>
donor molecule, donor type, donor heavy atom, donor atom, acceptor molecule, acceptor atom, score
      L1  H     1    20       P1  7949  0.38
      P1  H  7997  8010       L1     6  0.96

> <Gold.PLP.Chemscore.Internal.Correction>
0.0089

> <Gold.Rescore>
     Score         DG    S(hbond)    S(metal)    S(lipo)     H(rot)  DE(clash)    DE(int)     intcor
     14.96     -15.33       1.14        0.00      99.05       2.17       0.14       0.23       ----

> <Gold.Chemscore.Fitness>
14.9559

> <Gold.Chemscore.DG>
-15.3300

> <Gold.Chemscore.ZeroCoef>
-5.4800

> <Gold.Chemscore.Hbond>
1.1419

> <Gold.Chemscore.Metal>
0.0000

> <Gold.Chemscore.Lipo>
99.0459

> <Gold.Chemscore.Internal_Hbond>
0.0000

> <Gold.Chemscore.DEClash>
0.1425

> <Gold.Chemscore.DEInternal>
0.2316

> <Gold.Chemscore.Rot>
2.1688

> <Gold.Chemscore.Internal.Correction>
   9.000000E+99

> <Gold.Chemscore.Hbonds>
donor molecule, donor type, donor heavy atom, donor atom, acceptor molecule, acceptor atom, score
      L1  H     1    20       P1  7949  0.04
      P1  H  7997  8010       L1     6  0.56

> <Gold.Chemscore.Hbond.Weighted>
-3.8138

> <Gold.Chemscore.Metal.Weighted>
-0.0000

> <Gold.Chemscore.Lipo.Weighted>
-11.5884

> <Gold.Chemscore.Internal_Hbond.Weighted>
0.0000

> <Gold.Chemscore.DEClash.Weighted>
0.1425

> <Gold.Chemscore.DEInternal.Weighted>
0.2316

> <Gold.Chemscore.Rot.Weighted>
5.5522

> <Gold.Chemscore.Internal.Correction.Weighted>
   9.000000E+99

> <Gold.Protein.RotatedTorsions>
[ 6907 6896 6895 6894 ] final   53.65 input  -60.11 | X-H torsion
[ 7974 7965 7964 7962 ] final  -33.92 input  175.53 | X-H torsion
[ 8008 7997 7996 7995 ] final   38.56 input   59.86 | X-H torsion
[ 10167 10162 10161 10158 ] final  -69.75 input  -65.29 | X-H torsion
[ 10718 10713 10712 10709 ] final -131.22 input   66.30 | X-H torsion
[ 10763 10752 10751 10750 ] final  -30.80 input  -60.55 | X-H torsion
[ 11005 11000 10999 10996 ] final  -79.27 input  -57.11 | X-H torsion

> <Gold.Protein.ActiveResidues>
 VAL166  LYS551  ARG553  GLY616  TRP617  ASP618  TYR619  PRO620  LYS621  CYS622 
 ASP623  PHE694  ASN695  SER759  ASP760  ASP761  ALA762  ILE779  LEU786  VAL792 
 PHE793  MET794  SER795  GLU796  ALA797  LYS798  CYS799  TRP800  GLU811  SER814 

> <Gold.Protein.RotatedAtoms>
  152.3359  134.7199  160.0276 H   0  0  0  0  0  0  0  0  0  0  0  0  # atno 6907 bound_to 6896
  151.7600  133.3327  159.3423 H   0  0  0  0  0  0  0  0  0  0  0  0  # atno 6908 bound_to 6896
  150.7450  134.6047  159.6099 H   0  0  0  0  0  0  0  0  0  0  0  0  # atno 6909 bound_to 6896
  146.0872  140.5975  142.8881 H   0  0  0  0  0  0  0  0  0  0  0  0  # atno 7974 bound_to 7965
  155.2222  140.3332  155.4314 H   0  0  0  0  0  0  0  0  0  0  0  0  # atno 8008 bound_to 7997
  156.2328  140.1858  156.7244 H   0  0  0  0  0  0  0  0  0  0  0  0  # atno 8009 bound_to 7997
  154.6008  140.0623  156.9351 H   0  0  0  0  0  0  0  0  0  0  0  0  # atno 8010 bound_to 7997
  140.5407  143.2315  151.7095 H   0  0  0  0  0  0  0  0  0  0  0  0  # atno 10167 bound_to 10162
  156.2222  130.6985  151.0768 H   0  0  0  0  0  0  0  0  0  0  0  0  # atno 10718 bound_to 10713
  153.7869  135.6901  153.4878 H   0  0  0  0  0  0  0  0  0  0  0  0  # atno 10763 bound_to 10752
  153.1775  135.4519  154.9983 H   0  0  0  0  0  0  0  0  0  0  0  0  # atno 10764 bound_to 10752
  154.8060  135.3357  154.7368 H   0  0  0  0  0  0  0  0  0  0  0  0  # atno 10765 bound_to 10752
  141.1667  133.7099  156.8098 H   0  0  0  0  0  0  0  0  0  0  0  0  # atno 11005 bound_to 11000
  144.7334  140.4738  143.6921 LP  0  0  0  0  0  0  0  0  0  0  0  0  # atno 17320 bound_to 7965
  145.6108  139.1513  143.3077 LP  0  0  0  0  0  0  0  0  0  0  0  0  # atno 17321 bound_to 7965
  139.4987  144.3974  152.0217 LP  0  0  0  0  0  0  0  0  0  0  0  0  # atno 17342 bound_to 10162
  140.3082  144.3568  150.6041 LP  0  0  0  0  0  0  0  0  0  0  0  0  # atno 17343 bound_to 10162
  157.7093  131.0742  150.6557 LP  0  0  0  0  0  0  0  0  0  0  0  0  # atno 17370 bound_to 10713
  156.6621  130.4515  149.5684 LP  0  0  0  0  0  0  0  0  0  0  0  0  # atno 17371 bound_to 10713
  140.2196  134.8767  157.3362 LP  0  0  0  0  0  0  0  0  0  0  0  0  # atno 17394 bound_to 11000
  140.2002  134.4264  155.7667 LP  0  0  0  0  0  0  0  0  0  0  0  0  # atno 17395 bound_to 11000

$$$$
