AV-unprocessed.smi:203|AV-procd|sdf|1582|dock2
  -GOLD-   2262019473D 1   1.00000     0.00000
 Structure written by MMmdl.
 57 61  0  0  0  0  0  0  0  0  1 V2000
  153.6314  137.2218  161.4815 O   0  0  0  0  0  0  0  0  0  0  0  0
  153.5399  137.5742  160.3080 C   0  0  0  0  0  0  0  0  0  0  0  0
  152.2353  138.0065  159.6615 C   0  0  0  0  0  0  0  0  0  0  0  0
  152.6759  138.5663  158.2932 C   0  0  1  0  0  0  0  0  0  0  0  0
  152.5121  140.1122  158.1423 C   0  0  2  0  0  0  0  0  0  0  0  0
  152.9517  140.8902  159.4111 C   0  0  0  0  0  0  0  0  0  0  0  0
  152.7871  142.4052  159.2340 C   0  0  0  0  0  0  0  0  0  0  0  0
  151.3400  142.7302  158.8493 C   0  0  0  0  0  0  0  0  0  0  0  0
  150.9345  141.9514  157.5913 C   0  0  0  0  0  0  0  0  0  0  0  0
  151.1457  140.5140  157.7623 N   0  0  0  0  0  0  0  0  0  0  0  0
  150.5803  139.8355  156.7390 C   0  0  0  0  0  0  0  0  0  0  0  0
  150.9017  140.2295  155.4825 N   0  0  0  0  0  0  0  0  0  0  0  0
  150.3727  139.5978  154.4301 C   0  0  0  0  0  0  0  0  0  0  0  0
  149.5253  138.5662  154.4142 N   0  0  0  0  0  0  0  0  0  0  0  0
  149.2092  138.1633  155.6785 C   0  0  0  0  0  0  0  0  0  0  0  0
  149.6849  138.7394  156.8892 C   0  0  0  0  0  0  0  0  0  0  0  0
  149.1434  138.0695  157.9795 N   0  0  0  0  0  0  0  0  0  0  0  0
  148.3928  137.1466  157.4436 C   0  0  0  0  0  0  0  0  0  0  0  0
  148.3888  137.1187  156.0670 N   0  0  0  0  0  0  0  0  0  0  0  0
  147.6589  136.1934  155.2179 C   0  0  0  0  0  0  0  0  0  0  0  0
  148.3676  134.8308  155.0361 C   0  0  2  0  0  0  0  0  0  0  0  0
  149.5987  135.0497  154.3790 O   0  0  0  0  0  0  0  0  0  0  0  0
  147.5894  133.7274  154.2801 C   0  0  2  0  0  0  0  0  0  0  0  0
  148.3293  132.4113  154.0289 C   0  0  0  0  0  0  0  0  0  0  0  0
  147.5316  131.8393  152.8785 C   0  0  0  0  0  0  0  0  0  0  0  0
  147.1991  133.0891  152.0661 C   0  0  0  0  0  0  0  0  0  0  0  0
  147.1471  134.1663  152.9983 O   0  0  0  0  0  0  0  0  0  0  0  0
  154.1329  138.0866  158.1180 C   0  0  0  0  0  0  0  0  0  0  0  0
  154.5415  137.6318  159.4326 N   0  0  0  0  0  0  0  0  0  0  0  0
  151.5899  137.1360  159.5393 H   0  0  0  0  0  0  0  0  0  0  0  0
  151.7064  138.7337  160.2779 H   0  0  0  0  0  0  0  0  0  0  0  0
  152.0947  138.0716  157.5148 H   0  0  0  0  0  0  0  0  0  0  0  0
  153.1713  140.4295  157.3337 H   0  0  0  0  0  0  0  0  0  0  0  0
  152.3624  140.5741  160.2719 H   0  0  0  0  0  0  0  0  0  0  0  0
  153.9906  140.6766  159.6591 H   0  0  0  0  0  0  0  0  0  0  0  0
  153.0578  142.9240  160.1540 H   0  0  0  0  0  0  0  0  0  0  0  0
  153.4663  142.7635  158.4595 H   0  0  0  0  0  0  0  0  0  0  0  0
  150.6721  142.4723  159.6722 H   0  0  0  0  0  0  0  0  0  0  0  0
  151.2279  143.8012  158.6791 H   0  0  0  0  0  0  0  0  0  0  0  0
  149.8860  142.1500  157.3640 H   0  0  0  0  0  0  0  0  0  0  0  0
  151.5160  142.3040  156.7380 H   0  0  0  0  0  0  0  0  0  0  0  0
  150.6735  139.9707  153.4621 H   0  0  0  0  0  0  0  0  0  0  0  0
  147.8294  136.4472  158.0440 H   0  0  0  0  0  0  0  0  0  0  0  0
  146.6632  136.0516  155.6400 H   0  0  0  0  0  0  0  0  0  0  0  0
  147.5128  136.6698  154.2476 H   0  0  0  0  0  0  0  0  0  0  0  0
  148.6172  134.4398  156.0226 H   0  0  0  0  0  0  0  0  0  0  0  0
  149.4301  135.5114  153.5723 H   0  0  0  0  0  0  0  0  0  0  0  0
  146.6781  133.5015  154.8370 H   0  0  0  0  0  0  0  0  0  0  0  0
  149.3574  132.5794  153.7106 H   0  0  0  0  0  0  0  0  0  0  0  0
  148.3452  131.7599  154.9029 H   0  0  0  0  0  0  0  0  0  0  0  0
  148.0791  131.0914  152.3044 H   0  0  0  0  0  0  0  0  0  0  0  0
  146.6151  131.3803  153.2522 H   0  0  0  0  0  0  0  0  0  0  0  0
  147.9880  133.2961  151.3425 H   0  0  0  0  0  0  0  0  0  0  0  0
  146.2602  132.9906  151.5210 H   0  0  0  0  0  0  0  0  0  0  0  0
  154.1831  137.2443  157.4265 H   0  0  0  0  0  0  0  0  0  0  0  0
  154.8005  138.8606  157.7390 H   0  0  0  0  0  0  0  0  0  0  0  0
  155.4967  137.3871  159.6503 H   0  0  0  0  0  0  0  0  0  0  0  0
  1  2  2  0  0  0  0
  2 29  1  0  0  0  0
  2  3  1  0  0  0  0
  3  4  1  0  0  0  0
  3 30  1  0  0  0  0
  3 31  1  0  0  0  0
  4  5  1  0  0  0  0
  4 28  1  0  0  0  0
  4 32  1  0  0  0  0
  5 10  1  0  0  0  0
  5  6  1  0  0  0  0
  5 33  1  0  0  0  0
  6  7  1  0  0  0  0
  6 34  1  0  0  0  0
  6 35  1  0  0  0  0
  7  8  1  0  0  0  0
  7 36  1  0  0  0  0
  7 37  1  0  0  0  0
  8  9  1  0  0  0  0
  8 38  1  0  0  0  0
  8 39  1  0  0  0  0
  9 10  1  0  0  0  0
  9 40  1  0  0  0  0
  9 41  1  0  0  0  0
 10 11  1  0  0  0  0
 11 16  1  0  0  0  0
 11 12  2  0  0  0  0
 12 13  1  0  0  0  0
 13 14  2  0  0  0  0
 13 42  1  0  0  0  0
 14 15  1  0  0  0  0
 15 19  1  0  0  0  0
 15 16  2  0  0  0  0
 16 17  1  0  0  0  0
 17 18  2  0  0  0  0
 18 19  1  0  0  0  0
 18 43  1  0  0  0  0
 19 20  1  0  0  0  0
 20 21  1  0  0  0  0
 20 44  1  0  0  0  0
 20 45  1  0  0  0  0
 21 22  1  0  0  0  0
 21 23  1  0  0  0  0
 21 46  1  0  0  0  0
 22 47  1  0  0  0  0
 23 27  1  0  0  0  0
 23 24  1  0  0  0  0
 23 48  1  0  0  0  0
 24 25  1  0  0  0  0
 24 49  1  0  0  0  0
 24 50  1  0  0  0  0
 25 26  1  0  0  0  0
 25 51  1  0  0  0  0
 25 52  1  0  0  0  0
 26 27  1  0  0  0  0
 26 53  1  0  0  0  0
 26 54  1  0  0  0  0
 28 29  1  0  0  0  0
 28 55  1  0  0  0  0
 28 56  1  0  0  0  0
 29 57  1  0  0  0  0
M  END
> <s_m_source_file>
AV-unprocessed.smi

> <i_m_source_file_index>
203

> <i_lp_mmshare_version>
43012

> <i_f3d_flags>
0

> <s_epik_input>
Tz1DMVtDSDJdW0NASF0oW0NIMl1bTkhdMSlbQ0BASF0yW0NIMl1bQ0gyXVtDSDJdW0NIMl1OMmMobltjSF1uMyljKGMzNCluW2NIXW40W0NIMl1bQ0BIXShbT0hdKVtDQEBIXTVbQ0gyXVtDSDJdW0NIMl1PNQ==

> <s_epik_cmdline>
J2VwaWtfcHl0aG9uJywgJy1waCcsICc3LjAnLCAnLXRuJywgJzgnLCAnLW1hJywgJzIwMCcsICctbWV0YWxfYmluZGluZycsICctaW1hZScsICc8aW5maWxlLm1hZT4nLCAnLW9tYWUnLCAnPG91dGZpbGUubWFlPic=

> <r_lp_tautomer_probability>
1

> <r_epik_Ionization_Penalty>
0.00175146

> <r_epik_Ionization_Penalty_Charging>
0

> <r_epik_Ionization_Penalty_Neutral>
0.00175146

> <r_epik_State_Penalty>
0.00109045

> <r_epik_Charging_Adjusted_Penalty>
0.00109045

> <i_epik_Tot_Q>
0

> <i_epik_Tot_abs_Q>
0

> <r_epik_Metal_State_Penalty>
-0

> <b_epik_Metal_Only>
0

> <s_lp_Force_Field>
OPLS_2005

> <r_lp_Energy>
56.5802

> <b_lp_Chiralities_Consistent>
1

> <s_lp_Variant>
AV-unprocessed.smi:203-1

> <Gold.Version>
5.8.1

> <Gold.Id.Protein>
6NUR|6NUR_protein|mol2

> <Gold.PLP.Fitness>
35.9505

> <Gold.PLP.PLP>
-31.9611

> <Gold.PLP.part.hbond>
-1.6191

> <Gold.PLP.part.metal>
0.0000

> <Gold.PLP.part.buried>
-3.5667

> <Gold.PLP.part.nonpolar>
-27.0639

> <Gold.PLP.part.repulsive>
1.4964

> <Gold.PLP.ligand.clash>
0.0000

> <Gold.PLP.ligand.torsion>
1.1530

> <Gold.PLP.Chemscore.Hbond>
1.0000

> <Gold.PLP.Chemscore.CHOScore>
1.0000

> <Gold.PLP.Chemscore.Metal>
0.0000

> <Gold.Chemscore.Hbonds>
donor molecule, donor type, donor heavy atom, donor atom, acceptor molecule, acceptor atom, score
      L1  H    22    47       P1  7948  1.00
      L1  C    13    42       P1  7957  1.00

> <Gold.PLP.Chemscore.Internal.Correction>
0.2955

> <Gold.Rescore>
     Score         DG    S(hbond)    S(metal)    S(lipo)     H(rot)  DE(clash)    DE(int)     intcor
      9.20     -10.29       0.94        0.00      73.58       2.72       0.05       1.04       ----

> <Gold.Chemscore.Fitness>
9.2005

> <Gold.Chemscore.DG>
-10.2866

> <Gold.Chemscore.ZeroCoef>
-5.4800

> <Gold.Chemscore.Hbond>
0.9441

> <Gold.Chemscore.Metal>
0.0000

> <Gold.Chemscore.Lipo>
73.5805

> <Gold.Chemscore.Internal_Hbond>
0.0000

> <Gold.Chemscore.DEClash>
0.0465

> <Gold.Chemscore.DEInternal>
1.0397

> <Gold.Chemscore.Rot>
2.7171

> <Gold.Chemscore.Internal.Correction>
   9.000000E+99

> <Gold.Chemscore.Hbonds>
donor molecule, donor type, donor heavy atom, donor atom, acceptor molecule, acceptor atom, score
      L1  H    22    47       P1  7948  0.26

> <Gold.Chemscore.Hbond.Weighted>
-3.1534

> <Gold.Chemscore.Metal.Weighted>
-0.0000

> <Gold.Chemscore.Lipo.Weighted>
-8.6089

> <Gold.Chemscore.Internal_Hbond.Weighted>
0.0000

> <Gold.Chemscore.DEClash.Weighted>
0.0465

> <Gold.Chemscore.DEInternal.Weighted>
1.0397

> <Gold.Chemscore.Rot.Weighted>
6.9557

> <Gold.Chemscore.Internal.Correction.Weighted>
   9.000000E+99

> <Gold.Protein.RotatedTorsions>
[ 6907 6896 6895 6894 ] final  -24.88 input  -60.11 | X-H torsion
[ 7974 7965 7964 7962 ] final  -85.69 input  175.53 | X-H torsion
[ 8008 7997 7996 7995 ] final  147.02 input   59.86 | X-H torsion
[ 10167 10162 10161 10158 ] final  -44.52 input  -65.29 | X-H torsion
[ 10718 10713 10712 10709 ] final  140.21 input   66.30 | X-H torsion
[ 10763 10752 10751 10750 ] final   36.53 input  -60.55 | X-H torsion
[ 11005 11000 10999 10996 ] final -153.86 input  -57.11 | X-H torsion

> <Gold.Protein.ActiveResidues>
 VAL166  LYS551  ARG553  GLY616  TRP617  ASP618  TYR619  PRO620  LYS621  CYS622 
 ASP623  PHE694  ASN695  SER759  ASP760  ASP761  ALA762  ILE779  LEU786  VAL792 
 PHE793  MET794  SER795  GLU796  ALA797  LYS798  CYS799  TRP800  GLU811  SER814 

> <Gold.Protein.RotatedAtoms>
  151.1831  135.0370  159.8800 H   0  0  0  0  0  0  0  0  0  0  0  0  # atno 6907 bound_to 6896
  152.5443  134.1040  159.8340 H   0  0  0  0  0  0  0  0  0  0  0  0  # atno 6908 bound_to 6896
  151.1160  133.5092  159.2636 H   0  0  0  0  0  0  0  0  0  0  0  0  # atno 6909 bound_to 6896
  145.4898  140.9553  143.1818 H   0  0  0  0  0  0  0  0  0  0  0  0  # atno 7974 bound_to 7965
  156.2837  140.2166  156.5471 H   0  0  0  0  0  0  0  0  0  0  0  0  # atno 8008 bound_to 7997
  154.7321  140.0494  157.0758 H   0  0  0  0  0  0  0  0  0  0  0  0  # atno 8009 bound_to 7997
  155.0339  140.3138  155.4751 H   0  0  0  0  0  0  0  0  0  0  0  0  # atno 8010 bound_to 7997
  140.6894  143.2926  151.3506 H   0  0  0  0  0  0  0  0  0  0  0  0  # atno 10167 bound_to 10162
  157.4058  131.1022  151.0505 H   0  0  0  0  0  0  0  0  0  0  0  0  # atno 10718 bound_to 10713
  153.0073  135.6303  154.2000 H   0  0  0  0  0  0  0  0  0  0  0  0  # atno 10763 bound_to 10752
  154.1743  135.2816  155.3073 H   0  0  0  0  0  0  0  0  0  0  0  0  # atno 10764 bound_to 10752
  154.5884  135.5625  153.7314 H   0  0  0  0  0  0  0  0  0  0  0  0  # atno 10765 bound_to 10752
  140.7036  134.3910  157.5207 H   0  0  0  0  0  0  0  0  0  0  0  0  # atno 11005 bound_to 11000
  144.7840  139.6465  143.7142 LP  0  0  0  0  0  0  0  0  0  0  0  0  # atno 17320 bound_to 7965
  146.2291  139.5779  142.9567 LP  0  0  0  0  0  0  0  0  0  0  0  0  # atno 17321 bound_to 7965
  139.6281  144.0773  152.2452 LP  0  0  0  0  0  0  0  0  0  0  0  0  # atno 17342 bound_to 10162
  140.0239  144.6132  150.7543 LP  0  0  0  0  0  0  0  0  0  0  0  0  # atno 17343 bound_to 10162
  157.1488  130.6175  149.5576 LP  0  0  0  0  0  0  0  0  0  0  0  0  # atno 17370 bound_to 10713
  155.9836  130.4856  150.6941 LP  0  0  0  0  0  0  0  0  0  0  0  0  # atno 17371 bound_to 10713
  139.8890  134.8841  156.2443 LP  0  0  0  0  0  0  0  0  0  0  0  0  # atno 17394 bound_to 11000
  141.0143  133.7077  156.1163 LP  0  0  0  0  0  0  0  0  0  0  0  0  # atno 17395 bound_to 11000

$$$$
