AV-unprocessed.smi:284|AV-procd|sdf|2162|dock4
  -GOLD-   2262021513D 1   1.00000     0.00000
 Structure written by MMmdl.
 60 62  0  0  0  0  0  0  0  0  1 V2000
  160.6753  141.6248  164.9473 C   0  0  0  0  0  0  0  0  0  0  0  0
  159.1596  141.6921  165.0543 C   0  0  0  0  0  0  0  0  0  0  0  0
  158.5267  142.7175  165.6697 C   0  0  0  0  0  0  0  0  0  0  0  0
  157.1488  142.8177  165.7831 N   0  0  0  0  0  0  0  0  0  0  0  0
  156.4510  144.0242  166.3986 C   0  0  1  0  0  0  0  0  0  0  0  0
  155.7025  143.7425  167.7098 C   0  0  0  0  0  0  0  0  0  0  0  0
  156.6462  144.2907  168.7804 C   0  0  1  0  0  0  0  0  0  0  0  0
  156.9402  143.3049  169.7497 O   0  0  0  0  0  0  0  0  0  0  0  0
  157.9059  144.7232  168.0084 C   0  0  2  0  0  0  0  0  0  0  0  0
  158.5939  145.9830  168.5550 C   0  0  0  0  0  0  0  0  0  0  0  0
  159.3020  145.6825  169.7389 O   0  0  0  0  0  0  0  0  0  0  0  0
  157.4155  144.9804  166.6991 O   0  0  0  0  0  0  0  0  0  0  0  0
  156.3401  141.8493  165.1499 C   0  0  0  0  0  0  0  0  0  0  0  0
  155.1110  141.9554  165.1488 O   0  0  0  0  0  0  0  0  0  0  0  0
  156.9687  140.7550  164.5142 N   0  0  0  0  0  0  0  0  0  0  0  0
  156.1149  139.7398  163.8580 C   0  0  0  0  0  0  0  0  0  0  0  0
  155.4062  140.2687  162.6010 C   0  0  0  0  0  0  0  0  0  0  0  0
  155.6367  139.7645  161.5015 O   0  0  0  0  0  0  0  0  0  0  0  0
  154.5195  141.2577  162.8164 N   0  0  0  0  0  0  0  0  0  0  0  0
  153.7377  141.9786  161.8730 C   0  0  0  0  0  0  0  0  0  0  0  0
  153.0044  143.1466  162.1857 C   0  0  0  0  0  0  0  0  0  0  0  0
  152.2337  143.7909  161.1986 C   0  0  0  0  0  0  0  0  0  0  0  0
  152.1672  143.2821  159.8782 C   0  0  0  0  0  0  0  0  0  0  0  0
  151.3303  143.9569  158.7745 C   0  0  0  0  0  0  0  0  0  0  0  0
  150.2549  142.9763  158.2611 C   0  0  0  0  0  0  0  0  0  0  0  0
  152.1770  144.3973  157.5588 C   0  0  0  0  0  0  0  0  0  0  0  0
  150.6421  145.2131  159.3472 C   0  0  0  0  0  0  0  0  0  0  0  0
  152.8920  142.1039  159.5821 C   0  0  0  0  0  0  0  0  0  0  0  0
  153.6635  141.4589  160.5666 C   0  0  0  0  0  0  0  0  0  0  0  0
  158.3757  140.6187  164.4414 C   0  0  0  0  0  0  0  0  0  0  0  0
  158.8860  139.6508  163.8739 O   0  0  0  0  0  0  0  0  0  0  0  0
  161.1576  142.4613  165.4538 H   0  0  0  0  0  0  0  0  0  0  0  0
  160.9833  141.6464  163.9013 H   0  0  0  0  0  0  0  0  0  0  0  0
  161.0503  140.7044  165.3966 H   0  0  0  0  0  0  0  0  0  0  0  0
  159.1508  143.4983  166.0716 H   0  0  0  0  0  0  0  0  0  0  0  0
  155.7639  144.3848  165.6316 H   0  0  0  0  0  0  0  0  0  0  0  0
  154.7804  144.3246  167.7069 H   0  0  0  0  0  0  0  0  0  0  0  0
  155.4190  142.6954  167.8148 H   0  0  0  0  0  0  0  0  0  0  0  0
  156.1805  145.1476  169.2688 H   0  0  0  0  0  0  0  0  0  0  0  0
  157.1451  143.7357  170.5656 H   0  0  0  0  0  0  0  0  0  0  0  0
  158.6250  143.9048  167.9426 H   0  0  0  0  0  0  0  0  0  0  0  0
  159.3029  146.3696  167.8227 H   0  0  0  0  0  0  0  0  0  0  0  0
  157.8688  146.7741  168.7492 H   0  0  0  0  0  0  0  0  0  0  0  0
  158.6890  145.3629  170.3833 H   0  0  0  0  0  0  0  0  0  0  0  0
  156.6845  138.8528  163.5777 H   0  0  0  0  0  0  0  0  0  0  0  0
  155.3700  139.3611  164.5605 H   0  0  0  0  0  0  0  0  0  0  0  0
  154.3584  141.4998  163.7833 H   0  0  0  0  0  0  0  0  0  0  0  0
  153.0021  143.5621  163.1813 H   0  0  0  0  0  0  0  0  0  0  0  0
  151.6945  144.6781  161.4908 H   0  0  0  0  0  0  0  0  0  0  0  0
  149.6645  143.4206  157.4590 H   0  0  0  0  0  0  0  0  0  0  0  0
  149.5557  142.6833  159.0441 H   0  0  0  0  0  0  0  0  0  0  0  0
  150.7080  142.0654  157.8677 H   0  0  0  0  0  0  0  0  0  0  0  0
  152.6815  143.5508  157.0912 H   0  0  0  0  0  0  0  0  0  0  0  0
  152.9337  145.1318  157.8375 H   0  0  0  0  0  0  0  0  0  0  0  0
  151.5552  144.8603  156.7916 H   0  0  0  0  0  0  0  0  0  0  0  0
  150.0499  145.7228  158.5863 H   0  0  0  0  0  0  0  0  0  0  0  0
  151.3757  145.9269  159.7237 H   0  0  0  0  0  0  0  0  0  0  0  0
  149.9675  144.9721  160.1691 H   0  0  0  0  0  0  0  0  0  0  0  0
  152.8603  141.6780  158.5906 H   0  0  0  0  0  0  0  0  0  0  0  0
  154.2040  140.5592  160.3103 H   0  0  0  0  0  0  0  0  0  0  0  0
  1  2  1  0  0  0  0
  1 32  1  0  0  0  0
  1 33  1  0  0  0  0
  1 34  1  0  0  0  0
  2 30  1  0  0  0  0
  2  3  2  0  0  0  0
  3  4  1  0  0  0  0
  3 35  1  0  0  0  0
  4  5  1  0  0  0  0
  4 13  1  0  0  0  0
  5 12  1  0  0  0  0
  5  6  1  0  0  0  0
  5 36  1  0  0  0  0
  6  7  1  0  0  0  0
  6 37  1  0  0  0  0
  6 38  1  0  0  0  0
  7  8  1  0  0  0  0
  7  9  1  0  0  0  0
  7 39  1  0  0  0  0
  8 40  1  0  0  0  0
  9 10  1  0  0  0  0
  9 12  1  0  0  0  0
  9 41  1  0  0  0  0
 10 11  1  0  0  0  0
 10 42  1  0  0  0  0
 10 43  1  0  0  0  0
 11 44  1  0  0  0  0
 13 14  2  0  0  0  0
 13 15  1  0  0  0  0
 15 16  1  0  0  0  0
 15 30  1  0  0  0  0
 16 17  1  0  0  0  0
 16 45  1  0  0  0  0
 16 46  1  0  0  0  0
 17 18  2  0  0  0  0
 17 19  1  0  0  0  0
 19 20  1  0  0  0  0
 19 47  1  0  0  0  0
 20 29  1  0  0  0  0
 20 21  2  0  0  0  0
 21 22  1  0  0  0  0
 21 48  1  0  0  0  0
 22 23  2  0  0  0  0
 22 49  1  0  0  0  0
 23 24  1  0  0  0  0
 23 28  1  0  0  0  0
 24 25  1  0  0  0  0
 24 26  1  0  0  0  0
 24 27  1  0  0  0  0
 25 50  1  0  0  0  0
 25 51  1  0  0  0  0
 25 52  1  0  0  0  0
 26 53  1  0  0  0  0
 26 54  1  0  0  0  0
 26 55  1  0  0  0  0
 27 56  1  0  0  0  0
 27 57  1  0  0  0  0
 27 58  1  0  0  0  0
 28 29  2  0  0  0  0
 28 59  1  0  0  0  0
 29 60  1  0  0  0  0
 30 31  2  0  0  0  0
M  END
> <s_m_source_file>
AV-unprocessed.smi

> <i_m_source_file_index>
284

> <i_lp_mmshare_version>
43012

> <i_f3d_flags>
0

> <s_epik_input>
W09IXVtDSDJdW0NAQEhdKE8xKVtDQEhdKFtPSF0pW0NIMl1bQ0BIXTFuKFtjSF1jMltDSDNdKWMoPU8pbihjMj1PKVtDSDJdQyg9TylbTkhdYzNbY0hdW2NIXWMoQyhbQ0gzXSkoW0NIM10pW0NIM10pW2NIXVtjSF0z

> <s_epik_cmdline>
J2VwaWtfcHl0aG9uJywgJy1waCcsICc3LjAnLCAnLXRuJywgJzgnLCAnLW1hJywgJzIwMCcsICctbWV0YWxfYmluZGluZycsICctaW1hZScsICc8aW5maWxlLm1hZT4nLCAnLW9tYWUnLCAnPG91dGZpbGUubWFlPic=

> <r_lp_tautomer_probability>
1

> <r_epik_Ionization_Penalty>
4.92358e-06

> <r_epik_Ionization_Penalty_Charging>
1.29777e-07

> <r_epik_Ionization_Penalty_Neutral>
4.79381e-06

> <r_epik_State_Penalty>
-0

> <r_epik_Charging_Adjusted_Penalty>
1.29777e-07

> <i_epik_Tot_Q>
0

> <i_epik_Tot_abs_Q>
0

> <r_epik_Metal_State_Penalty>
-0

> <b_epik_Metal_Only>
0

> <s_epik_Chemistry_Notes>
This compound contains an acetal/aminal-like group ( X-CH(R)-Y where X, Y are N, S, or O) that may be acid/base labile, releasing an aldehyde.

> <s_lp_Force_Field>
OPLS_2005

> <r_lp_Energy>
37.3947

> <b_lp_Chiralities_Consistent>
1

> <s_lp_Variant>
AV-unprocessed.smi:284-6

> <Gold.Version>
5.8.1

> <Gold.Id.Protein>
6NUR|6NUR_protein|mol2

> <Gold.PLP.Fitness>
55.5379

> <Gold.PLP.PLP>
-56.2007

> <Gold.PLP.part.hbond>
-5.2996

> <Gold.PLP.part.metal>
0.0000

> <Gold.PLP.part.buried>
-0.9092

> <Gold.PLP.part.nonpolar>
-49.2754

> <Gold.PLP.part.repulsive>
0.0541

> <Gold.PLP.ligand.clash>
0.0000

> <Gold.PLP.ligand.torsion>
0.4149

> <Gold.PLP.Chemscore.Hbond>
0.0000

> <Gold.PLP.Chemscore.CHOScore>
0.0000

> <Gold.PLP.Chemscore.Metal>
0.0000

> <Gold.PLP.Chemscore.Internal.Correction>
0.1669

> <Gold.Rescore>
     Score         DG    S(hbond)    S(metal)    S(lipo)     H(rot)  DE(clash)    DE(int)     intcor
      8.60     -12.69       0.00        0.00     133.28       3.27       1.52       2.58       ----

> <Gold.Chemscore.Fitness>
8.5952

> <Gold.Chemscore.DG>
-12.6938

> <Gold.Chemscore.ZeroCoef>
-5.4800

> <Gold.Chemscore.Hbond>
0.0000

> <Gold.Chemscore.Metal>
0.0000

> <Gold.Chemscore.Lipo>
133.2806

> <Gold.Chemscore.Internal_Hbond>
0.0000

> <Gold.Chemscore.DEClash>
1.5187

> <Gold.Chemscore.DEInternal>
2.5798

> <Gold.Chemscore.Rot>
3.2735

> <Gold.Chemscore.Internal.Correction>
   9.000000E+99

> <Gold.Chemscore.Hbond.Weighted>
-0.0000

> <Gold.Chemscore.Metal.Weighted>
-0.0000

> <Gold.Chemscore.Lipo.Weighted>
-15.5938

> <Gold.Chemscore.Internal_Hbond.Weighted>
0.0000

> <Gold.Chemscore.DEClash.Weighted>
1.5187

> <Gold.Chemscore.DEInternal.Weighted>
2.5798

> <Gold.Chemscore.Rot.Weighted>
8.3801

> <Gold.Chemscore.Internal.Correction.Weighted>
   9.000000E+99

> <Gold.Protein.RotatedTorsions>
[ 6907 6896 6895 6894 ] final   78.21 input  -60.11 | X-H torsion
[ 7974 7965 7964 7962 ] final -145.92 input  175.53 | X-H torsion
[ 8008 7997 7996 7995 ] final   71.20 input   59.86 | X-H torsion
[ 10167 10162 10161 10158 ] final  -39.68 input  -65.29 | X-H torsion
[ 10718 10713 10712 10709 ] final  178.48 input   66.30 | X-H torsion
[ 10763 10752 10751 10750 ] final  -34.11 input  -60.55 | X-H torsion
[ 11005 11000 10999 10996 ] final  102.23 input  -57.11 | X-H torsion

> <Gold.Protein.ActiveResidues>
 VAL166  LYS551  ARG553  GLY616  TRP617  ASP618  TYR619  PRO620  LYS621  CYS622 
 ASP623  PHE694  ASN695  SER759  ASP760  ASP761  ALA762  ILE779  LEU786  VAL792 
 PHE793  MET794  SER795  GLU796  ALA797  LYS798  CYS799  TRP800  GLU811  SER814 

> <Gold.Protein.RotatedAtoms>
  152.5150  134.3698  159.9313 H   0  0  0  0  0  0  0  0  0  0  0  0  # atno 6907 bound_to 6896
  151.3652  133.3868  159.2701 H   0  0  0  0  0  0  0  0  0  0  0  0  # atno 6908 bound_to 6896
  150.9620  134.9026  159.7795 H   0  0  0  0  0  0  0  0  0  0  0  0  # atno 6909 bound_to 6896
  144.8194  140.5522  143.5588 H   0  0  0  0  0  0  0  0  0  0  0  0  # atno 7974 bound_to 7965
  155.7504  140.3488  155.5147 H   0  0  0  0  0  0  0  0  0  0  0  0  # atno 8008 bound_to 7997
  155.9010  140.1034  157.1371 H   0  0  0  0  0  0  0  0  0  0  0  0  # atno 8009 bound_to 7997
  154.4044  140.1286  156.4423 H   0  0  0  0  0  0  0  0  0  0  0  0  # atno 8010 bound_to 7997
  140.7057  143.3199  151.2817 H   0  0  0  0  0  0  0  0  0  0  0  0  # atno 10167 bound_to 10162
  156.8899  130.9844  151.3051 H   0  0  0  0  0  0  0  0  0  0  0  0  # atno 10718 bound_to 10713
  153.8413  135.6857  153.4802 H   0  0  0  0  0  0  0  0  0  0  0  0  # atno 10763 bound_to 10752
  153.1452  135.4641  154.9553 H   0  0  0  0  0  0  0  0  0  0  0  0  # atno 10764 bound_to 10752
  154.7843  135.3279  154.7866 H   0  0  0  0  0  0  0  0  0  0  0  0  # atno 10765 bound_to 10752
  139.8776  134.9215  156.5026 H   0  0  0  0  0  0  0  0  0  0  0  0  # atno 11005 bound_to 11000
  145.5139  139.1478  143.3589 LP  0  0  0  0  0  0  0  0  0  0  0  0  # atno 17320 bound_to 7965
  146.2499  140.5280  142.8898 LP  0  0  0  0  0  0  0  0  0  0  0  0  # atno 17321 bound_to 7965
  139.6650  144.0121  152.2717 LP  0  0  0  0  0  0  0  0  0  0  0  0  # atno 17342 bound_to 10162
  139.9701  144.6499  150.7997 LP  0  0  0  0  0  0  0  0  0  0  0  0  # atno 17343 bound_to 10162
  157.6090  130.8569  149.8921 LP  0  0  0  0  0  0  0  0  0  0  0  0  # atno 17370 bound_to 10713
  156.0634  130.3696  150.0931 LP  0  0  0  0  0  0  0  0  0  0  0  0  # atno 17371 bound_to 10713
  140.8578  133.8083  155.9234 LP  0  0  0  0  0  0  0  0  0  0  0  0  # atno 17394 bound_to 11000
  140.9080  134.2296  157.5003 LP  0  0  0  0  0  0  0  0  0  0  0  0  # atno 17395 bound_to 11000

$$$$
