AV-unprocessed.smi:861|AV-procd|sdf|3974|dock8
  -GOLD-   22720 1453D 1   1.00000     0.00000
 Structure written by MMmdl.
 45 46  0  0  0  0  0  0  0  0  3 V2000
  150.3460  134.9104  155.1243 C   0  0  0  0  0  0  0  0  0  0  0  0
  149.6216  136.1984  155.5516 C   0  0  0  0  0  0  0  0  0  0  0  0
  149.6905  136.3652  157.0777 C   0  0  0  0  0  0  0  0  0  0  0  0
  148.1589  136.2474  155.0630 C   0  0  0  0  0  0  0  0  0  0  0  0
  147.6014  137.6737  154.8859 C   0  0  0  0  0  0  0  0  0  0  0  0
  148.3315  138.4363  153.8376 N   0  3  1  0  0  0  0  0  0  0  0  0
  147.5043  139.4253  153.1000 C   0  0  0  0  0  0  0  0  0  0  0  0
  147.2912  140.7094  153.9236 C   0  0  0  0  0  0  0  0  0  0  0  0
  148.5503  141.2430  154.3154 O   0  0  0  0  0  0  0  0  0  0  0  0
  149.2923  140.3475  155.1377 C   0  0  2  0  0  0  0  0  0  0  0  0
  150.5887  141.0527  155.5640 C   0  0  0  0  0  0  0  0  0  0  0  0
  150.3276  142.3725  156.1188 N   0  0  0  0  0  0  0  0  0  0  0  0
  150.9833  142.8005  157.2810 C   0  0  0  0  0  0  0  0  0  0  0  0
  151.9227  142.0203  157.9944 C   0  0  0  0  0  0  0  0  0  0  0  0
  152.5073  142.5711  159.1475 C   0  0  0  0  0  0  0  0  0  0  0  0
  152.1187  143.8706  159.5182 C   0  0  0  0  0  0  0  0  0  0  0  0
  151.2190  144.6006  158.8223 N   0  0  0  0  0  0  0  0  0  0  0  0
  150.6765  144.0457  157.7242 N   0  3  0  0  0  0  0  0  0  0  0  0
  149.5836  139.0697  154.3219 C   0  0  0  0  0  0  0  0  0  0  0  0
  149.8328  134.0240  155.4984 H   0  0  0  0  0  0  0  0  0  0  0  0
  151.3650  134.8895  155.5118 H   0  0  0  0  0  0  0  0  0  0  0  0
  150.4170  134.8247  154.0405 H   0  0  0  0  0  0  0  0  0  0  0  0
  150.1535  137.0438  155.1128 H   0  0  0  0  0  0  0  0  0  0  0  0
  149.1781  135.5497  157.5896 H   0  0  0  0  0  0  0  0  0  0  0  0
  149.2281  137.3003  157.3950 H   0  0  0  0  0  0  0  0  0  0  0  0
  150.7237  136.3788  157.4263 H   0  0  0  0  0  0  0  0  0  0  0  0
  148.0689  135.6992  154.1240 H   0  0  0  0  0  0  0  0  0  0  0  0
  147.5442  135.7091  155.7838 H   0  0  0  0  0  0  0  0  0  0  0  0
  146.5336  137.6453  154.6692 H   0  0  0  0  0  0  0  0  0  0  0  0
  147.7062  138.2020  155.8331 H   0  0  0  0  0  0  0  0  0  0  0  0
  148.0248  139.6789  152.1755 H   0  0  0  0  0  0  0  0  0  0  0  0
  146.5472  139.0005  152.7999 H   0  0  0  0  0  0  0  0  0  0  0  0
  146.7680  141.4534  153.3228 H   0  0  0  0  0  0  0  0  0  0  0  0
  146.6704  140.5243  154.8009 H   0  0  0  0  0  0  0  0  0  0  0  0
  148.7141  140.0947  156.0285 H   0  0  0  0  0  0  0  0  0  0  0  0
  151.0923  140.4545  156.3243 H   0  0  0  0  0  0  0  0  0  0  0  0
  151.2678  141.1365  154.7145 H   0  0  0  0  0  0  0  0  0  0  0  0
  149.7787  143.0280  155.5806 H   0  0  0  0  0  0  0  0  0  0  0  0
  152.1964  141.0244  157.6794 H   0  0  0  0  0  0  0  0  0  0  0  0
  153.2292  142.0175  159.7297 H   0  0  0  0  0  0  0  0  0  0  0  0
  152.5397  144.3382  160.3962 H   0  0  0  0  0  0  0  0  0  0  0  0
  150.1696  138.3584  154.9051 H   0  0  0  0  0  0  0  0  0  0  0  0
  150.1936  139.3240  153.4537 H   0  0  0  0  0  0  0  0  0  0  0  0
  148.6198  137.7413  153.1632 H   0  0  0  0  0  0  0  0  0  0  0  0
  149.9965  144.5919  157.1948 H   0  0  0  0  0  0  0  0  0  0  0  0
  1  2  1  0  0  0  0
  1 20  1  0  0  0  0
  1 21  1  0  0  0  0
  1 22  1  0  0  0  0
  2  3  1  0  0  0  0
  2  4  1  0  0  0  0
  2 23  1  0  0  0  0
  3 24  1  0  0  0  0
  3 25  1  0  0  0  0
  3 26  1  0  0  0  0
  4  5  1  0  0  0  0
  4 27  1  0  0  0  0
  4 28  1  0  0  0  0
  5  6  1  0  0  0  0
  5 29  1  0  0  0  0
  5 30  1  0  0  0  0
  6 19  1  0  0  0  0
  6  7  1  0  0  0  0
  6 44  1  0  0  0  0
  7  8  1  0  0  0  0
  7 31  1  0  0  0  0
  7 32  1  0  0  0  0
  8  9  1  0  0  0  0
  8 33  1  0  0  0  0
  8 34  1  0  0  0  0
  9 10  1  0  0  0  0
 10 11  1  0  0  0  0
 10 19  1  0  0  0  0
 10 35  1  0  0  0  0
 11 12  1  0  0  0  0
 11 36  1  0  0  0  0
 11 37  1  0  0  0  0
 12 13  1  0  0  0  0
 12 38  1  0  0  0  0
 13 18  1  0  0  0  0
 13 14  2  0  0  0  0
 14 15  1  0  0  0  0
 14 39  1  0  0  0  0
 15 16  2  0  0  0  0
 15 40  1  0  0  0  0
 16 17  1  0  0  0  0
 16 41  1  0  0  0  0
 17 18  2  0  0  0  0
 18 45  1  0  0  0  0
 19 42  1  0  0  0  0
 19 43  1  0  0  0  0
M  CHG  1   6   1
M  CHG  1  18   1
M  END
> <s_m_source_file>
AV-unprocessed.smi

> <i_m_source_file_index>
861

> <i_lp_mmshare_version>
43012

> <i_f3d_flags>
0

> <s_epik_input>
W0NIM11bQ0hdKFtDSDNdKVtDSDJdW0NIMl1OMVtDSDJdW0NIMl1PW0NASF0oW0NIMl0xKVtDSDJdW05IXWMyW2NIXVtjSF1bY0hdbm4y

> <s_epik_cmdline>
J2VwaWtfcHl0aG9uJywgJy1waCcsICc3LjAnLCAnLXRuJywgJzgnLCAnLW1hJywgJzIwMCcsICctbWV0YWxfYmluZGluZycsICctaW1hZScsICc8aW5maWxlLm1hZT4nLCAnLW9tYWUnLCAnPG91dGZpbGUubWFlPic=

> <r_lp_tautomer_probability>
0.966961

> <r_epik_Ionization_Penalty>
2.478

> <r_epik_Ionization_Penalty_Charging>
2.47799

> <r_epik_Ionization_Penalty_Neutral>
3.15286e-06

> <r_epik_State_Penalty>
2.10794

> <r_epik_Charging_Adjusted_Penalty>
4.58594

> <i_epik_Tot_Q>
2

> <i_epik_Tot_abs_Q>
2

> <r_epik_Metal_State_Penalty>
2.11378

> <b_epik_Metal_Only>
0

> <s_lp_Force_Field>
OPLS_2005

> <r_lp_Energy>
35.7333

> <b_lp_Chiralities_Consistent>
1

> <s_lp_Variant>
AV-unprocessed.smi:861-9

> <Gold.Version>
5.8.1

> <Gold.Id.Protein>
6NUR|6NUR_protein|mol2

> <Gold.PLP.Fitness>
47.0937

> <Gold.PLP.PLP>
-30.7039

> <Gold.PLP.part.hbond>
-3.0000

> <Gold.PLP.part.metal>
0.0000

> <Gold.PLP.part.buried>
-3.5267

> <Gold.PLP.part.nonpolar>
-23.9812

> <Gold.PLP.part.repulsive>
0.3766

> <Gold.PLP.ligand.clash>
0.0000

> <Gold.PLP.ligand.torsion>
0.7439

> <Gold.PLP.Chemscore.Hbond>
5.9360

> <Gold.PLP.Chemscore.CHOScore>
0.0000

> <Gold.PLP.Chemscore.Metal>
0.0000

> <Gold.Chemscore.Hbonds>
donor molecule, donor type, donor heavy atom, donor atom, acceptor molecule, acceptor atom, score
      L1  H     6    44       P1  7948  2.00
      L1  H    12    38       P1  8028  1.76
      L1  H    18    45       P1  8028  1.98

> <Gold.PLP.Chemscore.Internal.Correction>
0.0697

> <Gold.Rescore>
     Score         DG    S(hbond)    S(metal)    S(lipo)     H(rot)  DE(clash)    DE(int)     intcor
     16.99     -17.92       2.37        0.00      77.65       1.78       0.13       0.79       ----

> <Gold.Chemscore.Fitness>
16.9927

> <Gold.Chemscore.DG>
-17.9186

> <Gold.Chemscore.ZeroCoef>
-5.4800

> <Gold.Chemscore.Hbond>
2.3652

> <Gold.Chemscore.Metal>
0.0000

> <Gold.Chemscore.Lipo>
77.6489

> <Gold.Chemscore.Internal_Hbond>
0.0000

> <Gold.Chemscore.DEClash>
0.1347

> <Gold.Chemscore.DEInternal>
0.7912

> <Gold.Chemscore.Rot>
1.7759

> <Gold.Chemscore.Internal.Correction>
   9.000000E+99

> <Gold.Chemscore.Hbonds>
donor molecule, donor type, donor heavy atom, donor atom, acceptor molecule, acceptor atom, score
      L1  H     6    44       P1  7948  0.96
      L1  H    12    38       P1  8028  0.86
      L1  H    18    45       P1  8028  0.28

> <Gold.Chemscore.Hbond.Weighted>
-7.8999

> <Gold.Chemscore.Metal.Weighted>
-0.0000

> <Gold.Chemscore.Lipo.Weighted>
-9.0849

> <Gold.Chemscore.Internal_Hbond.Weighted>
0.0000

> <Gold.Chemscore.DEClash.Weighted>
0.1347

> <Gold.Chemscore.DEInternal.Weighted>
0.7912

> <Gold.Chemscore.Rot.Weighted>
4.5462

> <Gold.Chemscore.Internal.Correction.Weighted>
   9.000000E+99

> <Gold.Protein.RotatedTorsions>
[ 6907 6896 6895 6894 ] final   16.98 input  -60.11 | X-H torsion
[ 7974 7965 7964 7962 ] final  158.90 input  175.53 | X-H torsion
[ 8008 7997 7996 7995 ] final  -76.54 input   59.86 | X-H torsion
[ 10167 10162 10161 10158 ] final  104.69 input  -65.29 | X-H torsion
[ 10718 10713 10712 10709 ] final  -18.35 input   66.30 | X-H torsion
[ 10763 10752 10751 10750 ] final  126.37 input  -60.55 | X-H torsion
[ 11005 11000 10999 10996 ] final   69.31 input  -57.11 | X-H torsion

> <Gold.Protein.ActiveResidues>
 VAL166  LYS551  ARG553  GLY616  TRP617  ASP618  TYR619  PRO620  LYS621  CYS622 
 ASP623  PHE694  ASN695  SER759  ASP760  ASP761  ALA762  ILE779  LEU786  VAL792 
 PHE793  MET794  SER795  GLU796  ALA797  LYS798  CYS799  TRP800  GLU811  SER814 

> <Gold.Protein.RotatedAtoms>
  151.8424  135.0585  160.0449 H   0  0  0  0  0  0  0  0  0  0  0  0  # atno 6907 bound_to 6896
  152.2799  133.5456  159.5499 H   0  0  0  0  0  0  0  0  0  0  0  0  # atno 6908 bound_to 6896
  150.7185  134.0495  159.3835 H   0  0  0  0  0  0  0  0  0  0  0  0  # atno 6909 bound_to 6896
  144.7820  139.7543  143.6256 H   0  0  0  0  0  0  0  0  0  0  0  0  # atno 7974 bound_to 7965
  154.5515  140.0725  156.8675 H   0  0  0  0  0  0  0  0  0  0  0  0  # atno 8008 bound_to 7997
  155.2985  140.3382  155.4230 H   0  0  0  0  0  0  0  0  0  0  0  0  # atno 8009 bound_to 7997
  156.1965  140.1705  156.7974 H   0  0  0  0  0  0  0  0  0  0  0  0  # atno 8010 bound_to 7997
  139.7156  144.7069  151.0956 H   0  0  0  0  0  0  0  0  0  0  0  0  # atno 10167 bound_to 10162
  156.5608  130.4725  149.6408 H   0  0  0  0  0  0  0  0  0  0  0  0  # atno 10718 bound_to 10713
  153.6923  135.3297  155.3205 H   0  0  0  0  0  0  0  0  0  0  0  0  # atno 10763 bound_to 10752
  154.8436  135.4434  154.1496 H   0  0  0  0  0  0  0  0  0  0  0  0  # atno 10764 bound_to 10752
  153.2541  135.6984  153.7725 H   0  0  0  0  0  0  0  0  0  0  0  0  # atno 10765 bound_to 10752
  139.9661  134.6979  156.0543 H   0  0  0  0  0  0  0  0  0  0  0  0  # atno 11005 bound_to 11000
  146.2032  139.5340  142.9729 LP  0  0  0  0  0  0  0  0  0  0  0  0  # atno 17320 bound_to 7965
  145.6025  141.0353  143.2010 LP  0  0  0  0  0  0  0  0  0  0  0  0  # atno 17321 bound_to 7965
  140.7743  143.5234  150.9509 LP  0  0  0  0  0  0  0  0  0  0  0  0  # atno 17342 bound_to 10162
  139.8920  143.6941  152.3144 LP  0  0  0  0  0  0  0  0  0  0  0  0  # atno 17343 bound_to 10162
  156.2801  130.7066  151.1887 LP  0  0  0  0  0  0  0  0  0  0  0  0  # atno 17370 bound_to 10713
  157.7369  131.0558  150.5388 LP  0  0  0  0  0  0  0  0  0  0  0  0  # atno 17371 bound_to 10713
  141.1340  133.6579  156.3544 LP  0  0  0  0  0  0  0  0  0  0  0  0  # atno 17394 bound_to 11000
  140.5394  134.6135  157.5375 LP  0  0  0  0  0  0  0  0  0  0  0  0  # atno 17395 bound_to 11000

$$$$
