AV-unprocessed.smi:72|AV-procd|sdf|730|dock3
  -GOLD-   2262017 53D 1   1.00000     0.00000
 Structure written by MMmdl.
 28 29  0  0  0  0  0  0  0  0  2 V2000
  154.7226  137.8128  156.0510 N   0  0  0  0  0  0  0  0  0  0  0  0
  153.4717  137.9400  155.9521 C   0  0  0  0  0  0  0  0  0  0  0  0
  152.6154  136.7799  156.0706 N   0  0  0  0  0  0  0  0  0  0  0  0
  151.3354  136.9596  155.9564 C   0  0  0  0  0  0  0  0  0  0  0  0
  150.7616  138.2760  155.7140 N   0  0  0  0  0  0  0  0  0  0  0  0
  149.2608  138.4636  155.5929 C   0  0  1  0  0  0  0  0  0  0  0  0
  148.8854  139.6061  156.3049 O   0  0  0  0  0  0  0  0  0  0  0  0
  147.9168  140.3386  155.5617 C   0  0  1  0  0  0  0  0  0  0  0  0
  147.8701  141.8113  156.0059 C   0  0  0  0  0  0  0  0  0  0  0  0
  147.2167  142.5937  155.0289 O   0  0  0  0  0  0  0  0  0  0  0  0
  148.3338  140.1003  154.1041 C   0  0  1  0  0  0  0  0  0  0  0  0
  149.3726  140.9868  153.7203 O   0  0  0  0  0  0  0  0  0  0  0  0
  148.7875  138.6445  154.1339 C   0  0  1  0  0  0  0  0  0  0  0  0
  149.7379  138.3359  153.1284 O   0  0  0  0  0  0  0  0  0  0  0  0
  151.6249  139.4003  155.6179 C   0  0  0  0  0  0  0  0  0  0  0  0
  151.1204  140.5100  155.4449 O   0  0  0  0  0  0  0  0  0  0  0  0
  152.9684  139.2035  155.7334 N   0  5  0  0  0  0  0  0  0  0  0  0
  148.7999  137.6039  156.0810 H   0  0  0  0  0  0  0  0  0  0  0  0
  146.9424  139.8698  155.7131 H   0  0  0  0  0  0  0  0  0  0  0  0
  147.4981  140.2451  153.4188 H   0  0  0  0  0  0  0  0  0  0  0  0
  147.9182  137.9999  153.9969 H   0  0  0  0  0  0  0  0  0  0  0  0
  155.2129  138.6899  155.9529 H   0  0  0  0  0  0  0  0  0  0  0  0
  150.6149  136.1450  156.0373 H   0  0  0  0  0  0  0  0  0  0  0  0
  147.3750  141.9196  156.9715 H   0  0  0  0  0  0  0  0  0  0  0  0
  148.8819  142.2034  156.1120 H   0  0  0  0  0  0  0  0  0  0  0  0
  147.5825  143.4648  155.0480 H   0  0  0  0  0  0  0  0  0  0  0  0
  149.4040  141.0147  152.7760 H   0  0  0  0  0  0  0  0  0  0  0  0
  149.4246  137.5866  152.6446 H   0  0  0  0  0  0  0  0  0  0  0  0
  1  2  2  0  0  0  0
  1 22  1  0  0  0  0
  2 17  1  0  0  0  0
  2  3  1  0  0  0  0
  3  4  2  0  0  0  0
  4  5  1  0  0  0  0
  4 23  1  0  0  0  0
  5  6  1  0  0  0  0
  5 15  1  0  0  0  0
  6 18  1  0  0  0  0
  6 13  1  0  0  0  0
  6  7  1  0  0  0  0
  7  8  1  0  0  0  0
  8 19  1  0  0  0  0
  8  9  1  0  0  0  0
  8 11  1  0  0  0  0
  9 10  1  0  0  0  0
  9 24  1  0  0  0  0
  9 25  1  0  0  0  0
 10 26  1  0  0  0  0
 11 20  1  0  0  0  0
 11 12  1  0  0  0  0
 11 13  1  0  0  0  0
 12 27  1  0  0  0  0
 13 21  1  0  0  0  0
 13 14  1  0  0  0  0
 14 28  1  0  0  0  0
 15 16  2  0  0  0  0
 15 17  1  0  0  0  0
M  CHG  1  17  -1
M  END
> <s_m_source_file>
AV-unprocessed.smi

> <i_m_source_file_index>
72

> <i_lp_mmshare_version>
43012

> <i_f3d_flags>
0

> <s_epik_input>
W05IMl1jMW5bY0hdbihjKD1PKW4xKVtDQEBIXTJPW0NASF0oW0NIMl1bT0hdKVtDQEBIXShbT0hdKVtDQEhdMltPSF0=

> <s_epik_cmdline>
J2VwaWtfcHl0aG9uJywgJy1waCcsICc3LjAnLCAnLXRuJywgJzgnLCAnLW1hJywgJzIwMCcsICctbWV0YWxfYmluZGluZycsICctaW1hZScsICc8aW5maWxlLm1hZT4nLCAnLW9tYWUnLCAnPG91dGZpbGUubWFlPic=

> <r_lp_tautomer_probability>
7.17554e-07

> <r_epik_Ionization_Penalty>
12.8705

> <r_epik_Ionization_Penalty_Charging>
5.64144

> <r_epik_Ionization_Penalty_Neutral>
7.22905

> <r_epik_State_Penalty>
3.30104

> <r_epik_Charging_Adjusted_Penalty>
8.94249

> <i_epik_Tot_Q>
-1

> <i_epik_Tot_abs_Q>
1

> <r_epik_Metal_State_Penalty>
0.529074

> <b_epik_Metal_Only>
1

> <s_epik_Chemistry_Notes>
This compound contains an acetal/aminal-like group ( X-CH(R)-Y where X, Y are N, S, or O) that may be acid/base labile, releasing an aldehyde.

> <s_lp_Force_Field>
OPLS_2005

> <r_lp_Energy>
43.5676

> <b_lp_Chiralities_Consistent>
1

> <s_lp_Variant>
AV-unprocessed.smi:72-68

> <Gold.Version>
5.8.1

> <Gold.Id.Protein>
6NUR|6NUR_protein|mol2

> <Gold.PLP.Fitness>
40.3864

> <Gold.PLP.PLP>
-21.4094

> <Gold.PLP.part.hbond>
-11.0302

> <Gold.PLP.part.metal>
0.0000

> <Gold.PLP.part.buried>
0.6081

> <Gold.PLP.part.nonpolar>
-11.2765

> <Gold.PLP.part.repulsive>
0.0351

> <Gold.PLP.ligand.clash>
0.0000

> <Gold.PLP.ligand.torsion>
0.5943

> <Gold.PLP.Chemscore.Hbond>
6.7200

> <Gold.PLP.Chemscore.CHOScore>
0.0000

> <Gold.PLP.Chemscore.Metal>
0.0000

> <Gold.Chemscore.Hbonds>
donor molecule, donor type, donor heavy atom, donor atom, acceptor molecule, acceptor atom, score
      L1  H    10    26       P1  8028  0.95
      L1  H    12    27       P1  7957  0.96
      L1  H    14    28       P1  7948  1.00
      P1  H  7989  7998       L1    16  0.89
      P1  H  7997  8010       L1    17  1.90
      P1  H 10752 10765       L1     3  0.82

> <Gold.PLP.Chemscore.Internal.Correction>
0.0055

> <Gold.Rescore>
     Score         DG    S(hbond)    S(metal)    S(lipo)     H(rot)  DE(clash)    DE(int)     intcor
      6.84     -11.75       4.34        0.00      18.22       4.04       0.84       4.08       ----

> <Gold.Chemscore.Fitness>
6.8381

> <Gold.Chemscore.DG>
-11.7542

> <Gold.Chemscore.ZeroCoef>
-5.4800

> <Gold.Chemscore.Hbond>
4.3371

> <Gold.Chemscore.Metal>
0.0000

> <Gold.Chemscore.Lipo>
18.2164

> <Gold.Chemscore.Internal_Hbond>
0.0000

> <Gold.Chemscore.DEClash>
0.8380

> <Gold.Chemscore.DEInternal>
4.0782

> <Gold.Chemscore.Rot>
4.0403

> <Gold.Chemscore.Internal.Correction>
   9.000000E+99

> <Gold.Chemscore.Hbonds>
donor molecule, donor type, donor heavy atom, donor atom, acceptor molecule, acceptor atom, score
      L1  H    10    26       P1  8028  0.21
      L1  H    12    27       P1  7957  0.92
      L1  H    14    28       P1  7948  0.77
      P1  H  7989  7998       L1    16  0.25
      P1  H  7997  8010       L1    17  0.22
      P1  H 10752 10765       L1     3  0.39

> <Gold.Chemscore.Hbond.Weighted>
-14.4860

> <Gold.Chemscore.Metal.Weighted>
-0.0000

> <Gold.Chemscore.Lipo.Weighted>
-2.1313

> <Gold.Chemscore.Internal_Hbond.Weighted>
0.0000

> <Gold.Chemscore.DEClash.Weighted>
0.8380

> <Gold.Chemscore.DEInternal.Weighted>
4.0782

> <Gold.Chemscore.Rot.Weighted>
10.3431

> <Gold.Chemscore.Internal.Correction.Weighted>
   9.000000E+99

> <Gold.Protein.RotatedTorsions>
[ 6907 6896 6895 6894 ] final   -0.12 input  -60.11 | X-H torsion
[ 7974 7965 7964 7962 ] final  -53.03 input  175.53 | X-H torsion
[ 8008 7997 7996 7995 ] final   89.94 input   59.86 | X-H torsion
[ 10167 10162 10161 10158 ] final  174.68 input  -65.29 | X-H torsion
[ 10718 10713 10712 10709 ] final  -85.63 input   66.30 | X-H torsion
[ 10763 10752 10751 10750 ] final -162.18 input  -60.55 | X-H torsion
[ 11005 11000 10999 10996 ] final -100.51 input  -57.11 | X-H torsion

> <Gold.Protein.ActiveResidues>
 VAL166  LYS551  ARG553  GLY616  TRP617  ASP618  TYR619  PRO620  LYS621  CYS622 
 ASP623  PHE694  ASN695  SER759  ASP760  ASP761  ALA762  ILE779  LEU786  VAL792 
 PHE793  MET794  SER795  GLU796  ALA797  LYS798  CYS799  TRP800  GLU811  SER814 

> <Gold.Protein.RotatedAtoms>
  151.5674  135.1063  159.9986 H   0  0  0  0  0  0  0  0  0  0  0  0  # atno 6907 bound_to 6896
  152.4417  133.7457  159.6676 H   0  0  0  0  0  0  0  0  0  0  0  0  # atno 6908 bound_to 6896
  150.8324  133.8000  159.3116 H   0  0  0  0  0  0  0  0  0  0  0  0  # atno 6909 bound_to 6896
  145.9014  140.7991  142.9741 H   0  0  0  0  0  0  0  0  0  0  0  0  # atno 7974 bound_to 7965
  156.0060  140.3355  155.6893 H   0  0  0  0  0  0  0  0  0  0  0  0  # atno 8008 bound_to 7997
  155.6224  140.0676  157.2692 H   0  0  0  0  0  0  0  0  0  0  0  0  # atno 8009 bound_to 7997
  154.4265  140.1774  156.1373 H   0  0  0  0  0  0  0  0  0  0  0  0  # atno 8010 bound_to 7997
  139.5150  144.3119  152.0284 H   0  0  0  0  0  0  0  0  0  0  0  0  # atno 10167 bound_to 10162
  155.9995  130.4737  150.4592 H   0  0  0  0  0  0  0  0  0  0  0  0  # atno 10718 bound_to 10713
  154.7237  135.3031  154.9005 H   0  0  0  0  0  0  0  0  0  0  0  0  # atno 10763 bound_to 10752
  153.9869  135.6723  153.4756 H   0  0  0  0  0  0  0  0  0  0  0  0  # atno 10764 bound_to 10752
  153.0856  135.4986  154.8509 H   0  0  0  0  0  0  0  0  0  0  0  0  # atno 10765 bound_to 10752
  141.1268  133.8405  157.1112 H   0  0  0  0  0  0  0  0  0  0  0  0  # atno 11005 bound_to 11000
  144.6736  140.1682  143.7416 LP  0  0  0  0  0  0  0  0  0  0  0  0  # atno 17320 bound_to 7965
  145.8786  139.2311  143.1618 LP  0  0  0  0  0  0  0  0  0  0  0  0  # atno 17321 bound_to 7965
  140.2563  144.4115  150.6202 LP  0  0  0  0  0  0  0  0  0  0  0  0  # atno 17342 bound_to 10162
  140.6189  143.2174  151.6735 LP  0  0  0  0  0  0  0  0  0  0  0  0  # atno 17343 bound_to 10162
  157.2617  131.0568  151.2316 LP  0  0  0  0  0  0  0  0  0  0  0  0  # atno 17370 bound_to 10713
  157.3428  130.7042  149.6392 LP  0  0  0  0  0  0  0  0  0  0  0  0  # atno 17371 bound_to 10713
  140.0274  134.9917  157.0713 LP  0  0  0  0  0  0  0  0  0  0  0  0  # atno 17394 bound_to 11000
  140.4341  134.1750  155.7169 LP  0  0  0  0  0  0  0  0  0  0  0  0  # atno 17395 bound_to 11000

$$$$
