AV-unprocessed.smi:294|AV-procd|sdf|2253|dock3
  -GOLD-   2262022143D 1   1.00000     0.00000
 Structure written by MMmdl.
 29 30  0  0  0  0  0  0  0  0  1 V2000
  141.6474  135.2073  154.1972 N   0  0  0  0  0  0  0  0  0  0  0  0
  142.7080  135.5927  153.9404 C   0  0  0  0  0  0  0  0  0  0  0  0
  144.0396  136.0764  153.6179 C   0  0  0  0  0  0  0  0  0  0  0  0
  145.1575  135.3799  153.9756 N   0  0  0  0  0  0  0  0  0  0  0  0
  146.0777  136.1969  153.4782 C   0  0  0  0  0  0  0  0  0  0  0  0
  145.5743  137.2794  152.8752 N   0  0  0  0  0  0  0  0  0  0  0  0
  146.2414  138.3835  152.2093 C   0  0  0  0  0  0  0  0  0  0  0  0
  147.2403  139.0690  153.1428 C   0  0  0  0  0  0  0  0  0  0  0  0
  146.9592  140.1510  153.6574 O   0  0  0  0  0  0  0  0  0  0  0  0
  148.4016  138.4294  153.3515 N   0  0  0  0  0  0  0  0  0  0  0  0
  149.4748  138.8990  154.2206 C   0  0  1  0  0  0  0  0  0  0  0  0
  149.0554  138.8389  155.7009 C   0  0  0  0  0  0  0  0  0  0  0  0
  150.3080  138.9944  156.5717 C   0  0  0  0  0  0  0  0  0  0  0  0
  151.6850  138.2517  155.6162 S   0  0  0  0  0  0  0  0  0  0  0  0
  152.7390  139.2614  155.4355 O   0  0  0  0  0  0  0  0  0  0  0  0
  151.9964  136.9195  156.1558 O   0  0  0  0  0  0  0  0  0  0  0  0
  150.7498  138.0578  154.0528 C   0  0  0  0  0  0  0  0  0  0  0  0
  144.2224  137.2177  152.9568 N   0  0  0  0  0  0  0  0  0  0  0  0
  147.1379  136.0014  153.5496 H   0  0  0  0  0  0  0  0  0  0  0  0
  146.7548  138.0193  151.3178 H   0  0  0  0  0  0  0  0  0  0  0  0
  145.4868  139.0980  151.8777 H   0  0  0  0  0  0  0  0  0  0  0  0
  148.5445  137.5445  152.8858 H   0  0  0  0  0  0  0  0  0  0  0  0
  149.7094  139.9389  153.9848 H   0  0  0  0  0  0  0  0  0  0  0  0
  148.3051  139.5929  155.9415 H   0  0  0  0  0  0  0  0  0  0  0  0
  148.6069  137.8662  155.9081 H   0  0  0  0  0  0  0  0  0  0  0  0
  150.5400  140.0479  156.7304 H   0  0  0  0  0  0  0  0  0  0  0  0
  150.2156  138.5076  157.5427 H   0  0  0  0  0  0  0  0  0  0  0  0
  150.5143  136.9992  153.9366 H   0  0  0  0  0  0  0  0  0  0  0  0
  151.3610  138.3735  153.2069 H   0  0  0  0  0  0  0  0  0  0  0  0
  1  2  3  0  0  0  0
  2  3  1  0  0  0  0
  3 18  2  0  0  0  0
  3  4  1  0  0  0  0
  4  5  2  0  0  0  0
  5  6  1  0  0  0  0
  5 19  1  0  0  0  0
  6  7  1  0  0  0  0
  6 18  1  0  0  0  0
  7  8  1  0  0  0  0
  7 20  1  0  0  0  0
  7 21  1  0  0  0  0
  8  9  2  0  0  0  0
  8 10  1  0  0  0  0
 10 11  1  0  0  0  0
 10 22  1  0  0  0  0
 11 17  1  0  0  0  0
 11 12  1  0  0  0  0
 11 23  1  0  0  0  0
 12 13  1  0  0  0  0
 12 24  1  0  0  0  0
 12 25  1  0  0  0  0
 13 14  1  0  0  0  0
 13 26  1  0  0  0  0
 13 27  1  0  0  0  0
 14 15  2  0  0  0  0
 14 16  2  0  0  0  0
 14 17  1  0  0  0  0
 17 28  1  0  0  0  0
 17 29  1  0  0  0  0
M  END
> <s_m_source_file>
AV-unprocessed.smi

> <i_m_source_file_index>
294

> <i_lp_mmshare_version>
43012

> <i_f3d_flags>
0

> <s_epik_input>
TiNDYzFuW2NIXW4objEpW0NIMl1DKD1PKVtOSF1bQ0BASF0oW0NIMl0yKVtDSDJdW0NIMl1TMig9Tyk9Tw==

> <s_epik_cmdline>
J2VwaWtfcHl0aG9uJywgJy1waCcsICc3LjAnLCAnLXRuJywgJzgnLCAnLW1hJywgJzIwMCcsICctbWV0YWxfYmluZGluZycsICctaW1hZScsICc8aW5maWxlLm1hZT4nLCAnLW9tYWUnLCAnPG91dGZpbGUubWFlPic=

> <r_lp_tautomer_probability>
1

> <r_epik_Ionization_Penalty>
6.08231e-07

> <r_epik_Ionization_Penalty_Charging>
0

> <r_epik_Ionization_Penalty_Neutral>
6.08231e-07

> <r_epik_State_Penalty>
-0

> <r_epik_Charging_Adjusted_Penalty>
0

> <i_epik_Tot_Q>
0

> <i_epik_Tot_abs_Q>
0

> <r_epik_Metal_State_Penalty>
-0

> <b_epik_Metal_Only>
0

> <s_lp_Force_Field>
OPLS_2005

> <r_lp_Energy>
6.26763

> <b_lp_Chiralities_Consistent>
1

> <s_lp_Variant>
AV-unprocessed.smi:294-2

> <Gold.Version>
5.8.1

> <Gold.Id.Protein>
6NUR|6NUR_protein|mol2

> <Gold.PLP.Fitness>
35.4005

> <Gold.PLP.PLP>
-21.9189

> <Gold.PLP.part.hbond>
-5.0000

> <Gold.PLP.part.metal>
0.0000

> <Gold.PLP.part.buried>
-4.5366

> <Gold.PLP.part.nonpolar>
-14.7316

> <Gold.PLP.part.repulsive>
0.5484

> <Gold.PLP.ligand.clash>
0.0000

> <Gold.PLP.ligand.torsion>
0.3105

> <Gold.PLP.Chemscore.Hbond>
3.7007

> <Gold.PLP.Chemscore.CHOScore>
1.0000

> <Gold.PLP.Chemscore.Metal>
0.0000

> <Gold.Chemscore.Hbonds>
donor molecule, donor type, donor heavy atom, donor atom, acceptor molecule, acceptor atom, score
      L1  H    10    22       P1  7948  1.00
      P1  H  7997  8008       L1    15  0.96
      P1  H 10752 10764       L1    16  0.73
      P1  H 11000 11005       L1     1  0.50
      L1  C     5    19       P1  7948  1.00

> <Gold.PLP.Chemscore.Internal.Correction>
0.0006

> <Gold.Rescore>
     Score         DG    S(hbond)    S(metal)    S(lipo)     H(rot)  DE(clash)    DE(int)     intcor
     14.66     -14.88       3.38        0.00      31.08       2.15       0.01       0.22       ----

> <Gold.Chemscore.Fitness>
14.6598

> <Gold.Chemscore.DG>
-14.8840

> <Gold.Chemscore.ZeroCoef>
-5.4800

> <Gold.Chemscore.Hbond>
3.3783

> <Gold.Chemscore.Metal>
0.0000

> <Gold.Chemscore.Lipo>
31.0779

> <Gold.Chemscore.Internal_Hbond>
0.0000

> <Gold.Chemscore.DEClash>
0.0053

> <Gold.Chemscore.DEInternal>
0.2190

> <Gold.Chemscore.Rot>
2.1546

> <Gold.Chemscore.Internal.Correction>
   9.000000E+99

> <Gold.Chemscore.Hbonds>
donor molecule, donor type, donor heavy atom, donor atom, acceptor molecule, acceptor atom, score
      L1  H    10    22       P1  7948  1.00
      P1  H  7997  8008       L1    15  0.88
      P1  H 10752 10764       L1    16  0.70
      P1  H 11000 11005       L1     1  0.49

> <Gold.Chemscore.Hbond.Weighted>
-11.2837

> <Gold.Chemscore.Metal.Weighted>
-0.0000

> <Gold.Chemscore.Lipo.Weighted>
-3.6361

> <Gold.Chemscore.Internal_Hbond.Weighted>
0.0000

> <Gold.Chemscore.DEClash.Weighted>
0.0053

> <Gold.Chemscore.DEInternal.Weighted>
0.2190

> <Gold.Chemscore.Rot.Weighted>
5.5158

> <Gold.Chemscore.Internal.Correction.Weighted>
   9.000000E+99

> <Gold.Protein.RotatedTorsions>
[ 6907 6896 6895 6894 ] final -174.15 input  -60.11 | X-H torsion
[ 7974 7965 7964 7962 ] final  109.89 input  175.53 | X-H torsion
[ 8008 7997 7996 7995 ] final   -7.81 input   59.86 | X-H torsion
[ 10167 10162 10161 10158 ] final  132.04 input  -65.29 | X-H torsion
[ 10718 10713 10712 10709 ] final  -63.12 input   66.30 | X-H torsion
[ 10763 10752 10751 10750 ] final  -33.59 input  -60.55 | X-H torsion
[ 11005 11000 10999 10996 ] final   15.54 input  -57.11 | X-H torsion

> <Gold.Protein.ActiveResidues>
 VAL166  LYS551  ARG553  GLY616  TRP617  ASP618  TYR619  PRO620  LYS621  CYS622 
 ASP623  PHE694  ASN695  SER759  ASP760  ASP761  ALA762  ILE779  LEU786  VAL792 
 PHE793  MET794  SER795  GLU796  ALA797  LYS798  CYS799  TRP800  GLU811  SER814 

> <Gold.Protein.RotatedAtoms>
  151.5677  133.3394  159.2983 H   0  0  0  0  0  0  0  0  0  0  0  0  # atno 6907 bound_to 6896
  150.8385  134.7671  159.6924 H   0  0  0  0  0  0  0  0  0  0  0  0  # atno 6908 bound_to 6896
  152.4457  134.5506  159.9917 H   0  0  0  0  0  0  0  0  0  0  0  0  # atno 6909 bound_to 6896
  145.2620  139.2699  143.4012 H   0  0  0  0  0  0  0  0  0  0  0  0  # atno 7974 bound_to 7965
  154.5802  140.2397  155.8065 H   0  0  0  0  0  0  0  0  0  0  0  0  # atno 8008 bound_to 7997
  156.2173  140.3008  155.9826 H   0  0  0  0  0  0  0  0  0  0  0  0  # atno 8009 bound_to 7997
  155.2555  140.0412  157.2982 H   0  0  0  0  0  0  0  0  0  0  0  0  # atno 8010 bound_to 7997
  139.5357  144.6680  151.4794 H   0  0  0  0  0  0  0  0  0  0  0  0  # atno 10167 bound_to 10162
  156.0811  130.4217  150.1232 H   0  0  0  0  0  0  0  0  0  0  0  0  # atno 10718 bound_to 10713
  153.8328  135.6864  153.4812 H   0  0  0  0  0  0  0  0  0  0  0  0  # atno 10763 bound_to 10752
  153.1500  135.4622  154.9621 H   0  0  0  0  0  0  0  0  0  0  0  0  # atno 10764 bound_to 10752
  154.7879  135.3291  154.7790 H   0  0  0  0  0  0  0  0  0  0  0  0  # atno 10765 bound_to 10752
  140.4572  134.1164  155.7711 H   0  0  0  0  0  0  0  0  0  0  0  0  # atno 11005 bound_to 11000
  146.3272  140.3039  142.8622 LP  0  0  0  0  0  0  0  0  0  0  0  0  # atno 17320 bound_to 7965
  144.9410  140.8078  143.5630 LP  0  0  0  0  0  0  0  0  0  0  0  0  # atno 17321 bound_to 7965
  140.6562  143.8594  150.6837 LP  0  0  0  0  0  0  0  0  0  0  0  0  # atno 17342 bound_to 10162
  140.1975  143.3986  152.1817 LP  0  0  0  0  0  0  0  0  0  0  0  0  # atno 17343 bound_to 10162
  156.9263  130.9699  151.3540 LP  0  0  0  0  0  0  0  0  0  0  0  0  # atno 17370 bound_to 10713
  157.5928  130.8456  149.8684 LP  0  0  0  0  0  0  0  0  0  0  0  0  # atno 17371 bound_to 10713
  141.1637  133.8743  157.1774 LP  0  0  0  0  0  0  0  0  0  0  0  0  # atno 17394 bound_to 11000
  139.9968  135.0043  157.0101 LP  0  0  0  0  0  0  0  0  0  0  0  0  # atno 17395 bound_to 11000

$$$$
