AV-unprocessed.smi:227|AV-procd|sdf|1736|dock8
  -GOLD-   2262020233D 1   1.00000     0.00000
 Structure written by MMmdl.
 54 58  0  0  0  0  0  0  0  0  1 V2000
  150.6123  140.4552  152.1380 O   0  0  0  0  0  0  0  0  0  0  0  0
  149.6573  140.3481  153.1739 C   0  0  0  0  0  0  0  0  0  0  0  0
  148.3284  139.7256  152.6716 C   0  0  1  0  0  0  0  0  0  0  0  0
  147.5887  138.9346  153.7829 C   0  0  0  0  0  0  0  0  0  0  0  0
  147.3195  137.5506  153.4359 N   0  0  0  0  0  0  0  0  0  0  0  0
  147.8222  136.4366  154.0648 C   0  0  0  0  0  0  0  0  0  0  0  0
  147.4261  135.2964  153.5703 N   0  0  0  0  0  0  0  0  0  0  0  0
  146.5797  135.6447  152.5225 C   0  0  0  0  0  0  0  0  0  0  0  0
  145.7983  134.9162  151.5752 C   0  0  0  0  0  0  0  0  0  0  0  0
  145.7184  133.5580  151.4996 N   0  0  0  0  0  0  0  0  0  0  0  0
  144.5245  132.8303  151.9054 C   0  0  2  0  0  0  0  0  0  0  0  0
  144.9854  131.3653  151.8138 C   0  0  0  0  0  0  0  0  0  0  0  0
  145.9360  131.4228  150.6098 C   0  0  0  0  0  0  0  0  0  0  0  0
  145.8168  132.9032  150.2013 C   0  0  1  0  0  0  0  0  0  0  0  0
  144.4424  133.2070  149.5503 C   0  0  1  0  0  0  0  0  0  0  0  0
  144.0491  132.3315  148.3462 C   0  0  0  0  0  0  0  0  0  0  0  0
  144.1960  133.0662  147.1499 O   0  0  0  0  0  0  0  0  0  0  0  0
  143.5117  133.1029  150.7741 C   0  0  0  0  0  0  0  0  0  0  0  0
  145.0936  135.6412  150.6664 N   0  0  0  0  0  0  0  0  0  0  0  0
  145.1275  136.9758  150.6841 C   0  0  0  0  0  0  0  0  0  0  0  0
  145.7956  137.7811  151.5098 N   0  0  0  0  0  0  0  0  0  0  0  0
  146.5157  137.0653  152.4195 C   0  0  0  0  0  0  0  0  0  0  0  0
  147.4004  140.8116  152.0680 C   0  0  1  0  0  0  0  0  0  0  0  0
  146.8668  141.8315  153.0750 C   0  0  0  0  0  0  0  0  0  0  0  0
  146.8443  143.1625  152.3171 C   0  0  0  0  0  0  0  0  0  0  0  0
  147.1917  142.8399  150.9799 O   0  0  0  0  0  0  0  0  0  0  0  0
  148.0594  141.7219  151.0282 C   0  0  0  0  0  0  0  0  0  0  0  0
  150.2325  140.1135  151.3429 H   0  0  0  0  0  0  0  0  0  0  0  0
  150.0713  139.7650  153.9971 H   0  0  0  0  0  0  0  0  0  0  0  0
  149.5062  141.3570  153.5556 H   0  0  0  0  0  0  0  0  0  0  0  0
  148.5678  139.0285  151.8668 H   0  0  0  0  0  0  0  0  0  0  0  0
  148.1675  138.9553  154.7073 H   0  0  0  0  0  0  0  0  0  0  0  0
  146.6300  139.3992  154.0127 H   0  0  0  0  0  0  0  0  0  0  0  0
  148.4923  136.4975  154.9100 H   0  0  0  0  0  0  0  0  0  0  0  0
  144.1441  133.0621  152.8984 H   0  0  0  0  0  0  0  0  0  0  0  0
  145.5256  131.0677  152.7134 H   0  0  0  0  0  0  0  0  0  0  0  0
  144.1575  130.6702  151.6696 H   0  0  0  0  0  0  0  0  0  0  0  0
  146.9554  131.1980  150.9259 H   0  0  0  0  0  0  0  0  0  0  0  0
  145.6776  130.7198  149.8192 H   0  0  0  0  0  0  0  0  0  0  0  0
  146.6594  133.2270  149.5895 H   0  0  0  0  0  0  0  0  0  0  0  0
  144.4592  134.2456  149.2144 H   0  0  0  0  0  0  0  0  0  0  0  0
  144.6884  131.4502  148.2927 H   0  0  0  0  0  0  0  0  0  0  0  0
  143.0180  131.9859  148.4166 H   0  0  0  0  0  0  0  0  0  0  0  0
  143.4277  132.9284  146.6172 H   0  0  0  0  0  0  0  0  0  0  0  0
  142.7660  132.3118  150.6869 H   0  0  0  0  0  0  0  0  0  0  0  0
  142.9837  134.0437  150.9347 H   0  0  0  0  0  0  0  0  0  0  0  0
  144.5332  137.4686  149.9290 H   0  0  0  0  0  0  0  0  0  0  0  0
  146.5467  140.3274  151.5908 H   0  0  0  0  0  0  0  0  0  0  0  0
  145.8724  141.5530  153.4256 H   0  0  0  0  0  0  0  0  0  0  0  0
  147.5146  141.9155  153.9487 H   0  0  0  0  0  0  0  0  0  0  0  0
  145.8706  143.6510  152.3578 H   0  0  0  0  0  0  0  0  0  0  0  0
  147.5869  143.8492  152.7260 H   0  0  0  0  0  0  0  0  0  0  0  0
  149.0527  142.0417  151.3485 H   0  0  0  0  0  0  0  0  0  0  0  0
  148.1455  141.2538  150.0476 H   0  0  0  0  0  0  0  0  0  0  0  0
  1  2  1  0  0  0  0
  1 28  1  0  0  0  0
  2  3  1  0  0  0  0
  2 29  1  0  0  0  0
  2 30  1  0  0  0  0
  3  4  1  0  0  0  0
  3 23  1  0  0  0  0
  3 31  1  0  0  0  0
  4  5  1  0  0  0  0
  4 32  1  0  0  0  0
  4 33  1  0  0  0  0
  5 22  1  0  0  0  0
  5  6  1  0  0  0  0
  6  7  2  0  0  0  0
  6 34  1  0  0  0  0
  7  8  1  0  0  0  0
  8 22  2  0  0  0  0
  8  9  1  0  0  0  0
  9 10  1  0  0  0  0
  9 19  2  0  0  0  0
 10 14  1  0  0  0  0
 10 11  1  0  0  0  0
 11 18  1  0  0  0  0
 11 12  1  0  0  0  0
 11 35  1  0  0  0  0
 12 13  1  0  0  0  0
 12 36  1  0  0  0  0
 12 37  1  0  0  0  0
 13 14  1  0  0  0  0
 13 38  1  0  0  0  0
 13 39  1  0  0  0  0
 14 15  1  0  0  0  0
 14 40  1  0  0  0  0
 15 16  1  0  0  0  0
 15 18  1  0  0  0  0
 15 41  1  0  0  0  0
 16 17  1  0  0  0  0
 16 42  1  0  0  0  0
 16 43  1  0  0  0  0
 17 44  1  0  0  0  0
 18 45  1  0  0  0  0
 18 46  1  0  0  0  0
 19 20  1  0  0  0  0
 20 21  2  0  0  0  0
 20 47  1  0  0  0  0
 21 22  1  0  0  0  0
 23 27  1  0  0  0  0
 23 24  1  0  0  0  0
 23 48  1  0  0  0  0
 24 25  1  0  0  0  0
 24 49  1  0  0  0  0
 24 50  1  0  0  0  0
 25 26  1  0  0  0  0
 25 51  1  0  0  0  0
 25 52  1  0  0  0  0
 26 27  1  0  0  0  0
 27 53  1  0  0  0  0
 27 54  1  0  0  0  0
M  END
> <s_m_source_file>
AV-unprocessed.smi

> <i_m_source_file_index>
227

> <i_lp_mmshare_version>
43012

> <i_f3d_flags>
0

> <s_epik_input>
W0NIMl0xT1tDSDJdW0NIMl1bQ0BIXTFbQ0BIXShbQ0gyXVtPSF0pW0NIMl1uKFtjSF1uMiljKGMyMyluW2NIXW5jM04oW0NASF00NSlbQ0BASF0oW0NIMl1bQ0gyXTQpW0NASF0oW0NIMl01KVtDSDJdW09IXQ==

> <s_epik_cmdline>
J2VwaWtfcHl0aG9uJywgJy1waCcsICc3LjAnLCAnLXRuJywgJzgnLCAnLW1hJywgJzIwMCcsICctbWV0YWxfYmluZGluZycsICctaW1hZScsICc8aW5maWxlLm1hZT4nLCAnLW9tYWUnLCAnPG91dGZpbGUubWFlPic=

> <r_lp_tautomer_probability>
1

> <r_epik_Ionization_Penalty>
0.0055791

> <r_epik_Ionization_Penalty_Charging>
0

> <r_epik_Ionization_Penalty_Neutral>
0.0055791

> <r_epik_State_Penalty>
0.00401299

> <r_epik_Charging_Adjusted_Penalty>
0.00401299

> <i_epik_Tot_Q>
0

> <i_epik_Tot_abs_Q>
0

> <r_epik_Metal_State_Penalty>
-0

> <b_epik_Metal_Only>
0

> <s_lp_Force_Field>
OPLS_2005

> <r_lp_Energy>
88.8293

> <b_lp_Chiralities_Consistent>
1

> <s_lp_Variant>
AV-unprocessed.smi:227-10

> <Gold.Version>
5.8.1

> <Gold.Id.Protein>
6NUR|6NUR_protein|mol2

> <Gold.PLP.Fitness>
50.2848

> <Gold.PLP.PLP>
-39.7414

> <Gold.PLP.part.hbond>
-5.3864

> <Gold.PLP.part.metal>
0.0000

> <Gold.PLP.part.buried>
-2.6282

> <Gold.PLP.part.nonpolar>
-31.1252

> <Gold.PLP.part.repulsive>
0.7958

> <Gold.PLP.ligand.clash>
0.0000

> <Gold.PLP.ligand.torsion>
2.0674

> <Gold.PLP.Chemscore.Hbond>
3.8640

> <Gold.PLP.Chemscore.CHOScore>
1.0000

> <Gold.PLP.Chemscore.Metal>
0.0000

> <Gold.Chemscore.Hbonds>
donor molecule, donor type, donor heavy atom, donor atom, acceptor molecule, acceptor atom, score
      L1  H    17    44       P1 10195  1.00
      P1  H  7918  7932       L1    17  0.44

> <Gold.PLP.Chemscore.Internal.Correction>
0.0862

> <Gold.Rescore>
     Score         DG    S(hbond)    S(metal)    S(lipo)     H(rot)  DE(clash)    DE(int)     intcor
     10.87     -15.89       2.53        0.00      95.71       3.61       0.35       4.67       ----

> <Gold.Chemscore.Fitness>
10.8738

> <Gold.Chemscore.DG>
-15.8907

> <Gold.Chemscore.ZeroCoef>
-5.4800

> <Gold.Chemscore.Hbond>
2.5290

> <Gold.Chemscore.Metal>
0.0000

> <Gold.Chemscore.Lipo>
95.7084

> <Gold.Chemscore.Internal_Hbond>
0.0000

> <Gold.Chemscore.DEClash>
0.3487

> <Gold.Chemscore.DEInternal>
4.6681

> <Gold.Chemscore.Rot>
3.6071

> <Gold.Chemscore.Internal.Correction>
   9.000000E+99

> <Gold.Chemscore.Hbonds>
donor molecule, donor type, donor heavy atom, donor atom, acceptor molecule, acceptor atom, score
      L1  H    17    44       P1 10195  0.98
      P1  H  7918  7932       L1    17  0.09

> <Gold.Chemscore.Hbond.Weighted>
-8.4470

> <Gold.Chemscore.Metal.Weighted>
-0.0000

> <Gold.Chemscore.Lipo.Weighted>
-11.1979

> <Gold.Chemscore.Internal_Hbond.Weighted>
0.0000

> <Gold.Chemscore.DEClash.Weighted>
0.3487

> <Gold.Chemscore.DEInternal.Weighted>
4.6681

> <Gold.Chemscore.Rot.Weighted>
9.2342

> <Gold.Chemscore.Internal.Correction.Weighted>
   9.000000E+99

> <Gold.Protein.RotatedTorsions>
[ 6907 6896 6895 6894 ] final   20.93 input  -60.11 | X-H torsion
[ 7974 7965 7964 7962 ] final -109.57 input  175.53 | X-H torsion
[ 8008 7997 7996 7995 ] final -122.39 input   59.86 | X-H torsion
[ 10167 10162 10161 10158 ] final   78.97 input  -65.29 | X-H torsion
[ 10718 10713 10712 10709 ] final  103.03 input   66.30 | X-H torsion
[ 10763 10752 10751 10750 ] final  133.62 input  -60.55 | X-H torsion
[ 11005 11000 10999 10996 ] final  -11.59 input  -57.11 | X-H torsion

> <Gold.Protein.ActiveResidues>
 VAL166  LYS551  ARG553  GLY616  TRP617  ASP618  TYR619  PRO620  LYS621  CYS622 
 ASP623  PHE694  ASN695  SER759  ASP760  ASP761  ALA762  ILE779  LEU786  VAL792 
 PHE793  MET794  SER795  GLU796  ALA797  LYS798  CYS799  TRP800  GLU811  SER814 

> <Gold.Protein.RotatedAtoms>
  151.9039  135.0367  160.0508 H   0  0  0  0  0  0  0  0  0  0  0  0  # atno 6907 bound_to 6896
  152.2335  133.5073  159.5238 H   0  0  0  0  0  0  0  0  0  0  0  0  # atno 6908 bound_to 6896
  150.7032  134.1101  159.4039 H   0  0  0  0  0  0  0  0  0  0  0  0  # atno 6909 bound_to 6896
  145.1788  140.8961  143.3492 H   0  0  0  0  0  0  0  0  0  0  0  0  # atno 7974 bound_to 7965
  155.1635  140.0406  157.2847 H   0  0  0  0  0  0  0  0  0  0  0  0  # atno 8008 bound_to 7997
  154.6320  140.2526  155.7396 H   0  0  0  0  0  0  0  0  0  0  0  0  # atno 8009 bound_to 7997
  156.2489  140.2873  156.0675 H   0  0  0  0  0  0  0  0  0  0  0  0  # atno 8010 bound_to 7997
  139.9652  144.5933  150.8035 H   0  0  0  0  0  0  0  0  0  0  0  0  # atno 10167 bound_to 10162
  157.6785  131.0768  150.5493 H   0  0  0  0  0  0  0  0  0  0  0  0  # atno 10718 bound_to 10713
  153.8101  135.3130  155.3400 H   0  0  0  0  0  0  0  0  0  0  0  0  # atno 10763 bound_to 10752
  154.8055  135.4700  154.0384 H   0  0  0  0  0  0  0  0  0  0  0  0  # atno 10764 bound_to 10752
  153.1759  135.6885  153.8632 H   0  0  0  0  0  0  0  0  0  0  0  0  # atno 10765 bound_to 10752
  140.7569  133.8547  155.9091 H   0  0  0  0  0  0  0  0  0  0  0  0  # atno 11005 bound_to 11000
  145.0157  139.3469  143.6097 LP  0  0  0  0  0  0  0  0  0  0  0  0  # atno 17320 bound_to 7965
  146.3456  139.9437  142.8737 LP  0  0  0  0  0  0  0  0  0  0  0  0  # atno 17321 bound_to 7965
  140.7540  143.3019  151.3059 LP  0  0  0  0  0  0  0  0  0  0  0  0  # atno 17342 bound_to 10162
  139.6523  144.0340  152.2635 LP  0  0  0  0  0  0  0  0  0  0  0  0  # atno 17343 bound_to 10162
  156.5798  130.4301  149.5982 LP  0  0  0  0  0  0  0  0  0  0  0  0  # atno 17370 bound_to 10713
  156.2671  130.6995  151.1781 LP  0  0  0  0  0  0  0  0  0  0  0  0  # atno 17371 bound_to 10713
  140.9700  134.1544  157.4584 LP  0  0  0  0  0  0  0  0  0  0  0  0  # atno 17394 bound_to 11000
  139.8777  134.9975  156.5850 LP  0  0  0  0  0  0  0  0  0  0  0  0  # atno 17395 bound_to 11000

$$$$
