AV-unprocessed.smi:2024|AV-procd|sdf|8193|dock7
  -GOLD-   2272010453D 1   1.00000     0.00000
 Structure written by MMmdl.
 43 44  0  0  0  0  0  0  0  0  1 V2000
  152.4807  143.5995  159.7801 C   0  0  0  0  0  0  0  0  0  0  0  0
  152.1920  142.7121  158.6642 N   0  0  0  0  0  0  0  0  0  0  0  0
  151.3098  143.3450  157.6889 C   0  0  0  0  0  0  0  0  0  0  0  0
  151.0218  142.4096  156.5008 C   0  0  0  0  0  0  0  0  0  0  0  0
  150.3996  141.1485  156.9366 N   0  0  0  0  0  0  0  0  0  0  0  0
  149.9678  140.2487  155.8303 C   0  0  0  0  0  0  0  0  0  0  0  0
  151.1536  139.5632  155.1090 C   0  0  0  0  0  0  0  0  0  0  0  0
  149.0441  139.1223  156.3596 C   0  0  0  0  0  0  0  0  0  0  0  0
  149.1558  141.0173  154.7457 C   0  0  0  0  0  0  0  0  0  0  0  0
  148.7354  140.1626  153.6356 N   0  0  0  0  0  0  0  0  0  0  0  0
  147.6796  139.3368  153.6372 C   0  0  0  0  0  0  0  0  0  0  0  0
  146.9291  139.1916  154.6021 O   0  0  0  0  0  0  0  0  0  0  0  0
  147.5574  138.7072  152.4577 N   0  0  0  0  0  0  0  0  0  0  0  0
  146.5709  137.7652  152.0749 C   0  0  0  0  0  0  0  0  0  0  0  0
  146.4878  137.4031  150.7934 N   0  0  0  0  0  0  0  0  0  0  0  0
  145.4693  136.4707  150.5761 C   0  0  0  0  0  0  0  0  0  0  0  0
  144.7804  136.1307  151.7140 C   0  0  0  0  0  0  0  0  0  0  0  0
  145.3850  136.9727  153.1154 S   0  0  0  0  0  0  0  0  0  0  0  0
  151.2865  140.5233  157.9315 C   0  0  0  0  0  0  0  0  0  0  0  0
  151.5764  141.4671  159.1133 C   0  0  0  0  0  0  0  0  0  0  0  0
  152.9591  144.5152  159.4307 H   0  0  0  0  0  0  0  0  0  0  0  0
  153.1576  143.1210  160.4884 H   0  0  0  0  0  0  0  0  0  0  0  0
  151.5690  143.8739  160.3125 H   0  0  0  0  0  0  0  0  0  0  0  0
  150.3703  143.6329  158.1640 H   0  0  0  0  0  0  0  0  0  0  0  0
  151.7674  144.2638  157.3205 H   0  0  0  0  0  0  0  0  0  0  0  0
  150.3714  142.9456  155.8122 H   0  0  0  0  0  0  0  0  0  0  0  0
  151.9523  142.2118  155.9682 H   0  0  0  0  0  0  0  0  0  0  0  0
  150.7992  138.9074  154.3128 H   0  0  0  0  0  0  0  0  0  0  0  0
  151.7456  138.9449  155.7833 H   0  0  0  0  0  0  0  0  0  0  0  0
  151.8257  140.2848  154.6450 H   0  0  0  0  0  0  0  0  0  0  0  0
  148.5747  138.5732  155.5425 H   0  0  0  0  0  0  0  0  0  0  0  0
  148.2440  139.5177  156.9864 H   0  0  0  0  0  0  0  0  0  0  0  0
  149.5878  138.3836  156.9483 H   0  0  0  0  0  0  0  0  0  0  0  0
  148.2598  141.4651  155.1748 H   0  0  0  0  0  0  0  0  0  0  0  0
  149.7304  141.8690  154.3766 H   0  0  0  0  0  0  0  0  0  0  0  0
  149.2862  140.2229  152.7917 H   0  0  0  0  0  0  0  0  0  0  0  0
  148.2463  138.9263  151.7533 H   0  0  0  0  0  0  0  0  0  0  0  0
  145.3024  136.0998  149.5757 H   0  0  0  0  0  0  0  0  0  0  0  0
  143.9572  135.4387  151.8119 H   0  0  0  0  0  0  0  0  0  0  0  0
  150.8377  139.6185  158.3369 H   0  0  0  0  0  0  0  0  0  0  0  0
  152.2299  140.2298  157.4703 H   0  0  0  0  0  0  0  0  0  0  0  0
  152.2368  140.9651  159.8211 H   0  0  0  0  0  0  0  0  0  0  0  0
  150.6493  141.6789  159.6486 H   0  0  0  0  0  0  0  0  0  0  0  0
  1  2  1  0  0  0  0
  1 21  1  0  0  0  0
  1 22  1  0  0  0  0
  1 23  1  0  0  0  0
  2 20  1  0  0  0  0
  2  3  1  0  0  0  0
  3  4  1  0  0  0  0
  3 24  1  0  0  0  0
  3 25  1  0  0  0  0
  4  5  1  0  0  0  0
  4 26  1  0  0  0  0
  4 27  1  0  0  0  0
  5  6  1  0  0  0  0
  5 19  1  0  0  0  0
  6  7  1  0  0  0  0
  6  8  1  0  0  0  0
  6  9  1  0  0  0  0
  7 28  1  0  0  0  0
  7 29  1  0  0  0  0
  7 30  1  0  0  0  0
  8 31  1  0  0  0  0
  8 32  1  0  0  0  0
  8 33  1  0  0  0  0
  9 10  1  0  0  0  0
  9 34  1  0  0  0  0
  9 35  1  0  0  0  0
 10 11  1  0  0  0  0
 10 36  1  0  0  0  0
 11 12  2  0  0  0  0
 11 13  1  0  0  0  0
 13 14  1  0  0  0  0
 13 37  1  0  0  0  0
 14 18  1  0  0  0  0
 14 15  2  0  0  0  0
 15 16  1  0  0  0  0
 16 17  2  0  0  0  0
 16 38  1  0  0  0  0
 17 18  1  0  0  0  0
 17 39  1  0  0  0  0
 19 20  1  0  0  0  0
 19 40  1  0  0  0  0
 19 41  1  0  0  0  0
 20 42  1  0  0  0  0
 20 43  1  0  0  0  0
M  END
> <s_m_source_file>
AV-unprocessed.smi

> <i_m_source_file_index>
2024

> <i_lp_mmshare_version>
43012

> <i_f3d_flags>
0

> <s_epik_input>
W0NIM11OMVtDSDJdW0NIMl1OKFtDSDJdW0NIMl0xKUMoW0NIM10pKFtDSDNdKVtDSDJdW05IXUMoPU8pW05IXWMybltjSF1bY0hdczI=

> <s_epik_cmdline>
J2VwaWtfcHl0aG9uJywgJy1waCcsICc3LjAnLCAnLXRuJywgJzgnLCAnLW1hJywgJzIwMCcsICctbWV0YWxfYmluZGluZycsICctaW1hZScsICc8aW5maWxlLm1hZT4nLCAnLW9tYWUnLCAnPG91dGZpbGUubWFlPic=

> <r_lp_tautomer_probability>
0.999

> <r_epik_Ionization_Penalty>
3.01774

> <r_epik_Ionization_Penalty_Charging>
0

> <r_epik_Ionization_Penalty_Neutral>
3.01774

> <r_epik_State_Penalty>
2.1369

> <r_epik_Charging_Adjusted_Penalty>
2.1369

> <i_epik_Tot_Q>
0

> <i_epik_Tot_abs_Q>
0

> <r_epik_Metal_State_Penalty>
2.1694

> <b_epik_Metal_Only>
0

> <s_lp_Force_Field>
OPLS_2005

> <r_lp_Energy>
47.9803

> <b_lp_Chiralities_Consistent>
1

> <s_lp_Variant>
AV-unprocessed.smi:2024-3

> <Gold.Version>
5.8.1

> <Gold.Id.Protein>
6NUR|6NUR_protein|mol2

> <Gold.PLP.Fitness>
41.6468

> <Gold.PLP.PLP>
-30.2601

> <Gold.PLP.part.hbond>
-4.0000

> <Gold.PLP.part.metal>
0.0000

> <Gold.PLP.part.buried>
0.4314

> <Gold.PLP.part.nonpolar>
-29.5765

> <Gold.PLP.part.repulsive>
2.8699

> <Gold.PLP.ligand.clash>
0.0000

> <Gold.PLP.ligand.torsion>
0.3289

> <Gold.PLP.Chemscore.Hbond>
3.0000

> <Gold.PLP.Chemscore.CHOScore>
1.0000

> <Gold.PLP.Chemscore.Metal>
0.0000

> <Gold.Chemscore.Hbonds>
donor molecule, donor type, donor heavy atom, donor atom, acceptor molecule, acceptor atom, score
      L1  H    10    36       P1  7957  1.00
      L1  H    13    37       P1  7957  1.00
      P1  H  7954  7966       L1    15  1.00
      L1  C    16    38       P1  7921  1.00

> <Gold.PLP.Chemscore.Internal.Correction>
0.0445

> <Gold.Rescore>
     Score         DG    S(hbond)    S(metal)    S(lipo)     H(rot)  DE(clash)    DE(int)     intcor
     15.38     -20.87       2.83        0.00      84.85       1.56       3.23       2.25       ----

> <Gold.Chemscore.Fitness>
15.3842

> <Gold.Chemscore.DG>
-20.8653

> <Gold.Chemscore.ZeroCoef>
-5.4800

> <Gold.Chemscore.Hbond>
2.8316

> <Gold.Chemscore.Metal>
0.0000

> <Gold.Chemscore.Lipo>
84.8506

> <Gold.Chemscore.Internal_Hbond>
0.0000

> <Gold.Chemscore.DEClash>
3.2324

> <Gold.Chemscore.DEInternal>
2.2488

> <Gold.Chemscore.Rot>
1.5624

> <Gold.Chemscore.Internal.Correction>
   9.000000E+99

> <Gold.Chemscore.Hbonds>
donor molecule, donor type, donor heavy atom, donor atom, acceptor molecule, acceptor atom, score
      L1  H    10    36       P1  7957  0.98
      L1  H    13    37       P1  7957  0.83
      P1  H  7954  7966       L1    15  0.72

> <Gold.Chemscore.Hbond.Weighted>
-9.4576

> <Gold.Chemscore.Metal.Weighted>
-0.0000

> <Gold.Chemscore.Lipo.Weighted>
-9.9275

> <Gold.Chemscore.Internal_Hbond.Weighted>
0.0000

> <Gold.Chemscore.DEClash.Weighted>
3.2324

> <Gold.Chemscore.DEInternal.Weighted>
2.2488

> <Gold.Chemscore.Rot.Weighted>
3.9998

> <Gold.Chemscore.Internal.Correction.Weighted>
   9.000000E+99

> <Gold.Protein.RotatedTorsions>
[ 6907 6896 6895 6894 ] final   32.36 input  -60.11 | X-H torsion
[ 7974 7965 7964 7962 ] final    0.19 input  175.53 | X-H torsion
[ 8008 7997 7996 7995 ] final  -99.63 input   59.86 | X-H torsion
[ 10167 10162 10161 10158 ] final  -23.64 input  -65.29 | X-H torsion
[ 10718 10713 10712 10709 ] final  135.35 input   66.30 | X-H torsion
[ 10763 10752 10751 10750 ] final -126.83 input  -60.55 | X-H torsion
[ 11005 11000 10999 10996 ] final   29.87 input  -57.11 | X-H torsion

> <Gold.Protein.ActiveResidues>
 VAL166  LYS551  ARG553  GLY616  TRP617  ASP618  TYR619  PRO620  LYS621  CYS622 
 ASP623  PHE694  ASN695  SER759  ASP760  ASP761  ALA762  ILE779  LEU786  VAL792 
 PHE793  MET794  SER795  GLU796  ALA797  LYS798  CYS799  TRP800  GLU811  SER814 

> <Gold.Protein.RotatedAtoms>
  152.0733  134.9519  160.0574 H   0  0  0  0  0  0  0  0  0  0  0  0  # atno 6907 bound_to 6896
  152.0836  133.4160  159.4520 H   0  0  0  0  0  0  0  0  0  0  0  0  # atno 6908 bound_to 6896
  150.6836  134.2873  159.4695 H   0  0  0  0  0  0  0  0  0  0  0  0  # atno 6909 bound_to 6896
  146.2432  140.1175  142.8341 H   0  0  0  0  0  0  0  0  0  0  0  0  # atno 7974 bound_to 7965
  154.8175  140.0446  157.1387 H   0  0  0  0  0  0  0  0  0  0  0  0  # atno 8008 bound_to 7997
  154.9297  140.3038  155.5154 H   0  0  0  0  0  0  0  0  0  0  0  0  # atno 8009 bound_to 7997
  156.2977  140.2325  156.4356 H   0  0  0  0  0  0  0  0  0  0  0  0  # atno 8010 bound_to 7997
  140.7288  143.4424  151.0637 H   0  0  0  0  0  0  0  0  0  0  0  0  # atno 10167 bound_to 10162
  157.4579  131.1071  150.9955 H   0  0  0  0  0  0  0  0  0  0  0  0  # atno 10718 bound_to 10713
  154.8748  135.3982  154.3495 H   0  0  0  0  0  0  0  0  0  0  0  0  # atno 10763 bound_to 10752
  153.4283  135.7024  153.6253 H   0  0  0  0  0  0  0  0  0  0  0  0  # atno 10764 bound_to 10752
  153.4885  135.3753  155.2449 H   0  0  0  0  0  0  0  0  0  0  0  0  # atno 10765 bound_to 10752
  140.3004  134.2763  155.7755 H   0  0  0  0  0  0  0  0  0  0  0  0  # atno 11005 bound_to 11000
  145.0434  140.8963  143.5039 LP  0  0  0  0  0  0  0  0  0  0  0  0  # atno 17320 bound_to 7965
  145.1260  139.2662  143.5564 LP  0  0  0  0  0  0  0  0  0  0  0  0  # atno 17321 bound_to 7965
  139.8093  143.7974  152.3170 LP  0  0  0  0  0  0  0  0  0  0  0  0  # atno 17342 bound_to 10162
  139.8018  144.7371  150.9815 LP  0  0  0  0  0  0  0  0  0  0  0  0  # atno 17343 bound_to 10162
  157.0763  130.5884  149.5412 LP  0  0  0  0  0  0  0  0  0  0  0  0  # atno 17370 bound_to 10713
  156.0015  130.5095  150.7681 LP  0  0  0  0  0  0  0  0  0  0  0  0  # atno 17371 bound_to 10713
  141.2129  133.7642  156.9758 LP  0  0  0  0  0  0  0  0  0  0  0  0  # atno 17394 bound_to 11000
  140.1114  134.9474  157.2071 LP  0  0  0  0  0  0  0  0  0  0  0  0  # atno 17395 bound_to 11000

$$$$
