AV-unprocessed.smi:928|AV-procd|sdf|4191|dock5
  -GOLD-   22720 2 93D 1   1.00000     0.00000
 Structure written by MMmdl.
 43 44  0  0  0  0  0  0  0  0  1 V2000
  152.2732  143.6410  159.2136 C   0  0  0  0  0  0  0  0  0  0  0  0
  152.4488  142.1351  158.9896 C   0  0  0  0  0  0  0  0  0  0  0  0
  151.6559  141.6168  157.8354 C   0  0  0  0  0  0  0  0  0  0  0  0
  150.7661  142.3089  157.0512 C   0  0  0  0  0  0  0  0  0  0  0  0
  150.1904  141.5407  156.0367 N   0  0  0  0  0  0  0  0  0  0  0  0
  150.6179  140.2759  156.0503 C   0  0  0  0  0  0  0  0  0  0  0  0
  150.1928  139.2505  155.0539 C   0  0  0  0  0  0  0  0  0  0  0  0
  149.0181  139.7322  154.1871 C   0  0  0  0  0  0  0  0  0  0  0  0
  148.3854  138.6296  153.4729 N   0  0  0  0  0  0  0  0  0  0  0  0
  147.0624  138.4469  153.3645 C   0  0  0  0  0  0  0  0  0  0  0  0
  146.2205  139.2023  153.8510 O   0  0  0  0  0  0  0  0  0  0  0  0
  146.7694  137.3436  152.6618 N   0  0  0  0  0  0  0  0  0  0  0  0
  145.4215  136.8652  152.3599 C   0  0  2  0  0  0  0  0  0  0  0  0
  144.9100  136.0848  153.5885 C   0  0  0  0  0  0  0  0  0  0  0  0
  143.5553  135.4111  153.3274 C   0  0  0  0  0  0  0  0  0  0  0  0
  143.6299  134.4891  152.1036 C   0  0  0  0  0  0  0  0  0  0  0  0
  144.0896  135.2700  150.8654 C   0  0  0  0  0  0  0  0  0  0  0  0
  145.4438  135.9677  151.0981 C   0  0  1  0  0  0  0  0  0  0  0  0
  145.7146  136.7514  149.9529 O   0  0  0  0  0  0  0  0  0  0  0  0
  151.7960  139.9560  157.3173 S   0  0  0  0  0  0  0  0  0  0  0  0
  152.8609  143.9776  160.0677 H   0  0  0  0  0  0  0  0  0  0  0  0
  151.2297  143.8897  159.4087 H   0  0  0  0  0  0  0  0  0  0  0  0
  152.5967  144.2108  158.3420 H   0  0  0  0  0  0  0  0  0  0  0  0
  153.5049  141.9147  158.8302 H   0  0  0  0  0  0  0  0  0  0  0  0
  152.1640  141.6011  159.8968 H   0  0  0  0  0  0  0  0  0  0  0  0
  150.4880  143.3488  157.1405 H   0  0  0  0  0  0  0  0  0  0  0  0
  151.0518  139.0045  154.4287 H   0  0  0  0  0  0  0  0  0  0  0  0
  149.9213  138.3366  155.5840 H   0  0  0  0  0  0  0  0  0  0  0  0
  148.2628  140.2058  154.8152 H   0  0  0  0  0  0  0  0  0  0  0  0
  149.3530  140.4912  153.4779 H   0  0  0  0  0  0  0  0  0  0  0  0
  148.9982  137.9560  153.0372 H   0  0  0  0  0  0  0  0  0  0  0  0
  147.5356  136.7937  152.3020 H   0  0  0  0  0  0  0  0  0  0  0  0
  144.7425  137.7038  152.1919 H   0  0  0  0  0  0  0  0  0  0  0  0
  145.6360  135.3194  153.8670 H   0  0  0  0  0  0  0  0  0  0  0  0
  144.8263  136.7541  154.4456 H   0  0  0  0  0  0  0  0  0  0  0  0
  143.2490  134.8408  154.2048 H   0  0  0  0  0  0  0  0  0  0  0  0
  142.7901  136.1723  153.1694 H   0  0  0  0  0  0  0  0  0  0  0  0
  144.3215  133.6687  152.3003 H   0  0  0  0  0  0  0  0  0  0  0  0
  142.6555  134.0366  151.9176 H   0  0  0  0  0  0  0  0  0  0  0  0
  144.1589  134.5962  150.0104 H   0  0  0  0  0  0  0  0  0  0  0  0
  143.3301  136.0115  150.6119 H   0  0  0  0  0  0  0  0  0  0  0  0
  146.2238  135.2109  151.1946 H   0  0  0  0  0  0  0  0  0  0  0  0
  145.0252  137.3904  149.8561 H   0  0  0  0  0  0  0  0  0  0  0  0
  1  2  1  0  0  0  0
  1 21  1  0  0  0  0
  1 22  1  0  0  0  0
  1 23  1  0  0  0  0
  2  3  1  0  0  0  0
  2 24  1  0  0  0  0
  2 25  1  0  0  0  0
  3 20  1  0  0  0  0
  3  4  2  0  0  0  0
  4  5  1  0  0  0  0
  4 26  1  0  0  0  0
  5  6  2  0  0  0  0
  6  7  1  0  0  0  0
  6 20  1  0  0  0  0
  7  8  1  0  0  0  0
  7 27  1  0  0  0  0
  7 28  1  0  0  0  0
  8  9  1  0  0  0  0
  8 29  1  0  0  0  0
  8 30  1  0  0  0  0
  9 10  1  0  0  0  0
  9 31  1  0  0  0  0
 10 11  2  0  0  0  0
 10 12  1  0  0  0  0
 12 13  1  0  0  0  0
 12 32  1  0  0  0  0
 13 18  1  0  0  0  0
 13 14  1  0  0  0  0
 13 33  1  0  0  0  0
 14 15  1  0  0  0  0
 14 34  1  0  0  0  0
 14 35  1  0  0  0  0
 15 16  1  0  0  0  0
 15 36  1  0  0  0  0
 15 37  1  0  0  0  0
 16 17  1  0  0  0  0
 16 38  1  0  0  0  0
 16 39  1  0  0  0  0
 17 18  1  0  0  0  0
 17 40  1  0  0  0  0
 17 41  1  0  0  0  0
 18 19  1  0  0  0  0
 18 42  1  0  0  0  0
 19 43  1  0  0  0  0
M  END
> <s_m_source_file>
AV-unprocessed.smi

> <i_m_source_file_index>
928

> <i_lp_mmshare_version>
43012

> <i_f3d_flags>
0

> <s_epik_input>
W0NIM11bQ0gyXWMxW2NIXW5jKHMxKVtDSDJdW0NIMl1bTkhdQyg9TylbTkhdW0NAQEhdMltDSDJdW0NIMl1bQ0gyXVtDSDJdW0NASF0yW09IXQ==

> <s_epik_cmdline>
J2VwaWtfcHl0aG9uJywgJy1waCcsICc3LjAnLCAnLXRuJywgJzgnLCAnLW1hJywgJzIwMCcsICctbWV0YWxfYmluZGluZycsICctaW1hZScsICc8aW5maWxlLm1hZT4nLCAnLW9tYWUnLCAnPG91dGZpbGUubWFlPic=

> <r_epik_Ionization_Penalty>
0.000957396

> <r_epik_Ionization_Penalty_Charging>
0

> <r_epik_Ionization_Penalty_Neutral>
0.000957396

> <r_epik_State_Penalty>
0.000586538

> <r_epik_Charging_Adjusted_Penalty>
0.000586538

> <i_epik_Tot_Q>
0

> <i_epik_Tot_abs_Q>
0

> <r_epik_Metal_State_Penalty>
-0

> <b_epik_Metal_Only>
0

> <s_lp_Force_Field>
OPLS_2005

> <r_lp_Energy>
-3.08797

> <b_lp_Chiralities_Consistent>
1

> <s_lp_Variant>
AV-unprocessed.smi:928-1

> <Gold.Version>
5.8.1

> <Gold.Id.Protein>
6NUR|6NUR_protein|mol2

> <Gold.PLP.Fitness>
47.2934

> <Gold.PLP.PLP>
-36.8995

> <Gold.PLP.part.hbond>
-5.0113

> <Gold.PLP.part.metal>
0.0000

> <Gold.PLP.part.buried>
-4.6649

> <Gold.PLP.part.nonpolar>
-29.3662

> <Gold.PLP.part.repulsive>
0.3555

> <Gold.PLP.ligand.clash>
0.0000

> <Gold.PLP.ligand.torsion>
0.5858

> <Gold.PLP.Chemscore.Hbond>
2.8406

> <Gold.PLP.Chemscore.CHOScore>
1.0000

> <Gold.PLP.Chemscore.Metal>
0.0000

> <Gold.Chemscore.Hbonds>
donor molecule, donor type, donor heavy atom, donor atom, acceptor molecule, acceptor atom, score
      L1  H     9    31       P1  7948  0.79
      L1  H    12    32       P1  7948  1.00
      L1  H    19    43       P1 10171  1.00
      L1  C     4    26       P1  8028  0.90

> <Gold.PLP.Chemscore.Internal.Correction>
0.0439

> <Gold.Rescore>
     Score         DG    S(hbond)    S(metal)    S(lipo)     H(rot)  DE(clash)    DE(int)     intcor
     19.14     -19.86       2.88        0.00      89.00       2.21       0.18       0.55       ----

> <Gold.Chemscore.Fitness>
19.1370

> <Gold.Chemscore.DG>
-19.8641

> <Gold.Chemscore.ZeroCoef>
-5.4800

> <Gold.Chemscore.Hbond>
2.8817

> <Gold.Chemscore.Metal>
0.0000

> <Gold.Chemscore.Lipo>
88.9975

> <Gold.Chemscore.Internal_Hbond>
0.0000

> <Gold.Chemscore.DEClash>
0.1785

> <Gold.Chemscore.DEInternal>
0.5486

> <Gold.Chemscore.Rot>
2.2084

> <Gold.Chemscore.Internal.Correction>
   9.000000E+99

> <Gold.Chemscore.Hbonds>
donor molecule, donor type, donor heavy atom, donor atom, acceptor molecule, acceptor atom, score
      L1  H     9    31       P1  7948  0.75
      L1  H    12    32       P1  7948  0.97
      L1  H    19    43       P1 10171  1.00

> <Gold.Chemscore.Hbond.Weighted>
-9.6249

> <Gold.Chemscore.Metal.Weighted>
-0.0000

> <Gold.Chemscore.Lipo.Weighted>
-10.4127

> <Gold.Chemscore.Internal_Hbond.Weighted>
0.0000

> <Gold.Chemscore.DEClash.Weighted>
0.1785

> <Gold.Chemscore.DEInternal.Weighted>
0.5486

> <Gold.Chemscore.Rot.Weighted>
5.6535

> <Gold.Chemscore.Internal.Correction.Weighted>
   9.000000E+99

> <Gold.Protein.RotatedTorsions>
[ 6907 6896 6895 6894 ] final -140.92 input  -60.11 | X-H torsion
[ 7974 7965 7964 7962 ] final  128.54 input  175.53 | X-H torsion
[ 8008 7997 7996 7995 ] final -177.29 input   59.86 | X-H torsion
[ 10167 10162 10161 10158 ] final  -11.43 input  -65.29 | X-H torsion
[ 10718 10713 10712 10709 ] final  120.92 input   66.30 | X-H torsion
[ 10763 10752 10751 10750 ] final -159.37 input  -60.55 | X-H torsion
[ 11005 11000 10999 10996 ] final -139.47 input  -57.11 | X-H torsion

> <Gold.Protein.ActiveResidues>
 VAL166  LYS551  ARG553  GLY616  TRP617  ASP618  TYR619  PRO620  LYS621  CYS622 
 ASP623  PHE694  ASN695  SER759  ASP760  ASP761  ALA762  ILE779  LEU786  VAL792 
 PHE793  MET794  SER795  GLU796  ALA797  LYS798  CYS799  TRP800  GLU811  SER814 

> <Gold.Protein.RotatedAtoms>
  151.0671  133.5497  159.2629 H   0  0  0  0  0  0  0  0  0  0  0  0  # atno 6907 bound_to 6896
  151.2450  135.0601  159.9050 H   0  0  0  0  0  0  0  0  0  0  0  0  # atno 6908 bound_to 6896
  152.5406  134.0440  159.8134 H   0  0  0  0  0  0  0  0  0  0  0  0  # atno 6909 bound_to 6896
  145.0385  139.3984  143.5114 H   0  0  0  0  0  0  0  0  0  0  0  0  # atno 7974 bound_to 7965
  156.0052  140.1229  157.0508 H   0  0  0  0  0  0  0  0  0  0  0  0  # atno 8008 bound_to 7997
  154.4256  140.1099  156.5821 H   0  0  0  0  0  0  0  0  0  0  0  0  # atno 8009 bound_to 7997
  155.6157  140.3472  155.4638 H   0  0  0  0  0  0  0  0  0  0  0  0  # atno 8010 bound_to 7997
  140.7138  143.5641  150.9164 H   0  0  0  0  0  0  0  0  0  0  0  0  # atno 10167 bound_to 10162
  157.5856  131.1070  150.8102 H   0  0  0  0  0  0  0  0  0  0  0  0  # atno 10718 bound_to 10713
  154.7480  135.3085  154.8609 H   0  0  0  0  0  0  0  0  0  0  0  0  # atno 10763 bound_to 10752
  153.9404  135.6775  153.4748 H   0  0  0  0  0  0  0  0  0  0  0  0  # atno 10764 bound_to 10752
  153.1077  135.4881  154.8907 H   0  0  0  0  0  0  0  0  0  0  0  0  # atno 10765 bound_to 10752
  140.8516  134.2278  157.4757 H   0  0  0  0  0  0  0  0  0  0  0  0  # atno 11005 bound_to 11000
  146.3507  139.9972  142.8679 LP  0  0  0  0  0  0  0  0  0  0  0  0  # atno 17320 bound_to 7965
  145.1679  140.9706  143.4339 LP  0  0  0  0  0  0  0  0  0  0  0  0  # atno 17321 bound_to 7965
  139.9366  143.6430  152.3064 LP  0  0  0  0  0  0  0  0  0  0  0  0  # atno 17342 bound_to 10162
  139.6900  144.7648  151.1455 LP  0  0  0  0  0  0  0  0  0  0  0  0  # atno 17343 bound_to 10162
  156.8537  130.5089  149.5309 LP  0  0  0  0  0  0  0  0  0  0  0  0  # atno 17370 bound_to 10713
  156.0904  130.5892  150.9723 LP  0  0  0  0  0  0  0  0  0  0  0  0  # atno 17371 bound_to 10713
  139.8704  134.9686  156.4637 LP  0  0  0  0  0  0  0  0  0  0  0  0  # atno 17394 bound_to 11000
  140.8783  133.7936  155.9439 LP  0  0  0  0  0  0  0  0  0  0  0  0  # atno 17395 bound_to 11000

$$$$
