AV-unprocessed.smi:376|AV-procd|sdf|2455|dock8
  -GOLD-   2262022393D 1   1.00000     0.00000
 Structure written by MMmdl.
 32 33  0  0  0  0  0  0  0  0  1 V2000
  146.2546  143.1814  153.7727 C   0  0  0  0  0  0  0  0  0  0  0  0
  146.7083  142.7144  154.8057 C   0  0  0  0  0  0  0  0  0  0  0  0
  147.2442  142.1588  156.0601 C   0  0  0  0  0  0  0  0  0  0  0  0
  148.6942  142.2834  156.1579 N   0  0  0  0  0  0  0  0  0  0  0  0
  149.5488  141.2716  156.3765 C   0  0  0  0  0  0  0  0  0  0  0  0
  149.1870  140.1026  156.5199 O   0  0  0  0  0  0  0  0  0  0  0  0
  151.0356  141.6556  156.4354 C   0  0  0  0  0  0  0  0  0  0  0  0
  151.7171  141.2031  157.6683 N   0  0  0  0  0  0  0  0  0  0  0  0
  151.8149  139.8104  157.9193 C   0  0  0  0  0  0  0  0  0  0  0  0
  151.3664  138.9878  157.1191 O   0  0  0  0  0  0  0  0  0  0  0  0
  152.4595  139.4420  159.1777 C   0  0  0  0  0  0  0  0  0  0  0  0
  152.5478  138.0524  159.4820 C   0  0  0  0  0  0  0  0  0  0  0  0
  152.6366  136.9294  159.7476 N   0  0  0  0  0  0  0  0  0  0  0  0
  152.9424  140.3845  160.0133 C   0  0  0  0  0  0  0  0  0  0  0  0
  152.8720  141.7313  159.7315 N   0  0  0  0  0  0  0  0  0  0  0  0
  153.2496  142.7195  160.7024 C   0  0  0  0  0  0  0  0  0  0  0  0
  152.7655  142.6102  162.1353 C   0  0  0  0  0  0  0  0  0  0  0  0
  152.1974  143.6724  161.2261 C   0  0  0  0  0  0  0  0  0  0  0  0
  152.2057  142.1794  158.5701 C   0  0  0  0  0  0  0  0  0  0  0  0
  152.0433  143.3825  158.3511 O   0  0  0  0  0  0  0  0  0  0  0  0
  145.8598  143.5927  152.8711 H   0  0  0  0  0  0  0  0  0  0  0  0
  146.7880  142.7016  156.8879 H   0  0  0  0  0  0  0  0  0  0  0  0
  146.9278  141.1181  156.1463 H   0  0  0  0  0  0  0  0  0  0  0  0
  149.0779  143.2113  156.0500 H   0  0  0  0  0  0  0  0  0  0  0  0
  151.5297  141.2583  155.5475 H   0  0  0  0  0  0  0  0  0  0  0  0
  151.1188  142.7376  156.3207 H   0  0  0  0  0  0  0  0  0  0  0  0
  153.4073  140.0739  160.9380 H   0  0  0  0  0  0  0  0  0  0  0  0
  154.2450  143.1401  160.5713 H   0  0  0  0  0  0  0  0  0  0  0  0
  152.1122  141.7801  162.3973 H   0  0  0  0  0  0  0  0  0  0  0  0
  153.4476  142.9311  162.9199 H   0  0  0  0  0  0  0  0  0  0  0  0
  152.4987  144.7021  161.4069 H   0  0  0  0  0  0  0  0  0  0  0  0
  151.1715  143.5401  160.8878 H   0  0  0  0  0  0  0  0  0  0  0  0
  1  2  3  0  0  0  0
  1 21  1  0  0  0  0
  2  3  1  0  0  0  0
  3  4  1  0  0  0  0
  3 22  1  0  0  0  0
  3 23  1  0  0  0  0
  4  5  1  0  0  0  0
  4 24  1  0  0  0  0
  5  6  2  0  0  0  0
  5  7  1  0  0  0  0
  7  8  1  0  0  0  0
  7 25  1  0  0  0  0
  7 26  1  0  0  0  0
  8 19  1  0  0  0  0
  8  9  1  0  0  0  0
  9 10  2  0  0  0  0
  9 11  1  0  0  0  0
 11 12  1  0  0  0  0
 11 14  2  0  0  0  0
 12 13  3  0  0  0  0
 14 15  1  0  0  0  0
 14 27  1  0  0  0  0
 15 16  1  0  0  0  0
 15 19  1  0  0  0  0
 16 18  1  0  0  0  0
 16 17  1  0  0  0  0
 16 28  1  0  0  0  0
 17 18  1  0  0  0  0
 17 29  1  0  0  0  0
 17 30  1  0  0  0  0
 18 31  1  0  0  0  0
 18 32  1  0  0  0  0
 19 20  2  0  0  0  0
M  END
> <s_m_source_file>
AV-unprocessed.smi

> <i_m_source_file_index>
376

> <i_lp_mmshare_version>
43012

> <i_f3d_flags>
0

> <s_epik_input>
W0NIXSNDW0NIMl1bTkhdQyg9TylbQ0gyXW4xYyg9TyljKEMjTilbY0hdbihjMT1PKVtDSF0yW0NIMl1bQ0gyXTI=

> <s_epik_cmdline>
J2VwaWtfcHl0aG9uJywgJy1waCcsICc3LjAnLCAnLXRuJywgJzgnLCAnLW1hJywgJzIwMCcsICctbWV0YWxfYmluZGluZycsICctaW1hZScsICc8aW5maWxlLm1hZT4nLCAnLW9tYWUnLCAnPG91dGZpbGUubWFlPic=

> <r_lp_tautomer_probability>
1

> <r_epik_Ionization_Penalty>
1.51832e-07

> <r_epik_Ionization_Penalty_Charging>
6.72035e-11

> <r_epik_Ionization_Penalty_Neutral>
1.51764e-07

> <r_epik_State_Penalty>
-0

> <r_epik_Charging_Adjusted_Penalty>
6.72035e-11

> <i_epik_Tot_Q>
0

> <i_epik_Tot_abs_Q>
0

> <r_epik_Metal_State_Penalty>
-0

> <b_epik_Metal_Only>
0

> <s_lp_Force_Field>
OPLS_2005

> <r_lp_Energy>
28.1194

> <b_lp_Chiralities_Consistent>
1

> <s_lp_Variant>
AV-unprocessed.smi:376-1

> <Gold.Version>
5.8.1

> <Gold.Id.Protein>
6NUR|6NUR_protein|mol2

> <Gold.PLP.Fitness>
47.0338

> <Gold.PLP.PLP>
-41.2216

> <Gold.PLP.part.hbond>
-2.0000

> <Gold.PLP.part.metal>
0.0000

> <Gold.PLP.part.buried>
-5.8982

> <Gold.PLP.part.nonpolar>
-33.2910

> <Gold.PLP.part.repulsive>
0.0749

> <Gold.PLP.ligand.clash>
0.0000

> <Gold.PLP.ligand.torsion>
0.1856

> <Gold.PLP.Chemscore.Hbond>
1.9913

> <Gold.PLP.Chemscore.CHOScore>
0.0000

> <Gold.PLP.Chemscore.Metal>
0.0000

> <Gold.Chemscore.Hbonds>
donor molecule, donor type, donor heavy atom, donor atom, acceptor molecule, acceptor atom, score
      L1  H     4    24       P1  8028  0.98
      P1  H  6896  6909       L1    13  1.00

> <Gold.PLP.Chemscore.Internal.Correction>
0.2096

> <Gold.Rescore>
     Score         DG    S(hbond)    S(metal)    S(lipo)     H(rot)  DE(clash)    DE(int)     intcor
     13.25     -15.29       1.96        0.00      70.08       1.92       0.00       2.04       ----

> <Gold.Chemscore.Fitness>
13.2536

> <Gold.Chemscore.DG>
-15.2945

> <Gold.Chemscore.ZeroCoef>
-5.4800

> <Gold.Chemscore.Hbond>
1.9555

> <Gold.Chemscore.Metal>
0.0000

> <Gold.Chemscore.Lipo>
70.0765

> <Gold.Chemscore.Internal_Hbond>
0.0000

> <Gold.Chemscore.DEClash>
0.0013

> <Gold.Chemscore.DEInternal>
2.0396

> <Gold.Chemscore.Rot>
1.9202

> <Gold.Chemscore.Internal.Correction>
   9.000000E+99

> <Gold.Chemscore.Hbonds>
donor molecule, donor type, donor heavy atom, donor atom, acceptor molecule, acceptor atom, score
      L1  H     4    24       P1  8028  0.90
      P1  H  6896  6909       L1    13  0.97

> <Gold.Chemscore.Hbond.Weighted>
-6.5313

> <Gold.Chemscore.Metal.Weighted>
-0.0000

> <Gold.Chemscore.Lipo.Weighted>
-8.1989

> <Gold.Chemscore.Internal_Hbond.Weighted>
0.0000

> <Gold.Chemscore.DEClash.Weighted>
0.0013

> <Gold.Chemscore.DEInternal.Weighted>
2.0396

> <Gold.Chemscore.Rot.Weighted>
4.9158

> <Gold.Chemscore.Internal.Correction.Weighted>
   9.000000E+99

> <Gold.Protein.RotatedTorsions>
[ 6907 6896 6895 6894 ] final  148.48 input  -60.11 | X-H torsion
[ 7974 7965 7964 7962 ] final  -69.35 input  175.53 | X-H torsion
[ 8008 7997 7996 7995 ] final  -90.44 input   59.86 | X-H torsion
[ 10167 10162 10161 10158 ] final   68.56 input  -65.29 | X-H torsion
[ 10718 10713 10712 10709 ] final -110.57 input   66.30 | X-H torsion
[ 10763 10752 10751 10750 ] final   76.09 input  -60.55 | X-H torsion
[ 11005 11000 10999 10996 ] final  126.97 input  -57.11 | X-H torsion

> <Gold.Protein.ActiveResidues>
 VAL166  LYS551  ARG553  GLY616  TRP617  ASP618  TYR619  PRO620  LYS621  CYS622 
 ASP623  PHE694  ASN695  SER759  ASP760  ASP761  ALA762  ILE779  LEU786  VAL792 
 PHE793  MET794  SER795  GLU796  ALA797  LYS798  CYS799  TRP800  GLU811  SER814 

> <Gold.Protein.RotatedAtoms>
  152.1409  133.4463  159.4766 H   0  0  0  0  0  0  0  0  0  0  0  0  # atno 6907 bound_to 6896
  150.6886  134.2306  159.4442 H   0  0  0  0  0  0  0  0  0  0  0  0  # atno 6908 bound_to 6896
  152.0196  134.9829  160.0621 H   0  0  0  0  0  0  0  0  0  0  0  0  # atno 6909 bound_to 6896
  145.7049  140.9102  143.0711 H   0  0  0  0  0  0  0  0  0  0  0  0  # atno 7974 bound_to 7965
  154.6986  140.0530  157.0436 H   0  0  0  0  0  0  0  0  0  0  0  0  # atno 8008 bound_to 7997
  155.0716  140.3200  155.4610 H   0  0  0  0  0  0  0  0  0  0  0  0  # atno 8009 bound_to 7997
  156.2752  140.2081  156.5843 H   0  0  0  0  0  0  0  0  0  0  0  0  # atno 8010 bound_to 7997
  140.0774  144.5100  150.7185 H   0  0  0  0  0  0  0  0  0  0  0  0  # atno 10167 bound_to 10162
  156.0598  130.5822  150.8255 H   0  0  0  0  0  0  0  0  0  0  0  0  # atno 10718 bound_to 10713
  153.0701  135.4964  154.8286 H   0  0  0  0  0  0  0  0  0  0  0  0  # atno 10763 bound_to 10752
  154.7010  135.3001  154.9343 H   0  0  0  0  0  0  0  0  0  0  0  0  # atno 10764 bound_to 10752
  154.0067  135.6759  153.4815 H   0  0  0  0  0  0  0  0  0  0  0  0  # atno 10765 bound_to 10752
  139.9483  134.9626  156.8785 H   0  0  0  0  0  0  0  0  0  0  0  0  # atno 11005 bound_to 11000
  144.6958  139.8997  143.7458 LP  0  0  0  0  0  0  0  0  0  0  0  0  # atno 17320 bound_to 7965
  146.0765  139.3753  143.0491 LP  0  0  0  0  0  0  0  0  0  0  0  0  # atno 17321 bound_to 7965
  140.7095  143.2494  151.4624 LP  0  0  0  0  0  0  0  0  0  0  0  0  # atno 17342 bound_to 10162
  139.5800  144.1732  152.1955 LP  0  0  0  0  0  0  0  0  0  0  0  0  # atno 17343 bound_to 10162
  157.5597  131.0945  150.9576 LP  0  0  0  0  0  0  0  0  0  0  0  0  # atno 17370 bound_to 10713
  156.9817  130.5529  149.5297 LP  0  0  0  0  0  0  0  0  0  0  0  0  # atno 17371 bound_to 10713
  140.5781  134.0379  155.7454 LP  0  0  0  0  0  0  0  0  0  0  0  0  # atno 17394 bound_to 11000
  141.1139  133.9571  157.2858 LP  0  0  0  0  0  0  0  0  0  0  0  0  # atno 17395 bound_to 11000

$$$$
