AV-unprocessed.smi:2809|AV-procd|sdf|10825|dock6
  -GOLD-   2272015263D 1   1.00000     0.00000
 Structure written by MMmdl.
 44 45  0  0  0  0  0  0  0  0  1 V2000
  153.1982  143.4859  162.4853 C   0  0  0  0  0  0  0  0  0  0  0  0
  152.2044  143.6008  161.3241 C   0  0  0  0  0  0  0  0  0  0  0  0
  152.3659  142.4783  160.3167 C   0  0  0  0  0  0  0  0  0  0  0  0
  151.5366  142.4184  159.1789 C   0  0  0  0  0  0  0  0  0  0  0  0
  151.6931  141.3765  158.2448 C   0  0  0  0  0  0  0  0  0  0  0  0
  152.6765  140.3831  158.4281 C   0  0  0  0  0  0  0  0  0  0  0  0
  152.7620  139.4030  157.4631 O   0  0  0  0  0  0  0  0  0  0  0  0
  152.3451  139.7193  156.1414 C   0  0  0  0  0  0  0  0  0  0  0  0
  152.8846  138.6460  155.1836 C   0  0  2  0  0  0  0  0  0  0  0  0
  154.1186  139.1181  154.6809 O   0  0  0  0  0  0  0  0  0  0  0  0
  151.9272  138.3918  153.9971 C   0  0  0  0  0  0  0  0  0  0  0  0
  150.6110  137.9022  154.4387 N   0  0  0  0  0  0  0  0  0  0  0  0
  149.5054  138.7006  154.1040 C   0  0  0  0  0  0  0  0  0  0  0  0
  148.3023  138.3714  154.4444 N   0  0  0  0  0  0  0  0  0  0  0  0
  148.0784  137.1931  155.1623 C   0  0  0  0  0  0  0  0  0  0  0  0
  146.6297  136.9041  155.5133 C   0  0  0  0  0  0  0  0  0  0  0  0
  149.1061  136.3722  155.5121 C   0  0  0  0  0  0  0  0  0  0  0  0
  148.9220  135.0742  156.2889 C   0  0  0  0  0  0  0  0  0  0  0  0
  150.4810  136.7324  155.1294 C   0  0  0  0  0  0  0  0  0  0  0  0
  151.4574  136.0324  155.4053 O   0  0  0  0  0  0  0  0  0  0  0  0
  153.5071  140.4481  159.5752 C   0  0  0  0  0  0  0  0  0  0  0  0
  153.3505  141.4891  160.5108 C   0  0  0  0  0  0  0  0  0  0  0  0
  153.0617  144.3020  163.1950 H   0  0  0  0  0  0  0  0  0  0  0  0
  154.2277  143.5235  162.1281 H   0  0  0  0  0  0  0  0  0  0  0  0
  153.0652  142.5489  163.0269 H   0  0  0  0  0  0  0  0  0  0  0  0
  151.1837  143.5906  161.7081 H   0  0  0  0  0  0  0  0  0  0  0  0
  152.3333  144.5601  160.8214 H   0  0  0  0  0  0  0  0  0  0  0  0
  150.7791  143.1713  159.0177 H   0  0  0  0  0  0  0  0  0  0  0  0
  151.0520  141.3402  157.3760 H   0  0  0  0  0  0  0  0  0  0  0  0
  151.2565  139.7652  156.0779 H   0  0  0  0  0  0  0  0  0  0  0  0
  152.7437  140.6966  155.8631 H   0  0  0  0  0  0  0  0  0  0  0  0
  153.0675  137.7312  155.7488 H   0  0  0  0  0  0  0  0  0  0  0  0
  154.1961  138.8538  153.7771 H   0  0  0  0  0  0  0  0  0  0  0  0
  151.7718  139.3217  153.4469 H   0  0  0  0  0  0  0  0  0  0  0  0
  152.3930  137.7289  153.2646 H   0  0  0  0  0  0  0  0  0  0  0  0
  149.7329  139.6066  153.5396 H   0  0  0  0  0  0  0  0  0  0  0  0
  146.4993  136.8697  156.5952 H   0  0  0  0  0  0  0  0  0  0  0  0
  146.3176  135.9476  155.0937 H   0  0  0  0  0  0  0  0  0  0  0  0
  145.9642  137.6739  155.1205 H   0  0  0  0  0  0  0  0  0  0  0  0
  149.2637  134.2283  155.6916 H   0  0  0  0  0  0  0  0  0  0  0  0
  147.8870  134.8833  156.5674 H   0  0  0  0  0  0  0  0  0  0  0  0
  149.5081  135.0985  157.2080 H   0  0  0  0  0  0  0  0  0  0  0  0
  154.2726  139.7105  159.7615 H   0  0  0  0  0  0  0  0  0  0  0  0
  153.9919  141.5273  161.3791 H   0  0  0  0  0  0  0  0  0  0  0  0
  1  2  1  0  0  0  0
  1 23  1  0  0  0  0
  1 24  1  0  0  0  0
  1 25  1  0  0  0  0
  2  3  1  0  0  0  0
  2 26  1  0  0  0  0
  2 27  1  0  0  0  0
  3 22  1  0  0  0  0
  3  4  2  0  0  0  0
  4  5  1  0  0  0  0
  4 28  1  0  0  0  0
  5  6  2  0  0  0  0
  5 29  1  0  0  0  0
  6  7  1  0  0  0  0
  6 21  1  0  0  0  0
  7  8  1  0  0  0  0
  8  9  1  0  0  0  0
  8 30  1  0  0  0  0
  8 31  1  0  0  0  0
  9 10  1  0  0  0  0
  9 11  1  0  0  0  0
  9 32  1  0  0  0  0
 10 33  1  0  0  0  0
 11 12  1  0  0  0  0
 11 34  1  0  0  0  0
 11 35  1  0  0  0  0
 12 19  1  0  0  0  0
 12 13  1  0  0  0  0
 13 14  2  0  0  0  0
 13 36  1  0  0  0  0
 14 15  1  0  0  0  0
 15 16  1  0  0  0  0
 15 17  2  0  0  0  0
 16 37  1  0  0  0  0
 16 38  1  0  0  0  0
 16 39  1  0  0  0  0
 17 18  1  0  0  0  0
 17 19  1  0  0  0  0
 18 40  1  0  0  0  0
 18 41  1  0  0  0  0
 18 42  1  0  0  0  0
 19 20  2  0  0  0  0
 21 22  2  0  0  0  0
 21 43  1  0  0  0  0
 22 44  1  0  0  0  0
M  END
> <s_m_source_file>
AV-unprocessed.smi

> <i_m_source_file_index>
2809

> <i_lp_mmshare_version>
43012

> <i_f3d_flags>
0

> <s_epik_input>
W0NIM11bQ0gyXWMxW2NIXVtjSF1jKFtjSF1bY0hdMSlPW0NIMl1bQ0BIXShbT0hdKVtDSDJdbjJbY0hdbmMoW0NIM10pYyhbQ0gzXSljMj1P

> <s_epik_cmdline>
J2VwaWtfcHl0aG9uJywgJy1waCcsICc3LjAnLCAnLXRuJywgJzgnLCAnLW1hJywgJzIwMCcsICctbWV0YWxfYmluZGluZycsICctaW1hZScsICc8aW5maWxlLm1hZT4nLCAnLW9tYWUnLCAnPG91dGZpbGUubWFlPic=

> <r_lp_tautomer_probability>
1

> <r_epik_Ionization_Penalty>
3.74127e-05

> <r_epik_Ionization_Penalty_Charging>
8.43242e-08

> <r_epik_Ionization_Penalty_Neutral>
3.73284e-05

> <r_epik_State_Penalty>
-0

> <r_epik_Charging_Adjusted_Penalty>
8.43242e-08

> <i_epik_Tot_Q>
0

> <i_epik_Tot_abs_Q>
0

> <r_epik_Metal_State_Penalty>
-0

> <b_epik_Metal_Only>
0

> <s_lp_Force_Field>
OPLS_2005

> <r_lp_Energy>
22.1893

> <b_lp_Chiralities_Consistent>
1

> <s_lp_Variant>
AV-unprocessed.smi:2809-1

> <Gold.Version>
5.8.1

> <Gold.Id.Protein>
6NUR|6NUR_protein|mol2

> <Gold.PLP.Fitness>
47.0117

> <Gold.PLP.PLP>
-39.5081

> <Gold.PLP.part.hbond>
-2.7752

> <Gold.PLP.part.metal>
0.0000

> <Gold.PLP.part.buried>
-4.2298

> <Gold.PLP.part.nonpolar>
-31.5415

> <Gold.PLP.part.repulsive>
0.2464

> <Gold.PLP.ligand.clash>
0.0000

> <Gold.PLP.ligand.torsion>
0.8628

> <Gold.PLP.Chemscore.Hbond>
2.0383

> <Gold.PLP.Chemscore.CHOScore>
0.9999

> <Gold.PLP.Chemscore.Metal>
0.0000

> <Gold.Chemscore.Hbonds>
donor molecule, donor type, donor heavy atom, donor atom, acceptor molecule, acceptor atom, score
      P1  H  7997  8008       L1     7  0.06
      P1  H  7997  8009       L1    10  0.96
      P1  H 10752 10765       L1    20  1.00
      L1  C    13    36       P1  7957  1.00

> <Gold.PLP.Chemscore.Internal.Correction>
0.1143

> <Gold.Rescore>
     Score         DG    S(hbond)    S(metal)    S(lipo)     H(rot)  DE(clash)    DE(int)     intcor
     15.09     -17.35       1.85        0.00     102.63       2.47       0.23       2.03       ----

> <Gold.Chemscore.Fitness>
15.0876

> <Gold.Chemscore.DG>
-17.3499

> <Gold.Chemscore.ZeroCoef>
-5.4800

> <Gold.Chemscore.Hbond>
1.8484

> <Gold.Chemscore.Metal>
0.0000

> <Gold.Chemscore.Lipo>
102.6346

> <Gold.Chemscore.Internal_Hbond>
0.0000

> <Gold.Chemscore.DEClash>
0.2295

> <Gold.Chemscore.DEInternal>
2.0329

> <Gold.Chemscore.Rot>
2.4657

> <Gold.Chemscore.Internal.Correction>
   9.000000E+99

> <Gold.Chemscore.Hbonds>
donor molecule, donor type, donor heavy atom, donor atom, acceptor molecule, acceptor atom, score
      P1  H  7997  8009       L1    10  0.76
      P1  H 10752 10765       L1    20  1.00

> <Gold.Chemscore.Hbond.Weighted>
-6.1738

> <Gold.Chemscore.Metal.Weighted>
-0.0000

> <Gold.Chemscore.Lipo.Weighted>
-12.0083

> <Gold.Chemscore.Internal_Hbond.Weighted>
0.0000

> <Gold.Chemscore.DEClash.Weighted>
0.2295

> <Gold.Chemscore.DEInternal.Weighted>
2.0329

> <Gold.Chemscore.Rot.Weighted>
6.3121

> <Gold.Chemscore.Internal.Correction.Weighted>
   9.000000E+99

> <Gold.Protein.RotatedTorsions>
[ 6907 6896 6895 6894 ] final -161.42 input  -60.11 | X-H torsion
[ 7974 7965 7964 7962 ] final  107.09 input  175.53 | X-H torsion
[ 8008 7997 7996 7995 ] final -109.55 input   59.86 | X-H torsion
[ 10167 10162 10161 10158 ] final  -43.45 input  -65.29 | X-H torsion
[ 10718 10713 10712 10709 ] final   24.67 input   66.30 | X-H torsion
[ 10763 10752 10751 10750 ] final -174.44 input  -60.55 | X-H torsion
[ 11005 11000 10999 10996 ] final  -40.71 input  -57.11 | X-H torsion

> <Gold.Protein.ActiveResidues>
 VAL166  LYS551  ARG553  GLY616  TRP617  ASP618  TYR619  PRO620  LYS621  CYS622 
 ASP623  PHE694  ASN695  SER759  ASP760  ASP761  ALA762  ILE779  LEU786  VAL792 
 PHE793  MET794  SER795  GLU796  ALA797  LYS798  CYS799  TRP800  GLU811  SER814 

> <Gold.Protein.RotatedAtoms>
  151.3643  133.3878  159.2692 H   0  0  0  0  0  0  0  0  0  0  0  0  # atno 6907 bound_to 6896
  150.9701  134.9076  159.7793 H   0  0  0  0  0  0  0  0  0  0  0  0  # atno 6908 bound_to 6896
  152.5181  134.3605  159.9335 H   0  0  0  0  0  0  0  0  0  0  0  0  # atno 6909 bound_to 6896
  145.2982  139.2578  143.3828 H   0  0  0  0  0  0  0  0  0  0  0  0  # atno 7974 bound_to 7965
  154.9611  140.0399  157.2190 H   0  0  0  0  0  0  0  0  0  0  0  0  # atno 8008 bound_to 7997
  154.7888  140.2832  155.5985 H   0  0  0  0  0  0  0  0  0  0  0  0  # atno 8009 bound_to 7997
  156.2947  140.2577  156.2731 H   0  0  0  0  0  0  0  0  0  0  0  0  # atno 8010 bound_to 7997
  140.6933  143.2982  151.3354 H   0  0  0  0  0  0  0  0  0  0  0  0  # atno 10167 bound_to 10162
  157.1829  130.6811  149.6120 H   0  0  0  0  0  0  0  0  0  0  0  0  # atno 10718 bound_to 10713
  154.5962  135.2850  155.0584 H   0  0  0  0  0  0  0  0  0  0  0  0  # atno 10763 bound_to 10752
  154.1866  135.6448  153.5052 H   0  0  0  0  0  0  0  0  0  0  0  0  # atno 10764 bound_to 10752
  153.0139  135.5436  154.6665 H   0  0  0  0  0  0  0  0  0  0  0  0  # atno 10765 bound_to 10752
  141.0194  133.6870  156.2359 H   0  0  0  0  0  0  0  0  0  0  0  0  # atno 11005 bound_to 11000
  146.3161  140.3489  142.8654 LP  0  0  0  0  0  0  0  0  0  0  0  0  # atno 17320 bound_to 7965
  144.9116  140.7763  143.5804 LP  0  0  0  0  0  0  0  0  0  0  0  0  # atno 17321 bound_to 7965
  139.6360  144.0630  152.2516 LP  0  0  0  0  0  0  0  0  0  0  0  0  # atno 17342 bound_to 10162
  140.0120  144.6217  150.7639 LP  0  0  0  0  0  0  0  0  0  0  0  0  # atno 17343 bound_to 10162
  155.9722  130.4640  150.6204 LP  0  0  0  0  0  0  0  0  0  0  0  0  # atno 17370 bound_to 10713
  157.3935  131.0799  151.1373 LP  0  0  0  0  0  0  0  0  0  0  0  0  # atno 17371 bound_to 10713
  140.6598  134.4979  157.5582 LP  0  0  0  0  0  0  0  0  0  0  0  0  # atno 17394 bound_to 11000
  139.9137  134.8291  156.1439 LP  0  0  0  0  0  0  0  0  0  0  0  0  # atno 17395 bound_to 11000

$$$$
