AV-unprocessed.smi:2742|AV-procd|sdf|10565|dock7
  -GOLD-   2272015 13D 1   1.00000     0.00000
 Structure written by MMmdl.
 37 38  0  0  0  0  0  0  0  0  1 V2000
  143.8630  145.5441  154.0370 C   0  0  0  0  0  0  0  0  0  0  0  0
  145.0751  144.6508  153.0272 S   0  0  0  0  0  0  0  0  0  0  0  0
  145.8337  143.5721  154.2768 C   0  0  1  0  0  0  0  0  0  0  0  0
  144.7466  142.9191  155.1486 C   0  0  0  0  0  0  0  0  0  0  0  0
  145.3570  141.9838  156.2039 C   0  0  0  0  0  0  0  0  0  0  0  0
  146.2404  140.9088  155.5493 C   0  0  0  0  0  0  0  0  0  0  0  0
  147.3359  141.5252  154.6541 C   0  0  2  0  0  0  0  0  0  0  0  0
  148.3541  142.2070  155.4524 N   0  0  0  0  0  0  0  0  0  0  0  0
  149.2647  141.6054  156.2313 C   0  0  0  0  0  0  0  0  0  0  0  0
  149.3514  140.3838  156.3512 O   0  0  0  0  0  0  0  0  0  0  0  0
  150.0527  142.5103  156.8374 N   0  0  0  0  0  0  0  0  0  0  0  0
  151.1334  142.3050  157.7395 C   0  0  0  0  0  0  0  0  0  0  0  0
  151.6469  141.0357  158.1027 C   0  0  0  0  0  0  0  0  0  0  0  0
  152.7159  140.9765  159.0192 C   0  0  0  0  0  0  0  0  0  0  0  0
  153.2777  142.0683  159.5796 N   0  0  0  0  0  0  0  0  0  0  0  0
  152.7791  143.2756  159.2404 C   0  0  0  0  0  0  0  0  0  0  0  0
  151.7133  143.4460  158.3341 C   0  0  0  0  0  0  0  0  0  0  0  0
  151.2586  144.6883  158.0403 F   0  0  0  0  0  0  0  0  0  0  0  0
  146.7265  142.4961  153.6231 C   0  0  0  0  0  0  0  0  0  0  0  0
  143.2734  146.2098  153.4068 H   0  0  0  0  0  0  0  0  0  0  0  0
  144.3580  146.1453  154.7988 H   0  0  0  0  0  0  0  0  0  0  0  0
  143.1857  144.8453  154.5277 H   0  0  0  0  0  0  0  0  0  0  0  0
  146.4467  144.2060  154.9188 H   0  0  0  0  0  0  0  0  0  0  0  0
  144.1524  143.6889  155.6420 H   0  0  0  0  0  0  0  0  0  0  0  0
  144.0583  142.3544  154.5182 H   0  0  0  0  0  0  0  0  0  0  0  0
  145.9466  142.5658  156.9130 H   0  0  0  0  0  0  0  0  0  0  0  0
  144.5636  141.5085  156.7813 H   0  0  0  0  0  0  0  0  0  0  0  0
  146.6843  140.2714  156.3150 H   0  0  0  0  0  0  0  0  0  0  0  0
  145.6117  140.2556  154.9429 H   0  0  0  0  0  0  0  0  0  0  0  0
  147.8231  140.7208  154.1001 H   0  0  0  0  0  0  0  0  0  0  0  0
  148.3587  143.2156  155.4113 H   0  0  0  0  0  0  0  0  0  0  0  0
  149.8848  143.4744  156.5899 H   0  0  0  0  0  0  0  0  0  0  0  0
  151.2458  140.1134  157.7133 H   0  0  0  0  0  0  0  0  0  0  0  0
  153.1282  140.0229  159.3143 H   0  0  0  0  0  0  0  0  0  0  0  0
  153.2419  144.1326  159.7067 H   0  0  0  0  0  0  0  0  0  0  0  0
  146.1304  141.9246  152.9104 H   0  0  0  0  0  0  0  0  0  0  0  0
  147.5242  142.9608  153.0433 H   0  0  0  0  0  0  0  0  0  0  0  0
  1  2  1  0  0  0  0
  1 20  1  0  0  0  0
  1 21  1  0  0  0  0
  1 22  1  0  0  0  0
  2  3  1  0  0  0  0
  3 19  1  0  0  0  0
  3  4  1  0  0  0  0
  3 23  1  0  0  0  0
  4  5  1  0  0  0  0
  4 24  1  0  0  0  0
  4 25  1  0  0  0  0
  5  6  1  0  0  0  0
  5 26  1  0  0  0  0
  5 27  1  0  0  0  0
  6  7  1  0  0  0  0
  6 28  1  0  0  0  0
  6 29  1  0  0  0  0
  7  8  1  0  0  0  0
  7 19  1  0  0  0  0
  7 30  1  0  0  0  0
  8  9  1  0  0  0  0
  8 31  1  0  0  0  0
  9 10  2  0  0  0  0
  9 11  1  0  0  0  0
 11 12  1  0  0  0  0
 11 32  1  0  0  0  0
 12 17  1  0  0  0  0
 12 13  2  0  0  0  0
 13 14  1  0  0  0  0
 13 33  1  0  0  0  0
 14 15  2  0  0  0  0
 14 34  1  0  0  0  0
 15 16  1  0  0  0  0
 16 17  2  0  0  0  0
 16 35  1  0  0  0  0
 17 18  1  0  0  0  0
 19 36  1  0  0  0  0
 19 37  1  0  0  0  0
M  END
> <s_m_source_file>
AV-unprocessed.smi

> <i_m_source_file_index>
2742

> <i_lp_mmshare_version>
43012

> <i_f3d_flags>
0

> <s_epik_input>
W0NIM11TW0NAQEhdMVtDSDJdW0NIMl1bQ0gyXVtDQEhdKFtDSDJdMSlbTkhdQyg9TylbTkhdYzJbY0hdW2NIXW5bY0hdYzJG

> <s_epik_cmdline>
J2VwaWtfcHl0aG9uJywgJy1waCcsICc3LjAnLCAnLXRuJywgJzgnLCAnLW1hJywgJzIwMCcsICctbWV0YWxfYmluZGluZycsICctaW1hZScsICc8aW5maWxlLm1hZT4nLCAnLW9tYWUnLCAnPG91dGZpbGUubWFlPic=

> <r_epik_Ionization_Penalty>
0.00344009

> <r_epik_Ionization_Penalty_Charging>
0

> <r_epik_Ionization_Penalty_Neutral>
0.00344009

> <r_epik_State_Penalty>
0.0024078

> <r_epik_Charging_Adjusted_Penalty>
0.0024078

> <i_epik_Tot_Q>
0

> <i_epik_Tot_abs_Q>
0

> <r_epik_Metal_State_Penalty>
-0

> <b_epik_Metal_Only>
0

> <s_lp_Force_Field>
OPLS_2005

> <r_lp_Energy>
13.9364

> <b_lp_Chiralities_Consistent>
1

> <s_lp_Variant>
AV-unprocessed.smi:2742-4

> <Gold.Version>
5.8.1

> <Gold.Id.Protein>
6NUR|6NUR_protein|mol2

> <Gold.PLP.Fitness>
44.2403

> <Gold.PLP.PLP>
-38.7003

> <Gold.PLP.part.hbond>
-2.0000

> <Gold.PLP.part.metal>
0.0000

> <Gold.PLP.part.buried>
-6.9932

> <Gold.PLP.part.nonpolar>
-30.3513

> <Gold.PLP.part.repulsive>
0.1556

> <Gold.PLP.ligand.clash>
0.0000

> <Gold.PLP.ligand.torsion>
0.2353

> <Gold.PLP.Chemscore.Hbond>
2.0000

> <Gold.PLP.Chemscore.CHOScore>
0.0000

> <Gold.PLP.Chemscore.Metal>
0.0000

> <Gold.Chemscore.Hbonds>
donor molecule, donor type, donor heavy atom, donor atom, acceptor molecule, acceptor atom, score
      L1  H     8    31       P1  8028  1.00
      L1  H    11    32       P1  8028  0.99

> <Gold.PLP.Chemscore.Internal.Correction>
0.0108

> <Gold.Rescore>
     Score         DG    S(hbond)    S(metal)    S(lipo)     H(rot)  DE(clash)    DE(int)     intcor
     17.25     -18.76       1.83        0.00      87.11       1.19       0.25       1.25       ----

> <Gold.Chemscore.Fitness>
17.2538

> <Gold.Chemscore.DG>
-18.7556

> <Gold.Chemscore.ZeroCoef>
-5.4800

> <Gold.Chemscore.Hbond>
1.8335

> <Gold.Chemscore.Metal>
0.0000

> <Gold.Chemscore.Lipo>
87.1085

> <Gold.Chemscore.Internal_Hbond>
0.0000

> <Gold.Chemscore.DEClash>
0.2503

> <Gold.Chemscore.DEInternal>
1.2515

> <Gold.Chemscore.Rot>
1.1875

> <Gold.Chemscore.Internal.Correction>
   9.000000E+99

> <Gold.Chemscore.Hbonds>
donor molecule, donor type, donor heavy atom, donor atom, acceptor molecule, acceptor atom, score
      L1  H     8    31       P1  8028  0.96
      L1  H    11    32       P1  8028  0.94

> <Gold.Chemscore.Hbond.Weighted>
-6.1239

> <Gold.Chemscore.Metal.Weighted>
-0.0000

> <Gold.Chemscore.Lipo.Weighted>
-10.1917

> <Gold.Chemscore.Internal_Hbond.Weighted>
0.0000

> <Gold.Chemscore.DEClash.Weighted>
0.2503

> <Gold.Chemscore.DEInternal.Weighted>
1.2515

> <Gold.Chemscore.Rot.Weighted>
3.0400

> <Gold.Chemscore.Internal.Correction.Weighted>
   9.000000E+99

> <Gold.Protein.RotatedTorsions>
[ 6907 6896 6895 6894 ] final -128.34 input  -60.11 | X-H torsion
[ 7974 7965 7964 7962 ] final   -3.69 input  175.53 | X-H torsion
[ 8008 7997 7996 7995 ] final  -98.28 input   59.86 | X-H torsion
[ 10167 10162 10161 10158 ] final  123.87 input  -65.29 | X-H torsion
[ 10718 10713 10712 10709 ] final   38.18 input   66.30 | X-H torsion
[ 10763 10752 10751 10750 ] final -127.38 input  -60.55 | X-H torsion
[ 11005 11000 10999 10996 ] final  -62.91 input  -57.11 | X-H torsion

> <Gold.Protein.ActiveResidues>
 VAL166  LYS551  ARG553  GLY616  TRP617  ASP618  TYR619  PRO620  LYS621  CYS622 
 ASP623  PHE694  ASN695  SER759  ASP760  ASP761  ALA762  ILE779  LEU786  VAL792 
 PHE793  MET794  SER795  GLU796  ALA797  LYS798  CYS799  TRP800  GLU811  SER814 

> <Gold.Protein.RotatedAtoms>
  150.9168  133.6929  159.2841 H   0  0  0  0  0  0  0  0  0  0  0  0  # atno 6907 bound_to 6896
  151.4397  135.1017  159.9676 H   0  0  0  0  0  0  0  0  0  0  0  0  # atno 6908 bound_to 6896
  152.4959  133.8579  159.7290 H   0  0  0  0  0  0  0  0  0  0  0  0  # atno 6909 bound_to 6896
  146.2385  140.1759  142.8332 H   0  0  0  0  0  0  0  0  0  0  0  0  # atno 7974 bound_to 7965
  154.7990  140.0456  157.1259 H   0  0  0  0  0  0  0  0  0  0  0  0  # atno 8008 bound_to 7997
  154.9501  140.3064  155.5059 H   0  0  0  0  0  0  0  0  0  0  0  0  # atno 8009 bound_to 7997
  156.2959  140.2289  156.4577 H   0  0  0  0  0  0  0  0  0  0  0  0  # atno 8010 bound_to 7997
  139.5774  144.6970  151.3617 H   0  0  0  0  0  0  0  0  0  0  0  0  # atno 10167 bound_to 10162
  157.3558  130.7623  149.7011 H   0  0  0  0  0  0  0  0  0  0  0  0  # atno 10718 bound_to 10713
  154.8752  135.3964  154.3584 H   0  0  0  0  0  0  0  0  0  0  0  0  # atno 10763 bound_to 10752
  153.4360  135.7026  153.6205 H   0  0  0  0  0  0  0  0  0  0  0  0  # atno 10764 bound_to 10752
  153.4806  135.3770  155.2410 H   0  0  0  0  0  0  0  0  0  0  0  0  # atno 10765 bound_to 10752
  141.1376  133.6645  156.5600 H   0  0  0  0  0  0  0  0  0  0  0  0  # atno 11005 bound_to 11000
  144.9973  140.8601  143.5303 LP  0  0  0  0  0  0  0  0  0  0  0  0  # atno 17320 bound_to 7965
  145.1774  139.2370  143.5310 LP  0  0  0  0  0  0  0  0  0  0  0  0  # atno 17321 bound_to 7965
  140.7056  143.7523  150.7476 LP  0  0  0  0  0  0  0  0  0  0  0  0  # atno 17342 bound_to 10162
  140.1046  143.4755  152.2405 LP  0  0  0  0  0  0  0  0  0  0  0  0  # atno 17343 bound_to 10162
  155.9729  130.4128  150.4048 LP  0  0  0  0  0  0  0  0  0  0  0  0  # atno 17370 bound_to 10713
  157.2118  131.0462  151.2595 LP  0  0  0  0  0  0  0  0  0  0  0  0  # atno 17371 bound_to 10713
  140.3996  134.7368  157.4771 LP  0  0  0  0  0  0  0  0  0  0  0  0  # atno 17394 bound_to 11000
  140.0506  134.6136  155.8866 LP  0  0  0  0  0  0  0  0  0  0  0  0  # atno 17395 bound_to 11000

$$$$
