AV-unprocessed.smi:220|AV-procd|sdf|1685|dock9
  -GOLD-   2262020123D 1   1.00000     0.00000
 Structure written by MMmdl.
 51 55  0  0  0  0  0  0  0  0  1 V2000
  153.8553  140.4708  160.6078 N   0  0  0  0  0  0  0  0  0  0  0  0
  153.3804  140.5968  159.3665 C   0  0  0  0  0  0  0  0  0  0  0  0
  153.7235  139.8455  158.4550 O   0  0  0  0  0  0  0  0  0  0  0  0
  152.3888  141.7462  159.1172 C   0  0  1  0  0  0  0  0  0  0  0  0
  153.0643  143.1248  159.2973 C   0  0  2  0  0  0  0  0  0  0  0  0
  152.7671  143.8040  160.6438 C   0  0  0  0  0  0  0  0  0  0  0  0
  151.5882  144.7376  160.3664 C   0  0  0  0  0  0  0  0  0  0  0  0
  151.8279  145.2278  158.9383 C   0  0  0  0  0  0  0  0  0  0  0  0
  152.4629  144.0325  158.2133 C   0  0  2  0  0  0  0  0  0  0  0  0
  151.4686  143.1434  157.4612 C   0  0  0  0  0  0  0  0  0  0  0  0
  151.8758  141.7772  157.7458 N   0  0  0  0  0  0  0  0  0  0  0  0
  151.0153  140.8218  157.3033 C   0  0  0  0  0  0  0  0  0  0  0  0
  149.6757  140.9620  157.4939 N   0  0  0  0  0  0  0  0  0  0  0  0
  148.8273  140.0323  157.0466 C   0  0  0  0  0  0  0  0  0  0  0  0
  149.0984  138.9037  156.3898 N   0  0  0  0  0  0  0  0  0  0  0  0
  150.4397  138.7534  156.1967 C   0  0  0  0  0  0  0  0  0  0  0  0
  151.4578  139.6543  156.6197 C   0  0  0  0  0  0  0  0  0  0  0  0
  152.7051  139.1588  156.2588 N   0  0  0  0  0  0  0  0  0  0  0  0
  152.4394  138.0365  155.6487 C   0  0  0  0  0  0  0  0  0  0  0  0
  151.1024  137.7220  155.5532 N   0  0  0  0  0  0  0  0  0  0  0  0
  150.5262  136.5446  154.9215 C   0  0  0  0  0  0  0  0  0  0  0  0
  150.3687  135.3443  155.8769 C   0  0  0  0  0  0  0  0  0  0  0  0
  149.5197  135.7365  157.0990 C   0  0  0  0  0  0  0  0  0  0  0  0
  149.5760  134.7452  158.1045 O   0  0  0  0  0  0  0  0  0  0  0  0
  149.9603  134.0162  155.2232 C   0  0  0  0  0  0  0  0  0  0  0  0
  151.0495  133.3066  155.8495 O   0  0  0  0  0  0  0  0  0  0  0  0
  151.6532  134.5694  156.2021 C   0  0  0  0  0  0  0  0  0  0  0  0
  154.5054  139.7287  160.8218 H   0  0  0  0  0  0  0  0  0  0  0  0
  153.5600  141.1137  161.3280 H   0  0  0  0  0  0  0  0  0  0  0  0
  151.5458  141.6629  159.8068 H   0  0  0  0  0  0  0  0  0  0  0  0
  154.1437  143.0519  159.1497 H   0  0  0  0  0  0  0  0  0  0  0  0
  152.5626  143.0956  161.4472 H   0  0  0  0  0  0  0  0  0  0  0  0
  153.6309  144.3973  160.9470 H   0  0  0  0  0  0  0  0  0  0  0  0
  150.6549  144.1748  160.4104 H   0  0  0  0  0  0  0  0  0  0  0  0
  151.5198  145.5543  161.0855 H   0  0  0  0  0  0  0  0  0  0  0  0
  150.9179  145.5885  158.4577 H   0  0  0  0  0  0  0  0  0  0  0  0
  152.5370  146.0564  158.9578 H   0  0  0  0  0  0  0  0  0  0  0  0
  153.2425  144.3667  157.5270 H   0  0  0  0  0  0  0  0  0  0  0  0
  150.4485  143.2975  157.8186 H   0  0  0  0  0  0  0  0  0  0  0  0
  151.4865  143.3665  156.3947 H   0  0  0  0  0  0  0  0  0  0  0  0
  147.7818  140.2214  157.2405 H   0  0  0  0  0  0  0  0  0  0  0  0
  153.2189  137.4063  155.2475 H   0  0  0  0  0  0  0  0  0  0  0  0
  149.5583  136.8335  154.5099 H   0  0  0  0  0  0  0  0  0  0  0  0
  151.1383  136.2768  154.0597 H   0  0  0  0  0  0  0  0  0  0  0  0
  149.8344  136.6911  157.5205 H   0  0  0  0  0  0  0  0  0  0  0  0
  148.4743  135.8630  156.8160 H   0  0  0  0  0  0  0  0  0  0  0  0
  149.4290  133.9016  157.7046 H   0  0  0  0  0  0  0  0  0  0  0  0
  148.9822  133.6486  155.5356 H   0  0  0  0  0  0  0  0  0  0  0  0
  150.0508  134.0051  154.1364 H   0  0  0  0  0  0  0  0  0  0  0  0
  152.4946  134.8117  155.5507 H   0  0  0  0  0  0  0  0  0  0  0  0
  151.9490  134.6143  157.2509 H   0  0  0  0  0  0  0  0  0  0  0  0
  1  2  1  0  0  0  0
  1 28  1  0  0  0  0
  1 29  1  0  0  0  0
  2  3  2  0  0  0  0
  2  4  1  0  0  0  0
  4 11  1  0  0  0  0
  4  5  1  0  0  0  0
  4 30  1  0  0  0  0
  5  9  1  0  0  0  0
  5  6  1  0  0  0  0
  5 31  1  0  0  0  0
  6  7  1  0  0  0  0
  6 32  1  0  0  0  0
  6 33  1  0  0  0  0
  7  8  1  0  0  0  0
  7 34  1  0  0  0  0
  7 35  1  0  0  0  0
  8  9  1  0  0  0  0
  8 36  1  0  0  0  0
  8 37  1  0  0  0  0
  9 10  1  0  0  0  0
  9 38  1  0  0  0  0
 10 11  1  0  0  0  0
 10 39  1  0  0  0  0
 10 40  1  0  0  0  0
 11 12  1  0  0  0  0
 12 17  1  0  0  0  0
 12 13  2  0  0  0  0
 13 14  1  0  0  0  0
 14 15  2  0  0  0  0
 14 41  1  0  0  0  0
 15 16  1  0  0  0  0
 16 20  1  0  0  0  0
 16 17  2  0  0  0  0
 17 18  1  0  0  0  0
 18 19  2  0  0  0  0
 19 20  1  0  0  0  0
 19 42  1  0  0  0  0
 20 21  1  0  0  0  0
 21 22  1  0  0  0  0
 21 43  1  0  0  0  0
 21 44  1  0  0  0  0
 22 27  1  0  0  0  0
 22 23  1  0  0  0  0
 22 25  1  0  0  0  0
 23 24  1  0  0  0  0
 23 45  1  0  0  0  0
 23 46  1  0  0  0  0
 24 47  1  0  0  0  0
 25 26  1  0  0  0  0
 25 48  1  0  0  0  0
 25 49  1  0  0  0  0
 26 27  1  0  0  0  0
 27 50  1  0  0  0  0
 27 51  1  0  0  0  0
M  END
> <s_m_source_file>
AV-unprocessed.smi

> <i_m_source_file_index>
220

> <i_lp_mmshare_version>
43012

> <i_f3d_flags>
0

> <s_epik_input>
W0NIMl0xW0NIMl1bQ0gyXVtDQEhdKFtDQEhdMTIpW0NIMl1OKFtDQEBIXTJDKD1PKVtOSDJdKWMobltjSF1uMyljKGMzNCluW2NIXW40W0NIMl1DNShbQ0gyXVtPSF0pW0NIMl1PW0NIMl01

> <s_epik_cmdline>
J2VwaWtfcHl0aG9uJywgJy1waCcsICc3LjAnLCAnLXRuJywgJzgnLCAnLW1hJywgJzIwMCcsICctbWV0YWxfYmluZGluZycsICctaW1hZScsICc8aW5maWxlLm1hZT4nLCAnLW9tYWUnLCAnPG91dGZpbGUubWFlPic=

> <r_lp_tautomer_probability>
1

> <r_epik_Ionization_Penalty>
0.00118987

> <r_epik_Ionization_Penalty_Charging>
0

> <r_epik_Ionization_Penalty_Neutral>
0.00118987

> <r_epik_State_Penalty>
0.000654261

> <r_epik_Charging_Adjusted_Penalty>
0.000654261

> <i_epik_Tot_Q>
0

> <i_epik_Tot_abs_Q>
0

> <r_epik_Metal_State_Penalty>
-0

> <b_epik_Metal_Only>
0

> <s_lp_Force_Field>
OPLS_2005

> <r_lp_Energy>
59.1601

> <b_lp_Chiralities_Consistent>
1

> <s_lp_Variant>
AV-unprocessed.smi:220-4

> <Gold.Version>
5.8.1

> <Gold.Id.Protein>
6NUR|6NUR_protein|mol2

> <Gold.PLP.Fitness>
47.3322

> <Gold.PLP.PLP>
-43.0603

> <Gold.PLP.part.hbond>
-3.0000

> <Gold.PLP.part.metal>
0.0000

> <Gold.PLP.part.buried>
-5.9050

> <Gold.PLP.part.nonpolar>
-33.4654

> <Gold.PLP.part.repulsive>
0.1115

> <Gold.PLP.ligand.clash>
0.0000

> <Gold.PLP.ligand.torsion>
1.2288

> <Gold.PLP.Chemscore.Hbond>
2.0744

> <Gold.PLP.Chemscore.CHOScore>
0.0000

> <Gold.PLP.Chemscore.Metal>
0.0000

> <Gold.Chemscore.Hbonds>
donor molecule, donor type, donor heavy atom, donor atom, acceptor molecule, acceptor atom, score
      P1  H  6896  6909       L1    24  1.00
      P1  H  7997  8008       L1     3  0.14
      P1  H  7997  8009       L1    18  1.00

> <Gold.PLP.Chemscore.Internal.Correction>
0.5064

> <Gold.Rescore>
     Score         DG    S(hbond)    S(metal)    S(lipo)     H(rot)  DE(clash)    DE(int)     intcor
     11.60     -15.77       1.70        0.00     111.01       3.27       0.11       4.06       ----

> <Gold.Chemscore.Fitness>
11.5965

> <Gold.Chemscore.DG>
-15.7675

> <Gold.Chemscore.ZeroCoef>
-5.4800

> <Gold.Chemscore.Hbond>
1.6980

> <Gold.Chemscore.Metal>
0.0000

> <Gold.Chemscore.Lipo>
111.0104

> <Gold.Chemscore.Internal_Hbond>
0.0000

> <Gold.Chemscore.DEClash>
0.1133

> <Gold.Chemscore.DEInternal>
4.0578

> <Gold.Chemscore.Rot>
3.2703

> <Gold.Chemscore.Internal.Correction>
   9.000000E+99

> <Gold.Chemscore.Hbonds>
donor molecule, donor type, donor heavy atom, donor atom, acceptor molecule, acceptor atom, score
      P1  H  6896  6909       L1    24  0.44
      P1  H  7997  8008       L1     3  0.15
      P1  H  7997  8009       L1    18  0.95

> <Gold.Chemscore.Hbond.Weighted>
-5.6714

> <Gold.Chemscore.Metal.Weighted>
-0.0000

> <Gold.Chemscore.Lipo.Weighted>
-12.9882

> <Gold.Chemscore.Internal_Hbond.Weighted>
0.0000

> <Gold.Chemscore.DEClash.Weighted>
0.1133

> <Gold.Chemscore.DEInternal.Weighted>
4.0578

> <Gold.Chemscore.Rot.Weighted>
8.3721

> <Gold.Chemscore.Internal.Correction.Weighted>
   9.000000E+99

> <Gold.Protein.RotatedTorsions>
[ 6907 6896 6895 6894 ] final   38.21 input  -60.11 | X-H torsion
[ 7974 7965 7964 7962 ] final -111.13 input  175.53 | X-H torsion
[ 8008 7997 7996 7995 ] final -145.78 input   59.86 | X-H torsion
[ 10167 10162 10161 10158 ] final  -85.60 input  -65.29 | X-H torsion
[ 10718 10713 10712 10709 ] final   45.66 input   66.30 | X-H torsion
[ 10763 10752 10751 10750 ] final  119.60 input  -60.55 | X-H torsion
[ 11005 11000 10999 10996 ] final   59.50 input  -57.11 | X-H torsion

> <Gold.Protein.ActiveResidues>
 VAL166  LYS551  ARG553  GLY616  TRP617  ASP618  TYR619  PRO620  LYS621  CYS622 
 ASP623  PHE694  ASN695  SER759  ASP760  ASP761  ALA762  ILE779  LEU786  VAL792 
 PHE793  MET794  SER795  GLU796  ALA797  LYS798  CYS799  TRP800  GLU811  SER814 

> <Gold.Protein.RotatedAtoms>
  152.1535  134.8969  160.0546 H   0  0  0  0  0  0  0  0  0  0  0  0  # atno 6907 bound_to 6896
  151.9992  133.3814  159.4183 H   0  0  0  0  0  0  0  0  0  0  0  0  # atno 6908 bound_to 6896
  150.6878  134.3774  159.5063 H   0  0  0  0  0  0  0  0  0  0  0  0  # atno 6909 bound_to 6896
  145.1598  140.8872  143.3597 H   0  0  0  0  0  0  0  0  0  0  0  0  # atno 7974 bound_to 7965
  155.5487  140.0614  157.2854 H   0  0  0  0  0  0  0  0  0  0  0  0  # atno 8008 bound_to 7997
  154.4428  140.1906  156.0709 H   0  0  0  0  0  0  0  0  0  0  0  0  # atno 8009 bound_to 7997
  156.0532  140.3281  155.7379 H   0  0  0  0  0  0  0  0  0  0  0  0  # atno 8010 bound_to 7997
  140.4022  143.2658  151.9128 H   0  0  0  0  0  0  0  0  0  0  0  0  # atno 10167 bound_to 10162
  157.4399  130.8075  149.7683 H   0  0  0  0  0  0  0  0  0  0  0  0  # atno 10718 bound_to 10713
  153.5856  135.3475  155.2891 H   0  0  0  0  0  0  0  0  0  0  0  0  # atno 10763 bound_to 10752
  154.8661  135.4192  154.2572 H   0  0  0  0  0  0  0  0  0  0  0  0  # atno 10764 bound_to 10752
  153.3368  135.7047  153.6971 H   0  0  0  0  0  0  0  0  0  0  0  0  # atno 10765 bound_to 10752
  140.0300  134.6027  155.9520 H   0  0  0  0  0  0  0  0  0  0  0  0  # atno 11005 bound_to 11000
  145.0343  139.3314  143.6009 LP  0  0  0  0  0  0  0  0  0  0  0  0  # atno 17320 bound_to 7965
  146.3484  139.9692  142.8708 LP  0  0  0  0  0  0  0  0  0  0  0  0  # atno 17321 bound_to 7965
  139.4784  144.5622  151.8220 LP  0  0  0  0  0  0  0  0  0  0  0  0  # atno 17342 bound_to 10162
  140.4728  144.1562  150.5920 LP  0  0  0  0  0  0  0  0  0  0  0  0  # atno 17343 bound_to 10162
  155.9944  130.3918  150.2859 LP  0  0  0  0  0  0  0  0  0  0  0  0  # atno 17370 bound_to 10713
  157.1022  131.0199  151.3081 LP  0  0  0  0  0  0  0  0  0  0  0  0  # atno 17371 bound_to 10713
  141.1825  133.6549  156.5079 LP  0  0  0  0  0  0  0  0  0  0  0  0  # atno 17394 bound_to 11000
  140.4242  134.7160  157.4907 LP  0  0  0  0  0  0  0  0  0  0  0  0  # atno 17395 bound_to 11000

$$$$
