AV-unprocessed.smi:2817|AV-procd|sdf|10847|dock7
  -GOLD-   2272015293D 1   1.00000     0.00000
 Structure written by MMmdl.
 42 44  0  0  0  0  0  0  0  0  1 V2000
  151.4638  139.4854  157.3139 O   0  0  0  0  0  0  0  0  0  0  0  0
  151.6383  140.6668  157.6133 C   0  0  0  0  0  0  0  0  0  0  0  0
  152.2971  141.0766  158.8537 C   0  0  0  0  0  0  0  0  0  0  0  0
  152.4662  142.3877  159.1492 C   0  0  0  0  0  0  0  0  0  0  0  0
  153.1257  142.8439  160.4434 C   0  0  0  0  0  0  0  0  0  0  0  0
  153.3429  141.7570  161.5091 C   0  0  0  0  0  0  0  0  0  0  0  0
  152.9691  142.8054  162.5628 C   0  0  0  0  0  0  0  0  0  0  0  0
  152.2095  143.5485  161.4582 C   0  0  0  0  0  0  0  0  0  0  0  0
  152.0035  143.3794  158.2765 N   0  0  0  0  0  0  0  0  0  0  0  0
  151.4177  143.0429  157.1718 C   0  0  0  0  0  0  0  0  0  0  0  0
  151.2265  141.6945  156.8151 N   0  0  0  0  0  0  0  0  0  0  0  0
  150.5442  141.4473  155.5346 C   0  0  0  0  0  0  0  0  0  0  0  0
  149.0217  141.2513  155.7111 C   0  0  1  0  0  0  0  0  0  0  0  0
  148.3087  142.2532  155.0137 O   0  0  0  0  0  0  0  0  0  0  0  0
  148.5264  139.8851  155.2062 C   0  0  0  0  0  0  0  0  0  0  0  0
  148.2935  139.9392  153.8037 O   0  0  0  0  0  0  0  0  0  0  0  0
  147.6138  138.8964  153.2122 C   0  0  0  0  0  0  0  0  0  0  0  0
  147.3997  138.9810  151.8209 C   0  0  0  0  0  0  0  0  0  0  0  0
  146.7139  137.9613  151.1333 C   0  0  0  0  0  0  0  0  0  0  0  0
  146.2328  136.8408  151.8349 C   0  0  0  0  0  0  0  0  0  0  0  0
  146.4398  136.7428  153.2234 C   0  0  0  0  0  0  0  0  0  0  0  0
  147.1263  137.7626  153.9109 C   0  0  0  0  0  0  0  0  0  0  0  0
  152.6495  140.3170  159.5363 H   0  0  0  0  0  0  0  0  0  0  0  0
  154.0362  143.4152  160.2537 H   0  0  0  0  0  0  0  0  0  0  0  0
  152.6169  140.9433  161.4572 H   0  0  0  0  0  0  0  0  0  0  0  0
  154.3646  141.3828  161.5789 H   0  0  0  0  0  0  0  0  0  0  0  0
  152.3460  142.4341  163.3768 H   0  0  0  0  0  0  0  0  0  0  0  0
  153.8320  143.3619  162.9323 H   0  0  0  0  0  0  0  0  0  0  0  0
  152.3077  144.6339  161.4862 H   0  0  0  0  0  0  0  0  0  0  0  0
  151.1646  143.2388  161.3936 H   0  0  0  0  0  0  0  0  0  0  0  0
  151.0360  143.7757  156.4588 H   0  0  0  0  0  0  0  0  0  0  0  0
  150.7454  142.2354  154.8058 H   0  0  0  0  0  0  0  0  0  0  0  0
  150.9720  140.5494  155.0843 H   0  0  0  0  0  0  0  0  0  0  0  0
  148.7492  141.3335  156.7640 H   0  0  0  0  0  0  0  0  0  0  0  0
  148.6904  143.0929  155.2186 H   0  0  0  0  0  0  0  0  0  0  0  0
  149.2964  139.1383  155.4067 H   0  0  0  0  0  0  0  0  0  0  0  0
  147.6262  139.5851  155.7455 H   0  0  0  0  0  0  0  0  0  0  0  0
  147.7655  139.8380  151.2745 H   0  0  0  0  0  0  0  0  0  0  0  0
  146.5572  138.0401  150.0676 H   0  0  0  0  0  0  0  0  0  0  0  0
  145.7059  136.0580  151.3094 H   0  0  0  0  0  0  0  0  0  0  0  0
  146.0715  135.8833  153.7637 H   0  0  0  0  0  0  0  0  0  0  0  0
  147.2653  137.6509  154.9754 H   0  0  0  0  0  0  0  0  0  0  0  0
  1  2  2  0  0  0  0
  2 11  1  0  0  0  0
  2  3  1  0  0  0  0
  3  4  2  0  0  0  0
  3 23  1  0  0  0  0
  4  5  1  0  0  0  0
  4  9  1  0  0  0  0
  5  8  1  0  0  0  0
  5  6  1  0  0  0  0
  5 24  1  0  0  0  0
  6  7  1  0  0  0  0
  6 25  1  0  0  0  0
  6 26  1  0  0  0  0
  7  8  1  0  0  0  0
  7 27  1  0  0  0  0
  7 28  1  0  0  0  0
  8 29  1  0  0  0  0
  8 30  1  0  0  0  0
  9 10  2  0  0  0  0
 10 11  1  0  0  0  0
 10 31  1  0  0  0  0
 11 12  1  0  0  0  0
 12 13  1  0  0  0  0
 12 32  1  0  0  0  0
 12 33  1  0  0  0  0
 13 14  1  0  0  0  0
 13 15  1  0  0  0  0
 13 34  1  0  0  0  0
 14 35  1  0  0  0  0
 15 16  1  0  0  0  0
 15 36  1  0  0  0  0
 15 37  1  0  0  0  0
 16 17  1  0  0  0  0
 17 22  1  0  0  0  0
 17 18  2  0  0  0  0
 18 19  1  0  0  0  0
 18 38  1  0  0  0  0
 19 20  2  0  0  0  0
 19 39  1  0  0  0  0
 20 21  1  0  0  0  0
 20 40  1  0  0  0  0
 21 22  2  0  0  0  0
 21 41  1  0  0  0  0
 22 42  1  0  0  0  0
M  END
> <s_m_source_file>
AV-unprocessed.smi

> <i_m_source_file_index>
2817

> <i_lp_mmshare_version>
43012

> <i_f3d_flags>
0

> <s_epik_input>
W0NIMl0xW0NIMl1bQ0gyXVtDSF0xYyhbY0hdYzI9TyluW2NIXW4yW0NIMl1bQ0BIXShbT0hdKVtDSDJdT2MzW2NIXVtjSF1bY0hdW2NIXVtjSF0z

> <s_epik_cmdline>
J2VwaWtfcHl0aG9uJywgJy1waCcsICc3LjAnLCAnLXRuJywgJzgnLCAnLW1hJywgJzIwMCcsICctbWV0YWxfYmluZGluZycsICctaW1hZScsICc8aW5maWxlLm1hZT4nLCAnLW9tYWUnLCAnPG91dGZpbGUubWFlPic=

> <r_lp_tautomer_probability>
1

> <r_epik_Ionization_Penalty>
2.12778e-05

> <r_epik_Ionization_Penalty_Charging>
7.42033e-08

> <r_epik_Ionization_Penalty_Neutral>
2.12036e-05

> <r_epik_State_Penalty>
-0

> <r_epik_Charging_Adjusted_Penalty>
7.42033e-08

> <i_epik_Tot_Q>
0

> <i_epik_Tot_abs_Q>
0

> <r_epik_Metal_State_Penalty>
-0

> <b_epik_Metal_Only>
0

> <s_lp_Force_Field>
OPLS_2005

> <r_lp_Energy>
33.1228

> <b_lp_Chiralities_Consistent>
1

> <s_lp_Variant>
AV-unprocessed.smi:2817-2

> <Gold.Version>
5.8.1

> <Gold.Id.Protein>
6NUR|6NUR_protein|mol2

> <Gold.PLP.Fitness>
48.0690

> <Gold.PLP.PLP>
-44.7041

> <Gold.PLP.part.hbond>
-1.0000

> <Gold.PLP.part.metal>
0.0000

> <Gold.PLP.part.buried>
-2.3292

> <Gold.PLP.part.nonpolar>
-42.3946

> <Gold.PLP.part.repulsive>
0.1808

> <Gold.PLP.ligand.clash>
0.0000

> <Gold.PLP.ligand.torsion>
1.5663

> <Gold.PLP.Chemscore.Hbond>
1.0000

> <Gold.PLP.Chemscore.CHOScore>
1.0000

> <Gold.PLP.Chemscore.Metal>
0.0000

> <Gold.Chemscore.Hbonds>
donor molecule, donor type, donor heavy atom, donor atom, acceptor molecule, acceptor atom, score
      L1  H    14    35       P1  8028  1.00
      L1  C    10    31       P1  8028  1.00

> <Gold.PLP.Chemscore.Internal.Correction>
0.4976

> <Gold.Rescore>
     Score         DG    S(hbond)    S(metal)    S(lipo)     H(rot)  DE(clash)    DE(int)     intcor
     13.80     -16.43       0.99        0.00     118.28       2.42       0.87       1.76       ----

> <Gold.Chemscore.Fitness>
13.8047

> <Gold.Chemscore.DG>
-16.4336

> <Gold.Chemscore.ZeroCoef>
-5.4800

> <Gold.Chemscore.Hbond>
0.9946

> <Gold.Chemscore.Metal>
0.0000

> <Gold.Chemscore.Lipo>
118.2762

> <Gold.Chemscore.Internal_Hbond>
0.0000

> <Gold.Chemscore.DEClash>
0.8728

> <Gold.Chemscore.DEInternal>
1.7561

> <Gold.Chemscore.Rot>
2.4245

> <Gold.Chemscore.Internal.Correction>
   9.000000E+99

> <Gold.Chemscore.Hbonds>
donor molecule, donor type, donor heavy atom, donor atom, acceptor molecule, acceptor atom, score
      L1  H    14    35       P1  8028  1.00

> <Gold.Chemscore.Hbond.Weighted>
-3.3219

> <Gold.Chemscore.Metal.Weighted>
-0.0000

> <Gold.Chemscore.Lipo.Weighted>
-13.8383

> <Gold.Chemscore.Internal_Hbond.Weighted>
0.0000

> <Gold.Chemscore.DEClash.Weighted>
0.8728

> <Gold.Chemscore.DEInternal.Weighted>
1.7561

> <Gold.Chemscore.Rot.Weighted>
6.2066

> <Gold.Chemscore.Internal.Correction.Weighted>
   9.000000E+99

> <Gold.Protein.RotatedTorsions>
[ 6907 6896 6895 6894 ] final  150.84 input  -60.11 | X-H torsion
[ 7974 7965 7964 7962 ] final -136.10 input  175.53 | X-H torsion
[ 8008 7997 7996 7995 ] final  143.03 input   59.86 | X-H torsion
[ 10167 10162 10161 10158 ] final  118.41 input  -65.29 | X-H torsion
[ 10718 10713 10712 10709 ] final   17.14 input   66.30 | X-H torsion
[ 10763 10752 10751 10750 ] final  -52.84 input  -60.55 | X-H torsion
[ 11005 11000 10999 10996 ] final   57.15 input  -57.11 | X-H torsion

> <Gold.Protein.ActiveResidues>
 VAL166  LYS551  ARG553  GLY616  TRP617  ASP618  TYR619  PRO620  LYS621  CYS622 
 ASP623  PHE694  ASN695  SER759  ASP760  ASP761  ALA762  ILE779  LEU786  VAL792 
 PHE793  MET794  SER795  GLU796  ALA797  LYS798  CYS799  TRP800  GLU811  SER814 

> <Gold.Protein.RotatedAtoms>
  152.1089  133.4290  159.4621 H   0  0  0  0  0  0  0  0  0  0  0  0  # atno 6907 bound_to 6896
  150.6866  134.2672  159.4582 H   0  0  0  0  0  0  0  0  0  0  0  0  # atno 6908 bound_to 6896
  152.0539  134.9636  160.0625 H   0  0  0  0  0  0  0  0  0  0  0  0  # atno 6909 bound_to 6896
  144.8956  140.6702  143.5117 H   0  0  0  0  0  0  0  0  0  0  0  0  # atno 7974 bound_to 7965
  156.2938  140.2273  156.4825 H   0  0  0  0  0  0  0  0  0  0  0  0  # atno 8008 bound_to 7997
  154.7841  140.0458  157.1171 H   0  0  0  0  0  0  0  0  0  0  0  0  # atno 8009 bound_to 7997
  154.9724  140.3068  155.4985 H   0  0  0  0  0  0  0  0  0  0  0  0  # atno 8010 bound_to 7997
  139.6113  144.7082  151.2837 H   0  0  0  0  0  0  0  0  0  0  0  0  # atno 10167 bound_to 10162
  157.0778  130.6375  149.5820 H   0  0  0  0  0  0  0  0  0  0  0  0  # atno 10718 bound_to 10713
  154.1492  135.6493  153.4959 H   0  0  0  0  0  0  0  0  0  0  0  0  # atno 10763 bound_to 10752
  153.0143  135.5334  154.6826 H   0  0  0  0  0  0  0  0  0  0  0  0  # atno 10764 bound_to 10752
  154.6109  135.2954  155.0405 H   0  0  0  0  0  0  0  0  0  0  0  0  # atno 10765 bound_to 10752
  140.0475  134.5785  155.9305 H   0  0  0  0  0  0  0  0  0  0  0  0  # atno 11005 bound_to 11000
  145.3705  139.1660  143.4334 LP  0  0  0  0  0  0  0  0  0  0  0  0  # atno 17320 bound_to 7965
  146.3079  140.3777  142.8680 LP  0  0  0  0  0  0  0  0  0  0  0  0  # atno 17321 bound_to 7965
  140.7321  143.6833  150.7983 LP  0  0  0  0  0  0  0  0  0  0  0  0  # atno 17342 bound_to 10162
  140.0428  143.5329  152.2710 LP  0  0  0  0  0  0  0  0  0  0  0  0  # atno 17343 bound_to 10162
  155.9932  130.4992  150.7371 LP  0  0  0  0  0  0  0  0  0  0  0  0  # atno 17370 bound_to 10713
  157.4825  131.0903  151.0520 LP  0  0  0  0  0  0  0  0  0  0  0  0  # atno 17371 bound_to 10713
  141.1914  133.6571  156.5455 LP  0  0  0  0  0  0  0  0  0  0  0  0  # atno 17394 bound_to 11000
  140.3970  134.7390  157.4757 LP  0  0  0  0  0  0  0  0  0  0  0  0  # atno 17395 bound_to 11000

$$$$
