AV-unprocessed.smi:312|AV-procd|sdf|2305|dock2
  -GOLD-   2262022203D 1   1.00000     0.00000
 Structure written by MMmdl.
 36 37  0  0  0  0  0  0  0  0  2 V2000
  150.9469  139.6794  155.6570 C   0  0  0  0  0  0  0  0  0  0  0  0
  150.2474  140.9628  156.1244 C   0  0  2  0  0  0  0  0  0  0  0  0
  149.6108  141.7169  154.9369 C   0  0  0  0  0  0  0  0  0  0  0  0
  148.4978  140.9838  154.3238 N   0  0  0  0  0  0  0  0  0  0  0  0
  148.4814  139.6662  153.9441 C   0  0  0  0  0  0  0  0  0  0  0  0
  147.2313  139.4211  153.4371 C   0  0  0  0  0  0  0  0  0  0  0  0
  146.5401  140.6001  153.5227 N   0  3  0  0  0  0  0  0  0  0  0  0
  147.3136  141.5504  154.0573 C   0  0  0  0  0  0  0  0  0  0  0  0
  151.2203  141.8020  156.8233 N   0  0  0  0  0  0  0  0  0  0  0  0
  151.1874  142.1219  158.1269 C   0  0  0  0  0  0  0  0  0  0  0  0
  150.3033  141.7363  158.8930 O   0  0  0  0  0  0  0  0  0  0  0  0
  152.3175  143.0316  158.6359 C   0  0  0  0  0  0  0  0  0  0  0  0
  152.2351  143.2656  160.1618 C   0  0  0  0  0  0  0  0  0  0  0  0
  151.8998  144.7493  160.3759 C   0  0  0  0  0  0  0  0  0  0  0  0
  151.4454  145.2769  159.0164 C   0  0  0  0  0  0  0  0  0  0  0  0
  152.2314  144.4359  158.0123 C   0  0  0  0  0  0  0  0  0  0  0  0
  150.2447  139.0076  155.1625 H   0  0  0  0  0  0  0  0  0  0  0  0
  151.3796  139.1384  156.4993 H   0  0  0  0  0  0  0  0  0  0  0  0
  151.7502  139.8975  154.9525 H   0  0  0  0  0  0  0  0  0  0  0  0
  149.4579  140.6633  156.8163 H   0  0  0  0  0  0  0  0  0  0  0  0
  149.2557  142.7021  155.2442 H   0  0  0  0  0  0  0  0  0  0  0  0
  150.3521  141.8800  154.1535 H   0  0  0  0  0  0  0  0  0  0  0  0
  149.3354  139.0160  154.0677 H   0  0  0  0  0  0  0  0  0  0  0  0
  146.7931  138.5197  153.0338 H   0  0  0  0  0  0  0  0  0  0  0  0
  147.0319  142.5707  154.2479 H   0  0  0  0  0  0  0  0  0  0  0  0
  151.9857  142.1624  156.2716 H   0  0  0  0  0  0  0  0  0  0  0  0
  153.2762  142.5772  158.3806 H   0  0  0  0  0  0  0  0  0  0  0  0
  151.4774  142.6374  160.6334 H   0  0  0  0  0  0  0  0  0  0  0  0
  153.1816  143.0189  160.6440 H   0  0  0  0  0  0  0  0  0  0  0  0
  151.1443  144.8978  161.1481 H   0  0  0  0  0  0  0  0  0  0  0  0
  152.7980  145.2824  160.6904 H   0  0  0  0  0  0  0  0  0  0  0  0
  150.3761  145.1045  158.8899 H   0  0  0  0  0  0  0  0  0  0  0  0
  151.6255  146.3460  158.9008 H   0  0  0  0  0  0  0  0  0  0  0  0
  153.2367  144.8449  157.9012 H   0  0  0  0  0  0  0  0  0  0  0  0
  151.7708  144.4451  157.0231 H   0  0  0  0  0  0  0  0  0  0  0  0
  145.5817  140.7353  153.2260 H   0  0  0  0  0  0  0  0  0  0  0  0
  1  2  1  0  0  0  0
  1 17  1  0  0  0  0
  1 18  1  0  0  0  0
  1 19  1  0  0  0  0
  2  3  1  0  0  0  0
  2  9  1  0  0  0  0
  2 20  1  0  0  0  0
  3  4  1  0  0  0  0
  3 21  1  0  0  0  0
  3 22  1  0  0  0  0
  4  8  1  0  0  0  0
  4  5  1  0  0  0  0
  5  6  2  0  0  0  0
  5 23  1  0  0  0  0
  6  7  1  0  0  0  0
  6 24  1  0  0  0  0
  7  8  2  0  0  0  0
  7 36  1  0  0  0  0
  8 25  1  0  0  0  0
  9 10  1  0  0  0  0
  9 26  1  0  0  0  0
 10 11  2  0  0  0  0
 10 12  1  0  0  0  0
 12 16  1  0  0  0  0
 12 13  1  0  0  0  0
 12 27  1  0  0  0  0
 13 14  1  0  0  0  0
 13 28  1  0  0  0  0
 13 29  1  0  0  0  0
 14 15  1  0  0  0  0
 14 30  1  0  0  0  0
 14 31  1  0  0  0  0
 15 16  1  0  0  0  0
 15 32  1  0  0  0  0
 15 33  1  0  0  0  0
 16 34  1  0  0  0  0
 16 35  1  0  0  0  0
M  CHG  1   7   1
M  END
> <s_m_source_file>
AV-unprocessed.smi

> <i_m_source_file_index>
312

> <i_lp_mmshare_version>
43012

> <i_f3d_flags>
0

> <s_epik_input>
W2NIXTFuW2NIXVtjSF1uMVtDSDJdW0NAQEhdKFtDSDNdKVtOSF1DKD1PKVtDSF0yW0NIMl1bQ0gyXVtDSDJdW0NIMl0y

> <s_epik_cmdline>
J2VwaWtfcHl0aG9uJywgJy1waCcsICc3LjAnLCAnLXRuJywgJzgnLCAnLW1hJywgJzIwMCcsICctbWV0YWxfYmluZGluZycsICctaW1hZScsICc8aW5maWxlLm1hZT4nLCAnLW9tYWUnLCAnPG91dGZpbGUubWFlPic=

> <r_lp_tautomer_probability>
1

> <r_epik_Ionization_Penalty>
0.244425

> <r_epik_Ionization_Penalty_Charging>
0

> <r_epik_Ionization_Penalty_Neutral>
0.244425

> <r_epik_State_Penalty>
0.23553

> <r_epik_Charging_Adjusted_Penalty>
0.23553

> <i_epik_Tot_Q>
1

> <i_epik_Tot_abs_Q>
1

> <r_epik_Metal_State_Penalty>
0.528799

> <b_epik_Metal_Only>
0

> <s_lp_Force_Field>
OPLS_2005

> <r_lp_Energy>
22.6864

> <b_lp_Chiralities_Consistent>
1

> <s_lp_Variant>
AV-unprocessed.smi:312-1

> <Gold.Version>
5.8.1

> <Gold.Id.Protein>
6NUR|6NUR_protein|mol2

> <Gold.PLP.Fitness>
45.6851

> <Gold.PLP.PLP>
-40.1161

> <Gold.PLP.part.hbond>
-1.8578

> <Gold.PLP.part.metal>
0.0000

> <Gold.PLP.part.buried>
-1.9219

> <Gold.PLP.part.nonpolar>
-37.0801

> <Gold.PLP.part.repulsive>
0.1168

> <Gold.PLP.ligand.clash>
0.0000

> <Gold.PLP.ligand.torsion>
0.2268

> <Gold.PLP.Chemscore.Hbond>
2.0000

> <Gold.PLP.Chemscore.CHOScore>
0.0000

> <Gold.PLP.Chemscore.Metal>
0.0000

> <Gold.Chemscore.Hbonds>
donor molecule, donor type, donor heavy atom, donor atom, acceptor molecule, acceptor atom, score
      L1  H     7    36       P1 10175  1.89

> <Gold.PLP.Chemscore.Internal.Correction>
0.0225

> <Gold.Rescore>
     Score         DG    S(hbond)    S(metal)    S(lipo)     H(rot)  DE(clash)    DE(int)     intcor
     14.64     -14.93       0.95        0.00      93.50       1.82       0.00       0.29       ----

> <Gold.Chemscore.Fitness>
14.6372

> <Gold.Chemscore.DG>
-14.9345

> <Gold.Chemscore.ZeroCoef>
-5.4800

> <Gold.Chemscore.Hbond>
0.9531

> <Gold.Chemscore.Metal>
0.0000

> <Gold.Chemscore.Lipo>
93.4992

> <Gold.Chemscore.Internal_Hbond>
0.0000

> <Gold.Chemscore.DEClash>
0.0029

> <Gold.Chemscore.DEInternal>
0.2944

> <Gold.Chemscore.Rot>
1.8235

> <Gold.Chemscore.Internal.Correction>
   9.000000E+99

> <Gold.Chemscore.Hbonds>
donor molecule, donor type, donor heavy atom, donor atom, acceptor molecule, acceptor atom, score
      L1  H     7    36       P1 10175  0.67

> <Gold.Chemscore.Hbond.Weighted>
-3.1834

> <Gold.Chemscore.Metal.Weighted>
-0.0000

> <Gold.Chemscore.Lipo.Weighted>
-10.9394

> <Gold.Chemscore.Internal_Hbond.Weighted>
0.0000

> <Gold.Chemscore.DEClash.Weighted>
0.0029

> <Gold.Chemscore.DEInternal.Weighted>
0.2944

> <Gold.Chemscore.Rot.Weighted>
4.6683

> <Gold.Chemscore.Internal.Correction.Weighted>
   9.000000E+99

> <Gold.Protein.RotatedTorsions>
[ 6907 6896 6895 6894 ] final -103.14 input  -60.11 | X-H torsion
[ 7974 7965 7964 7962 ] final -158.18 input  175.53 | X-H torsion
[ 8008 7997 7996 7995 ] final  -20.48 input   59.86 | X-H torsion
[ 10167 10162 10161 10158 ] final -158.73 input  -65.29 | X-H torsion
[ 10718 10713 10712 10709 ] final   20.18 input   66.30 | X-H torsion
[ 10763 10752 10751 10750 ] final -169.70 input  -60.55 | X-H torsion
[ 11005 11000 10999 10996 ] final  -52.07 input  -57.11 | X-H torsion

> <Gold.Protein.ActiveResidues>
 VAL166  LYS551  ARG553  GLY616  TRP617  ASP618  TYR619  PRO620  LYS621  CYS622 
 ASP623  PHE694  ASN695  SER759  ASP760  ASP761  ALA762  ILE779  LEU786  VAL792 
 PHE793  MET794  SER795  GLU796  ALA797  LYS798  CYS799  TRP800  GLU811  SER814 

> <Gold.Protein.RotatedAtoms>
  150.7227  134.0474  159.3786 H   0  0  0  0  0  0  0  0  0  0  0  0  # atno 6907 bound_to 6896
  151.8450  135.0575  160.0462 H   0  0  0  0  0  0  0  0  0  0  0  0  # atno 6908 bound_to 6896
  152.2834  133.5456  159.5548 H   0  0  0  0  0  0  0  0  0  0  0  0  # atno 6909 bound_to 6896
  144.7516  140.3864  143.6043 H   0  0  0  0  0  0  0  0  0  0  0  0  # atno 7974 bound_to 7965
  154.4767  140.2061  155.9861 H   0  0  0  0  0  0  0  0  0  0  0  0  # atno 8008 bound_to 7997
  156.1100  140.3230  155.8030 H   0  0  0  0  0  0  0  0  0  0  0  0  # atno 8009 bound_to 7997
  155.4651  140.0527  157.2977 H   0  0  0  0  0  0  0  0  0  0  0  0  # atno 8010 bound_to 7997
  139.6670  143.9812  152.2261 H   0  0  0  0  0  0  0  0  0  0  0  0  # atno 10167 bound_to 10162
  157.1209  130.6549  149.5923 H   0  0  0  0  0  0  0  0  0  0  0  0  # atno 10718 bound_to 10713
  154.6494  135.2909  155.0005 H   0  0  0  0  0  0  0  0  0  0  0  0  # atno 10763 bound_to 10752
  154.1103  135.6563  153.4888 H   0  0  0  0  0  0  0  0  0  0  0  0  # atno 10764 bound_to 10752
  153.0368  135.5263  154.7396 H   0  0  0  0  0  0  0  0  0  0  0  0  # atno 10765 bound_to 10752
  141.0905  133.6634  156.3970 H   0  0  0  0  0  0  0  0  0  0  0  0  # atno 11005 bound_to 11000
  145.6922  139.1642  143.2640 LP  0  0  0  0  0  0  0  0  0  0  0  0  # atno 17320 bound_to 7965
  146.1475  140.6972  142.9338 LP  0  0  0  0  0  0  0  0  0  0  0  0  # atno 17321 bound_to 7965
  139.9566  144.6585  150.8120 LP  0  0  0  0  0  0  0  0  0  0  0  0  # atno 17342 bound_to 10162
  140.7603  143.3148  151.2759 LP  0  0  0  0  0  0  0  0  0  0  0  0  # atno 17343 bound_to 10162
  155.9829  130.4845  150.6904 LP  0  0  0  0  0  0  0  0  0  0  0  0  # atno 17370 bound_to 10713
  157.4477  131.0869  151.0878 LP  0  0  0  0  0  0  0  0  0  0  0  0  # atno 17371 bound_to 10713
  140.5264  134.6255  157.5335 LP  0  0  0  0  0  0  0  0  0  0  0  0  # atno 17394 bound_to 11000
  139.9730  134.7262  156.0005 LP  0  0  0  0  0  0  0  0  0  0  0  0  # atno 17395 bound_to 11000

$$$$
