AV-unprocessed.smi:1810|AV-procd|sdf|7334|dock1
  -GOLD-   22720 8593D 1   1.00000     0.00000
 Structure written by MMmdl.
 39 40  0  0  0  0  0  0  0  0  2 V2000
  151.9819  143.9047  161.3042 C   0  0  0  0  0  0  0  0  0  0  0  0
  152.2468  142.8165  160.2989 C   0  0  0  0  0  0  0  0  0  0  0  0
  153.3006  142.0927  160.4897 N   0  0  0  0  0  0  0  0  0  0  0  0
  153.6337  141.0662  159.6279 N   0  0  0  0  0  0  0  0  0  0  0  0
  154.8667  140.3586  159.9893 C   0  0  0  0  0  0  0  0  0  0  0  0
  154.6236  138.8512  160.1582 C   0  0  0  0  0  0  0  0  0  0  0  0
  154.5193  138.5607  161.5451 O   0  0  0  0  0  0  0  0  0  0  0  0
  154.5385  137.2391  161.9377 C   0  0  0  0  0  0  0  0  0  0  0  0
  154.8983  136.1603  161.0891 C   0  0  0  0  0  0  0  0  0  0  0  0
  154.8890  134.8374  161.5725 C   0  0  0  0  0  0  0  0  0  0  0  0
  154.5205  134.5812  162.9076 C   0  0  0  0  0  0  0  0  0  0  0  0
  154.5139  132.8965  163.5207 S   0  0  0  0  0  0  0  0  0  0  0  0
  153.5939  133.1539  164.8217 N   0  5  0  0  0  0  0  0  0  0  0  0
  153.8411  132.0783  162.4997 O   0  0  0  0  0  0  0  0  0  0  0  0
  155.9074  132.5702  163.8625 O   0  0  0  0  0  0  0  0  0  0  0  0
  154.1622  135.6430  163.7613 C   0  0  0  0  0  0  0  0  0  0  0  0
  154.1729  136.9634  163.2723 C   0  0  0  0  0  0  0  0  0  0  0  0
  152.9173  140.7168  158.5218 C   0  0  0  0  0  0  0  0  0  0  0  0
  153.2539  139.7947  157.7776 O   0  0  0  0  0  0  0  0  0  0  0  0
  151.7253  141.5414  158.3104 C   0  0  0  0  0  0  0  0  0  0  0  0
  150.9454  141.2089  157.1621 C   0  0  0  0  0  0  0  0  0  0  0  0
  150.3296  140.9424  156.2187 N   0  0  0  0  0  0  0  0  0  0  0  0
  151.3872  142.5527  159.1493 C   0  0  0  0  0  0  0  0  0  0  0  0
  150.1604  143.4376  158.9746 C   0  0  0  0  0  0  0  0  0  0  0  0
  151.0004  143.7791  161.7617 H   0  0  0  0  0  0  0  0  0  0  0  0
  152.0111  144.8854  160.8289 H   0  0  0  0  0  0  0  0  0  0  0  0
  152.7204  143.9053  162.1076 H   0  0  0  0  0  0  0  0  0  0  0  0
  155.6253  140.5179  159.2208 H   0  0  0  0  0  0  0  0  0  0  0  0
  155.2908  140.7750  160.9049 H   0  0  0  0  0  0  0  0  0  0  0  0
  153.7061  138.5602  159.6444 H   0  0  0  0  0  0  0  0  0  0  0  0
  155.4528  138.2937  159.7194 H   0  0  0  0  0  0  0  0  0  0  0  0
  155.1846  136.3202  160.0609 H   0  0  0  0  0  0  0  0  0  0  0  0
  155.1612  134.0240  160.9162 H   0  0  0  0  0  0  0  0  0  0  0  0
  152.7969  132.5076  164.7802 H   0  0  0  0  0  0  0  0  0  0  0  0
  153.8765  135.4514  164.7849 H   0  0  0  0  0  0  0  0  0  0  0  0
  153.8961  137.7747  163.9295 H   0  0  0  0  0  0  0  0  0  0  0  0
  149.6009  143.1946  158.0717 H   0  0  0  0  0  0  0  0  0  0  0  0
  150.4501  144.4867  158.9061 H   0  0  0  0  0  0  0  0  0  0  0  0
  149.4830  143.3218  159.8215 H   0  0  0  0  0  0  0  0  0  0  0  0
  1  2  1  0  0  0  0
  1 25  1  0  0  0  0
  1 26  1  0  0  0  0
  1 27  1  0  0  0  0
  2 23  1  0  0  0  0
  2  3  2  0  0  0  0
  3  4  1  0  0  0  0
  4  5  1  0  0  0  0
  4 18  1  0  0  0  0
  5  6  1  0  0  0  0
  5 28  1  0  0  0  0
  5 29  1  0  0  0  0
  6  7  1  0  0  0  0
  6 30  1  0  0  0  0
  6 31  1  0  0  0  0
  7  8  1  0  0  0  0
  8 17  1  0  0  0  0
  8  9  2  0  0  0  0
  9 10  1  0  0  0  0
  9 32  1  0  0  0  0
 10 11  2  0  0  0  0
 10 33  1  0  0  0  0
 11 12  1  0  0  0  0
 11 16  1  0  0  0  0
 12 13  1  0  0  0  0
 12 14  2  0  0  0  0
 12 15  2  0  0  0  0
 13 34  1  0  0  0  0
 16 17  2  0  0  0  0
 16 35  1  0  0  0  0
 17 36  1  0  0  0  0
 18 19  2  0  0  0  0
 18 20  1  0  0  0  0
 20 21  1  0  0  0  0
 20 23  2  0  0  0  0
 21 22  3  0  0  0  0
 23 24  1  0  0  0  0
 24 37  1  0  0  0  0
 24 38  1  0  0  0  0
 24 39  1  0  0  0  0
M  CHG  1  13  -1
M  END
> <s_m_source_file>
AV-unprocessed.smi

> <i_m_source_file_index>
1810

> <i_lp_mmshare_version>
43012

> <i_f3d_flags>
0

> <s_epik_input>
TiNDYyhjMVtDSDNdKWMoPU8pbihuYzFbQ0gzXSlbQ0gyXVtDSDJdT2MyW2NIXVtjSF1jKFMoPU8pKD1PKVtOSDJdKVtjSF1bY0hdMg==

> <s_epik_cmdline>
J2VwaWtfcHl0aG9uJywgJy1waCcsICc3LjAnLCAnLXRuJywgJzgnLCAnLW1hJywgJzIwMCcsICctbWV0YWxfYmluZGluZycsICctaW1hZScsICc8aW5maWxlLm1hZT4nLCAnLW9tYWUnLCAnPG91dGZpbGUubWFlPic=

> <r_lp_tautomer_probability>
1

> <r_epik_Ionization_Penalty>
4.40921

> <r_epik_Ionization_Penalty_Charging>
4.40921

> <r_epik_Ionization_Penalty_Neutral>
1.83918e-13

> <r_epik_State_Penalty>
4.40908

> <r_epik_Charging_Adjusted_Penalty>
8.81829

> <i_epik_Tot_Q>
-1

> <i_epik_Tot_abs_Q>
1

> <r_epik_Metal_State_Penalty>
0.775711

> <b_epik_Metal_Only>
1

> <s_lp_Force_Field>
OPLS_2005

> <r_lp_Energy>
29.6197

> <b_lp_Chiralities_Consistent>
1

> <s_lp_Variant>
AV-unprocessed.smi:1810-2

> <Gold.Version>
5.8.1

> <Gold.Id.Protein>
6NUR|6NUR_protein|mol2

> <Gold.PLP.Fitness>
45.2830

> <Gold.PLP.PLP>
-43.4312

> <Gold.PLP.part.hbond>
-2.0000

> <Gold.PLP.part.metal>
0.0000

> <Gold.PLP.part.buried>
-7.0529

> <Gold.PLP.part.nonpolar>
-33.5072

> <Gold.PLP.part.repulsive>
0.0687

> <Gold.PLP.ligand.clash>
0.0000

> <Gold.PLP.ligand.torsion>
1.6486

> <Gold.PLP.Chemscore.Hbond>
1.0000

> <Gold.PLP.Chemscore.CHOScore>
0.0000

> <Gold.PLP.Chemscore.Metal>
0.0000

> <Gold.Chemscore.Hbonds>
donor molecule, donor type, donor heavy atom, donor atom, acceptor molecule, acceptor atom, score
      P1  H  7997  8008       L1    19  1.00

> <Gold.PLP.Chemscore.Internal.Correction>
2.1489

> <Gold.Rescore>
     Score         DG    S(hbond)    S(metal)    S(lipo)     H(rot)  DE(clash)    DE(int)     intcor
     13.19     -15.75       0.96        0.00     102.87       1.94       0.12       2.44       ----

> <Gold.Chemscore.Fitness>
13.1876

> <Gold.Chemscore.DG>
-15.7469

> <Gold.Chemscore.ZeroCoef>
-5.4800

> <Gold.Chemscore.Hbond>
0.9561

> <Gold.Chemscore.Metal>
0.0000

> <Gold.Chemscore.Lipo>
102.8690

> <Gold.Chemscore.Internal_Hbond>
0.0000

> <Gold.Chemscore.DEClash>
0.1202

> <Gold.Chemscore.DEInternal>
2.4392

> <Gold.Chemscore.Rot>
1.9384

> <Gold.Chemscore.Internal.Correction>
   9.000000E+99

> <Gold.Chemscore.Hbonds>
donor molecule, donor type, donor heavy atom, donor atom, acceptor molecule, acceptor atom, score
      P1  H  7997  8008       L1    19  0.81

> <Gold.Chemscore.Hbond.Weighted>
-3.1935

> <Gold.Chemscore.Metal.Weighted>
-0.0000

> <Gold.Chemscore.Lipo.Weighted>
-12.0357

> <Gold.Chemscore.Internal_Hbond.Weighted>
0.0000

> <Gold.Chemscore.DEClash.Weighted>
0.1202

> <Gold.Chemscore.DEInternal.Weighted>
2.4392

> <Gold.Chemscore.Rot.Weighted>
4.9622

> <Gold.Chemscore.Internal.Correction.Weighted>
   9.000000E+99

> <Gold.Protein.RotatedTorsions>
[ 6907 6896 6895 6894 ] final  -83.14 input  -60.11 | X-H torsion
[ 7974 7965 7964 7962 ] final  179.59 input  175.53 | X-H torsion
[ 8008 7997 7996 7995 ] final  -92.22 input   59.86 | X-H torsion
[ 10167 10162 10161 10158 ] final   54.29 input  -65.29 | X-H torsion
[ 10718 10713 10712 10709 ] final  110.89 input   66.30 | X-H torsion
[ 10763 10752 10751 10750 ] final -143.22 input  -60.55 | X-H torsion
[ 11005 11000 10999 10996 ] final  -51.26 input  -57.11 | X-H torsion

> <Gold.Protein.ActiveResidues>
 VAL166  LYS551  ARG553  GLY616  TRP617  ASP618  TYR619  PRO620  LYS621  CYS622 
 ASP623  PHE694  ASN695  SER759  ASP760  ASP761  ALA762  ILE779  LEU786  VAL792 
 PHE793  MET794  SER795  GLU796  ALA797  LYS798  CYS799  TRP800  GLU811  SER814 

> <Gold.Protein.RotatedAtoms>
  150.6889  134.3558  159.4928 H   0  0  0  0  0  0  0  0  0  0  0  0  # atno 6907 bound_to 6896
  152.1393  134.9072  160.0564 H   0  0  0  0  0  0  0  0  0  0  0  0  # atno 6908 bound_to 6896
  152.0212  133.3864  159.4296 H   0  0  0  0  0  0  0  0  0  0  0  0  # atno 6909 bound_to 6896
  144.7144  140.0570  143.6433 H   0  0  0  0  0  0  0  0  0  0  0  0  # atno 7974 bound_to 7965
  154.7204  140.0511  157.0634 H   0  0  0  0  0  0  0  0  0  0  0  0  # atno 8008 bound_to 7997
  155.0435  140.3171  155.4697 H   0  0  0  0  0  0  0  0  0  0  0  0  # atno 8009 bound_to 7997
  156.2815  140.2128  156.5559 H   0  0  0  0  0  0  0  0  0  0  0  0  # atno 8010 bound_to 7997
  140.2317  144.3679  150.6412 H   0  0  0  0  0  0  0  0  0  0  0  0  # atno 10167 bound_to 10162
  157.6472  131.0941  150.6669 H   0  0  0  0  0  0  0  0  0  0  0  0  # atno 10718 bound_to 10713
  154.8479  135.3474  154.6152 H   0  0  0  0  0  0  0  0  0  0  0  0  # atno 10763 bound_to 10752
  153.6761  135.6982  153.5137 H   0  0  0  0  0  0  0  0  0  0  0  0  # atno 10764 bound_to 10752
  153.2705  135.4294  155.0939 H   0  0  0  0  0  0  0  0  0  0  0  0  # atno 10765 bound_to 10752
  141.0861  133.6642  156.3851 H   0  0  0  0  0  0  0  0  0  0  0  0  # atno 11005 bound_to 11000
  145.9896  139.3004  143.0993 LP  0  0  0  0  0  0  0  0  0  0  0  0  # atno 17320 bound_to 7965
  145.8918  140.9299  143.0548 LP  0  0  0  0  0  0  0  0  0  0  0  0  # atno 17321 bound_to 7965
  140.6180  143.2174  151.6752 LP  0  0  0  0  0  0  0  0  0  0  0  0  # atno 17342 bound_to 10162
  139.5107  144.3532  152.0632 LP  0  0  0  0  0  0  0  0  0  0  0  0  # atno 17343 bound_to 10162
  156.6985  130.4616  149.5579 LP  0  0  0  0  0  0  0  0  0  0  0  0  # atno 17370 bound_to 10713
  156.1812  130.6500  151.0953 LP  0  0  0  0  0  0  0  0  0  0  0  0  # atno 17371 bound_to 10713
  140.5359  134.6167  157.5365 LP  0  0  0  0  0  0  0  0  0  0  0  0  # atno 17394 bound_to 11000
  139.9680  134.7341  156.0099 LP  0  0  0  0  0  0  0  0  0  0  0  0  # atno 17395 bound_to 11000

$$$$
