AV-unprocessed.smi:1809|AV-procd|sdf|7327|dock9
  -GOLD-   22720 8583D 1   1.00000     0.00000
 Structure written by MMmdl.
 39 41  0  0  0  0  0  0  0  0  3 V2000
  153.1814  141.1957  159.6836 C   0  0  0  0  0  0  0  0  0  0  0  0
  152.6367  140.1622  158.7585 C   0  0  0  0  0  0  0  0  0  0  0  0
  153.4175  139.3443  158.0483 N   0  0  0  0  0  0  0  0  0  0  0  0
  152.6805  138.4707  157.2615 N   0  0  0  0  0  0  0  0  0  0  0  0
  151.3563  138.6324  157.3954 C   0  0  0  0  0  0  0  0  0  0  0  0
  150.4673  137.8887  156.7163 N   0  5  0  0  0  0  0  0  0  0  0  0
  150.8979  136.9477  155.8471 C   0  0  0  0  0  0  0  0  0  0  0  0
  151.9933  136.9177  155.2815 O   0  0  0  0  0  0  0  0  0  0  0  0
  150.0031  135.9794  155.6163 N   0  0  0  0  0  0  0  0  0  0  0  0
  150.2033  134.8582  154.7098 C   0  0  0  0  0  0  0  0  0  0  0  0
  149.1642  133.7510  154.9710 C   0  0  2  0  0  0  0  0  0  0  0  0
  148.7642  132.9930  153.6823 C   0  0  0  0  0  0  0  0  0  0  0  0
  147.8806  133.8555  152.8753 N   0  3  1  0  0  0  0  0  0  0  0  0
  147.3856  133.3351  151.5895 C   0  0  0  0  0  0  0  0  0  0  0  0
  146.0931  134.1286  151.3125 C   0  0  0  0  0  0  0  0  0  0  0  0
  145.8320  134.9588  152.5824 C   0  0  0  0  0  0  0  0  0  0  0  0
  146.6968  134.2679  153.6323 C   0  0  2  0  0  0  0  0  0  0  0  0
  147.1406  135.0854  154.8512 C   0  0  0  0  0  0  0  0  0  0  0  0
  147.9998  134.2594  155.6417 O   0  0  0  0  0  0  0  0  0  0  0  0
  150.9149  139.9187  158.5183 S   0  0  0  0  0  0  0  0  0  0  0  0
  153.4444  140.7390  160.6378 H   0  0  0  0  0  0  0  0  0  0  0  0
  152.4385  141.9738  159.8599 H   0  0  0  0  0  0  0  0  0  0  0  0
  154.0723  141.6555  159.2554 H   0  0  0  0  0  0  0  0  0  0  0  0
  149.1163  136.0362  156.0961 H   0  0  0  0  0  0  0  0  0  0  0  0
  150.1545  135.2082  153.6781 H   0  0  0  0  0  0  0  0  0  0  0  0
  151.2093  134.4626  154.8582 H   0  0  0  0  0  0  0  0  0  0  0  0
  149.6228  133.0313  155.6504 H   0  0  0  0  0  0  0  0  0  0  0  0
  149.6460  132.7138  153.1046 H   0  0  0  0  0  0  0  0  0  0  0  0
  148.2404  132.0705  153.9364 H   0  0  0  0  0  0  0  0  0  0  0  0
  148.1313  133.4597  150.8041 H   0  0  0  0  0  0  0  0  0  0  0  0
  147.1600  132.2713  151.6796 H   0  0  0  0  0  0  0  0  0  0  0  0
  146.1963  134.7752  150.4405 H   0  0  0  0  0  0  0  0  0  0  0  0
  145.2661  133.4445  151.1183 H   0  0  0  0  0  0  0  0  0  0  0  0
  146.1708  135.9848  152.4307 H   0  0  0  0  0  0  0  0  0  0  0  0
  144.7779  134.9900  152.8596 H   0  0  0  0  0  0  0  0  0  0  0  0
  146.1720  133.3732  153.9747 H   0  0  0  0  0  0  0  0  0  0  0  0
  147.6452  136.0060  154.5569 H   0  0  0  0  0  0  0  0  0  0  0  0
  146.2768  135.3735  155.4507 H   0  0  0  0  0  0  0  0  0  0  0  0
  148.3937  134.7001  152.6655 H   0  0  0  0  0  0  0  0  0  0  0  0
  1  2  1  0  0  0  0
  1 21  1  0  0  0  0
  1 22  1  0  0  0  0
  1 23  1  0  0  0  0
  2 20  1  0  0  0  0
  2  3  2  0  0  0  0
  3  4  1  0  0  0  0
  4  5  2  0  0  0  0
  5  6  1  0  0  0  0
  5 20  1  0  0  0  0
  6  7  1  0  0  0  0
  7  8  2  0  0  0  0
  7  9  1  0  0  0  0
  9 10  1  0  0  0  0
  9 24  1  0  0  0  0
 10 11  1  0  0  0  0
 10 25  1  0  0  0  0
 10 26  1  0  0  0  0
 11 19  1  0  0  0  0
 11 12  1  0  0  0  0
 11 27  1  0  0  0  0
 12 13  1  0  0  0  0
 12 28  1  0  0  0  0
 12 29  1  0  0  0  0
 13 17  1  0  0  0  0
 13 14  1  0  0  0  0
 13 39  1  0  0  0  0
 14 15  1  0  0  0  0
 14 30  1  0  0  0  0
 14 31  1  0  0  0  0
 15 16  1  0  0  0  0
 15 32  1  0  0  0  0
 15 33  1  0  0  0  0
 16 17  1  0  0  0  0
 16 34  1  0  0  0  0
 16 35  1  0  0  0  0
 17 18  1  0  0  0  0
 17 36  1  0  0  0  0
 18 19  1  0  0  0  0
 18 37  1  0  0  0  0
 18 38  1  0  0  0  0
M  CHG  1   6  -1
M  CHG  1  13   1
M  END
> <s_m_source_file>
AV-unprocessed.smi

> <i_m_source_file_index>
1809

> <i_lp_mmshare_version>
43012

> <i_f3d_flags>
0

> <s_epik_input>
W0NIM11jMW5uYyhzMSlbTkhdQyg9TylbTkhdW0NIMl1bQ0BIXShbQ0gyXTIpT1tDSDJdW0NAQEhdKE4yMylbQ0gyXVtDSDJdW0NIMl0z

> <s_epik_cmdline>
J2VwaWtfcHl0aG9uJywgJy1waCcsICc3LjAnLCAnLXRuJywgJzgnLCAnLW1hJywgJzIwMCcsICctbWV0YWxfYmluZGluZycsICctaW1hZScsICc8aW5maWxlLm1hZT4nLCAnLW9tYWUnLCAnPG91dGZpbGUubWFlPic=

> <r_lp_tautomer_probability>
1

> <r_epik_Ionization_Penalty>
3.2601

> <r_epik_Ionization_Penalty_Charging>
3.1406

> <r_epik_Ionization_Penalty_Neutral>
0.119497

> <r_epik_State_Penalty>
3.08894

> <r_epik_Charging_Adjusted_Penalty>
6.22954

> <i_epik_Tot_Q>
0

> <i_epik_Tot_abs_Q>
2

> <r_epik_Metal_State_Penalty>
0.510807

> <b_epik_Metal_Only>
1

> <s_lp_Force_Field>
OPLS_2005

> <r_lp_Energy>
31.1042

> <b_lp_Chiralities_Consistent>
1

> <s_lp_Variant>
AV-unprocessed.smi:1809-19

> <Gold.Version>
5.8.1

> <Gold.Id.Protein>
6NUR|6NUR_protein|mol2

> <Gold.PLP.Fitness>
36.3319

> <Gold.PLP.PLP>
-25.7000

> <Gold.PLP.part.hbond>
-3.0000

> <Gold.PLP.part.metal>
0.0000

> <Gold.PLP.part.buried>
-3.7344

> <Gold.PLP.part.nonpolar>
-19.0123

> <Gold.PLP.part.repulsive>
0.1510

> <Gold.PLP.ligand.clash>
0.0000

> <Gold.PLP.ligand.torsion>
0.6986

> <Gold.PLP.Chemscore.Hbond>
4.0000

> <Gold.PLP.Chemscore.CHOScore>
0.0000

> <Gold.PLP.Chemscore.Metal>
0.0000

> <Gold.Chemscore.Hbonds>
donor molecule, donor type, donor heavy atom, donor atom, acceptor molecule, acceptor atom, score
      L1  H    13    39       P1  7948  2.00
      P1  H  7997  8010       L1     3  1.00
      P1  H 10752 10765       L1     8  1.00

> <Gold.PLP.Chemscore.Internal.Correction>
0.0291

> <Gold.Rescore>
     Score         DG    S(hbond)    S(metal)    S(lipo)     H(rot)  DE(clash)    DE(int)     intcor
     15.24     -17.62       2.81        0.00      52.63       1.32       0.03       2.35       ----

> <Gold.Chemscore.Fitness>
15.2408

> <Gold.Chemscore.DG>
-17.6173

> <Gold.Chemscore.ZeroCoef>
-5.4800

> <Gold.Chemscore.Hbond>
2.8055

> <Gold.Chemscore.Metal>
0.0000

> <Gold.Chemscore.Lipo>
52.6317

> <Gold.Chemscore.Internal_Hbond>
0.0000

> <Gold.Chemscore.DEClash>
0.0279

> <Gold.Chemscore.DEInternal>
2.3486

> <Gold.Chemscore.Rot>
1.3246

> <Gold.Chemscore.Internal.Correction>
   9.000000E+99

> <Gold.Chemscore.Hbonds>
donor molecule, donor type, donor heavy atom, donor atom, acceptor molecule, acceptor atom, score
      L1  H    13    39       P1  7948  0.30
      P1  H  7997  8010       L1     3  0.72
      P1  H 10752 10765       L1     8  0.96

> <Gold.Chemscore.Hbond.Weighted>
-9.3704

> <Gold.Chemscore.Metal.Weighted>
-0.0000

> <Gold.Chemscore.Lipo.Weighted>
-6.1579

> <Gold.Chemscore.Internal_Hbond.Weighted>
0.0000

> <Gold.Chemscore.DEClash.Weighted>
0.0279

> <Gold.Chemscore.DEInternal.Weighted>
2.3486

> <Gold.Chemscore.Rot.Weighted>
3.3910

> <Gold.Chemscore.Internal.Correction.Weighted>
   9.000000E+99

> <Gold.Protein.RotatedTorsions>
[ 6907 6896 6895 6894 ] final  172.41 input  -60.11 | X-H torsion
[ 7974 7965 7964 7962 ] final -121.65 input  175.53 | X-H torsion
[ 8008 7997 7996 7995 ] final   24.92 input   59.86 | X-H torsion
[ 10167 10162 10161 10158 ] final -124.57 input  -65.29 | X-H torsion
[ 10718 10713 10712 10709 ] final  -95.33 input   66.30 | X-H torsion
[ 10763 10752 10751 10750 ] final -173.98 input  -60.55 | X-H torsion
[ 11005 11000 10999 10996 ] final  138.68 input  -57.11 | X-H torsion

> <Gold.Protein.ActiveResidues>
 VAL166  LYS551  ARG553  GLY616  TRP617  ASP618  TYR619  PRO620  LYS621  CYS622 
 ASP623  PHE694  ASN695  SER759  ASP760  ASP761  ALA762  ILE779  LEU786  VAL792 
 PHE793  MET794  SER795  GLU796  ALA797  LYS798  CYS799  TRP800  GLU811  SER814 

> <Gold.Protein.RotatedAtoms>
  151.7847  133.3353  159.3481 H   0  0  0  0  0  0  0  0  0  0  0  0  # atno 6907 bound_to 6896
  150.7413  134.5898  159.5991 H   0  0  0  0  0  0  0  0  0  0  0  0  # atno 6908 bound_to 6896
  152.3251  134.7332  160.0355 H   0  0  0  0  0  0  0  0  0  0  0  0  # atno 6909 bound_to 6896
  145.0380  140.8121  143.4284 H   0  0  0  0  0  0  0  0  0  0  0  0  # atno 7974 bound_to 7965
  155.0037  140.3128  155.4857 H   0  0  0  0  0  0  0  0  0  0  0  0  # atno 8008 bound_to 7997
  156.2921  140.2227  156.5089 H   0  0  0  0  0  0  0  0  0  0  0  0  # atno 8009 bound_to 7997
  154.7596  140.0460  157.0950 H   0  0  0  0  0  0  0  0  0  0  0  0  # atno 8010 bound_to 7997
  139.9913  143.5637  152.2340 H   0  0  0  0  0  0  0  0  0  0  0  0  # atno 10167 bound_to 10162
  156.0041  130.5105  150.6061 H   0  0  0  0  0  0  0  0  0  0  0  0  # atno 10718 bound_to 10713
  154.6015  135.2855  155.0530 H   0  0  0  0  0  0  0  0  0  0  0  0  # atno 10763 bound_to 10752
  154.1793  135.6459  153.5033 H   0  0  0  0  0  0  0  0  0  0  0  0  # atno 10764 bound_to 10752
  153.0159  135.5419  154.6736 H   0  0  0  0  0  0  0  0  0  0  0  0  # atno 10765 bound_to 10752
  140.0201  134.9400  157.0456 H   0  0  0  0  0  0  0  0  0  0  0  0  # atno 11005 bound_to 11000
  145.1685  139.2418  143.5354 LP  0  0  0  0  0  0  0  0  0  0  0  0  # atno 17320 bound_to 7965
  146.3506  140.1430  142.8594 LP  0  0  0  0  0  0  0  0  0  0  0  0  # atno 17321 bound_to 7965
  139.6338  144.7647  151.2481 LP  0  0  0  0  0  0  0  0  0  0  0  0  # atno 17342 bound_to 10162
  140.7453  143.6434  150.8314 LP  0  0  0  0  0  0  0  0  0  0  0  0  # atno 17343 bound_to 10162
  157.3901  131.0794  151.1401 LP  0  0  0  0  0  0  0  0  0  0  0  0  # atno 17370 bound_to 10713
  157.2095  130.6431  149.5769 LP  0  0  0  0  0  0  0  0  0  0  0  0  # atno 17371 bound_to 10713
  140.4402  134.1689  155.7173 LP  0  0  0  0  0  0  0  0  0  0  0  0  # atno 17394 bound_to 11000
  141.1768  133.8497  157.1393 LP  0  0  0  0  0  0  0  0  0  0  0  0  # atno 17395 bound_to 11000

$$$$
