AV-unprocessed.smi:2886|AV-procd|sdf|11095|dock4
  -GOLD-   2272015563D 1   1.00000     0.00000
 Structure written by MMmdl.
 27 29  0  0  0  0  0  0  0  0  2 V2000
  153.0598  136.1719  156.9090 O   0  0  0  0  0  0  0  0  0  0  0  0
  152.8383  137.0053  157.7859 C   0  0  0  0  0  0  0  0  0  0  0  0
  152.9195  136.7008  159.1166 N   0  5  0  0  0  0  0  0  0  0  0  0
  152.6402  137.7124  160.1114 N   0  0  0  0  0  0  0  0  0  0  0  0
  152.3242  138.8990  159.7709 C   0  0  0  0  0  0  0  0  0  0  0  0
  152.2279  139.3198  158.3513 C   0  0  0  0  0  0  0  0  0  0  0  0
  151.8834  140.6132  157.9784 N   0  0  0  0  0  0  0  0  0  0  0  0
  151.5655  141.7531  158.8266 C   0  0  2  0  0  0  0  0  0  0  0  0
  151.2880  143.0245  158.0209 C   0  0  0  0  0  0  0  0  0  0  0  0
  152.3079  144.0025  158.6178 C   0  0  1  0  0  0  0  0  0  0  0  0
  151.9670  144.3895  160.0635 C   0  0  0  0  0  0  0  0  0  0  0  0
  152.3277  143.1124  160.8225 C   0  0  0  0  0  0  0  0  0  0  0  0
  152.7675  142.1819  159.6841 C   0  0  2  0  0  0  0  0  0  0  0  0
  153.3989  143.1243  158.8318 O   0  0  0  0  0  0  0  0  0  0  0  0
  152.4756  138.3763  157.4072 C   0  0  0  0  0  0  0  0  0  0  0  0
  152.3778  138.7668  155.7206 Cl  0  0  0  0  0  0  0  0  0  0  0  0
  152.1038  139.6612  160.5214 H   0  0  0  0  0  0  0  0  0  0  0  0
  151.9872  140.8376  156.9991 H   0  0  0  0  0  0  0  0  0  0  0  0
  150.7304  141.5092  159.4827 H   0  0  0  0  0  0  0  0  0  0  0  0
  151.4856  142.8755  156.9583 H   0  0  0  0  0  0  0  0  0  0  0  0
  150.2607  143.3742  158.1279 H   0  0  0  0  0  0  0  0  0  0  0  0
  152.5352  144.8518  157.9732 H   0  0  0  0  0  0  0  0  0  0  0  0
  152.5848  145.2223  160.4014 H   0  0  0  0  0  0  0  0  0  0  0  0
  150.9198  144.6709  160.1794 H   0  0  0  0  0  0  0  0  0  0  0  0
  153.1542  143.2977  161.5094 H   0  0  0  0  0  0  0  0  0  0  0  0
  151.4923  142.7079  161.3950 H   0  0  0  0  0  0  0  0  0  0  0  0
  153.4071  141.3613  160.0115 H   0  0  0  0  0  0  0  0  0  0  0  0
  1  2  2  0  0  0  0
  2 15  1  0  0  0  0
  2  3  1  0  0  0  0
  3  4  1  0  0  0  0
  4  5  2  0  0  0  0
  5  6  1  0  0  0  0
  5 17  1  0  0  0  0
  6  7  1  0  0  0  0
  6 15  2  0  0  0  0
  7  8  1  0  0  0  0
  7 18  1  0  0  0  0
  8 13  1  0  0  0  0
  8  9  1  0  0  0  0
  8 19  1  0  0  0  0
  9 10  1  0  0  0  0
  9 20  1  0  0  0  0
  9 21  1  0  0  0  0
 10 14  1  0  0  0  0
 10 11  1  0  0  0  0
 10 22  1  0  0  0  0
 11 12  1  0  0  0  0
 11 23  1  0  0  0  0
 11 24  1  0  0  0  0
 12 13  1  0  0  0  0
 12 25  1  0  0  0  0
 12 26  1  0  0  0  0
 13 14  1  0  0  0  0
 13 27  1  0  0  0  0
 15 16  1  0  0  0  0
M  CHG  1   3  -1
M  END
> <s_m_source_file>
AV-unprocessed.smi

> <i_m_source_file_index>
2886

> <i_lp_mmshare_version>
43012

> <i_f3d_flags>
0

> <s_epik_input>
Tz1jMVtuSF1uW2NIXWMoYzFDbClbTkhdW0NASF0oW0NIMl1bQ0BASF0yMylbQ0BASF0oTzMpW0NIMl1bQ0gyXTI=

> <s_epik_cmdline>
J2VwaWtfcHl0aG9uJywgJy1waCcsICc3LjAnLCAnLXRuJywgJzgnLCAnLW1hJywgJzIwMCcsICctbWV0YWxfYmluZGluZycsICctaW1hZScsICc8aW5maWxlLm1hZT4nLCAnLW9tYWUnLCAnPG91dGZpbGUubWFlPic=

> <r_lp_tautomer_probability>
0.986175

> <r_epik_Ionization_Penalty>
3.84253

> <r_epik_Ionization_Penalty_Charging>
0.0129711

> <r_epik_Ionization_Penalty_Neutral>
3.82956

> <r_epik_State_Penalty>
3.8249

> <r_epik_Charging_Adjusted_Penalty>
3.83787

> <i_epik_Tot_Q>
-1

> <i_epik_Tot_abs_Q>
1

> <r_epik_Metal_State_Penalty>
0.57612

> <b_epik_Metal_Only>
1

> <s_lp_Force_Field>
OPLS_2005

> <r_lp_Energy>
60.5374

> <b_lp_Chiralities_Consistent>
1

> <s_lp_Variant>
AV-unprocessed.smi:2886-9

> <Gold.Version>
5.8.1

> <Gold.Id.Protein>
6NUR|6NUR_protein|mol2

> <Gold.PLP.Fitness>
36.4405

> <Gold.PLP.PLP>
-27.6374

> <Gold.PLP.part.hbond>
-2.0000

> <Gold.PLP.part.metal>
0.0000

> <Gold.PLP.part.buried>
-3.2112

> <Gold.PLP.part.nonpolar>
-23.6371

> <Gold.PLP.part.repulsive>
0.0804

> <Gold.PLP.ligand.clash>
0.0000

> <Gold.PLP.ligand.torsion>
0.0106

> <Gold.PLP.Chemscore.Hbond>
2.9349

> <Gold.PLP.Chemscore.CHOScore>
0.0000

> <Gold.PLP.Chemscore.Metal>
0.0000

> <Gold.Chemscore.Hbonds>
donor molecule, donor type, donor heavy atom, donor atom, acceptor molecule, acceptor atom, score
      P1  H  6896  6907       L1     3  1.60
      P1  H 10752 10763       L1     1  1.00

> <Gold.PLP.Chemscore.Internal.Correction>
0.0195

> <Gold.Rescore>
     Score         DG    S(hbond)    S(metal)    S(lipo)     H(rot)  DE(clash)    DE(int)     intcor
     18.02     -18.34       1.49        0.00      89.24       1.00       0.31       0.01       ----

> <Gold.Chemscore.Fitness>
18.0162

> <Gold.Chemscore.DG>
-18.3374

> <Gold.Chemscore.ZeroCoef>
-5.4800

> <Gold.Chemscore.Hbond>
1.4898

> <Gold.Chemscore.Metal>
0.0000

> <Gold.Chemscore.Lipo>
89.2445

> <Gold.Chemscore.Internal_Hbond>
0.0000

> <Gold.Chemscore.DEClash>
0.3113

> <Gold.Chemscore.DEInternal>
0.0099

> <Gold.Chemscore.Rot>
1.0000

> <Gold.Chemscore.Internal.Correction>
   9.000000E+99

> <Gold.Chemscore.Hbonds>
donor molecule, donor type, donor heavy atom, donor atom, acceptor molecule, acceptor atom, score
      P1  H  6896  6907       L1     3  0.17
      P1  H 10752 10763       L1     1  1.00

> <Gold.Chemscore.Hbond.Weighted>
-4.9758

> <Gold.Chemscore.Metal.Weighted>
-0.0000

> <Gold.Chemscore.Lipo.Weighted>
-10.4416

> <Gold.Chemscore.Internal_Hbond.Weighted>
0.0000

> <Gold.Chemscore.DEClash.Weighted>
0.3113

> <Gold.Chemscore.DEInternal.Weighted>
0.0099

> <Gold.Chemscore.Rot.Weighted>
2.5600

> <Gold.Chemscore.Internal.Correction.Weighted>
   9.000000E+99

> <Gold.Protein.RotatedTorsions>
[ 6907 6896 6895 6894 ] final   23.09 input  -60.11 | X-H torsion
[ 7974 7965 7964 7962 ] final   40.47 input  175.53 | X-H torsion
[ 8008 7997 7996 7995 ] final  124.65 input   59.86 | X-H torsion
[ 10167 10162 10161 10158 ] final -103.61 input  -65.29 | X-H torsion
[ 10718 10713 10712 10709 ] final  -84.00 input   66.30 | X-H torsion
[ 10763 10752 10751 10750 ] final  118.23 input  -60.55 | X-H torsion
[ 11005 11000 10999 10996 ] final -170.11 input  -57.11 | X-H torsion

> <Gold.Protein.ActiveResidues>
 VAL166  LYS551  ARG553  GLY616  TRP617  ASP618  TYR619  PRO620  LYS621  CYS622 
 ASP623  PHE694  ASN695  SER759  ASP760  ASP761  ALA762  ILE779  LEU786  VAL792 
 PHE793  MET794  SER795  GLU796  ALA797  LYS798  CYS799  TRP800  GLU811  SER814 

> <Gold.Protein.RotatedAtoms>
  151.9371  135.0230  160.0533 H   0  0  0  0  0  0  0  0  0  0  0  0  # atno 6907 bound_to 6896
  152.2069  133.4877  159.5097 H   0  0  0  0  0  0  0  0  0  0  0  0  # atno 6908 bound_to 6896
  150.6967  134.1435  159.4156 H   0  0  0  0  0  0  0  0  0  0  0  0  # atno 6909 bound_to 6896
  146.0902  139.5529  142.9481 H   0  0  0  0  0  0  0  0  0  0  0  0  # atno 7974 bound_to 7965
  156.2808  140.2735  156.1822 H   0  0  0  0  0  0  0  0  0  0  0  0  # atno 8008 bound_to 7997
  155.0545  140.0386  157.2573 H   0  0  0  0  0  0  0  0  0  0  0  0  # atno 8009 bound_to 7997
  154.7168  140.2680  155.6583 H   0  0  0  0  0  0  0  0  0  0  0  0  # atno 8010 bound_to 7997
  140.2181  143.3696  152.0993 H   0  0  0  0  0  0  0  0  0  0  0  0  # atno 10167 bound_to 10162
  156.0011  130.4683  150.4342 H   0  0  0  0  0  0  0  0  0  0  0  0  # atno 10718 bound_to 10713
  153.5645  135.3514  155.2812 H   0  0  0  0  0  0  0  0  0  0  0  0  # atno 10763 bound_to 10752
  154.8690  135.4144  154.2794 H   0  0  0  0  0  0  0  0  0  0  0  0  # atno 10764 bound_to 10752
  153.3547  135.7057  153.6830 H   0  0  0  0  0  0  0  0  0  0  0  0  # atno 10765 bound_to 10752
  140.5232  134.5688  157.5054 H   0  0  0  0  0  0  0  0  0  0  0  0  # atno 11005 bound_to 11000
  145.6054  141.0348  143.1996 LP  0  0  0  0  0  0  0  0  0  0  0  0  # atno 17320 bound_to 7965
  144.7354  139.7600  143.7331 LP  0  0  0  0  0  0  0  0  0  0  0  0  # atno 17321 bound_to 7965
  139.5154  144.6963  151.5621 LP  0  0  0  0  0  0  0  0  0  0  0  0  # atno 17342 bound_to 10162
  140.6275  143.9140  150.6577 LP  0  0  0  0  0  0  0  0  0  0  0  0  # atno 17343 bound_to 10162
  157.2389  131.0521  151.2448 LP  0  0  0  0  0  0  0  0  0  0  0  0  # atno 17370 bound_to 10713
  157.3640  130.7146  149.6520 LP  0  0  0  0  0  0  0  0  0  0  0  0  # atno 17371 bound_to 10713
  139.9594  134.7478  156.0270 LP  0  0  0  0  0  0  0  0  0  0  0  0  # atno 17394 bound_to 11000
  141.1322  133.6583  156.3496 LP  0  0  0  0  0  0  0  0  0  0  0  0  # atno 17395 bound_to 11000

$$$$
