AV-unprocessed.smi:151|AV-procd|sdf|1244|dock3
  -GOLD-   2262018463D 1   1.00000     0.00000
 Structure written by MMmdl.
 56 59  0  0  0  0  0  0  0  0  1 V2000
  154.5568  136.2748  164.2426 C   0  0  0  0  0  0  0  0  0  0  0  0
  155.0262  137.4515  163.3705 C   0  0  0  0  0  0  0  0  0  0  0  0
  156.3014  137.1825  162.5288 C   0  0  2  0  0  0  0  0  0  0  0  0
  157.5031  136.8350  163.4344 C   0  0  0  0  0  0  0  0  0  0  0  0
  158.6822  136.6245  162.6624 O   0  0  0  0  0  0  0  0  0  0  0  0
  159.0675  137.7236  161.8335 C   0  0  0  0  0  0  0  0  0  0  0  0
  159.5005  138.9463  162.6712 C   0  0  0  0  0  0  0  0  0  0  0  0
  160.2665  137.2202  161.0149 C   0  0  0  0  0  0  0  0  0  0  0  0
  157.8954  138.0591  160.8903 C   0  0  0  0  0  0  0  0  0  0  0  0
  156.6578  138.2867  161.6295 N   0  0  0  0  0  0  0  0  0  0  0  0
  155.7037  138.7638  160.7955 C   0  0  0  0  0  0  0  0  0  0  0  0
  155.4793  138.1714  159.5927 N   0  0  0  0  0  0  0  0  0  0  0  0
  154.5501  138.6655  158.7694 C   0  0  0  0  0  0  0  0  0  0  0  0
  153.7580  139.7253  158.9446 N   0  0  0  0  0  0  0  0  0  0  0  0
  153.9921  140.3316  160.1444 C   0  0  0  0  0  0  0  0  0  0  0  0
  154.9422  139.9176  161.1192 C   0  0  0  0  0  0  0  0  0  0  0  0
  154.9077  140.7700  162.2146 N   0  0  0  0  0  0  0  0  0  0  0  0
  153.9855  141.6404  161.9065 C   0  0  0  0  0  0  0  0  0  0  0  0
  153.3828  141.4551  160.6813 N   0  0  0  0  0  0  0  0  0  0  0  0
  152.3411  142.2657  160.1142 C   0  0  0  0  0  0  0  0  0  0  0  0
  152.6009  143.1434  158.8859 C   0  0  0  0  0  0  0  0  0  0  0  0
  151.6742  144.2382  159.4659 C   0  0  0  0  0  0  0  0  0  0  0  0
  152.2000  145.6845  159.3955 C   0  0  0  0  0  0  0  0  0  0  0  0
  151.6738  146.5112  160.4145 O   0  0  0  0  0  0  0  0  0  0  0  0
  150.2476  144.3021  158.8811 C   0  0  0  0  0  0  0  0  0  0  0  0
  149.4205  145.2547  159.5185 O   0  0  0  0  0  0  0  0  0  0  0  0
  151.8211  143.5185  160.8278 C   0  0  0  0  0  0  0  0  0  0  0  0
  153.6780  136.5574  164.8224 H   0  0  0  0  0  0  0  0  0  0  0  0
  155.3277  135.9656  164.9486 H   0  0  0  0  0  0  0  0  0  0  0  0
  154.2824  135.4076  163.6432 H   0  0  0  0  0  0  0  0  0  0  0  0
  154.2151  137.7357  162.6996 H   0  0  0  0  0  0  0  0  0  0  0  0
  155.1771  138.3191  164.0120 H   0  0  0  0  0  0  0  0  0  0  0  0
  156.1092  136.3075  161.9059 H   0  0  0  0  0  0  0  0  0  0  0  0
  157.6859  137.6068  164.1802 H   0  0  0  0  0  0  0  0  0  0  0  0
  157.2951  135.9211  163.9912 H   0  0  0  0  0  0  0  0  0  0  0  0
  159.8997  139.7336  162.0312 H   0  0  0  0  0  0  0  0  0  0  0  0
  160.2772  138.6776  163.3876 H   0  0  0  0  0  0  0  0  0  0  0  0
  158.6732  139.3853  163.2285 H   0  0  0  0  0  0  0  0  0  0  0  0
  160.6212  137.9822  160.3202 H   0  0  0  0  0  0  0  0  0  0  0  0
  160.0040  136.3374  160.4308 H   0  0  0  0  0  0  0  0  0  0  0  0
  161.1003  136.9482  161.6631 H   0  0  0  0  0  0  0  0  0  0  0  0
  158.1461  138.9349  160.2892 H   0  0  0  0  0  0  0  0  0  0  0  0
  157.7345  137.2350  160.1929 H   0  0  0  0  0  0  0  0  0  0  0  0
  154.4237  138.1370  157.8361 H   0  0  0  0  0  0  0  0  0  0  0  0
  153.7179  142.4478  162.5727 H   0  0  0  0  0  0  0  0  0  0  0  0
  151.5088  141.5902  159.9117 H   0  0  0  0  0  0  0  0  0  0  0  0
  153.6438  143.4507  158.8040 H   0  0  0  0  0  0  0  0  0  0  0  0
  152.2579  142.7061  157.9478 H   0  0  0  0  0  0  0  0  0  0  0  0
  153.2871  145.7056  159.4802 H   0  0  0  0  0  0  0  0  0  0  0  0
  151.9510  146.1414  158.4370 H   0  0  0  0  0  0  0  0  0  0  0  0
  151.1396  145.9815  160.9865 H   0  0  0  0  0  0  0  0  0  0  0  0
  150.2769  144.5506  157.8196 H   0  0  0  0  0  0  0  0  0  0  0  0
  149.7546  143.3326  158.9605 H   0  0  0  0  0  0  0  0  0  0  0  0
  148.8742  145.6640  158.8649 H   0  0  0  0  0  0  0  0  0  0  0  0
  150.8842  143.3655  161.3641 H   0  0  0  0  0  0  0  0  0  0  0  0
  152.5643  143.9713  161.4841 H   0  0  0  0  0  0  0  0  0  0  0  0
  1  2  1  0  0  0  0
  1 28  1  0  0  0  0
  1 29  1  0  0  0  0
  1 30  1  0  0  0  0
  2  3  1  0  0  0  0
  2 31  1  0  0  0  0
  2 32  1  0  0  0  0
  3 10  1  0  0  0  0
  3  4  1  0  0  0  0
  3 33  1  0  0  0  0
  4  5  1  0  0  0  0
  4 34  1  0  0  0  0
  4 35  1  0  0  0  0
  5  6  1  0  0  0  0
  6  7  1  0  0  0  0
  6  8  1  0  0  0  0
  6  9  1  0  0  0  0
  7 36  1  0  0  0  0
  7 37  1  0  0  0  0
  7 38  1  0  0  0  0
  8 39  1  0  0  0  0
  8 40  1  0  0  0  0
  8 41  1  0  0  0  0
  9 10  1  0  0  0  0
  9 42  1  0  0  0  0
  9 43  1  0  0  0  0
 10 11  1  0  0  0  0
 11 16  1  0  0  0  0
 11 12  2  0  0  0  0
 12 13  1  0  0  0  0
 13 14  2  0  0  0  0
 13 44  1  0  0  0  0
 14 15  1  0  0  0  0
 15 19  1  0  0  0  0
 15 16  2  0  0  0  0
 16 17  1  0  0  0  0
 17 18  2  0  0  0  0
 18 19  1  0  0  0  0
 18 45  1  0  0  0  0
 19 20  1  0  0  0  0
 20 27  1  0  0  0  0
 20 21  1  0  0  0  0
 20 46  1  0  0  0  0
 21 22  1  0  0  0  0
 21 47  1  0  0  0  0
 21 48  1  0  0  0  0
 22 23  1  0  0  0  0
 22 25  1  0  0  0  0
 22 27  1  0  0  0  0
 23 24  1  0  0  0  0
 23 49  1  0  0  0  0
 23 50  1  0  0  0  0
 24 51  1  0  0  0  0
 25 26  1  0  0  0  0
 25 52  1  0  0  0  0
 25 53  1  0  0  0  0
 26 54  1  0  0  0  0
 27 55  1  0  0  0  0
 27 56  1  0  0  0  0
M  END
> <s_m_source_file>
AV-unprocessed.smi

> <i_m_source_file_index>
151

> <i_lp_mmshare_version>
43012

> <i_f3d_flags>
0

> <s_epik_input>
W0NIM11DMShbQ0gzXSlPW0NIMl1bQ0BASF0oW0NIMl1bQ0gzXSlOKFtDSDJdMSljKG5bY0hdbjIpYyhjMjMpbltjSF1uM1tDSF0oW0NIMl00KVtDSDJdQzQoW0NIMl1bT0hdKVtDSDJdW09IXQ==

> <s_epik_cmdline>
J2VwaWtfcHl0aG9uJywgJy1waCcsICc3LjAnLCAnLXRuJywgJzgnLCAnLW1hJywgJzIwMCcsICctbWV0YWxfYmluZGluZycsICctaW1hZScsICc8aW5maWxlLm1hZT4nLCAnLW9tYWUnLCAnPG91dGZpbGUubWFlPic=

> <r_lp_tautomer_probability>
1

> <r_epik_Ionization_Penalty>
0.000102837

> <r_epik_Ionization_Penalty_Charging>
0

> <r_epik_Ionization_Penalty_Neutral>
0.000102837

> <r_epik_State_Penalty>
-0

> <r_epik_Charging_Adjusted_Penalty>
0

> <i_epik_Tot_Q>
0

> <i_epik_Tot_abs_Q>
0

> <r_epik_Metal_State_Penalty>
-0

> <b_epik_Metal_Only>
0

> <s_lp_Force_Field>
OPLS_2005

> <r_lp_Energy>
52.7657

> <b_lp_Chiralities_Consistent>
1

> <s_lp_Variant>
AV-unprocessed.smi:151-1

> <Gold.Version>
5.8.1

> <Gold.Id.Protein>
6NUR|6NUR_protein|mol2

> <Gold.PLP.Fitness>
46.1017

> <Gold.PLP.PLP>
-44.2938

> <Gold.PLP.part.hbond>
-7.2231

> <Gold.PLP.part.metal>
0.0000

> <Gold.PLP.part.buried>
-1.6142

> <Gold.PLP.part.nonpolar>
-34.2621

> <Gold.PLP.part.repulsive>
0.0000

> <Gold.PLP.ligand.clash>
0.0000

> <Gold.PLP.ligand.torsion>
0.8584

> <Gold.PLP.Chemscore.Hbond>
1.0000

> <Gold.PLP.Chemscore.CHOScore>
0.0000

> <Gold.PLP.Chemscore.Metal>
0.0000

> <Gold.Chemscore.Hbonds>
donor molecule, donor type, donor heavy atom, donor atom, acceptor molecule, acceptor atom, score
      L1  H    26    54       P1  8029  1.00

> <Gold.PLP.Chemscore.Internal.Correction>
0.5246

> <Gold.Rescore>
     Score         DG    S(hbond)    S(metal)    S(lipo)     H(rot)  DE(clash)    DE(int)     intcor
      9.77     -10.72       0.98        0.00      88.27       3.26       0.20       0.75       ----

> <Gold.Chemscore.Fitness>
9.7736

> <Gold.Chemscore.DG>
-10.7249

> <Gold.Chemscore.ZeroCoef>
-5.4800

> <Gold.Chemscore.Hbond>
0.9766

> <Gold.Chemscore.Metal>
0.0000

> <Gold.Chemscore.Lipo>
88.2724

> <Gold.Chemscore.Internal_Hbond>
0.0000

> <Gold.Chemscore.DEClash>
0.1973

> <Gold.Chemscore.DEInternal>
0.7540

> <Gold.Chemscore.Rot>
3.2596

> <Gold.Chemscore.Internal.Correction>
   9.000000E+99

> <Gold.Chemscore.Hbonds>
donor molecule, donor type, donor heavy atom, donor atom, acceptor molecule, acceptor atom, score
      L1  H    26    54       P1  8029  1.00

> <Gold.Chemscore.Hbond.Weighted>
-3.2618

> <Gold.Chemscore.Metal.Weighted>
-0.0000

> <Gold.Chemscore.Lipo.Weighted>
-10.3279

> <Gold.Chemscore.Internal_Hbond.Weighted>
0.0000

> <Gold.Chemscore.DEClash.Weighted>
0.1973

> <Gold.Chemscore.DEInternal.Weighted>
0.7540

> <Gold.Chemscore.Rot.Weighted>
8.3447

> <Gold.Chemscore.Internal.Correction.Weighted>
   9.000000E+99

> <Gold.Protein.RotatedTorsions>
[ 6907 6896 6895 6894 ] final  108.36 input  -60.11 | X-H torsion
[ 7974 7965 7964 7962 ] final  142.67 input  175.53 | X-H torsion
[ 8008 7997 7996 7995 ] final -108.47 input   59.86 | X-H torsion
[ 10167 10162 10161 10158 ] final  101.69 input  -65.29 | X-H torsion
[ 10718 10713 10712 10709 ] final -114.43 input   66.30 | X-H torsion
[ 10763 10752 10751 10750 ] final    1.35 input  -60.55 | X-H torsion
[ 11005 11000 10999 10996 ] final -147.06 input  -57.11 | X-H torsion

> <Gold.Protein.ActiveResidues>
 VAL166  LYS551  ARG553  GLY616  TRP617  ASP618  TYR619  PRO620  LYS621  CYS622 
 ASP623  PHE694  ASN695  SER759  ASP760  ASP761  ALA762  ILE779  LEU786  VAL792 
 PHE793  MET794  SER795  GLU796  ALA797  LYS798  CYS799  TRP800  GLU811  SER814 

> <Gold.Protein.RotatedAtoms>
  152.5115  133.9100  159.7482 H   0  0  0  0  0  0  0  0  0  0  0  0  # atno 6907 bound_to 6896
  150.9495  133.6556  159.2781 H   0  0  0  0  0  0  0  0  0  0  0  0  # atno 6908 bound_to 6896
  151.3839  135.0949  159.9557 H   0  0  0  0  0  0  0  0  0  0  0  0  # atno 6909 bound_to 6896
  144.8987  139.5453  143.5764 H   0  0  0  0  0  0  0  0  0  0  0  0  # atno 7974 bound_to 7965
  154.9448  140.0402  157.2115 H   0  0  0  0  0  0  0  0  0  0  0  0  # atno 8008 bound_to 7997
  154.8035  140.2856  155.5883 H   0  0  0  0  0  0  0  0  0  0  0  0  # atno 8009 bound_to 7997
  156.2964  140.2550  156.2908 H   0  0  0  0  0  0  0  0  0  0  0  0  # atno 8010 bound_to 7997
  139.7416  144.7010  151.0567 H   0  0  0  0  0  0  0  0  0  0  0  0  # atno 10167 bound_to 10162
  156.0830  130.6026  150.8774 H   0  0  0  0  0  0  0  0  0  0  0  0  # atno 10718 bound_to 10713
  153.3091  135.6961  153.7132 H   0  0  0  0  0  0  0  0  0  0  0  0  # atno 10763 bound_to 10752
  153.6016  135.3461  155.2948 H   0  0  0  0  0  0  0  0  0  0  0  0  # atno 10764 bound_to 10752
  154.8570  135.4342  154.2224 H   0  0  0  0  0  0  0  0  0  0  0  0  # atno 10765 bound_to 10752
  140.7756  134.3139  157.5061 H   0  0  0  0  0  0  0  0  0  0  0  0  # atno 11005 bound_to 11000
  146.3096  139.7700  142.9030 LP  0  0  0  0  0  0  0  0  0  0  0  0  # atno 17320 bound_to 7965
  145.3654  141.0333  143.3261 LP  0  0  0  0  0  0  0  0  0  0  0  0  # atno 17321 bound_to 7965
  140.7786  143.4918  150.9883 LP  0  0  0  0  0  0  0  0  0  0  0  0  # atno 17342 bound_to 10162
  139.8606  143.7319  152.3173 LP  0  0  0  0  0  0  0  0  0  0  0  0  # atno 17343 bound_to 10162
  157.5954  131.0943  150.9050 LP  0  0  0  0  0  0  0  0  0  0  0  0  # atno 17370 bound_to 10713
  156.9218  130.5318  149.5279 LP  0  0  0  0  0  0  0  0  0  0  0  0  # atno 17371 bound_to 10713
  139.8749  134.9287  156.3458 LP  0  0  0  0  0  0  0  0  0  0  0  0  # atno 17394 bound_to 11000
  140.9532  133.7437  156.0300 LP  0  0  0  0  0  0  0  0  0  0  0  0  # atno 17395 bound_to 11000

$$$$
