AV-unprocessed.smi:3009|AV-procd|sdf|11451|dock8
  -GOLD-   2272016383D 1   1.00000     0.00000
 Structure written by MMmdl.
 44 45  0  0  0  0  0  0  0  0  2 V2000
  151.6444  140.7477  155.7836 C   0  0  0  0  0  0  0  0  0  0  0  0
  151.5671  139.2962  155.2814 C   0  0  0  0  0  0  0  0  0  0  0  0
  152.8640  138.9124  154.5533 C   0  0  0  0  0  0  0  0  0  0  0  0
  150.3450  139.0676  154.3658 C   0  0  0  0  0  0  0  0  0  0  0  0
  149.0483  139.3646  155.0342 N   0  3  1  0  0  0  0  0  0  0  0  0
  148.6974  140.8055  155.0314 C   0  0  0  0  0  0  0  0  0  0  0  0
  148.1521  141.2410  153.6596 C   0  0  0  0  0  0  0  0  0  0  0  0
  147.0296  140.4362  153.3210 O   0  0  0  0  0  0  0  0  0  0  0  0
  147.3634  139.0564  153.2014 C   0  0  2  0  0  0  0  0  0  0  0  0
  146.1029  138.2900  152.7626 C   0  0  0  0  0  0  0  0  0  0  0  0
  146.4176  136.9308  152.3353 N   0  0  0  0  0  0  0  0  0  0  0  0
  145.5097  135.9719  152.1057 C   0  0  0  0  0  0  0  0  0  0  0  0
  144.2962  136.1452  152.2236 O   0  0  0  0  0  0  0  0  0  0  0  0
  146.0950  134.8176  151.7482 N   0  0  0  0  0  0  0  0  0  0  0  0
  145.4566  133.5903  151.4378 C   0  0  0  0  0  0  0  0  0  0  0  0
  144.0705  133.4469  151.1584 C   0  0  0  0  0  0  0  0  0  0  0  0
  143.7563  132.1846  150.9046 N   0  0  0  0  0  0  0  0  0  0  0  0
  144.9278  131.5201  151.0238 N   0  0  0  0  0  0  0  0  0  0  0  0
  145.9898  132.3348  151.3487 C   0  0  0  0  0  0  0  0  0  0  0  0
  147.8973  138.5528  154.5603 C   0  0  0  0  0  0  0  0  0  0  0  0
  144.9855  130.5214  150.8840 H   0  0  0  0  0  0  0  0  0  0  0  0
  151.7276  141.4506  154.9540 H   0  0  0  0  0  0  0  0  0  0  0  0
  152.5113  140.8926  156.4288 H   0  0  0  0  0  0  0  0  0  0  0  0
  150.7616  141.0187  156.3632 H   0  0  0  0  0  0  0  0  0  0  0  0
  151.4934  138.6445  156.1513 H   0  0  0  0  0  0  0  0  0  0  0  0
  153.0197  139.5282  153.6670 H   0  0  0  0  0  0  0  0  0  0  0  0
  152.8433  137.8699  154.2345 H   0  0  0  0  0  0  0  0  0  0  0  0
  153.7314  139.0388  155.2019 H   0  0  0  0  0  0  0  0  0  0  0  0
  150.4545  139.7117  153.4919 H   0  0  0  0  0  0  0  0  0  0  0  0
  150.3441  138.0472  153.9830 H   0  0  0  0  0  0  0  0  0  0  0  0
  147.9339  140.9742  155.7920 H   0  0  0  0  0  0  0  0  0  0  0  0
  149.5552  141.4136  155.3207 H   0  0  0  0  0  0  0  0  0  0  0  0
  147.8375  142.2841  153.6968 H   0  0  0  0  0  0  0  0  0  0  0  0
  148.9178  141.1687  152.8859 H   0  0  0  0  0  0  0  0  0  0  0  0
  148.1319  138.9363  152.4372 H   0  0  0  0  0  0  0  0  0  0  0  0
  145.3772  138.2553  153.5771 H   0  0  0  0  0  0  0  0  0  0  0  0
  145.6153  138.8090  151.9368 H   0  0  0  0  0  0  0  0  0  0  0  0
  147.3941  136.7043  152.2146 H   0  0  0  0  0  0  0  0  0  0  0  0
  147.1035  134.8116  151.7033 H   0  0  0  0  0  0  0  0  0  0  0  0
  143.2980  134.2013  151.1303 H   0  0  0  0  0  0  0  0  0  0  0  0
  146.9911  131.9534  151.4827 H   0  0  0  0  0  0  0  0  0  0  0  0
  148.1585  137.4971  154.5021 H   0  0  0  0  0  0  0  0  0  0  0  0
  147.1059  138.6256  155.3075 H   0  0  0  0  0  0  0  0  0  0  0  0
  149.1942  139.1200  156.0035 H   0  0  0  0  0  0  0  0  0  0  0  0
  1  2  1  0  0  0  0
  1 22  1  0  0  0  0
  1 23  1  0  0  0  0
  1 24  1  0  0  0  0
  2  3  1  0  0  0  0
  2  4  1  0  0  0  0
  2 25  1  0  0  0  0
  3 26  1  0  0  0  0
  3 27  1  0  0  0  0
  3 28  1  0  0  0  0
  4  5  1  0  0  0  0
  4 29  1  0  0  0  0
  4 30  1  0  0  0  0
  5 20  1  0  0  0  0
  5  6  1  0  0  0  0
  5 44  1  0  0  0  0
  6  7  1  0  0  0  0
  6 31  1  0  0  0  0
  6 32  1  0  0  0  0
  7  8  1  0  0  0  0
  7 33  1  0  0  0  0
  7 34  1  0  0  0  0
  8  9  1  0  0  0  0
  9 10  1  0  0  0  0
  9 20  1  0  0  0  0
  9 35  1  0  0  0  0
 10 11  1  0  0  0  0
 10 36  1  0  0  0  0
 10 37  1  0  0  0  0
 11 12  1  0  0  0  0
 11 38  1  0  0  0  0
 12 13  2  0  0  0  0
 12 14  1  0  0  0  0
 14 15  1  0  0  0  0
 14 39  1  0  0  0  0
 15 19  2  0  0  0  0
 15 16  1  0  0  0  0
 16 17  2  0  0  0  0
 16 40  1  0  0  0  0
 17 18  1  0  0  0  0
 18 21  1  0  0  0  0
 18 19  1  0  0  0  0
 19 41  1  0  0  0  0
 20 42  1  0  0  0  0
 20 43  1  0  0  0  0
M  CHG  1   5   1
M  END
> <s_m_source_file>
AV-unprocessed.smi

> <i_m_source_file_index>
3009

> <i_lp_mmshare_version>
43012

> <i_f3d_flags>
0

> <s_epik_input>
W0NIM11bQ0hdKFtDSDNdKVtDSDJdTjFbQ0gyXVtDSDJdT1tDQEhdKFtDSDJdMSlbQ0gyXVtOSF1DKD1PKVtOSF1jMltjSF1uW25IXVtjSF0y

> <s_epik_cmdline>
J2VwaWtfcHl0aG9uJywgJy1waCcsICc3LjAnLCAnLXRuJywgJzgnLCAnLW1hJywgJzIwMCcsICctbWV0YWxfYmluZGluZycsICctaW1hZScsICc8aW5maWxlLm1hZT4nLCAnLW9tYWUnLCAnPG91dGZpbGUubWFlPic=

> <r_lp_tautomer_probability>
0.5

> <r_epik_Ionization_Penalty>
0.0974064

> <r_epik_Ionization_Penalty_Charging>
0.0973651

> <r_epik_Ionization_Penalty_Neutral>
4.13573e-05

> <r_epik_State_Penalty>
0.0874853

> <r_epik_Charging_Adjusted_Penalty>
0.18485

> <i_epik_Tot_Q>
1

> <i_epik_Tot_abs_Q>
1

> <r_epik_Metal_State_Penalty>
0.0874855

> <b_epik_Metal_Only>
0

> <s_lp_Force_Field>
OPLS_2005

> <r_lp_Energy>
21.5437

> <b_lp_Chiralities_Consistent>
1

> <s_lp_Variant>
AV-unprocessed.smi:3009-3

> <Gold.Version>
5.8.1

> <Gold.Id.Protein>
6NUR|6NUR_protein|mol2

> <Gold.PLP.Fitness>
44.0956

> <Gold.PLP.PLP>
-34.5255

> <Gold.PLP.part.hbond>
-2.0000

> <Gold.PLP.part.metal>
0.0000

> <Gold.PLP.part.buried>
-5.1131

> <Gold.PLP.part.nonpolar>
-29.1221

> <Gold.PLP.part.repulsive>
1.5863

> <Gold.PLP.ligand.clash>
0.0000

> <Gold.PLP.ligand.torsion>
0.4994

> <Gold.PLP.Chemscore.Hbond>
1.6578

> <Gold.PLP.Chemscore.CHOScore>
1.8490

> <Gold.PLP.Chemscore.Metal>
0.0000

> <Gold.Chemscore.Hbonds>
donor molecule, donor type, donor heavy atom, donor atom, acceptor molecule, acceptor atom, score
      L1  H    11    38       P1  7948  1.00
      L1  H    14    39       P1  7948  0.30
      L1  C    16    40       P1 10186  0.37
      L1  C    19    41       P1 10747  0.90

> <Gold.PLP.Chemscore.Internal.Correction>
0.0485

> <Gold.Rescore>
     Score         DG    S(hbond)    S(metal)    S(lipo)     H(rot)  DE(clash)    DE(int)     intcor
     13.73     -15.92       1.85        0.00      75.71       1.80       0.08       2.11       ----

> <Gold.Chemscore.Fitness>
13.7310

> <Gold.Chemscore.DG>
-15.9245

> <Gold.Chemscore.ZeroCoef>
-5.4800

> <Gold.Chemscore.Hbond>
1.8518

> <Gold.Chemscore.Metal>
0.0000

> <Gold.Chemscore.Lipo>
75.7099

> <Gold.Chemscore.Internal_Hbond>
0.0000

> <Gold.Chemscore.DEClash>
0.0826

> <Gold.Chemscore.DEInternal>
2.1109

> <Gold.Chemscore.Rot>
1.7963

> <Gold.Chemscore.Internal.Correction>
   9.000000E+99

> <Gold.Chemscore.Hbonds>
donor molecule, donor type, donor heavy atom, donor atom, acceptor molecule, acceptor atom, score
      L1  H    11    38       P1  7948  1.00
      L1  H    14    39       P1  7948  0.24

> <Gold.Chemscore.Hbond.Weighted>
-6.1850

> <Gold.Chemscore.Metal.Weighted>
-0.0000

> <Gold.Chemscore.Lipo.Weighted>
-8.8581

> <Gold.Chemscore.Internal_Hbond.Weighted>
0.0000

> <Gold.Chemscore.DEClash.Weighted>
0.0826

> <Gold.Chemscore.DEInternal.Weighted>
2.1109

> <Gold.Chemscore.Rot.Weighted>
4.5985

> <Gold.Chemscore.Internal.Correction.Weighted>
   9.000000E+99

> <Gold.Protein.RotatedTorsions>
[ 6907 6896 6895 6894 ] final  153.63 input  -60.11 | X-H torsion
[ 7974 7965 7964 7962 ] final   96.35 input  175.53 | X-H torsion
[ 8008 7997 7996 7995 ] final -139.09 input   59.86 | X-H torsion
[ 10167 10162 10161 10158 ] final   78.76 input  -65.29 | X-H torsion
[ 10718 10713 10712 10709 ] final  -11.18 input   66.30 | X-H torsion
[ 10763 10752 10751 10750 ] final -149.42 input  -60.55 | X-H torsion
[ 11005 11000 10999 10996 ] final   20.39 input  -57.11 | X-H torsion

> <Gold.Protein.ActiveResidues>
 VAL166  LYS551  ARG553  GLY616  TRP617  ASP618  TYR619  PRO620  LYS621  CYS622 
 ASP623  PHE694  ASN695  SER759  ASP760  ASP761  ALA762  ILE779  LEU786  VAL792 
 PHE793  MET794  SER795  GLU796  ALA797  LYS798  CYS799  TRP800  GLU811  SER814 

> <Gold.Protein.RotatedAtoms>
  152.0699  133.4101  159.4454 H   0  0  0  0  0  0  0  0  0  0  0  0  # atno 6907 bound_to 6896
  150.6864  134.3104  159.4753 H   0  0  0  0  0  0  0  0  0  0  0  0  # atno 6908 bound_to 6896
  152.0934  134.9391  160.0622 H   0  0  0  0  0  0  0  0  0  0  0  0  # atno 6909 bound_to 6896
  145.4400  139.2302  143.3097 H   0  0  0  0  0  0  0  0  0  0  0  0  # atno 7974 bound_to 7965
  155.4391  140.0530  157.3012 H   0  0  0  0  0  0  0  0  0  0  0  0  # atno 8008 bound_to 7997
  154.4826  140.2087  155.9686 H   0  0  0  0  0  0  0  0  0  0  0  0  # atno 8009 bound_to 7997
  156.1228  140.3185  155.8238 H   0  0  0  0  0  0  0  0  0  0  0  0  # atno 8010 bound_to 7997
  139.9675  144.5918  150.8015 H   0  0  0  0  0  0  0  0  0  0  0  0  # atno 10167 bound_to 10162
  156.6627  130.4986  149.6025 H   0  0  0  0  0  0  0  0  0  0  0  0  # atno 10718 bound_to 10713
  154.8178  135.3309  154.7126 H   0  0  0  0  0  0  0  0  0  0  0  0  # atno 10763 bound_to 10752
  153.7763  135.6922  153.4901 H   0  0  0  0  0  0  0  0  0  0  0  0  # atno 10764 bound_to 10752
  153.2010  135.4516  155.0214 H   0  0  0  0  0  0  0  0  0  0  0  0  # atno 10765 bound_to 10752
  140.4032  134.1697  155.7664 H   0  0  0  0  0  0  0  0  0  0  0  0  # atno 11005 bound_to 11000
  146.2561  140.5147  142.8873 LP  0  0  0  0  0  0  0  0  0  0  0  0  # atno 17320 bound_to 7965
  144.8127  140.6415  143.6404 LP  0  0  0  0  0  0  0  0  0  0  0  0  # atno 17321 bound_to 7965
  140.7533  143.3005  151.3091 LP  0  0  0  0  0  0  0  0  0  0  0  0  # atno 17342 bound_to 10162
  139.6506  144.0369  152.2623 LP  0  0  0  0  0  0  0  0  0  0  0  0  # atno 17343 bound_to 10162
  156.1999  130.6613  151.1155 LP  0  0  0  0  0  0  0  0  0  0  0  0  # atno 17370 bound_to 10713
  157.7104  131.0737  150.6520 LP  0  0  0  0  0  0  0  0  0  0  0  0  # atno 17371 bound_to 10713
  141.1849  133.8334  157.1123 LP  0  0  0  0  0  0  0  0  0  0  0  0  # atno 17394 bound_to 11000
  140.0321  134.9896  157.0801 LP  0  0  0  0  0  0  0  0  0  0  0  0  # atno 17395 bound_to 11000

$$$$
