AV-unprocessed.smi:2664|AV-procd|sdf|10328|dock2
  -GOLD-   2272014343D 1   1.00000     0.00000
 Structure written by MMmdl.
 44 45  0  0  0  0  0  0  0  0  2 V2000
  145.2515  138.1280  153.9355 O   0  0  0  0  0  0  0  0  0  0  0  0
  146.2310  137.5972  153.4132 C   0  0  0  0  0  0  0  0  0  0  0  0
  147.4391  138.1697  153.2725 N   0  0  0  0  0  0  0  0  0  0  0  0
  147.8731  139.4474  153.7201 C   0  0  0  0  0  0  0  0  0  0  0  0
  146.9832  140.5325  153.5583 C   0  0  0  0  0  0  0  0  0  0  0  0
  147.3758  141.8223  153.9705 C   0  0  0  0  0  0  0  0  0  0  0  0
  148.5998  142.0130  154.5076 N   0  3  0  0  0  0  0  0  0  0  0  0
  149.4897  141.0106  154.6702 C   0  0  0  0  0  0  0  0  0  0  0  0
  149.1538  139.6994  154.2756 C   0  0  0  0  0  0  0  0  0  0  0  0
  146.2184  136.3623  152.8883 N   0  0  0  0  0  0  0  0  0  0  0  0
  145.0756  135.4442  152.8695 C   0  0  2  0  0  0  0  0  0  0  0  0
  145.1008  134.5849  154.1592 C   0  0  0  0  0  0  0  0  0  0  0  0
  144.2089  135.0977  155.3061 C   0  0  0  0  0  0  0  0  0  0  0  0
  142.8598  134.7479  155.0806 O   0  0  0  0  0  0  0  0  0  0  0  0
  145.0893  134.6015  151.5608 C   0  0  0  0  0  0  0  0  0  0  0  0
  143.8154  133.7296  151.4091 C   0  0  0  0  0  0  0  0  0  0  0  0
  143.8273  132.8922  150.1202 C   0  0  0  0  0  0  0  0  0  0  0  0
  145.0761  132.0060  150.0433 C   0  0  0  0  0  0  0  0  0  0  0  0
  146.3475  132.8543  150.1657 C   0  0  0  0  0  0  0  0  0  0  0  0
  146.3409  133.6951  151.4527 C   0  0  0  0  0  0  0  0  0  0  0  0
  148.1178  137.6429  152.7424 H   0  0  0  0  0  0  0  0  0  0  0  0
  146.0041  140.3808  153.1272 H   0  0  0  0  0  0  0  0  0  0  0  0
  146.7525  142.7006  153.8855 H   0  0  0  0  0  0  0  0  0  0  0  0
  150.4409  141.2859  155.1021 H   0  0  0  0  0  0  0  0  0  0  0  0
  149.8892  138.9189  154.3961 H   0  0  0  0  0  0  0  0  0  0  0  0
  147.0719  136.0187  152.4730 H   0  0  0  0  0  0  0  0  0  0  0  0
  144.1461  136.0159  152.8748 H   0  0  0  0  0  0  0  0  0  0  0  0
  144.7926  133.5637  153.9401 H   0  0  0  0  0  0  0  0  0  0  0  0
  146.1276  134.5167  154.5206 H   0  0  0  0  0  0  0  0  0  0  0  0
  144.5247  134.6489  156.2481 H   0  0  0  0  0  0  0  0  0  0  0  0
  144.2908  136.1774  155.4307 H   0  0  0  0  0  0  0  0  0  0  0  0
  142.8202  133.8336  154.8442 H   0  0  0  0  0  0  0  0  0  0  0  0
  145.1115  135.2964  150.7197 H   0  0  0  0  0  0  0  0  0  0  0  0
  143.7207  133.0675  152.2710 H   0  0  0  0  0  0  0  0  0  0  0  0
  142.9190  134.3492  151.4000 H   0  0  0  0  0  0  0  0  0  0  0  0
  142.9306  132.2739  150.0709 H   0  0  0  0  0  0  0  0  0  0  0  0
  143.7943  133.5543  149.2540 H   0  0  0  0  0  0  0  0  0  0  0  0
  145.0506  131.2621  150.8408 H   0  0  0  0  0  0  0  0  0  0  0  0
  145.0850  131.4543  149.1029 H   0  0  0  0  0  0  0  0  0  0  0  0
  147.2264  132.2091  150.1491 H   0  0  0  0  0  0  0  0  0  0  0  0
  146.4319  133.5129  149.3006 H   0  0  0  0  0  0  0  0  0  0  0  0
  147.2531  134.2891  151.4623 H   0  0  0  0  0  0  0  0  0  0  0  0
  146.3923  133.0342  152.3191 H   0  0  0  0  0  0  0  0  0  0  0  0
  148.8653  142.9544  154.7983 H   0  0  0  0  0  0  0  0  0  0  0  0
  1  2  2  0  0  0  0
  2  3  1  0  0  0  0
  2 10  1  0  0  0  0
  3  4  1  0  0  0  0
  3 21  1  0  0  0  0
  4  9  1  0  0  0  0
  4  5  2  0  0  0  0
  5  6  1  0  0  0  0
  5 22  1  0  0  0  0
  6  7  2  0  0  0  0
  6 23  1  0  0  0  0
  7  8  1  0  0  0  0
  7 44  1  0  0  0  0
  8  9  2  0  0  0  0
  8 24  1  0  0  0  0
  9 25  1  0  0  0  0
 10 11  1  0  0  0  0
 10 26  1  0  0  0  0
 11 12  1  0  0  0  0
 11 15  1  0  0  0  0
 11 27  1  0  0  0  0
 12 13  1  0  0  0  0
 12 28  1  0  0  0  0
 12 29  1  0  0  0  0
 13 14  1  0  0  0  0
 13 30  1  0  0  0  0
 13 31  1  0  0  0  0
 14 32  1  0  0  0  0
 15 20  1  0  0  0  0
 15 16  1  0  0  0  0
 15 33  1  0  0  0  0
 16 17  1  0  0  0  0
 16 34  1  0  0  0  0
 16 35  1  0  0  0  0
 17 18  1  0  0  0  0
 17 36  1  0  0  0  0
 17 37  1  0  0  0  0
 18 19  1  0  0  0  0
 18 38  1  0  0  0  0
 18 39  1  0  0  0  0
 19 20  1  0  0  0  0
 19 40  1  0  0  0  0
 19 41  1  0  0  0  0
 20 42  1  0  0  0  0
 20 43  1  0  0  0  0
M  CHG  1   7   1
M  END
> <s_m_source_file>
AV-unprocessed.smi

> <i_m_source_file_index>
2664

> <i_lp_mmshare_version>
43012

> <i_f3d_flags>
0

> <s_epik_input>
W2NIXTFbY0hdbltjSF1bY0hdYzFbTkhdQyg9TylbTkhdW0NASF0oW0NIMl1bQ0gyXVtPSF0pW0NIXTJbQ0gyXVtDSDJdW0NIMl1bQ0gyXVtDSDJdMg==

> <s_epik_cmdline>
J2VwaWtfcHl0aG9uJywgJy1waCcsICc3LjAnLCAnLXRuJywgJzgnLCAnLW1hJywgJzIwMCcsICctbWV0YWxfYmluZGluZycsICctaW1hZScsICc8aW5maWxlLm1hZT4nLCAnLW9tYWUnLCAnPG91dGZpbGUubWFlPic=

> <r_epik_Ionization_Penalty>
1.0085

> <r_epik_Ionization_Penalty_Charging>
1.00848

> <r_epik_Ionization_Penalty_Neutral>
2.14516e-05

> <r_epik_State_Penalty>
1.05769

> <r_epik_Charging_Adjusted_Penalty>
2.06617

> <i_epik_Tot_Q>
1

> <i_epik_Tot_abs_Q>
1

> <r_epik_Metal_State_Penalty>
1.15842

> <b_epik_Metal_Only>
0

> <s_lp_Force_Field>
OPLS_2005

> <r_lp_Energy>
27.8621

> <b_lp_Chiralities_Consistent>
1

> <s_lp_Variant>
AV-unprocessed.smi:2664-3

> <Gold.Version>
5.8.1

> <Gold.Id.Protein>
6NUR|6NUR_protein|mol2

> <Gold.PLP.Fitness>
48.1780

> <Gold.PLP.PLP>
-35.7266

> <Gold.PLP.part.hbond>
-5.0000

> <Gold.PLP.part.metal>
0.0000

> <Gold.PLP.part.buried>
-4.3455

> <Gold.PLP.part.nonpolar>
-27.1584

> <Gold.PLP.part.repulsive>
0.3920

> <Gold.PLP.ligand.clash>
0.0000

> <Gold.PLP.ligand.torsion>
1.3141

> <Gold.PLP.Chemscore.Hbond>
5.0000

> <Gold.PLP.Chemscore.CHOScore>
0.0000

> <Gold.PLP.Chemscore.Metal>
0.0000

> <Gold.Chemscore.Hbonds>
donor molecule, donor type, donor heavy atom, donor atom, acceptor molecule, acceptor atom, score
      L1  H     3    21       P1  7948  1.00
      L1  H     7    44       P1  8028  2.00
      L1  H    10    26       P1  7948  1.00
      L1  H    14    32       P1 10957  0.91

> <Gold.PLP.Chemscore.Internal.Correction>
0.0795

> <Gold.Rescore>
     Score         DG    S(hbond)    S(metal)    S(lipo)     H(rot)  DE(clash)    DE(int)     intcor
     20.57     -23.19       3.95        0.00      88.26       2.27       0.15       2.47       ----

> <Gold.Chemscore.Fitness>
20.5664

> <Gold.Chemscore.DG>
-23.1862

> <Gold.Chemscore.ZeroCoef>
-5.4800

> <Gold.Chemscore.Hbond>
3.9519

> <Gold.Chemscore.Metal>
0.0000

> <Gold.Chemscore.Lipo>
88.2559

> <Gold.Chemscore.Internal_Hbond>
0.0000

> <Gold.Chemscore.DEClash>
0.1481

> <Gold.Chemscore.DEInternal>
2.4716

> <Gold.Chemscore.Rot>
2.2731

> <Gold.Chemscore.Internal.Correction>
   9.000000E+99

> <Gold.Chemscore.Hbonds>
donor molecule, donor type, donor heavy atom, donor atom, acceptor molecule, acceptor atom, score
      L1  H     3    21       P1  7948  1.00
      L1  H     7    44       P1  8028  0.99
      L1  H    10    26       P1  7948  0.95
      L1  H    14    32       P1 10957  0.87

> <Gold.Chemscore.Hbond.Weighted>
-13.1995

> <Gold.Chemscore.Metal.Weighted>
-0.0000

> <Gold.Chemscore.Lipo.Weighted>
-10.3259

> <Gold.Chemscore.Internal_Hbond.Weighted>
0.0000

> <Gold.Chemscore.DEClash.Weighted>
0.1481

> <Gold.Chemscore.DEInternal.Weighted>
2.4716

> <Gold.Chemscore.Rot.Weighted>
5.8192

> <Gold.Chemscore.Internal.Correction.Weighted>
   9.000000E+99

> <Gold.Protein.RotatedTorsions>
[ 6907 6896 6895 6894 ] final  137.01 input  -60.11 | X-H torsion
[ 7974 7965 7964 7962 ] final  -40.86 input  175.53 | X-H torsion
[ 8008 7997 7996 7995 ] final   -9.83 input   59.86 | X-H torsion
[ 10167 10162 10161 10158 ] final  -64.68 input  -65.29 | X-H torsion
[ 10718 10713 10712 10709 ] final  139.41 input   66.30 | X-H torsion
[ 10763 10752 10751 10750 ] final  -50.02 input  -60.55 | X-H torsion
[ 11005 11000 10999 10996 ] final    9.95 input  -57.11 | X-H torsion

> <Gold.Protein.ActiveResidues>
 VAL166  LYS551  ARG553  GLY616  TRP617  ASP618  TYR619  PRO620  LYS621  CYS622 
 ASP623  PHE694  ASN695  SER759  ASP760  ASP761  ALA762  ILE779  LEU786  VAL792 
 PHE793  MET794  SER795  GLU796  ALA797  LYS798  CYS799  TRP800  GLU811  SER814 

> <Gold.Protein.RotatedAtoms>
  152.2830  133.5488  159.5509 H   0  0  0  0  0  0  0  0  0  0  0  0  # atno 6907 bound_to 6896
  150.7203  134.0537  159.3816 H   0  0  0  0  0  0  0  0  0  0  0  0  # atno 6908 bound_to 6896
  151.8447  135.0578  160.0503 H   0  0  0  0  0  0  0  0  0  0  0  0  # atno 6909 bound_to 6896
  146.0265  140.6785  142.9153 H   0  0  0  0  0  0  0  0  0  0  0  0  # atno 7974 bound_to 7965
  154.5611  140.2345  155.8335 H   0  0  0  0  0  0  0  0  0  0  0  0  # atno 8008 bound_to 7997
  156.2030  140.3047  155.9525 H   0  0  0  0  0  0  0  0  0  0  0  0  # atno 8009 bound_to 7997
  155.2888  140.0426  157.3012 H   0  0  0  0  0  0  0  0  0  0  0  0  # atno 8010 bound_to 7997
  140.5783  143.2324  151.6395 H   0  0  0  0  0  0  0  0  0  0  0  0  # atno 10167 bound_to 10162
  157.4147  131.1032  151.0417 H   0  0  0  0  0  0  0  0  0  0  0  0  # atno 10718 bound_to 10713
  154.1036  135.6559  153.4872 H   0  0  0  0  0  0  0  0  0  0  0  0  # atno 10763 bound_to 10752
  153.0280  135.5231  154.7262 H   0  0  0  0  0  0  0  0  0  0  0  0  # atno 10764 bound_to 10752
  154.6421  135.2989  155.0060 H   0  0  0  0  0  0  0  0  0  0  0  0  # atno 10765 bound_to 10752
  140.5200  134.0568  155.7842 H   0  0  0  0  0  0  0  0  0  0  0  0  # atno 11005 bound_to 11000
  144.7012  140.3659  143.7155 LP  0  0  0  0  0  0  0  0  0  0  0  0  # atno 17320 bound_to 7965
  145.7109  139.1684  143.2539 LP  0  0  0  0  0  0  0  0  0  0  0  0  # atno 17321 bound_to 7965
  139.5155  144.3375  152.0770 LP  0  0  0  0  0  0  0  0  0  0  0  0  # atno 17342 bound_to 10162
  140.2522  144.4157  150.6217 LP  0  0  0  0  0  0  0  0  0  0  0  0  # atno 17343 bound_to 10162
  157.1369  130.6126  149.5544 LP  0  0  0  0  0  0  0  0  0  0  0  0  # atno 17370 bound_to 10713
  155.9861  130.4895  150.7065 LP  0  0  0  0  0  0  0  0  0  0  0  0  # atno 17371 bound_to 10713
  141.1339  133.9255  157.2476 LP  0  0  0  0  0  0  0  0  0  0  0  0  # atno 17394 bound_to 11000
  139.9611  135.0154  156.9263 LP  0  0  0  0  0  0  0  0  0  0  0  0  # atno 17395 bound_to 11000

$$$$
