AV-unprocessed.smi:701|AV-procd|sdf|3411|dock1
  -GOLD-   22720 0393D 1   1.00000     0.00000
 Structure written by MMmdl.
 49 51  0  0  0  0  0  0  0  0  1 V2000
  152.8424  143.5673  159.5635 C   0  0  0  0  0  0  0  0  0  0  0  0
  152.7282  142.0934  159.1690 C   0  0  0  0  0  0  0  0  0  0  0  0
  151.8576  141.9843  158.0553 O   0  0  0  0  0  0  0  0  0  0  0  0
  151.5761  140.6382  157.7056 C   0  0  1  0  0  0  0  0  0  0  0  0
  150.7710  139.8617  158.7514 C   0  0  0  0  0  0  0  0  0  0  0  0
  149.9657  139.2701  157.5901 C   0  0  2  0  0  0  0  0  0  0  0  0
  150.5454  138.0006  157.1491 N   0  0  0  0  0  0  0  0  0  0  0  0
  150.6908  136.9106  157.9160 C   0  0  0  0  0  0  0  0  0  0  0  0
  150.3392  136.8604  159.0952 O   0  0  0  0  0  0  0  0  0  0  0  0
  151.2971  135.6779  157.2328 C   0  0  0  0  0  0  0  0  0  0  0  0
  150.3993  135.0933  156.2272 N   0  0  0  0  0  0  0  0  0  0  0  0
  149.9148  133.8024  156.3838 C   0  0  0  0  0  0  0  0  0  0  0  0
  149.0899  133.2029  155.4929 C   0  0  0  0  0  0  0  0  0  0  0  0
  148.6608  133.9104  154.2912 C   0  0  0  0  0  0  0  0  0  0  0  0
  147.9136  133.4545  153.4286 O   0  0  0  0  0  0  0  0  0  0  0  0
  149.1730  135.2045  154.1677 N   0  0  0  0  0  0  0  0  0  0  0  0
  150.0258  135.8271  155.0803 C   0  0  0  0  0  0  0  0  0  0  0  0
  150.4243  136.9727  154.8726 O   0  0  0  0  0  0  0  0  0  0  0  0
  150.3904  140.4909  156.7210 C   0  0  0  0  0  0  0  0  0  0  0  0
  149.3772  141.6564  156.7225 C   0  0  0  0  0  0  0  0  0  0  0  0
  148.1376  141.3735  155.8553 C   0  0  0  0  0  0  0  0  0  0  0  0
  148.5312  141.0507  154.4082 C   0  0  0  0  0  0  0  0  0  0  0  0
  149.5722  139.9258  154.3545 C   0  0  0  0  0  0  0  0  0  0  0  0
  150.7813  140.2484  155.2489 C   0  0  0  0  0  0  0  0  0  0  0  0
  148.9053  135.7317  153.3492 H   0  0  0  0  0  0  0  0  0  0  0  0
  153.5004  143.6910  160.4239 H   0  0  0  0  0  0  0  0  0  0  0  0
  151.8672  143.9779  159.8259 H   0  0  0  0  0  0  0  0  0  0  0  0
  153.2476  144.1609  158.7438 H   0  0  0  0  0  0  0  0  0  0  0  0
  153.7129  141.6975  158.9163 H   0  0  0  0  0  0  0  0  0  0  0  0
  152.3446  141.5136  160.0095 H   0  0  0  0  0  0  0  0  0  0  0  0
  152.4600  140.0924  157.3681 H   0  0  0  0  0  0  0  0  0  0  0  0
  151.3513  139.1445  159.3333 H   0  0  0  0  0  0  0  0  0  0  0  0
  150.1724  140.5071  159.3959 H   0  0  0  0  0  0  0  0  0  0  0  0
  148.8969  139.2304  157.8055 H   0  0  0  0  0  0  0  0  0  0  0  0
  150.8567  137.9500  156.1900 H   0  0  0  0  0  0  0  0  0  0  0  0
  152.2385  135.9797  156.7710 H   0  0  0  0  0  0  0  0  0  0  0  0
  151.5704  134.9265  157.9767 H   0  0  0  0  0  0  0  0  0  0  0  0
  150.2102  133.2390  157.2574 H   0  0  0  0  0  0  0  0  0  0  0  0
  148.7462  132.1940  155.6702 H   0  0  0  0  0  0  0  0  0  0  0  0
  149.0488  141.8808  157.7377 H   0  0  0  0  0  0  0  0  0  0  0  0
  149.8568  142.5684  156.3647 H   0  0  0  0  0  0  0  0  0  0  0  0
  147.5760  140.5382  156.2749 H   0  0  0  0  0  0  0  0  0  0  0  0
  147.4676  142.2335  155.8731 H   0  0  0  0  0  0  0  0  0  0  0  0
  147.6485  140.7739  153.8313 H   0  0  0  0  0  0  0  0  0  0  0  0
  148.9410  141.9451  153.9372 H   0  0  0  0  0  0  0  0  0  0  0  0
  149.1148  138.9893  154.6744 H   0  0  0  0  0  0  0  0  0  0  0  0
  149.8996  139.7726  153.3259 H   0  0  0  0  0  0  0  0  0  0  0  0
  151.2862  141.1312  154.8541 H   0  0  0  0  0  0  0  0  0  0  0  0
  151.5128  139.4446  155.1646 H   0  0  0  0  0  0  0  0  0  0  0  0
  1  2  1  0  0  0  0
  1 26  1  0  0  0  0
  1 27  1  0  0  0  0
  1 28  1  0  0  0  0
  2  3  1  0  0  0  0
  2 29  1  0  0  0  0
  2 30  1  0  0  0  0
  3  4  1  0  0  0  0
  4 19  1  0  0  0  0
  4  5  1  0  0  0  0
  4 31  1  0  0  0  0
  5  6  1  0  0  0  0
  5 32  1  0  0  0  0
  5 33  1  0  0  0  0
  6  7  1  0  0  0  0
  6 19  1  0  0  0  0
  6 34  1  0  0  0  0
  7  8  1  0  0  0  0
  7 35  1  0  0  0  0
  8  9  2  0  0  0  0
  8 10  1  0  0  0  0
 10 11  1  0  0  0  0
 10 36  1  0  0  0  0
 10 37  1  0  0  0  0
 11 17  1  0  0  0  0
 11 12  1  0  0  0  0
 12 13  2  0  0  0  0
 12 38  1  0  0  0  0
 13 14  1  0  0  0  0
 13 39  1  0  0  0  0
 14 15  2  0  0  0  0
 14 16  1  0  0  0  0
 16 25  1  0  0  0  0
 16 17  1  0  0  0  0
 17 18  2  0  0  0  0
 19 24  1  0  0  0  0
 19 20  1  0  0  0  0
 20 21  1  0  0  0  0
 20 40  1  0  0  0  0
 20 41  1  0  0  0  0
 21 22  1  0  0  0  0
 21 42  1  0  0  0  0
 21 43  1  0  0  0  0
 22 23  1  0  0  0  0
 22 44  1  0  0  0  0
 22 45  1  0  0  0  0
 23 24  1  0  0  0  0
 23 46  1  0  0  0  0
 23 47  1  0  0  0  0
 24 48  1  0  0  0  0
 24 49  1  0  0  0  0
M  END
> <s_m_source_file>
AV-unprocessed.smi

> <i_m_source_file_index>
701

> <i_lp_mmshare_version>
43012

> <i_f3d_flags>
0

> <s_epik_input>
W0NIMl0xW0NIMl1bQ0gyXVtDSDJdW0NIMl1DMTJbQ0BIXShPW0NIMl1bQ0gzXSlbQ0gyXVtDQEhdMltOSF1DKD1PKVtDSDJdbjNbY0hdW2NIXWMoPU8pW25IXWMzPU8=

> <s_epik_cmdline>
J2VwaWtfcHl0aG9uJywgJy1waCcsICc3LjAnLCAnLXRuJywgJzgnLCAnLW1hJywgJzIwMCcsICctbWV0YWxfYmluZGluZycsICctaW1hZScsICc8aW5maWxlLm1hZT4nLCAnLW9tYWUnLCAnPG91dGZpbGUubWFlPic=

> <r_lp_tautomer_probability>
0.999537

> <r_epik_Ionization_Penalty>
0.00304597

> <r_epik_Ionization_Penalty_Charging>
0.00304595

> <r_epik_Ionization_Penalty_Neutral>
1.88422e-08

> <r_epik_State_Penalty>
0.00214084

> <r_epik_Charging_Adjusted_Penalty>
0.00518679

> <i_epik_Tot_Q>
0

> <i_epik_Tot_abs_Q>
0

> <r_epik_Metal_State_Penalty>
0.361872

> <b_epik_Metal_Only>
0

> <s_lp_Force_Field>
OPLS_2005

> <r_lp_Energy>
29.1408

> <b_lp_Chiralities_Consistent>
1

> <s_lp_Variant>
AV-unprocessed.smi:701-4

> <Gold.Version>
5.8.1

> <Gold.Id.Protein>
6NUR|6NUR_protein|mol2

> <Gold.PLP.Fitness>
40.7032

> <Gold.PLP.PLP>
-34.9442

> <Gold.PLP.part.hbond>
-2.7487

> <Gold.PLP.part.metal>
0.0000

> <Gold.PLP.part.buried>
-0.3061

> <Gold.PLP.part.nonpolar>
-32.0886

> <Gold.PLP.part.repulsive>
0.4113

> <Gold.PLP.ligand.clash>
0.0000

> <Gold.PLP.ligand.torsion>
0.3132

> <Gold.PLP.Chemscore.Hbond>
2.0000

> <Gold.PLP.Chemscore.CHOScore>
0.0000

> <Gold.PLP.Chemscore.Metal>
0.0000

> <Gold.Chemscore.Hbonds>
donor molecule, donor type, donor heavy atom, donor atom, acceptor molecule, acceptor atom, score
      L1  H    16    25       P1  7948  1.00
      P1  H  6896  6909       L1     9  0.80

> <Gold.PLP.Chemscore.Internal.Correction>
0.3853

> <Gold.Rescore>
     Score         DG    S(hbond)    S(metal)    S(lipo)     H(rot)  DE(clash)    DE(int)     intcor
     13.74     -15.72       1.86        0.00      80.26       2.09       0.04       1.94       ----

> <Gold.Chemscore.Fitness>
13.7410

> <Gold.Chemscore.DG>
-15.7176

> <Gold.Chemscore.ZeroCoef>
-5.4800

> <Gold.Chemscore.Hbond>
1.8580

> <Gold.Chemscore.Metal>
0.0000

> <Gold.Chemscore.Lipo>
80.2620

> <Gold.Chemscore.Internal_Hbond>
0.0000

> <Gold.Chemscore.DEClash>
0.0390

> <Gold.Chemscore.DEInternal>
1.9377

> <Gold.Chemscore.Rot>
2.0933

> <Gold.Chemscore.Internal.Correction>
   9.000000E+99

> <Gold.Chemscore.Hbonds>
donor molecule, donor type, donor heavy atom, donor atom, acceptor molecule, acceptor atom, score
      L1  H    16    25       P1  7948  0.85
      P1  H  6896  6909       L1     9  0.43

> <Gold.Chemscore.Hbond.Weighted>
-6.2058

> <Gold.Chemscore.Metal.Weighted>
-0.0000

> <Gold.Chemscore.Lipo.Weighted>
-9.3907

> <Gold.Chemscore.Internal_Hbond.Weighted>
0.0000

> <Gold.Chemscore.DEClash.Weighted>
0.0390

> <Gold.Chemscore.DEInternal.Weighted>
1.9377

> <Gold.Chemscore.Rot.Weighted>
5.3588

> <Gold.Chemscore.Internal.Correction.Weighted>
   9.000000E+99

> <Gold.Protein.RotatedTorsions>
[ 6907 6896 6895 6894 ] final  100.95 input  -60.11 | X-H torsion
[ 7974 7965 7964 7962 ] final -112.69 input  175.53 | X-H torsion
[ 8008 7997 7996 7995 ] final  -46.59 input   59.86 | X-H torsion
[ 10167 10162 10161 10158 ] final   10.85 input  -65.29 | X-H torsion
[ 10718 10713 10712 10709 ] final  127.58 input   66.30 | X-H torsion
[ 10763 10752 10751 10750 ] final -128.80 input  -60.55 | X-H torsion
[ 11005 11000 10999 10996 ] final -150.54 input  -57.11 | X-H torsion

> <Gold.Protein.ActiveResidues>
 VAL166  LYS551  ARG553  GLY616  TRP617  ASP618  TYR619  PRO620  LYS621  CYS622 
 ASP623  PHE694  ASN695  SER759  ASP760  ASP761  ALA762  ILE779  LEU786  VAL792 
 PHE793  MET794  SER795  GLU796  ALA797  LYS798  CYS799  TRP800  GLU811  SER814 

> <Gold.Protein.RotatedAtoms>
  152.5361  134.0200  159.7977 H   0  0  0  0  0  0  0  0  0  0  0  0  # atno 6907 bound_to 6896
  151.0388  133.5717  159.2660 H   0  0  0  0  0  0  0  0  0  0  0  0  # atno 6908 bound_to 6896
  151.2694  135.0687  159.9182 H   0  0  0  0  0  0  0  0  0  0  0  0  # atno 6909 bound_to 6896
  145.1410  140.8778  143.3702 H   0  0  0  0  0  0  0  0  0  0  0  0  # atno 7974 bound_to 7965
  154.4009  140.1367  156.4036 H   0  0  0  0  0  0  0  0  0  0  0  0  # atno 8008 bound_to 7997
  155.7800  140.3481  155.5272 H   0  0  0  0  0  0  0  0  0  0  0  0  # atno 8009 bound_to 7997
  155.8683  140.0967  157.1558 H   0  0  0  0  0  0  0  0  0  0  0  0  # atno 8010 bound_to 7997
  140.6169  143.8289  150.7129 H   0  0  0  0  0  0  0  0  0  0  0  0  # atno 10167 bound_to 10162
  157.5321  131.1098  150.8993 H   0  0  0  0  0  0  0  0  0  0  0  0  # atno 10718 bound_to 10713
  154.8757  135.3916  154.3816 H   0  0  0  0  0  0  0  0  0  0  0  0  # atno 10763 bound_to 10752
  153.4563  135.7029  153.6083 H   0  0  0  0  0  0  0  0  0  0  0  0  # atno 10764 bound_to 10752
  153.4601  135.3814  155.2302 H   0  0  0  0  0  0  0  0  0  0  0  0  # atno 10765 bound_to 10752
  140.7391  134.3535  157.5151 H   0  0  0  0  0  0  0  0  0  0  0  0  # atno 11005 bound_to 11000
  145.0532  139.3164  143.5918 LP  0  0  0  0  0  0  0  0  0  0  0  0  # atno 17320 bound_to 7965
  146.3505  139.9948  142.8682 LP  0  0  0  0  0  0  0  0  0  0  0  0  # atno 17321 bound_to 7965
  140.1870  143.4067  152.1891 LP  0  0  0  0  0  0  0  0  0  0  0  0  # atno 17342 bound_to 10162
  139.5406  144.7252  151.4747 LP  0  0  0  0  0  0  0  0  0  0  0  0  # atno 17343 bound_to 10162
  156.9572  130.5441  149.5284 LP  0  0  0  0  0  0  0  0  0  0  0  0  # atno 17370 bound_to 10713
  156.0430  130.5510  150.8815 LP  0  0  0  0  0  0  0  0  0  0  0  0  # atno 17371 bound_to 10713
  139.8810  134.9069  156.2932 LP  0  0  0  0  0  0  0  0  0  0  0  0  # atno 17394 bound_to 11000
  140.9853  133.7242  156.0732 LP  0  0  0  0  0  0  0  0  0  0  0  0  # atno 17395 bound_to 11000

$$$$
