AV-unprocessed.smi:160|AV-procd|sdf|1365|dock6
  -GOLD-   2262019 83D 1   1.00000     0.00000
 Structure written by MMmdl.
 28 29  0  0  0  0  0  0  0  0  2 V2000
  149.3116  135.7595  158.7719 N   0  5  0  0  0  0  0  0  0  0  0  0
  148.6932  136.8882  159.1821 C   0  0  0  0  0  0  0  0  0  0  0  0
  148.1687  137.0729  160.2798 O   0  0  0  0  0  0  0  0  0  0  0  0
  148.6745  137.9992  158.1594 C   0  0  0  0  0  0  0  0  0  0  0  0
  149.8378  138.5900  157.7502 N   0  0  0  0  0  0  0  0  0  0  0  0
  149.3388  139.4653  156.8879 C   0  0  0  0  0  0  0  0  0  0  0  0
  148.0099  139.4147  156.7573 N   0  0  0  0  0  0  0  0  0  0  0  0
  147.1079  140.2731  155.9171 C   0  0  2  0  0  0  0  0  0  0  0  0
  146.6151  139.4934  154.8752 O   0  0  0  0  0  0  0  0  0  0  0  0
  147.5172  139.5484  153.7780 C   0  0  1  0  0  0  0  0  0  0  0  0
  146.7820  139.1773  152.4812 C   0  0  0  0  0  0  0  0  0  0  0  0
  147.6212  138.4064  151.6477 O   0  0  0  0  0  0  0  0  0  0  0  0
  148.0082  141.0061  153.8044 C   0  0  2  0  0  0  0  0  0  0  0  0
  149.3640  141.0636  153.4089 O   0  0  0  0  0  0  0  0  0  0  0  0
  147.8547  141.4498  155.2635 C   0  0  1  0  0  0  0  0  0  0  0  0
  147.0971  142.6407  155.3450 O   0  0  0  0  0  0  0  0  0  0  0  0
  147.5489  138.4621  157.6072 N   0  0  0  0  0  0  0  0  0  0  0  0
  146.3148  140.5731  156.6033 H   0  0  0  0  0  0  0  0  0  0  0  0
  148.3483  138.8636  153.9570 H   0  0  0  0  0  0  0  0  0  0  0  0
  147.4034  141.6283  153.1421 H   0  0  0  0  0  0  0  0  0  0  0  0
  148.8085  141.6298  155.7618 H   0  0  0  0  0  0  0  0  0  0  0  0
  149.2046  135.4720  157.7917 H   0  0  0  0  0  0  0  0  0  0  0  0
  149.9563  140.1618  156.3404 H   0  0  0  0  0  0  0  0  0  0  0  0
  145.8551  138.6418  152.6893 H   0  0  0  0  0  0  0  0  0  0  0  0
  146.5183  140.0809  151.9309 H   0  0  0  0  0  0  0  0  0  0  0  0
  147.9428  137.6692  152.1431 H   0  0  0  0  0  0  0  0  0  0  0  0
  149.5289  140.3608  152.7992 H   0  0  0  0  0  0  0  0  0  0  0  0
  147.6882  143.3752  155.2807 H   0  0  0  0  0  0  0  0  0  0  0  0
  1  2  1  0  0  0  0
  1 22  1  0  0  0  0
  2  3  2  0  0  0  0
  2  4  1  0  0  0  0
  4 17  2  0  0  0  0
  4  5  1  0  0  0  0
  5  6  2  0  0  0  0
  6  7  1  0  0  0  0
  6 23  1  0  0  0  0
  7  8  1  0  0  0  0
  7 17  1  0  0  0  0
  8 18  1  0  0  0  0
  8 15  1  0  0  0  0
  8  9  1  0  0  0  0
  9 10  1  0  0  0  0
 10 19  1  0  0  0  0
 10 11  1  0  0  0  0
 10 13  1  0  0  0  0
 11 12  1  0  0  0  0
 11 24  1  0  0  0  0
 11 25  1  0  0  0  0
 12 26  1  0  0  0  0
 13 20  1  0  0  0  0
 13 14  1  0  0  0  0
 13 15  1  0  0  0  0
 14 27  1  0  0  0  0
 15 21  1  0  0  0  0
 15 16  1  0  0  0  0
 16 28  1  0  0  0  0
M  CHG  1   1  -1
M  END
> <s_m_source_file>
AV-unprocessed.smi

> <i_m_source_file_index>
160

> <i_lp_mmshare_version>
43012

> <i_f3d_flags>
0

> <s_epik_input>
W05IMl1DKD1PKWMxbltjSF1uKG4xKVtDQEBIXTJPW0NASF0oW0NIMl1bT0hdKVtDQEBIXShbT0hdKVtDQEhdMltPSF0=

> <s_epik_cmdline>
J2VwaWtfcHl0aG9uJywgJy1waCcsICc3LjAnLCAnLXRuJywgJzgnLCAnLW1hJywgJzIwMCcsICctbWV0YWxfYmluZGluZycsICctaW1hZScsICc8aW5maWxlLm1hZT4nLCAnLW9tYWUnLCAnPG91dGZpbGUubWFlPic=

> <r_lp_tautomer_probability>
1

> <r_epik_Ionization_Penalty>
6.6993

> <r_epik_Ionization_Penalty_Charging>
6.6993

> <r_epik_Ionization_Penalty_Neutral>
6.01698e-06

> <r_epik_State_Penalty>
6.69929

> <r_epik_Charging_Adjusted_Penalty>
13.3986

> <i_epik_Tot_Q>
-1

> <i_epik_Tot_abs_Q>
1

> <r_epik_Metal_State_Penalty>
2.62798

> <b_epik_Metal_Only>
1

> <s_epik_Chemistry_Notes>
This compound contains an acetal/aminal-like group ( X-CH(R)-Y where X, Y are N, S, or O) that may be acid/base labile, releasing an aldehyde.

> <s_lp_Force_Field>
OPLS_2005

> <r_lp_Energy>
36.7288

> <b_lp_Chiralities_Consistent>
1

> <s_lp_Variant>
AV-unprocessed.smi:160-23

> <Gold.Version>
5.8.1

> <Gold.Id.Protein>
6NUR|6NUR_protein|mol2

> <Gold.PLP.Fitness>
42.9678

> <Gold.PLP.PLP>
-24.3121

> <Gold.PLP.part.hbond>
-9.5702

> <Gold.PLP.part.metal>
0.0000

> <Gold.PLP.part.buried>
-2.5220

> <Gold.PLP.part.nonpolar>
-11.6462

> <Gold.PLP.part.repulsive>
0.0618

> <Gold.PLP.ligand.clash>
0.0000

> <Gold.PLP.ligand.torsion>
2.0242

> <Gold.PLP.Chemscore.Hbond>
7.5569

> <Gold.PLP.Chemscore.CHOScore>
0.0000

> <Gold.PLP.Chemscore.Metal>
0.0000

> <Gold.Chemscore.Hbonds>
donor molecule, donor type, donor heavy atom, donor atom, acceptor molecule, acceptor atom, score
      L1  H    12    26       P1  7948  0.72
      L1  H    14    27       P1  7957  0.83
      L1  H    16    28       P1  8028  1.00
      P1  H  6896  6909       L1     1  2.00
      P1  H  6931  6943       L1     3  0.47
      P1  H  6934  6947       L1     3  0.29
      P1  H  7954  7966       L1    12  0.95
      P1  H  8011  8017       L1    14  0.85

> <Gold.PLP.Chemscore.Internal.Correction>
0.0333

> <Gold.Rescore>
     Score         DG    S(hbond)    S(metal)    S(lipo)     H(rot)  DE(clash)    DE(int)     intcor
     11.72     -14.15       4.74        0.00      27.04       4.04       0.22       2.20       ----

> <Gold.Chemscore.Fitness>
11.7235

> <Gold.Chemscore.DG>
-14.1470

> <Gold.Chemscore.ZeroCoef>
-5.4800

> <Gold.Chemscore.Hbond>
4.7444

> <Gold.Chemscore.Metal>
0.0000

> <Gold.Chemscore.Lipo>
27.0407

> <Gold.Chemscore.Internal_Hbond>
0.0000

> <Gold.Chemscore.DEClash>
0.2213

> <Gold.Chemscore.DEInternal>
2.2022

> <Gold.Chemscore.Rot>
4.0403

> <Gold.Chemscore.Internal.Correction>
   9.000000E+99

> <Gold.Chemscore.Hbonds>
donor molecule, donor type, donor heavy atom, donor atom, acceptor molecule, acceptor atom, score
      L1  H    12    26       P1  7948  0.72
      L1  H    14    27       P1  7957  0.81
      L1  H    16    28       P1  8028  0.30
      P1  H  6896  6909       L1     1  0.49
      P1  H  6931  6943       L1     3  0.45
      P1  H  6934  6947       L1     3  0.27
      P1  H  7954  7966       L1    12  0.21
      P1  H  8011  8017       L1    14  0.13

> <Gold.Chemscore.Hbond.Weighted>
-15.8463

> <Gold.Chemscore.Metal.Weighted>
-0.0000

> <Gold.Chemscore.Lipo.Weighted>
-3.1638

> <Gold.Chemscore.Internal_Hbond.Weighted>
0.0000

> <Gold.Chemscore.DEClash.Weighted>
0.2213

> <Gold.Chemscore.DEInternal.Weighted>
2.2022

> <Gold.Chemscore.Rot.Weighted>
10.3431

> <Gold.Chemscore.Internal.Correction.Weighted>
   9.000000E+99

> <Gold.Protein.RotatedTorsions>
[ 6907 6896 6895 6894 ] final   44.65 input  -60.11 | X-H torsion
[ 7974 7965 7964 7962 ] final    0.21 input  175.53 | X-H torsion
[ 8008 7997 7996 7995 ] final  110.56 input   59.86 | X-H torsion
[ 10167 10162 10161 10158 ] final  130.30 input  -65.29 | X-H torsion
[ 10718 10713 10712 10709 ] final -163.41 input   66.30 | X-H torsion
[ 10763 10752 10751 10750 ] final -133.04 input  -60.55 | X-H torsion
[ 11005 11000 10999 10996 ] final  118.23 input  -57.11 | X-H torsion

> <Gold.Protein.ActiveResidues>
 VAL166  LYS551  ARG553  GLY616  TRP617  ASP618  TYR619  PRO620  LYS621  CYS622 
 ASP623  PHE694  ASN695  SER759  ASP760  ASP761  ALA762  ILE779  LEU786  VAL792 
 PHE793  MET794  SER795  GLU796  ALA797  LYS798  CYS799  TRP800  GLU811  SER814 

> <Gold.Protein.RotatedAtoms>
  152.2351  134.8284  160.0467 H   0  0  0  0  0  0  0  0  0  0  0  0  # atno 6907 bound_to 6896
  151.9018  133.3535  159.3841 H   0  0  0  0  0  0  0  0  0  0  0  0  # atno 6908 bound_to 6896
  150.7037  134.4746  159.5485 H   0  0  0  0  0  0  0  0  0  0  0  0  # atno 6909 bound_to 6896
  146.2432  140.1171  142.8342 H   0  0  0  0  0  0  0  0  0  0  0  0  # atno 7974 bound_to 7965
  156.2061  140.3036  155.9631 H   0  0  0  0  0  0  0  0  0  0  0  0  # atno 8008 bound_to 7997
  155.2837  140.0439  157.3034 H   0  0  0  0  0  0  0  0  0  0  0  0  # atno 8009 bound_to 7997
  154.5635  140.2327  155.8307 H   0  0  0  0  0  0  0  0  0  0  0  0  # atno 8010 bound_to 7997
  139.5437  144.6754  151.4543 H   0  0  0  0  0  0  0  0  0  0  0  0  # atno 10167 bound_to 10162
  156.6243  130.8903  151.2964 H   0  0  0  0  0  0  0  0  0  0  0  0  # atno 10718 bound_to 10713
  154.8737  135.3778  154.4508 H   0  0  0  0  0  0  0  0  0  0  0  0  # atno 10763 bound_to 10752
  153.5185  135.7029  153.5749 H   0  0  0  0  0  0  0  0  0  0  0  0  # atno 10764 bound_to 10752
  153.4007  135.3949  155.1951 H   0  0  0  0  0  0  0  0  0  0  0  0  # atno 10765 bound_to 10752
  139.9102  134.9618  156.7471 H   0  0  0  0  0  0  0  0  0  0  0  0  # atno 11005 bound_to 11000
  145.0437  140.8965  143.5037 LP  0  0  0  0  0  0  0  0  0  0  0  0  # atno 17320 bound_to 7965
  145.1257  139.2664  143.5565 LP  0  0  0  0  0  0  0  0  0  0  0  0  # atno 17321 bound_to 7965
  140.6677  143.8363  150.6961 LP  0  0  0  0  0  0  0  0  0  0  0  0  # atno 17342 bound_to 10162
  140.1777  143.4141  152.1955 LP  0  0  0  0  0  0  0  0  0  0  0  0  # atno 17343 bound_to 10162
  157.7218  130.9569  150.1472 LP  0  0  0  0  0  0  0  0  0  0  0  0  # atno 17370 bound_to 10713
  156.2286  130.3680  149.8471 LP  0  0  0  0  0  0  0  0  0  0  0  0  # atno 17371 bound_to 10713
  140.6803  133.9480  155.7906 LP  0  0  0  0  0  0  0  0  0  0  0  0  # atno 17394 bound_to 11000
  141.0515  134.0478  157.3777 LP  0  0  0  0  0  0  0  0  0  0  0  0  # atno 17395 bound_to 11000

$$$$
