AV-unprocessed.smi:2426|AV-procd|sdf|9577|dock9
  -GOLD-   2272013213D 1   1.00000     0.00000
 Structure written by MMmdl.
 36 37  0  0  0  0  0  0  0  0  1 V2000
  147.7411  140.9878  155.3531 C   0  0  0  0  0  0  0  0  0  0  0  0
  148.1882  139.8364  154.6461 O   0  0  0  0  0  0  0  0  0  0  0  0
  149.4887  139.4188  154.8379 C   0  0  0  0  0  0  0  0  0  0  0  0
  150.2584  140.0055  155.8635 C   0  0  0  0  0  0  0  0  0  0  0  0
  151.5846  139.5467  156.0285 C   0  0  0  0  0  0  0  0  0  0  0  0
  152.3246  140.1615  157.0729 N   0  0  0  0  0  0  0  0  0  0  0  0
  151.8533  140.7657  158.1778 C   0  0  0  0  0  0  0  0  0  0  0  0
  150.6634  140.8761  158.4748 O   0  0  0  0  0  0  0  0  0  0  0  0
  152.8539  141.2506  158.9286 N   0  0  0  0  0  0  0  0  0  0  0  0
  152.7002  141.9919  160.1781 C   0  0  1  0  0  0  0  0  0  0  0  0
  153.9270  141.7429  161.0665 C   0  0  0  0  0  0  0  0  0  0  0  0
  152.4974  143.4795  159.8822 C   0  0  0  0  0  0  0  0  0  0  0  0
  151.8497  144.3920  160.9351 C   0  0  0  0  0  0  0  0  0  0  0  0
  151.2093  145.1817  159.7901 C   0  0  0  0  0  0  0  0  0  0  0  0
  151.3885  143.9349  158.9201 C   0  0  0  0  0  0  0  0  0  0  0  0
  152.0715  138.5783  155.2137 N   0  0  0  0  0  0  0  0  0  0  0  0
  151.2633  138.0878  154.2723 C   0  0  0  0  0  0  0  0  0  0  0  0
  150.0020  138.4523  154.0389 N   0  0  0  0  0  0  0  0  0  0  0  0
  146.7031  141.1919  155.0912 H   0  0  0  0  0  0  0  0  0  0  0  0
  148.3276  141.8699  155.0915 H   0  0  0  0  0  0  0  0  0  0  0  0
  147.7864  140.8350  156.4325 H   0  0  0  0  0  0  0  0  0  0  0  0
  149.8418  140.7755  156.4965 H   0  0  0  0  0  0  0  0  0  0  0  0
  153.3273  140.1516  156.9591 H   0  0  0  0  0  0  0  0  0  0  0  0
  153.7991  141.1103  158.6034 H   0  0  0  0  0  0  0  0  0  0  0  0
  151.8313  141.6117  160.7182 H   0  0  0  0  0  0  0  0  0  0  0  0
  153.8287  142.2551  162.0241 H   0  0  0  0  0  0  0  0  0  0  0  0
  154.8416  142.0995  160.5913 H   0  0  0  0  0  0  0  0  0  0  0  0
  154.0517  140.6799  161.2759 H   0  0  0  0  0  0  0  0  0  0  0  0
  153.4372  143.9386  159.5662 H   0  0  0  0  0  0  0  0  0  0  0  0
  151.1137  143.8728  161.5512 H   0  0  0  0  0  0  0  0  0  0  0  0
  152.5549  144.9586  161.5438 H   0  0  0  0  0  0  0  0  0  0  0  0
  150.1733  145.4758  159.9602 H   0  0  0  0  0  0  0  0  0  0  0  0
  151.8222  146.0215  159.4585 H   0  0  0  0  0  0  0  0  0  0  0  0
  151.7216  144.1297  157.9004 H   0  0  0  0  0  0  0  0  0  0  0  0
  150.5149  143.2812  158.9390 H   0  0  0  0  0  0  0  0  0  0  0  0
  151.6716  137.3176  153.6350 H   0  0  0  0  0  0  0  0  0  0  0  0
  1  2  1  0  0  0  0
  1 19  1  0  0  0  0
  1 20  1  0  0  0  0
  1 21  1  0  0  0  0
  2  3  1  0  0  0  0
  3 18  1  0  0  0  0
  3  4  2  0  0  0  0
  4  5  1  0  0  0  0
  4 22  1  0  0  0  0
  5  6  1  0  0  0  0
  5 16  2  0  0  0  0
  6  7  1  0  0  0  0
  6 23  1  0  0  0  0
  7  8  2  0  0  0  0
  7  9  1  0  0  0  0
  9 10  1  0  0  0  0
  9 24  1  0  0  0  0
 10 11  1  0  0  0  0
 10 12  1  0  0  0  0
 10 25  1  0  0  0  0
 11 26  1  0  0  0  0
 11 27  1  0  0  0  0
 11 28  1  0  0  0  0
 12 15  1  0  0  0  0
 12 13  1  0  0  0  0
 12 29  1  0  0  0  0
 13 14  1  0  0  0  0
 13 30  1  0  0  0  0
 13 31  1  0  0  0  0
 14 15  1  0  0  0  0
 14 32  1  0  0  0  0
 14 33  1  0  0  0  0
 15 34  1  0  0  0  0
 15 35  1  0  0  0  0
 16 17  1  0  0  0  0
 17 18  2  0  0  0  0
 17 36  1  0  0  0  0
M  END
> <s_m_source_file>
AV-unprocessed.smi

> <i_m_source_file_index>
2426

> <i_lp_mmshare_version>
43012

> <i_f3d_flags>
0

> <s_epik_input>
W0NIM11PYzFbY0hdYyhuW2NIXW4xKVtOSF1DKD1PKVtOSF1bQ0BIXShbQ0gzXSlbQ0hdMltDSDJdW0NIMl1bQ0gyXTI=

> <s_epik_cmdline>
J2VwaWtfcHl0aG9uJywgJy1waCcsICc3LjAnLCAnLXRuJywgJzgnLCAnLW1hJywgJzIwMCcsICctbWV0YWxfYmluZGluZycsICctaW1hZScsICc8aW5maWxlLm1hZT4nLCAnLW9tYWUnLCAnPG91dGZpbGUubWFlPic=

> <r_lp_tautomer_probability>
1

> <r_epik_Ionization_Penalty>
2.84534e-05

> <r_epik_Ionization_Penalty_Charging>
0

> <r_epik_Ionization_Penalty_Neutral>
2.84534e-05

> <r_epik_State_Penalty>
-0

> <r_epik_Charging_Adjusted_Penalty>
0

> <i_epik_Tot_Q>
0

> <i_epik_Tot_abs_Q>
0

> <r_epik_Metal_State_Penalty>
-0

> <b_epik_Metal_Only>
0

> <s_lp_Force_Field>
OPLS_2005

> <r_lp_Energy>
11.0753

> <b_lp_Chiralities_Consistent>
1

> <s_lp_Variant>
AV-unprocessed.smi:2426-2

> <Gold.Version>
5.8.1

> <Gold.Id.Protein>
6NUR|6NUR_protein|mol2

> <Gold.PLP.Fitness>
42.3762

> <Gold.PLP.PLP>
-41.0907

> <Gold.PLP.part.hbond>
0.0000

> <Gold.PLP.part.metal>
0.0000

> <Gold.PLP.part.buried>
-6.3815

> <Gold.PLP.part.nonpolar>
-36.0873

> <Gold.PLP.part.repulsive>
2.1795

> <Gold.PLP.ligand.clash>
0.0011

> <Gold.PLP.ligand.torsion>
0.7866

> <Gold.PLP.Chemscore.Hbond>
0.0000

> <Gold.PLP.Chemscore.CHOScore>
0.9146

> <Gold.PLP.Chemscore.Metal>
0.0000

> <Gold.Chemscore.Hbonds>
donor molecule, donor type, donor heavy atom, donor atom, acceptor molecule, acceptor atom, score
      L1  C    17    36       P1  7949  0.90

> <Gold.PLP.Chemscore.Internal.Correction>
0.1160

> <Gold.Rescore>
     Score         DG    S(hbond)    S(metal)    S(lipo)     H(rot)  DE(clash)    DE(int)     intcor
      7.72     -10.78       0.00        0.00      80.29       1.60       0.00       3.06       ----

> <Gold.Chemscore.Fitness>
7.7222

> <Gold.Chemscore.DG>
-10.7848

> <Gold.Chemscore.ZeroCoef>
-5.4800

> <Gold.Chemscore.Hbond>
0.0000

> <Gold.Chemscore.Metal>
0.0000

> <Gold.Chemscore.Lipo>
80.2856

> <Gold.Chemscore.Internal_Hbond>
0.0000

> <Gold.Chemscore.DEClash>
0.0048

> <Gold.Chemscore.DEInternal>
3.0578

> <Gold.Chemscore.Rot>
1.5971

> <Gold.Chemscore.Internal.Correction>
   9.000000E+99

> <Gold.Chemscore.Hbond.Weighted>
-0.0000

> <Gold.Chemscore.Metal.Weighted>
-0.0000

> <Gold.Chemscore.Lipo.Weighted>
-9.3934

> <Gold.Chemscore.Internal_Hbond.Weighted>
0.0000

> <Gold.Chemscore.DEClash.Weighted>
0.0048

> <Gold.Chemscore.DEInternal.Weighted>
3.0578

> <Gold.Chemscore.Rot.Weighted>
4.0886

> <Gold.Chemscore.Internal.Correction.Weighted>
   9.000000E+99

> <Gold.Protein.RotatedTorsions>
[ 6907 6896 6895 6894 ] final  -97.64 input  -60.11 | X-H torsion
[ 7974 7965 7964 7962 ] final   17.39 input  175.53 | X-H torsion
[ 8008 7997 7996 7995 ] final  -60.07 input   59.86 | X-H torsion
[ 10167 10162 10161 10158 ] final -171.57 input  -65.29 | X-H torsion
[ 10718 10713 10712 10709 ] final  -37.27 input   66.30 | X-H torsion
[ 10763 10752 10751 10750 ] final -167.72 input  -60.55 | X-H torsion
[ 11005 11000 10999 10996 ] final   89.91 input  -57.11 | X-H torsion

> <Gold.Protein.ActiveResidues>
 VAL166  LYS551  ARG553  GLY616  TRP617  ASP618  TYR619  PRO620  LYS621  CYS622 
 ASP623  PHE694  ASN695  SER759  ASP760  ASP761  ALA762  ILE779  LEU786  VAL792 
 PHE793  MET794  SER795  GLU796  ALA797  LYS798  CYS799  TRP800  GLU811  SER814 

> <Gold.Protein.RotatedAtoms>
  150.7022  134.1317  159.4072 H   0  0  0  0  0  0  0  0  0  0  0  0  # atno 6907 bound_to 6896
  151.9303  135.0257  160.0538 H   0  0  0  0  0  0  0  0  0  0  0  0  # atno 6908 bound_to 6896
  152.2181  133.4927  159.5184 H   0  0  0  0  0  0  0  0  0  0  0  0  # atno 6909 bound_to 6896
  146.2220  139.8609  142.8605 H   0  0  0  0  0  0  0  0  0  0  0  0  # atno 7974 bound_to 7965
  154.4381  140.1048  156.6215 H   0  0  0  0  0  0  0  0  0  0  0  0  # atno 8008 bound_to 7997
  155.5702  140.3489  155.4494 H   0  0  0  0  0  0  0  0  0  0  0  0  # atno 8009 bound_to 7997
  156.0395  140.1279  157.0160 H   0  0  0  0  0  0  0  0  0  0  0  0  # atno 8010 bound_to 7997
  139.5795  144.1456  152.1496 H   0  0  0  0  0  0  0  0  0  0  0  0  # atno 10167 bound_to 10162
  156.3172  130.4260  149.7994 H   0  0  0  0  0  0  0  0  0  0  0  0  # atno 10718 bound_to 10713
  154.6703  135.2938  154.9751 H   0  0  0  0  0  0  0  0  0  0  0  0  # atno 10763 bound_to 10752
  154.0780  135.6608  153.4837 H   0  0  0  0  0  0  0  0  0  0  0  0  # atno 10764 bound_to 10752
  153.0482  135.5190  154.7696 H   0  0  0  0  0  0  0  0  0  0  0  0  # atno 10765 bound_to 10752
  139.8866  134.8581  156.3209 H   0  0  0  0  0  0  0  0  0  0  0  0  # atno 11005 bound_to 11000
  145.2706  141.0107  143.3774 LP  0  0  0  0  0  0  0  0  0  0  0  0  # atno 17320 bound_to 7965
  144.9227  139.4393  143.6533 LP  0  0  0  0  0  0  0  0  0  0  0  0  # atno 17321 bound_to 7965
  140.1006  144.5543  150.6991 LP  0  0  0  0  0  0  0  0  0  0  0  0  # atno 17342 bound_to 10162
  140.7074  143.2479  151.4684 LP  0  0  0  0  0  0  0  0  0  0  0  0  # atno 17343 bound_to 10162
  156.5315  130.8260  151.3239 LP  0  0  0  0  0  0  0  0  0  0  0  0  # atno 17370 bound_to 10713
  157.7404  130.9850  150.2376 LP  0  0  0  0  0  0  0  0  0  0  0  0  # atno 17371 bound_to 10713
  140.9787  133.7281  156.0640 LP  0  0  0  0  0  0  0  0  0  0  0  0  # atno 17394 bound_to 11000
  140.7777  134.3761  157.5494 LP  0  0  0  0  0  0  0  0  0  0  0  0  # atno 17395 bound_to 11000

$$$$
