AV-unprocessed.smi:1737|AV-procd|sdf|6995|dock4
  -GOLD-   22720 8213D 1   1.00000     0.00000
 Structure written by MMmdl.
 43 44  0  0  0  0  0  0  0  0  2 V2000
  147.5953  132.8407  152.5779 C   0  0  0  0  0  0  0  0  0  0  0  0
  146.3531  132.7153  151.7109 C   0  0  0  0  0  0  0  0  0  0  0  0
  145.8062  131.4370  151.4693 C   0  0  0  0  0  0  0  0  0  0  0  0
  144.6570  131.3224  150.6687 C   0  0  0  0  0  0  0  0  0  0  0  0
  144.0996  132.4989  150.1397 C   0  0  0  0  0  0  0  0  0  0  0  0
  144.6154  133.7245  150.3653 N   0  0  0  0  0  0  0  0  0  0  0  0
  145.7241  133.8527  151.1367 C   0  0  0  0  0  0  0  0  0  0  0  0
  146.3256  135.1135  151.4115 N   0  0  0  0  0  0  0  0  0  0  0  0
  145.7297  136.2580  151.7898 C   0  0  0  0  0  0  0  0  0  0  0  0
  144.5251  136.4016  152.0018 O   0  0  0  0  0  0  0  0  0  0  0  0
  146.6197  137.2532  151.9148 N   0  0  0  0  0  0  0  0  0  0  0  0
  146.2865  138.6173  152.3149 C   0  0  0  0  0  0  0  0  0  0  0  0
  146.3606  138.8386  153.8496 C   0  0  2  0  0  0  0  0  0  0  0  0
  145.4545  137.8168  154.5785 C   0  0  0  0  0  0  0  0  0  0  0  0
  146.0439  140.2658  154.1827 N   0  3  0  0  0  0  0  0  0  0  0  0
  145.8696  140.5680  155.6305 C   0  0  0  0  0  0  0  0  0  0  0  0
  145.5173  142.0499  155.8485 C   0  0  0  0  0  0  0  0  0  0  0  0
  146.5190  142.8763  155.2744 O   0  0  0  0  0  0  0  0  0  0  0  0
  146.6210  142.6739  153.8728 C   0  0  0  0  0  0  0  0  0  0  0  0
  147.0261  141.2176  153.5945 C   0  0  0  0  0  0  0  0  0  0  0  0
  147.9495  131.8638  152.9081 H   0  0  0  0  0  0  0  0  0  0  0  0
  147.3813  133.4372  153.4653 H   0  0  0  0  0  0  0  0  0  0  0  0
  148.4030  133.3196  152.0234 H   0  0  0  0  0  0  0  0  0  0  0  0
  146.2604  130.5521  151.8910 H   0  0  0  0  0  0  0  0  0  0  0  0
  144.2151  130.3584  150.4650 H   0  0  0  0  0  0  0  0  0  0  0  0
  143.2176  132.4562  149.5178 H   0  0  0  0  0  0  0  0  0  0  0  0
  147.3276  135.1465  151.2967 H   0  0  0  0  0  0  0  0  0  0  0  0
  147.5914  137.0546  151.7247 H   0  0  0  0  0  0  0  0  0  0  0  0
  146.9440  139.2943  151.7711 H   0  0  0  0  0  0  0  0  0  0  0  0
  145.2774  138.8319  151.9614 H   0  0  0  0  0  0  0  0  0  0  0  0
  147.3802  138.6461  154.1875 H   0  0  0  0  0  0  0  0  0  0  0  0
  145.6928  136.7921  154.2941 H   0  0  0  0  0  0  0  0  0  0  0  0
  144.4012  137.9819  154.3495 H   0  0  0  0  0  0  0  0  0  0  0  0
  145.5807  137.8571  155.6604 H   0  0  0  0  0  0  0  0  0  0  0  0
  145.0619  139.9748  156.0583 H   0  0  0  0  0  0  0  0  0  0  0  0
  146.7842  140.3174  156.1706 H   0  0  0  0  0  0  0  0  0  0  0  0
  144.5429  142.2860  155.4175 H   0  0  0  0  0  0  0  0  0  0  0  0
  145.4522  142.2657  156.9152 H   0  0  0  0  0  0  0  0  0  0  0  0
  145.6770  142.9187  153.3831 H   0  0  0  0  0  0  0  0  0  0  0  0
  147.3726  143.3551  153.4734 H   0  0  0  0  0  0  0  0  0  0  0  0
  148.0150  141.0260  154.0141 H   0  0  0  0  0  0  0  0  0  0  0  0
  147.1121  141.0824  152.5181 H   0  0  0  0  0  0  0  0  0  0  0  0
  145.1511  140.4626  153.7532 H   0  0  0  0  0  0  0  0  0  0  0  0
  1  2  1  0  0  0  0
  1 21  1  0  0  0  0
  1 22  1  0  0  0  0
  1 23  1  0  0  0  0
  2  7  1  0  0  0  0
  2  3  2  0  0  0  0
  3  4  1  0  0  0  0
  3 24  1  0  0  0  0
  4  5  2  0  0  0  0
  4 25  1  0  0  0  0
  5  6  1  0  0  0  0
  5 26  1  0  0  0  0
  6  7  2  0  0  0  0
  7  8  1  0  0  0  0
  8  9  1  0  0  0  0
  8 27  1  0  0  0  0
  9 10  2  0  0  0  0
  9 11  1  0  0  0  0
 11 12  1  0  0  0  0
 11 28  1  0  0  0  0
 12 13  1  0  0  0  0
 12 29  1  0  0  0  0
 12 30  1  0  0  0  0
 13 14  1  0  0  0  0
 13 15  1  0  0  0  0
 13 31  1  0  0  0  0
 14 32  1  0  0  0  0
 14 33  1  0  0  0  0
 14 34  1  0  0  0  0
 15 20  1  0  0  0  0
 15 16  1  0  0  0  0
 15 43  1  0  0  0  0
 16 17  1  0  0  0  0
 16 35  1  0  0  0  0
 16 36  1  0  0  0  0
 17 18  1  0  0  0  0
 17 37  1  0  0  0  0
 17 38  1  0  0  0  0
 18 19  1  0  0  0  0
 19 20  1  0  0  0  0
 19 39  1  0  0  0  0
 19 40  1  0  0  0  0
 20 41  1  0  0  0  0
 20 42  1  0  0  0  0
M  CHG  1  15   1
M  END
> <s_m_source_file>
AV-unprocessed.smi

> <i_m_source_file_index>
1737

> <i_lp_mmshare_version>
43012

> <i_f3d_flags>
0

> <s_epik_input>
W0NIM11jMVtjSF1bY0hdW2NIXW5jMVtOSF1DKD1PKVtOSF1bQ0gyXVtDQEhdKFtDSDNdKU4yW0NIMl1bQ0gyXU9bQ0gyXVtDSDJdMg==

> <s_epik_cmdline>
J2VwaWtfcHl0aG9uJywgJy1waCcsICc3LjAnLCAnLXRuJywgJzgnLCAnLW1hJywgJzIwMCcsICctbWV0YWxfYmluZGluZycsICctaW1hZScsICc8aW5maWxlLm1hZT4nLCAnLW9tYWUnLCAnPG91dGZpbGUubWFlPic=

> <r_epik_Ionization_Penalty>
0.602573

> <r_epik_Ionization_Penalty_Charging>
0.602531

> <r_epik_Ionization_Penalty_Neutral>
4.25912e-05

> <r_epik_State_Penalty>
0.617039

> <r_epik_Charging_Adjusted_Penalty>
1.21957

> <i_epik_Tot_Q>
1

> <i_epik_Tot_abs_Q>
1

> <r_epik_Metal_State_Penalty>
0.617042

> <b_epik_Metal_Only>
0

> <s_lp_Force_Field>
OPLS_2005

> <r_lp_Energy>
21.8503

> <b_lp_Chiralities_Consistent>
1

> <s_lp_Variant>
AV-unprocessed.smi:1737-3

> <Gold.Version>
5.8.1

> <Gold.Id.Protein>
6NUR|6NUR_protein|mol2

> <Gold.PLP.Fitness>
42.8699

> <Gold.PLP.PLP>
-32.5586

> <Gold.PLP.part.hbond>
-3.0000

> <Gold.PLP.part.metal>
0.0000

> <Gold.PLP.part.buried>
-6.0010

> <Gold.PLP.part.nonpolar>
-25.2091

> <Gold.PLP.part.repulsive>
1.2071

> <Gold.PLP.ligand.clash>
0.0000

> <Gold.PLP.ligand.torsion>
0.6621

> <Gold.PLP.Chemscore.Hbond>
3.8640

> <Gold.PLP.Chemscore.CHOScore>
0.0000

> <Gold.PLP.Chemscore.Metal>
0.0000

> <Gold.Chemscore.Hbonds>
donor molecule, donor type, donor heavy atom, donor atom, acceptor molecule, acceptor atom, score
      L1  H     8    27       P1  7948  0.86
      L1  H    11    28       P1  7948  1.00
      L1  H    15    43       P1 10175  2.00

> <Gold.PLP.Chemscore.Internal.Correction>
0.0434

> <Gold.Rescore>
     Score         DG    S(hbond)    S(metal)    S(lipo)     H(rot)  DE(clash)    DE(int)     intcor
     18.49     -19.29       2.87        0.00      69.12       1.51       0.22       0.58       ----

> <Gold.Chemscore.Fitness>
18.4874

> <Gold.Chemscore.DG>
-19.2877

> <Gold.Chemscore.ZeroCoef>
-5.4800

> <Gold.Chemscore.Hbond>
2.8724

> <Gold.Chemscore.Metal>
0.0000

> <Gold.Chemscore.Lipo>
69.1163

> <Gold.Chemscore.Internal_Hbond>
0.0000

> <Gold.Chemscore.DEClash>
0.2153

> <Gold.Chemscore.DEInternal>
0.5850

> <Gold.Chemscore.Rot>
1.5128

> <Gold.Chemscore.Internal.Correction>
   9.000000E+99

> <Gold.Chemscore.Hbonds>
donor molecule, donor type, donor heavy atom, donor atom, acceptor molecule, acceptor atom, score
      L1  H     8    27       P1  7948  0.54
      L1  H    11    28       P1  7948  0.95
      L1  H    15    43       P1 10175  0.99

> <Gold.Chemscore.Hbond.Weighted>
-9.5937

> <Gold.Chemscore.Metal.Weighted>
-0.0000

> <Gold.Chemscore.Lipo.Weighted>
-8.0866

> <Gold.Chemscore.Internal_Hbond.Weighted>
0.0000

> <Gold.Chemscore.DEClash.Weighted>
0.2153

> <Gold.Chemscore.DEInternal.Weighted>
0.5850

> <Gold.Chemscore.Rot.Weighted>
3.8726

> <Gold.Chemscore.Internal.Correction.Weighted>
   9.000000E+99

> <Gold.Protein.RotatedTorsions>
[ 6907 6896 6895 6894 ] final  -22.62 input  -60.11 | X-H torsion
[ 7974 7965 7964 7962 ] final   90.38 input  175.53 | X-H torsion
[ 8008 7997 7996 7995 ] final  -38.30 input   59.86 | X-H torsion
[ 10167 10162 10161 10158 ] final  -97.90 input  -65.29 | X-H torsion
[ 10718 10713 10712 10709 ] final -101.93 input   66.30 | X-H torsion
[ 10763 10752 10751 10750 ] final  -44.70 input  -60.55 | X-H torsion
[ 11005 11000 10999 10996 ] final   30.47 input  -57.11 | X-H torsion

> <Gold.Protein.ActiveResidues>
 VAL166  LYS551  ARG553  GLY616  TRP617  ASP618  TYR619  PRO620  LYS621  CYS622 
 ASP623  PHE694  ASN695  SER759  ASP760  ASP761  ALA762  ILE779  LEU786  VAL792 
 PHE793  MET794  SER795  GLU796  ALA797  LYS798  CYS799  TRP800  GLU811  SER814 

> <Gold.Protein.RotatedAtoms>
  151.2160  135.0500  159.8930 H   0  0  0  0  0  0  0  0  0  0  0  0  # atno 6907 bound_to 6896
  152.5420  134.0693  159.8197 H   0  0  0  0  0  0  0  0  0  0  0  0  # atno 6908 bound_to 6896
  151.0852  133.5310  159.2650 H   0  0  0  0  0  0  0  0  0  0  0  0  # atno 6909 bound_to 6896
  145.5198  139.2279  143.2678 H   0  0  0  0  0  0  0  0  0  0  0  0  # atno 7974 bound_to 7965
  154.4039  140.1581  156.2677 H   0  0  0  0  0  0  0  0  0  0  0  0  # atno 8008 bound_to 7997
  155.8980  140.3435  155.5983 H   0  0  0  0  0  0  0  0  0  0  0  0  # atno 8009 bound_to 7997
  155.7481  140.0801  157.2205 H   0  0  0  0  0  0  0  0  0  0  0  0  # atno 8010 bound_to 7997
  140.2786  143.3296  152.0463 H   0  0  0  0  0  0  0  0  0  0  0  0  # atno 10167 bound_to 10162
  156.0211  130.5396  150.7035 H   0  0  0  0  0  0  0  0  0  0  0  0  # atno 10718 bound_to 10713
  154.0165  135.6675  153.4769 H   0  0  0  0  0  0  0  0  0  0  0  0  # atno 10763 bound_to 10752
  153.0598  135.5034  154.8064 H   0  0  0  0  0  0  0  0  0  0  0  0  # atno 10764 bound_to 10752
  154.6964  135.3070  154.9370 H   0  0  0  0  0  0  0  0  0  0  0  0  # atno 10765 bound_to 10752
  140.2940  134.2832  155.7769 H   0  0  0  0  0  0  0  0  0  0  0  0  # atno 11005 bound_to 11000
  146.2113  140.6009  142.9058 LP  0  0  0  0  0  0  0  0  0  0  0  0  # atno 17320 bound_to 7965
  144.7682  140.5579  143.6688 LP  0  0  0  0  0  0  0  0  0  0  0  0  # atno 17321 bound_to 7965
  139.4969  144.6607  151.6471 LP  0  0  0  0  0  0  0  0  0  0  0  0  # atno 17342 bound_to 10162
  140.5830  143.9912  150.6279 LP  0  0  0  0  0  0  0  0  0  0  0  0  # atno 17343 bound_to 10162
  157.4690  131.0891  151.0663 LP  0  0  0  0  0  0  0  0  0  0  0  0  # atno 17370 bound_to 10713
  157.1129  130.6029  149.5486 LP  0  0  0  0  0  0  0  0  0  0  0  0  # atno 17371 bound_to 10713
  141.2141  133.7603  156.9668 LP  0  0  0  0  0  0  0  0  0  0  0  0  # atno 17394 bound_to 11000
  140.1169  134.9441  157.2147 LP  0  0  0  0  0  0  0  0  0  0  0  0  # atno 17395 bound_to 11000

$$$$
