AV-unprocessed.smi:1949|AV-procd|sdf|7878|dock7
  -GOLD-   2272010 33D 1   1.00000     0.00000
 Structure written by MMmdl.
 28 29  0  0  0  0  0  0  0  0  2 V2000
  148.9695  140.6127  154.6414 C   0  0  0  0  0  0  0  0  0  0  0  0
  150.1254  140.1835  155.4784 C   0  0  0  0  0  0  0  0  0  0  0  0
  151.3708  140.1054  155.0033 N   0  0  0  0  0  0  0  0  0  0  0  0
  152.2730  139.6834  155.9691 N   0  0  0  0  0  0  0  0  0  0  0  0
  151.7016  139.4621  157.1616 C   0  0  0  0  0  0  0  0  0  0  0  0
  152.4019  139.0556  158.2370 N   0  5  0  0  0  0  0  0  0  0  0  0
  153.2718  139.8682  158.8932 C   0  0  0  0  0  0  0  0  0  0  0  0
  154.4756  139.6317  158.9873 O   0  0  0  0  0  0  0  0  0  0  0  0
  152.7812  140.9866  159.4623 N   0  0  0  0  0  0  0  0  0  0  0  0
  153.5428  141.9824  160.2121 C   0  0  0  0  0  0  0  0  0  0  0  0
  153.8578  141.4673  161.6305 C   0  0  0  0  0  0  0  0  0  0  0  0
  153.4209  142.5726  162.5945 C   0  0  0  0  0  0  0  0  0  0  0  0
  152.2947  143.2939  161.8614 C   0  0  0  0  0  0  0  0  0  0  0  0
  152.7390  143.2844  160.3993 C   0  0  0  0  0  0  0  0  0  0  0  0
  149.9608  139.7428  157.1697 S   0  0  0  0  0  0  0  0  0  0  0  0
  149.0308  141.6826  154.4418 H   0  0  0  0  0  0  0  0  0  0  0  0
  148.0310  140.4058  155.1560 H   0  0  0  0  0  0  0  0  0  0  0  0
  148.9721  140.0766  153.6923 H   0  0  0  0  0  0  0  0  0  0  0  0
  151.7919  141.1594  159.3603 H   0  0  0  0  0  0  0  0  0  0  0  0
  154.4748  142.1983  159.6866 H   0  0  0  0  0  0  0  0  0  0  0  0
  153.2890  140.5613  161.8473 H   0  0  0  0  0  0  0  0  0  0  0  0
  154.9127  141.2187  161.7515 H   0  0  0  0  0  0  0  0  0  0  0  0
  153.1093  142.1842  163.5646 H   0  0  0  0  0  0  0  0  0  0  0  0
  154.2491  143.2626  162.7616 H   0  0  0  0  0  0  0  0  0  0  0  0
  151.3665  142.7307  161.9667 H   0  0  0  0  0  0  0  0  0  0  0  0
  152.1210  144.3010  162.2415 H   0  0  0  0  0  0  0  0  0  0  0  0
  153.3945  144.1372  160.2190 H   0  0  0  0  0  0  0  0  0  0  0  0
  151.8958  143.3799  159.7138 H   0  0  0  0  0  0  0  0  0  0  0  0
  1  2  1  0  0  0  0
  1 16  1  0  0  0  0
  1 17  1  0  0  0  0
  1 18  1  0  0  0  0
  2 15  1  0  0  0  0
  2  3  2  0  0  0  0
  3  4  1  0  0  0  0
  4  5  2  0  0  0  0
  5  6  1  0  0  0  0
  5 15  1  0  0  0  0
  6  7  1  0  0  0  0
  7  8  2  0  0  0  0
  7  9  1  0  0  0  0
  9 10  1  0  0  0  0
  9 19  1  0  0  0  0
 10 14  1  0  0  0  0
 10 11  1  0  0  0  0
 10 20  1  0  0  0  0
 11 12  1  0  0  0  0
 11 21  1  0  0  0  0
 11 22  1  0  0  0  0
 12 13  1  0  0  0  0
 12 23  1  0  0  0  0
 12 24  1  0  0  0  0
 13 14  1  0  0  0  0
 13 25  1  0  0  0  0
 13 26  1  0  0  0  0
 14 27  1  0  0  0  0
 14 28  1  0  0  0  0
M  CHG  1   6  -1
M  END
> <s_m_source_file>
AV-unprocessed.smi

> <i_m_source_file_index>
1949

> <i_lp_mmshare_version>
43012

> <i_f3d_flags>
0

> <s_epik_input>
W0NIM11jMW5uYyhzMSlbTkhdQyg9TylbTkhdW0NIXTJbQ0gyXVtDSDJdW0NIMl1bQ0gyXTI=

> <s_epik_cmdline>
J2VwaWtfcHl0aG9uJywgJy1waCcsICc3LjAnLCAnLXRuJywgJzgnLCAnLW1hJywgJzIwMCcsICctbWV0YWxfYmluZGluZycsICctaW1hZScsICc8aW5maWxlLm1hZT4nLCAnLW9tYWUnLCAnPG91dGZpbGUubWFlPic=

> <r_lp_tautomer_probability>
1

> <r_epik_Ionization_Penalty>
4.54091

> <r_epik_Ionization_Penalty_Charging>
4.38642

> <r_epik_Ionization_Penalty_Neutral>
0.154484

> <r_epik_State_Penalty>
4.38606

> <r_epik_Charging_Adjusted_Penalty>
8.77248

> <i_epik_Tot_Q>
-1

> <i_epik_Tot_abs_Q>
1

> <r_epik_Metal_State_Penalty>
0.765318

> <b_epik_Metal_Only>
1

> <s_lp_Force_Field>
OPLS_2005

> <r_lp_Energy>
17.692

> <b_lp_Chiralities_Consistent>
1

> <s_lp_Variant>
AV-unprocessed.smi:1949-2

> <Gold.Version>
5.8.1

> <Gold.Id.Protein>
6NUR|6NUR_protein|mol2

> <Gold.PLP.Fitness>
39.5732

> <Gold.PLP.PLP>
-33.5447

> <Gold.PLP.part.hbond>
-3.0000

> <Gold.PLP.part.metal>
0.0000

> <Gold.PLP.part.buried>
-3.4940

> <Gold.PLP.part.nonpolar>
-26.5614

> <Gold.PLP.part.repulsive>
0.1642

> <Gold.PLP.ligand.clash>
0.0000

> <Gold.PLP.ligand.torsion>
1.4535

> <Gold.PLP.Chemscore.Hbond>
2.9760

> <Gold.PLP.Chemscore.CHOScore>
0.0000

> <Gold.PLP.Chemscore.Metal>
0.0000

> <Gold.Chemscore.Hbonds>
donor molecule, donor type, donor heavy atom, donor atom, acceptor molecule, acceptor atom, score
      P1  H  7989  7998       L1     3  1.00
      P1  H  7997  8009       L1     8  0.91
      P1  H  7997  8010       L1     4  0.52

> <Gold.PLP.Chemscore.Internal.Correction>
0.0075

> <Gold.Rescore>
     Score         DG    S(hbond)    S(metal)    S(lipo)     H(rot)  DE(clash)    DE(int)     intcor
     17.87     -19.17       2.35        0.00      71.90       1.00       0.02       1.27       ----

> <Gold.Chemscore.Fitness>
17.8692

> <Gold.Chemscore.DG>
-19.1656

> <Gold.Chemscore.ZeroCoef>
-5.4800

> <Gold.Chemscore.Hbond>
2.3452

> <Gold.Chemscore.Metal>
0.0000

> <Gold.Chemscore.Lipo>
71.9028

> <Gold.Chemscore.Internal_Hbond>
0.0000

> <Gold.Chemscore.DEClash>
0.0240

> <Gold.Chemscore.DEInternal>
1.2723

> <Gold.Chemscore.Rot>
1.0000

> <Gold.Chemscore.Internal.Correction>
   9.000000E+99

> <Gold.Chemscore.Hbonds>
donor molecule, donor type, donor heavy atom, donor atom, acceptor molecule, acceptor atom, score
      P1  H  7989  7998       L1     3  0.92
      P1  H  7997  8009       L1     8  0.69
      P1  H  7997  8010       L1     4  0.46

> <Gold.Chemscore.Hbond.Weighted>
-7.8330

> <Gold.Chemscore.Metal.Weighted>
-0.0000

> <Gold.Chemscore.Lipo.Weighted>
-8.4126

> <Gold.Chemscore.Internal_Hbond.Weighted>
0.0000

> <Gold.Chemscore.DEClash.Weighted>
0.0240

> <Gold.Chemscore.DEInternal.Weighted>
1.2723

> <Gold.Chemscore.Rot.Weighted>
2.5600

> <Gold.Chemscore.Internal.Correction.Weighted>
   9.000000E+99

> <Gold.Protein.RotatedTorsions>
[ 6907 6896 6895 6894 ] final   70.54 input  -60.11 | X-H torsion
[ 7974 7965 7964 7962 ] final   18.15 input  175.53 | X-H torsion
[ 8008 7997 7996 7995 ] final  103.64 input   59.86 | X-H torsion
[ 10167 10162 10161 10158 ] final  147.99 input  -65.29 | X-H torsion
[ 10718 10713 10712 10709 ] final   41.03 input   66.30 | X-H torsion
[ 10763 10752 10751 10750 ] final   44.80 input  -60.55 | X-H torsion
[ 11005 11000 10999 10996 ] final  105.10 input  -57.11 | X-H torsion

> <Gold.Protein.ActiveResidues>
 VAL166  LYS551  ARG553  GLY616  TRP617  ASP618  TYR619  PRO620  LYS621  CYS622 
 ASP623  PHE694  ASN695  SER759  ASP760  ASP761  ALA762  ILE779  LEU786  VAL792 
 PHE793  MET794  SER795  GLU796  ALA797  LYS798  CYS799  TRP800  GLU811  SER814 

> <Gold.Protein.RotatedAtoms>
  152.4755  134.4853  159.9678 H   0  0  0  0  0  0  0  0  0  0  0  0  # atno 6907 bound_to 6896
  151.4870  133.3527  159.2855 H   0  0  0  0  0  0  0  0  0  0  0  0  # atno 6908 bound_to 6896
  150.8792  134.8206  159.7273 H   0  0  0  0  0  0  0  0  0  0  0  0  # atno 6909 bound_to 6896
  146.2195  139.8499  142.8624 H   0  0  0  0  0  0  0  0  0  0  0  0  # atno 7974 bound_to 7965
  156.1502  140.3161  155.8635 H   0  0  0  0  0  0  0  0  0  0  0  0  # atno 8008 bound_to 7997
  155.3986  140.0498  157.3055 H   0  0  0  0  0  0  0  0  0  0  0  0  # atno 8009 bound_to 7997
  154.5052  140.2144  155.9278 H   0  0  0  0  0  0  0  0  0  0  0  0  # atno 8010 bound_to 7997
  139.4881  144.5713  151.7049 H   0  0  0  0  0  0  0  0  0  0  0  0  # atno 10167 bound_to 10162
  157.3890  130.7796  149.7254 H   0  0  0  0  0  0  0  0  0  0  0  0  # atno 10718 bound_to 10713
  152.9835  135.6059  154.3332 H   0  0  0  0  0  0  0  0  0  0  0  0  # atno 10763 bound_to 10752
  154.3034  135.2772  155.2602 H   0  0  0  0  0  0  0  0  0  0  0  0  # atno 10764 bound_to 10752
  154.4844  135.5908  153.6469 H   0  0  0  0  0  0  0  0  0  0  0  0  # atno 10765 bound_to 10752
  139.8798  134.9324  156.5463 H   0  0  0  0  0  0  0  0  0  0  0  0  # atno 11005 bound_to 11000
  145.2812  141.0139  143.3716 LP  0  0  0  0  0  0  0  0  0  0  0  0  # atno 17320 bound_to 7965
  144.9149  139.4483  143.6569 LP  0  0  0  0  0  0  0  0  0  0  0  0  # atno 17321 bound_to 7965
  140.5301  144.0743  150.6051 LP  0  0  0  0  0  0  0  0  0  0  0  0  # atno 17342 bound_to 10162
  140.3731  143.2844  152.0256 LP  0  0  0  0  0  0  0  0  0  0  0  0  # atno 17343 bound_to 10162
  155.9793  130.4041  150.3592 LP  0  0  0  0  0  0  0  0  0  0  0  0  # atno 17370 bound_to 10713
  157.1706  131.0368  151.2797 LP  0  0  0  0  0  0  0  0  0  0  0  0  # atno 17371 bound_to 10713
  140.8273  133.8306  155.8951 LP  0  0  0  0  0  0  0  0  0  0  0  0  # atno 17394 bound_to 11000
  140.9362  134.1959  157.4830 LP  0  0  0  0  0  0  0  0  0  0  0  0  # atno 17395 bound_to 11000

$$$$
