AV-unprocessed.smi:2161|AV-procd|sdf|8801|dock2
  -GOLD-   2272011583D 1   1.00000     0.00000
 Structure written by MMmdl.
 31 32  0  0  0  0  0  0  0  0  1 V2000
  146.8374  138.9135  152.1964 C   0  0  0  0  0  0  0  0  0  0  0  0
  147.2903  139.5032  153.5290 C   0  0  0  0  0  0  0  0  0  0  0  0
  146.4979  139.5420  154.4698 O   0  0  0  0  0  0  0  0  0  0  0  0
  148.5603  139.9474  153.5730 N   0  0  0  0  0  0  0  0  0  0  0  0
  149.2518  140.5301  154.6684 C   0  0  0  0  0  0  0  0  0  0  0  0
  148.4261  141.1263  155.6472 C   0  0  0  0  0  0  0  0  0  0  0  0
  149.0133  141.7314  156.7746 C   0  0  0  0  0  0  0  0  0  0  0  0
  150.4194  141.7272  156.8987 C   0  0  0  0  0  0  0  0  0  0  0  0
  151.0808  142.3115  157.9884 N   0  0  0  0  0  0  0  0  0  0  0  0
  152.1130  141.4528  158.5544 C   0  0  0  0  0  0  0  0  0  0  0  0
  152.7039  142.1005  159.8196 C   0  0  0  0  0  0  0  0  0  0  0  0
  153.1845  143.4063  159.5113 O   0  0  0  0  0  0  0  0  0  0  0  0
  152.1472  144.2587  159.0333 C   0  0  0  0  0  0  0  0  0  0  0  0
  151.5529  143.6685  157.7430 C   0  0  0  0  0  0  0  0  0  0  0  0
  151.1646  141.1160  155.8707 C   0  0  0  0  0  0  0  0  0  0  0  0
  150.6022  140.5340  154.7908 N   0  0  0  0  0  0  0  0  0  0  0  0
  147.4965  139.2135  151.3807 H   0  0  0  0  0  0  0  0  0  0  0  0
  145.8279  139.2490  151.9565 H   0  0  0  0  0  0  0  0  0  0  0  0
  146.8326  137.8247  152.2512 H   0  0  0  0  0  0  0  0  0  0  0  0
  149.0927  139.8605  152.7199 H   0  0  0  0  0  0  0  0  0  0  0  0
  147.3511  141.1228  155.5396 H   0  0  0  0  0  0  0  0  0  0  0  0
  148.3892  142.1931  157.5253 H   0  0  0  0  0  0  0  0  0  0  0  0
  151.6920  140.4763  158.7970 H   0  0  0  0  0  0  0  0  0  0  0  0
  152.9015  141.2912  157.8179 H   0  0  0  0  0  0  0  0  0  0  0  0
  151.9572  142.1552  160.6133 H   0  0  0  0  0  0  0  0  0  0  0  0
  153.5291  141.4984  160.1999 H   0  0  0  0  0  0  0  0  0  0  0  0
  151.3778  144.3782  159.7979 H   0  0  0  0  0  0  0  0  0  0  0  0
  152.5602  145.2484  158.8388 H   0  0  0  0  0  0  0  0  0  0  0  0
  152.3119  143.6661  156.9598 H   0  0  0  0  0  0  0  0  0  0  0  0
  150.7269  144.2887  157.3928 H   0  0  0  0  0  0  0  0  0  0  0  0
  152.2436  141.0893  155.9156 H   0  0  0  0  0  0  0  0  0  0  0  0
  1  2  1  0  0  0  0
  1 17  1  0  0  0  0
  1 18  1  0  0  0  0
  1 19  1  0  0  0  0
  2  3  2  0  0  0  0
  2  4  1  0  0  0  0
  4  5  1  0  0  0  0
  4 20  1  0  0  0  0
  5 16  1  0  0  0  0
  5  6  2  0  0  0  0
  6  7  1  0  0  0  0
  6 21  1  0  0  0  0
  7  8  2  0  0  0  0
  7 22  1  0  0  0  0
  8  9  1  0  0  0  0
  8 15  1  0  0  0  0
  9 14  1  0  0  0  0
  9 10  1  0  0  0  0
 10 11  1  0  0  0  0
 10 23  1  0  0  0  0
 10 24  1  0  0  0  0
 11 12  1  0  0  0  0
 11 25  1  0  0  0  0
 11 26  1  0  0  0  0
 12 13  1  0  0  0  0
 13 14  1  0  0  0  0
 13 27  1  0  0  0  0
 13 28  1  0  0  0  0
 14 29  1  0  0  0  0
 14 30  1  0  0  0  0
 15 16  2  0  0  0  0
 15 31  1  0  0  0  0
M  END
> <s_m_source_file>
AV-unprocessed.smi

> <i_m_source_file_index>
2161

> <i_lp_mmshare_version>
43012

> <i_f3d_flags>
0

> <s_epik_input>
W0NIM11DKD1PKVtOSF1jMVtjSF1bY0hdYyhbY0hdbjEpTjJbQ0gyXVtDSDJdT1tDSDJdW0NIMl0y

> <s_epik_cmdline>
J2VwaWtfcHl0aG9uJywgJy1waCcsICc3LjAnLCAnLXRuJywgJzgnLCAnLW1hJywgJzIwMCcsICctbWV0YWxfYmluZGluZycsICctaW1hZScsICc8aW5maWxlLm1hZT4nLCAnLW9tYWUnLCAnPG91dGZpbGUubWFlPic=

> <r_lp_tautomer_probability>
1

> <r_epik_Ionization_Penalty>
0.00240688

> <r_epik_Ionization_Penalty_Charging>
0

> <r_epik_Ionization_Penalty_Neutral>
0.00240688

> <r_epik_State_Penalty>
0.00372447

> <r_epik_Charging_Adjusted_Penalty>
0.00372447

> <i_epik_Tot_Q>
0

> <i_epik_Tot_abs_Q>
0

> <r_epik_Metal_State_Penalty>
-0

> <b_epik_Metal_Only>
0

> <s_lp_Force_Field>
OPLS_2005

> <r_lp_Energy>
25.1248

> <b_lp_Chiralities_Consistent>
1

> <s_lp_Variant>
AV-unprocessed.smi:2161-1

> <Gold.Version>
5.8.1

> <Gold.Id.Protein>
6NUR|6NUR_protein|mol2

> <Gold.PLP.Fitness>
37.9890

> <Gold.PLP.PLP>
-33.0695

> <Gold.PLP.part.hbond>
-2.0000

> <Gold.PLP.part.metal>
0.0000

> <Gold.PLP.part.buried>
-3.2446

> <Gold.PLP.part.nonpolar>
-27.4250

> <Gold.PLP.part.repulsive>
0.3544

> <Gold.PLP.ligand.clash>
0.0000

> <Gold.PLP.ligand.torsion>
0.5950

> <Gold.PLP.Chemscore.Hbond>
2.0000

> <Gold.PLP.Chemscore.CHOScore>
0.0000

> <Gold.PLP.Chemscore.Metal>
0.0000

> <Gold.Chemscore.Hbonds>
donor molecule, donor type, donor heavy atom, donor atom, acceptor molecule, acceptor atom, score
      L1  H     4    20       P1  7957  1.00
      P1  H  7989  7998       L1    16  1.00

> <Gold.PLP.Chemscore.Internal.Correction>
0.1096

> <Gold.Rescore>
     Score         DG    S(hbond)    S(metal)    S(lipo)     H(rot)  DE(clash)    DE(int)     intcor
     15.34     -17.62       1.72        0.00      76.54       1.00       0.20       2.09       ----

> <Gold.Chemscore.Fitness>
15.3363

> <Gold.Chemscore.DG>
-17.6227

> <Gold.Chemscore.ZeroCoef>
-5.4800

> <Gold.Chemscore.Hbond>
1.7208

> <Gold.Chemscore.Metal>
0.0000

> <Gold.Chemscore.Lipo>
76.5413

> <Gold.Chemscore.Internal_Hbond>
0.0000

> <Gold.Chemscore.DEClash>
0.1961

> <Gold.Chemscore.DEInternal>
2.0903

> <Gold.Chemscore.Rot>
1.0000

> <Gold.Chemscore.Internal.Correction>
   9.000000E+99

> <Gold.Chemscore.Hbonds>
donor molecule, donor type, donor heavy atom, donor atom, acceptor molecule, acceptor atom, score
      L1  H     4    20       P1  7957  1.00
      P1  H  7989  7998       L1    16  0.52

> <Gold.Chemscore.Hbond.Weighted>
-5.7474

> <Gold.Chemscore.Metal.Weighted>
-0.0000

> <Gold.Chemscore.Lipo.Weighted>
-8.9553

> <Gold.Chemscore.Internal_Hbond.Weighted>
0.0000

> <Gold.Chemscore.DEClash.Weighted>
0.1961

> <Gold.Chemscore.DEInternal.Weighted>
2.0903

> <Gold.Chemscore.Rot.Weighted>
2.5600

> <Gold.Chemscore.Internal.Correction.Weighted>
   9.000000E+99

> <Gold.Protein.RotatedTorsions>
[ 6907 6896 6895 6894 ] final  -99.87 input  -60.11 | X-H torsion
[ 7974 7965 7964 7962 ] final -135.20 input  175.53 | X-H torsion
[ 8008 7997 7996 7995 ] final  -57.47 input   59.86 | X-H torsion
[ 10167 10162 10161 10158 ] final  115.56 input  -65.29 | X-H torsion
[ 10718 10713 10712 10709 ] final   89.12 input   66.30 | X-H torsion
[ 10763 10752 10751 10750 ] final  145.11 input  -60.55 | X-H torsion
[ 11005 11000 10999 10996 ] final  -13.61 input  -57.11 | X-H torsion

> <Gold.Protein.ActiveResidues>
 VAL166  LYS551  ARG553  GLY616  TRP617  ASP618  TYR619  PRO620  LYS621  CYS622 
 ASP623  PHE694  ASN695  SER759  ASP760  ASP761  ALA762  ILE779  LEU786  VAL792 
 PHE793  MET794  SER795  GLU796  ALA797  LYS798  CYS799  TRP800  GLU811  SER814 

> <Gold.Protein.RotatedAtoms>
  150.7095  134.0975  159.3953 H   0  0  0  0  0  0  0  0  0  0  0  0  # atno 6907 bound_to 6896
  151.8961  135.0395  160.0511 H   0  0  0  0  0  0  0  0  0  0  0  0  # atno 6908 bound_to 6896
  152.2452  133.5133  159.5330 H   0  0  0  0  0  0  0  0  0  0  0  0  # atno 6909 bound_to 6896
  144.9035  140.6802  143.5070 H   0  0  0  0  0  0  0  0  0  0  0  0  # atno 7974 bound_to 7965
  154.4269  140.1106  156.5802 H   0  0  0  0  0  0  0  0  0  0  0  0  # atno 8008 bound_to 7997
  155.6120  140.3494  155.4606 H   0  0  0  0  0  0  0  0  0  0  0  0  # atno 8009 bound_to 7997
  156.0091  140.1215  157.0461 H   0  0  0  0  0  0  0  0  0  0  0  0  # atno 8010 bound_to 7997
  139.6308  144.7114  151.2436 H   0  0  0  0  0  0  0  0  0  0  0  0  # atno 10167 bound_to 10162
  157.6953  131.0321  150.3378 H   0  0  0  0  0  0  0  0  0  0  0  0  # atno 10718 bound_to 10713
  154.0000  135.2924  155.3403 H   0  0  0  0  0  0  0  0  0  0  0  0  # atno 10763 bound_to 10752
  154.7165  135.5127  153.8748 H   0  0  0  0  0  0  0  0  0  0  0  0  # atno 10764 bound_to 10752
  153.0770  135.6667  154.0243 H   0  0  0  0  0  0  0  0  0  0  0  0  # atno 10765 bound_to 10752
  140.7779  133.8386  155.9265 H   0  0  0  0  0  0  0  0  0  0  0  0  # atno 11005 bound_to 11000
  145.3576  139.1690  143.4401 LP  0  0  0  0  0  0  0  0  0  0  0  0  # atno 17320 bound_to 7965
  146.3121  140.3634  142.8667 LP  0  0  0  0  0  0  0  0  0  0  0  0  # atno 17321 bound_to 7965
  140.7438  143.6484  150.8271 LP  0  0  0  0  0  0  0  0  0  0  0  0  # atno 17342 bound_to 10162
  140.0108  143.5644  152.2839 LP  0  0  0  0  0  0  0  0  0  0  0  0  # atno 17343 bound_to 10162
  156.3843  130.3886  149.7078 LP  0  0  0  0  0  0  0  0  0  0  0  0  # atno 17370 bound_to 10713
  156.4450  130.7879  151.2900 LP  0  0  0  0  0  0  0  0  0  0  0  0  # atno 17371 bound_to 10713
  140.9511  134.1777  157.4727 LP  0  0  0  0  0  0  0  0  0  0  0  0  # atno 17394 bound_to 11000
  139.8746  134.9909  156.5526 LP  0  0  0  0  0  0  0  0  0  0  0  0  # atno 17395 bound_to 11000

$$$$
