AV-unprocessed.smi:1451|AV-procd|sdf|5900|dock9
  -GOLD-   22720 5583D 1   1.00000     0.00000
 Structure written by MMmdl.
 47 48  0  0  0  0  0  0  0  0  2 V2000
  146.0562  136.4556  151.7241 C   0  0  0  0  0  0  0  0  0  0  0  0
  145.5082  135.2706  152.5387 C   0  0  1  0  0  0  0  0  0  0  0  0
  145.1361  134.0641  151.6572 C   0  0  0  0  0  0  0  0  0  0  0  0
  146.3903  133.3363  151.1538 C   0  0  0  0  0  0  0  0  0  0  0  0
  147.3131  132.9560  152.3220 C   0  0  0  0  0  0  0  0  0  0  0  0
  147.6741  134.1504  153.1271 N   0  3  2  0  0  0  0  0  0  0  0  0
  148.6906  133.8493  154.1687 C   0  0  0  0  0  0  0  0  0  0  0  0
  148.0791  133.2834  155.4652 C   0  0  0  0  0  0  0  0  0  0  0  0
  147.8856  134.3334  156.4613 N   0  0  0  0  0  0  0  0  0  0  0  0
  148.4487  134.3765  157.6812 C   0  0  0  0  0  0  0  0  0  0  0  0
  149.2630  133.5406  158.0692 O   0  0  0  0  0  0  0  0  0  0  0  0
  148.0152  135.4958  158.6428 C   0  0  0  0  0  0  0  0  0  0  0  0
  147.5661  135.0279  159.9663 N   0  0  0  0  0  0  0  0  0  0  0  0
  147.1119  133.6965  160.0451 C   0  0  0  0  0  0  0  0  0  0  0  0
  146.6670  133.1399  161.1871 C   0  0  0  0  0  0  0  0  0  0  0  0
  146.1336  131.7165  161.2152 C   0  0  0  0  0  0  0  0  0  0  0  0
  145.1582  131.5428  160.3233 F   0  0  0  0  0  0  0  0  0  0  0  0
  147.1077  130.8465  160.9450 F   0  0  0  0  0  0  0  0  0  0  0  0
  145.6517  131.4342  162.4248 F   0  0  0  0  0  0  0  0  0  0  0  0
  146.6615  133.9915  162.3608 C   0  0  0  0  0  0  0  0  0  0  0  0
  147.0781  135.2715  162.2992 C   0  0  0  0  0  0  0  0  0  0  0  0
  147.5564  135.8635  161.0477 C   0  0  0  0  0  0  0  0  0  0  0  0
  147.9149  137.0383  160.9731 O   0  0  0  0  0  0  0  0  0  0  0  0
  146.4705  134.8394  153.6651 C   0  0  0  0  0  0  0  0  0  0  0  0
  147.0055  136.2178  151.2441 H   0  0  0  0  0  0  0  0  0  0  0  0
  146.2191  137.3248  152.3614 H   0  0  0  0  0  0  0  0  0  0  0  0
  145.3553  136.7521  150.9435 H   0  0  0  0  0  0  0  0  0  0  0  0
  144.5897  135.6225  153.0105 H   0  0  0  0  0  0  0  0  0  0  0  0
  144.5301  133.3678  152.2383 H   0  0  0  0  0  0  0  0  0  0  0  0
  144.5169  134.3786  150.8163 H   0  0  0  0  0  0  0  0  0  0  0  0
  146.1031  132.4412  150.6015 H   0  0  0  0  0  0  0  0  0  0  0  0
  146.9294  133.9697  150.4490 H   0  0  0  0  0  0  0  0  0  0  0  0
  146.8294  132.2162  152.9618 H   0  0  0  0  0  0  0  0  0  0  0  0
  148.2158  132.4913  151.9234 H   0  0  0  0  0  0  0  0  0  0  0  0
  149.4493  133.1737  153.7716 H   0  0  0  0  0  0  0  0  0  0  0  0
  149.2112  134.7720  154.4288 H   0  0  0  0  0  0  0  0  0  0  0  0
  147.1456  132.7616  155.2502 H   0  0  0  0  0  0  0  0  0  0  0  0
  148.7482  132.5327  155.8864 H   0  0  0  0  0  0  0  0  0  0  0  0
  147.2421  135.0728  156.2176 H   0  0  0  0  0  0  0  0  0  0  0  0
  148.8567  136.1792  158.7684 H   0  0  0  0  0  0  0  0  0  0  0  0
  147.2433  136.0910  158.1521 H   0  0  0  0  0  0  0  0  0  0  0  0
  147.1355  133.1578  159.1084 H   0  0  0  0  0  0  0  0  0  0  0  0
  146.3218  133.5988  163.3081 H   0  0  0  0  0  0  0  0  0  0  0  0
  147.0618  135.8765  163.1941 H   0  0  0  0  0  0  0  0  0  0  0  0
  146.7606  135.7135  154.2480 H   0  0  0  0  0  0  0  0  0  0  0  0
  145.9552  134.1672  154.3530 H   0  0  0  0  0  0  0  0  0  0  0  0
  148.1137  134.7957  152.4865 H   0  0  0  0  0  0  0  0  0  0  0  0
  1  2  1  0  0  0  0
  1 25  1  0  0  0  0
  1 26  1  0  0  0  0
  1 27  1  0  0  0  0
  2 24  1  0  0  0  0
  2  3  1  0  0  0  0
  2 28  1  0  0  0  0
  3  4  1  0  0  0  0
  3 29  1  0  0  0  0
  3 30  1  0  0  0  0
  4  5  1  0  0  0  0
  4 31  1  0  0  0  0
  4 32  1  0  0  0  0
  5  6  1  0  0  0  0
  5 33  1  0  0  0  0
  5 34  1  0  0  0  0
  6  7  1  0  0  0  0
  6 24  1  0  0  0  0
  6 47  1  0  0  0  0
  7  8  1  0  0  0  0
  7 35  1  0  0  0  0
  7 36  1  0  0  0  0
  8  9  1  0  0  0  0
  8 37  1  0  0  0  0
  8 38  1  0  0  0  0
  9 10  1  0  0  0  0
  9 39  1  0  0  0  0
 10 11  2  0  0  0  0
 10 12  1  0  0  0  0
 12 13  1  0  0  0  0
 12 40  1  0  0  0  0
 12 41  1  0  0  0  0
 13 22  1  0  0  0  0
 13 14  1  0  0  0  0
 14 15  2  0  0  0  0
 14 42  1  0  0  0  0
 15 16  1  0  0  0  0
 15 20  1  0  0  0  0
 16 17  1  0  0  0  0
 16 18  1  0  0  0  0
 16 19  1  0  0  0  0
 20 21  2  0  0  0  0
 20 43  1  0  0  0  0
 21 22  1  0  0  0  0
 21 44  1  0  0  0  0
 22 23  2  0  0  0  0
 24 45  1  0  0  0  0
 24 46  1  0  0  0  0
M  CHG  1   6   1
M  END
> <s_m_source_file>
AV-unprocessed.smi

> <i_m_source_file_index>
1451

> <i_lp_mmshare_version>
43012

> <i_f3d_flags>
0

> <s_epik_input>
W0NIM11bQ0BASF0xW0NIMl1bQ0gyXVtDSDJdTihbQ0gyXTEpW0NIMl1bQ0gyXVtOSF1DKD1PKVtDSDJdbjJbY0hdYyhDKEYpKEYpRilbY0hdW2NIXWMyPU8=

> <s_epik_cmdline>
J2VwaWtfcHl0aG9uJywgJy1waCcsICc3LjAnLCAnLXRuJywgJzgnLCAnLW1hJywgJzIwMCcsICctbWV0YWxfYmluZGluZycsICctaW1hZScsICc8aW5maWxlLm1hZT4nLCAnLW9tYWUnLCAnPG91dGZpbGUubWFlPic=

> <r_lp_tautomer_probability>
1

> <r_epik_Ionization_Penalty>
0.00192452

> <r_epik_Ionization_Penalty_Charging>
0.00192444

> <r_epik_Ionization_Penalty_Neutral>
8.16761e-08

> <r_epik_State_Penalty>
0.00131115

> <r_epik_Charging_Adjusted_Penalty>
0.00323559

> <i_epik_Tot_Q>
1

> <i_epik_Tot_abs_Q>
1

> <r_epik_Metal_State_Penalty>
-0

> <b_epik_Metal_Only>
0

> <s_lp_Force_Field>
OPLS_2005

> <r_lp_Energy>
37.139

> <b_lp_Chiralities_Consistent>
1

> <s_lp_Variant>
AV-unprocessed.smi:1451-2

> <Gold.Version>
5.8.1

> <Gold.Id.Protein>
6NUR|6NUR_protein|mol2

> <Gold.PLP.Fitness>
46.4080

> <Gold.PLP.PLP>
-33.6826

> <Gold.PLP.part.hbond>
-4.0000

> <Gold.PLP.part.metal>
0.0000

> <Gold.PLP.part.buried>
-2.8158

> <Gold.PLP.part.nonpolar>
-26.8289

> <Gold.PLP.part.repulsive>
0.0021

> <Gold.PLP.ligand.clash>
0.0000

> <Gold.PLP.ligand.torsion>
0.8705

> <Gold.PLP.Chemscore.Hbond>
4.8080

> <Gold.PLP.Chemscore.CHOScore>
0.0000

> <Gold.PLP.Chemscore.Metal>
0.0000

> <Gold.Chemscore.Hbonds>
donor molecule, donor type, donor heavy atom, donor atom, acceptor molecule, acceptor atom, score
      L1  H     6    47       P1  7948  2.00
      P1  H  6896  6908       L1    11  1.00
      P1  H  6931  6943       L1    23  0.99
      P1  H  6934  6947       L1    23  0.65

> <Gold.PLP.Chemscore.Internal.Correction>
0.0424

> <Gold.Rescore>
     Score         DG    S(hbond)    S(metal)    S(lipo)     H(rot)  DE(clash)    DE(int)     intcor
     18.14     -21.33       3.72        0.00      74.69       2.08       1.05       2.15       ----

> <Gold.Chemscore.Fitness>
18.1399

> <Gold.Chemscore.DG>
-21.3326

> <Gold.Chemscore.ZeroCoef>
-5.4800

> <Gold.Chemscore.Hbond>
3.7213

> <Gold.Chemscore.Metal>
0.0000

> <Gold.Chemscore.Lipo>
74.6878

> <Gold.Chemscore.Internal_Hbond>
0.0000

> <Gold.Chemscore.DEClash>
1.0457

> <Gold.Chemscore.DEInternal>
2.1470

> <Gold.Chemscore.Rot>
2.0762

> <Gold.Chemscore.Internal.Correction>
   9.000000E+99

> <Gold.Chemscore.Hbonds>
donor molecule, donor type, donor heavy atom, donor atom, acceptor molecule, acceptor atom, score
      L1  H     6    47       P1  7948  0.60
      P1  H  6896  6908       L1    11  0.92
      P1  H  6931  6943       L1    23  0.93
      P1  H  6934  6947       L1    23  0.63

> <Gold.Chemscore.Hbond.Weighted>
-12.4292

> <Gold.Chemscore.Metal.Weighted>
-0.0000

> <Gold.Chemscore.Lipo.Weighted>
-8.7385

> <Gold.Chemscore.Internal_Hbond.Weighted>
0.0000

> <Gold.Chemscore.DEClash.Weighted>
1.0457

> <Gold.Chemscore.DEInternal.Weighted>
2.1470

> <Gold.Chemscore.Rot.Weighted>
5.3150

> <Gold.Chemscore.Internal.Correction.Weighted>
   9.000000E+99

> <Gold.Protein.RotatedTorsions>
[ 6907 6896 6895 6894 ] final  142.74 input  -60.11 | X-H torsion
[ 7974 7965 7964 7962 ] final  -48.94 input  175.53 | X-H torsion
[ 8008 7997 7996 7995 ] final -155.00 input   59.86 | X-H torsion
[ 10167 10162 10161 10158 ] final   71.43 input  -65.29 | X-H torsion
[ 10718 10713 10712 10709 ] final   47.37 input   66.30 | X-H torsion
[ 10763 10752 10751 10750 ] final -138.14 input  -60.55 | X-H torsion
[ 11005 11000 10999 10996 ] final   59.93 input  -57.11 | X-H torsion

> <Gold.Protein.ActiveResidues>
 VAL166  LYS551  ARG553  GLY616  TRP617  ASP618  TYR619  PRO620  LYS621  CYS622 
 ASP623  PHE694  ASN695  SER759  ASP760  ASP761  ALA762  ILE779  LEU786  VAL792 
 PHE793  MET794  SER795  GLU796  ALA797  LYS798  CYS799  TRP800  GLU811  SER814 

> <Gold.Protein.RotatedAtoms>
  152.2149  133.4939  159.5130 H   0  0  0  0  0  0  0  0  0  0  0  0  # atno 6907 bound_to 6896
  150.6999  134.1418  159.4117 H   0  0  0  0  0  0  0  0  0  0  0  0  # atno 6908 bound_to 6896
  151.9338  135.0244  160.0582 H   0  0  0  0  0  0  0  0  0  0  0  0  # atno 6909 bound_to 6896
  145.9459  140.7618  142.9529 H   0  0  0  0  0  0  0  0  0  0  0  0  # atno 7974 bound_to 7965
  155.6950  140.0760  157.2433 H   0  0  0  0  0  0  0  0  0  0  0  0  # atno 8008 bound_to 7997
  154.4082  140.1657  156.2181 H   0  0  0  0  0  0  0  0  0  0  0  0  # atno 8009 bound_to 7997
  155.9418  140.3384  155.6337 H   0  0  0  0  0  0  0  0  0  0  0  0  # atno 8010 bound_to 7997
  140.0462  144.5349  150.7397 H   0  0  0  0  0  0  0  0  0  0  0  0  # atno 10167 bound_to 10162
  157.4578  130.8177  149.7854 H   0  0  0  0  0  0  0  0  0  0  0  0  # atno 10718 bound_to 10713
  154.8644  135.3621  154.5336 H   0  0  0  0  0  0  0  0  0  0  0  0  # atno 10763 bound_to 10752
  153.5961  135.7014  153.5408 H   0  0  0  0  0  0  0  0  0  0  0  0  # atno 10764 bound_to 10752
  153.3331  135.4119  155.1473 H   0  0  0  0  0  0  0  0  0  0  0  0  # atno 10765 bound_to 10752
  140.0268  134.6071  155.9562 H   0  0  0  0  0  0  0  0  0  0  0  0  # atno 11005 bound_to 11000
  144.6787  140.2355  143.7350 LP  0  0  0  0  0  0  0  0  0  0  0  0  # atno 17320 bound_to 7965
  145.8237  139.2055  143.1923 LP  0  0  0  0  0  0  0  0  0  0  0  0  # atno 17321 bound_to 7965
  140.7238  143.2615  151.4190 LP  0  0  0  0  0  0  0  0  0  0  0  0  # atno 17342 bound_to 10162
  139.5982  144.1352  152.2168 LP  0  0  0  0  0  0  0  0  0  0  0  0  # atno 17343 bound_to 10162
  156.0015  130.3878  150.2589 LP  0  0  0  0  0  0  0  0  0  0  0  0  # atno 17370 bound_to 10713
  157.0764  131.0131  151.3172 LP  0  0  0  0  0  0  0  0  0  0  0  0  # atno 17371 bound_to 10713
  141.1807  133.6546  156.5010 LP  0  0  0  0  0  0  0  0  0  0  0  0  # atno 17394 bound_to 11000
  140.4293  134.7116  157.4933 LP  0  0  0  0  0  0  0  0  0  0  0  0  # atno 17395 bound_to 11000

$$$$
