AV-unprocessed.smi:2339|AV-procd|sdf|9339|dock5
  -GOLD-   2272012563D 1   1.00000     0.00000
 Structure written by MMmdl.
 49 52  0  0  0  0  0  0  0  0  1 V2000
  145.6711  132.2099  150.1835 C   0  0  0  0  0  0  0  0  0  0  0  0
  144.2367  132.4909  150.6450 C   0  0  0  0  0  0  0  0  0  0  0  0
  144.1677  133.6615  151.5077 N   0  0  0  0  0  0  0  0  0  0  0  0
  142.9659  134.0720  152.0743 C   0  0  0  0  0  0  0  0  0  0  0  0
  142.8327  135.1642  152.8508 C   0  0  0  0  0  0  0  0  0  0  0  0
  144.0163  136.0009  153.1326 C   0  0  0  0  0  0  0  0  0  0  0  0
  143.9305  136.9982  153.8488 O   0  0  0  0  0  0  0  0  0  0  0  0
  145.2983  135.5739  152.5111 C   0  0  0  0  0  0  0  0  0  0  0  0
  146.4144  136.3880  152.7683 N   0  0  0  0  0  0  0  0  0  0  0  0
  146.8453  136.9145  153.9331 C   0  0  0  0  0  0  0  0  0  0  0  0
  146.2857  136.7947  155.0203 O   0  0  0  0  0  0  0  0  0  0  0  0
  147.9921  137.6067  153.8251 N   0  0  0  0  0  0  0  0  0  0  0  0
  148.7288  138.3002  154.8818 C   0  0  1  0  0  0  0  0  0  0  0  0
  150.2186  138.4092  154.5546 C   0  0  2  0  0  0  0  0  0  0  0  0
  151.4556  137.8091  155.1208 C   0  0  0  0  0  0  0  0  0  0  0  0
  152.3063  139.1044  155.1948 C   0  0  0  0  0  0  0  0  0  0  0  0
  151.3914  140.1959  154.9324 O   0  0  0  0  0  0  0  0  0  0  0  0
  150.1367  139.6957  155.3482 C   0  0  1  0  0  0  0  0  0  0  0  0
  148.7232  139.8740  154.7607 C   0  0  0  0  0  0  0  0  0  0  0  0
  148.5705  140.5482  153.3882 C   0  0  0  0  0  0  0  0  0  0  0  0
  147.1185  141.0080  153.2802 C   0  0  0  0  0  0  0  0  0  0  0  0
  146.6890  141.3155  154.7134 C   0  0  0  0  0  0  0  0  0  0  0  0
  147.7218  140.6416  155.6262 C   0  0  0  0  0  0  0  0  0  0  0  0
  145.2909  134.4505  151.7483 C   0  0  0  0  0  0  0  0  0  0  0  0
  145.7054  131.3330  149.5370 H   0  0  0  0  0  0  0  0  0  0  0  0
  146.3289  132.0234  151.0330 H   0  0  0  0  0  0  0  0  0  0  0  0
  146.0769  133.0529  149.6231 H   0  0  0  0  0  0  0  0  0  0  0  0
  143.5911  132.6384  149.7784 H   0  0  0  0  0  0  0  0  0  0  0  0
  143.8418  131.6234  151.1751 H   0  0  0  0  0  0  0  0  0  0  0  0
  142.1248  133.4334  151.8460 H   0  0  0  0  0  0  0  0  0  0  0  0
  141.8784  135.4435  153.2726 H   0  0  0  0  0  0  0  0  0  0  0  0
  146.9837  136.5833  151.9574 H   0  0  0  0  0  0  0  0  0  0  0  0
  148.4009  137.6561  152.9030 H   0  0  0  0  0  0  0  0  0  0  0  0
  148.5392  137.9197  155.8898 H   0  0  0  0  0  0  0  0  0  0  0  0
  150.3601  138.5873  153.4844 H   0  0  0  0  0  0  0  0  0  0  0  0
  151.2846  137.3753  156.1071 H   0  0  0  0  0  0  0  0  0  0  0  0
  151.8972  137.0543  154.4699 H   0  0  0  0  0  0  0  0  0  0  0  0
  152.7602  139.2154  156.1803 H   0  0  0  0  0  0  0  0  0  0  0  0
  153.1036  139.1110  154.4511 H   0  0  0  0  0  0  0  0  0  0  0  0
  150.1165  139.5487  156.4342 H   0  0  0  0  0  0  0  0  0  0  0  0
  149.2286  141.4162  153.3298 H   0  0  0  0  0  0  0  0  0  0  0  0
  148.8297  139.9025  152.5494 H   0  0  0  0  0  0  0  0  0  0  0  0
  147.0010  141.8639  152.6152 H   0  0  0  0  0  0  0  0  0  0  0  0
  146.5062  140.1984  152.8821 H   0  0  0  0  0  0  0  0  0  0  0  0
  146.6853  142.3921  154.8873 H   0  0  0  0  0  0  0  0  0  0  0  0
  145.6797  140.9505  154.9077 H   0  0  0  0  0  0  0  0  0  0  0  0
  147.2331  139.9865  156.3462 H   0  0  0  0  0  0  0  0  0  0  0  0
  148.2366  141.4044  156.2120 H   0  0  0  0  0  0  0  0  0  0  0  0
  146.1697  134.0642  151.2585 H   0  0  0  0  0  0  0  0  0  0  0  0
  1  2  1  0  0  0  0
  1 25  1  0  0  0  0
  1 26  1  0  0  0  0
  1 27  1  0  0  0  0
  2  3  1  0  0  0  0
  2 28  1  0  0  0  0
  2 29  1  0  0  0  0
  3 24  1  0  0  0  0
  3  4  1  0  0  0  0
  4  5  2  0  0  0  0
  4 30  1  0  0  0  0
  5  6  1  0  0  0  0
  5 31  1  0  0  0  0
  6  7  2  0  0  0  0
  6  8  1  0  0  0  0
  8  9  1  0  0  0  0
  8 24  2  0  0  0  0
  9 10  1  0  0  0  0
  9 32  1  0  0  0  0
 10 11  2  0  0  0  0
 10 12  1  0  0  0  0
 12 13  1  0  0  0  0
 12 33  1  0  0  0  0
 13 19  1  0  0  0  0
 13 14  1  0  0  0  0
 13 34  1  0  0  0  0
 14 18  1  0  0  0  0
 14 15  1  0  0  0  0
 14 35  1  0  0  0  0
 15 16  1  0  0  0  0
 15 36  1  0  0  0  0
 15 37  1  0  0  0  0
 16 17  1  0  0  0  0
 16 38  1  0  0  0  0
 16 39  1  0  0  0  0
 17 18  1  0  0  0  0
 18 19  1  0  0  0  0
 18 40  1  0  0  0  0
 19 23  1  0  0  0  0
 19 20  1  0  0  0  0
 20 21  1  0  0  0  0
 20 41  1  0  0  0  0
 20 42  1  0  0  0  0
 21 22  1  0  0  0  0
 21 43  1  0  0  0  0
 21 44  1  0  0  0  0
 22 23  1  0  0  0  0
 22 45  1  0  0  0  0
 22 46  1  0  0  0  0
 23 47  1  0  0  0  0
 23 48  1  0  0  0  0
 24 49  1  0  0  0  0
M  END
> <s_m_source_file>
AV-unprocessed.smi

> <i_m_source_file_index>
2339

> <i_lp_mmshare_version>
43012

> <i_f3d_flags>
0

> <s_epik_input>
W0NIM11bQ0gyXW4xW2NIXVtjSF1jKD1PKWMoW2NIXTEpW05IXUMoPU8pW05IXVtDQEBIXTJbQ0BASF0oW0NIMl1bQ0gyXU8zKVtDQEBIXTNDMjRbQ0gyXVtDSDJdW0NIMl1bQ0gyXTQ=

> <s_epik_cmdline>
J2VwaWtfcHl0aG9uJywgJy1waCcsICc3LjAnLCAnLXRuJywgJzgnLCAnLW1hJywgJzIwMCcsICctbWV0YWxfYmluZGluZycsICctaW1hZScsICc8aW5maWxlLm1hZT4nLCAnLW9tYWUnLCAnPG91dGZpbGUubWFlPic=

> <r_lp_tautomer_probability>
1

> <r_epik_Ionization_Penalty>
0.00145966

> <r_epik_Ionization_Penalty_Charging>
0.00143969

> <r_epik_Ionization_Penalty_Neutral>
1.99697e-05

> <r_epik_State_Penalty>
0.000961843

> <r_epik_Charging_Adjusted_Penalty>
0.00240153

> <i_epik_Tot_Q>
0

> <i_epik_Tot_abs_Q>
0

> <r_epik_Metal_State_Penalty>
-0

> <b_epik_Metal_Only>
0

> <s_lp_Force_Field>
OPLS_2005

> <r_lp_Energy>
78.6826

> <b_lp_Chiralities_Consistent>
1

> <s_lp_Variant>
AV-unprocessed.smi:2339-4

> <Gold.Version>
5.8.1

> <Gold.Id.Protein>
6NUR|6NUR_protein|mol2

> <Gold.PLP.Fitness>
42.5455

> <Gold.PLP.PLP>
-36.2007

> <Gold.PLP.part.hbond>
-2.9525

> <Gold.PLP.part.metal>
0.0000

> <Gold.PLP.part.buried>
-0.3062

> <Gold.PLP.part.nonpolar>
-33.8107

> <Gold.PLP.part.repulsive>
0.2474

> <Gold.PLP.ligand.clash>
0.0000

> <Gold.PLP.ligand.torsion>
0.6181

> <Gold.PLP.Chemscore.Hbond>
1.8800

> <Gold.PLP.Chemscore.CHOScore>
0.5506

> <Gold.PLP.Chemscore.Metal>
0.0000

> <Gold.Chemscore.Hbonds>
donor molecule, donor type, donor heavy atom, donor atom, acceptor molecule, acceptor atom, score
      L1  H     9    32       P1  7948  0.51
      L1  H    12    33       P1  7948  0.56
      P1  H  7989  7998       L1    17  1.00
      L1  C     4    30       P1 10186  0.25

> <Gold.PLP.Chemscore.Internal.Correction>
0.2893

> <Gold.Rescore>
     Score         DG    S(hbond)    S(metal)    S(lipo)     H(rot)  DE(clash)    DE(int)     intcor
     19.00     -21.66       2.59        0.00      89.83       1.17       1.83       0.83       ----

> <Gold.Chemscore.Fitness>
18.9985

> <Gold.Chemscore.DG>
-21.6641

> <Gold.Chemscore.ZeroCoef>
-5.4800

> <Gold.Chemscore.Hbond>
2.5933

> <Gold.Chemscore.Metal>
0.0000

> <Gold.Chemscore.Lipo>
89.8273

> <Gold.Chemscore.Internal_Hbond>
0.0000

> <Gold.Chemscore.DEClash>
1.8340

> <Gold.Chemscore.DEInternal>
0.8316

> <Gold.Chemscore.Rot>
1.1670

> <Gold.Chemscore.Internal.Correction>
   9.000000E+99

> <Gold.Chemscore.Hbonds>
donor molecule, donor type, donor heavy atom, donor atom, acceptor molecule, acceptor atom, score
      L1  H     9    32       P1  7948  0.49
      L1  H    12    33       P1  7948  0.56
      P1  H  7989  7998       L1    17  0.79

> <Gold.Chemscore.Hbond.Weighted>
-8.6617

> <Gold.Chemscore.Metal.Weighted>
-0.0000

> <Gold.Chemscore.Lipo.Weighted>
-10.5098

> <Gold.Chemscore.Internal_Hbond.Weighted>
0.0000

> <Gold.Chemscore.DEClash.Weighted>
1.8340

> <Gold.Chemscore.DEInternal.Weighted>
0.8316

> <Gold.Chemscore.Rot.Weighted>
2.9874

> <Gold.Chemscore.Internal.Correction.Weighted>
   9.000000E+99

> <Gold.Protein.RotatedTorsions>
[ 6907 6896 6895 6894 ] final -125.16 input  -60.11 | X-H torsion
[ 7974 7965 7964 7962 ] final  129.74 input  175.53 | X-H torsion
[ 8008 7997 7996 7995 ] final  -88.81 input   59.86 | X-H torsion
[ 10167 10162 10161 10158 ] final    3.95 input  -65.29 | X-H torsion
[ 10718 10713 10712 10709 ] final   -8.45 input   66.30 | X-H torsion
[ 10763 10752 10751 10750 ] final  -62.33 input  -60.55 | X-H torsion
[ 11005 11000 10999 10996 ] final  165.10 input  -57.11 | X-H torsion

> <Gold.Protein.ActiveResidues>
 VAL166  LYS551  ARG553  GLY616  TRP617  ASP618  TYR619  PRO620  LYS621  CYS622 
 ASP623  PHE694  ASN695  SER759  ASP760  ASP761  ALA762  ILE779  LEU786  VAL792 
 PHE793  MET794  SER795  GLU796  ALA797  LYS798  CYS799  TRP800  GLU811  SER814 

> <Gold.Protein.RotatedAtoms>
  150.8839  133.7334  159.2923 H   0  0  0  0  0  0  0  0  0  0  0  0  # atno 6907 bound_to 6896
  151.4906  135.1056  159.9812 H   0  0  0  0  0  0  0  0  0  0  0  0  # atno 6908 bound_to 6896
  152.4778  133.8133  159.7070 H   0  0  0  0  0  0  0  0  0  0  0  0  # atno 6909 bound_to 6896
  145.0253  139.4094  143.5177 H   0  0  0  0  0  0  0  0  0  0  0  0  # atno 7974 bound_to 7965
  154.6792  140.0549  157.0248 H   0  0  0  0  0  0  0  0  0  0  0  0  # atno 8008 bound_to 7997
  155.0976  140.3225  155.4537 H   0  0  0  0  0  0  0  0  0  0  0  0  # atno 8009 bound_to 7997
  156.2688  140.2037  156.6102 H   0  0  0  0  0  0  0  0  0  0  0  0  # atno 8010 bound_to 7997
  140.6560  143.7426  150.7654 H   0  0  0  0  0  0  0  0  0  0  0  0  # atno 10167 bound_to 10162
  156.7024  130.5097  149.5913 H   0  0  0  0  0  0  0  0  0  0  0  0  # atno 10718 bound_to 10713
  154.2982  135.6240  153.5413 H   0  0  0  0  0  0  0  0  0  0  0  0  # atno 10763 bound_to 10752
  152.9844  135.5672  154.5314 H   0  0  0  0  0  0  0  0  0  0  0  0  # atno 10764 bound_to 10752
  154.4939  135.2868  155.1451 H   0  0  0  0  0  0  0  0  0  0  0  0  # atno 10765 bound_to 10752
  140.2526  134.7965  157.3516 H   0  0  0  0  0  0  0  0  0  0  0  0  # atno 11005 bound_to 11000
  146.3491  139.9774  142.8699 LP  0  0  0  0  0  0  0  0  0  0  0  0  # atno 17320 bound_to 7965
  145.1841  140.9781  143.4249 LP  0  0  0  0  0  0  0  0  0  0  0  0  # atno 17321 bound_to 7965
  140.1086  143.4720  152.2383 LP  0  0  0  0  0  0  0  0  0  0  0  0  # atno 17342 bound_to 10162
  139.5783  144.7498  151.3707 LP  0  0  0  0  0  0  0  0  0  0  0  0  # atno 17343 bound_to 10162
  156.1719  130.6442  151.0847 LP  0  0  0  0  0  0  0  0  0  0  0  0  # atno 17370 bound_to 10713
  157.6968  131.0791  150.6945 LP  0  0  0  0  0  0  0  0  0  0  0  0  # atno 17371 bound_to 10713
  140.1543  134.4810  155.7939 LP  0  0  0  0  0  0  0  0  0  0  0  0  # atno 17394 bound_to 11000
  141.2199  133.6875  156.7433 LP  0  0  0  0  0  0  0  0  0  0  0  0  # atno 17395 bound_to 11000

$$$$
