AV-unprocessed.smi:332|AV-procd|sdf|2352|dock8
  -GOLD-   2262022263D 1   1.00000     0.00000
 Structure written by MMmdl.
 42 44  0  0  0  0  0  0  0  0  1 V2000
  152.6585  140.7543  159.2734 C   0  0  0  0  0  0  0  0  0  0  0  0
  151.3179  141.4711  159.0427 C   0  0  2  0  0  0  0  0  0  0  0  0
  151.1238  141.6256  157.6019 N   0  0  0  0  0  0  0  0  0  0  0  0
  150.0656  141.1936  156.8981 C   0  0  0  0  0  0  0  0  0  0  0  0
  149.1267  140.5708  157.3951 O   0  0  0  0  0  0  0  0  0  0  0  0
  150.0801  141.5123  155.3972 C   0  0  0  0  0  0  0  0  0  0  0  0
  148.9397  140.9202  154.6786 N   0  0  0  0  0  0  0  0  0  0  0  0
  148.0084  141.8088  154.1056 C   0  0  0  0  0  0  0  0  0  0  0  0
  146.9362  141.3727  153.4257 C   0  0  0  0  0  0  0  0  0  0  0  0
  146.7485  139.9478  153.2878 C   0  0  0  0  0  0  0  0  0  0  0  0
  147.6349  139.0889  153.8292 C   0  0  0  0  0  0  0  0  0  0  0  0
  148.8094  139.5612  154.5718 C   0  0  0  0  0  0  0  0  0  0  0  0
  149.6255  138.7833  155.0677 O   0  0  0  0  0  0  0  0  0  0  0  0
  151.2613  142.8510  159.7471 C   0  0  2  0  0  0  0  0  0  0  0  0
  150.3428  143.8694  159.0277 C   0  0  0  0  0  0  0  0  0  0  0  0
  151.2583  145.0880  158.8163 C   0  0  1  0  0  0  0  0  0  0  0  0
  151.5505  145.7538  160.1729 C   0  0  0  0  0  0  0  0  0  0  0  0
  152.5057  144.7486  160.8417 C   0  0  0  0  0  0  0  0  0  0  0  0
  152.6062  143.6244  159.7929 C   0  0  2  0  0  0  0  0  0  0  0  0
  152.5883  144.4207  158.4929 C   0  0  0  0  0  0  0  0  0  0  0  0
  152.8380  140.5668  160.3317 H   0  0  0  0  0  0  0  0  0  0  0  0
  153.4942  141.3448  158.8959 H   0  0  0  0  0  0  0  0  0  0  0  0
  152.6783  139.7888  158.7667 H   0  0  0  0  0  0  0  0  0  0  0  0
  150.5332  140.8356  159.4558 H   0  0  0  0  0  0  0  0  0  0  0  0
  151.8457  142.1240  157.1021 H   0  0  0  0  0  0  0  0  0  0  0  0
  150.0921  142.5936  155.2472 H   0  0  0  0  0  0  0  0  0  0  0  0
  151.0250  141.1557  154.9853 H   0  0  0  0  0  0  0  0  0  0  0  0
  148.2243  142.8579  154.2469 H   0  0  0  0  0  0  0  0  0  0  0  0
  146.2355  142.0693  152.9897 H   0  0  0  0  0  0  0  0  0  0  0  0
  145.8945  139.5687  152.7462 H   0  0  0  0  0  0  0  0  0  0  0  0
  147.4789  138.0262  153.7140 H   0  0  0  0  0  0  0  0  0  0  0  0
  150.9069  142.6921  160.7671 H   0  0  0  0  0  0  0  0  0  0  0  0
  150.0062  143.4931  158.0607 H   0  0  0  0  0  0  0  0  0  0  0  0
  149.4552  144.1121  159.6131 H   0  0  0  0  0  0  0  0  0  0  0  0
  150.8940  145.7813  158.0576 H   0  0  0  0  0  0  0  0  0  0  0  0
  152.0425  146.7177  160.0371 H   0  0  0  0  0  0  0  0  0  0  0  0
  150.6433  145.9185  160.7554 H   0  0  0  0  0  0  0  0  0  0  0  0
  153.4815  145.2052  161.0124 H   0  0  0  0  0  0  0  0  0  0  0  0
  152.1336  144.3927  161.8031 H   0  0  0  0  0  0  0  0  0  0  0  0
  153.4908  143.0040  159.9339 H   0  0  0  0  0  0  0  0  0  0  0  0
  152.5570  143.7962  157.5988 H   0  0  0  0  0  0  0  0  0  0  0  0
  153.4170  145.1258  158.4064 H   0  0  0  0  0  0  0  0  0  0  0  0
  1  2  1  0  0  0  0
  1 21  1  0  0  0  0
  1 22  1  0  0  0  0
  1 23  1  0  0  0  0
  2  3  1  0  0  0  0
  2 14  1  0  0  0  0
  2 24  1  0  0  0  0
  3  4  1  0  0  0  0
  3 25  1  0  0  0  0
  4  5  2  0  0  0  0
  4  6  1  0  0  0  0
  6  7  1  0  0  0  0
  6 26  1  0  0  0  0
  6 27  1  0  0  0  0
  7 12  1  0  0  0  0
  7  8  1  0  0  0  0
  8  9  2  0  0  0  0
  8 28  1  0  0  0  0
  9 10  1  0  0  0  0
  9 29  1  0  0  0  0
 10 11  2  0  0  0  0
 10 30  1  0  0  0  0
 11 12  1  0  0  0  0
 11 31  1  0  0  0  0
 12 13  2  0  0  0  0
 14 19  1  0  0  0  0
 14 15  1  0  0  0  0
 14 32  1  0  0  0  0
 15 16  1  0  0  0  0
 15 33  1  0  0  0  0
 15 34  1  0  0  0  0
 16 20  1  0  0  0  0
 16 17  1  0  0  0  0
 16 35  1  0  0  0  0
 17 18  1  0  0  0  0
 17 36  1  0  0  0  0
 17 37  1  0  0  0  0
 18 19  1  0  0  0  0
 18 38  1  0  0  0  0
 18 39  1  0  0  0  0
 19 20  1  0  0  0  0
 19 40  1  0  0  0  0
 20 41  1  0  0  0  0
 20 42  1  0  0  0  0
M  END
> <s_m_source_file>
AV-unprocessed.smi

> <i_m_source_file_index>
332

> <i_lp_mmshare_version>
43012

> <i_f3d_flags>
0

> <s_epik_input>
W0NIMl0xW0NIMl1bQ0BIXShbQ0gyXTIpW0NAQEhdKFtDSDJdW0NAQEhdMTIpW0NASF0oW0NIM10pW05IXUMoPU8pW0NIMl1uM1tjSF1bY0hdW2NIXVtjSF1jMz1P

> <s_epik_cmdline>
J2VwaWtfcHl0aG9uJywgJy1waCcsICc3LjAnLCAnLXRuJywgJzgnLCAnLW1hJywgJzIwMCcsICctbWV0YWxfYmluZGluZycsICctaW1hZScsICc8aW5maWxlLm1hZT4nLCAnLW9tYWUnLCAnPG91dGZpbGUubWFlPic=

> <r_lp_tautomer_probability>
1

> <r_epik_Ionization_Penalty>
4.05802e-07

> <r_epik_Ionization_Penalty_Charging>
3.84175e-07

> <r_epik_Ionization_Penalty_Neutral>
2.16269e-08

> <r_epik_State_Penalty>
-0

> <r_epik_Charging_Adjusted_Penalty>
3.84175e-07

> <i_epik_Tot_Q>
0

> <i_epik_Tot_abs_Q>
0

> <r_epik_Metal_State_Penalty>
-0

> <b_epik_Metal_Only>
0

> <s_lp_Force_Field>
OPLS_2005

> <r_lp_Energy>
59.6993

> <b_lp_Chiralities_Consistent>
1

> <s_lp_Variant>
AV-unprocessed.smi:332-1

> <Gold.Version>
5.8.1

> <Gold.Id.Protein>
6NUR|6NUR_protein|mol2

> <Gold.PLP.Fitness>
43.5674

> <Gold.PLP.PLP>
-42.0240

> <Gold.PLP.part.hbond>
0.0000

> <Gold.PLP.part.metal>
0.0000

> <Gold.PLP.part.buried>
-4.2590

> <Gold.PLP.part.nonpolar>
-38.3105

> <Gold.PLP.part.repulsive>
0.2128

> <Gold.PLP.ligand.clash>
0.0000

> <Gold.PLP.ligand.torsion>
0.7373

> <Gold.PLP.Chemscore.Hbond>
0.0000

> <Gold.PLP.Chemscore.CHOScore>
1.0000

> <Gold.PLP.Chemscore.Metal>
0.0000

> <Gold.Chemscore.Hbonds>
donor molecule, donor type, donor heavy atom, donor atom, acceptor molecule, acceptor atom, score
      L1  C     8    28       P1  8028  1.00

> <Gold.PLP.Chemscore.Internal.Correction>
0.0179

> <Gold.Rescore>
     Score         DG    S(hbond)    S(metal)    S(lipo)     H(rot)  DE(clash)    DE(int)     intcor
     14.57     -16.80       0.00        0.00     130.45       1.54       1.40       0.83       ----

> <Gold.Chemscore.Fitness>
14.5656

> <Gold.Chemscore.DG>
-16.8009

> <Gold.Chemscore.ZeroCoef>
-5.4800

> <Gold.Chemscore.Hbond>
0.0000

> <Gold.Chemscore.Metal>
0.0000

> <Gold.Chemscore.Lipo>
130.4509

> <Gold.Chemscore.Internal_Hbond>
0.0000

> <Gold.Chemscore.DEClash>
1.4021

> <Gold.Chemscore.DEInternal>
0.8332

> <Gold.Chemscore.Rot>
1.5398

> <Gold.Chemscore.Internal.Correction>
   9.000000E+99

> <Gold.Chemscore.Hbond.Weighted>
-0.0000

> <Gold.Chemscore.Metal.Weighted>
-0.0000

> <Gold.Chemscore.Lipo.Weighted>
-15.2628

> <Gold.Chemscore.Internal_Hbond.Weighted>
0.0000

> <Gold.Chemscore.DEClash.Weighted>
1.4021

> <Gold.Chemscore.DEInternal.Weighted>
0.8332

> <Gold.Chemscore.Rot.Weighted>
3.9419

> <Gold.Chemscore.Internal.Correction.Weighted>
   9.000000E+99

> <Gold.Protein.RotatedTorsions>
[ 6907 6896 6895 6894 ] final  -56.34 input  -60.11 | X-H torsion
[ 7974 7965 7964 7962 ] final   59.18 input  175.53 | X-H torsion
[ 8008 7997 7996 7995 ] final   15.92 input   59.86 | X-H torsion
[ 10167 10162 10161 10158 ] final -160.17 input  -65.29 | X-H torsion
[ 10718 10713 10712 10709 ] final  -49.53 input   66.30 | X-H torsion
[ 10763 10752 10751 10750 ] final   -6.13 input  -60.55 | X-H torsion
[ 11005 11000 10999 10996 ] final   33.82 input  -57.11 | X-H torsion

> <Gold.Protein.ActiveResidues>
 VAL166  LYS551  ARG553  GLY616  TRP617  ASP618  TYR619  PRO620  LYS621  CYS622 
 ASP623  PHE694  ASN695  SER759  ASP760  ASP761  ALA762  ILE779  LEU786  VAL792 
 PHE793  MET794  SER795  GLU796  ALA797  LYS798  CYS799  TRP800  GLU811  SER814 

> <Gold.Protein.RotatedAtoms>
  150.8175  134.7366  159.6743 H   0  0  0  0  0  0  0  0  0  0  0  0  # atno 6907 bound_to 6896
  152.4293  134.5805  159.9956 H   0  0  0  0  0  0  0  0  0  0  0  0  # atno 6908 bound_to 6896
  151.5997  133.3320  159.3081 H   0  0  0  0  0  0  0  0  0  0  0  0  # atno 6909 bound_to 6896
  145.9100  139.3646  143.0541 H   0  0  0  0  0  0  0  0  0  0  0  0  # atno 7974 bound_to 7965
  154.8695  140.2956  155.5490 H   0  0  0  0  0  0  0  0  0  0  0  0  # atno 8008 bound_to 7997
  156.3021  140.2463  156.3615 H   0  0  0  0  0  0  0  0  0  0  0  0  # atno 8009 bound_to 7997
  154.8832  140.0397  157.1784 H   0  0  0  0  0  0  0  0  0  0  0  0  # atno 8010 bound_to 7997
  139.6560  143.9998  152.2194 H   0  0  0  0  0  0  0  0  0  0  0  0  # atno 10167 bound_to 10162
  156.1884  130.4152  149.9406 H   0  0  0  0  0  0  0  0  0  0  0  0  # atno 10718 bound_to 10713
  153.4081  135.7007  153.6378 H   0  0  0  0  0  0  0  0  0  0  0  0  # atno 10763 bound_to 10752
  153.4883  135.3678  155.2479 H   0  0  0  0  0  0  0  0  0  0  0  0  # atno 10764 bound_to 10752
  154.8715  135.4083  154.3428 H   0  0  0  0  0  0  0  0  0  0  0  0  # atno 10765 bound_to 10752
  140.2592  134.3212  155.7863 H   0  0  0  0  0  0  0  0  0  0  0  0  # atno 11005 bound_to 11000
  145.8684  140.9434  143.0663 LP  0  0  0  0  0  0  0  0  0  0  0  0  # atno 17320 bound_to 7965
  144.6742  140.0622  143.7475 LP  0  0  0  0  0  0  0  0  0  0  0  0  # atno 17321 bound_to 7965
  139.9725  144.6484  150.7976 LP  0  0  0  0  0  0  0  0  0  0  0  0  # atno 17342 bound_to 10162
  140.7559  143.3055  151.2972 LP  0  0  0  0  0  0  0  0  0  0  0  0  # atno 17343 bound_to 10162
  156.7154  130.8986  151.3613 LP  0  0  0  0  0  0  0  0  0  0  0  0  # atno 17370 bound_to 10713
  157.6913  130.9237  150.0523 LP  0  0  0  0  0  0  0  0  0  0  0  0  # atno 17371 bound_to 10713
  141.2192  133.7399  156.9159 LP  0  0  0  0  0  0  0  0  0  0  0  0  # atno 17394 bound_to 11000
  140.1482  134.9248  157.2557 LP  0  0  0  0  0  0  0  0  0  0  0  0  # atno 17395 bound_to 11000

$$$$
