AV-unprocessed.smi:284|AV-procd|sdf|2161|dock3
  -GOLD-   2262021513D 1   1.00000     0.00000
 Structure written by MMmdl.
 60 62  0  0  0  0  0  0  0  0  1 V2000
  146.7301  141.6887  153.4483 C   0  0  0  0  0  0  0  0  0  0  0  0
  147.2074  140.3008  153.8470 C   0  0  0  0  0  0  0  0  0  0  0  0
  146.3477  139.2805  154.0708 C   0  0  0  0  0  0  0  0  0  0  0  0
  146.7443  138.0042  154.4316 N   0  0  0  0  0  0  0  0  0  0  0  0
  145.7371  136.9189  154.7631 C   0  0  2  0  0  0  0  0  0  0  0  0
  145.7704  135.7095  153.8171 C   0  0  0  0  0  0  0  0  0  0  0  0
  144.5025  135.9002  153.0032 C   0  0  1  0  0  0  0  0  0  0  0  0
  143.9847  134.6542  152.5829 O   0  0  0  0  0  0  0  0  0  0  0  0
  143.5812  136.6105  153.9989 C   0  0  2  0  0  0  0  0  0  0  0  0
  142.4645  137.4248  153.3281 C   0  0  0  0  0  0  0  0  0  0  0  0
  142.1788  138.5779  154.0904 O   0  0  0  0  0  0  0  0  0  0  0  0
  144.4650  137.4857  154.6931 O   0  0  0  0  0  0  0  0  0  0  0  0
  148.1109  137.7577  154.6878 C   0  0  0  0  0  0  0  0  0  0  0  0
  148.4896  136.6653  155.1168 O   0  0  0  0  0  0  0  0  0  0  0  0
  149.0385  138.7945  154.4389 N   0  0  0  0  0  0  0  0  0  0  0  0
  150.4764  138.5299  154.6720 C   0  0  0  0  0  0  0  0  0  0  0  0
  151.1822  139.6159  155.5001 C   0  0  0  0  0  0  0  0  0  0  0  0
  152.3611  139.9004  155.2850 O   0  0  0  0  0  0  0  0  0  0  0  0
  150.4254  140.1768  156.4610 N   0  0  0  0  0  0  0  0  0  0  0  0
  150.7674  141.2091  157.3760 C   0  0  0  0  0  0  0  0  0  0  0  0
  152.0842  141.4524  157.8298 C   0  0  0  0  0  0  0  0  0  0  0  0
  152.3476  142.5122  158.7193 C   0  0  0  0  0  0  0  0  0  0  0  0
  151.3069  143.3605  159.1715 C   0  0  0  0  0  0  0  0  0  0  0  0
  151.5576  144.5311  160.1416 C   0  0  0  0  0  0  0  0  0  0  0  0
  152.3598  145.6347  159.4217 C   0  0  0  0  0  0  0  0  0  0  0  0
  152.3562  144.1137  161.3972 C   0  0  0  0  0  0  0  0  0  0  0  0
  150.2090  145.1105  160.6180 C   0  0  0  0  0  0  0  0  0  0  0  0
  149.9965  143.1162  158.6977 C   0  0  0  0  0  0  0  0  0  0  0  0
  149.7307  142.0580  157.8087 C   0  0  0  0  0  0  0  0  0  0  0  0
  148.6460  140.0855  154.0103 C   0  0  0  0  0  0  0  0  0  0  0  0
  149.4866  140.9643  153.8095 O   0  0  0  0  0  0  0  0  0  0  0  0
  145.6453  141.7330  153.3478 H   0  0  0  0  0  0  0  0  0  0  0  0
  147.1648  141.9814  152.4919 H   0  0  0  0  0  0  0  0  0  0  0  0
  147.0255  142.4231  154.1985 H   0  0  0  0  0  0  0  0  0  0  0  0
  145.2963  139.4938  153.9687 H   0  0  0  0  0  0  0  0  0  0  0  0
  145.9549  136.5961  155.7818 H   0  0  0  0  0  0  0  0  0  0  0  0
  146.6871  135.6403  153.2314 H   0  0  0  0  0  0  0  0  0  0  0  0
  145.6982  134.8098  154.4304 H   0  0  0  0  0  0  0  0  0  0  0  0
  144.6919  136.5342  152.1370 H   0  0  0  0  0  0  0  0  0  0  0  0
  144.0712  134.5924  151.6438 H   0  0  0  0  0  0  0  0  0  0  0  0
  143.1751  135.8827  154.7048 H   0  0  0  0  0  0  0  0  0  0  0  0
  142.7323  137.6987  152.3070 H   0  0  0  0  0  0  0  0  0  0  0  0
  141.5486  136.8358  153.2754 H   0  0  0  0  0  0  0  0  0  0  0  0
  142.3578  139.3403  153.5616 H   0  0  0  0  0  0  0  0  0  0  0  0
  150.6156  137.5684  155.1690 H   0  0  0  0  0  0  0  0  0  0  0  0
  151.0133  138.4151  153.7291 H   0  0  0  0  0  0  0  0  0  0  0  0
  149.5075  139.7759  156.5863 H   0  0  0  0  0  0  0  0  0  0  0  0
  152.9146  140.8490  157.4975 H   0  0  0  0  0  0  0  0  0  0  0  0
  153.3695  142.6532  159.0344 H   0  0  0  0  0  0  0  0  0  0  0  0
  152.5692  146.4722  160.0880 H   0  0  0  0  0  0  0  0  0  0  0  0
  151.8240  146.0373  158.5619 H   0  0  0  0  0  0  0  0  0  0  0  0
  153.3172  145.2550  159.0627 H   0  0  0  0  0  0  0  0  0  0  0  0
  153.3436  143.7289  161.1391 H   0  0  0  0  0  0  0  0  0  0  0  0
  151.8333  143.3481  161.9718 H   0  0  0  0  0  0  0  0  0  0  0  0
  152.5122  144.9615  162.0654 H   0  0  0  0  0  0  0  0  0  0  0  0
  150.3560  145.9281  161.3245 H   0  0  0  0  0  0  0  0  0  0  0  0
  149.6079  144.3504  161.1183 H   0  0  0  0  0  0  0  0  0  0  0  0
  149.6164  145.5067  159.7935 H   0  0  0  0  0  0  0  0  0  0  0  0
  149.1765  143.7444  159.0115 H   0  0  0  0  0  0  0  0  0  0  0  0
  148.7199  141.8985  157.4626 H   0  0  0  0  0  0  0  0  0  0  0  0
  1  2  1  0  0  0  0
  1 32  1  0  0  0  0
  1 33  1  0  0  0  0
  1 34  1  0  0  0  0
  2 30  1  0  0  0  0
  2  3  2  0  0  0  0
  3  4  1  0  0  0  0
  3 35  1  0  0  0  0
  4  5  1  0  0  0  0
  4 13  1  0  0  0  0
  5 12  1  0  0  0  0
  5  6  1  0  0  0  0
  5 36  1  0  0  0  0
  6  7  1  0  0  0  0
  6 37  1  0  0  0  0
  6 38  1  0  0  0  0
  7  8  1  0  0  0  0
  7  9  1  0  0  0  0
  7 39  1  0  0  0  0
  8 40  1  0  0  0  0
  9 10  1  0  0  0  0
  9 12  1  0  0  0  0
  9 41  1  0  0  0  0
 10 11  1  0  0  0  0
 10 42  1  0  0  0  0
 10 43  1  0  0  0  0
 11 44  1  0  0  0  0
 13 14  2  0  0  0  0
 13 15  1  0  0  0  0
 15 16  1  0  0  0  0
 15 30  1  0  0  0  0
 16 17  1  0  0  0  0
 16 45  1  0  0  0  0
 16 46  1  0  0  0  0
 17 18  2  0  0  0  0
 17 19  1  0  0  0  0
 19 20  1  0  0  0  0
 19 47  1  0  0  0  0
 20 29  1  0  0  0  0
 20 21  2  0  0  0  0
 21 22  1  0  0  0  0
 21 48  1  0  0  0  0
 22 23  2  0  0  0  0
 22 49  1  0  0  0  0
 23 24  1  0  0  0  0
 23 28  1  0  0  0  0
 24 25  1  0  0  0  0
 24 26  1  0  0  0  0
 24 27  1  0  0  0  0
 25 50  1  0  0  0  0
 25 51  1  0  0  0  0
 25 52  1  0  0  0  0
 26 53  1  0  0  0  0
 26 54  1  0  0  0  0
 26 55  1  0  0  0  0
 27 56  1  0  0  0  0
 27 57  1  0  0  0  0
 27 58  1  0  0  0  0
 28 29  2  0  0  0  0
 28 59  1  0  0  0  0
 29 60  1  0  0  0  0
 30 31  2  0  0  0  0
M  END
> <s_m_source_file>
AV-unprocessed.smi

> <i_m_source_file_index>
284

> <i_lp_mmshare_version>
43012

> <i_f3d_flags>
0

> <s_epik_input>
W09IXVtDSDJdW0NAQEhdKE8xKVtDQEhdKFtPSF0pW0NIMl1bQ0BIXTFuKFtjSF1jMltDSDNdKWMoPU8pbihjMj1PKVtDSDJdQyg9TylbTkhdYzNbY0hdW2NIXWMoQyhbQ0gzXSkoW0NIM10pW0NIM10pW2NIXVtjSF0z

> <s_epik_cmdline>
J2VwaWtfcHl0aG9uJywgJy1waCcsICc3LjAnLCAnLXRuJywgJzgnLCAnLW1hJywgJzIwMCcsICctbWV0YWxfYmluZGluZycsICctaW1hZScsICc8aW5maWxlLm1hZT4nLCAnLW9tYWUnLCAnPG91dGZpbGUubWFlPic=

> <r_lp_tautomer_probability>
1

> <r_epik_Ionization_Penalty>
4.92358e-06

> <r_epik_Ionization_Penalty_Charging>
1.29777e-07

> <r_epik_Ionization_Penalty_Neutral>
4.79381e-06

> <r_epik_State_Penalty>
-0

> <r_epik_Charging_Adjusted_Penalty>
1.29777e-07

> <i_epik_Tot_Q>
0

> <i_epik_Tot_abs_Q>
0

> <r_epik_Metal_State_Penalty>
-0

> <b_epik_Metal_Only>
0

> <s_epik_Chemistry_Notes>
This compound contains an acetal/aminal-like group ( X-CH(R)-Y where X, Y are N, S, or O) that may be acid/base labile, releasing an aldehyde.

> <s_lp_Force_Field>
OPLS_2005

> <r_lp_Energy>
40.5501

> <b_lp_Chiralities_Consistent>
1

> <s_lp_Variant>
AV-unprocessed.smi:284-5

> <Gold.Version>
5.8.1

> <Gold.Id.Protein>
6NUR|6NUR_protein|mol2

> <Gold.PLP.Fitness>
54.5254

> <Gold.PLP.PLP>
-44.3408

> <Gold.PLP.part.hbond>
-5.0000

> <Gold.PLP.part.metal>
0.0000

> <Gold.PLP.part.buried>
-4.3691

> <Gold.PLP.part.nonpolar>
-36.8047

> <Gold.PLP.part.repulsive>
3.0060

> <Gold.PLP.ligand.clash>
0.0757

> <Gold.PLP.ligand.torsion>
1.4659

> <Gold.PLP.Chemscore.Hbond>
3.3188

> <Gold.PLP.Chemscore.CHOScore>
1.0000

> <Gold.PLP.Chemscore.Metal>
0.0000

> <Gold.Chemscore.Hbonds>
donor molecule, donor type, donor heavy atom, donor atom, acceptor molecule, acceptor atom, score
      L1  H    11    44       P1 10175  1.00
      P1  H  7989  7998       L1    31  0.28
      P1  H  7997  8009       L1    18  0.62
      P1  H  8011  8017       L1    31  0.82
      L1  C     3    35       P1 10175  1.00

> <Gold.PLP.Chemscore.Internal.Correction>
0.2356

> <Gold.Rescore>
     Score         DG    S(hbond)    S(metal)    S(lipo)     H(rot)  DE(clash)    DE(int)     intcor
     12.33     -22.30       3.14        0.00     125.92       3.27       4.16       5.81       ----

> <Gold.Chemscore.Fitness>
12.3330

> <Gold.Chemscore.DG>
-22.3050

> <Gold.Chemscore.ZeroCoef>
-5.4800

> <Gold.Chemscore.Hbond>
3.1353

> <Gold.Chemscore.Metal>
0.0000

> <Gold.Chemscore.Lipo>
125.9247

> <Gold.Chemscore.Internal_Hbond>
0.0000

> <Gold.Chemscore.DEClash>
4.1604

> <Gold.Chemscore.DEInternal>
5.8117

> <Gold.Chemscore.Rot>
3.2735

> <Gold.Chemscore.Internal.Correction>
   9.000000E+99

> <Gold.Chemscore.Hbonds>
donor molecule, donor type, donor heavy atom, donor atom, acceptor molecule, acceptor atom, score
      L1  H    11    44       P1 10175  0.94
      P1  H  7989  7998       L1    31  0.28
      P1  H  7997  8009       L1    18  0.60
      P1  H  8011  8017       L1    31  0.76

> <Gold.Chemscore.Hbond.Weighted>
-10.4718

> <Gold.Chemscore.Metal.Weighted>
-0.0000

> <Gold.Chemscore.Lipo.Weighted>
-14.7332

> <Gold.Chemscore.Internal_Hbond.Weighted>
0.0000

> <Gold.Chemscore.DEClash.Weighted>
4.1604

> <Gold.Chemscore.DEInternal.Weighted>
5.8117

> <Gold.Chemscore.Rot.Weighted>
8.3801

> <Gold.Chemscore.Internal.Correction.Weighted>
   9.000000E+99

> <Gold.Protein.RotatedTorsions>
[ 6907 6896 6895 6894 ] final  -48.19 input  -60.11 | X-H torsion
[ 7974 7965 7964 7962 ] final   25.08 input  175.53 | X-H torsion
[ 8008 7997 7996 7995 ] final -152.42 input   59.86 | X-H torsion
[ 10167 10162 10161 10158 ] final   36.64 input  -65.29 | X-H torsion
[ 10718 10713 10712 10709 ] final  134.80 input   66.30 | X-H torsion
[ 10763 10752 10751 10750 ] final   21.66 input  -60.55 | X-H torsion
[ 11005 11000 10999 10996 ] final  -70.22 input  -57.11 | X-H torsion

> <Gold.Protein.ActiveResidues>
 VAL166  LYS551  ARG553  GLY616  TRP617  ASP618  TYR619  PRO620  LYS621  CYS622 
 ASP623  PHE694  ASN695  SER759  ASP760  ASP761  ALA762  ILE779  LEU786  VAL792 
 PHE793  MET794  SER795  GLU796  ALA797  LYS798  CYS799  TRP800  GLU811  SER814 

> <Gold.Protein.RotatedAtoms>
  150.8930  134.8336  159.7306 H   0  0  0  0  0  0  0  0  0  0  0  0  # atno 6907 bound_to 6896
  152.4848  134.4619  159.9617 H   0  0  0  0  0  0  0  0  0  0  0  0  # atno 6908 bound_to 6896
  151.4679  133.3537  159.2854 H   0  0  0  0  0  0  0  0  0  0  0  0  # atno 6909 bound_to 6896
  146.1906  139.7515  142.8834 H   0  0  0  0  0  0  0  0  0  0  0  0  # atno 7974 bound_to 7965
  155.6549  140.0716  157.2574 H   0  0  0  0  0  0  0  0  0  0  0  0  # atno 8008 bound_to 7997
  154.4154  140.1726  156.1765 H   0  0  0  0  0  0  0  0  0  0  0  0  # atno 8009 bound_to 7997
  155.9746  140.3359  155.6610 H   0  0  0  0  0  0  0  0  0  0  0  0  # atno 8010 bound_to 7997
  140.4109  144.1594  150.6139 H   0  0  0  0  0  0  0  0  0  0  0  0  # atno 10167 bound_to 10162
  157.4635  131.1075  150.9890 H   0  0  0  0  0  0  0  0  0  0  0  0  # atno 10718 bound_to 10713
  153.0977  135.6664  153.9731 H   0  0  0  0  0  0  0  0  0  0  0  0  # atno 10763 bound_to 10752
  153.9311  135.3004  155.3447 H   0  0  0  0  0  0  0  0  0  0  0  0  # atno 10764 bound_to 10752
  154.7397  135.5085  153.9176 H   0  0  0  0  0  0  0  0  0  0  0  0  # atno 10765 bound_to 10752
  141.1570  133.6784  156.6720 H   0  0  0  0  0  0  0  0  0  0  0  0  # atno 11005 bound_to 11000
  145.3804  141.0357  143.3181 LP  0  0  0  0  0  0  0  0  0  0  0  0  # atno 17320 bound_to 7965
  144.8480  139.5367  143.6870 LP  0  0  0  0  0  0  0  0  0  0  0  0  # atno 17321 bound_to 7965
  140.4639  143.2438  151.9182 LP  0  0  0  0  0  0  0  0  0  0  0  0  # atno 17342 bound_to 10162
  139.4782  144.5439  151.8487 LP  0  0  0  0  0  0  0  0  0  0  0  0  # atno 17343 bound_to 10162
  157.0679  130.5852  149.5397 LP  0  0  0  0  0  0  0  0  0  0  0  0  # atno 17370 bound_to 10713
  156.0040  130.5123  150.7763 LP  0  0  0  0  0  0  0  0  0  0  0  0  # atno 17371 bound_to 10713
  140.3168  134.8041  157.4220 LP  0  0  0  0  0  0  0  0  0  0  0  0  # atno 17394 bound_to 11000
  140.1131  134.5319  155.8248 LP  0  0  0  0  0  0  0  0  0  0  0  0  # atno 17395 bound_to 11000

$$$$
