AV-unprocessed.smi:2867|AV-procd|sdf|11025|dock4
  -GOLD-   2272015483D 1   1.00000     0.00000
 Structure written by MMmdl.
 39 41  0  0  0  0  0  0  0  0  2 V2000
  146.0950  138.3524  161.8641 C   0  0  0  0  0  0  0  0  0  0  0  0
  147.1866  138.8254  161.0945 O   0  0  0  0  0  0  0  0  0  0  0  0
  146.8557  138.9848  159.7263 C   0  0  0  0  0  0  0  0  0  0  0  0
  146.5481  137.6076  159.1273 C   0  0  0  0  0  0  0  0  0  0  0  0
  147.7674  136.8943  158.7841 N   0  0  0  0  0  0  0  0  0  0  0  0
  148.2004  135.7063  159.2769 C   0  0  0  0  0  0  0  0  0  0  0  0
  147.4850  134.9314  160.2799 C   0  0  0  0  0  0  0  0  0  0  0  0
  147.1788  135.4993  161.5347 C   0  0  0  0  0  0  0  0  0  0  0  0
  146.4848  134.7445  162.5004 C   0  0  0  0  0  0  0  0  0  0  0  0
  146.0988  133.4202  162.2154 C   0  0  0  0  0  0  0  0  0  0  0  0
  146.4088  132.8493  160.9654 C   0  0  0  0  0  0  0  0  0  0  0  0
  146.0380  131.5761  160.6921 F   0  0  0  0  0  0  0  0  0  0  0  0
  147.1034  133.6029  159.9995 C   0  0  0  0  0  0  0  0  0  0  0  0
  149.3495  135.2662  158.7603 N   0  0  0  0  0  0  0  0  0  0  0  0
  149.6887  136.2547  157.8574 C   0  0  0  0  0  0  0  0  0  0  0  0
  150.7990  136.3667  156.9921 C   0  0  0  0  0  0  0  0  0  0  0  0
  150.9204  137.4851  156.1400 C   0  0  0  0  0  0  0  0  0  0  0  0
  152.3326  137.6067  155.0456 S   0  0  0  0  0  0  0  0  0  0  0  0
  151.6761  136.8420  153.7862 N   0  5  0  0  0  0  0  0  0  0  0  0
  152.5499  139.0397  154.7937 O   0  0  0  0  0  0  0  0  0  0  0  0
  153.4181  136.8396  155.6765 O   0  0  0  0  0  0  0  0  0  0  0  0
  149.9444  138.5047  156.1391 C   0  0  0  0  0  0  0  0  0  0  0  0
  148.8330  138.4086  156.9981 C   0  0  0  0  0  0  0  0  0  0  0  0
  148.7142  137.2911  157.8465 C   0  0  0  0  0  0  0  0  0  0  0  0
  146.4015  138.2388  162.9038 H   0  0  0  0  0  0  0  0  0  0  0  0
  145.7502  137.3814  161.5066 H   0  0  0  0  0  0  0  0  0  0  0  0
  145.2596  139.0535  161.8346 H   0  0  0  0  0  0  0  0  0  0  0  0
  145.9906  139.6424  159.6259 H   0  0  0  0  0  0  0  0  0  0  0  0
  147.6870  139.4484  159.1922 H   0  0  0  0  0  0  0  0  0  0  0  0
  145.9796  137.0075  159.8385 H   0  0  0  0  0  0  0  0  0  0  0  0
  145.9227  137.7063  158.2406 H   0  0  0  0  0  0  0  0  0  0  0  0
  147.4741  136.5146  161.7568 H   0  0  0  0  0  0  0  0  0  0  0  0
  146.2486  135.1809  163.4598 H   0  0  0  0  0  0  0  0  0  0  0  0
  145.5660  132.8422  162.9559 H   0  0  0  0  0  0  0  0  0  0  0  0
  147.3389  133.1625  159.0415 H   0  0  0  0  0  0  0  0  0  0  0  0
  151.5507  135.5915  156.9786 H   0  0  0  0  0  0  0  0  0  0  0  0
  150.7556  137.2614  153.6110 H   0  0  0  0  0  0  0  0  0  0  0  0
  150.0434  139.3543  155.4797 H   0  0  0  0  0  0  0  0  0  0  0  0
  148.0803  139.1826  157.0005 H   0  0  0  0  0  0  0  0  0  0  0  0
  1  2  1  0  0  0  0
  1 25  1  0  0  0  0
  1 26  1  0  0  0  0
  1 27  1  0  0  0  0
  2  3  1  0  0  0  0
  3  4  1  0  0  0  0
  3 28  1  0  0  0  0
  3 29  1  0  0  0  0
  4  5  1  0  0  0  0
  4 30  1  0  0  0  0
  4 31  1  0  0  0  0
  5 24  1  0  0  0  0
  5  6  1  0  0  0  0
  6  7  1  0  0  0  0
  6 14  2  0  0  0  0
  7 13  1  0  0  0  0
  7  8  2  0  0  0  0
  8  9  1  0  0  0  0
  8 32  1  0  0  0  0
  9 10  2  0  0  0  0
  9 33  1  0  0  0  0
 10 11  1  0  0  0  0
 10 34  1  0  0  0  0
 11 12  1  0  0  0  0
 11 13  2  0  0  0  0
 13 35  1  0  0  0  0
 14 15  1  0  0  0  0
 15 24  2  0  0  0  0
 15 16  1  0  0  0  0
 16 17  2  0  0  0  0
 16 36  1  0  0  0  0
 17 18  1  0  0  0  0
 17 22  1  0  0  0  0
 18 19  1  0  0  0  0
 18 20  2  0  0  0  0
 18 21  2  0  0  0  0
 19 37  1  0  0  0  0
 22 23  2  0  0  0  0
 22 38  1  0  0  0  0
 23 24  1  0  0  0  0
 23 39  1  0  0  0  0
M  CHG  1  19  -1
M  END
> <s_m_source_file>
AV-unprocessed.smi

> <i_m_source_file_index>
2867

> <i_lp_mmshare_version>
43012

> <i_f3d_flags>
0

> <s_epik_input>
W05IMl1TKD1PKSg9TyljKFtjSF0xKVtjSF1bY0hdYyhjMTIpbihbQ0gyXVtDSDJdT1tDSDNdKWMobjIpLWMzW2NIXVtjSF1bY0hdYyhGKVtjSF0z

> <s_epik_cmdline>
J2VwaWtfcHl0aG9uJywgJy1waCcsICc3LjAnLCAnLXRuJywgJzgnLCAnLW1hJywgJzIwMCcsICctbWV0YWxfYmluZGluZycsICctaW1hZScsICc8aW5maWxlLm1hZT4nLCAnLW9tYWUnLCAnPG91dGZpbGUubWFlPic=

> <r_epik_Ionization_Penalty>
4.13732

> <r_epik_Ionization_Penalty_Charging>
3.73366

> <r_epik_Ionization_Penalty_Neutral>
0.403663

> <r_epik_State_Penalty>
3.79183

> <r_epik_Charging_Adjusted_Penalty>
7.52549

> <i_epik_Tot_Q>
-1

> <i_epik_Tot_abs_Q>
1

> <r_epik_Metal_State_Penalty>
0.634538

> <b_epik_Metal_Only>
1

> <s_lp_Force_Field>
OPLS_2005

> <r_lp_Energy>
13.7357

> <b_lp_Chiralities_Consistent>
1

> <s_lp_Variant>
AV-unprocessed.smi:2867-3

> <Gold.Version>
5.8.1

> <Gold.Id.Protein>
6NUR|6NUR_protein|mol2

> <Gold.PLP.Fitness>
46.6444

> <Gold.PLP.PLP>
-31.0527

> <Gold.PLP.part.hbond>
-5.1676

> <Gold.PLP.part.metal>
0.0000

> <Gold.PLP.part.buried>
-5.8357

> <Gold.PLP.part.nonpolar>
-20.6204

> <Gold.PLP.part.repulsive>
0.0713

> <Gold.PLP.ligand.clash>
0.0000

> <Gold.PLP.ligand.torsion>
2.2181

> <Gold.PLP.Chemscore.Hbond>
5.5829

> <Gold.PLP.Chemscore.CHOScore>
0.0000

> <Gold.PLP.Chemscore.Metal>
0.0000

> <Gold.Chemscore.Hbonds>
donor molecule, donor type, donor heavy atom, donor atom, acceptor molecule, acceptor atom, score
      P1  H  6896  6908       L1    14  1.00
      P1  H  7989  7998       L1    20  0.06
      P1  H 10752 10763       L1    21  0.08
      P1  H 10752 10765       L1    19  0.30

> <Gold.PLP.Chemscore.Internal.Correction>
3.2793

> <Gold.Rescore>
     Score         DG    S(hbond)    S(metal)    S(lipo)     H(rot)  DE(clash)    DE(int)     intcor
     21.08     -23.33       4.41        0.00      57.94       1.43       0.02       2.23       ----

> <Gold.Chemscore.Fitness>
21.0779

> <Gold.Chemscore.DG>
-23.3270

> <Gold.Chemscore.ZeroCoef>
-5.4800

> <Gold.Chemscore.Hbond>
4.4104

> <Gold.Chemscore.Metal>
0.0000

> <Gold.Chemscore.Lipo>
57.9396

> <Gold.Chemscore.Internal_Hbond>
0.0000

> <Gold.Chemscore.DEClash>
0.0170

> <Gold.Chemscore.DEInternal>
2.2321

> <Gold.Chemscore.Rot>
1.4308

> <Gold.Chemscore.Internal.Correction>
   9.000000E+99

> <Gold.Chemscore.Hbonds>
donor molecule, donor type, donor heavy atom, donor atom, acceptor molecule, acceptor atom, score
      P1  H  6896  6908       L1    14  0.91
      P1  H  6931  6943       L1     2  0.03
      P1  H  7989  7998       L1    20  0.09
      P1  H 10752 10763       L1    21  0.10

> <Gold.Chemscore.Hbond.Weighted>
-14.7309

> <Gold.Chemscore.Metal.Weighted>
-0.0000

> <Gold.Chemscore.Lipo.Weighted>
-6.7789

> <Gold.Chemscore.Internal_Hbond.Weighted>
0.0000

> <Gold.Chemscore.DEClash.Weighted>
0.0170

> <Gold.Chemscore.DEInternal.Weighted>
2.2321

> <Gold.Chemscore.Rot.Weighted>
3.6628

> <Gold.Chemscore.Internal.Correction.Weighted>
   9.000000E+99

> <Gold.Protein.RotatedTorsions>
[ 6907 6896 6895 6894 ] final  166.30 input  -60.11 | X-H torsion
[ 7974 7965 7964 7962 ] final  165.82 input  175.53 | X-H torsion
[ 8008 7997 7996 7995 ] final  -41.85 input   59.86 | X-H torsion
[ 10167 10162 10161 10158 ] final   21.04 input  -65.29 | X-H torsion
[ 10718 10713 10712 10709 ] final   23.79 input   66.30 | X-H torsion
[ 10763 10752 10751 10750 ] final  148.75 input  -60.55 | X-H torsion
[ 11005 11000 10999 10996 ] final  -78.89 input  -57.11 | X-H torsion

> <Gold.Protein.ActiveResidues>
 VAL166  LYS551  ARG553  GLY616  TRP617  ASP618  TYR619  PRO620  LYS621  CYS622 
 ASP623  PHE694  ASN695  SER759  ASP760  ASP761  ALA762  ILE779  LEU786  VAL792 
 PHE793  MET794  SER795  GLU796  ALA797  LYS798  CYS799  TRP800  GLU811  SER814 

> <Gold.Protein.RotatedAtoms>
  151.8810  133.3495  159.3766 H   0  0  0  0  0  0  0  0  0  0  0  0  # atno 6907 bound_to 6896
  150.7127  134.5018  159.5574 H   0  0  0  0  0  0  0  0  0  0  0  0  # atno 6908 bound_to 6896
  152.2570  134.8074  160.0488 H   0  0  0  0  0  0  0  0  0  0  0  0  # atno 6909 bound_to 6896
  144.7487  139.8526  143.6373 H   0  0  0  0  0  0  0  0  0  0  0  0  # atno 7974 bound_to 7965
  154.4002  140.1489  156.3258 H   0  0  0  0  0  0  0  0  0  0  0  0  # atno 8008 bound_to 7997
  155.8488  140.3459  155.5658 H   0  0  0  0  0  0  0  0  0  0  0  0  # atno 8009 bound_to 7997
  155.8007  140.0870  157.1949 H   0  0  0  0  0  0  0  0  0  0  0  0  # atno 8010 bound_to 7997
  140.5457  143.9599  150.6546 H   0  0  0  0  0  0  0  0  0  0  0  0  # atno 10167 bound_to 10162
  157.1709  130.6759  149.6077 H   0  0  0  0  0  0  0  0  0  0  0  0  # atno 10718 bound_to 10713
  154.0599  135.2875  155.3326 H   0  0  0  0  0  0  0  0  0  0  0  0  # atno 10763 bound_to 10752
  154.6815  135.5261  153.8272 H   0  0  0  0  0  0  0  0  0  0  0  0  # atno 10764 bound_to 10752
  153.0526  135.6582  154.0789 H   0  0  0  0  0  0  0  0  0  0  0  0  # atno 10765 bound_to 10752
  141.1666  133.7082  156.8040 H   0  0  0  0  0  0  0  0  0  0  0  0  # atno 11005 bound_to 11000
  146.1405  139.4461  143.0112 LP  0  0  0  0  0  0  0  0  0  0  0  0  # atno 17320 bound_to 7965
  145.7025  141.0131  143.1496 LP  0  0  0  0  0  0  0  0  0  0  0  0  # atno 17321 bound_to 7965
  140.3011  143.3260  152.0971 LP  0  0  0  0  0  0  0  0  0  0  0  0  # atno 17342 bound_to 10162
  139.5006  144.6696  151.6274 LP  0  0  0  0  0  0  0  0  0  0  0  0  # atno 17343 bound_to 10162
  155.9738  130.4679  150.6342 LP  0  0  0  0  0  0  0  0  0  0  0  0  # atno 17370 bound_to 10713
  157.4044  131.0814  151.1279 LP  0  0  0  0  0  0  0  0  0  0  0  0  # atno 17371 bound_to 10713
  140.2236  134.8739  157.3403 LP  0  0  0  0  0  0  0  0  0  0  0  0  # atno 17394 bound_to 11000
  140.1963  134.4310  155.7687 LP  0  0  0  0  0  0  0  0  0  0  0  0  # atno 17395 bound_to 11000

$$$$
