AV-unprocessed.smi:193|AV-procd|sdf|1498|dock10
  -GOLD-   2262019323D 1   1.00000     0.00000
 Structure written by MMmdl.
 62 66  0  0  0  0  0  0  0  0  2 V2000
  152.1899  139.8120  155.3061 C   0  0  0  0  0  0  0  0  0  0  0  0
  150.8103  140.1020  155.9179 C   0  0  2  0  0  0  0  0  0  0  0  0
  149.7679  139.1552  155.2858 C   0  0  0  0  0  0  0  0  0  0  0  0
  148.4732  139.1644  155.9592 N   0  0  0  0  0  0  0  0  0  0  0  0
  147.6734  138.1663  155.5278 C   0  0  0  0  0  0  0  0  0  0  0  0
  147.5393  137.0830  156.3309 N   0  0  0  0  0  0  0  0  0  0  0  0
  146.7621  136.0641  155.9497 C   0  0  0  0  0  0  0  0  0  0  0  0
  146.0512  135.9297  154.8274 N   0  0  0  0  0  0  0  0  0  0  0  0
  146.1924  137.0170  154.0159 C   0  0  0  0  0  0  0  0  0  0  0  0
  146.9784  138.1718  154.2864 C   0  0  0  0  0  0  0  0  0  0  0  0
  146.8854  139.0696  153.2300 N   0  0  0  0  0  0  0  0  0  0  0  0
  146.0871  138.4785  152.3825 C   0  0  0  0  0  0  0  0  0  0  0  0
  145.6204  137.2444  152.7766 N   0  0  0  0  0  0  0  0  0  0  0  0
  144.7262  136.3710  152.0314 C   0  0  0  0  0  0  0  0  0  0  0  0
  145.4230  135.1281  151.4248 C   0  0  0  0  0  0  0  0  0  0  0  0
  146.3823  135.5880  150.4879 O   0  0  0  0  0  0  0  0  0  0  0  0
  146.1582  134.3337  152.5229 C   0  0  0  0  0  0  0  0  0  0  0  0
  146.7232  133.0020  151.9969 C   0  0  0  0  0  0  0  0  0  0  0  0
  145.6838  132.2307  151.4071 O   0  0  0  0  0  0  0  0  0  0  0  0
  145.1011  132.8662  150.2757 C   0  0  0  0  0  0  0  0  0  0  0  0
  144.4372  134.1900  150.6946 C   0  0  0  0  0  0  0  0  0  0  0  0
  147.7817  140.4376  156.1375 C   0  0  0  0  0  0  0  0  0  0  0  0
  148.4501  141.2836  157.2314 C   0  0  0  0  0  0  0  0  0  0  0  0
  149.5390  142.1664  156.7388 N   0  3  1  0  0  0  0  0  0  0  0  0
  150.3001  142.7661  157.8590 C   0  0  2  0  0  0  0  0  0  0  0  0
  151.5858  143.4356  157.4313 C   0  0  0  0  0  0  0  0  0  0  0  0
  151.6280  142.0925  158.1278 C   0  0  1  0  0  0  0  0  0  0  0  0
  152.1670  141.9828  159.5372 C   0  0  0  0  0  0  0  0  0  0  0  0
  150.4353  141.5871  155.7005 C   0  0  0  0  0  0  0  0  0  0  0  0
  152.1965  140.0021  154.2323 H   0  0  0  0  0  0  0  0  0  0  0  0
  152.4792  138.7721  155.4614 H   0  0  0  0  0  0  0  0  0  0  0  0
  152.9620  140.4343  155.7599 H   0  0  0  0  0  0  0  0  0  0  0  0
  150.8936  139.8925  156.9851 H   0  0  0  0  0  0  0  0  0  0  0  0
  149.6295  139.4004  154.2316 H   0  0  0  0  0  0  0  0  0  0  0  0
  150.1563  138.1354  155.3138 H   0  0  0  0  0  0  0  0  0  0  0  0
  146.7010  135.2380  156.6429 H   0  0  0  0  0  0  0  0  0  0  0  0
  145.8112  138.9301  151.4404 H   0  0  0  0  0  0  0  0  0  0  0  0
  143.9149  136.0673  152.6944 H   0  0  0  0  0  0  0  0  0  0  0  0
  144.2630  136.9607  151.2392 H   0  0  0  0  0  0  0  0  0  0  0  0
  147.2257  135.6190  150.9133 H   0  0  0  0  0  0  0  0  0  0  0  0
  146.9580  134.9331  152.9599 H   0  0  0  0  0  0  0  0  0  0  0  0
  145.4639  134.1146  153.3354 H   0  0  0  0  0  0  0  0  0  0  0  0
  147.5227  133.1705  151.2738 H   0  0  0  0  0  0  0  0  0  0  0  0
  147.1573  132.4322  152.8185 H   0  0  0  0  0  0  0  0  0  0  0  0
  145.8579  133.0317  149.5075 H   0  0  0  0  0  0  0  0  0  0  0  0
  144.3564  132.1975  149.8436 H   0  0  0  0  0  0  0  0  0  0  0  0
  143.6007  133.9635  151.3570 H   0  0  0  0  0  0  0  0  0  0  0  0
  144.0096  134.6781  149.8179 H   0  0  0  0  0  0  0  0  0  0  0  0
  147.7154  140.9849  155.1963 H   0  0  0  0  0  0  0  0  0  0  0  0
  146.7550  140.2331  156.4468 H   0  0  0  0  0  0  0  0  0  0  0  0
  147.6954  141.9291  157.6815 H   0  0  0  0  0  0  0  0  0  0  0  0
  148.8102  140.6396  158.0360 H   0  0  0  0  0  0  0  0  0  0  0  0
  149.7103  143.1791  158.6758 H   0  0  0  0  0  0  0  0  0  0  0  0
  151.8339  143.4553  156.3717 H   0  0  0  0  0  0  0  0  0  0  0  0
  151.9072  144.3075  157.9975 H   0  0  0  0  0  0  0  0  0  0  0  0
  151.8807  141.2400  157.4995 H   0  0  0  0  0  0  0  0  0  0  0  0
  151.8858  142.8544  160.1291 H   0  0  0  0  0  0  0  0  0  0  0  0
  153.2548  141.9127  159.5172 H   0  0  0  0  0  0  0  0  0  0  0  0
  151.7694  141.0908  160.0213 H   0  0  0  0  0  0  0  0  0  0  0  0
  151.3358  142.2008  155.6469 H   0  0  0  0  0  0  0  0  0  0  0  0
  149.9602  141.7067  154.7262 H   0  0  0  0  0  0  0  0  0  0  0  0
  149.0801  142.9407  156.2806 H   0  0  0  0  0  0  0  0  0  0  0  0
  1  2  1  0  0  0  0
  1 30  1  0  0  0  0
  1 31  1  0  0  0  0
  1 32  1  0  0  0  0
  2 29  1  0  0  0  0
  2  3  1  0  0  0  0
  2 33  1  0  0  0  0
  3  4  1  0  0  0  0
  3 34  1  0  0  0  0
  3 35  1  0  0  0  0
  4  5  1  0  0  0  0
  4 22  1  0  0  0  0
  5 10  1  0  0  0  0
  5  6  2  0  0  0  0
  6  7  1  0  0  0  0
  7  8  2  0  0  0  0
  7 36  1  0  0  0  0
  8  9  1  0  0  0  0
  9 13  1  0  0  0  0
  9 10  2  0  0  0  0
 10 11  1  0  0  0  0
 11 12  2  0  0  0  0
 12 13  1  0  0  0  0
 12 37  1  0  0  0  0
 13 14  1  0  0  0  0
 14 15  1  0  0  0  0
 14 38  1  0  0  0  0
 14 39  1  0  0  0  0
 15 21  1  0  0  0  0
 15 16  1  0  0  0  0
 15 17  1  0  0  0  0
 16 40  1  0  0  0  0
 17 18  1  0  0  0  0
 17 41  1  0  0  0  0
 17 42  1  0  0  0  0
 18 19  1  0  0  0  0
 18 43  1  0  0  0  0
 18 44  1  0  0  0  0
 19 20  1  0  0  0  0
 20 21  1  0  0  0  0
 20 45  1  0  0  0  0
 20 46  1  0  0  0  0
 21 47  1  0  0  0  0
 21 48  1  0  0  0  0
 22 23  1  0  0  0  0
 22 49  1  0  0  0  0
 22 50  1  0  0  0  0
 23 24  1  0  0  0  0
 23 51  1  0  0  0  0
 23 52  1  0  0  0  0
 24 25  1  0  0  0  0
 24 29  1  0  0  0  0
 24 62  1  0  0  0  0
 25 27  1  0  0  0  0
 25 26  1  0  0  0  0
 25 53  1  0  0  0  0
 26 27  1  0  0  0  0
 26 54  1  0  0  0  0
 26 55  1  0  0  0  0
 27 28  1  0  0  0  0
 27 56  1  0  0  0  0
 28 57  1  0  0  0  0
 28 58  1  0  0  0  0
 28 59  1  0  0  0  0
 29 60  1  0  0  0  0
 29 61  1  0  0  0  0
M  CHG  1  24   1
M  END
> <s_m_source_file>
AV-unprocessed.smi

> <i_m_source_file_index>
193

> <i_lp_mmshare_version>
43012

> <i_f3d_flags>
0

> <s_epik_input>
W0NIM11bQ0BASF0xW0NIMl1bQ0BIXTFOKFtDSDJdMilbQ0gyXVtDSDJdTihbQ0gyXVtDQEhdMltDSDNdKWMobltjSF1uMyljKGMzNCluW2NIXW40W0NIMl1DNShbT0hdKVtDSDJdW0NIMl1PW0NIMl1bQ0gyXTU=

> <s_epik_cmdline>
J2VwaWtfcHl0aG9uJywgJy1waCcsICc3LjAnLCAnLXRuJywgJzgnLCAnLW1hJywgJzIwMCcsICctbWV0YWxfYmluZGluZycsICctaW1hZScsICc8aW5maWxlLm1hZT4nLCAnLW9tYWUnLCAnPG91dGZpbGUubWFlPic=

> <r_lp_tautomer_probability>
1

> <r_epik_Ionization_Penalty>
0.0540825

> <r_epik_Ionization_Penalty_Charging>
0.0538476

> <r_epik_Ionization_Penalty_Neutral>
0.000234891

> <r_epik_State_Penalty>
0.0200719

> <r_epik_Charging_Adjusted_Penalty>
0.0739194

> <i_epik_Tot_Q>
1

> <i_epik_Tot_abs_Q>
1

> <r_epik_Metal_State_Penalty>
0.0199414

> <b_epik_Metal_Only>
0

> <s_lp_Force_Field>
OPLS_2005

> <r_lp_Energy>
56.0511

> <b_lp_Chiralities_Consistent>
1

> <s_lp_Variant>
AV-unprocessed.smi:193-3

> <Gold.Version>
5.8.1

> <Gold.Id.Protein>
6NUR|6NUR_protein|mol2

> <Gold.PLP.Fitness>
46.7326

> <Gold.PLP.PLP>
-34.7897

> <Gold.PLP.part.hbond>
-3.0000

> <Gold.PLP.part.metal>
0.0000

> <Gold.PLP.part.buried>
-0.1755

> <Gold.PLP.part.nonpolar>
-32.3110

> <Gold.PLP.part.repulsive>
0.4252

> <Gold.PLP.ligand.clash>
0.0000

> <Gold.PLP.ligand.torsion>
1.0259

> <Gold.PLP.Chemscore.Hbond>
3.0000

> <Gold.PLP.Chemscore.CHOScore>
1.1334

> <Gold.PLP.Chemscore.Metal>
0.0000

> <Gold.Chemscore.Hbonds>
donor molecule, donor type, donor heavy atom, donor atom, acceptor molecule, acceptor atom, score
      L1  H    16    40       P1  7948  1.00
      L1  H    24    62       P1  8028  2.00
      L1  C    12    37       P1 10171  0.98
      L1  C    12    37       P1 10175  0.11

> <Gold.PLP.Chemscore.Internal.Correction>
1.5947

> <Gold.Rescore>
     Score         DG    S(hbond)    S(metal)    S(lipo)     H(rot)  DE(clash)    DE(int)     intcor
     14.44     -18.47       1.88        0.00     105.68       2.20       1.56       2.47       ----

> <Gold.Chemscore.Fitness>
14.4393

> <Gold.Chemscore.DG>
-18.4727

> <Gold.Chemscore.ZeroCoef>
-5.4800

> <Gold.Chemscore.Hbond>
1.8755

> <Gold.Chemscore.Metal>
0.0000

> <Gold.Chemscore.Lipo>
105.6830

> <Gold.Chemscore.Internal_Hbond>
0.0000

> <Gold.Chemscore.DEClash>
1.5642

> <Gold.Chemscore.DEInternal>
2.4692

> <Gold.Chemscore.Rot>
2.2018

> <Gold.Chemscore.Internal.Correction>
   9.000000E+99

> <Gold.Chemscore.Hbonds>
donor molecule, donor type, donor heavy atom, donor atom, acceptor molecule, acceptor atom, score
      L1  H    16    40       P1  7948  0.67
      L1  H    24    62       P1  8028  0.99

> <Gold.Chemscore.Hbond.Weighted>
-6.2643

> <Gold.Chemscore.Metal.Weighted>
-0.0000

> <Gold.Chemscore.Lipo.Weighted>
-12.3649

> <Gold.Chemscore.Internal_Hbond.Weighted>
0.0000

> <Gold.Chemscore.DEClash.Weighted>
1.5642

> <Gold.Chemscore.DEInternal.Weighted>
2.4692

> <Gold.Chemscore.Rot.Weighted>
5.6366

> <Gold.Chemscore.Internal.Correction.Weighted>
   9.000000E+99

> <Gold.Protein.RotatedTorsions>
[ 6907 6896 6895 6894 ] final   51.28 input  -60.11 | X-H torsion
[ 7974 7965 7964 7962 ] final  146.15 input  175.53 | X-H torsion
[ 8008 7997 7996 7995 ] final -127.08 input   59.86 | X-H torsion
[ 10167 10162 10161 10158 ] final   86.54 input  -65.29 | X-H torsion
[ 10718 10713 10712 10709 ] final  104.03 input   66.30 | X-H torsion
[ 10763 10752 10751 10750 ] final  -99.44 input  -60.55 | X-H torsion
[ 11005 11000 10999 10996 ] final   76.64 input  -57.11 | X-H torsion

> <Gold.Protein.ActiveResidues>
 VAL166  LYS551  ARG553  GLY616  TRP617  ASP618  TYR619  PRO620  LYS621  CYS622 
 ASP623  PHE694  ASN695  SER759  ASP760  ASP761  ALA762  ILE779  LEU786  VAL792 
 PHE793  MET794  SER795  GLU796  ALA797  LYS798  CYS799  TRP800  GLU811  SER814 

> <Gold.Protein.RotatedAtoms>
  152.3109  134.7498  160.0336 H   0  0  0  0  0  0  0  0  0  0  0  0  # atno 6907 bound_to 6896
  151.7979  133.3361  159.3526 H   0  0  0  0  0  0  0  0  0  0  0  0  # atno 6908 bound_to 6896
  150.7320  134.5711  159.5935 H   0  0  0  0  0  0  0  0  0  0  0  0  # atno 6909 bound_to 6896
  144.8694  139.5870  143.5894 H   0  0  0  0  0  0  0  0  0  0  0  0  # atno 7974 bound_to 7965
  155.2402  140.0428  157.2974 H   0  0  0  0  0  0  0  0  0  0  0  0  # atno 8008 bound_to 7997
  154.5833  140.2406  155.7993 H   0  0  0  0  0  0  0  0  0  0  0  0  # atno 8009 bound_to 7997
  156.2208  140.2970  155.9957 H   0  0  0  0  0  0  0  0  0  0  0  0  # atno 8010 bound_to 7997
  139.8865  144.6410  150.8786 H   0  0  0  0  0  0  0  0  0  0  0  0  # atno 10167 bound_to 10162
  157.6753  131.0794  150.5645 H   0  0  0  0  0  0  0  0  0  0  0  0  # atno 10718 bound_to 10713
  154.7498  135.4972  153.9268 H   0  0  0  0  0  0  0  0  0  0  0  0  # atno 10763 bound_to 10752
  153.1131  135.6714  153.9474 H   0  0  0  0  0  0  0  0  0  0  0  0  # atno 10764 bound_to 10752
  153.9228  135.3086  155.3426 H   0  0  0  0  0  0  0  0  0  0  0  0  # atno 10765 bound_to 10752
  139.9289  134.7617  156.1421 H   0  0  0  0  0  0  0  0  0  0  0  0  # atno 11005 bound_to 11000
  146.2919  139.7165  142.9154 LP  0  0  0  0  0  0  0  0  0  0  0  0  # atno 17320 bound_to 7965
  145.4159  141.0401  143.2991 LP  0  0  0  0  0  0  0  0  0  0  0  0  # atno 17321 bound_to 7965
  140.7735  143.3544  151.1950 LP  0  0  0  0  0  0  0  0  0  0  0  0  # atno 17342 bound_to 10162
  139.7149  143.9317  152.2962 LP  0  0  0  0  0  0  0  0  0  0  0  0  # atno 17343 bound_to 10162
  156.5947  130.4338  149.5922 LP  0  0  0  0  0  0  0  0  0  0  0  0  # atno 17370 bound_to 10713
  156.2555  130.6932  151.1683 LP  0  0  0  0  0  0  0  0  0  0  0  0  # atno 17371 bound_to 10713
  141.0865  133.6732  156.2448 LP  0  0  0  0  0  0  0  0  0  0  0  0  # atno 17394 bound_to 11000
  140.6257  134.5316  157.5553 LP  0  0  0  0  0  0  0  0  0  0  0  0  # atno 17395 bound_to 11000

$$$$
