AV-unprocessed.smi:3150|AV-procd|sdf|12007|dock5
  -GOLD-   2272017413D 1   1.00000     0.00000
 Structure written by MMmdl.
 33 34  0  0  0  0  0  0  0  0  1 V2000
  152.0082  139.9376  153.3517 C   0  0  0  0  0  0  0  0  0  0  0  0
  151.2877  140.3450  154.6458 C   0  0  2  0  0  0  0  0  0  0  0  0
  150.3855  141.3997  154.3216 O   0  0  0  0  0  0  0  0  0  0  0  0
  149.3796  141.6621  155.2924 C   0  0  0  0  0  0  0  0  0  0  0  0
  148.1579  140.8322  154.9637 C   0  0  0  0  0  0  0  0  0  0  0  0
  147.0519  141.3990  154.1029 C   0  0  0  0  0  0  0  0  0  0  0  0
  146.8167  141.1700  155.5743 C   0  0  0  0  0  0  0  0  0  0  0  0
  152.2835  140.8048  155.7232 C   0  0  0  0  0  0  0  0  0  0  0  0
  153.1515  141.6313  155.4399 O   0  0  0  0  0  0  0  0  0  0  0  0
  152.1136  140.2606  156.9425 N   0  0  0  0  0  0  0  0  0  0  0  0
  152.8587  140.4945  158.1310 C   0  0  0  0  0  0  0  0  0  0  0  0
  154.2151  140.4859  158.1688 N   0  0  0  0  0  0  0  0  0  0  0  0
  154.8469  140.7177  159.3381 C   0  0  0  0  0  0  0  0  0  0  0  0
  154.1670  140.9714  160.5426 C   0  0  0  0  0  0  0  0  0  0  0  0
  152.7616  140.9835  160.5195 C   0  0  0  0  0  0  0  0  0  0  0  0
  152.0959  140.7426  159.3010 C   0  0  0  0  0  0  0  0  0  0  0  0
  150.7285  140.7537  159.2714 O   0  0  0  0  0  0  0  0  0  0  0  0
  152.7296  139.1400  153.5337 H   0  0  0  0  0  0  0  0  0  0  0  0
  152.5420  140.7783  152.9065 H   0  0  0  0  0  0  0  0  0  0  0  0
  151.2951  139.5732  152.6121 H   0  0  0  0  0  0  0  0  0  0  0  0
  150.7220  139.4835  155.0063 H   0  0  0  0  0  0  0  0  0  0  0  0
  149.7335  141.3894  156.2874 H   0  0  0  0  0  0  0  0  0  0  0  0
  149.1056  142.7177  155.3120 H   0  0  0  0  0  0  0  0  0  0  0  0
  148.3675  139.7714  154.8390 H   0  0  0  0  0  0  0  0  0  0  0  0
  147.1513  142.4283  153.7635 H   0  0  0  0  0  0  0  0  0  0  0  0
  146.5647  140.7228  153.4035 H   0  0  0  0  0  0  0  0  0  0  0  0
  146.1707  140.3416  155.8573 H   0  0  0  0  0  0  0  0  0  0  0  0
  146.7557  142.0482  156.2144 H   0  0  0  0  0  0  0  0  0  0  0  0
  151.3545  139.6012  157.0356 H   0  0  0  0  0  0  0  0  0  0  0  0
  155.9265  140.6999  159.3120 H   0  0  0  0  0  0  0  0  0  0  0  0
  154.7097  141.1522  161.4585 H   0  0  0  0  0  0  0  0  0  0  0  0
  152.2037  141.1750  161.4244 H   0  0  0  0  0  0  0  0  0  0  0  0
  150.3546  139.9017  159.1064 H   0  0  0  0  0  0  0  0  0  0  0  0
  1  2  1  0  0  0  0
  1 18  1  0  0  0  0
  1 19  1  0  0  0  0
  1 20  1  0  0  0  0
  2  3  1  0  0  0  0
  2  8  1  0  0  0  0
  2 21  1  0  0  0  0
  3  4  1  0  0  0  0
  4  5  1  0  0  0  0
  4 22  1  0  0  0  0
  4 23  1  0  0  0  0
  5  7  1  0  0  0  0
  5  6  1  0  0  0  0
  5 24  1  0  0  0  0
  6  7  1  0  0  0  0
  6 25  1  0  0  0  0
  6 26  1  0  0  0  0
  7 27  1  0  0  0  0
  7 28  1  0  0  0  0
  8  9  2  0  0  0  0
  8 10  1  0  0  0  0
 10 11  1  0  0  0  0
 10 29  1  0  0  0  0
 11 16  1  0  0  0  0
 11 12  2  0  0  0  0
 12 13  1  0  0  0  0
 13 14  2  0  0  0  0
 13 30  1  0  0  0  0
 14 15  1  0  0  0  0
 14 31  1  0  0  0  0
 15 16  2  0  0  0  0
 15 32  1  0  0  0  0
 16 17  1  0  0  0  0
 17 33  1  0  0  0  0
M  END
> <s_m_source_file>
AV-unprocessed.smi

> <i_m_source_file_index>
3150

> <i_lp_mmshare_version>
43012

> <i_f3d_flags>
0

> <s_epik_input>
W0NIMl0xW0NIMl1bQ0hdMVtDSDJdT1tDQEBIXShbQ0gzXSlDKD1PKVtOSF1jMm5bY0hdW2NIXVtjSF1jMltPSF0=

> <s_epik_cmdline>
J2VwaWtfcHl0aG9uJywgJy1waCcsICc3LjAnLCAnLXRuJywgJzgnLCAnLW1hJywgJzIwMCcsICctbWV0YWxfYmluZGluZycsICctaW1hZScsICc8aW5maWxlLm1hZT4nLCAnLW9tYWUnLCAnPG91dGZpbGUubWFlPic=

> <r_lp_tautomer_probability>
0.43658

> <r_epik_Ionization_Penalty>
0.0204299

> <r_epik_Ionization_Penalty_Charging>
0

> <r_epik_Ionization_Penalty_Neutral>
0.0204299

> <r_epik_State_Penalty>
0.419322

> <r_epik_Charging_Adjusted_Penalty>
0.419322

> <i_epik_Tot_Q>
0

> <i_epik_Tot_abs_Q>
0

> <r_epik_Metal_State_Penalty>
0.377394

> <b_epik_Metal_Only>
0

> <s_lp_Force_Field>
OPLS_2005

> <r_lp_Energy>
16.2266

> <b_lp_Chiralities_Consistent>
1

> <s_lp_Variant>
AV-unprocessed.smi:3150-1

> <Gold.Version>
5.8.1

> <Gold.Id.Protein>
6NUR|6NUR_protein|mol2

> <Gold.PLP.Fitness>
40.5575

> <Gold.PLP.PLP>
-35.5483

> <Gold.PLP.part.hbond>
-3.0927

> <Gold.PLP.part.metal>
0.0000

> <Gold.PLP.part.buried>
-2.6765

> <Gold.PLP.part.nonpolar>
-28.5408

> <Gold.PLP.part.repulsive>
0.3228

> <Gold.PLP.ligand.clash>
0.0000

> <Gold.PLP.ligand.torsion>
1.2301

> <Gold.PLP.Chemscore.Hbond>
2.3040

> <Gold.PLP.Chemscore.CHOScore>
0.0000

> <Gold.PLP.Chemscore.Metal>
0.0000

> <Gold.Chemscore.Hbonds>
donor molecule, donor type, donor heavy atom, donor atom, acceptor molecule, acceptor atom, score
      P1  H  7997  8008       L1     9  0.17
      P1  H  7997  8010       L1    12  0.17
      P1  H  8011  8017       L1     3  0.17

> <Gold.PLP.Chemscore.Internal.Correction>
0.5573

> <Gold.Rescore>
     Score         DG    S(hbond)    S(metal)    S(lipo)     H(rot)  DE(clash)    DE(int)     intcor
     11.01     -12.15       1.00        0.00      77.12       2.22       0.08       1.06       ----

> <Gold.Chemscore.Fitness>
11.0136

> <Gold.Chemscore.DG>
-12.1509

> <Gold.Chemscore.ZeroCoef>
-5.4800

> <Gold.Chemscore.Hbond>
0.9967

> <Gold.Chemscore.Metal>
0.0000

> <Gold.Chemscore.Lipo>
77.1212

> <Gold.Chemscore.Internal_Hbond>
0.0000

> <Gold.Chemscore.DEClash>
0.0781

> <Gold.Chemscore.DEInternal>
1.0592

> <Gold.Chemscore.Rot>
2.2192

> <Gold.Chemscore.Internal.Correction>
   9.000000E+99

> <Gold.Chemscore.Hbonds>
donor molecule, donor type, donor heavy atom, donor atom, acceptor molecule, acceptor atom, score
      P1  H  7997  8008       L1     9  0.01
      P1  H  7997  8010       L1    12  0.12
      P1  H  8011  8017       L1     3  0.12

> <Gold.Chemscore.Hbond.Weighted>
-3.3290

> <Gold.Chemscore.Metal.Weighted>
-0.0000

> <Gold.Chemscore.Lipo.Weighted>
-9.0232

> <Gold.Chemscore.Internal_Hbond.Weighted>
0.0000

> <Gold.Chemscore.DEClash.Weighted>
0.0781

> <Gold.Chemscore.DEInternal.Weighted>
1.0592

> <Gold.Chemscore.Rot.Weighted>
5.6812

> <Gold.Chemscore.Internal.Correction.Weighted>
   9.000000E+99

> <Gold.Protein.RotatedTorsions>
[ 6907 6896 6895 6894 ] final    1.12 input  -60.11 | X-H torsion
[ 7974 7965 7964 7962 ] final -109.15 input  175.53 | X-H torsion
[ 8008 7997 7996 7995 ] final    1.67 input   59.86 | X-H torsion
[ 10167 10162 10161 10158 ] final  105.65 input  -65.29 | X-H torsion
[ 10718 10713 10712 10709 ] final   29.53 input   66.30 | X-H torsion
[ 10763 10752 10751 10750 ] final  -84.92 input  -60.55 | X-H torsion
[ 11005 11000 10999 10996 ] final  -80.95 input  -57.11 | X-H torsion

> <Gold.Protein.ActiveResidues>
 VAL166  LYS551  ARG553  GLY616  TRP617  ASP618  TYR619  PRO620  LYS621  CYS622 
 ASP623  PHE694  ASN695  SER759  ASP760  ASP761  ALA762  ILE779  LEU786  VAL792 
 PHE793  MET794  SER795  GLU796  ALA797  LYS798  CYS799  TRP800  GLU811  SER814 

> <Gold.Protein.RotatedAtoms>
  151.5875  135.1055  160.0031 H   0  0  0  0  0  0  0  0  0  0  0  0  # atno 6907 bound_to 6896
  152.4323  133.7295  159.6590 H   0  0  0  0  0  0  0  0  0  0  0  0  # atno 6908 bound_to 6896
  150.8217  133.8171  159.3159 H   0  0  0  0  0  0  0  0  0  0  0  0  # atno 6909 bound_to 6896
  145.1840  140.8984  143.3463 H   0  0  0  0  0  0  0  0  0  0  0  0  # atno 7974 bound_to 7965
  154.6825  140.2635  155.6894 H   0  0  0  0  0  0  0  0  0  0  0  0  # atno 8008 bound_to 7997
  156.2702  140.2807  156.1296 H   0  0  0  0  0  0  0  0  0  0  0  0  # atno 8009 bound_to 7997
  155.1012  140.0374  157.2687 H   0  0  0  0  0  0  0  0  0  0  0  0  # atno 8010 bound_to 7997
  139.7075  144.7084  151.1083 H   0  0  0  0  0  0  0  0  0  0  0  0  # atno 10167 bound_to 10162
  157.2478  130.7100  149.6390 H   0  0  0  0  0  0  0  0  0  0  0  0  # atno 10718 bound_to 10713
  154.6051  135.5503  153.7414 H   0  0  0  0  0  0  0  0  0  0  0  0  # atno 10763 bound_to 10752
  153.0171  135.6376  154.1659 H   0  0  0  0  0  0  0  0  0  0  0  0  # atno 10764 bound_to 10752
  154.1598  135.2898  155.3092 H   0  0  0  0  0  0  0  0  0  0  0  0  # atno 10765 bound_to 10752
  141.1667  133.7174  156.8350 H   0  0  0  0  0  0  0  0  0  0  0  0  # atno 11005 bound_to 11000
  145.0107  139.3512  143.6121 LP  0  0  0  0  0  0  0  0  0  0  0  0  # atno 17320 bound_to 7965
  146.3448  139.9369  142.8746 LP  0  0  0  0  0  0  0  0  0  0  0  0  # atno 17321 bound_to 7965
  140.7725  143.5339  150.9391 LP  0  0  0  0  0  0  0  0  0  0  0  0  # atno 17342 bound_to 10162
  139.9023  143.6821  152.3129 LP  0  0  0  0  0  0  0  0  0  0  0  0  # atno 17343 bound_to 10162
  155.9667  130.4437  150.5433 LP  0  0  0  0  0  0  0  0  0  0  0  0  # atno 17370 bound_to 10713
  157.3310  131.0699  151.1861 LP  0  0  0  0  0  0  0  0  0  0  0  0  # atno 17371 bound_to 10713
  140.2024  134.8887  157.3184 LP  0  0  0  0  0  0  0  0  0  0  0  0  # atno 17394 bound_to 11000
  140.2173  134.4065  155.7583 LP  0  0  0  0  0  0  0  0  0  0  0  0  # atno 17395 bound_to 11000

$$$$
