AV-unprocessed.smi:2212|AV-procd|sdf|8953|dock5
  -GOLD-   2272012173D 1   1.00000     0.00000
 Structure written by MMmdl.
 31 32  0  0  0  0  0  0  0  0  1 V2000
  152.8317  143.0249  162.4718 C   0  0  0  0  0  0  0  0  0  0  0  0
  151.8750  143.3202  161.4625 O   0  0  0  0  0  0  0  0  0  0  0  0
  152.1934  142.8673  160.1460 C   0  0  0  0  0  0  0  0  0  0  0  0
  152.5469  141.3735  160.1216 C   0  0  0  0  0  0  0  0  0  0  0  0
  152.8708  140.9411  158.7682 N   0  0  0  0  0  0  0  0  0  0  0  0
  152.1721  140.0413  158.0630 C   0  0  0  0  0  0  0  0  0  0  0  0
  151.1800  139.4775  158.5357 O   0  0  0  0  0  0  0  0  0  0  0  0
  152.7464  139.8575  156.8149 N   0  0  0  0  0  0  0  0  0  0  0  0
  152.1221  139.1358  155.9368 C   0  0  0  0  0  0  0  0  0  0  0  0
  152.5124  138.8571  154.6369 N   0  0  0  0  0  0  0  0  0  0  0  0
  151.5645  138.0491  154.0721 C   0  0  0  0  0  0  0  0  0  0  0  0
  150.6171  137.8263  154.9786 C   0  0  0  0  0  0  0  0  0  0  0  0
  150.9292  138.4781  156.1332 O   0  0  0  0  0  0  0  0  0  0  0  0
  151.0853  143.3556  159.1939 C   0  0  0  0  0  0  0  0  0  0  0  0
  152.1745  143.8155  158.2231 C   0  0  0  0  0  0  0  0  0  0  0  0
  153.1235  143.8610  159.4217 C   0  0  0  0  0  0  0  0  0  0  0  0
  152.5313  143.5087  163.4008 H   0  0  0  0  0  0  0  0  0  0  0  0
  153.8244  143.3934  162.2130 H   0  0  0  0  0  0  0  0  0  0  0  0
  152.8942  141.9550  162.6697 H   0  0  0  0  0  0  0  0  0  0  0  0
  153.4047  141.1800  160.7676 H   0  0  0  0  0  0  0  0  0  0  0  0
  151.7313  140.7663  160.5150 H   0  0  0  0  0  0  0  0  0  0  0  0
  153.6778  141.3662  158.3346 H   0  0  0  0  0  0  0  0  0  0  0  0
  153.3403  139.1718  154.1516 H   0  0  0  0  0  0  0  0  0  0  0  0
  151.6726  137.7100  153.0524 H   0  0  0  0  0  0  0  0  0  0  0  0
  149.7016  137.2536  154.9583 H   0  0  0  0  0  0  0  0  0  0  0  0
  150.4356  142.5719  158.8030 H   0  0  0  0  0  0  0  0  0  0  0  0
  150.5061  144.1888  159.5964 H   0  0  0  0  0  0  0  0  0  0  0  0
  152.4461  143.0497  157.4946 H   0  0  0  0  0  0  0  0  0  0  0  0
  151.9880  144.7799  157.7499 H   0  0  0  0  0  0  0  0  0  0  0  0
  153.1529  144.8468  159.8891 H   0  0  0  0  0  0  0  0  0  0  0  0
  154.1262  143.4842  159.2183 H   0  0  0  0  0  0  0  0  0  0  0  0
  1  2  1  0  0  0  0
  1 17  1  0  0  0  0
  1 18  1  0  0  0  0
  1 19  1  0  0  0  0
  2  3  1  0  0  0  0
  3 16  1  0  0  0  0
  3  4  1  0  0  0  0
  3 14  1  0  0  0  0
  4  5  1  0  0  0  0
  4 20  1  0  0  0  0
  4 21  1  0  0  0  0
  5 22  1  0  0  0  0
  5  6  1  0  0  0  0
  6  8  1  0  0  0  0
  6  7  2  0  0  0  0
  8  9  2  0  0  0  0
  9 13  1  0  0  0  0
  9 10  1  0  0  0  0
 10 23  1  0  0  0  0
 10 11  1  0  0  0  0
 11 24  1  0  0  0  0
 11 12  2  0  0  0  0
 12 25  1  0  0  0  0
 12 13  1  0  0  0  0
 14 15  1  0  0  0  0
 14 26  1  0  0  0  0
 14 27  1  0  0  0  0
 15 16  1  0  0  0  0
 15 28  1  0  0  0  0
 15 29  1  0  0  0  0
 16 30  1  0  0  0  0
 16 31  1  0  0  0  0
M  END
> <s_m_source_file>
AV-unprocessed.smi

> <i_m_source_file_index>
2212

> <i_lp_mmshare_version>
43012

> <i_f3d_flags>
0

> <s_epik_input>
W0NIMl0xW0NIMl1bQ0gyXUMxKE9bQ0gzXSlbQ0gyXVtOSF1DKD1PKVtOSF1jMm5bY0hdW2NIXW8y

> <s_epik_cmdline>
J2VwaWtfcHl0aG9uJywgJy1waCcsICc3LjAnLCAnLXRuJywgJzgnLCAnLW1hJywgJzIwMCcsICctbWV0YWxfYmluZGluZycsICctaW1hZScsICc8aW5maWxlLm1hZT4nLCAnLW9tYWUnLCAnPG91dGZpbGUubWFlPic=

> <r_lp_tautomer_probability>
0.107061

> <r_epik_Ionization_Penalty>
1.29244

> <r_epik_Ionization_Penalty_Charging>
1.29208

> <r_epik_Ionization_Penalty_Neutral>
0.000357989

> <r_epik_State_Penalty>
2.59896

> <r_epik_Charging_Adjusted_Penalty>
3.89105

> <i_epik_Tot_Q>
0

> <i_epik_Tot_abs_Q>
0

> <r_epik_Metal_State_Penalty>
3.62496

> <b_epik_Metal_Only>
0

> <s_lp_Force_Field>
OPLS_2005

> <r_lp_Energy>
40.2308

> <b_lp_Chiralities_Consistent>
1

> <s_lp_Variant>
AV-unprocessed.smi:2212-3

> <Gold.Version>
5.8.1

> <Gold.Id.Protein>
6NUR|6NUR_protein|mol2

> <Gold.PLP.Fitness>
37.7872

> <Gold.PLP.PLP>
-31.9358

> <Gold.PLP.part.hbond>
-1.2930

> <Gold.PLP.part.metal>
0.0000

> <Gold.PLP.part.buried>
-4.3587

> <Gold.PLP.part.nonpolar>
-25.6507

> <Gold.PLP.part.repulsive>
0.4585

> <Gold.PLP.ligand.clash>
0.0000

> <Gold.PLP.ligand.torsion>
0.2089

> <Gold.PLP.Chemscore.Hbond>
1.0000

> <Gold.PLP.Chemscore.CHOScore>
1.0000

> <Gold.PLP.Chemscore.Metal>
0.0000

> <Gold.Chemscore.Hbonds>
donor molecule, donor type, donor heavy atom, donor atom, acceptor molecule, acceptor atom, score
      P1  H  7997  8008       L1     8  1.00
      L1  C    11    24       P1  7949  1.00

> <Gold.PLP.Chemscore.Internal.Correction>
0.2692

> <Gold.Rescore>
     Score         DG    S(hbond)    S(metal)    S(lipo)     H(rot)  DE(clash)    DE(int)     intcor
     11.39     -14.25       0.95        0.00      83.64       1.64       0.02       2.84       ----

> <Gold.Chemscore.Fitness>
11.3897

> <Gold.Chemscore.DG>
-14.2540

> <Gold.Chemscore.ZeroCoef>
-5.4800

> <Gold.Chemscore.Hbond>
0.9548

> <Gold.Chemscore.Metal>
0.0000

> <Gold.Chemscore.Lipo>
83.6420

> <Gold.Chemscore.Internal_Hbond>
0.0000

> <Gold.Chemscore.DEClash>
0.0214

> <Gold.Chemscore.DEInternal>
2.8429

> <Gold.Chemscore.Rot>
1.6411

> <Gold.Chemscore.Internal.Correction>
   9.000000E+99

> <Gold.Chemscore.Hbonds>
donor molecule, donor type, donor heavy atom, donor atom, acceptor molecule, acceptor atom, score
      P1  H  7997  8008       L1     8  0.81

> <Gold.Chemscore.Hbond.Weighted>
-3.1891

> <Gold.Chemscore.Metal.Weighted>
-0.0000

> <Gold.Chemscore.Lipo.Weighted>
-9.7861

> <Gold.Chemscore.Internal_Hbond.Weighted>
0.0000

> <Gold.Chemscore.DEClash.Weighted>
0.0214

> <Gold.Chemscore.DEInternal.Weighted>
2.8429

> <Gold.Chemscore.Rot.Weighted>
4.2011

> <Gold.Chemscore.Internal.Correction.Weighted>
   9.000000E+99

> <Gold.Protein.RotatedTorsions>
[ 6907 6896 6895 6894 ] final  -97.38 input  -60.11 | X-H torsion
[ 7974 7965 7964 7962 ] final   -2.46 input  175.53 | X-H torsion
[ 8008 7997 7996 7995 ] final  -45.36 input   59.86 | X-H torsion
[ 10167 10162 10161 10158 ] final   11.82 input  -65.29 | X-H torsion
[ 10718 10713 10712 10709 ] final  154.26 input   66.30 | X-H torsion
[ 10763 10752 10751 10750 ] final  -79.79 input  -60.55 | X-H torsion
[ 11005 11000 10999 10996 ] final  -88.87 input  -57.11 | X-H torsion

> <Gold.Protein.ActiveResidues>
 VAL166  LYS551  ARG553  GLY616  TRP617  ASP618  TYR619  PRO620  LYS621  CYS622 
 ASP623  PHE694  ASN695  SER759  ASP760  ASP761  ALA762  ILE779  LEU786  VAL792 
 PHE793  MET794  SER795  GLU796  ALA797  LYS798  CYS799  TRP800  GLU811  SER814 

> <Gold.Protein.RotatedAtoms>
  150.7014  134.1358  159.4086 H   0  0  0  0  0  0  0  0  0  0  0  0  # atno 6907 bound_to 6896
  151.9343  135.0240  160.0540 H   0  0  0  0  0  0  0  0  0  0  0  0  # atno 6908 bound_to 6896
  152.2148  133.4903  159.5167 H   0  0  0  0  0  0  0  0  0  0  0  0  # atno 6909 bound_to 6896
  146.2404  140.1575  142.8333 H   0  0  0  0  0  0  0  0  0  0  0  0  # atno 7974 bound_to 7965
  154.4000  140.1398  156.3835 H   0  0  0  0  0  0  0  0  0  0  0  0  # atno 8008 bound_to 7997
  155.7982  140.3477  155.5367 H   0  0  0  0  0  0  0  0  0  0  0  0  # atno 8009 bound_to 7997
  155.8511  140.0941  157.1665 H   0  0  0  0  0  0  0  0  0  0  0  0  # atno 8010 bound_to 7997
  140.6107  143.8413  150.7063 H   0  0  0  0  0  0  0  0  0  0  0  0  # atno 10167 bound_to 10162
  157.2339  131.0745  151.1835 H   0  0  0  0  0  0  0  0  0  0  0  0  # atno 10718 bound_to 10713
  154.5430  135.5683  153.6856 H   0  0  0  0  0  0  0  0  0  0  0  0  # atno 10763 bound_to 10752
  152.9968  135.6232  154.2476 H   0  0  0  0  0  0  0  0  0  0  0  0  # atno 10764 bound_to 10752
  154.2408  135.2862  155.2834 H   0  0  0  0  0  0  0  0  0  0  0  0  # atno 10765 bound_to 10752
  141.1594  133.7596  156.9514 H   0  0  0  0  0  0  0  0  0  0  0  0  # atno 11005 bound_to 11000
  145.0117  140.8719  143.5220 LP  0  0  0  0  0  0  0  0  0  0  0  0  # atno 17320 bound_to 7965
  145.1609  139.2459  143.5392 LP  0  0  0  0  0  0  0  0  0  0  0  0  # atno 17321 bound_to 7965
  140.1981  143.3982  152.1813 LP  0  0  0  0  0  0  0  0  0  0  0  0  # atno 17342 bound_to 10162
  139.5359  144.7209  151.4894 LP  0  0  0  0  0  0  0  0  0  0  0  0  # atno 17343 bound_to 10162
  157.3449  130.7052  149.6404 LP  0  0  0  0  0  0  0  0  0  0  0  0  # atno 17370 bound_to 10713
  155.9674  130.4269  150.4720 LP  0  0  0  0  0  0  0  0  0  0  0  0  # atno 17371 bound_to 10713
  140.1254  134.9390  157.2263 LP  0  0  0  0  0  0  0  0  0  0  0  0  # atno 17394 bound_to 11000
  140.3019  134.3122  155.7288 LP  0  0  0  0  0  0  0  0  0  0  0  0  # atno 17395 bound_to 11000

$$$$
