AV-unprocessed.smi:254|AV-procd|sdf|1948|dock9
  -GOLD-   2262021 83D 1   1.00000     0.00000
 Structure written by MMmdl.
 50 53  0  0  0  0  0  0  0  0  1 V2000
  152.9612  139.6410  157.8179 O   0  0  0  0  0  0  0  0  0  0  0  0
  151.9659  140.2270  157.3949 C   0  0  0  0  0  0  0  0  0  0  0  0
  151.1306  139.7117  156.2373 C   0  0  0  0  0  0  0  0  0  0  0  0
  150.0937  140.7330  156.1541 N   0  0  0  0  0  0  0  0  0  0  0  0
  149.0852  140.6956  155.2455 C   0  0  0  0  0  0  0  0  0  0  0  0
  148.7214  141.8594  154.6447 N   0  0  0  0  0  0  0  0  0  0  0  0
  147.7348  141.8814  153.7446 C   0  0  0  0  0  0  0  0  0  0  0  0
  146.9880  140.8694  153.3024 N   0  0  0  0  0  0  0  0  0  0  0  0
  147.3458  139.6962  153.8970 C   0  0  0  0  0  0  0  0  0  0  0  0
  148.3713  139.5181  154.8707 C   0  0  0  0  0  0  0  0  0  0  0  0
  148.4310  138.1777  155.2398 N   0  0  0  0  0  0  0  0  0  0  0  0
  147.4987  137.6021  154.5315 C   0  0  0  0  0  0  0  0  0  0  0  0
  146.8043  138.4401  153.6902 N   0  0  0  0  0  0  0  0  0  0  0  0
  145.7201  138.0753  152.7939 C   0  0  0  0  0  0  0  0  0  0  0  0
  144.6067  137.2367  153.4736 C   0  0  1  0  0  0  0  0  0  0  0  0
  143.2089  137.8631  153.2324 C   0  0  0  0  0  0  0  0  0  0  0  0
  143.0114  139.0284  154.0047 O   0  0  0  0  0  0  0  0  0  0  0  0
  144.6791  135.7579  153.0011 C   0  0  1  0  0  0  0  0  0  0  0  0
  144.9075  135.5734  151.5092 C   0  0  0  0  0  0  0  0  0  0  0  0
  145.3765  134.1253  151.4224 C   0  0  0  0  0  0  0  0  0  0  0  0
  146.0686  133.8715  152.6385 O   0  0  0  0  0  0  0  0  0  0  0  0
  145.8566  134.9437  153.5509 C   0  0  0  0  0  0  0  0  0  0  0  0
  150.2547  141.7763  157.1572 C   0  0  0  0  0  0  0  0  0  0  0  0
  151.4584  141.3721  157.8648 N   0  0  0  0  0  0  0  0  0  0  0  0
  151.9703  142.1611  158.9830 C   0  0  0  0  0  0  0  0  0  0  0  0
  152.0488  143.6630  158.6555 C   0  0  0  0  0  0  0  0  0  0  0  0
  152.8866  144.2485  159.5101 F   0  0  0  0  0  0  0  0  0  0  0  0
  152.4990  143.8647  157.4175 F   0  0  0  0  0  0  0  0  0  0  0  0
  150.8483  144.2286  158.7832 F   0  0  0  0  0  0  0  0  0  0  0  0
  151.7219  139.6617  155.3222 H   0  0  0  0  0  0  0  0  0  0  0  0
  150.7131  138.7303  156.4652 H   0  0  0  0  0  0  0  0  0  0  0  0
  147.5130  142.8481  153.3171 H   0  0  0  0  0  0  0  0  0  0  0  0
  147.2961  136.5430  154.5994 H   0  0  0  0  0  0  0  0  0  0  0  0
  145.2970  138.9874  152.3710 H   0  0  0  0  0  0  0  0  0  0  0  0
  146.1668  137.5280  151.9641 H   0  0  0  0  0  0  0  0  0  0  0  0
  144.7997  137.2580  154.5473 H   0  0  0  0  0  0  0  0  0  0  0  0
  143.0797  138.1673  152.1947 H   0  0  0  0  0  0  0  0  0  0  0  0
  142.4193  137.1429  153.4488 H   0  0  0  0  0  0  0  0  0  0  0  0
  143.0108  139.7761  153.4266 H   0  0  0  0  0  0  0  0  0  0  0  0
  143.7522  135.2485  153.2700 H   0  0  0  0  0  0  0  0  0  0  0  0
  144.0151  135.7509  150.9085 H   0  0  0  0  0  0  0  0  0  0  0  0
  145.6946  136.2434  151.1594 H   0  0  0  0  0  0  0  0  0  0  0  0
  144.5214  133.4513  151.3635 H   0  0  0  0  0  0  0  0  0  0  0  0
  146.0118  133.9442  150.5553 H   0  0  0  0  0  0  0  0  0  0  0  0
  146.7642  135.5484  153.5808 H   0  0  0  0  0  0  0  0  0  0  0  0
  145.6694  134.5626  154.5550 H   0  0  0  0  0  0  0  0  0  0  0  0
  150.3926  142.7540  156.6936 H   0  0  0  0  0  0  0  0  0  0  0  0
  149.4008  141.8078  157.8355 H   0  0  0  0  0  0  0  0  0  0  0  0
  151.3239  142.0088  159.8485 H   0  0  0  0  0  0  0  0  0  0  0  0
  152.9551  141.7896  159.2707 H   0  0  0  0  0  0  0  0  0  0  0  0
  1  2  2  0  0  0  0
  2 24  1  0  0  0  0
  2  3  1  0  0  0  0
  3  4  1  0  0  0  0
  3 30  1  0  0  0  0
  3 31  1  0  0  0  0
  4  5  1  0  0  0  0
  4 23  1  0  0  0  0
  5 10  1  0  0  0  0
  5  6  2  0  0  0  0
  6  7  1  0  0  0  0
  7  8  2  0  0  0  0
  7 32  1  0  0  0  0
  8  9  1  0  0  0  0
  9 13  1  0  0  0  0
  9 10  2  0  0  0  0
 10 11  1  0  0  0  0
 11 12  2  0  0  0  0
 12 13  1  0  0  0  0
 12 33  1  0  0  0  0
 13 14  1  0  0  0  0
 14 15  1  0  0  0  0
 14 34  1  0  0  0  0
 14 35  1  0  0  0  0
 15 16  1  0  0  0  0
 15 18  1  0  0  0  0
 15 36  1  0  0  0  0
 16 17  1  0  0  0  0
 16 37  1  0  0  0  0
 16 38  1  0  0  0  0
 17 39  1  0  0  0  0
 18 22  1  0  0  0  0
 18 19  1  0  0  0  0
 18 40  1  0  0  0  0
 19 20  1  0  0  0  0
 19 41  1  0  0  0  0
 19 42  1  0  0  0  0
 20 21  1  0  0  0  0
 20 43  1  0  0  0  0
 20 44  1  0  0  0  0
 21 22  1  0  0  0  0
 22 45  1  0  0  0  0
 22 46  1  0  0  0  0
 23 24  1  0  0  0  0
 23 47  1  0  0  0  0
 23 48  1  0  0  0  0
 24 25  1  0  0  0  0
 25 26  1  0  0  0  0
 25 49  1  0  0  0  0
 25 50  1  0  0  0  0
 26 27  1  0  0  0  0
 26 28  1  0  0  0  0
 26 29  1  0  0  0  0
M  END
> <s_m_source_file>
AV-unprocessed.smi

> <i_m_source_file_index>
254

> <i_lp_mmshare_version>
43012

> <i_f3d_flags>
0

> <s_epik_input>
RkMoRikoRilbQ0gyXU4xW0NIMl1OKFtDSDJdQzE9TyljKG5bY0hdbjIpYyhjMjMpbltjSF1uM1tDSDJdW0NASF0oW0NIMl1bT0hdKVtDQEBIXTRbQ0gyXVtDSDJdT1tDSDJdNA==

> <s_epik_cmdline>
J2VwaWtfcHl0aG9uJywgJy1waCcsICc3LjAnLCAnLXRuJywgJzgnLCAnLW1hJywgJzIwMCcsICctbWV0YWxfYmluZGluZycsICctaW1hZScsICc8aW5maWxlLm1hZT4nLCAnLW9tYWUnLCAnPG91dGZpbGUubWFlPic=

> <r_lp_tautomer_probability>
1

> <r_epik_Ionization_Penalty>
0.000292924

> <r_epik_Ionization_Penalty_Charging>
0

> <r_epik_Ionization_Penalty_Neutral>
0.000292924

> <r_epik_State_Penalty>
-0

> <r_epik_Charging_Adjusted_Penalty>
0

> <i_epik_Tot_Q>
0

> <i_epik_Tot_abs_Q>
0

> <r_epik_Metal_State_Penalty>
-0

> <b_epik_Metal_Only>
0

> <s_epik_Chemistry_Notes>
This compound contains an acetal/aminal-like group ( X-CH(R)-Y where X, Y are N, S, or O) that may be acid/base labile, releasing an aldehyde.

> <s_lp_Force_Field>
OPLS_2005

> <r_lp_Energy>
39.6801

> <b_lp_Chiralities_Consistent>
1

> <s_lp_Variant>
AV-unprocessed.smi:254-4

> <Gold.Version>
5.8.1

> <Gold.Id.Protein>
6NUR|6NUR_protein|mol2

> <Gold.PLP.Fitness>
47.5983

> <Gold.PLP.PLP>
-45.2736

> <Gold.PLP.part.hbond>
-1.8032

> <Gold.PLP.part.metal>
0.0000

> <Gold.PLP.part.buried>
-3.8798

> <Gold.PLP.part.nonpolar>
-40.8488

> <Gold.PLP.part.repulsive>
1.1865

> <Gold.PLP.ligand.clash>
0.0000

> <Gold.PLP.ligand.torsion>
2.2574

> <Gold.PLP.Chemscore.Hbond>
2.0000

> <Gold.PLP.Chemscore.CHOScore>
0.2006

> <Gold.PLP.Chemscore.Metal>
0.0000

> <Gold.Chemscore.Hbonds>
donor molecule, donor type, donor heavy atom, donor atom, acceptor molecule, acceptor atom, score
      L1  H    17    39       P1 10175  0.42
      P1  H  7997  8009       L1     1  1.00

> <Gold.PLP.Chemscore.Internal.Correction>
0.2377

> <Gold.Rescore>
     Score         DG    S(hbond)    S(metal)    S(lipo)     H(rot)  DE(clash)    DE(int)     intcor
      6.10      -9.92       1.93        0.00      54.92       3.30       0.91       2.91       ----

> <Gold.Chemscore.Fitness>
6.0980

> <Gold.Chemscore.DG>
-9.9202

> <Gold.Chemscore.ZeroCoef>
-5.4800

> <Gold.Chemscore.Hbond>
1.9329

> <Gold.Chemscore.Metal>
0.0000

> <Gold.Chemscore.Lipo>
54.9220

> <Gold.Chemscore.Internal_Hbond>
0.0000

> <Gold.Chemscore.DEClash>
0.9117

> <Gold.Chemscore.DEInternal>
2.9105

> <Gold.Chemscore.Rot>
3.2974

> <Gold.Chemscore.Internal.Correction>
   9.000000E+99

> <Gold.Chemscore.Hbonds>
donor molecule, donor type, donor heavy atom, donor atom, acceptor molecule, acceptor atom, score
      L1  H    17    39       P1 10175  0.39
      P1  H  7997  8009       L1     1  0.91

> <Gold.Chemscore.Hbond.Weighted>
-6.4558

> <Gold.Chemscore.Metal.Weighted>
-0.0000

> <Gold.Chemscore.Lipo.Weighted>
-6.4259

> <Gold.Chemscore.Internal_Hbond.Weighted>
0.0000

> <Gold.Chemscore.DEClash.Weighted>
0.9117

> <Gold.Chemscore.DEInternal.Weighted>
2.9105

> <Gold.Chemscore.Rot.Weighted>
8.4414

> <Gold.Chemscore.Internal.Correction.Weighted>
   9.000000E+99

> <Gold.Protein.RotatedTorsions>
[ 6907 6896 6895 6894 ] final   90.05 input  -60.11 | X-H torsion
[ 7974 7965 7964 7962 ] final  -30.99 input  175.53 | X-H torsion
[ 8008 7997 7996 7995 ] final  160.62 input   59.86 | X-H torsion
[ 10167 10162 10161 10158 ] final   33.80 input  -65.29 | X-H torsion
[ 10718 10713 10712 10709 ] final   12.90 input   66.30 | X-H torsion
[ 10763 10752 10751 10750 ] final  177.02 input  -60.55 | X-H torsion
[ 11005 11000 10999 10996 ] final   96.40 input  -57.11 | X-H torsion

> <Gold.Protein.ActiveResidues>
 VAL166  LYS551  ARG553  GLY616  TRP617  ASP618  TYR619  PRO620  LYS621  CYS622 
 ASP623  PHE694  ASN695  SER759  ASP760  ASP761  ALA762  ILE779  LEU786  VAL792 
 PHE793  MET794  SER795  GLU796  ALA797  LYS798  CYS799  TRP800  GLU811  SER814 

> <Gold.Protein.RotatedAtoms>
  152.5441  134.1872  159.8659 H   0  0  0  0  0  0  0  0  0  0  0  0  # atno 6907 bound_to 6896
  151.1870  133.4683  159.2602 H   0  0  0  0  0  0  0  0  0  0  0  0  # atno 6908 bound_to 6896
  151.1121  135.0044  159.8554 H   0  0  0  0  0  0  0  0  0  0  0  0  # atno 6909 bound_to 6896
  146.1101  140.5610  142.8781 H   0  0  0  0  0  0  0  0  0  0  0  0  # atno 7974 bound_to 7965
  156.2160  140.1799  156.7588 H   0  0  0  0  0  0  0  0  0  0  0  0  # atno 8008 bound_to 7997
  154.5792  140.0669  156.9108 H   0  0  0  0  0  0  0  0  0  0  0  0  # atno 8009 bound_to 7997
  155.2533  140.3330  155.4282 H   0  0  0  0  0  0  0  0  0  0  0  0  # atno 8010 bound_to 7997
  140.4374  144.1237  150.6168 H   0  0  0  0  0  0  0  0  0  0  0  0  # atno 10167 bound_to 10162
  157.0168  130.6139  149.5715 H   0  0  0  0  0  0  0  0  0  0  0  0  # atno 10718 bound_to 10713
  154.4889  135.2778  155.1512 H   0  0  0  0  0  0  0  0  0  0  0  0  # atno 10763 bound_to 10752
  154.3192  135.6213  153.5504 H   0  0  0  0  0  0  0  0  0  0  0  0  # atno 10764 bound_to 10752
  152.9885  135.5738  154.5306 H   0  0  0  0  0  0  0  0  0  0  0  0  # atno 10765 bound_to 10752
  139.8782  134.8949  156.4154 H   0  0  0  0  0  0  0  0  0  0  0  0  # atno 11005 bound_to 11000
  144.7504  140.5177  143.6805 LP  0  0  0  0  0  0  0  0  0  0  0  0  # atno 17320 bound_to 7965
  145.5680  139.1482  143.3304 LP  0  0  0  0  0  0  0  0  0  0  0  0  # atno 17321 bound_to 7965
  140.4357  143.2548  151.9538 LP  0  0  0  0  0  0  0  0  0  0  0  0  # atno 17342 bound_to 10162
  139.4787  144.5702  151.8101 LP  0  0  0  0  0  0  0  0  0  0  0  0  # atno 17343 bound_to 10162
  156.0116  130.5208  150.8007 LP  0  0  0  0  0  0  0  0  0  0  0  0  # atno 17370 bound_to 10713
  157.5279  131.0935  150.9993 LP  0  0  0  0  0  0  0  0  0  0  0  0  # atno 17371 bound_to 10713
  140.9171  133.7671  155.9861 LP  0  0  0  0  0  0  0  0  0  0  0  0  # atno 17394 bound_to 11000
  140.8481  134.2987  157.5286 LP  0  0  0  0  0  0  0  0  0  0  0  0  # atno 17395 bound_to 11000

$$$$
