AV-unprocessed.smi:1645|AV-procd|sdf|6613|dock2
  -GOLD-   22720 7313D 1   1.00000     0.00000
 Structure written by MMmdl.
 56 59  0  0  0  0  0  0  0  0  3 V2000
  149.2711  134.7145  156.1521 O   0  0  0  0  0  0  0  0  0  0  0  0
  149.2964  135.1827  155.0142 C   0  0  0  0  0  0  0  0  0  0  0  0
  149.8521  136.3572  154.6698 N   0  0  0  0  0  0  0  0  0  0  0  0
  150.4374  137.3413  155.5125 C   0  0  0  0  0  0  0  0  0  0  0  0
  151.3135  138.2762  154.9235 C   0  0  0  0  0  0  0  0  0  0  0  0
  151.8994  139.2862  155.7139 C   0  0  0  0  0  0  0  0  0  0  0  0
  151.5976  139.3659  157.0969 C   0  0  0  0  0  0  0  0  0  0  0  0
  152.1340  140.3423  157.9677 N   0  0  0  0  0  0  0  0  0  0  0  0
  152.8523  139.8380  159.1432 C   0  0  0  0  0  0  0  0  0  0  0  0
  153.7311  140.9282  159.7795 C   0  0  0  0  0  0  0  0  0  0  0  0
  152.9147  142.1924  160.0785 C   0  0  0  0  0  0  0  0  0  0  0  0
  152.2285  142.6815  158.7963 C   0  0  0  0  0  0  0  0  0  0  0  0
  151.3658  141.5729  158.1694 C   0  0  0  0  0  0  0  0  0  0  0  0
  150.7442  138.4485  157.6137 N   0  3  0  0  0  0  0  0  0  0  0  0
  150.1630  137.4640  156.8950 C   0  0  0  0  0  0  0  0  0  0  0  0
  148.7818  134.5563  153.9464 N   0  0  0  0  0  0  0  0  0  0  0  0
  148.1120  133.2588  153.9743 C   0  0  1  0  0  0  0  0  0  0  0  0
  146.9934  133.1371  152.9460 C   0  0  0  0  0  0  0  0  0  0  0  0
  146.8203  131.6212  152.8385 C   0  0  0  0  0  0  0  0  0  0  0  0
  148.1723  131.0454  153.0207 N   0  3  2  0  0  0  0  0  0  0  0  0
  148.1989  129.7331  153.7116 C   0  0  0  0  0  0  0  0  0  0  0  0
  149.6446  129.2194  153.8425 C   0  0  0  0  0  0  0  0  0  0  0  0
  150.6034  130.2624  154.4543 C   0  0  0  0  0  0  0  0  0  0  0  0
  149.8965  131.5843  154.7931 C   0  0  0  0  0  0  0  0  0  0  0  0
  149.0517  132.0980  153.6051 C   0  0  2  0  0  0  0  0  0  0  0  0
  149.8744  136.5654  153.6822 H   0  0  0  0  0  0  0  0  0  0  0  0
  151.5399  138.2242  153.8684 H   0  0  0  0  0  0  0  0  0  0  0  0
  152.5618  139.9914  155.2352 H   0  0  0  0  0  0  0  0  0  0  0  0
  152.1209  139.4802  159.8689 H   0  0  0  0  0  0  0  0  0  0  0  0
  153.4885  138.9889  158.8945 H   0  0  0  0  0  0  0  0  0  0  0  0
  154.1868  140.5513  160.6955 H   0  0  0  0  0  0  0  0  0  0  0  0
  154.5520  141.1752  159.1050 H   0  0  0  0  0  0  0  0  0  0  0  0
  152.1655  141.9784  160.8418 H   0  0  0  0  0  0  0  0  0  0  0  0
  153.5614  142.9720  160.4823 H   0  0  0  0  0  0  0  0  0  0  0  0
  151.6129  143.5554  159.0105 H   0  0  0  0  0  0  0  0  0  0  0  0
  152.9846  143.0036  158.0790 H   0  0  0  0  0  0  0  0  0  0  0  0
  150.9800  141.9394  157.2179 H   0  0  0  0  0  0  0  0  0  0  0  0
  150.5087  141.3579  158.8090 H   0  0  0  0  0  0  0  0  0  0  0  0
  149.4945  136.8302  157.4576 H   0  0  0  0  0  0  0  0  0  0  0  0
  148.8509  135.0134  153.0486 H   0  0  0  0  0  0  0  0  0  0  0  0
  147.6742  133.0798  154.9590 H   0  0  0  0  0  0  0  0  0  0  0  0
  146.0779  133.6463  153.2492 H   0  0  0  0  0  0  0  0  0  0  0  0
  147.3088  133.5465  151.9849 H   0  0  0  0  0  0  0  0  0  0  0  0
  146.1598  131.2785  153.6367 H   0  0  0  0  0  0  0  0  0  0  0  0
  146.3804  131.3163  151.8886 H   0  0  0  0  0  0  0  0  0  0  0  0
  147.7414  129.8244  154.6983 H   0  0  0  0  0  0  0  0  0  0  0  0
  147.5971  129.0163  153.1516 H   0  0  0  0  0  0  0  0  0  0  0  0
  149.6552  128.3080  154.4412 H   0  0  0  0  0  0  0  0  0  0  0  0
  150.0132  128.9336  152.8563 H   0  0  0  0  0  0  0  0  0  0  0  0
  151.0758  129.8582  155.3501 H   0  0  0  0  0  0  0  0  0  0  0  0
  151.4129  130.4596  153.7503 H   0  0  0  0  0  0  0  0  0  0  0  0
  149.2605  131.4363  155.6670 H   0  0  0  0  0  0  0  0  0  0  0  0
  150.6340  132.3332  155.0824 H   0  0  0  0  0  0  0  0  0  0  0  0
  149.7203  132.4118  152.8015 H   0  0  0  0  0  0  0  0  0  0  0  0
  148.5375  130.8793  152.0938 H   0  0  0  0  0  0  0  0  0  0  0  0
  150.5242  138.5055  158.6081 H   0  0  0  0  0  0  0  0  0  0  0  0
  1  2  2  0  0  0  0
  2  3  1  0  0  0  0
  2 16  1  0  0  0  0
  3  4  1  0  0  0  0
  3 26  1  0  0  0  0
  4 15  1  0  0  0  0
  4  5  2  0  0  0  0
  5  6  1  0  0  0  0
  5 27  1  0  0  0  0
  6  7  2  0  0  0  0
  6 28  1  0  0  0  0
  7  8  1  0  0  0  0
  7 14  1  0  0  0  0
  8 13  1  0  0  0  0
  8  9  1  0  0  0  0
  9 10  1  0  0  0  0
  9 29  1  0  0  0  0
  9 30  1  0  0  0  0
 10 11  1  0  0  0  0
 10 31  1  0  0  0  0
 10 32  1  0  0  0  0
 11 12  1  0  0  0  0
 11 33  1  0  0  0  0
 11 34  1  0  0  0  0
 12 13  1  0  0  0  0
 12 35  1  0  0  0  0
 12 36  1  0  0  0  0
 13 37  1  0  0  0  0
 13 38  1  0  0  0  0
 14 15  2  0  0  0  0
 14 56  1  0  0  0  0
 15 39  1  0  0  0  0
 16 17  1  0  0  0  0
 16 40  1  0  0  0  0
 17 25  1  0  0  0  0
 17 18  1  0  0  0  0
 17 41  1  0  0  0  0
 18 19  1  0  0  0  0
 18 42  1  0  0  0  0
 18 43  1  0  0  0  0
 19 20  1  0  0  0  0
 19 44  1  0  0  0  0
 19 45  1  0  0  0  0
 20 25  1  0  0  0  0
 20 21  1  0  0  0  0
 20 55  1  0  0  0  0
 21 22  1  0  0  0  0
 21 46  1  0  0  0  0
 21 47  1  0  0  0  0
 22 23  1  0  0  0  0
 22 48  1  0  0  0  0
 22 49  1  0  0  0  0
 23 24  1  0  0  0  0
 23 50  1  0  0  0  0
 23 51  1  0  0  0  0
 24 25  1  0  0  0  0
 24 52  1  0  0  0  0
 24 53  1  0  0  0  0
 25 54  1  0  0  0  0
M  CHG  1  14   1
M  CHG  1  20   1
M  END
> <s_m_source_file>
AV-unprocessed.smi

> <i_m_source_file_index>
1645

> <i_lp_mmshare_version>
43012

> <i_f3d_flags>
0

> <s_epik_input>
W0NIMl0xW0NIMl1bQ0gyXVtDSDJdW0NASF0oTjEyKVtDQEBIXShbQ0gyXVtDSDJdMilbTkhdQyg9TylbTkhdYzNbY0hdW2NIXWMobltjSF0zKU40W0NIMl1bQ0gyXVtDSDJdW0NIMl1bQ0gyXTQ=

> <s_epik_cmdline>
J2VwaWtfcHl0aG9uJywgJy1waCcsICc3LjAnLCAnLXRuJywgJzgnLCAnLW1hJywgJzIwMCcsICctbWV0YWxfYmluZGluZycsICctaW1hZScsICc8aW5maWxlLm1hZT4nLCAnLW9tYWUnLCAnPG91dGZpbGUubWFlPic=

> <r_lp_tautomer_probability>
0.999994

> <r_epik_Ionization_Penalty>
1.26838

> <r_epik_Ionization_Penalty_Charging>
1.26836

> <r_epik_Ionization_Penalty_Neutral>
1.95562e-05

> <r_epik_State_Penalty>
1.33841

> <r_epik_Charging_Adjusted_Penalty>
2.60677

> <i_epik_Tot_Q>
2

> <i_epik_Tot_abs_Q>
2

> <r_epik_Metal_State_Penalty>
1.40601

> <b_epik_Metal_Only>
0

> <s_lp_Force_Field>
OPLS_2005

> <r_lp_Energy>
63.6988

> <b_lp_Chiralities_Consistent>
1

> <s_lp_Variant>
AV-unprocessed.smi:1645-14

> <Gold.Version>
5.8.1

> <Gold.Id.Protein>
6NUR|6NUR_protein|mol2

> <Gold.PLP.Fitness>
50.1754

> <Gold.PLP.PLP>
-42.6115

> <Gold.PLP.part.hbond>
-3.0000

> <Gold.PLP.part.metal>
0.0000

> <Gold.PLP.part.buried>
-5.8495

> <Gold.PLP.part.nonpolar>
-34.7015

> <Gold.PLP.part.repulsive>
0.0879

> <Gold.PLP.ligand.clash>
0.0000

> <Gold.PLP.ligand.torsion>
0.8227

> <Gold.PLP.Chemscore.Hbond>
2.8960

> <Gold.PLP.Chemscore.CHOScore>
0.0000

> <Gold.PLP.Chemscore.Metal>
0.0000

> <Gold.Chemscore.Hbonds>
donor molecule, donor type, donor heavy atom, donor atom, acceptor molecule, acceptor atom, score
      L1  H     3    26       P1  7948  0.93
      L1  H    16    40       P1  7948  1.00
      L1  H    20    55       P1 10747  1.00

> <Gold.PLP.Chemscore.Internal.Correction>
0.5214

> <Gold.Rescore>
     Score         DG    S(hbond)    S(metal)    S(lipo)     H(rot)  DE(clash)    DE(int)     intcor
     21.42     -23.26       2.61        0.00     103.23       1.18       0.02       1.83       ----

> <Gold.Chemscore.Fitness>
21.4152

> <Gold.Chemscore.DG>
-23.2597

> <Gold.Chemscore.ZeroCoef>
-5.4800

> <Gold.Chemscore.Hbond>
2.6141

> <Gold.Chemscore.Metal>
0.0000

> <Gold.Chemscore.Lipo>
103.2318

> <Gold.Chemscore.Internal_Hbond>
0.0000

> <Gold.Chemscore.DEClash>
0.0170

> <Gold.Chemscore.DEInternal>
1.8275

> <Gold.Chemscore.Rot>
1.1833

> <Gold.Chemscore.Internal.Correction>
   9.000000E+99

> <Gold.Chemscore.Hbonds>
donor molecule, donor type, donor heavy atom, donor atom, acceptor molecule, acceptor atom, score
      L1  H     3    26       P1  7948  0.29
      L1  H    16    40       P1  7948  0.30
      L1  H    20    55       P1 10747  0.93

> <Gold.Chemscore.Hbond.Weighted>
-8.7309

> <Gold.Chemscore.Metal.Weighted>
-0.0000

> <Gold.Chemscore.Lipo.Weighted>
-12.0781

> <Gold.Chemscore.Internal_Hbond.Weighted>
0.0000

> <Gold.Chemscore.DEClash.Weighted>
0.0170

> <Gold.Chemscore.DEInternal.Weighted>
1.8275

> <Gold.Chemscore.Rot.Weighted>
3.0293

> <Gold.Chemscore.Internal.Correction.Weighted>
   9.000000E+99

> <Gold.Protein.RotatedTorsions>
[ 6907 6896 6895 6894 ] final   -1.50 input  -60.11 | X-H torsion
[ 7974 7965 7964 7962 ] final   11.94 input  175.53 | X-H torsion
[ 8008 7997 7996 7995 ] final  -85.08 input   59.86 | X-H torsion
[ 10167 10162 10161 10158 ] final  -81.65 input  -65.29 | X-H torsion
[ 10718 10713 10712 10709 ] final   48.84 input   66.30 | X-H torsion
[ 10763 10752 10751 10750 ] final -104.97 input  -60.55 | X-H torsion
[ 11005 11000 10999 10996 ] final  177.87 input  -57.11 | X-H torsion

> <Gold.Protein.ActiveResidues>
 VAL166  LYS551  ARG553  GLY616  TRP617  ASP618  TYR619  PRO620  LYS621  CYS622 
 ASP623  PHE694  ASN695  SER759  ASP760  ASP761  ALA762  ILE779  LEU786  VAL792 
 PHE793  MET794  SER795  GLU796  ALA797  LYS798  CYS799  TRP800  GLU811  SER814 

> <Gold.Protein.RotatedAtoms>
  151.5450  135.1068  159.9935 H   0  0  0  0  0  0  0  0  0  0  0  0  # atno 6907 bound_to 6896
  152.4518  133.7640  159.6773 H   0  0  0  0  0  0  0  0  0  0  0  0  # atno 6908 bound_to 6896
  150.8448  133.7811  159.3071 H   0  0  0  0  0  0  0  0  0  0  0  0  # atno 6909 bound_to 6896
  146.2361  139.9411  142.8483 H   0  0  0  0  0  0  0  0  0  0  0  0  # atno 7974 bound_to 7965
  154.6368  140.0596  156.9798 H   0  0  0  0  0  0  0  0  0  0  0  0  # atno 8008 bound_to 7997
  155.1579  140.3280  155.4399 H   0  0  0  0  0  0  0  0  0  0  0  0  # atno 8009 bound_to 7997
  156.2511  140.1936  156.6688 H   0  0  0  0  0  0  0  0  0  0  0  0  # atno 8010 bound_to 7997
  140.4393  143.2520  151.8649 H   0  0  0  0  0  0  0  0  0  0  0  0  # atno 10167 bound_to 10162
  157.4727  130.8265  149.8006 H   0  0  0  0  0  0  0  0  0  0  0  0  # atno 10718 bound_to 10713
  154.7915  135.4766  154.0063 H   0  0  0  0  0  0  0  0  0  0  0  0  # atno 10763 bound_to 10752
  153.1638  135.6813  153.8711 H   0  0  0  0  0  0  0  0  0  0  0  0  # atno 10764 bound_to 10752
  153.8316  135.3191  155.3397 H   0  0  0  0  0  0  0  0  0  0  0  0  # atno 10765 bound_to 10752
  140.3888  134.6881  157.4495 H   0  0  0  0  0  0  0  0  0  0  0  0  # atno 11005 bound_to 11000
  145.1952  140.9829  143.4188 LP  0  0  0  0  0  0  0  0  0  0  0  0  # atno 17320 bound_to 7965
  144.9822  139.3772  143.6256 LP  0  0  0  0  0  0  0  0  0  0  0  0  # atno 17321 bound_to 7965
  139.4788  144.5247  151.8751 LP  0  0  0  0  0  0  0  0  0  0  0  0  # atno 17342 bound_to 10162
  140.4337  144.2081  150.5888 LP  0  0  0  0  0  0  0  0  0  0  0  0  # atno 17343 bound_to 10162
  156.0081  130.3846  150.2358 LP  0  0  0  0  0  0  0  0  0  0  0  0  # atno 17370 bound_to 10713
  157.0541  131.0071  151.3244 LP  0  0  0  0  0  0  0  0  0  0  0  0  # atno 17371 bound_to 10713
  140.0422  134.6251  155.8966 LP  0  0  0  0  0  0  0  0  0  0  0  0  # atno 17394 bound_to 11000
  141.1898  133.6566  156.5384 LP  0  0  0  0  0  0  0  0  0  0  0  0  # atno 17395 bound_to 11000

$$$$
