AV-unprocessed.smi:1768|AV-procd|sdf|7149|dock1
  -GOLD-   22720 8383D 1   1.00000     0.00000
 Structure written by MMmdl.
 32 33  0  0  0  0  0  0  0  0  2 V2000
  148.8402  140.8155  154.7645 C   0  0  0  0  0  0  0  0  0  0  0  0
  149.7476  139.6367  154.6794 C   0  0  0  0  0  0  0  0  0  0  0  0
  151.0713  139.7528  154.5489 N   0  0  0  0  0  0  0  0  0  0  0  0
  151.7011  138.5177  154.4951 N   0  0  0  0  0  0  0  0  0  0  0  0
  150.8489  137.4876  154.5954 C   0  0  0  0  0  0  0  0  0  0  0  0
  151.2592  136.2089  154.5642 N   0  5  0  0  0  0  0  0  0  0  0  0
  150.4912  135.2389  155.1112 C   0  0  0  0  0  0  0  0  0  0  0  0
  150.6856  134.6759  156.1912 O   0  0  0  0  0  0  0  0  0  0  0  0
  149.4340  134.8999  154.3595 N   0  0  0  0  0  0  0  0  0  0  0  0
  148.4265  133.8938  154.6890 C   0  0  2  0  0  0  0  0  0  0  0  0
  149.0938  132.5115  154.8024 C   0  0  0  0  0  0  0  0  0  0  0  0
  147.3197  133.9205  153.6175 C   0  0  1  0  0  0  0  0  0  0  0  0
  147.7334  133.3654  152.2530 C   0  0  0  0  0  0  0  0  0  0  0  0
  146.4241  132.8891  151.6420 C   0  0  0  0  0  0  0  0  0  0  0  0
  145.4463  132.8726  152.8195 C   0  0  0  0  0  0  0  0  0  0  0  0
  146.2555  133.0504  153.9725 O   0  0  0  0  0  0  0  0  0  0  0  0
  149.1628  137.9826  154.7445 S   0  0  0  0  0  0  0  0  0  0  0  0
  148.8761  141.2409  155.7676 H   0  0  0  0  0  0  0  0  0  0  0  0
  147.8141  140.5201  154.5451 H   0  0  0  0  0  0  0  0  0  0  0  0
  149.1440  141.5784  154.0473 H   0  0  0  0  0  0  0  0  0  0  0  0
  149.3142  135.3910  153.4859 H   0  0  0  0  0  0  0  0  0  0  0  0
  147.9744  134.1438  155.6505 H   0  0  0  0  0  0  0  0  0  0  0  0
  148.3729  131.7432  155.0812 H   0  0  0  0  0  0  0  0  0  0  0  0
  149.8748  132.5111  155.5634 H   0  0  0  0  0  0  0  0  0  0  0  0
  149.5505  132.2138  153.8581 H   0  0  0  0  0  0  0  0  0  0  0  0
  146.9239  134.9317  153.5014 H   0  0  0  0  0  0  0  0  0  0  0  0
  148.2422  134.1059  151.6351 H   0  0  0  0  0  0  0  0  0  0  0  0
  148.4051  132.5151  152.3798 H   0  0  0  0  0  0  0  0  0  0  0  0
  146.0750  133.5655  150.8613 H   0  0  0  0  0  0  0  0  0  0  0  0
  146.5397  131.8984  151.2014 H   0  0  0  0  0  0  0  0  0  0  0  0
  144.7420  133.7023  152.7447 H   0  0  0  0  0  0  0  0  0  0  0  0
  144.8759  131.9455  152.8791 H   0  0  0  0  0  0  0  0  0  0  0  0
  1  2  1  0  0  0  0
  1 18  1  0  0  0  0
  1 19  1  0  0  0  0
  1 20  1  0  0  0  0
  2 17  1  0  0  0  0
  2  3  2  0  0  0  0
  3  4  1  0  0  0  0
  4  5  2  0  0  0  0
  5  6  1  0  0  0  0
  5 17  1  0  0  0  0
  6  7  1  0  0  0  0
  7  8  2  0  0  0  0
  7  9  1  0  0  0  0
  9 10  1  0  0  0  0
  9 21  1  0  0  0  0
 10 11  1  0  0  0  0
 10 12  1  0  0  0  0
 10 22  1  0  0  0  0
 11 23  1  0  0  0  0
 11 24  1  0  0  0  0
 11 25  1  0  0  0  0
 12 16  1  0  0  0  0
 12 13  1  0  0  0  0
 12 26  1  0  0  0  0
 13 14  1  0  0  0  0
 13 27  1  0  0  0  0
 13 28  1  0  0  0  0
 14 15  1  0  0  0  0
 14 29  1  0  0  0  0
 14 30  1  0  0  0  0
 15 16  1  0  0  0  0
 15 31  1  0  0  0  0
 15 32  1  0  0  0  0
M  CHG  1   6  -1
M  END
> <s_m_source_file>
AV-unprocessed.smi

> <i_m_source_file_index>
1768

> <i_lp_mmshare_version>
43012

> <i_f3d_flags>
0

> <s_epik_input>
W0NIM11jMW5uYyhzMSlbTkhdQyg9TylbTkhdW0NASF0oW0NIM10pW0NAQEhdMltDSDJdW0NIMl1bQ0gyXU8y

> <s_epik_cmdline>
J2VwaWtfcHl0aG9uJywgJy1waCcsICc3LjAnLCAnLXRuJywgJzgnLCAnLW1hJywgJzIwMCcsICctbWV0YWxfYmluZGluZycsICctaW1hZScsICc8aW5maWxlLm1hZT4nLCAnLW9tYWUnLCAnPG91dGZpbGUubWFlPic=

> <r_lp_tautomer_probability>
1

> <r_epik_Ionization_Penalty>
4.3376

> <r_epik_Ionization_Penalty_Charging>
4.19392

> <r_epik_Ionization_Penalty_Neutral>
0.143681

> <r_epik_State_Penalty>
4.19342

> <r_epik_Charging_Adjusted_Penalty>
8.38735

> <i_epik_Tot_Q>
-1

> <i_epik_Tot_abs_Q>
1

> <r_epik_Metal_State_Penalty>
0.686065

> <b_epik_Metal_Only>
1

> <s_lp_Force_Field>
OPLS_2005

> <r_lp_Energy>
16.4236

> <b_lp_Chiralities_Consistent>
1

> <s_lp_Variant>
AV-unprocessed.smi:1768-7

> <Gold.Version>
5.8.1

> <Gold.Id.Protein>
6NUR|6NUR_protein|mol2

> <Gold.PLP.Fitness>
35.7286

> <Gold.PLP.PLP>
-25.3003

> <Gold.PLP.part.hbond>
-3.0000

> <Gold.PLP.part.metal>
0.0000

> <Gold.PLP.part.buried>
-4.3313

> <Gold.PLP.part.nonpolar>
-19.2700

> <Gold.PLP.part.repulsive>
0.5194

> <Gold.PLP.ligand.clash>
0.0000

> <Gold.PLP.ligand.torsion>
0.9083

> <Gold.PLP.Chemscore.Hbond>
4.0000

> <Gold.PLP.Chemscore.CHOScore>
0.0000

> <Gold.PLP.Chemscore.Metal>
0.0000

> <Gold.Chemscore.Hbonds>
donor molecule, donor type, donor heavy atom, donor atom, acceptor molecule, acceptor atom, score
      L1  H     9    21       P1  7948  1.00
      P1  H  7989  7998       L1     3  1.00
      P1  H 10752 10763       L1     6  2.00

> <Gold.PLP.Chemscore.Internal.Correction>
0.2449

> <Gold.Rescore>
     Score         DG    S(hbond)    S(metal)    S(lipo)     H(rot)  DE(clash)    DE(int)     intcor
     13.53     -15.06       2.23        0.00      46.19       1.28       0.00       1.52       ----

> <Gold.Chemscore.Fitness>
13.5322

> <Gold.Chemscore.DG>
-15.0570

> <Gold.Chemscore.ZeroCoef>
-5.4800

> <Gold.Chemscore.Hbond>
2.2284

> <Gold.Chemscore.Metal>
0.0000

> <Gold.Chemscore.Lipo>
46.1945

> <Gold.Chemscore.Internal_Hbond>
0.0000

> <Gold.Chemscore.DEClash>
0.0000

> <Gold.Chemscore.DEInternal>
1.5248

> <Gold.Chemscore.Rot>
1.2776

> <Gold.Chemscore.Internal.Correction>
   9.000000E+99

> <Gold.Chemscore.Hbonds>
donor molecule, donor type, donor heavy atom, donor atom, acceptor molecule, acceptor atom, score
      L1  H     9    21       P1  7948  0.26
      P1  H  7989  7998       L1     3  0.86
      P1  H 10752 10763       L1     6  0.70

> <Gold.Chemscore.Hbond.Weighted>
-7.4429

> <Gold.Chemscore.Metal.Weighted>
-0.0000

> <Gold.Chemscore.Lipo.Weighted>
-5.4048

> <Gold.Chemscore.Internal_Hbond.Weighted>
0.0000

> <Gold.Chemscore.DEClash.Weighted>
0.0000

> <Gold.Chemscore.DEInternal.Weighted>
1.5248

> <Gold.Chemscore.Rot.Weighted>
3.2706

> <Gold.Chemscore.Internal.Correction.Weighted>
   9.000000E+99

> <Gold.Protein.RotatedTorsions>
[ 6907 6896 6895 6894 ] final  -54.87 input  -60.11 | X-H torsion
[ 7974 7965 7964 7962 ] final  145.01 input  175.53 | X-H torsion
[ 8008 7997 7996 7995 ] final  118.70 input   59.86 | X-H torsion
[ 10167 10162 10161 10158 ] final   52.62 input  -65.29 | X-H torsion
[ 10718 10713 10712 10709 ] final   32.44 input   66.30 | X-H torsion
[ 10763 10752 10751 10750 ] final   49.29 input  -60.55 | X-H torsion
[ 11005 11000 10999 10996 ] final   43.94 input  -57.11 | X-H torsion

> <Gold.Protein.ActiveResidues>
 VAL166  LYS551  ARG553  GLY616  TRP617  ASP618  TYR619  PRO620  LYS621  CYS622 
 ASP623  PHE694  ASN695  SER759  ASP760  ASP761  ALA762  ILE779  LEU786  VAL792 
 PHE793  MET794  SER795  GLU796  ALA797  LYS798  CYS799  TRP800  GLU811  SER814 

> <Gold.Protein.RotatedAtoms>
  150.8301  134.7550  159.6845 H   0  0  0  0  0  0  0  0  0  0  0  0  # atno 6907 bound_to 6896
  152.4406  134.5594  159.9899 H   0  0  0  0  0  0  0  0  0  0  0  0  # atno 6908 bound_to 6896
  151.5757  133.3346  159.3034 H   0  0  0  0  0  0  0  0  0  0  0  0  # atno 6909 bound_to 6896
  144.8788  139.5732  143.5853 H   0  0  0  0  0  0  0  0  0  0  0  0  # atno 7974 bound_to 7965
  156.2560  140.2869  156.0876 H   0  0  0  0  0  0  0  0  0  0  0  0  # atno 8008 bound_to 7997
  155.1498  140.0397  157.2836 H   0  0  0  0  0  0  0  0  0  0  0  0  # atno 8009 bound_to 7997
  154.6469  140.2535  155.7264 H   0  0  0  0  0  0  0  0  0  0  0  0  # atno 8010 bound_to 7997
  140.2494  144.3495  150.6353 H   0  0  0  0  0  0  0  0  0  0  0  0  # atno 10167 bound_to 10162
  157.2852  130.7275  149.6579 H   0  0  0  0  0  0  0  0  0  0  0  0  # atno 10718 bound_to 10713
  152.9787  135.5916  154.4065 H   0  0  0  0  0  0  0  0  0  0  0  0  # atno 10763 bound_to 10752
  154.3705  135.2767  155.2271 H   0  0  0  0  0  0  0  0  0  0  0  0  # atno 10764 bound_to 10752
  154.4229  135.6055  153.6075 H   0  0  0  0  0  0  0  0  0  0  0  0  # atno 10765 bound_to 10752
  140.1598  134.4355  155.8325 H   0  0  0  0  0  0  0  0  0  0  0  0  # atno 11005 bound_to 11000
  146.2980  139.7338  142.9112 LP  0  0  0  0  0  0  0  0  0  0  0  0  # atno 17320 bound_to 7965
  145.3993  141.0383  143.3079 LP  0  0  0  0  0  0  0  0  0  0  0  0  # atno 17321 bound_to 7965
  140.6052  143.2167  151.6995 LP  0  0  0  0  0  0  0  0  0  0  0  0  # atno 17342 bound_to 10162
  139.5051  144.3730  152.0451 LP  0  0  0  0  0  0  0  0  0  0  0  0  # atno 17343 bound_to 10162
  155.9665  130.4325  150.4968 LP  0  0  0  0  0  0  0  0  0  0  0  0  # atno 17370 bound_to 10713
  157.2920  131.0628  151.2127 LP  0  0  0  0  0  0  0  0  0  0  0  0  # atno 17371 bound_to 10713
  141.2208  133.6908  156.7573 LP  0  0  0  0  0  0  0  0  0  0  0  0  # atno 17394 bound_to 11000
  140.2503  134.8545  157.3661 LP  0  0  0  0  0  0  0  0  0  0  0  0  # atno 17395 bound_to 11000

$$$$
