AV-unprocessed.smi:2061|AV-procd|sdf|8360|dock5
  -GOLD-   2272011 33D 1   1.00000     0.00000
 Structure written by MMmdl.
 45 46  0  0  0  0  0  0  0  0  1 V2000
  146.0804  134.0299  162.3421 C   0  0  0  0  0  0  0  0  0  0  0  0
  146.6243  135.2081  161.6093 C   0  0  0  0  0  0  0  0  0  0  0  0
  147.1761  135.3594  160.3681 C   0  0  0  0  0  0  0  0  0  0  0  0
  147.4762  136.7469  160.3183 C   0  0  0  0  0  0  0  0  0  0  0  0
  148.0756  137.3217  159.1683 N   0  0  0  0  0  0  0  0  0  0  0  0
  149.3860  137.3958  158.8785 C   0  0  0  0  0  0  0  0  0  0  0  0
  150.2927  136.9596  159.5882 O   0  0  0  0  0  0  0  0  0  0  0  0
  149.5904  138.0071  157.7016 N   0  0  0  0  0  0  0  0  0  0  0  0
  150.8939  138.2508  157.0864 C   0  0  0  0  0  0  0  0  0  0  0  0
  151.0565  139.7035  156.5552 C   0  0  2  0  0  0  0  0  0  0  0  0
  152.2434  139.7506  155.5591 C   0  0  0  0  0  0  0  0  0  0  0  0
  151.1774  140.7071  157.6394 N   0  0  0  0  0  0  0  0  0  0  0  0
  151.3790  142.0696  157.1337 C   0  0  0  0  0  0  0  0  0  0  0  0
  151.5253  143.1137  158.2576 C   0  0  2  0  0  0  0  0  0  0  0  0
  151.8198  144.5149  157.7120 C   0  0  0  0  0  0  0  0  0  0  0  0
  152.5976  142.7358  159.1115 O   0  0  0  0  0  0  0  0  0  0  0  0
  152.4066  141.4527  159.6930 C   0  0  2  0  0  0  0  0  0  0  0  0
  153.5936  141.1617  160.6175 C   0  0  0  0  0  0  0  0  0  0  0  0
  152.2702  140.4064  158.5708 C   0  0  0  0  0  0  0  0  0  0  0  0
  147.1373  137.3845  161.4283 N   0  0  0  0  0  0  0  0  0  0  0  0
  146.5897  136.4018  162.2611 O   0  0  0  0  0  0  0  0  0  0  0  0
  146.1929  133.1190  161.7541 H   0  0  0  0  0  0  0  0  0  0  0  0
  145.0203  134.1646  162.5571 H   0  0  0  0  0  0  0  0  0  0  0  0
  146.6026  133.8885  163.2885 H   0  0  0  0  0  0  0  0  0  0  0  0
  147.3384  134.5983  159.6194 H   0  0  0  0  0  0  0  0  0  0  0  0
  147.4378  137.7176  158.4942 H   0  0  0  0  0  0  0  0  0  0  0  0
  148.7832  138.3296  157.1886 H   0  0  0  0  0  0  0  0  0  0  0  0
  151.6118  138.0374  157.8761 H   0  0  0  0  0  0  0  0  0  0  0  0
  151.0994  137.5386  156.2856 H   0  0  0  0  0  0  0  0  0  0  0  0
  150.1560  139.9348  155.9839 H   0  0  0  0  0  0  0  0  0  0  0  0
  152.1626  138.9941  154.7799 H   0  0  0  0  0  0  0  0  0  0  0  0
  153.1936  139.5946  156.0708 H   0  0  0  0  0  0  0  0  0  0  0  0
  152.2994  140.6966  155.0225 H   0  0  0  0  0  0  0  0  0  0  0  0
  152.2617  142.0971  156.4928 H   0  0  0  0  0  0  0  0  0  0  0  0
  150.5337  142.3810  156.5236 H   0  0  0  0  0  0  0  0  0  0  0  0
  150.6037  143.1529  158.8412 H   0  0  0  0  0  0  0  0  0  0  0  0
  151.0163  144.8593  157.0604 H   0  0  0  0  0  0  0  0  0  0  0  0
  152.7464  144.5283  157.1374 H   0  0  0  0  0  0  0  0  0  0  0  0
  151.9204  145.2356  158.5239 H   0  0  0  0  0  0  0  0  0  0  0  0
  151.4943  141.4666  160.2922 H   0  0  0  0  0  0  0  0  0  0  0  0
  153.4865  140.1892  161.0987 H   0  0  0  0  0  0  0  0  0  0  0  0
  153.6690  141.9137  161.4031 H   0  0  0  0  0  0  0  0  0  0  0  0
  154.5338  141.1607  160.0656 H   0  0  0  0  0  0  0  0  0  0  0  0
  152.1074  139.4448  159.0536 H   0  0  0  0  0  0  0  0  0  0  0  0
  153.2110  140.3320  158.0231 H   0  0  0  0  0  0  0  0  0  0  0  0
  1  2  1  0  0  0  0
  1 22  1  0  0  0  0
  1 23  1  0  0  0  0
  1 24  1  0  0  0  0
  2 21  1  0  0  0  0
  2  3  2  0  0  0  0
  3  4  1  0  0  0  0
  3 25  1  0  0  0  0
  4  5  1  0  0  0  0
  4 20  2  0  0  0  0
  5  6  1  0  0  0  0
  5 26  1  0  0  0  0
  6  7  2  0  0  0  0
  6  8  1  0  0  0  0
  8  9  1  0  0  0  0
  8 27  1  0  0  0  0
  9 10  1  0  0  0  0
  9 28  1  0  0  0  0
  9 29  1  0  0  0  0
 10 11  1  0  0  0  0
 10 12  1  0  0  0  0
 10 30  1  0  0  0  0
 11 31  1  0  0  0  0
 11 32  1  0  0  0  0
 11 33  1  0  0  0  0
 12 19  1  0  0  0  0
 12 13  1  0  0  0  0
 13 14  1  0  0  0  0
 13 34  1  0  0  0  0
 13 35  1  0  0  0  0
 14 15  1  0  0  0  0
 14 16  1  0  0  0  0
 14 36  1  0  0  0  0
 15 37  1  0  0  0  0
 15 38  1  0  0  0  0
 15 39  1  0  0  0  0
 16 17  1  0  0  0  0
 17 18  1  0  0  0  0
 17 19  1  0  0  0  0
 17 40  1  0  0  0  0
 18 41  1  0  0  0  0
 18 42  1  0  0  0  0
 18 43  1  0  0  0  0
 19 44  1  0  0  0  0
 19 45  1  0  0  0  0
 20 21  1  0  0  0  0
M  END
> <s_m_source_file>
AV-unprocessed.smi

> <i_m_source_file_index>
2061

> <i_lp_mmshare_version>
43012

> <i_f3d_flags>
0

> <s_epik_input>
W0NIM11jMVtjSF1jKG5vMSlbTkhdQyg9TylbTkhdW0NIMl1bQ0BIXShbQ0gzXSlOMltDSDJdW0NAQEhdKFtDSDNdKU9bQ0BASF0oW0NIM10pW0NIMl0y

> <s_epik_cmdline>
J2VwaWtfcHl0aG9uJywgJy1waCcsICc3LjAnLCAnLXRuJywgJzgnLCAnLW1hJywgJzIwMCcsICctbWV0YWxfYmluZGluZycsICctaW1hZScsICc8aW5maWxlLm1hZT4nLCAnLW9tYWUnLCAnPG91dGZpbGUubWFlPic=

> <r_epik_Ionization_Penalty>
0.214073

> <r_epik_Ionization_Penalty_Charging>
0

> <r_epik_Ionization_Penalty_Neutral>
0.214073

> <r_epik_State_Penalty>
0.204211

> <r_epik_Charging_Adjusted_Penalty>
0.204211

> <i_epik_Tot_Q>
0

> <i_epik_Tot_abs_Q>
0

> <r_epik_Metal_State_Penalty>
0.217067

> <b_epik_Metal_Only>
0

> <s_lp_Force_Field>
OPLS_2005

> <r_lp_Energy>
26.137

> <b_lp_Chiralities_Consistent>
1

> <s_lp_Variant>
AV-unprocessed.smi:2061-1

> <Gold.Version>
5.8.1

> <Gold.Id.Protein>
6NUR|6NUR_protein|mol2

> <Gold.PLP.Fitness>
45.1777

> <Gold.PLP.PLP>
-38.6692

> <Gold.PLP.part.hbond>
-3.0000

> <Gold.PLP.part.metal>
0.0000

> <Gold.PLP.part.buried>
-5.4380

> <Gold.PLP.part.nonpolar>
-29.3938

> <Gold.PLP.part.repulsive>
0.2552

> <Gold.PLP.ligand.clash>
0.0000

> <Gold.PLP.ligand.torsion>
0.9630

> <Gold.PLP.Chemscore.Hbond>
2.7920

> <Gold.PLP.Chemscore.CHOScore>
0.0000

> <Gold.PLP.Chemscore.Metal>
0.0000

> <Gold.Chemscore.Hbonds>
donor molecule, donor type, donor heavy atom, donor atom, acceptor molecule, acceptor atom, score
      P1  H  6896  6908       L1     7  0.76
      P1  H  6931  6943       L1    20  0.56
      P1  H  6934  6947       L1    20  1.00

> <Gold.PLP.Chemscore.Internal.Correction>
0.0586

> <Gold.Rescore>
     Score         DG    S(hbond)    S(metal)    S(lipo)     H(rot)  DE(clash)    DE(int)     intcor
     17.90     -18.93       1.97        0.00      92.59       1.55       0.03       1.01       ----

> <Gold.Chemscore.Fitness>
17.9013

> <Gold.Chemscore.DG>
-18.9331

> <Gold.Chemscore.ZeroCoef>
-5.4800

> <Gold.Chemscore.Hbond>
1.9703

> <Gold.Chemscore.Metal>
0.0000

> <Gold.Chemscore.Lipo>
92.5947

> <Gold.Chemscore.Internal_Hbond>
0.0000

> <Gold.Chemscore.DEClash>
0.0255

> <Gold.Chemscore.DEInternal>
1.0064

> <Gold.Chemscore.Rot>
1.5474

> <Gold.Chemscore.Internal.Correction>
   9.000000E+99

> <Gold.Chemscore.Hbonds>
donor molecule, donor type, donor heavy atom, donor atom, acceptor molecule, acceptor atom, score
      P1  H  6896  6908       L1     7  0.76
      P1  H  6931  6943       L1    20  0.14
      P1  H  6934  6947       L1    20  0.37

> <Gold.Chemscore.Hbond.Weighted>
-6.5808

> <Gold.Chemscore.Metal.Weighted>
-0.0000

> <Gold.Chemscore.Lipo.Weighted>
-10.8336

> <Gold.Chemscore.Internal_Hbond.Weighted>
0.0000

> <Gold.Chemscore.DEClash.Weighted>
0.0255

> <Gold.Chemscore.DEInternal.Weighted>
1.0064

> <Gold.Chemscore.Rot.Weighted>
3.9612

> <Gold.Chemscore.Internal.Correction.Weighted>
   9.000000E+99

> <Gold.Protein.RotatedTorsions>
[ 6907 6896 6895 6894 ] final -165.60 input  -60.11 | X-H torsion
[ 7974 7965 7964 7962 ] final  102.15 input  175.53 | X-H torsion
[ 8008 7997 7996 7995 ] final  -36.19 input   59.86 | X-H torsion
[ 10167 10162 10161 10158 ] final  -67.97 input  -65.29 | X-H torsion
[ 10718 10713 10712 10709 ] final -105.93 input   66.30 | X-H torsion
[ 10763 10752 10751 10750 ] final  126.65 input  -60.55 | X-H torsion
[ 11005 11000 10999 10996 ] final  -80.39 input  -57.11 | X-H torsion

> <Gold.Protein.ActiveResidues>
 VAL166  LYS551  ARG553  GLY616  TRP617  ASP618  TYR619  PRO620  LYS621  CYS622 
 ASP623  PHE694  ASN695  SER759  ASP760  ASP761  ALA762  ILE779  LEU786  VAL792 
 PHE793  MET794  SER795  GLU796  ALA797  LYS798  CYS799  TRP800  GLU811  SER814 

> <Gold.Protein.RotatedAtoms>
  151.4302  133.3672  159.2767 H   0  0  0  0  0  0  0  0  0  0  0  0  # atno 6907 bound_to 6896
  150.9230  134.8649  159.7512 H   0  0  0  0  0  0  0  0  0  0  0  0  # atno 6908 bound_to 6896
  152.4991  134.4241  159.9542 H   0  0  0  0  0  0  0  0  0  0  0  0  # atno 6909 bound_to 6896
  145.3629  139.2414  143.3497 H   0  0  0  0  0  0  0  0  0  0  0  0  # atno 7974 bound_to 7965
  154.4078  140.1637  156.2333 H   0  0  0  0  0  0  0  0  0  0  0  0  # atno 8008 bound_to 7997
  155.9263  140.3418  155.6190 H   0  0  0  0  0  0  0  0  0  0  0  0  # atno 8009 bound_to 7997
  155.7160  140.0762  157.2341 H   0  0  0  0  0  0  0  0  0  0  0  0  # atno 8010 bound_to 7997
  140.5542  143.2312  151.6852 H   0  0  0  0  0  0  0  0  0  0  0  0  # atno 10167 bound_to 10162
  156.0367  130.5588  150.7609 H   0  0  0  0  0  0  0  0  0  0  0  0  # atno 10718 bound_to 10713
  153.6967  135.3290  155.3215 H   0  0  0  0  0  0  0  0  0  0  0  0  # atno 10763 bound_to 10752
  154.8425  135.4444  154.1453 H   0  0  0  0  0  0  0  0  0  0  0  0  # atno 10764 bound_to 10752
  153.2509  135.6981  153.7758 H   0  0  0  0  0  0  0  0  0  0  0  0  # atno 10765 bound_to 10752
  141.1668  133.7148  156.8265 H   0  0  0  0  0  0  0  0  0  0  0  0  # atno 11005 bound_to 11000
  146.2919  140.4266  142.8736 LP  0  0  0  0  0  0  0  0  0  0  0  0  # atno 17320 bound_to 7965
  144.8633  140.7170  143.6093 LP  0  0  0  0  0  0  0  0  0  0  0  0  # atno 17321 bound_to 7965
  139.5041  144.3768  152.0416 LP  0  0  0  0  0  0  0  0  0  0  0  0  # atno 17342 bound_to 10162
  140.2888  144.3777  150.6095 LP  0  0  0  0  0  0  0  0  0  0  0  0  # atno 17343 bound_to 10162
  157.5128  131.0926  151.0176 LP  0  0  0  0  0  0  0  0  0  0  0  0  # atno 17370 bound_to 10713
  157.0527  130.5794  149.5373 LP  0  0  0  0  0  0  0  0  0  0  0  0  # atno 17371 bound_to 10713
  140.2082  134.8847  157.3245 LP  0  0  0  0  0  0  0  0  0  0  0  0  # atno 17394 bound_to 11000
  140.2115  134.4133  155.7610 LP  0  0  0  0  0  0  0  0  0  0  0  0  # atno 17395 bound_to 11000

$$$$
