AV-unprocessed.smi:788|AV-procd|sdf|3733|dock5
  -GOLD-   22720 1163D 1   1.00000     0.00000
 Structure written by MMmdl.
 35 36  0  0  0  0  0  0  0  0  1 V2000
  145.0275  135.8779  151.2163 C   0  0  0  0  0  0  0  0  0  0  0  0
  145.3663  134.4317  150.8110 C   0  0  2  0  0  0  0  0  0  0  0  0
  144.1462  133.7579  150.1548 C   0  0  0  0  0  0  0  0  0  0  0  0
  144.4613  132.3224  149.7153 C   0  0  0  0  0  0  0  0  0  0  0  0
  144.9604  131.4845  150.8992 C   0  0  0  0  0  0  0  0  0  0  0  0
  146.1925  132.1230  151.5684 C   0  0  2  0  0  0  0  0  0  0  0  0
  146.6834  131.2472  152.7358 C   0  0  0  0  0  0  0  0  0  0  0  0
  145.8887  133.5820  151.9987 C   0  0  1  0  0  0  0  0  0  0  0  0
  147.0944  134.1965  152.5564 N   0  0  0  0  0  0  0  0  0  0  0  0
  147.5843  134.0115  153.7942 C   0  0  0  0  0  0  0  0  0  0  0  0
  147.0503  133.2751  154.6216 O   0  0  0  0  0  0  0  0  0  0  0  0
  148.7081  134.6942  154.1007 N   0  0  0  0  0  0  0  0  0  0  0  0
  149.4938  134.7459  155.2888 C   0  0  0  0  0  0  0  0  0  0  0  0
  149.3964  133.8750  156.3069 N   0  0  0  0  0  0  0  0  0  0  0  0
  150.2773  134.1741  157.3375 N   0  0  0  0  0  0  0  0  0  0  0  0
  151.0003  135.2632  157.0627 C   0  0  0  0  0  0  0  0  0  0  0  0
  150.6730  136.0300  155.5190 S   0  0  0  0  0  0  0  0  0  0  0  0
  144.2754  135.9007  152.0051 H   0  0  0  0  0  0  0  0  0  0  0  0
  144.6370  136.4407  150.3682 H   0  0  0  0  0  0  0  0  0  0  0  0
  145.9059  136.4126  151.5778 H   0  0  0  0  0  0  0  0  0  0  0  0
  146.1563  134.4824  150.0598 H   0  0  0  0  0  0  0  0  0  0  0  0
  143.3094  133.7487  150.8548 H   0  0  0  0  0  0  0  0  0  0  0  0
  143.8186  134.3373  149.2908 H   0  0  0  0  0  0  0  0  0  0  0  0
  143.5718  131.8627  149.2840 H   0  0  0  0  0  0  0  0  0  0  0  0
  145.2164  132.3352  148.9280 H   0  0  0  0  0  0  0  0  0  0  0  0
  144.1586  131.3750  151.6307 H   0  0  0  0  0  0  0  0  0  0  0  0
  145.2017  130.4786  150.5541 H   0  0  0  0  0  0  0  0  0  0  0  0
  146.9919  132.1504  150.8260 H   0  0  0  0  0  0  0  0  0  0  0  0
  145.9485  131.2136  153.5408 H   0  0  0  0  0  0  0  0  0  0  0  0
  147.6192  131.6182  153.1539 H   0  0  0  0  0  0  0  0  0  0  0  0
  146.8633  130.2233  152.4078 H   0  0  0  0  0  0  0  0  0  0  0  0
  145.1025  133.5489  152.7553 H   0  0  0  0  0  0  0  0  0  0  0  0
  147.6021  134.8202  151.9451 H   0  0  0  0  0  0  0  0  0  0  0  0
  149.0557  135.2741  153.3509 H   0  0  0  0  0  0  0  0  0  0  0  0
  151.7297  135.6195  157.7750 H   0  0  0  0  0  0  0  0  0  0  0  0
  1  2  1  0  0  0  0
  1 18  1  0  0  0  0
  1 19  1  0  0  0  0
  1 20  1  0  0  0  0
  2  8  1  0  0  0  0
  2  3  1  0  0  0  0
  2 21  1  0  0  0  0
  3  4  1  0  0  0  0
  3 22  1  0  0  0  0
  3 23  1  0  0  0  0
  4  5  1  0  0  0  0
  4 24  1  0  0  0  0
  4 25  1  0  0  0  0
  5  6  1  0  0  0  0
  5 26  1  0  0  0  0
  5 27  1  0  0  0  0
  6  7  1  0  0  0  0
  6  8  1  0  0  0  0
  6 28  1  0  0  0  0
  7 29  1  0  0  0  0
  7 30  1  0  0  0  0
  7 31  1  0  0  0  0
  8  9  1  0  0  0  0
  8 32  1  0  0  0  0
  9 10  1  0  0  0  0
  9 33  1  0  0  0  0
 10 11  2  0  0  0  0
 10 12  1  0  0  0  0
 12 13  1  0  0  0  0
 12 34  1  0  0  0  0
 13 17  1  0  0  0  0
 13 14  2  0  0  0  0
 14 15  1  0  0  0  0
 15 16  2  0  0  0  0
 16 17  1  0  0  0  0
 16 35  1  0  0  0  0
M  END
> <s_m_source_file>
AV-unprocessed.smi

> <i_m_source_file_index>
788

> <i_lp_mmshare_version>
43012

> <i_f3d_flags>
0

> <s_epik_input>
W0NIM11bQ0BASF0xW0NIMl1bQ0gyXVtDSDJdW0NAQEhdKFtDSDNdKVtDQEhdMVtOSF1DKD1PKVtOSF1jMm5uW2NIXXMy

> <s_epik_cmdline>
J2VwaWtfcHl0aG9uJywgJy1waCcsICc3LjAnLCAnLXRuJywgJzgnLCAnLW1hJywgJzIwMCcsICctbWV0YWxfYmluZGluZycsICctaW1hZScsICc8aW5maWxlLm1hZT4nLCAnLW9tYWUnLCAnPG91dGZpbGUubWFlPic=

> <r_lp_tautomer_probability>
1

> <r_epik_Ionization_Penalty>
0.000304078

> <r_epik_Ionization_Penalty_Charging>
0

> <r_epik_Ionization_Penalty_Neutral>
0.000304078

> <r_epik_State_Penalty>
-0

> <r_epik_Charging_Adjusted_Penalty>
0

> <i_epik_Tot_Q>
0

> <i_epik_Tot_abs_Q>
0

> <r_epik_Metal_State_Penalty>
0.164801

> <b_epik_Metal_Only>
0

> <s_lp_Force_Field>
OPLS_2005

> <r_lp_Energy>
14.1502

> <b_lp_Chiralities_Consistent>
1

> <s_lp_Variant>
AV-unprocessed.smi:788-3

> <Gold.Version>
5.8.1

> <Gold.Id.Protein>
6NUR|6NUR_protein|mol2

> <Gold.PLP.Fitness>
34.5848

> <Gold.PLP.PLP>
-27.1157

> <Gold.PLP.part.hbond>
-3.0000

> <Gold.PLP.part.metal>
0.0000

> <Gold.PLP.part.buried>
-2.3489

> <Gold.PLP.part.nonpolar>
-22.7684

> <Gold.PLP.part.repulsive>
0.0518

> <Gold.PLP.ligand.clash>
0.0000

> <Gold.PLP.ligand.torsion>
0.3361

> <Gold.PLP.Chemscore.Hbond>
2.7120

> <Gold.PLP.Chemscore.CHOScore>
0.0000

> <Gold.PLP.Chemscore.Metal>
0.0000

> <Gold.Chemscore.Hbonds>
donor molecule, donor type, donor heavy atom, donor atom, acceptor molecule, acceptor atom, score
      L1  H     9    33       P1  7948  0.93
      L1  H    12    34       P1  7948  1.00
      P1  H  6896  6907       L1    15  0.78

> <Gold.PLP.Chemscore.Internal.Correction>
0.0053

> <Gold.Rescore>
     Score         DG    S(hbond)    S(metal)    S(lipo)     H(rot)  DE(clash)    DE(int)     intcor
     15.56     -18.37       2.41        0.00      63.40       1.00       0.01       2.80       ----

> <Gold.Chemscore.Fitness>
15.5619

> <Gold.Chemscore.DG>
-18.3737

> <Gold.Chemscore.ZeroCoef>
-5.4800

> <Gold.Chemscore.Hbond>
2.4058

> <Gold.Chemscore.Metal>
0.0000

> <Gold.Chemscore.Lipo>
63.4039

> <Gold.Chemscore.Internal_Hbond>
0.0000

> <Gold.Chemscore.DEClash>
0.0073

> <Gold.Chemscore.DEInternal>
2.8044

> <Gold.Chemscore.Rot>
1.0000

> <Gold.Chemscore.Internal.Correction>
   9.000000E+99

> <Gold.Chemscore.Hbonds>
donor molecule, donor type, donor heavy atom, donor atom, acceptor molecule, acceptor atom, score
      L1  H     9    33       P1  7948  0.63
      L1  H    12    34       P1  7948  0.39
      P1  H  6896  6907       L1    15  0.19

> <Gold.Chemscore.Hbond.Weighted>
-8.0355

> <Gold.Chemscore.Metal.Weighted>
-0.0000

> <Gold.Chemscore.Lipo.Weighted>
-7.4183

> <Gold.Chemscore.Internal_Hbond.Weighted>
0.0000

> <Gold.Chemscore.DEClash.Weighted>
0.0073

> <Gold.Chemscore.DEInternal.Weighted>
2.8044

> <Gold.Chemscore.Rot.Weighted>
2.5600

> <Gold.Chemscore.Internal.Correction.Weighted>
   9.000000E+99

> <Gold.Protein.RotatedTorsions>
[ 6907 6896 6895 6894 ] final -111.99 input  -60.11 | X-H torsion
[ 7974 7965 7964 7962 ] final    2.46 input  175.53 | X-H torsion
[ 8008 7997 7996 7995 ] final -153.53 input   59.86 | X-H torsion
[ 10167 10162 10161 10158 ] final   73.25 input  -65.29 | X-H torsion
[ 10718 10713 10712 10709 ] final  153.04 input   66.30 | X-H torsion
[ 10763 10752 10751 10750 ] final  172.84 input  -60.55 | X-H torsion
[ 11005 11000 10999 10996 ] final  126.44 input  -57.11 | X-H torsion

> <Gold.Protein.ActiveResidues>
 VAL166  LYS551  ARG553  GLY616  TRP617  ASP618  TYR619  PRO620  LYS621  CYS622 
 ASP623  PHE694  ASN695  SER759  ASP760  ASP761  ALA762  ILE779  LEU786  VAL792 
 PHE793  MET794  SER795  GLU796  ALA797  LYS798  CYS799  TRP800  GLU811  SER814 

> <Gold.Protein.RotatedAtoms>
  150.7727  133.9155  159.3382 H   0  0  0  0  0  0  0  0  0  0  0  0  # atno 6907 bound_to 6896
  151.7037  135.0923  160.0265 H   0  0  0  0  0  0  0  0  0  0  0  0  # atno 6908 bound_to 6896
  152.3752  133.6433  159.6153 H   0  0  0  0  0  0  0  0  0  0  0  0  # atno 6909 bound_to 6896
  146.2444  140.0832  142.8356 H   0  0  0  0  0  0  0  0  0  0  0  0  # atno 7974 bound_to 7965
  155.6723  140.0735  157.2515 H   0  0  0  0  0  0  0  0  0  0  0  0  # atno 8008 bound_to 7997
  154.4121  140.1697  156.1944 H   0  0  0  0  0  0  0  0  0  0  0  0  # atno 8009 bound_to 7997
  155.9606  140.3370  155.6490 H   0  0  0  0  0  0  0  0  0  0  0  0  # atno 8010 bound_to 7997
  140.0265  144.5499  150.7540 H   0  0  0  0  0  0  0  0  0  0  0  0  # atno 10167 bound_to 10162
  157.2499  131.0776  151.1737 H   0  0  0  0  0  0  0  0  0  0  0  0  # atno 10718 bound_to 10713
  154.4318  135.2760  155.1907 H   0  0  0  0  0  0  0  0  0  0  0  0  # atno 10763 bound_to 10752
  154.3810  135.6087  153.5794 H   0  0  0  0  0  0  0  0  0  0  0  0  # atno 10764 bound_to 10752
  152.9836  135.5880  154.4630 H   0  0  0  0  0  0  0  0  0  0  0  0  # atno 10765 bound_to 10752
  139.9456  134.9630  156.8707 H   0  0  0  0  0  0  0  0  0  0  0  0  # atno 11005 bound_to 11000
  145.0714  140.9158  143.4879 LP  0  0  0  0  0  0  0  0  0  0  0  0  # atno 17320 bound_to 7965
  145.0967  139.2851  143.5707 LP  0  0  0  0  0  0  0  0  0  0  0  0  # atno 17321 bound_to 7965
  140.7320  143.2701  151.3917 LP  0  0  0  0  0  0  0  0  0  0  0  0  # atno 17342 bound_to 10162
  139.6104  144.1110  152.2293 LP  0  0  0  0  0  0  0  0  0  0  0  0  # atno 17343 bound_to 10162
  157.3289  130.6975  149.6313 LP  0  0  0  0  0  0  0  0  0  0  0  0  # atno 17370 bound_to 10713
  155.9666  130.4313  150.4915 LP  0  0  0  0  0  0  0  0  0  0  0  0  # atno 17371 bound_to 10713
  140.5843  134.0322  155.7475 LP  0  0  0  0  0  0  0  0  0  0  0  0  # atno 17394 bound_to 11000
  141.1105  133.9624  157.2918 LP  0  0  0  0  0  0  0  0  0  0  0  0  # atno 17395 bound_to 11000

$$$$
