AV-unprocessed.smi:2423|AV-procd|sdf|9558|dock4
  -GOLD-   2272013193D 1   1.00000     0.00000
 Structure written by MMmdl.
 37 39  0  0  0  0  0  0  0  0  1 V2000
  144.7056  136.7051  152.4818 O   0  0  0  0  0  0  0  0  0  0  0  0
  145.9039  136.5680  152.2463 C   0  0  0  0  0  0  0  0  0  0  0  0
  146.7940  137.5091  152.6054 N   0  0  0  0  0  0  0  0  0  0  0  0
  146.5219  138.7823  153.2733 C   0  0  0  0  0  0  0  0  0  0  0  0
  147.6269  139.1573  154.2788 C   0  0  0  0  0  0  0  0  0  0  0  0
  148.2894  140.4434  153.7745 C   0  0  0  0  0  0  0  0  0  0  0  0
  149.0683  141.4045  154.6425 C   0  0  0  0  0  0  0  0  0  0  0  0
  147.7139  141.8018  154.0866 C   0  0  0  0  0  0  0  0  0  0  0  0
  147.1653  139.1032  155.7566 C   0  0  0  0  0  0  0  0  0  0  0  0
  147.6893  137.6705  155.8443 C   0  0  0  0  0  0  0  0  0  0  0  0
  148.5968  138.0191  154.6658 C   0  0  0  0  0  0  0  0  0  0  0  0
  146.4551  135.4957  151.6441 N   0  0  0  0  0  0  0  0  0  0  0  0
  145.8258  134.3247  151.1405 C   0  0  0  0  0  0  0  0  0  0  0  0
  144.5740  134.3124  150.4787 C   0  0  0  0  0  0  0  0  0  0  0  0
  144.0698  133.0819  150.0120 C   0  0  0  0  0  0  0  0  0  0  0  0
  144.7211  131.9082  150.1546 N   0  0  0  0  0  0  0  0  0  0  0  0
  145.9197  131.9255  150.7749 C   0  0  0  0  0  0  0  0  0  0  0  0
  146.5132  133.1003  151.2787 C   0  0  0  0  0  0  0  0  0  0  0  0
  147.7226  133.0482  151.8881 F   0  0  0  0  0  0  0  0  0  0  0  0
  147.7646  137.3165  152.4037 H   0  0  0  0  0  0  0  0  0  0  0  0
  146.4185  139.5674  152.5222 H   0  0  0  0  0  0  0  0  0  0  0  0
  145.5548  138.7094  153.7732 H   0  0  0  0  0  0  0  0  0  0  0  0
  148.7125  140.3339  152.7777 H   0  0  0  0  0  0  0  0  0  0  0  0
  149.1405  141.2203  155.7108 H   0  0  0  0  0  0  0  0  0  0  0  0
  149.9440  141.8759  154.2010 H   0  0  0  0  0  0  0  0  0  0  0  0
  147.6925  142.5328  153.2811 H   0  0  0  0  0  0  0  0  0  0  0  0
  146.8818  141.8541  154.7857 H   0  0  0  0  0  0  0  0  0  0  0  0
  147.7030  139.7681  156.4309 H   0  0  0  0  0  0  0  0  0  0  0  0
  146.0885  139.1954  155.9022 H   0  0  0  0  0  0  0  0  0  0  0  0
  148.2141  137.4305  156.7694 H   0  0  0  0  0  0  0  0  0  0  0  0
  146.9354  136.9217  155.5969 H   0  0  0  0  0  0  0  0  0  0  0  0
  148.7013  137.2246  153.9262 H   0  0  0  0  0  0  0  0  0  0  0  0
  149.5730  138.3850  154.9890 H   0  0  0  0  0  0  0  0  0  0  0  0
  147.4631  135.4957  151.5877 H   0  0  0  0  0  0  0  0  0  0  0  0
  144.0004  135.2102  150.3096 H   0  0  0  0  0  0  0  0  0  0  0  0
  143.1176  133.0411  149.5038 H   0  0  0  0  0  0  0  0  0  0  0  0
  146.4227  130.9745  150.8711 H   0  0  0  0  0  0  0  0  0  0  0  0
  1  2  2  0  0  0  0
  2  3  1  0  0  0  0
  2 12  1  0  0  0  0
  3  4  1  0  0  0  0
  3 20  1  0  0  0  0
  4  5  1  0  0  0  0
  4 21  1  0  0  0  0
  4 22  1  0  0  0  0
  5 11  1  0  0  0  0
  5  6  1  0  0  0  0
  5  9  1  0  0  0  0
  6  8  1  0  0  0  0
  6  7  1  0  0  0  0
  6 23  1  0  0  0  0
  7  8  1  0  0  0  0
  7 24  1  0  0  0  0
  7 25  1  0  0  0  0
  8 26  1  0  0  0  0
  8 27  1  0  0  0  0
  9 10  1  0  0  0  0
  9 28  1  0  0  0  0
  9 29  1  0  0  0  0
 10 11  1  0  0  0  0
 10 30  1  0  0  0  0
 10 31  1  0  0  0  0
 11 32  1  0  0  0  0
 11 33  1  0  0  0  0
 12 13  1  0  0  0  0
 12 34  1  0  0  0  0
 13 18  1  0  0  0  0
 13 14  2  0  0  0  0
 14 15  1  0  0  0  0
 14 35  1  0  0  0  0
 15 16  2  0  0  0  0
 15 36  1  0  0  0  0
 16 17  1  0  0  0  0
 17 18  2  0  0  0  0
 17 37  1  0  0  0  0
 18 19  1  0  0  0  0
M  END
> <s_m_source_file>
AV-unprocessed.smi

> <i_m_source_file_index>
2423

> <i_lp_mmshare_version>
43012

> <i_f3d_flags>
0

> <s_epik_input>
W0NIMl0xW0NIMl1bQ0hdMUMyKFtDSDJdW0NIMl1bQ0gyXTIpW0NIMl1bTkhdQyg9TylbTkhdYzNbY0hdW2NIXW5bY0hdYzNG

> <s_epik_cmdline>
J2VwaWtfcHl0aG9uJywgJy1waCcsICc3LjAnLCAnLXRuJywgJzgnLCAnLW1hJywgJzIwMCcsICctbWV0YWxfYmluZGluZycsICctaW1hZScsICc8aW5maWxlLm1hZT4nLCAnLW9tYWUnLCAnPG91dGZpbGUubWFlPic=

> <r_epik_Ionization_Penalty>
0.00332314

> <r_epik_Ionization_Penalty_Charging>
0

> <r_epik_Ionization_Penalty_Neutral>
0.00332314

> <r_epik_State_Penalty>
0.00231995

> <r_epik_Charging_Adjusted_Penalty>
0.00231995

> <i_epik_Tot_Q>
0

> <i_epik_Tot_abs_Q>
0

> <r_epik_Metal_State_Penalty>
-0

> <b_epik_Metal_Only>
0

> <s_lp_Force_Field>
OPLS_2005

> <r_lp_Energy>
40.5055

> <b_lp_Chiralities_Consistent>
1

> <s_lp_Variant>
AV-unprocessed.smi:2423-1

> <Gold.Version>
5.8.1

> <Gold.Id.Protein>
6NUR|6NUR_protein|mol2

> <Gold.PLP.Fitness>
37.5913

> <Gold.PLP.PLP>
-29.6709

> <Gold.PLP.part.hbond>
-2.0000

> <Gold.PLP.part.metal>
0.0000

> <Gold.PLP.part.buried>
-1.5582

> <Gold.PLP.part.nonpolar>
-26.4047

> <Gold.PLP.part.repulsive>
0.4477

> <Gold.PLP.ligand.clash>
0.0000

> <Gold.PLP.ligand.torsion>
2.2626

> <Gold.PLP.Chemscore.Hbond>
1.9920

> <Gold.PLP.Chemscore.CHOScore>
1.5912

> <Gold.PLP.Chemscore.Metal>
0.0000

> <Gold.Chemscore.Hbonds>
donor molecule, donor type, donor heavy atom, donor atom, acceptor molecule, acceptor atom, score
      L1  H     3    20       P1  7948  0.99
      L1  H    12    34       P1  7948  1.00
      L1  C    15    36       P1 10186  1.00
      L1  C    17    37       P1 10747  0.60

> <Gold.PLP.Chemscore.Internal.Correction>
1.6960

> <Gold.Rescore>
     Score         DG    S(hbond)    S(metal)    S(lipo)     H(rot)  DE(clash)    DE(int)     intcor
     14.40     -16.77       1.92        0.00      72.18       1.40       0.10       2.27       ----

> <Gold.Chemscore.Fitness>
14.3964

> <Gold.Chemscore.DG>
-16.7666

> <Gold.Chemscore.ZeroCoef>
-5.4800

> <Gold.Chemscore.Hbond>
1.9230

> <Gold.Chemscore.Metal>
0.0000

> <Gold.Chemscore.Lipo>
72.1797

> <Gold.Chemscore.Internal_Hbond>
0.0000

> <Gold.Chemscore.DEClash>
0.1021

> <Gold.Chemscore.DEInternal>
2.2680

> <Gold.Chemscore.Rot>
1.3990

> <Gold.Chemscore.Internal.Correction>
   9.000000E+99

> <Gold.Chemscore.Hbonds>
donor molecule, donor type, donor heavy atom, donor atom, acceptor molecule, acceptor atom, score
      L1  H     3    20       P1  7948  0.93
      L1  H    12    34       P1  7948  0.92

> <Gold.Chemscore.Hbond.Weighted>
-6.4230

> <Gold.Chemscore.Metal.Weighted>
-0.0000

> <Gold.Chemscore.Lipo.Weighted>
-8.4450

> <Gold.Chemscore.Internal_Hbond.Weighted>
0.0000

> <Gold.Chemscore.DEClash.Weighted>
0.1021

> <Gold.Chemscore.DEInternal.Weighted>
2.2680

> <Gold.Chemscore.Rot.Weighted>
3.5814

> <Gold.Chemscore.Internal.Correction.Weighted>
   9.000000E+99

> <Gold.Protein.RotatedTorsions>
[ 6907 6896 6895 6894 ] final   98.95 input  -60.11 | X-H torsion
[ 7974 7965 7964 7962 ] final   41.20 input  175.53 | X-H torsion
[ 8008 7997 7996 7995 ] final -139.96 input   59.86 | X-H torsion
[ 10167 10162 10161 10158 ] final  174.16 input  -65.29 | X-H torsion
[ 10718 10713 10712 10709 ] final   72.68 input   66.30 | X-H torsion
[ 10763 10752 10751 10750 ] final   55.50 input  -60.55 | X-H torsion
[ 11005 11000 10999 10996 ] final   43.13 input  -57.11 | X-H torsion

> <Gold.Protein.ActiveResidues>
 VAL166  LYS551  ARG553  GLY616  TRP617  ASP618  TYR619  PRO620  LYS621  CYS622 
 ASP623  PHE694  ASN695  SER759  ASP760  ASP761  ALA762  ILE779  LEU786  VAL792 
 PHE793  MET794  SER795  GLU796  ALA797  LYS798  CYS799  TRP800  GLU811  SER814 

> <Gold.Protein.RotatedAtoms>
  152.5400  134.0503  159.8106 H   0  0  0  0  0  0  0  0  0  0  0  0  # atno 6907 bound_to 6896
  151.0646  133.5508  159.2639 H   0  0  0  0  0  0  0  0  0  0  0  0  # atno 6908 bound_to 6896
  151.2394  135.0591  159.9073 H   0  0  0  0  0  0  0  0  0  0  0  0  # atno 6909 bound_to 6896
  146.0842  139.5443  142.9517 H   0  0  0  0  0  0  0  0  0  0  0  0  # atno 7974 bound_to 7965
  155.4535  140.0540  157.2998 H   0  0  0  0  0  0  0  0  0  0  0  0  # atno 8008 bound_to 7997
  154.4767  140.2064  155.9817 H   0  0  0  0  0  0  0  0  0  0  0  0  # atno 8009 bound_to 7997
  156.1143  140.3199  155.8121 H   0  0  0  0  0  0  0  0  0  0  0  0  # atno 8010 bound_to 7997
  139.5132  144.3178  152.0231 H   0  0  0  0  0  0  0  0  0  0  0  0  # atno 10167 bound_to 10162
  157.6512  130.9591  150.0963 H   0  0  0  0  0  0  0  0  0  0  0  0  # atno 10718 bound_to 10713
  152.9818  135.5709  154.5076 H   0  0  0  0  0  0  0  0  0  0  0  0  # atno 10763 bound_to 10752
  154.4585  135.2780  155.1732 H   0  0  0  0  0  0  0  0  0  0  0  0  # atno 10764 bound_to 10752
  154.3329  135.6245  153.5613 H   0  0  0  0  0  0  0  0  0  0  0  0  # atno 10765 bound_to 10752
  140.1674  134.4265  155.8278 H   0  0  0  0  0  0  0  0  0  0  0  0  # atno 11005 bound_to 11000
  145.6160  141.0331  143.1940 LP  0  0  0  0  0  0  0  0  0  0  0  0  # atno 17320 bound_to 7965
  144.7314  139.7713  143.7345 LP  0  0  0  0  0  0  0  0  0  0  0  0  # atno 17321 bound_to 7965
  140.2621  144.4056  150.6182 LP  0  0  0  0  0  0  0  0  0  0  0  0  # atno 17342 bound_to 10162
  140.6150  143.2172  151.6811 LP  0  0  0  0  0  0  0  0  0  0  0  0  # atno 17343 bound_to 10162
  156.1898  130.3654  149.8925 LP  0  0  0  0  0  0  0  0  0  0  0  0  # atno 17370 bound_to 10713
  156.6856  130.8875  151.3581 LP  0  0  0  0  0  0  0  0  0  0  0  0  # atno 17371 bound_to 10713
  141.2215  133.6940  156.7703 LP  0  0  0  0  0  0  0  0  0  0  0  0  # atno 17394 bound_to 11000
  140.2417  134.8608  157.3580 LP  0  0  0  0  0  0  0  0  0  0  0  0  # atno 17395 bound_to 11000

$$$$
