AV-unprocessed.smi:249|AV-procd|sdf|1901|dock6
  -GOLD-   2262020573D 1   1.00000     0.00000
 Structure written by MMmdl.
 64 67  0  0  0  0  0  0  0  0  2 V2000
  145.9446  131.8122  150.5157 C   0  0  0  0  0  0  0  0  0  0  0  0
  146.3226  130.9923  151.7581 C   0  0  0  0  0  0  0  0  0  0  0  0
  147.4143  131.6069  152.5614 N   0  3  1  0  0  0  0  0  0  0  0  0
  147.0928  133.0029  152.9636 C   0  0  0  0  0  0  0  0  0  0  0  0
  148.3100  133.7058  153.5844 C   0  0  0  0  0  0  0  0  0  0  0  0
  148.8581  132.8975  154.7762 C   0  0  2  0  0  0  0  0  0  0  0  0
  149.9664  133.5560  155.4820 N   0  0  0  0  0  0  0  0  0  0  0  0
  150.9813  132.7075  156.0977 C   0  0  0  0  0  0  0  0  0  0  0  0
  149.8479  134.7830  156.0561 C   0  0  0  0  0  0  0  0  0  0  0  0
  149.1608  134.9343  157.2187 N   0  0  0  0  0  0  0  0  0  0  0  0
  149.0627  136.1347  157.7974 C   0  0  0  0  0  0  0  0  0  0  0  0
  149.5699  137.2996  157.3919 N   0  0  0  0  0  0  0  0  0  0  0  0
  150.2637  137.1574  156.2272 C   0  0  0  0  0  0  0  0  0  0  0  0
  150.4516  135.9473  155.5006 C   0  0  0  0  0  0  0  0  0  0  0  0
  151.2069  136.1942  154.3600 N   0  0  0  0  0  0  0  0  0  0  0  0
  151.4564  137.4740  154.4121 C   0  0  0  0  0  0  0  0  0  0  0  0
  150.9339  138.1286  155.5037 N   0  0  0  0  0  0  0  0  0  0  0  0
  151.0630  139.5439  155.8044 C   0  0  0  0  0  0  0  0  0  0  0  0
  149.7002  140.2435  156.0331 C   0  0  2  0  0  0  0  0  0  0  0  0
  148.8896  140.4113  154.7246 C   0  0  0  0  0  0  0  0  0  0  0  0
  149.6964  140.9089  153.6770 O   0  0  0  0  0  0  0  0  0  0  0  0
  149.8647  141.5813  156.7978 C   0  0  2  0  0  0  0  0  0  0  0  0
  151.1101  142.3726  156.4385 C   0  0  0  0  0  0  0  0  0  0  0  0
  151.2386  143.3244  157.6222 C   0  0  0  0  0  0  0  0  0  0  0  0
  150.7390  142.6083  158.7454 O   0  0  0  0  0  0  0  0  0  0  0  0
  150.0566  141.4358  158.3114 C   0  0  0  0  0  0  0  0  0  0  0  0
  149.1581  131.4468  154.3403 C   0  0  0  0  0  0  0  0  0  0  0  0
  147.9290  130.7741  153.6940 C   0  0  1  0  0  0  0  0  0  0  0  0
  146.8494  130.4022  154.7336 C   0  0  0  0  0  0  0  0  0  0  0  0
  145.0548  131.3973  150.0416 H   0  0  0  0  0  0  0  0  0  0  0  0
  146.7361  131.8071  149.7665 H   0  0  0  0  0  0  0  0  0  0  0  0
  145.7267  132.8485  150.7752 H   0  0  0  0  0  0  0  0  0  0  0  0
  145.4342  130.9194  152.3868 H   0  0  0  0  0  0  0  0  0  0  0  0
  146.5762  129.9692  151.4804 H   0  0  0  0  0  0  0  0  0  0  0  0
  146.7714  133.5703  152.0893 H   0  0  0  0  0  0  0  0  0  0  0  0
  146.2536  133.0088  153.6598 H   0  0  0  0  0  0  0  0  0  0  0  0
  149.0715  133.8339  152.8162 H   0  0  0  0  0  0  0  0  0  0  0  0
  148.0253  134.7084  153.9044 H   0  0  0  0  0  0  0  0  0  0  0  0
  148.0576  132.8401  155.5142 H   0  0  0  0  0  0  0  0  0  0  0  0
  151.9520  132.8840  155.6349 H   0  0  0  0  0  0  0  0  0  0  0  0
  150.7434  131.6510  155.9729 H   0  0  0  0  0  0  0  0  0  0  0  0
  151.0690  132.9024  157.1675 H   0  0  0  0  0  0  0  0  0  0  0  0
  148.4993  136.1663  158.7184 H   0  0  0  0  0  0  0  0  0  0  0  0
  152.0356  137.9795  153.6529 H   0  0  0  0  0  0  0  0  0  0  0  0
  151.6934  139.6323  156.6891 H   0  0  0  0  0  0  0  0  0  0  0  0
  151.6056  140.0282  154.9918 H   0  0  0  0  0  0  0  0  0  0  0  0
  149.1122  139.5826  156.6717 H   0  0  0  0  0  0  0  0  0  0  0  0
  148.4519  139.4640  154.4097 H   0  0  0  0  0  0  0  0  0  0  0  0
  148.0514  141.0922  154.8715 H   0  0  0  0  0  0  0  0  0  0  0  0
  149.9455  140.1875  153.1197 H   0  0  0  0  0  0  0  0  0  0  0  0
  148.9948  142.2153  156.6180 H   0  0  0  0  0  0  0  0  0  0  0  0
  151.9803  141.7161  156.3906 H   0  0  0  0  0  0  0  0  0  0  0  0
  151.0269  142.9012  155.4887 H   0  0  0  0  0  0  0  0  0  0  0  0
  152.2648  143.6552  157.7824 H   0  0  0  0  0  0  0  0  0  0  0  0
  150.6172  144.2076  157.4687 H   0  0  0  0  0  0  0  0  0  0  0  0
  149.1113  141.3153  158.8413 H   0  0  0  0  0  0  0  0  0  0  0  0
  150.6839  140.5733  158.5413 H   0  0  0  0  0  0  0  0  0  0  0  0
  149.9726  131.4211  153.6175 H   0  0  0  0  0  0  0  0  0  0  0  0
  149.4977  130.8620  155.1960 H   0  0  0  0  0  0  0  0  0  0  0  0
  148.2956  129.8377  153.2747 H   0  0  0  0  0  0  0  0  0  0  0  0
  147.2836  129.8190  155.5462 H   0  0  0  0  0  0  0  0  0  0  0  0
  146.0615  129.7893  154.2968 H   0  0  0  0  0  0  0  0  0  0  0  0
  146.3804  131.2780  155.1805 H   0  0  0  0  0  0  0  0  0  0  0  0
  148.1925  131.6940  151.9232 H   0  0  0  0  0  0  0  0  0  0  0  0
  1  2  1  0  0  0  0
  1 30  1  0  0  0  0
  1 31  1  0  0  0  0
  1 32  1  0  0  0  0
  2  3  1  0  0  0  0
  2 33  1  0  0  0  0
  2 34  1  0  0  0  0
  3 28  1  0  0  0  0
  3  4  1  0  0  0  0
  3 64  1  0  0  0  0
  4  5  1  0  0  0  0
  4 35  1  0  0  0  0
  4 36  1  0  0  0  0
  5  6  1  0  0  0  0
  5 37  1  0  0  0  0
  5 38  1  0  0  0  0
  6  7  1  0  0  0  0
  6 27  1  0  0  0  0
  6 39  1  0  0  0  0
  7  8  1  0  0  0  0
  7  9  1  0  0  0  0
  8 40  1  0  0  0  0
  8 41  1  0  0  0  0
  8 42  1  0  0  0  0
  9 14  1  0  0  0  0
  9 10  2  0  0  0  0
 10 11  1  0  0  0  0
 11 12  2  0  0  0  0
 11 43  1  0  0  0  0
 12 13  1  0  0  0  0
 13 17  1  0  0  0  0
 13 14  2  0  0  0  0
 14 15  1  0  0  0  0
 15 16  2  0  0  0  0
 16 17  1  0  0  0  0
 16 44  1  0  0  0  0
 17 18  1  0  0  0  0
 18 19  1  0  0  0  0
 18 45  1  0  0  0  0
 18 46  1  0  0  0  0
 19 20  1  0  0  0  0
 19 22  1  0  0  0  0
 19 47  1  0  0  0  0
 20 21  1  0  0  0  0
 20 48  1  0  0  0  0
 20 49  1  0  0  0  0
 21 50  1  0  0  0  0
 22 26  1  0  0  0  0
 22 23  1  0  0  0  0
 22 51  1  0  0  0  0
 23 24  1  0  0  0  0
 23 52  1  0  0  0  0
 23 53  1  0  0  0  0
 24 25  1  0  0  0  0
 24 54  1  0  0  0  0
 24 55  1  0  0  0  0
 25 26  1  0  0  0  0
 26 56  1  0  0  0  0
 26 57  1  0  0  0  0
 27 28  1  0  0  0  0
 27 58  1  0  0  0  0
 27 59  1  0  0  0  0
 28 29  1  0  0  0  0
 28 60  1  0  0  0  0
 29 61  1  0  0  0  0
 29 62  1  0  0  0  0
 29 63  1  0  0  0  0
M  CHG  1   3   1
M  END
> <s_m_source_file>
AV-unprocessed.smi

> <i_m_source_file_index>
249

> <i_lp_mmshare_version>
43012

> <i_f3d_flags>
0

> <s_epik_input>
W0NIM11bQ0gyXU4xW0NIMl1bQ0gyXVtDQEhdKFtDSDJdW0NASF0xW0NIM10pTihbQ0gzXSljKG5bY0hdbjIpYyhjMjMpbltjSF1uM1tDSDJdW0NASF0oW0NIMl1bT0hdKVtDQEBIXTRbQ0gyXVtDSDJdT1tDSDJdNA==

> <s_epik_cmdline>
J2VwaWtfcHl0aG9uJywgJy1waCcsICc3LjAnLCAnLXRuJywgJzgnLCAnLW1hJywgJzIwMCcsICctbWV0YWxfYmluZGluZycsICctaW1hZScsICc8aW5maWxlLm1hZT4nLCAnLW9tYWUnLCAnPG91dGZpbGUubWFlPic=

> <r_lp_tautomer_probability>
1

> <r_epik_Ionization_Penalty>
0.00294688

> <r_epik_Ionization_Penalty_Charging>
0.00169971

> <r_epik_Ionization_Penalty_Neutral>
0.00124717

> <r_epik_State_Penalty>
-0

> <r_epik_Charging_Adjusted_Penalty>
0.00169971

> <i_epik_Tot_Q>
1

> <i_epik_Tot_abs_Q>
1

> <r_epik_Metal_State_Penalty>
-0

> <b_epik_Metal_Only>
0

> <s_lp_Force_Field>
OPLS_2005

> <r_lp_Energy>
54.0004

> <b_lp_Chiralities_Consistent>
1

> <s_lp_Variant>
AV-unprocessed.smi:249-4

> <Gold.Version>
5.8.1

> <Gold.Id.Protein>
6NUR|6NUR_protein|mol2

> <Gold.PLP.Fitness>
47.9041

> <Gold.PLP.PLP>
-42.0662

> <Gold.PLP.part.hbond>
-5.0000

> <Gold.PLP.part.metal>
0.0000

> <Gold.PLP.part.buried>
-4.1166

> <Gold.PLP.part.nonpolar>
-35.6272

> <Gold.PLP.part.repulsive>
2.2302

> <Gold.PLP.ligand.clash>
0.0000

> <Gold.PLP.ligand.torsion>
2.6563

> <Gold.PLP.Chemscore.Hbond>
3.3400

> <Gold.PLP.Chemscore.CHOScore>
0.0000

> <Gold.PLP.Chemscore.Metal>
0.0000

> <Gold.Chemscore.Hbonds>
donor molecule, donor type, donor heavy atom, donor atom, acceptor molecule, acceptor atom, score
      L1  H     3    64       P1 10747  0.85
      L1  H    21    50       P1  7957  0.53
      P1  H  8011  8017       L1    21  0.95
      P1  H 10752 10764       L1    15  0.90

> <Gold.PLP.Chemscore.Internal.Correction>
1.1306

> <Gold.Rescore>
     Score         DG    S(hbond)    S(metal)    S(lipo)     H(rot)  DE(clash)    DE(int)     intcor
     12.85     -16.73       1.86        0.00     101.09       2.65       1.31       2.56       ----

> <Gold.Chemscore.Fitness>
12.8536

> <Gold.Chemscore.DG>
-16.7280

> <Gold.Chemscore.ZeroCoef>
-5.4800

> <Gold.Chemscore.Hbond>
1.8589

> <Gold.Chemscore.Metal>
0.0000

> <Gold.Chemscore.Lipo>
101.0863

> <Gold.Chemscore.Internal_Hbond>
0.0000

> <Gold.Chemscore.DEClash>
1.3113

> <Gold.Chemscore.DEInternal>
2.5631

> <Gold.Chemscore.Rot>
2.6515

> <Gold.Chemscore.Internal.Correction>
   9.000000E+99

> <Gold.Chemscore.Hbonds>
donor molecule, donor type, donor heavy atom, donor atom, acceptor molecule, acceptor atom, score
      L1  H     3    64       P1 10747  0.80
      L1  H    21    50       P1  7957  0.50
      P1  H  8011  8017       L1    21  0.19
      P1  H 10752 10764       L1    15  0.13

> <Gold.Chemscore.Hbond.Weighted>
-6.2089

> <Gold.Chemscore.Metal.Weighted>
-0.0000

> <Gold.Chemscore.Lipo.Weighted>
-11.8271

> <Gold.Chemscore.Internal_Hbond.Weighted>
0.0000

> <Gold.Chemscore.DEClash.Weighted>
1.3113

> <Gold.Chemscore.DEInternal.Weighted>
2.5631

> <Gold.Chemscore.Rot.Weighted>
6.7880

> <Gold.Chemscore.Internal.Correction.Weighted>
   9.000000E+99

> <Gold.Protein.RotatedTorsions>
[ 6907 6896 6895 6894 ] final -163.39 input  -60.11 | X-H torsion
[ 7974 7965 7964 7962 ] final  115.87 input  175.53 | X-H torsion
[ 8008 7997 7996 7995 ] final  155.86 input   59.86 | X-H torsion
[ 10167 10162 10161 10158 ] final  158.33 input  -65.29 | X-H torsion
[ 10718 10713 10712 10709 ] final  -45.05 input   66.30 | X-H torsion
[ 10763 10752 10751 10750 ] final  -57.97 input  -60.55 | X-H torsion
[ 11005 11000 10999 10996 ] final -106.10 input  -57.11 | X-H torsion

> <Gold.Protein.ActiveResidues>
 VAL166  LYS551  ARG553  GLY616  TRP617  ASP618  TYR619  PRO620  LYS621  CYS622 
 ASP623  PHE694  ASN695  SER759  ASP760  ASP761  ALA762  ILE779  LEU786  VAL792 
 PHE793  MET794  SER795  GLU796  ALA797  LYS798  CYS799  TRP800  GLU811  SER814 

> <Gold.Protein.RotatedAtoms>
  151.3952  133.3775  159.2725 H   0  0  0  0  0  0  0  0  0  0  0  0  # atno 6907 bound_to 6896
  150.9474  134.8879  159.7661 H   0  0  0  0  0  0  0  0  0  0  0  0  # atno 6908 bound_to 6896
  152.5097  134.3906  159.9435 H   0  0  0  0  0  0  0  0  0  0  0  0  # atno 6909 bound_to 6896
  145.1866  139.3022  143.4390 H   0  0  0  0  0  0  0  0  0  0  0  0  # atno 7974 bound_to 7965
  156.2455  140.1928  156.6866 H   0  0  0  0  0  0  0  0  0  0  0  0  # atno 8008 bound_to 7997
  154.6283  140.0599  156.9726 H   0  0  0  0  0  0  0  0  0  0  0  0  # atno 8009 bound_to 7997
  155.1752  140.3271  155.4388 H   0  0  0  0  0  0  0  0  0  0  0  0  # atno 8010 bound_to 7997
  139.4826  144.4834  151.8411 H   0  0  0  0  0  0  0  0  0  0  0  0  # atno 10167 bound_to 10162
  156.2323  130.4173  149.8859 H   0  0  0  0  0  0  0  0  0  0  0  0  # atno 10718 bound_to 10713
  154.2308  135.6361  153.5175 H   0  0  0  0  0  0  0  0  0  0  0  0  # atno 10763 bound_to 10752
  152.9949  135.5519  154.6014 H   0  0  0  0  0  0  0  0  0  0  0  0  # atno 10764 bound_to 10752
  154.5497  135.2900  155.0994 H   0  0  0  0  0  0  0  0  0  0  0  0  # atno 10765 bound_to 10752
  141.1021  133.8864  157.1815 H   0  0  0  0  0  0  0  0  0  0  0  0  # atno 11005 bound_to 11000
  146.3444  140.2064  142.8589 LP  0  0  0  0  0  0  0  0  0  0  0  0  # atno 17320 bound_to 7965
  145.0083  140.8692  143.5240 LP  0  0  0  0  0  0  0  0  0  0  0  0  # atno 17321 bound_to 7965
  140.4312  144.2113  150.5888 LP  0  0  0  0  0  0  0  0  0  0  0  0  # atno 17342 bound_to 10162
  140.4777  143.2390  151.8999 LP  0  0  0  0  0  0  0  0  0  0  0  0  # atno 17343 bound_to 10162
  156.6469  130.8728  151.3524 LP  0  0  0  0  0  0  0  0  0  0  0  0  # atno 17370 bound_to 10713
  157.7139  130.9473  150.1184 LP  0  0  0  0  0  0  0  0  0  0  0  0  # atno 17371 bound_to 10713
  139.9877  135.0076  156.9901 LP  0  0  0  0  0  0  0  0  0  0  0  0  # atno 17394 bound_to 11000
  140.4995  134.1112  155.7248 LP  0  0  0  0  0  0  0  0  0  0  0  0  # atno 17395 bound_to 11000

$$$$
