AV-unprocessed.smi:21|AV-procd|sdf|162|dock10
  -GOLD-   2262015403D 1   1.00000     0.00000
 Structure written by MMmdl.
 61 64  0  0  0  0  0  0  0  0  1 V2000
  151.8775  144.0779  159.5725 C   0  0  0  0  0  0  0  0  0  0  0  0
  151.0845  143.7863  158.4328 O   0  0  0  0  0  0  0  0  0  0  0  0
  150.7088  142.4196  158.3411 C   0  0  2  0  0  0  0  0  0  0  0  0
  151.9168  141.4674  158.2633 C   0  0  0  0  0  0  0  0  0  0  0  0
  151.7725  140.7664  156.9033 C   0  0  1  0  0  0  0  0  0  0  0  0
  152.3577  139.3367  156.8788 C   0  0  0  0  0  0  0  0  0  0  0  0
  152.3402  138.6836  158.1879 N   0  0  0  0  0  0  0  0  0  0  0  0
  151.0475  138.2572  158.7223 C   0  0  0  0  0  0  0  0  0  0  0  0
  153.4089  138.7731  159.0348 C   0  0  0  0  0  0  0  0  0  0  0  0
  154.1278  139.9293  159.0414 N   0  0  0  0  0  0  0  0  0  0  0  0
  155.1903  140.0778  159.8356 C   0  0  0  0  0  0  0  0  0  0  0  0
  155.7085  139.2089  160.7019 N   0  0  0  0  0  0  0  0  0  0  0  0
  154.9952  138.0482  160.7188 C   0  0  0  0  0  0  0  0  0  0  0  0
  153.8464  137.7450  159.9289 C   0  0  0  0  0  0  0  0  0  0  0  0
  153.4087  136.4604  160.2382 N   0  0  0  0  0  0  0  0  0  0  0  0
  154.2473  136.0303  161.1388 C   0  0  0  0  0  0  0  0  0  0  0  0
  155.2218  136.9294  161.5013 N   0  0  0  0  0  0  0  0  0  0  0  0
  156.2794  136.7184  162.4737 C   0  0  0  0  0  0  0  0  0  0  0  0
  155.8290  136.8314  163.9541 C   0  0  2  0  0  0  0  0  0  0  0  0
  154.6033  135.9172  164.1849 C   0  0  0  0  0  0  0  0  0  0  0  0
  154.9354  134.5511  164.0387 O   0  0  0  0  0  0  0  0  0  0  0  0
  155.5883  138.2902  164.4431 C   0  0  1  0  0  0  0  0  0  0  0  0
  155.6150  138.4676  165.9537 C   0  0  0  0  0  0  0  0  0  0  0  0
  155.8279  139.9667  166.0975 C   0  0  0  0  0  0  0  0  0  0  0  0
  156.7455  140.2870  165.0644 O   0  0  0  0  0  0  0  0  0  0  0  0
  156.6477  139.3226  164.0201 C   0  0  0  0  0  0  0  0  0  0  0  0
  150.3539  140.8417  156.5943 N   0  0  0  0  0  0  0  0  0  0  0  0
  150.0437  140.6037  155.1908 C   0  0  0  0  0  0  0  0  0  0  0  0
  149.9780  142.1759  157.0179 C   0  0  0  0  0  0  0  0  0  0  0  0
  150.0561  142.1372  159.1693 H   0  0  0  0  0  0  0  0  0  0  0  0
  152.3060  141.3771  156.1730 H   0  0  0  0  0  0  0  0  0  0  0  0
  152.1255  145.1392  159.5811 H   0  0  0  0  0  0  0  0  0  0  0  0
  152.8123  143.5167  159.5692 H   0  0  0  0  0  0  0  0  0  0  0  0
  151.3391  143.8530  160.4940 H   0  0  0  0  0  0  0  0  0  0  0  0
  152.8732  141.9864  158.3341 H   0  0  0  0  0  0  0  0  0  0  0  0
  151.8677  140.7493  159.0828 H   0  0  0  0  0  0  0  0  0  0  0  0
  151.7845  138.7343  156.1734 H   0  0  0  0  0  0  0  0  0  0  0  0
  153.3712  139.3252  156.4831 H   0  0  0  0  0  0  0  0  0  0  0  0
  151.1323  137.2836  159.2066 H   0  0  0  0  0  0  0  0  0  0  0  0
  150.3018  138.1653  157.9326 H   0  0  0  0  0  0  0  0  0  0  0  0
  150.6743  138.9773  159.4514 H   0  0  0  0  0  0  0  0  0  0  0  0
  155.6966  141.0293  159.7663 H   0  0  0  0  0  0  0  0  0  0  0  0
  154.1671  135.0455  161.5759 H   0  0  0  0  0  0  0  0  0  0  0  0
  156.7253  135.7403  162.2898 H   0  0  0  0  0  0  0  0  0  0  0  0
  157.0581  137.4529  162.2652 H   0  0  0  0  0  0  0  0  0  0  0  0
  156.6253  136.4134  164.5710 H   0  0  0  0  0  0  0  0  0  0  0  0
  154.1979  136.0707  165.1855 H   0  0  0  0  0  0  0  0  0  0  0  0
  153.7960  136.1588  163.4935 H   0  0  0  0  0  0  0  0  0  0  0  0
  155.0333  134.1714  164.8985 H   0  0  0  0  0  0  0  0  0  0  0  0
  154.6149  138.6310  164.0861 H   0  0  0  0  0  0  0  0  0  0  0  0
  154.7007  138.1306  166.4431 H   0  0  0  0  0  0  0  0  0  0  0  0
  156.4578  137.9290  166.3896 H   0  0  0  0  0  0  0  0  0  0  0  0
  154.8949  140.5051  165.9247 H   0  0  0  0  0  0  0  0  0  0  0  0
  156.2109  140.2484  167.0784 H   0  0  0  0  0  0  0  0  0  0  0  0
  157.6282  138.8619  163.8963 H   0  0  0  0  0  0  0  0  0  0  0  0
  156.3856  139.8163  163.0851 H   0  0  0  0  0  0  0  0  0  0  0  0
  148.9754  140.7250  155.0095 H   0  0  0  0  0  0  0  0  0  0  0  0
  150.3136  139.5900  154.8961 H   0  0  0  0  0  0  0  0  0  0  0  0
  150.5783  141.2999  154.5432 H   0  0  0  0  0  0  0  0  0  0  0  0
  148.8968  142.2784  157.1159 H   0  0  0  0  0  0  0  0  0  0  0  0
  150.3135  142.9055  156.2786 H   0  0  0  0  0  0  0  0  0  0  0  0
  1  2  1  0  0  0  0
  1 32  1  0  0  0  0
  1 33  1  0  0  0  0
  1 34  1  0  0  0  0
  2  3  1  0  0  0  0
  3 30  1  0  0  0  0
  3 29  1  0  0  0  0
  3  4  1  0  0  0  0
  4  5  1  0  0  0  0
  4 35  1  0  0  0  0
  4 36  1  0  0  0  0
  5 31  1  0  0  0  0
  5  6  1  0  0  0  0
  5 27  1  0  0  0  0
  6  7  1  0  0  0  0
  6 37  1  0  0  0  0
  6 38  1  0  0  0  0
  7  8  1  0  0  0  0
  7  9  1  0  0  0  0
  8 39  1  0  0  0  0
  8 40  1  0  0  0  0
  8 41  1  0  0  0  0
  9 14  1  0  0  0  0
  9 10  2  0  0  0  0
 10 11  1  0  0  0  0
 11 12  2  0  0  0  0
 11 42  1  0  0  0  0
 12 13  1  0  0  0  0
 13 17  1  0  0  0  0
 13 14  2  0  0  0  0
 14 15  1  0  0  0  0
 15 16  2  0  0  0  0
 16 17  1  0  0  0  0
 16 43  1  0  0  0  0
 17 18  1  0  0  0  0
 18 19  1  0  0  0  0
 18 44  1  0  0  0  0
 18 45  1  0  0  0  0
 19 20  1  0  0  0  0
 19 22  1  0  0  0  0
 19 46  1  0  0  0  0
 20 21  1  0  0  0  0
 20 47  1  0  0  0  0
 20 48  1  0  0  0  0
 21 49  1  0  0  0  0
 22 26  1  0  0  0  0
 22 23  1  0  0  0  0
 22 50  1  0  0  0  0
 23 24  1  0  0  0  0
 23 51  1  0  0  0  0
 23 52  1  0  0  0  0
 24 25  1  0  0  0  0
 24 53  1  0  0  0  0
 24 54  1  0  0  0  0
 25 26  1  0  0  0  0
 26 55  1  0  0  0  0
 26 56  1  0  0  0  0
 27 28  1  0  0  0  0
 27 29  1  0  0  0  0
 28 57  1  0  0  0  0
 28 58  1  0  0  0  0
 28 59  1  0  0  0  0
 29 60  1  0  0  0  0
 29 61  1  0  0  0  0
M  END
> <s_m_source_file>
AV-unprocessed.smi

> <i_m_source_file_index>
21

> <i_lp_mmshare_version>
43012

> <i_f3d_flags>
0

> <s_epik_input>
W0NIM11PW0NASF0xW0NIMl1bQ0BIXShOKFtDSDNdKVtDSDJdMSlbQ0gyXU4oW0NIM10pYyhuW2NIXW4yKWMoYzIzKW5bY0hdbjNbQ0gyXVtDQEhdKFtDSDJdW09IXSlbQ0BASF00W0NIMl1bQ0gyXU9bQ0gyXTQ=

> <s_epik_cmdline>
J2VwaWtfcHl0aG9uJywgJy1waCcsICc3LjAnLCAnLXRuJywgJzgnLCAnLW1hJywgJzIwMCcsICctbWV0YWxfYmluZGluZycsICctaW1hZScsICc8aW5maWxlLm1hZT4nLCAnLW9tYWUnLCAnPG91dGZpbGUubWFlPic=

> <r_lp_tautomer_probability>
1

> <r_epik_Ionization_Penalty>
2.17574

> <r_epik_Ionization_Penalty_Charging>
0

> <r_epik_Ionization_Penalty_Neutral>
2.17574

> <r_epik_State_Penalty>
2.31336

> <r_epik_Charging_Adjusted_Penalty>
2.31336

> <i_epik_Tot_Q>
0

> <i_epik_Tot_abs_Q>
0

> <r_epik_Metal_State_Penalty>
2.31025

> <b_epik_Metal_Only>
0

> <s_lp_Force_Field>
OPLS_2005

> <r_lp_Energy>
68.3176

> <b_lp_Chiralities_Consistent>
1

> <s_lp_Variant>
AV-unprocessed.smi:21-42

> <Gold.Version>
5.8.1

> <Gold.Id.Protein>
6NUR|6NUR_protein|mol2

> <Gold.PLP.Fitness>
43.7493

> <Gold.PLP.PLP>
-40.9952

> <Gold.PLP.part.hbond>
-2.9016

> <Gold.PLP.part.metal>
0.0000

> <Gold.PLP.part.buried>
-3.9151

> <Gold.PLP.part.nonpolar>
-34.1117

> <Gold.PLP.part.repulsive>
0.1607

> <Gold.PLP.ligand.clash>
0.0000

> <Gold.PLP.ligand.torsion>
1.9586

> <Gold.PLP.Chemscore.Hbond>
2.0000

> <Gold.PLP.Chemscore.CHOScore>
0.0000

> <Gold.PLP.Chemscore.Metal>
0.0000

> <Gold.Chemscore.Hbonds>
donor molecule, donor type, donor heavy atom, donor atom, acceptor molecule, acceptor atom, score
      P1  H  6896  6909       L1    15  1.00
      P1  H  7997  8009       L1    10  1.00

> <Gold.PLP.Chemscore.Internal.Correction>
0.6713

> <Gold.Rescore>
     Score         DG    S(hbond)    S(metal)    S(lipo)     H(rot)  DE(clash)    DE(int)     intcor
     12.11     -14.53       1.70        0.00      94.47       3.00       0.50       1.92       ----

> <Gold.Chemscore.Fitness>
12.1089

> <Gold.Chemscore.DG>
-14.5337

> <Gold.Chemscore.ZeroCoef>
-5.4800

> <Gold.Chemscore.Hbond>
1.7034

> <Gold.Chemscore.Metal>
0.0000

> <Gold.Chemscore.Lipo>
94.4653

> <Gold.Chemscore.Internal_Hbond>
0.0000

> <Gold.Chemscore.DEClash>
0.5048

> <Gold.Chemscore.DEInternal>
1.9200

> <Gold.Chemscore.Rot>
3.0031

> <Gold.Chemscore.Internal.Correction>
   9.000000E+99

> <Gold.Chemscore.Hbonds>
donor molecule, donor type, donor heavy atom, donor atom, acceptor molecule, acceptor atom, score
      P1  H  6896  6909       L1    15  0.39
      P1  H  7997  8009       L1    10  0.17

> <Gold.Chemscore.Hbond.Weighted>
-5.6893

> <Gold.Chemscore.Metal.Weighted>
-0.0000

> <Gold.Chemscore.Lipo.Weighted>
-11.0524

> <Gold.Chemscore.Internal_Hbond.Weighted>
0.0000

> <Gold.Chemscore.DEClash.Weighted>
0.5048

> <Gold.Chemscore.DEInternal.Weighted>
1.9200

> <Gold.Chemscore.Rot.Weighted>
7.6880

> <Gold.Chemscore.Internal.Correction.Weighted>
   9.000000E+99

> <Gold.Protein.RotatedTorsions>
[ 6907 6896 6895 6894 ] final  154.25 input  -60.11 | X-H torsion
[ 7974 7965 7964 7962 ] final -147.04 input  175.53 | X-H torsion
[ 8008 7997 7996 7995 ] final  131.81 input   59.86 | X-H torsion
[ 10167 10162 10161 10158 ] final   25.10 input  -65.29 | X-H torsion
[ 10718 10713 10712 10709 ] final  104.07 input   66.30 | X-H torsion
[ 10763 10752 10751 10750 ] final  141.55 input  -60.55 | X-H torsion
[ 11005 11000 10999 10996 ] final   80.51 input  -57.11 | X-H torsion

> <Gold.Protein.ActiveResidues>
 VAL166  LYS551  ARG553  GLY616  TRP617  ASP618  TYR619  PRO620  LYS621  CYS622 
 ASP623  PHE694  ASN695  SER759  ASP760  ASP761  ALA762  ILE779  LEU786  VAL792 
 PHE793  MET794  SER795  GLU796  ALA797  LYS798  CYS799  TRP800  GLU811  SER814 

> <Gold.Protein.RotatedAtoms>
  152.0612  133.4063  159.4418 H   0  0  0  0  0  0  0  0  0  0  0  0  # atno 6907 bound_to 6896
  150.6866  134.3198  159.4791 H   0  0  0  0  0  0  0  0  0  0  0  0  # atno 6908 bound_to 6896
  152.1019  134.9335  160.0620 H   0  0  0  0  0  0  0  0  0  0  0  0  # atno 6909 bound_to 6896
  144.8119  140.5378  143.5636 H   0  0  0  0  0  0  0  0  0  0  0  0  # atno 7974 bound_to 7965
  156.2975  140.2562  156.2987 H   0  0  0  0  0  0  0  0  0  0  0  0  # atno 8008 bound_to 7997
  154.9439  140.0395  157.2129 H   0  0  0  0  0  0  0  0  0  0  0  0  # atno 8009 bound_to 7997
  154.8100  140.2842  155.5864 H   0  0  0  0  0  0  0  0  0  0  0  0  # atno 8010 bound_to 7997
  140.5134  144.0123  150.6383 H   0  0  0  0  0  0  0  0  0  0  0  0  # atno 10167 bound_to 10162
  157.6752  131.0794  150.5650 H   0  0  0  0  0  0  0  0  0  0  0  0  # atno 10718 bound_to 10713
  153.9411  135.2980  155.3442 H   0  0  0  0  0  0  0  0  0  0  0  0  # atno 10763 bound_to 10752
  154.7476  135.4995  153.9235 H   0  0  0  0  0  0  0  0  0  0  0  0  # atno 10764 bound_to 10752
  153.1042  135.6742  153.9724 H   0  0  0  0  0  0  0  0  0  0  0  0  # atno 10765 bound_to 10752
  139.9132  134.7926  156.1919 H   0  0  0  0  0  0  0  0  0  0  0  0  # atno 11005 bound_to 11000
  145.5303  139.1475  143.3503 LP  0  0  0  0  0  0  0  0  0  0  0  0  # atno 17320 bound_to 7965
  146.2419  140.5444  142.8930 LP  0  0  0  0  0  0  0  0  0  0  0  0  # atno 17321 bound_to 7965
  140.3452  143.2996  152.0546 LP  0  0  0  0  0  0  0  0  0  0  0  0  # atno 17342 bound_to 10162
  139.4902  144.6414  151.6869 LP  0  0  0  0  0  0  0  0  0  0  0  0  # atno 17343 bound_to 10162
  156.5952  130.4340  149.5920 LP  0  0  0  0  0  0  0  0  0  0  0  0  # atno 17370 bound_to 10713
  156.2550  130.6929  151.1680 LP  0  0  0  0  0  0  0  0  0  0  0  0  # atno 17371 bound_to 10713
  141.0578  133.6856  156.1894 LP  0  0  0  0  0  0  0  0  0  0  0  0  # atno 17394 bound_to 11000
  140.6709  134.4869  157.5587 LP  0  0  0  0  0  0  0  0  0  0  0  0  # atno 17395 bound_to 11000

$$$$
