AV-unprocessed.smi:916|AV-procd|sdf|4159|dock8
  -GOLD-   22720 2 63D 1   1.00000     0.00000
 Structure written by MMmdl.
 43 44  0  0  0  0  0  0  0  0  1 V2000
  143.7596  132.8534  148.5429 C   0  0  0  0  0  0  0  0  0  0  0  0
  144.5132  132.4797  149.8242 C   0  0  0  0  0  0  0  0  0  0  0  0
  144.4983  133.5849  150.8363 C   0  0  0  0  0  0  0  0  0  0  0  0
  143.4112  134.0469  151.5374 C   0  0  0  0  0  0  0  0  0  0  0  0
  143.8333  135.3499  152.6159 S   0  0  0  0  0  0  0  0  0  0  0  0
  145.4948  135.2182  152.0616 C   0  0  0  0  0  0  0  0  0  0  0  0
  146.5225  136.0603  152.5609 N   0  0  0  0  0  0  0  0  0  0  0  0
  146.4311  137.0088  153.5095 C   0  0  0  0  0  0  0  0  0  0  0  0
  145.4082  137.3004  154.1300 O   0  0  0  0  0  0  0  0  0  0  0  0
  147.6104  137.6127  153.7078 N   0  0  0  0  0  0  0  0  0  0  0  0
  147.8326  138.6896  154.6647 C   0  0  0  0  0  0  0  0  0  0  0  0
  148.4266  139.9408  153.9777 C   0  0  1  0  0  0  0  0  0  0  0  0
  147.3607  140.9630  153.6047 C   0  0  0  0  0  0  0  0  0  0  0  0
  147.2219  141.8136  154.8695 C   0  0  0  0  0  0  0  0  0  0  0  0
  148.3677  141.5270  155.6662 O   0  0  0  0  0  0  0  0  0  0  0  0
  149.3151  140.8078  154.8873 C   0  0  1  0  0  0  0  0  0  0  0  0
  150.3477  140.0820  155.7798 C   0  0  0  0  0  0  0  0  0  0  0  0
  151.2071  141.0901  156.5599 C   0  0  0  0  0  0  0  0  0  0  0  0
  151.2530  139.1467  154.9600 C   0  0  0  0  0  0  0  0  0  0  0  0
  145.6824  134.2612  151.1460 N   0  0  0  0  0  0  0  0  0  0  0  0
  143.7805  132.0320  147.8265 H   0  0  0  0  0  0  0  0  0  0  0  0
  144.2064  133.7246  148.0629 H   0  0  0  0  0  0  0  0  0  0  0  0
  142.7154  133.0859  148.7538 H   0  0  0  0  0  0  0  0  0  0  0  0
  144.0710  131.5778  150.2490 H   0  0  0  0  0  0  0  0  0  0  0  0
  145.5418  132.2178  149.5736 H   0  0  0  0  0  0  0  0  0  0  0  0
  142.3899  133.6999  151.4846 H   0  0  0  0  0  0  0  0  0  0  0  0
  147.4333  135.9240  152.1479 H   0  0  0  0  0  0  0  0  0  0  0  0
  148.4033  137.3144  153.1592 H   0  0  0  0  0  0  0  0  0  0  0  0
  146.8945  138.9390  155.1637 H   0  0  0  0  0  0  0  0  0  0  0  0
  148.5102  138.3150  155.4318 H   0  0  0  0  0  0  0  0  0  0  0  0
  148.9805  139.6267  153.0920 H   0  0  0  0  0  0  0  0  0  0  0  0
  147.7254  141.5861  152.7868 H   0  0  0  0  0  0  0  0  0  0  0  0
  146.4135  140.5285  153.2845 H   0  0  0  0  0  0  0  0  0  0  0  0
  147.1727  142.8762  154.6305 H   0  0  0  0  0  0  0  0  0  0  0  0
  146.3250  141.5493  155.4301 H   0  0  0  0  0  0  0  0  0  0  0  0
  149.8414  141.5352  154.2654 H   0  0  0  0  0  0  0  0  0  0  0  0
  149.8158  139.4806  156.5172 H   0  0  0  0  0  0  0  0  0  0  0  0
  151.7652  141.7412  155.8865 H   0  0  0  0  0  0  0  0  0  0  0  0
  151.9261  140.5800  157.2015 H   0  0  0  0  0  0  0  0  0  0  0  0
  150.5930  141.7228  157.2012 H   0  0  0  0  0  0  0  0  0  0  0  0
  151.8145  139.7012  154.2075 H   0  0  0  0  0  0  0  0  0  0  0  0
  150.6790  138.3776  154.4439 H   0  0  0  0  0  0  0  0  0  0  0  0
  151.9724  138.6368  155.6009 H   0  0  0  0  0  0  0  0  0  0  0  0
  1  2  1  0  0  0  0
  1 21  1  0  0  0  0
  1 22  1  0  0  0  0
  1 23  1  0  0  0  0
  2  3  1  0  0  0  0
  2 24  1  0  0  0  0
  2 25  1  0  0  0  0
  3 20  1  0  0  0  0
  3  4  2  0  0  0  0
  4  5  1  0  0  0  0
  4 26  1  0  0  0  0
  5  6  1  0  0  0  0
  6  7  1  0  0  0  0
  6 20  2  0  0  0  0
  7  8  1  0  0  0  0
  7 27  1  0  0  0  0
  8  9  2  0  0  0  0
  8 10  1  0  0  0  0
 10 11  1  0  0  0  0
 10 28  1  0  0  0  0
 11 12  1  0  0  0  0
 11 29  1  0  0  0  0
 11 30  1  0  0  0  0
 12 16  1  0  0  0  0
 12 13  1  0  0  0  0
 12 31  1  0  0  0  0
 13 14  1  0  0  0  0
 13 32  1  0  0  0  0
 13 33  1  0  0  0  0
 14 15  1  0  0  0  0
 14 34  1  0  0  0  0
 14 35  1  0  0  0  0
 15 16  1  0  0  0  0
 16 17  1  0  0  0  0
 16 36  1  0  0  0  0
 17 18  1  0  0  0  0
 17 19  1  0  0  0  0
 17 37  1  0  0  0  0
 18 38  1  0  0  0  0
 18 39  1  0  0  0  0
 18 40  1  0  0  0  0
 19 41  1  0  0  0  0
 19 42  1  0  0  0  0
 19 43  1  0  0  0  0
M  END
> <s_m_source_file>
AV-unprocessed.smi

> <i_m_source_file_index>
916

> <i_lp_mmshare_version>
43012

> <i_f3d_flags>
0

> <s_epik_input>
W0NIM11bQ0gyXWMxW2NIXXNjKG4xKVtOSF1DKD1PKVtOSF1bQ0gyXVtDQEBIXTJbQ0gyXVtDSDJdT1tDQEhdMltDSF0oW0NIM10pW0NIM10=

> <s_epik_cmdline>
J2VwaWtfcHl0aG9uJywgJy1waCcsICc3LjAnLCAnLXRuJywgJzgnLCAnLW1hJywgJzIwMCcsICctbWV0YWxfYmluZGluZycsICctaW1hZScsICc8aW5maWxlLm1hZT4nLCAnLW9tYWUnLCAnPG91dGZpbGUubWFlPic=

> <r_lp_tautomer_probability>
0.999

> <r_epik_Ionization_Penalty>
0.000518907

> <r_epik_Ionization_Penalty_Charging>
0

> <r_epik_Ionization_Penalty_Neutral>
0.000518907

> <r_epik_State_Penalty>
0.000177984

> <r_epik_Charging_Adjusted_Penalty>
0.000177984

> <i_epik_Tot_Q>
0

> <i_epik_Tot_abs_Q>
0

> <r_epik_Metal_State_Penalty>
-0

> <b_epik_Metal_Only>
0

> <s_lp_Force_Field>
OPLS_2005

> <r_lp_Energy>
19.5432

> <b_lp_Chiralities_Consistent>
1

> <s_lp_Variant>
AV-unprocessed.smi:916-2

> <Gold.Version>
5.8.1

> <Gold.Id.Protein>
6NUR|6NUR_protein|mol2

> <Gold.PLP.Fitness>
42.9167

> <Gold.PLP.PLP>
-35.8846

> <Gold.PLP.part.hbond>
-1.9644

> <Gold.PLP.part.metal>
0.0000

> <Gold.PLP.part.buried>
-1.4815

> <Gold.PLP.part.nonpolar>
-32.5102

> <Gold.PLP.part.repulsive>
0.7704

> <Gold.PLP.ligand.clash>
0.0000

> <Gold.PLP.ligand.torsion>
0.5367

> <Gold.PLP.Chemscore.Hbond>
1.9280

> <Gold.PLP.Chemscore.CHOScore>
0.7508

> <Gold.PLP.Chemscore.Metal>
0.0000

> <Gold.Chemscore.Hbonds>
donor molecule, donor type, donor heavy atom, donor atom, acceptor molecule, acceptor atom, score
      L1  H     7    27       P1  7948  1.00
      L1  H    10    28       P1  7948  0.91
      L1  C     4    26       P1 10186  0.77

> <Gold.PLP.Chemscore.Internal.Correction>
0.0689

> <Gold.Rescore>
     Score         DG    S(hbond)    S(metal)    S(lipo)     H(rot)  DE(clash)    DE(int)     intcor
     16.00     -19.07       1.90        0.00      95.25       1.52       1.31       1.76       ----

> <Gold.Chemscore.Fitness>
15.9991

> <Gold.Chemscore.DG>
-19.0694

> <Gold.Chemscore.ZeroCoef>
-5.4800

> <Gold.Chemscore.Hbond>
1.9001

> <Gold.Chemscore.Metal>
0.0000

> <Gold.Chemscore.Lipo>
95.2469

> <Gold.Chemscore.Internal_Hbond>
0.0000

> <Gold.Chemscore.DEClash>
1.3119

> <Gold.Chemscore.DEInternal>
1.7584

> <Gold.Chemscore.Rot>
1.5238

> <Gold.Chemscore.Internal.Correction>
   9.000000E+99

> <Gold.Chemscore.Hbonds>
donor molecule, donor type, donor heavy atom, donor atom, acceptor molecule, acceptor atom, score
      L1  H     7    27       P1  7948  0.95
      L1  H    10    28       P1  7948  0.90

> <Gold.Chemscore.Hbond.Weighted>
-6.3463

> <Gold.Chemscore.Metal.Weighted>
-0.0000

> <Gold.Chemscore.Lipo.Weighted>
-11.1439

> <Gold.Chemscore.Internal_Hbond.Weighted>
0.0000

> <Gold.Chemscore.DEClash.Weighted>
1.3119

> <Gold.Chemscore.DEInternal.Weighted>
1.7584

> <Gold.Chemscore.Rot.Weighted>
3.9008

> <Gold.Chemscore.Internal.Correction.Weighted>
   9.000000E+99

> <Gold.Protein.RotatedTorsions>
[ 6907 6896 6895 6894 ] final   -2.29 input  -60.11 | X-H torsion
[ 7974 7965 7964 7962 ] final   70.67 input  175.53 | X-H torsion
[ 8008 7997 7996 7995 ] final  -70.85 input   59.86 | X-H torsion
[ 10167 10162 10161 10158 ] final  -67.76 input  -65.29 | X-H torsion
[ 10718 10713 10712 10709 ] final -129.04 input   66.30 | X-H torsion
[ 10763 10752 10751 10750 ] final  128.39 input  -60.55 | X-H torsion
[ 11005 11000 10999 10996 ] final  158.56 input  -57.11 | X-H torsion

> <Gold.Protein.ActiveResidues>
 VAL166  LYS551  ARG553  GLY616  TRP617  ASP618  TYR619  PRO620  LYS621  CYS622 
 ASP623  PHE694  ASN695  SER759  ASP760  ASP761  ALA762  ILE779  LEU786  VAL792 
 PHE793  MET794  SER795  GLU796  ALA797  LYS798  CYS799  TRP800  GLU811  SER814 

> <Gold.Protein.RotatedAtoms>
  151.5323  135.1068  159.9905 H   0  0  0  0  0  0  0  0  0  0  0  0  # atno 6907 bound_to 6896
  152.4573  133.7744  159.6827 H   0  0  0  0  0  0  0  0  0  0  0  0  # atno 6908 bound_to 6896
  150.8521  133.7706  159.3047 H   0  0  0  0  0  0  0  0  0  0  0  0  # atno 6909 bound_to 6896
  145.7753  139.2862  143.1297 H   0  0  0  0  0  0  0  0  0  0  0  0  # atno 7974 bound_to 7965
  154.5043  140.0826  156.7862 H   0  0  0  0  0  0  0  0  0  0  0  0  # atno 8008 bound_to 7997
  155.3931  140.3433  155.4234 H   0  0  0  0  0  0  0  0  0  0  0  0  # atno 8009 bound_to 7997
  156.1495  140.1554  156.8779 H   0  0  0  0  0  0  0  0  0  0  0  0  # atno 8010 bound_to 7997
  140.5558  143.2312  151.6823 H   0  0  0  0  0  0  0  0  0  0  0  0  # atno 10167 bound_to 10162
  156.2008  130.6856  151.0537 H   0  0  0  0  0  0  0  0  0  0  0  0  # atno 10718 bound_to 10713
  153.7248  135.3247  155.3274 H   0  0  0  0  0  0  0  0  0  0  0  0  # atno 10763 bound_to 10752
  154.8344  135.4508  154.1181 H   0  0  0  0  0  0  0  0  0  0  0  0  # atno 10764 bound_to 10752
  153.2311  135.6960  153.7969 H   0  0  0  0  0  0  0  0  0  0  0  0  # atno 10765 bound_to 10752
  140.1877  134.8430  157.2876 H   0  0  0  0  0  0  0  0  0  0  0  0  # atno 11005 bound_to 11000
  146.0129  140.8419  142.9962 LP  0  0  0  0  0  0  0  0  0  0  0  0  # atno 17320 bound_to 7965
  144.6805  140.2516  143.7331 LP  0  0  0  0  0  0  0  0  0  0  0  0  # atno 17321 bound_to 7965
  139.5047  144.3743  152.0439 LP  0  0  0  0  0  0  0  0  0  0  0  0  # atno 17342 bound_to 10162
  140.2864  144.3802  150.6102 LP  0  0  0  0  0  0  0  0  0  0  0  0  # atno 17343 bound_to 10162
  157.6985  131.0785  150.6896 LP  0  0  0  0  0  0  0  0  0  0  0  0  # atno 17370 bound_to 10713
  156.6953  130.4607  149.5588 LP  0  0  0  0  0  0  0  0  0  0  0  0  # atno 17371 bound_to 10713
  140.2195  134.4040  155.7572 LP  0  0  0  0  0  0  0  0  0  0  0  0  # atno 17394 bound_to 11000
  141.2225  133.7159  156.8468 LP  0  0  0  0  0  0  0  0  0  0  0  0  # atno 17395 bound_to 11000

$$$$
