AV-unprocessed.smi:3234|AV-procd|sdf|12352|dock1
  -GOLD-   2272018213D 1   1.00000     0.00000
 Structure written by MMmdl.
 38 40  0  0  0  0  0  0  0  0  3 V2000
  145.3479  138.4671  153.2200 O   0  0  0  0  0  0  0  0  0  0  0  0
  146.4380  138.0172  152.8702 C   0  0  0  0  0  0  0  0  0  0  0  0
  147.6246  138.6358  153.0065 N   0  0  0  0  0  0  0  0  0  0  0  0
  147.9284  139.9093  153.5666 C   0  0  0  0  0  0  0  0  0  0  0  0
  147.0357  140.9653  153.2751 C   0  0  0  0  0  0  0  0  0  0  0  0
  147.2796  142.2521  153.7968 C   0  0  0  0  0  0  0  0  0  0  0  0
  148.3644  142.4688  154.5699 N   0  3  0  0  0  0  0  0  0  0  0  0
  149.2481  141.4949  154.8752 C   0  0  0  0  0  0  0  0  0  0  0  0
  149.0564  140.1878  154.3821 C   0  0  0  0  0  0  0  0  0  0  0  0
  146.5811  136.8168  152.2902 N   0  0  0  0  0  0  0  0  0  0  0  0
  145.4833  135.8977  152.0074 C   0  0  2  0  0  0  0  0  0  0  0  0
  144.8384  135.2794  153.2440 C   0  0  0  0  0  0  0  0  0  0  0  0
  144.1457  134.0368  152.6730 C   0  0  0  0  0  0  0  0  0  0  0  0
  144.9155  133.6323  151.4698 N   0  3  1  0  0  0  0  0  0  0  0  0
  144.0672  133.3710  150.2864 C   0  0  0  0  0  0  0  0  0  0  0  0
  143.3708  132.0315  150.3263 C   0  0  0  0  0  0  0  0  0  0  0  0
  144.5672  132.2378  149.4224 C   0  0  0  0  0  0  0  0  0  0  0  0
  145.9518  134.6630  151.2387 C   0  0  0  0  0  0  0  0  0  0  0  0
  148.4220  138.1274  152.6535 H   0  0  0  0  0  0  0  0  0  0  0  0
  146.1667  140.7953  152.6558 H   0  0  0  0  0  0  0  0  0  0  0  0
  146.6444  143.1077  153.6195 H   0  0  0  0  0  0  0  0  0  0  0  0
  150.0786  141.7880  155.5007 H   0  0  0  0  0  0  0  0  0  0  0  0
  149.7845  139.4372  154.6439 H   0  0  0  0  0  0  0  0  0  0  0  0
  147.5092  136.5187  152.0273 H   0  0  0  0  0  0  0  0  0  0  0  0
  144.7191  136.4088  151.4178 H   0  0  0  0  0  0  0  0  0  0  0  0
  145.6035  134.9823  153.9633 H   0  0  0  0  0  0  0  0  0  0  0  0
  144.1451  135.9545  153.7472 H   0  0  0  0  0  0  0  0  0  0  0  0
  144.0994  133.2245  153.3988 H   0  0  0  0  0  0  0  0  0  0  0  0
  143.1201  134.2887  152.3975 H   0  0  0  0  0  0  0  0  0  0  0  0
  143.5801  134.2353  149.8378 H   0  0  0  0  0  0  0  0  0  0  0  0
  143.5072  131.4054  151.2063 H   0  0  0  0  0  0  0  0  0  0  0  0
  142.3945  131.9594  149.8516 H   0  0  0  0  0  0  0  0  0  0  0  0
  144.3782  132.3013  148.3527 H   0  0  0  0  0  0  0  0  0  0  0  0
  145.4989  131.7490  149.7016 H   0  0  0  0  0  0  0  0  0  0  0  0
  146.1172  134.8689  150.1799 H   0  0  0  0  0  0  0  0  0  0  0  0
  146.8907  134.2907  151.6515 H   0  0  0  0  0  0  0  0  0  0  0  0
  145.3975  132.7713  151.6856 H   0  0  0  0  0  0  0  0  0  0  0  0
  148.5240  143.4071  154.9379 H   0  0  0  0  0  0  0  0  0  0  0  0
  1  2  2  0  0  0  0
  2  3  1  0  0  0  0
  2 10  1  0  0  0  0
  3  4  1  0  0  0  0
  3 19  1  0  0  0  0
  4  9  1  0  0  0  0
  4  5  2  0  0  0  0
  5  6  1  0  0  0  0
  5 20  1  0  0  0  0
  6  7  2  0  0  0  0
  6 21  1  0  0  0  0
  7  8  1  0  0  0  0
  7 38  1  0  0  0  0
  8  9  2  0  0  0  0
  8 22  1  0  0  0  0
  9 23  1  0  0  0  0
 10 11  1  0  0  0  0
 10 24  1  0  0  0  0
 11 18  1  0  0  0  0
 11 12  1  0  0  0  0
 11 25  1  0  0  0  0
 12 13  1  0  0  0  0
 12 26  1  0  0  0  0
 12 27  1  0  0  0  0
 13 14  1  0  0  0  0
 13 28  1  0  0  0  0
 13 29  1  0  0  0  0
 14 15  1  0  0  0  0
 14 18  1  0  0  0  0
 14 37  1  0  0  0  0
 15 17  1  0  0  0  0
 15 16  1  0  0  0  0
 15 30  1  0  0  0  0
 16 17  1  0  0  0  0
 16 31  1  0  0  0  0
 16 32  1  0  0  0  0
 17 33  1  0  0  0  0
 17 34  1  0  0  0  0
 18 35  1  0  0  0  0
 18 36  1  0  0  0  0
M  CHG  1   7   1
M  CHG  1  14   1
M  END
> <s_m_source_file>
AV-unprocessed.smi

> <i_m_source_file_index>
3234

> <i_lp_mmshare_version>
43012

> <i_f3d_flags>
0

> <s_epik_input>
W2NIXTFbY0hdbltjSF1bY0hdYzFbTkhdQyg9TylbTkhdW0NAQEhdMltDSDJdW0NIMl1OKFtDSDJdMilbQ0hdM1tDSDJdW0NIMl0z

> <s_epik_cmdline>
J2VwaWtfcHl0aG9uJywgJy1waCcsICc3LjAnLCAnLXRuJywgJzgnLCAnLW1hJywgJzIwMCcsICctbWV0YWxfYmluZGluZycsICctaW1hZScsICc8aW5maWxlLm1hZT4nLCAnLW9tYWUnLCAnPG91dGZpbGUubWFlPic=

> <r_epik_Ionization_Penalty>
1.14489

> <r_epik_Ionization_Penalty_Charging>
1.14487

> <r_epik_Ionization_Penalty_Neutral>
1.95212e-05

> <r_epik_State_Penalty>
1.205

> <r_epik_Charging_Adjusted_Penalty>
2.34987

> <i_epik_Tot_Q>
2

> <i_epik_Tot_abs_Q>
2

> <r_epik_Metal_State_Penalty>
1.28709

> <b_epik_Metal_Only>
0

> <s_lp_Force_Field>
OPLS_2005

> <r_lp_Energy>
49.761

> <b_lp_Chiralities_Consistent>
1

> <s_lp_Variant>
AV-unprocessed.smi:3234-5

> <Gold.Version>
5.8.1

> <Gold.Id.Protein>
6NUR|6NUR_protein|mol2

> <Gold.PLP.Fitness>
40.9933

> <Gold.PLP.PLP>
-31.4175

> <Gold.PLP.part.hbond>
-3.5014

> <Gold.PLP.part.metal>
0.0000

> <Gold.PLP.part.buried>
-2.8769

> <Gold.PLP.part.nonpolar>
-28.6434

> <Gold.PLP.part.repulsive>
1.6023

> <Gold.PLP.ligand.clash>
0.0000

> <Gold.PLP.ligand.torsion>
0.9956

> <Gold.PLP.Chemscore.Hbond>
3.4342

> <Gold.PLP.Chemscore.CHOScore>
0.0000

> <Gold.PLP.Chemscore.Metal>
0.0000

> <Gold.Chemscore.Hbonds>
donor molecule, donor type, donor heavy atom, donor atom, acceptor molecule, acceptor atom, score
      L1  H     3    19       P1  7948  0.70
      L1  H     7    38       P1  8028  1.92
      L1  H    10    24       P1  7948  0.83

> <Gold.PLP.Chemscore.Internal.Correction>
1.2645

> <Gold.Rescore>
     Score         DG    S(hbond)    S(metal)    S(lipo)     H(rot)  DE(clash)    DE(int)     intcor
     17.73     -21.25       2.77        0.00      82.43       1.22       1.23       2.28       ----

> <Gold.Chemscore.Fitness>
17.7334

> <Gold.Chemscore.DG>
-21.2474

> <Gold.Chemscore.ZeroCoef>
-5.4800

> <Gold.Chemscore.Hbond>
2.7721

> <Gold.Chemscore.Metal>
0.0000

> <Gold.Chemscore.Lipo>
82.4289

> <Gold.Chemscore.Internal_Hbond>
0.0000

> <Gold.Chemscore.DEClash>
1.2337

> <Gold.Chemscore.DEInternal>
2.2803

> <Gold.Chemscore.Rot>
1.2248

> <Gold.Chemscore.Internal.Correction>
   9.000000E+99

> <Gold.Chemscore.Hbonds>
donor molecule, donor type, donor heavy atom, donor atom, acceptor molecule, acceptor atom, score
      L1  H     3    19       P1  7948  0.68
      L1  H     7    38       P1  8028  0.91
      L1  H    10    24       P1  7948  0.82

> <Gold.Chemscore.Hbond.Weighted>
-9.2587

> <Gold.Chemscore.Metal.Weighted>
-0.0000

> <Gold.Chemscore.Lipo.Weighted>
-9.6442

> <Gold.Chemscore.Internal_Hbond.Weighted>
0.0000

> <Gold.Chemscore.DEClash.Weighted>
1.2337

> <Gold.Chemscore.DEInternal.Weighted>
2.2803

> <Gold.Chemscore.Rot.Weighted>
3.1355

> <Gold.Chemscore.Internal.Correction.Weighted>
   9.000000E+99

> <Gold.Protein.RotatedTorsions>
[ 6907 6896 6895 6894 ] final   31.14 input  -60.11 | X-H torsion
[ 7974 7965 7964 7962 ] final   44.85 input  175.53 | X-H torsion
[ 8008 7997 7996 7995 ] final  -11.96 input   59.86 | X-H torsion
[ 10167 10162 10161 10158 ] final   69.66 input  -65.29 | X-H torsion
[ 10718 10713 10712 10709 ] final -145.05 input   66.30 | X-H torsion
[ 10763 10752 10751 10750 ] final -146.19 input  -60.55 | X-H torsion
[ 11005 11000 10999 10996 ] final -130.49 input  -57.11 | X-H torsion

> <Gold.Protein.ActiveResidues>
 VAL166  LYS551  ARG553  GLY616  TRP617  ASP618  TYR619  PRO620  LYS621  CYS622 
 ASP623  PHE694  ASN695  SER759  ASP760  ASP761  ALA762  ILE779  LEU786  VAL792 
 PHE793  MET794  SER795  GLU796  ALA797  LYS798  CYS799  TRP800  GLU811  SER814 

> <Gold.Protein.RotatedAtoms>
  152.0560  134.9624  160.0574 H   0  0  0  0  0  0  0  0  0  0  0  0  # atno 6907 bound_to 6896
  152.1006  133.4243  159.4594 H   0  0  0  0  0  0  0  0  0  0  0  0  # atno 6908 bound_to 6896
  150.6839  134.2684  159.4621 H   0  0  0  0  0  0  0  0  0  0  0  0  # atno 6909 bound_to 6896
  146.0532  139.5029  142.9705 H   0  0  0  0  0  0  0  0  0  0  0  0  # atno 7974 bound_to 7965
  154.5418  140.2288  155.8628 H   0  0  0  0  0  0  0  0  0  0  0  0  # atno 8008 bound_to 7997
  156.1866  140.3087  155.9212 H   0  0  0  0  0  0  0  0  0  0  0  0  # atno 8009 bound_to 7997
  155.3242  140.0442  157.3031 H   0  0  0  0  0  0  0  0  0  0  0  0  # atno 8010 bound_to 7997
  140.0653  144.5198  150.7265 H   0  0  0  0  0  0  0  0  0  0  0  0  # atno 10167 bound_to 10162
  156.3777  130.7821  151.2009 H   0  0  0  0  0  0  0  0  0  0  0  0  # atno 10718 bound_to 10713
  154.8348  135.3393  154.6622 H   0  0  0  0  0  0  0  0  0  0  0  0  # atno 10763 bound_to 10752
  153.7238  135.6956  153.5011 H   0  0  0  0  0  0  0  0  0  0  0  0  # atno 10764 bound_to 10752
  153.2362  135.4400  155.0601 H   0  0  0  0  0  0  0  0  0  0  0  0  # atno 10765 bound_to 10752
  140.9341  134.1280  157.4208 H   0  0  0  0  0  0  0  0  0  0  0  0  # atno 11005 bound_to 11000
  145.6688  141.0222  143.1669 LP  0  0  0  0  0  0  0  0  0  0  0  0  # atno 17320 bound_to 7965
  144.7134  139.8286  143.7407 LP  0  0  0  0  0  0  0  0  0  0  0  0  # atno 17321 bound_to 7965
  140.7152  143.2538  151.4457 LP  0  0  0  0  0  0  0  0  0  0  0  0  # atno 17342 bound_to 10162
  139.5868  144.1586  152.2039 LP  0  0  0  0  0  0  0  0  0  0  0  0  # atno 17343 bound_to 10162
  157.7489  131.0353  150.4358 LP  0  0  0  0  0  0  0  0  0  0  0  0  # atno 17370 bound_to 10713
  156.4597  130.4029  149.6584 LP  0  0  0  0  0  0  0  0  0  0  0  0  # atno 17371 bound_to 10713
  139.8803  135.0015  156.6072 LP  0  0  0  0  0  0  0  0  0  0  0  0  # atno 17394 bound_to 11000
  140.7822  133.8650  155.8577 LP  0  0  0  0  0  0  0  0  0  0  0  0  # atno 17395 bound_to 11000

$$$$
