AV-unprocessed.smi:2463|AV-procd|sdf|9720|dock10
  -GOLD-   2272013363D 1   1.00000     0.00000
 Structure written by MMmdl.
 47 48  0  0  0  0  0  0  0  0  1 V2000
  151.9472  145.9111  160.0664 C   0  0  0  0  0  0  0  0  0  0  0  0
  151.8406  145.2791  158.6744 C   0  0  0  0  0  0  0  0  0  0  0  0
  151.2728  143.8527  158.7201 C   0  0  0  0  0  0  0  0  0  0  0  0
  152.1864  142.9310  159.3671 N   0  0  0  0  0  0  0  0  0  0  0  0
  152.8044  143.0639  160.5946 C   0  0  0  0  0  0  0  0  0  0  0  0
  153.5630  141.9382  160.7496 C   0  0  0  0  0  0  0  0  0  0  0  0
  154.3983  141.5583  161.8302 N   0  0  0  0  0  0  0  0  0  0  0  0
  155.0977  140.4191  161.9579 C   0  0  0  0  0  0  0  0  0  0  0  0
  155.1076  139.4991  161.1399 O   0  0  0  0  0  0  0  0  0  0  0  0
  155.7910  140.4008  163.1044 N   0  0  0  0  0  0  0  0  0  0  0  0
  156.6351  139.2979  163.5593 C   0  0  1  0  0  0  0  0  0  0  0  0
  158.0771  139.7323  163.7322 C   0  0  0  0  0  0  0  0  0  0  0  0
  158.6313  138.7076  164.7297 C   0  0  0  0  0  0  0  0  0  0  0  0
  159.2217  137.4764  164.0209 C   0  0  0  0  0  0  0  0  0  0  0  0
  159.6518  139.3277  165.6963 C   0  0  0  0  0  0  0  0  0  0  0  0
  157.5041  138.2632  165.4837 O   0  0  0  0  0  0  0  0  0  0  0  0
  156.2757  138.7733  164.9663 C   0  0  0  0  0  0  0  0  0  0  0  0
  155.8054  139.8645  165.9510 C   0  0  0  0  0  0  0  0  0  0  0  0
  155.2669  137.6152  164.9174 C   0  0  0  0  0  0  0  0  0  0  0  0
  153.3563  141.1672  159.5765 C   0  0  0  0  0  0  0  0  0  0  0  0
  152.5241  141.7746  158.7444 N   0  0  0  0  0  0  0  0  0  0  0  0
  152.3540  146.9209  160.0044 H   0  0  0  0  0  0  0  0  0  0  0  0
  152.6014  145.3277  160.7153 H   0  0  0  0  0  0  0  0  0  0  0  0
  150.9694  145.9753  160.5448 H   0  0  0  0  0  0  0  0  0  0  0  0
  151.2099  145.9066  158.0432 H   0  0  0  0  0  0  0  0  0  0  0  0
  152.8271  145.2659  158.2090 H   0  0  0  0  0  0  0  0  0  0  0  0
  150.3264  143.8386  159.2625 H   0  0  0  0  0  0  0  0  0  0  0  0
  151.0654  143.4910  157.7118 H   0  0  0  0  0  0  0  0  0  0  0  0
  152.6477  143.9265  161.2250 H   0  0  0  0  0  0  0  0  0  0  0  0
  154.4723  142.2253  162.5842 H   0  0  0  0  0  0  0  0  0  0  0  0
  155.7217  141.2010  163.7158 H   0  0  0  0  0  0  0  0  0  0  0  0
  156.6143  138.4797  162.8366 H   0  0  0  0  0  0  0  0  0  0  0  0
  158.6279  139.7571  162.7911 H   0  0  0  0  0  0  0  0  0  0  0  0
  158.1153  140.7358  164.1591 H   0  0  0  0  0  0  0  0  0  0  0  0
  160.0822  137.7482  163.4090 H   0  0  0  0  0  0  0  0  0  0  0  0
  158.4893  136.9995  163.3688 H   0  0  0  0  0  0  0  0  0  0  0  0
  159.5520  136.7286  164.7423 H   0  0  0  0  0  0  0  0  0  0  0  0
  160.5244  139.7031  165.1609 H   0  0  0  0  0  0  0  0  0  0  0  0
  159.9984  138.5951  166.4257 H   0  0  0  0  0  0  0  0  0  0  0  0
  159.2173  140.1604  166.2502 H   0  0  0  0  0  0  0  0  0  0  0  0
  154.8431  140.2841  165.6565 H   0  0  0  0  0  0  0  0  0  0  0  0
  156.5210  140.6843  166.0162 H   0  0  0  0  0  0  0  0  0  0  0  0
  155.6869  139.4567  166.9552 H   0  0  0  0  0  0  0  0  0  0  0  0
  154.3027  137.9459  164.5313 H   0  0  0  0  0  0  0  0  0  0  0  0
  155.0999  137.1970  165.9104 H   0  0  0  0  0  0  0  0  0  0  0  0
  155.6226  136.8072  164.2774 H   0  0  0  0  0  0  0  0  0  0  0  0
  153.7730  140.2083  159.3059 H   0  0  0  0  0  0  0  0  0  0  0  0
  1  2  1  0  0  0  0
  1 22  1  0  0  0  0
  1 23  1  0  0  0  0
  1 24  1  0  0  0  0
  2  3  1  0  0  0  0
  2 25  1  0  0  0  0
  2 26  1  0  0  0  0
  3  4  1  0  0  0  0
  3 27  1  0  0  0  0
  3 28  1  0  0  0  0
  4 21  1  0  0  0  0
  4  5  1  0  0  0  0
  5  6  2  0  0  0  0
  5 29  1  0  0  0  0
  6  7  1  0  0  0  0
  6 20  1  0  0  0  0
  7  8  1  0  0  0  0
  7 30  1  0  0  0  0
  8  9  2  0  0  0  0
  8 10  1  0  0  0  0
 10 11  1  0  0  0  0
 10 31  1  0  0  0  0
 11 17  1  0  0  0  0
 11 12  1  0  0  0  0
 11 32  1  0  0  0  0
 12 13  1  0  0  0  0
 12 33  1  0  0  0  0
 12 34  1  0  0  0  0
 13 14  1  0  0  0  0
 13 15  1  0  0  0  0
 13 16  1  0  0  0  0
 14 35  1  0  0  0  0
 14 36  1  0  0  0  0
 14 37  1  0  0  0  0
 15 38  1  0  0  0  0
 15 39  1  0  0  0  0
 15 40  1  0  0  0  0
 16 17  1  0  0  0  0
 17 18  1  0  0  0  0
 17 19  1  0  0  0  0
 18 41  1  0  0  0  0
 18 42  1  0  0  0  0
 18 43  1  0  0  0  0
 19 44  1  0  0  0  0
 19 45  1  0  0  0  0
 19 46  1  0  0  0  0
 20 21  2  0  0  0  0
 20 47  1  0  0  0  0
M  END
> <s_m_source_file>
AV-unprocessed.smi

> <i_m_source_file_index>
2463

> <i_lp_mmshare_version>
43012

> <i_f3d_flags>
0

> <s_epik_input>
W0NIM11bQ0gyXVtDSDJdbjFbY0hdYyhbY0hdbjEpW05IXUMoPU8pW05IXVtDQEBIXShDKE8yKShbQ0gzXSlbQ0gzXSlbQ0gyXUMyKFtDSDNdKVtDSDNd

> <s_epik_cmdline>
J2VwaWtfcHl0aG9uJywgJy1waCcsICc3LjAnLCAnLXRuJywgJzgnLCAnLW1hJywgJzIwMCcsICctbWV0YWxfYmluZGluZycsICctaW1hZScsICc8aW5maWxlLm1hZT4nLCAnLW9tYWUnLCAnPG91dGZpbGUubWFlPic=

> <r_lp_tautomer_probability>
1

> <r_epik_Ionization_Penalty>
3.69628e-05

> <r_epik_Ionization_Penalty_Charging>
0

> <r_epik_Ionization_Penalty_Neutral>
3.69628e-05

> <r_epik_State_Penalty>
-0

> <r_epik_Charging_Adjusted_Penalty>
0

> <i_epik_Tot_Q>
0

> <i_epik_Tot_abs_Q>
0

> <r_epik_Metal_State_Penalty>
-0

> <b_epik_Metal_Only>
0

> <s_lp_Force_Field>
OPLS_2005

> <r_lp_Energy>
21.7925

> <b_lp_Chiralities_Consistent>
1

> <s_lp_Variant>
AV-unprocessed.smi:2463-2

> <Gold.Version>
5.8.1

> <Gold.Id.Protein>
6NUR|6NUR_protein|mol2

> <Gold.PLP.Fitness>
37.5324

> <Gold.PLP.PLP>
-37.7131

> <Gold.PLP.part.hbond>
-2.0000

> <Gold.PLP.part.metal>
0.0000

> <Gold.PLP.part.buried>
-2.7442

> <Gold.PLP.part.nonpolar>
-30.9009

> <Gold.PLP.part.repulsive>
0.0206

> <Gold.PLP.ligand.clash>
0.0000

> <Gold.PLP.ligand.torsion>
0.1003

> <Gold.PLP.Chemscore.Hbond>
0.0000

> <Gold.PLP.Chemscore.CHOScore>
0.0000

> <Gold.PLP.Chemscore.Metal>
0.0000

> <Gold.PLP.Chemscore.Internal.Correction>
0.0200

> <Gold.Rescore>
     Score         DG    S(hbond)    S(metal)    S(lipo)     H(rot)  DE(clash)    DE(int)     intcor
     11.50     -12.89       0.00        0.00      91.43       1.29       0.03       1.36       ----

> <Gold.Chemscore.Fitness>
11.4959

> <Gold.Chemscore.DG>
-12.8851

> <Gold.Chemscore.ZeroCoef>
-5.4800

> <Gold.Chemscore.Hbond>
0.0000

> <Gold.Chemscore.Metal>
0.0000

> <Gold.Chemscore.Lipo>
91.4280

> <Gold.Chemscore.Internal_Hbond>
0.0000

> <Gold.Chemscore.DEClash>
0.0340

> <Gold.Chemscore.DEInternal>
1.3552

> <Gold.Chemscore.Rot>
1.2859

> <Gold.Chemscore.Internal.Correction>
   9.000000E+99

> <Gold.Chemscore.Hbond.Weighted>
-0.0000

> <Gold.Chemscore.Metal.Weighted>
-0.0000

> <Gold.Chemscore.Lipo.Weighted>
-10.6971

> <Gold.Chemscore.Internal_Hbond.Weighted>
0.0000

> <Gold.Chemscore.DEClash.Weighted>
0.0340

> <Gold.Chemscore.DEInternal.Weighted>
1.3552

> <Gold.Chemscore.Rot.Weighted>
3.2919

> <Gold.Chemscore.Internal.Correction.Weighted>
   9.000000E+99

> <Gold.Protein.RotatedTorsions>
[ 6907 6896 6895 6894 ] final   77.38 input  -60.11 | X-H torsion
[ 7974 7965 7964 7962 ] final   -7.70 input  175.53 | X-H torsion
[ 8008 7997 7996 7995 ] final  151.83 input   59.86 | X-H torsion
[ 10167 10162 10161 10158 ] final   75.29 input  -65.29 | X-H torsion
[ 10718 10713 10712 10709 ] final  120.87 input   66.30 | X-H torsion
[ 10763 10752 10751 10750 ] final  124.95 input  -60.55 | X-H torsion
[ 11005 11000 10999 10996 ] final    4.63 input  -57.11 | X-H torsion

> <Gold.Protein.ActiveResidues>
 VAL166  LYS551  ARG553  GLY616  TRP617  ASP618  TYR619  PRO620  LYS621  CYS622 
 ASP623  PHE694  ASN695  SER759  ASP760  ASP761  ALA762  ILE779  LEU786  VAL792 
 PHE793  MET794  SER795  GLU796  ALA797  LYS798  CYS799  TRP800  GLU811  SER814 

> <Gold.Protein.RotatedAtoms>
  152.5115  134.3825  159.9355 H   0  0  0  0  0  0  0  0  0  0  0  0  # atno 6907 bound_to 6896
  151.3783  133.3824  159.2715 H   0  0  0  0  0  0  0  0  0  0  0  0  # atno 6908 bound_to 6896
  150.9524  134.8943  159.7739 H   0  0  0  0  0  0  0  0  0  0  0  0  # atno 6909 bound_to 6896
  146.2300  140.2358  142.8341 H   0  0  0  0  0  0  0  0  0  0  0  0  # atno 7974 bound_to 7965
  156.2656  140.2037  156.6238 H   0  0  0  0  0  0  0  0  0  0  0  0  # atno 8008 bound_to 7997
  154.6736  140.0547  157.0216 H   0  0  0  0  0  0  0  0  0  0  0  0  # atno 8009 bound_to 7997
  155.1101  140.3214  155.4527 H   0  0  0  0  0  0  0  0  0  0  0  0  # atno 8010 bound_to 7997
  140.0045  144.5661  150.7709 H   0  0  0  0  0  0  0  0  0  0  0  0  # atno 10167 bound_to 10162
  157.5859  131.1070  150.8095 H   0  0  0  0  0  0  0  0  0  0  0  0  # atno 10718 bound_to 10713
  153.6695  135.3333  155.3149 H   0  0  0  0  0  0  0  0  0  0  0  0  # atno 10763 bound_to 10752
  154.8494  135.4383  154.1720 H   0  0  0  0  0  0  0  0  0  0  0  0  # atno 10764 bound_to 10752
  153.2707  135.7000  153.7559 H   0  0  0  0  0  0  0  0  0  0  0  0  # atno 10765 bound_to 10752
  140.5797  134.0024  155.8042 H   0  0  0  0  0  0  0  0  0  0  0  0  # atno 11005 bound_to 11000
  144.9523  140.8190  143.5564 LP  0  0  0  0  0  0  0  0  0  0  0  0  # atno 17320 bound_to 7965
  145.2320  139.2111  143.5038 LP  0  0  0  0  0  0  0  0  0  0  0  0  # atno 17321 bound_to 7965
  140.7406  143.2806  151.3610 LP  0  0  0  0  0  0  0  0  0  0  0  0  # atno 17342 bound_to 10162
  139.6248  144.0836  152.2424 LP  0  0  0  0  0  0  0  0  0  0  0  0  # atno 17343 bound_to 10162
  156.8530  130.5087  149.5310 LP  0  0  0  0  0  0  0  0  0  0  0  0  # atno 17370 bound_to 10713
  156.0908  130.5894  150.9730 LP  0  0  0  0  0  0  0  0  0  0  0  0  # atno 17371 bound_to 10713
  141.1004  133.9777  157.3089 LP  0  0  0  0  0  0  0  0  0  0  0  0  # atno 17394 bound_to 11000
  139.9323  135.0199  156.8440 LP  0  0  0  0  0  0  0  0  0  0  0  0  # atno 17395 bound_to 11000

$$$$
