AV-unprocessed.smi:3017|AV-procd|sdf|11475|dock2
  -GOLD-   2272016413D 1   1.00000     0.00000
 Structure written by MMmdl.
 37 38  0  0  0  0  0  0  0  0  1 V2000
  151.6666  145.7878  159.8761 C   0  0  0  0  0  0  0  0  0  0  0  0
  151.6171  144.2676  159.6664 C   0  0  2  0  0  0  0  0  0  0  0  0
  152.7468  143.5549  160.4341 C   0  0  0  0  0  0  0  0  0  0  0  0
  152.7035  142.0337  160.2189 C   0  0  0  0  0  0  0  0  0  0  0  0
  152.7519  141.6801  158.7239 C   0  0  0  0  0  0  0  0  0  0  0  0
  151.6252  142.3809  157.9363 C   0  0  1  0  0  0  0  0  0  0  0  0
  150.3435  141.9201  158.3459 O   0  0  0  0  0  0  0  0  0  0  0  0
  149.2701  142.3044  157.4971 C   0  0  0  0  0  0  0  0  0  0  0  0
  147.9602  142.2208  158.2801 C   0  0  0  0  0  0  0  0  0  0  0  0
  147.1558  141.3276  158.0151 O   0  0  0  0  0  0  0  0  0  0  0  0
  147.7693  143.1693  159.2166 N   0  0  0  0  0  0  0  0  0  0  0  0
  146.6702  143.3213  160.1016 C   0  0  0  0  0  0  0  0  0  0  0  0
  146.6153  144.5461  160.8077 C   0  0  0  0  0  0  0  0  0  0  0  0
  145.6332  144.8360  161.6901 N   0  0  0  0  0  0  0  0  0  0  0  0
  144.6880  143.8896  161.8736 C   0  0  0  0  0  0  0  0  0  0  0  0
  144.7261  142.6645  161.1785 C   0  0  0  0  0  0  0  0  0  0  0  0
  145.7104  142.3812  160.2978 N   0  0  0  0  0  0  0  0  0  0  0  0
  151.6674  143.9028  158.1681 C   0  0  0  0  0  0  0  0  0  0  0  0
  152.5973  146.2110  159.4967 H   0  0  0  0  0  0  0  0  0  0  0  0
  151.5921  146.0406  160.9342 H   0  0  0  0  0  0  0  0  0  0  0  0
  150.8415  146.2812  159.3617 H   0  0  0  0  0  0  0  0  0  0  0  0
  150.6655  143.9162  160.0680 H   0  0  0  0  0  0  0  0  0  0  0  0
  153.7141  143.9394  160.1082 H   0  0  0  0  0  0  0  0  0  0  0  0
  152.6705  143.7747  161.4995 H   0  0  0  0  0  0  0  0  0  0  0  0
  153.5381  141.5625  160.7385 H   0  0  0  0  0  0  0  0  0  0  0  0
  151.7945  141.6260  160.6628 H   0  0  0  0  0  0  0  0  0  0  0  0
  153.7154  141.9888  158.3168 H   0  0  0  0  0  0  0  0  0  0  0  0
  152.7076  140.5993  158.5945 H   0  0  0  0  0  0  0  0  0  0  0  0
  151.7522  142.1957  156.8682 H   0  0  0  0  0  0  0  0  0  0  0  0
  149.4092  143.3279  157.1462 H   0  0  0  0  0  0  0  0  0  0  0  0
  149.2088  141.6559  156.6231 H   0  0  0  0  0  0  0  0  0  0  0  0
  148.5092  143.8490  159.3173 H   0  0  0  0  0  0  0  0  0  0  0  0
  147.3698  145.3062  160.6653 H   0  0  0  0  0  0  0  0  0  0  0  0
  143.8988  144.1099  162.5770 H   0  0  0  0  0  0  0  0  0  0  0  0
  143.9671  141.9112  161.3294 H   0  0  0  0  0  0  0  0  0  0  0  0
  150.8390  144.3762  157.6395 H   0  0  0  0  0  0  0  0  0  0  0  0
  152.5801  144.3063  157.7273 H   0  0  0  0  0  0  0  0  0  0  0  0
  1  2  1  0  0  0  0
  1 19  1  0  0  0  0
  1 20  1  0  0  0  0
  1 21  1  0  0  0  0
  2 18  1  0  0  0  0
  2  3  1  0  0  0  0
  2 22  1  0  0  0  0
  3  4  1  0  0  0  0
  3 23  1  0  0  0  0
  3 24  1  0  0  0  0
  4  5  1  0  0  0  0
  4 25  1  0  0  0  0
  4 26  1  0  0  0  0
  5  6  1  0  0  0  0
  5 27  1  0  0  0  0
  5 28  1  0  0  0  0
  6  7  1  0  0  0  0
  6 18  1  0  0  0  0
  6 29  1  0  0  0  0
  7  8  1  0  0  0  0
  8  9  1  0  0  0  0
  8 30  1  0  0  0  0
  8 31  1  0  0  0  0
  9 10  2  0  0  0  0
  9 11  1  0  0  0  0
 11 12  1  0  0  0  0
 11 32  1  0  0  0  0
 12 17  1  0  0  0  0
 12 13  2  0  0  0  0
 13 14  1  0  0  0  0
 13 33  1  0  0  0  0
 14 15  2  0  0  0  0
 15 16  1  0  0  0  0
 15 34  1  0  0  0  0
 16 17  2  0  0  0  0
 16 35  1  0  0  0  0
 18 36  1  0  0  0  0
 18 37  1  0  0  0  0
M  END
> <s_m_source_file>
AV-unprocessed.smi

> <i_m_source_file_index>
3017

> <i_lp_mmshare_version>
43012

> <i_f3d_flags>
0

> <s_epik_input>
W0NIM11bQ0BASF0xW0NIMl1bQ0gyXVtDSDJdW0NASF0oW0NIMl0xKU9bQ0gyXUMoPU8pW05IXWMyW2NIXW5bY0hdW2NIXW4y

> <s_epik_cmdline>
J2VwaWtfcHl0aG9uJywgJy1waCcsICc3LjAnLCAnLXRuJywgJzgnLCAnLW1hJywgJzIwMCcsICctbWV0YWxfYmluZGluZycsICctaW1hZScsICc8aW5maWxlLm1hZT4nLCAnLW9tYWUnLCAnPG91dGZpbGUubWFlPic=

> <r_lp_tautomer_probability>
1

> <r_epik_Ionization_Penalty>
2.89243e-06

> <r_epik_Ionization_Penalty_Charging>
0

> <r_epik_Ionization_Penalty_Neutral>
2.89243e-06

> <r_epik_State_Penalty>
-0

> <r_epik_Charging_Adjusted_Penalty>
0

> <i_epik_Tot_Q>
0

> <i_epik_Tot_abs_Q>
0

> <r_epik_Metal_State_Penalty>
-0

> <b_epik_Metal_Only>
0

> <s_lp_Force_Field>
OPLS_2005

> <r_lp_Energy>
20.5488

> <b_lp_Chiralities_Consistent>
1

> <s_lp_Variant>
AV-unprocessed.smi:3017-1

> <Gold.Version>
5.8.1

> <Gold.Id.Protein>
6NUR|6NUR_protein|mol2

> <Gold.PLP.Fitness>
38.0033

> <Gold.PLP.PLP>
-35.9338

> <Gold.PLP.part.hbond>
-2.2105

> <Gold.PLP.part.metal>
0.0000

> <Gold.PLP.part.buried>
-4.8749

> <Gold.PLP.part.nonpolar>
-30.5545

> <Gold.PLP.part.repulsive>
1.5552

> <Gold.PLP.ligand.clash>
0.0000

> <Gold.PLP.ligand.torsion>
0.3197

> <Gold.PLP.Chemscore.Hbond>
0.9000

> <Gold.PLP.Chemscore.CHOScore>
0.0000

> <Gold.PLP.Chemscore.Metal>
0.0000

> <Gold.Chemscore.Hbonds>
donor molecule, donor type, donor heavy atom, donor atom, acceptor molecule, acceptor atom, score
      P1  H  6934  6946       L1    17  0.90

> <Gold.PLP.Chemscore.Internal.Correction>
0.0089

> <Gold.Rescore>
     Score         DG    S(hbond)    S(metal)    S(lipo)     H(rot)  DE(clash)    DE(int)     intcor
     14.24     -16.06       0.86        0.00      99.01       1.51       0.22       1.61       ----

> <Gold.Chemscore.Fitness>
14.2362

> <Gold.Chemscore.DG>
-16.0619

> <Gold.Chemscore.ZeroCoef>
-5.4800

> <Gold.Chemscore.Hbond>
0.8589

> <Gold.Chemscore.Metal>
0.0000

> <Gold.Chemscore.Lipo>
99.0056

> <Gold.Chemscore.Internal_Hbond>
0.0000

> <Gold.Chemscore.DEClash>
0.2167

> <Gold.Chemscore.DEInternal>
1.6090

> <Gold.Chemscore.Rot>
1.5119

> <Gold.Chemscore.Internal.Correction>
   9.000000E+99

> <Gold.Chemscore.Hbonds>
donor molecule, donor type, donor heavy atom, donor atom, acceptor molecule, acceptor atom, score
      P1  H  6934  6946       L1    17  0.17

> <Gold.Chemscore.Hbond.Weighted>
-2.8689

> <Gold.Chemscore.Metal.Weighted>
-0.0000

> <Gold.Chemscore.Lipo.Weighted>
-11.5837

> <Gold.Chemscore.Internal_Hbond.Weighted>
0.0000

> <Gold.Chemscore.DEClash.Weighted>
0.2167

> <Gold.Chemscore.DEInternal.Weighted>
1.6090

> <Gold.Chemscore.Rot.Weighted>
3.8706

> <Gold.Chemscore.Internal.Correction.Weighted>
   9.000000E+99

> <Gold.Protein.RotatedTorsions>
[ 6907 6896 6895 6894 ] final -114.20 input  -60.11 | X-H torsion
[ 7974 7965 7964 7962 ] final   98.58 input  175.53 | X-H torsion
[ 8008 7997 7996 7995 ] final   98.09 input   59.86 | X-H torsion
[ 10167 10162 10161 10158 ] final -121.82 input  -65.29 | X-H torsion
[ 10718 10713 10712 10709 ] final   96.42 input   66.30 | X-H torsion
[ 10763 10752 10751 10750 ] final  -37.49 input  -60.55 | X-H torsion
[ 11005 11000 10999 10996 ] final  161.29 input  -57.11 | X-H torsion

> <Gold.Protein.ActiveResidues>
 VAL166  LYS551  ARG553  GLY616  TRP617  ASP618  TYR619  PRO620  LYS621  CYS622 
 ASP623  PHE694  ASN695  SER759  ASP760  ASP761  ALA762  ILE779  LEU786  VAL792 
 PHE793  MET794  SER795  GLU796  ALA797  LYS798  CYS799  TRP800  GLU811  SER814 

> <Gold.Protein.RotatedAtoms>
  150.7884  133.8835  159.3292 H   0  0  0  0  0  0  0  0  0  0  0  0  # atno 6907 bound_to 6896
  151.6679  135.0978  160.0202 H   0  0  0  0  0  0  0  0  0  0  0  0  # atno 6908 bound_to 6896
  152.3954  133.6700  159.6307 H   0  0  0  0  0  0  0  0  0  0  0  0  # atno 6909 bound_to 6896
  145.4103  139.2335  143.3252 H   0  0  0  0  0  0  0  0  0  0  0  0  # atno 7974 bound_to 7965
  156.0969  140.3249  155.7889 H   0  0  0  0  0  0  0  0  0  0  0  0  # atno 8008 bound_to 7997
  155.4903  140.0561  157.2972 H   0  0  0  0  0  0  0  0  0  0  0  0  # atno 8009 bound_to 7997
  154.4672  140.1994  156.0103 H   0  0  0  0  0  0  0  0  0  0  0  0  # atno 8010 bound_to 7997
  140.0209  143.5345  152.2221 H   0  0  0  0  0  0  0  0  0  0  0  0  # atno 10167 bound_to 10162
  157.6927  131.0577  150.4488 H   0  0  0  0  0  0  0  0  0  0  0  0  # atno 10718 bound_to 10713
  153.8971  135.6806  153.4757 H   0  0  0  0  0  0  0  0  0  0  0  0  # atno 10763 bound_to 10752
  153.1149  135.4766  154.9096 H   0  0  0  0  0  0  0  0  0  0  0  0  # atno 10764 bound_to 10752
  154.7594  135.3206  154.8362 H   0  0  0  0  0  0  0  0  0  0  0  0  # atno 10765 bound_to 10752
  140.2143  134.8244  157.3154 H   0  0  0  0  0  0  0  0  0  0  0  0  # atno 11005 bound_to 11000
  146.2708  140.4813  142.8815 LP  0  0  0  0  0  0  0  0  0  0  0  0  # atno 17320 bound_to 7965
  144.8314  140.6712  143.6289 LP  0  0  0  0  0  0  0  0  0  0  0  0  # atno 17321 bound_to 7965
  139.6140  144.7615  151.2887 LP  0  0  0  0  0  0  0  0  0  0  0  0  # atno 17342 bound_to 10162
  140.7343  143.6771  150.8032 LP  0  0  0  0  0  0  0  0  0  0  0  0  # atno 17343 bound_to 10162
  156.4841  130.4080  149.6444 LP  0  0  0  0  0  0  0  0  0  0  0  0  # atno 17370 bound_to 10713
  156.3479  130.7416  151.2371 LP  0  0  0  0  0  0  0  0  0  0  0  0  # atno 17371 bound_to 10713
  140.1917  134.4364  155.7712 LP  0  0  0  0  0  0  0  0  0  0  0  0  # atno 17394 bound_to 11000
  141.2225  133.7030  156.8038 LP  0  0  0  0  0  0  0  0  0  0  0  0  # atno 17395 bound_to 11000

$$$$
