AV-unprocessed.smi:3177|AV-procd|sdf|12129|dock3
  -GOLD-   2272017573D 1   1.00000     0.00000
 Structure written by MMmdl.
 30 31  0  0  0  0  0  0  0  0  1 V2000
  153.9956  141.3037  160.7512 C   0  0  0  0  0  0  0  0  0  0  0  0
  153.5683  142.4793  160.0722 O   0  0  0  0  0  0  0  0  0  0  0  0
  152.6297  142.3518  159.0689 C   0  0  0  0  0  0  0  0  0  0  0  0
  152.3680  141.0681  158.5498 C   0  0  0  0  0  0  0  0  0  0  0  0
  151.4149  140.9295  157.5228 C   0  0  0  0  0  0  0  0  0  0  0  0
  150.7571  142.0858  157.0406 C   0  0  0  0  0  0  0  0  0  0  0  0
  149.7648  142.0714  156.0240 N   0  0  0  0  0  0  0  0  0  0  0  0
  149.6251  141.2063  155.0016 C   0  0  0  0  0  0  0  0  0  0  0  0
  150.4069  140.2858  154.7634 O   0  0  0  0  0  0  0  0  0  0  0  0
  148.4359  141.4524  154.0603 C   0  0  1  0  0  0  0  0  0  0  0  0
  147.2496  140.4871  154.2545 C   0  0  0  0  0  0  0  0  0  0  0  0
  146.0509  141.4009  154.4535 C   0  0  0  0  0  0  0  0  0  0  0  0
  146.5336  142.7297  153.8884 C   0  0  0  0  0  0  0  0  0  0  0  0
  147.8940  142.7527  154.2832 O   0  0  0  0  0  0  0  0  0  0  0  0
  151.0769  143.3216  157.6395 C   0  0  0  0  0  0  0  0  0  0  0  0
  151.9910  143.4617  158.6226 N   0  0  0  0  0  0  0  0  0  0  0  0
  154.7314  141.5724  161.5091 H   0  0  0  0  0  0  0  0  0  0  0  0
  154.4681  140.5968  160.0679 H   0  0  0  0  0  0  0  0  0  0  0  0
  153.1642  140.8114  161.2579 H   0  0  0  0  0  0  0  0  0  0  0  0
  152.8869  140.2029  158.9354 H   0  0  0  0  0  0  0  0  0  0  0  0
  151.1981  139.9450  157.1377 H   0  0  0  0  0  0  0  0  0  0  0  0
  149.1113  142.8413  156.0406 H   0  0  0  0  0  0  0  0  0  0  0  0
  148.7873  141.3990  153.0287 H   0  0  0  0  0  0  0  0  0  0  0  0
  147.1206  139.8737  153.3623 H   0  0  0  0  0  0  0  0  0  0  0  0
  147.3623  139.8109  155.1028 H   0  0  0  0  0  0  0  0  0  0  0  0
  145.1480  141.0346  153.9644 H   0  0  0  0  0  0  0  0  0  0  0  0
  145.8402  141.5085  155.5183 H   0  0  0  0  0  0  0  0  0  0  0  0
  146.4632  142.7445  152.7994 H   0  0  0  0  0  0  0  0  0  0  0  0
  145.9831  143.5829  154.2850 H   0  0  0  0  0  0  0  0  0  0  0  0
  150.5900  144.2302  157.3157 H   0  0  0  0  0  0  0  0  0  0  0  0
  1  2  1  0  0  0  0
  1 17  1  0  0  0  0
  1 18  1  0  0  0  0
  1 19  1  0  0  0  0
  2  3  1  0  0  0  0
  3 16  1  0  0  0  0
  3  4  2  0  0  0  0
  4  5  1  0  0  0  0
  4 20  1  0  0  0  0
  5  6  2  0  0  0  0
  5 21  1  0  0  0  0
  6  7  1  0  0  0  0
  6 15  1  0  0  0  0
  7  8  1  0  0  0  0
  7 22  1  0  0  0  0
  8  9  2  0  0  0  0
  8 10  1  0  0  0  0
 10 14  1  0  0  0  0
 10 11  1  0  0  0  0
 10 23  1  0  0  0  0
 11 12  1  0  0  0  0
 11 24  1  0  0  0  0
 11 25  1  0  0  0  0
 12 13  1  0  0  0  0
 12 26  1  0  0  0  0
 12 27  1  0  0  0  0
 13 14  1  0  0  0  0
 13 28  1  0  0  0  0
 13 29  1  0  0  0  0
 15 16  2  0  0  0  0
 15 30  1  0  0  0  0
M  END
> <s_m_source_file>
AV-unprocessed.smi

> <i_m_source_file_index>
3177

> <i_lp_mmshare_version>
43012

> <i_f3d_flags>
0

> <s_epik_input>
W0NIM11PYzFbY0hdW2NIXWMoW2NIXW4xKVtOSF1DKD1PKVtDQEBIXTJbQ0gyXVtDSDJdW0NIMl1PMg==

> <s_epik_cmdline>
J2VwaWtfcHl0aG9uJywgJy1waCcsICc3LjAnLCAnLXRuJywgJzgnLCAnLW1hJywgJzIwMCcsICctbWV0YWxfYmluZGluZycsICctaW1hZScsICc8aW5maWxlLm1hZT4nLCAnLW9tYWUnLCAnPG91dGZpbGUubWFlPic=

> <r_lp_tautomer_probability>
1

> <r_epik_Ionization_Penalty>
2.59882e-05

> <r_epik_Ionization_Penalty_Charging>
0

> <r_epik_Ionization_Penalty_Neutral>
2.59882e-05

> <r_epik_State_Penalty>
-0

> <r_epik_Charging_Adjusted_Penalty>
0

> <i_epik_Tot_Q>
0

> <i_epik_Tot_abs_Q>
0

> <r_epik_Metal_State_Penalty>
-0

> <b_epik_Metal_Only>
0

> <s_lp_Force_Field>
OPLS_2005

> <r_lp_Energy>
23.4502

> <b_lp_Chiralities_Consistent>
1

> <s_lp_Variant>
AV-unprocessed.smi:3177-2

> <Gold.Version>
5.8.1

> <Gold.Id.Protein>
6NUR|6NUR_protein|mol2

> <Gold.PLP.Fitness>
39.5057

> <Gold.PLP.PLP>
-29.6357

> <Gold.PLP.part.hbond>
-4.0000

> <Gold.PLP.part.metal>
0.0000

> <Gold.PLP.part.buried>
-3.7005

> <Gold.PLP.part.nonpolar>
-25.9394

> <Gold.PLP.part.repulsive>
4.4623

> <Gold.PLP.ligand.clash>
0.0774

> <Gold.PLP.ligand.torsion>
0.7595

> <Gold.PLP.Chemscore.Hbond>
2.8146

> <Gold.PLP.Chemscore.CHOScore>
1.0000

> <Gold.PLP.Chemscore.Metal>
0.0000

> <Gold.Chemscore.Hbonds>
donor molecule, donor type, donor heavy atom, donor atom, acceptor molecule, acceptor atom, score
      L1  H     7    22       P1  8028  0.90
      P1  H  7989  7998       L1     9  1.00
      P1  H  8022  8030       L1    14  0.48
      L1  C    15    30       P1  8028  1.00

> <Gold.PLP.Chemscore.Internal.Correction>
0.0226

> <Gold.Rescore>
     Score         DG    S(hbond)    S(metal)    S(lipo)     H(rot)  DE(clash)    DE(int)     intcor
     13.64     -16.94       1.92        0.00      70.30       1.24       1.87       1.42       ----

> <Gold.Chemscore.Fitness>
13.6399

> <Gold.Chemscore.DG>
-16.9393

> <Gold.Chemscore.ZeroCoef>
-5.4800

> <Gold.Chemscore.Hbond>
1.9172

> <Gold.Chemscore.Metal>
0.0000

> <Gold.Chemscore.Lipo>
70.3024

> <Gold.Chemscore.Internal_Hbond>
0.0000

> <Gold.Chemscore.DEClash>
1.8750

> <Gold.Chemscore.DEInternal>
1.4244

> <Gold.Chemscore.Rot>
1.2381

> <Gold.Chemscore.Internal.Correction>
   9.000000E+99

> <Gold.Chemscore.Hbonds>
donor molecule, donor type, donor heavy atom, donor atom, acceptor molecule, acceptor atom, score
      L1  H     7    22       P1  8028  0.88
      P1  H  7989  7998       L1     9  0.64
      P1  H  8022  8030       L1    14  0.18

> <Gold.Chemscore.Hbond.Weighted>
-6.4033

> <Gold.Chemscore.Metal.Weighted>
-0.0000

> <Gold.Chemscore.Lipo.Weighted>
-8.2254

> <Gold.Chemscore.Internal_Hbond.Weighted>
0.0000

> <Gold.Chemscore.DEClash.Weighted>
1.8750

> <Gold.Chemscore.DEInternal.Weighted>
1.4244

> <Gold.Chemscore.Rot.Weighted>
3.1694

> <Gold.Chemscore.Internal.Correction.Weighted>
   9.000000E+99

> <Gold.Protein.RotatedTorsions>
[ 6907 6896 6895 6894 ] final  -23.11 input  -60.11 | X-H torsion
[ 7974 7965 7964 7962 ] final -148.12 input  175.53 | X-H torsion
[ 8008 7997 7996 7995 ] final -175.92 input   59.86 | X-H torsion
[ 10167 10162 10161 10158 ] final -102.58 input  -65.29 | X-H torsion
[ 10718 10713 10712 10709 ] final  -79.54 input   66.30 | X-H torsion
[ 10763 10752 10751 10750 ] final  118.68 input  -60.55 | X-H torsion
[ 11005 11000 10999 10996 ] final   50.92 input  -57.11 | X-H torsion

> <Gold.Protein.ActiveResidues>
 VAL166  LYS551  ARG553  GLY616  TRP617  ASP618  TYR619  PRO620  LYS621  CYS622 
 ASP623  PHE694  ASN695  SER759  ASP760  ASP761  ALA762  ILE779  LEU786  VAL792 
 PHE793  MET794  SER795  GLU796  ALA797  LYS798  CYS799  TRP800  GLU811  SER814 

> <Gold.Protein.RotatedAtoms>
  151.2088  135.0473  159.8902 H   0  0  0  0  0  0  0  0  0  0  0  0  # atno 6907 bound_to 6896
  152.5426  134.0768  159.8228 H   0  0  0  0  0  0  0  0  0  0  0  0  # atno 6908 bound_to 6896
  151.0918  133.5262  159.2646 H   0  0  0  0  0  0  0  0  0  0  0  0  # atno 6909 bound_to 6896
  144.8050  140.5238  143.5681 H   0  0  0  0  0  0  0  0  0  0  0  0  # atno 7974 bound_to 7965
  155.9886  140.1196  157.0660 H   0  0  0  0  0  0  0  0  0  0  0  0  # atno 8008 bound_to 7997
  154.4204  140.1130  156.5602 H   0  0  0  0  0  0  0  0  0  0  0  0  # atno 8009 bound_to 7997
  155.6374  140.3473  155.4705 H   0  0  0  0  0  0  0  0  0  0  0  0  # atno 8010 bound_to 7997
  140.2292  143.3619  152.0902 H   0  0  0  0  0  0  0  0  0  0  0  0  # atno 10167 bound_to 10162
  156.0090  130.4549  150.3664 H   0  0  0  0  0  0  0  0  0  0  0  0  # atno 10718 bound_to 10713
  153.5713  135.3501  155.2839 H   0  0  0  0  0  0  0  0  0  0  0  0  # atno 10763 bound_to 10752
  154.8681  135.4160  154.2722 H   0  0  0  0  0  0  0  0  0  0  0  0  # atno 10764 bound_to 10752
  153.3488  135.7054  153.6875 H   0  0  0  0  0  0  0  0  0  0  0  0  # atno 10765 bound_to 10752
  140.0976  134.5124  155.8792 H   0  0  0  0  0  0  0  0  0  0  0  0  # atno 11005 bound_to 11000
  145.5461  139.1476  143.3420 LP  0  0  0  0  0  0  0  0  0  0  0  0  # atno 17320 bound_to 7965
  146.2339  140.5600  142.8963 LP  0  0  0  0  0  0  0  0  0  0  0  0  # atno 17321 bound_to 7965
  139.5116  144.6903  151.5776 LP  0  0  0  0  0  0  0  0  0  0  0  0  # atno 17342 bound_to 10162
  140.6198  143.9280  150.6517 LP  0  0  0  0  0  0  0  0  0  0  0  0  # atno 17343 bound_to 10162
  157.1750  131.0378  151.2776 LP  0  0  0  0  0  0  0  0  0  0  0  0  # atno 17370 bound_to 10713
  157.4195  130.7430  149.6902 LP  0  0  0  0  0  0  0  0  0  0  0  0  # atno 17371 bound_to 10713
  141.2096  133.6686  156.6454 LP  0  0  0  0  0  0  0  0  0  0  0  0  # atno 17394 bound_to 11000
  140.3264  134.7965  157.4292 LP  0  0  0  0  0  0  0  0  0  0  0  0  # atno 17395 bound_to 11000

$$$$
