AV-unprocessed.smi:218|AV-procd|sdf|1671|dock4
  -GOLD-   2262020 83D 1   1.00000     0.00000
 Structure written by MMmdl.
 54 57  0  0  0  0  0  0  0  0  1 V2000
  150.8785  142.0993  156.7467 C   0  0  0  0  0  0  0  0  0  0  0  0
  151.6165  141.1304  157.6785 C   0  0  0  0  0  0  0  0  0  0  0  0
  152.4873  141.8895  158.6945 C   0  0  0  0  0  0  0  0  0  0  0  0
  152.4311  140.2967  156.8517 O   0  0  0  0  0  0  0  0  0  0  0  0
  151.8552  139.2939  156.0952 C   0  0  0  0  0  0  0  0  0  0  0  0
  151.8138  137.9911  156.6327 C   0  0  0  0  0  0  0  0  0  0  0  0
  151.2356  136.9574  155.8688 C   0  0  0  0  0  0  0  0  0  0  0  0
  151.1620  135.5474  156.4137 C   0  0  0  0  0  0  0  0  0  0  0  0
  149.8075  135.0199  156.4176 N   0  0  0  0  0  0  0  0  0  0  0  0
  149.3436  134.2925  155.3796 C   0  0  0  0  0  0  0  0  0  0  0  0
  150.2579  133.5003  154.7701 N   0  0  0  0  0  0  0  0  0  0  0  0
  149.9016  132.7383  153.7327 C   0  0  0  0  0  0  0  0  0  0  0  0
  148.7042  132.6215  153.1572 N   0  0  0  0  0  0  0  0  0  0  0  0
  147.7760  133.4158  153.7644 C   0  0  0  0  0  0  0  0  0  0  0  0
  148.0090  134.2784  154.8741 C   0  0  0  0  0  0  0  0  0  0  0  0
  146.8228  134.9260  155.2054 N   0  0  0  0  0  0  0  0  0  0  0  0
  145.9521  134.4728  154.3452 C   0  0  0  0  0  0  0  0  0  0  0  0
  146.4403  133.5523  153.4473 N   0  0  0  0  0  0  0  0  0  0  0  0
  145.6990  132.8620  152.3505 C   0  0  1  0  0  0  0  0  0  0  0  0
  144.3775  133.2985  152.3992 O   0  0  0  0  0  0  0  0  0  0  0  0
  143.8632  133.4237  151.0825 C   0  0  2  0  0  0  0  0  0  0  0  0
  143.0443  132.1700  150.7077 C   0  0  0  0  0  0  0  0  0  0  0  0
  142.7416  132.0980  149.3297 O   0  0  0  0  0  0  0  0  0  0  0  0
  145.0731  133.7355  150.1889 C   0  0  1  0  0  0  0  0  0  0  0  0
  145.1614  135.1350  150.0044 O   0  0  0  0  0  0  0  0  0  0  0  0
  146.2845  133.2238  150.9711 C   0  0  2  0  0  0  0  0  0  0  0  0
  146.8182  132.0843  150.3272 O   0  0  0  0  0  0  0  0  0  0  0  0
  150.7161  137.2658  154.5961 C   0  0  0  0  0  0  0  0  0  0  0  0
  150.8035  138.5962  154.1433 C   0  0  0  0  0  0  0  0  0  0  0  0
  151.3586  139.5905  154.8681 N   0  0  0  0  0  0  0  0  0  0  0  0
  145.7557  131.7984  152.5874 H   0  0  0  0  0  0  0  0  0  0  0  0
  143.1647  134.2622  151.0908 H   0  0  0  0  0  0  0  0  0  0  0  0
  144.9791  133.2809  149.2015 H   0  0  0  0  0  0  0  0  0  0  0  0
  147.0677  133.9787  151.0599 H   0  0  0  0  0  0  0  0  0  0  0  0
  150.2241  142.7649  157.3105 H   0  0  0  0  0  0  0  0  0  0  0  0
  150.2610  141.5567  156.0305 H   0  0  0  0  0  0  0  0  0  0  0  0
  151.5780  142.7168  156.1826 H   0  0  0  0  0  0  0  0  0  0  0  0
  150.8575  140.5464  158.2011 H   0  0  0  0  0  0  0  0  0  0  0  0
  151.8795  142.5549  159.3080 H   0  0  0  0  0  0  0  0  0  0  0  0
  153.2401  142.4963  158.1906 H   0  0  0  0  0  0  0  0  0  0  0  0
  153.0081  141.2103  159.3690 H   0  0  0  0  0  0  0  0  0  0  0  0
  152.2188  137.7909  157.6141 H   0  0  0  0  0  0  0  0  0  0  0  0
  151.8047  134.8991  155.8166 H   0  0  0  0  0  0  0  0  0  0  0  0
  151.5550  135.5506  157.4310 H   0  0  0  0  0  0  0  0  0  0  0  0
  149.2436  135.2641  157.2187 H   0  0  0  0  0  0  0  0  0  0  0  0
  150.6877  132.1350  153.3032 H   0  0  0  0  0  0  0  0  0  0  0  0
  144.9219  134.7983  154.3448 H   0  0  0  0  0  0  0  0  0  0  0  0
  143.5692  131.2646  151.0135 H   0  0  0  0  0  0  0  0  0  0  0  0
  142.0974  132.1827  151.2479 H   0  0  0  0  0  0  0  0  0  0  0  0
  142.0647  132.7290  149.1370 H   0  0  0  0  0  0  0  0  0  0  0  0
  145.4965  135.3000  149.1354 H   0  0  0  0  0  0  0  0  0  0  0  0
  147.7401  132.2285  150.1786 H   0  0  0  0  0  0  0  0  0  0  0  0
  150.2598  136.5049  153.9800 H   0  0  0  0  0  0  0  0  0  0  0  0
  150.4166  138.8700  153.1730 H   0  0  0  0  0  0  0  0  0  0  0  0
  1  2  1  0  0  0  0
  1 35  1  0  0  0  0
  1 36  1  0  0  0  0
  1 37  1  0  0  0  0
  2  3  1  0  0  0  0
  2  4  1  0  0  0  0
  2 38  1  0  0  0  0
  3 39  1  0  0  0  0
  3 40  1  0  0  0  0
  3 41  1  0  0  0  0
  4  5  1  0  0  0  0
  5 30  1  0  0  0  0
  5  6  2  0  0  0  0
  6  7  1  0  0  0  0
  6 42  1  0  0  0  0
  7  8  1  0  0  0  0
  7 28  2  0  0  0  0
  8  9  1  0  0  0  0
  8 43  1  0  0  0  0
  8 44  1  0  0  0  0
  9 10  1  0  0  0  0
  9 45  1  0  0  0  0
 10 15  1  0  0  0  0
 10 11  2  0  0  0  0
 11 12  1  0  0  0  0
 12 13  2  0  0  0  0
 12 46  1  0  0  0  0
 13 14  1  0  0  0  0
 14 18  1  0  0  0  0
 14 15  2  0  0  0  0
 15 16  1  0  0  0  0
 16 17  2  0  0  0  0
 17 18  1  0  0  0  0
 17 47  1  0  0  0  0
 18 19  1  0  0  0  0
 19 31  1  0  0  0  0
 19 26  1  0  0  0  0
 19 20  1  0  0  0  0
 20 21  1  0  0  0  0
 21 32  1  0  0  0  0
 21 22  1  0  0  0  0
 21 24  1  0  0  0  0
 22 23  1  0  0  0  0
 22 48  1  0  0  0  0
 22 49  1  0  0  0  0
 23 50  1  0  0  0  0
 24 33  1  0  0  0  0
 24 25  1  0  0  0  0
 24 26  1  0  0  0  0
 25 51  1  0  0  0  0
 26 34  1  0  0  0  0
 26 27  1  0  0  0  0
 27 52  1  0  0  0  0
 28 29  1  0  0  0  0
 28 53  1  0  0  0  0
 29 30  2  0  0  0  0
 29 54  1  0  0  0  0
M  END
> <s_m_source_file>
AV-unprocessed.smi

> <i_m_source_file_index>
218

> <i_lp_mmshare_version>
43012

> <i_f3d_flags>
0

> <s_epik_input>
W0NIM11bQ0hdKFtDSDNdKU9jMVtjSF1jKFtjSF1bY0hdbjEpW0NIMl1bTkhdYyhuW2NIXW4yKWMoYzIzKW5bY0hdbjNbQ0BASF00T1tDQEhdKFtDSDJdW09IXSlbQ0BASF0oW09IXSlbQ0BIXTRbT0hd

> <s_epik_cmdline>
J2VwaWtfcHl0aG9uJywgJy1waCcsICc3LjAnLCAnLXRuJywgJzgnLCAnLW1hJywgJzIwMCcsICctbWV0YWxfYmluZGluZycsICctaW1hZScsICc8aW5maWxlLm1hZT4nLCAnLW9tYWUnLCAnPG91dGZpbGUubWFlPic=

> <r_lp_tautomer_probability>
1

> <r_epik_Ionization_Penalty>
0.00457014

> <r_epik_Ionization_Penalty_Charging>
0

> <r_epik_Ionization_Penalty_Neutral>
0.00457014

> <r_epik_State_Penalty>
-0

> <r_epik_Charging_Adjusted_Penalty>
0

> <i_epik_Tot_Q>
0

> <i_epik_Tot_abs_Q>
0

> <r_epik_Metal_State_Penalty>
-0

> <b_epik_Metal_Only>
0

> <s_epik_Chemistry_Notes>
This compound contains an acetal/aminal-like group ( X-CH(R)-Y where X, Y are N, S, or O) that may be acid/base labile, releasing an aldehyde.

> <s_lp_Force_Field>
OPLS_2005

> <r_lp_Energy>
37.7133

> <b_lp_Chiralities_Consistent>
1

> <s_lp_Variant>
AV-unprocessed.smi:218-10

> <Gold.Version>
5.8.1

> <Gold.Id.Protein>
6NUR|6NUR_protein|mol2

> <Gold.PLP.Fitness>
57.4689

> <Gold.PLP.PLP>
-40.2156

> <Gold.PLP.part.hbond>
-6.3822

> <Gold.PLP.part.metal>
0.0000

> <Gold.PLP.part.buried>
-5.6010

> <Gold.PLP.part.nonpolar>
-27.8321

> <Gold.PLP.part.repulsive>
0.5012

> <Gold.PLP.ligand.clash>
0.0000

> <Gold.PLP.ligand.torsion>
0.9955

> <Gold.PLP.Chemscore.Hbond>
5.3562

> <Gold.PLP.Chemscore.CHOScore>
1.0000

> <Gold.PLP.Chemscore.Metal>
0.0000

> <Gold.Chemscore.Hbonds>
donor molecule, donor type, donor heavy atom, donor atom, acceptor molecule, acceptor atom, score
      L1  H    23    50       P1 10186  1.00
      L1  H    25    51       P1  7921  1.00
      L1  H    27    52       P1 10747  0.46
      P1  H  7989  7998       L1    30  1.00
      P1  H  7997  8008       L1     4  1.00
      P1  H 10785 10796       L1    23  0.84
      L1  C    29    54       P1  7957  1.00

> <Gold.PLP.Chemscore.Internal.Correction>
0.1757

> <Gold.Rescore>
     Score         DG    S(hbond)    S(metal)    S(lipo)     H(rot)  DE(clash)    DE(int)     intcor
     18.44     -20.38       5.20        0.00      86.31       4.90       0.85       1.09       ----

> <Gold.Chemscore.Fitness>
18.4410

> <Gold.Chemscore.DG>
-20.3795

> <Gold.Chemscore.ZeroCoef>
-5.4800

> <Gold.Chemscore.Hbond>
5.1954

> <Gold.Chemscore.Metal>
0.0000

> <Gold.Chemscore.Lipo>
86.3123

> <Gold.Chemscore.Internal_Hbond>
0.0000

> <Gold.Chemscore.DEClash>
0.8462

> <Gold.Chemscore.DEInternal>
1.0923

> <Gold.Chemscore.Rot>
4.9029

> <Gold.Chemscore.Internal.Correction>
   9.000000E+99

> <Gold.Chemscore.Hbonds>
donor molecule, donor type, donor heavy atom, donor atom, acceptor molecule, acceptor atom, score
      L1  H    23    50       P1 10186  0.92
      L1  H    25    51       P1  7921  0.98
      L1  H    27    52       P1 10747  0.46
      P1  H  7989  7998       L1    30  0.26
      P1  H  7997  8008       L1     4  0.47
      P1  H 10785 10796       L1    23  0.45

> <Gold.Chemscore.Hbond.Weighted>
-17.3525

> <Gold.Chemscore.Metal.Weighted>
-0.0000

> <Gold.Chemscore.Lipo.Weighted>
-10.0985

> <Gold.Chemscore.Internal_Hbond.Weighted>
0.0000

> <Gold.Chemscore.DEClash.Weighted>
0.8462

> <Gold.Chemscore.DEInternal.Weighted>
1.0923

> <Gold.Chemscore.Rot.Weighted>
12.5515

> <Gold.Chemscore.Internal.Correction.Weighted>
   9.000000E+99

> <Gold.Protein.RotatedTorsions>
[ 6907 6896 6895 6894 ] final   25.94 input  -60.11 | X-H torsion
[ 7974 7965 7964 7962 ] final  157.92 input  175.53 | X-H torsion
[ 8008 7997 7996 7995 ] final  -53.86 input   59.86 | X-H torsion
[ 10167 10162 10161 10158 ] final  -75.73 input  -65.29 | X-H torsion
[ 10718 10713 10712 10709 ] final   54.44 input   66.30 | X-H torsion
[ 10763 10752 10751 10750 ] final  126.37 input  -60.55 | X-H torsion
[ 11005 11000 10999 10996 ] final  -56.58 input  -57.11 | X-H torsion

> <Gold.Protein.ActiveResidues>
 VAL166  LYS551  ARG553  GLY616  TRP617  ASP618  TYR619  PRO620  LYS621  CYS622 
 ASP623  PHE694  ASN695  SER759  ASP760  ASP761  ALA762  ILE779  LEU786  VAL792 
 PHE793  MET794  SER795  GLU796  ALA797  LYS798  CYS799  TRP800  GLU811  SER814 

> <Gold.Protein.RotatedAtoms>
  151.9801  135.0033  160.0556 H   0  0  0  0  0  0  0  0  0  0  0  0  # atno 6907 bound_to 6896
  152.1704  133.4635  159.4914 H   0  0  0  0  0  0  0  0  0  0  0  0  # atno 6908 bound_to 6896
  150.6901  134.1877  159.4316 H   0  0  0  0  0  0  0  0  0  0  0  0  # atno 6909 bound_to 6896
  144.7875  139.7407  143.6235 H   0  0  0  0  0  0  0  0  0  0  0  0  # atno 7974 bound_to 7965
  154.4145  140.1190  156.5222 H   0  0  0  0  0  0  0  0  0  0  0  0  # atno 8008 bound_to 7997
  155.6691  140.3496  155.4792 H   0  0  0  0  0  0  0  0  0  0  0  0  # atno 8009 bound_to 7997
  155.9648  140.1130  157.0854 H   0  0  0  0  0  0  0  0  0  0  0  0  # atno 8010 bound_to 7997
  140.4917  143.2379  151.7896 H   0  0  0  0  0  0  0  0  0  0  0  0  # atno 10167 bound_to 10162
  157.5257  130.8596  149.8619 H   0  0  0  0  0  0  0  0  0  0  0  0  # atno 10718 bound_to 10713
  153.6923  135.3297  155.3205 H   0  0  0  0  0  0  0  0  0  0  0  0  # atno 10763 bound_to 10752
  154.8436  135.4434  154.1496 H   0  0  0  0  0  0  0  0  0  0  0  0  # atno 10764 bound_to 10752
  153.2541  135.6984  153.7726 H   0  0  0  0  0  0  0  0  0  0  0  0  # atno 10765 bound_to 10752
  141.1126  133.6610  156.4641 H   0  0  0  0  0  0  0  0  0  0  0  0  # atno 11005 bound_to 11000
  146.2113  139.5472  142.9679 LP  0  0  0  0  0  0  0  0  0  0  0  0  # atno 17320 bound_to 7965
  145.5882  141.0373  143.2085 LP  0  0  0  0  0  0  0  0  0  0  0  0  # atno 17321 bound_to 7965
  139.4853  144.4640  151.9507 LP  0  0  0  0  0  0  0  0  0  0  0  0  # atno 17342 bound_to 10162
  140.3727  144.2835  150.5918 LP  0  0  0  0  0  0  0  0  0  0  0  0  # atno 17343 bound_to 10162
  156.0385  130.3745  150.1496 LP  0  0  0  0  0  0  0  0  0  0  0  0  # atno 17370 bound_to 10713
  156.9682  130.9826  151.3464 LP  0  0  0  0  0  0  0  0  0  0  0  0  # atno 17371 bound_to 10713
  140.4732  134.6733  157.5138 LP  0  0  0  0  0  0  0  0  0  0  0  0  # atno 17394 bound_to 11000
  140.0029  134.6808  155.9501 LP  0  0  0  0  0  0  0  0  0  0  0  0  # atno 17395 bound_to 11000

$$$$
