AV-unprocessed.smi:446|AV-procd|sdf|2594|dock3
  -GOLD-   2262022593D 1   1.00000     0.00000
 Structure written by MMmdl.
 35 37  0  0  0  0  0  0  0  0  1 V2000
  152.2123  140.2342  156.6124 C   0  0  0  0  0  0  0  0  0  0  0  0
  150.9253  140.5373  155.9129 C   0  0  0  0  0  0  0  0  0  0  0  0
  150.6195  140.0105  154.7271 N   0  0  0  0  0  0  0  0  0  0  0  0
  149.3733  140.5485  154.4693 C   0  0  0  0  0  0  0  0  0  0  0  0
  148.5093  140.3767  153.3638 C   0  0  0  0  0  0  0  0  0  0  0  0
  147.2661  141.0413  153.3197 C   0  0  0  0  0  0  0  0  0  0  0  0
  146.8701  141.8859  154.3769 C   0  0  0  0  0  0  0  0  0  0  0  0
  147.7149  142.0696  155.4884 C   0  0  0  0  0  0  0  0  0  0  0  0
  148.9542  141.4031  155.5286 C   0  0  0  0  0  0  0  0  0  0  0  0
  149.9963  141.3656  156.4500 N   0  0  0  0  0  0  0  0  0  0  0  0
  150.0553  142.0737  157.7213 C   0  0  0  0  0  0  0  0  0  0  0  0
  151.2893  142.9905  157.8424 C   0  0  1  0  0  0  0  0  0  0  0  0
  150.9375  144.3237  157.5256 O   0  0  0  0  0  0  0  0  0  0  0  0
  151.9247  142.8749  159.2192 C   0  0  0  0  0  0  0  0  0  0  0  0
  151.6908  143.8592  160.2052 C   0  0  0  0  0  0  0  0  0  0  0  0
  152.2747  143.7388  161.4811 C   0  0  0  0  0  0  0  0  0  0  0  0
  153.0940  142.6333  161.7797 C   0  0  0  0  0  0  0  0  0  0  0  0
  153.6552  142.5178  163.0065 F   0  0  0  0  0  0  0  0  0  0  0  0
  153.3275  141.6471  160.8023 C   0  0  0  0  0  0  0  0  0  0  0  0
  152.7433  141.7667  159.5261 C   0  0  0  0  0  0  0  0  0  0  0  0
  152.8170  139.5483  156.0183 H   0  0  0  0  0  0  0  0  0  0  0  0
  152.0179  139.7689  157.5786 H   0  0  0  0  0  0  0  0  0  0  0  0
  152.7850  141.1483  156.7669 H   0  0  0  0  0  0  0  0  0  0  0  0
  148.8042  139.7328  152.5486 H   0  0  0  0  0  0  0  0  0  0  0  0
  146.6137  140.9030  152.4700 H   0  0  0  0  0  0  0  0  0  0  0  0
  145.9176  142.3934  154.3341 H   0  0  0  0  0  0  0  0  0  0  0  0
  147.4161  142.7182  156.2986 H   0  0  0  0  0  0  0  0  0  0  0  0
  149.1391  142.6540  157.8371 H   0  0  0  0  0  0  0  0  0  0  0  0
  150.0494  141.3417  158.5292 H   0  0  0  0  0  0  0  0  0  0  0  0
  152.0295  142.6857  157.1023 H   0  0  0  0  0  0  0  0  0  0  0  0
  150.4886  144.3256  156.6940 H   0  0  0  0  0  0  0  0  0  0  0  0
  151.0600  144.7085  159.9870 H   0  0  0  0  0  0  0  0  0  0  0  0
  152.0931  144.4944  162.2312 H   0  0  0  0  0  0  0  0  0  0  0  0
  153.9538  140.7976  161.0317 H   0  0  0  0  0  0  0  0  0  0  0  0
  152.9252  141.0027  158.7845 H   0  0  0  0  0  0  0  0  0  0  0  0
  1  2  1  0  0  0  0
  1 21  1  0  0  0  0
  1 22  1  0  0  0  0
  1 23  1  0  0  0  0
  2 10  1  0  0  0  0
  2  3  2  0  0  0  0
  3  4  1  0  0  0  0
  4  9  2  0  0  0  0
  4  5  1  0  0  0  0
  5  6  2  0  0  0  0
  5 24  1  0  0  0  0
  6  7  1  0  0  0  0
  6 25  1  0  0  0  0
  7  8  2  0  0  0  0
  7 26  1  0  0  0  0
  8  9  1  0  0  0  0
  8 27  1  0  0  0  0
  9 10  1  0  0  0  0
 10 11  1  0  0  0  0
 11 12  1  0  0  0  0
 11 28  1  0  0  0  0
 11 29  1  0  0  0  0
 12 13  1  0  0  0  0
 12 14  1  0  0  0  0
 12 30  1  0  0  0  0
 13 31  1  0  0  0  0
 14 20  1  0  0  0  0
 14 15  2  0  0  0  0
 15 16  1  0  0  0  0
 15 32  1  0  0  0  0
 16 17  2  0  0  0  0
 16 33  1  0  0  0  0
 17 18  1  0  0  0  0
 17 19  1  0  0  0  0
 19 20  2  0  0  0  0
 19 34  1  0  0  0  0
 20 35  1  0  0  0  0
M  END
> <s_m_source_file>
AV-unprocessed.smi

> <i_m_source_file_index>
446

> <i_lp_mmshare_version>
43012

> <i_f3d_flags>
0

> <s_epik_input>
W2NIXTFbY0hdW2NIXVtjSF1jKGMxMiluKGMobjIpW0NIM10pW0NIMl1bQ0BIXShbT0hdKWMzW2NIXVtjSF1jKEYpW2NIXVtjSF0z

> <s_epik_cmdline>
J2VwaWtfcHl0aG9uJywgJy1waCcsICc3LjAnLCAnLXRuJywgJzgnLCAnLW1hJywgJzIwMCcsICctbWV0YWxfYmluZGluZycsICctaW1hZScsICc8aW5maWxlLm1hZT4nLCAnLW9tYWUnLCAnPG91dGZpbGUubWFlPic=

> <r_epik_Ionization_Penalty>
0.129663

> <r_epik_Ionization_Penalty_Charging>
0

> <r_epik_Ionization_Penalty_Neutral>
0.129663

> <r_epik_State_Penalty>
0.119073

> <r_epik_Charging_Adjusted_Penalty>
0.119073

> <i_epik_Tot_Q>
0

> <i_epik_Tot_abs_Q>
0

> <r_epik_Metal_State_Penalty>
0.000131867

> <b_epik_Metal_Only>
0

> <s_lp_Force_Field>
OPLS_2005

> <r_lp_Energy>
11.2099

> <b_lp_Chiralities_Consistent>
1

> <s_lp_Variant>
AV-unprocessed.smi:446-2

> <Gold.Version>
5.8.1

> <Gold.Id.Protein>
6NUR|6NUR_protein|mol2

> <Gold.PLP.Fitness>
52.2528

> <Gold.PLP.PLP>
-48.6450

> <Gold.PLP.part.hbond>
-2.0000

> <Gold.PLP.part.metal>
0.0000

> <Gold.PLP.part.buried>
1.0210

> <Gold.PLP.part.nonpolar>
-47.1920

> <Gold.PLP.part.repulsive>
0.0674

> <Gold.PLP.ligand.clash>
0.0000

> <Gold.PLP.ligand.torsion>
1.1485

> <Gold.PLP.Chemscore.Hbond>
1.9600

> <Gold.PLP.Chemscore.CHOScore>
0.0000

> <Gold.PLP.Chemscore.Metal>
0.0000

> <Gold.Chemscore.Hbonds>
donor molecule, donor type, donor heavy atom, donor atom, acceptor molecule, acceptor atom, score
      L1  H    13    31       P1  8028  0.98
      P1  H  7989  7998       L1     3  1.00

> <Gold.PLP.Chemscore.Internal.Correction>
0.0248

> <Gold.Rescore>
     Score         DG    S(hbond)    S(metal)    S(lipo)     H(rot)  DE(clash)    DE(int)     intcor
     15.54     -19.47       1.02        0.00     129.78       1.79       2.76       1.17       ----

> <Gold.Chemscore.Fitness>
15.5380

> <Gold.Chemscore.DG>
-19.4703

> <Gold.Chemscore.ZeroCoef>
-5.4800

> <Gold.Chemscore.Hbond>
1.0163

> <Gold.Chemscore.Metal>
0.0000

> <Gold.Chemscore.Lipo>
129.7845

> <Gold.Chemscore.Internal_Hbond>
0.0000

> <Gold.Chemscore.DEClash>
2.7640

> <Gold.Chemscore.DEInternal>
1.1683

> <Gold.Chemscore.Rot>
1.7926

> <Gold.Chemscore.Internal.Correction>
   9.000000E+99

> <Gold.Chemscore.Hbonds>
donor molecule, donor type, donor heavy atom, donor atom, acceptor molecule, acceptor atom, score
      L1  H    13    31       P1  8028  0.92
      P1  H  7989  7998       L1     3  0.18

> <Gold.Chemscore.Hbond.Weighted>
-3.3945

> <Gold.Chemscore.Metal.Weighted>
-0.0000

> <Gold.Chemscore.Lipo.Weighted>
-15.1848

> <Gold.Chemscore.Internal_Hbond.Weighted>
0.0000

> <Gold.Chemscore.DEClash.Weighted>
2.7640

> <Gold.Chemscore.DEInternal.Weighted>
1.1683

> <Gold.Chemscore.Rot.Weighted>
4.5890

> <Gold.Chemscore.Internal.Correction.Weighted>
   9.000000E+99

> <Gold.Protein.RotatedTorsions>
[ 6907 6896 6895 6894 ] final  -88.98 input  -60.11 | X-H torsion
[ 7974 7965 7964 7962 ] final    0.10 input  175.53 | X-H torsion
[ 8008 7997 7996 7995 ] final   22.47 input   59.86 | X-H torsion
[ 10167 10162 10161 10158 ] final  -86.85 input  -65.29 | X-H torsion
[ 10718 10713 10712 10709 ] final   73.41 input   66.30 | X-H torsion
[ 10763 10752 10751 10750 ] final   23.81 input  -60.55 | X-H torsion
[ 11005 11000 10999 10996 ] final -151.46 input  -57.11 | X-H torsion

> <Gold.Protein.ActiveResidues>
 VAL166  LYS551  ARG553  GLY616  TRP617  ASP618  TYR619  PRO620  LYS621  CYS622 
 ASP623  PHE694  ASN695  SER759  ASP760  ASP761  ALA762  ILE779  LEU786  VAL792 
 PHE793  MET794  SER795  GLU796  ALA797  LYS798  CYS799  TRP800  GLU811  SER814 

> <Gold.Protein.RotatedAtoms>
  150.6871  134.2658  159.4567 H   0  0  0  0  0  0  0  0  0  0  0  0  # atno 6907 bound_to 6896
  152.0584  134.9607  160.0584 H   0  0  0  0  0  0  0  0  0  0  0  0  # atno 6908 bound_to 6896
  152.1044  133.4232  159.4639 H   0  0  0  0  0  0  0  0  0  0  0  0  # atno 6909 bound_to 6896
  146.2432  140.1189  142.8341 H   0  0  0  0  0  0  0  0  0  0  0  0  # atno 7974 bound_to 7965
  154.9662  140.3084  155.5008 H   0  0  0  0  0  0  0  0  0  0  0  0  # atno 8008 bound_to 7997
  156.2971  140.2292  156.4690 H   0  0  0  0  0  0  0  0  0  0  0  0  # atno 8009 bound_to 7997
  154.7919  140.0439  157.1195 H   0  0  0  0  0  0  0  0  0  0  0  0  # atno 8010 bound_to 7997
  140.3902  143.2708  151.9274 H   0  0  0  0  0  0  0  0  0  0  0  0  # atno 10167 bound_to 10162
  157.6546  130.9627  150.1065 H   0  0  0  0  0  0  0  0  0  0  0  0  # atno 10718 bound_to 10713
  153.0810  135.6619  154.0045 H   0  0  0  0  0  0  0  0  0  0  0  0  # atno 10763 bound_to 10752
  153.9666  135.2968  155.3431 H   0  0  0  0  0  0  0  0  0  0  0  0  # atno 10764 bound_to 10752
  154.7210  135.5165  153.8883 H   0  0  0  0  0  0  0  0  0  0  0  0  # atno 10765 bound_to 10752
  140.7294  134.3638  157.5169 H   0  0  0  0  0  0  0  0  0  0  0  0  # atno 11005 bound_to 11000
  145.0423  140.8955  143.5045 LP  0  0  0  0  0  0  0  0  0  0  0  0  # atno 17320 bound_to 7965
  145.1272  139.2655  143.5558 LP  0  0  0  0  0  0  0  0  0  0  0  0  # atno 17321 bound_to 7965
  139.4789  144.5735  151.8050 LP  0  0  0  0  0  0  0  0  0  0  0  0  # atno 17342 bound_to 10162
  140.4848  144.1397  150.5939 LP  0  0  0  0  0  0  0  0  0  0  0  0  # atno 17343 bound_to 10162
  156.1973  130.3658  149.8833 LP  0  0  0  0  0  0  0  0  0  0  0  0  # atno 17370 bound_to 10713
  156.6745  130.8834  151.3567 LP  0  0  0  0  0  0  0  0  0  0  0  0  # atno 17371 bound_to 10713
  139.8830  134.9008  156.2796 LP  0  0  0  0  0  0  0  0  0  0  0  0  # atno 17394 bound_to 11000
  140.9934  133.7194  156.0849 LP  0  0  0  0  0  0  0  0  0  0  0  0  # atno 17395 bound_to 11000

$$$$
